data_functionalizedCrystal
_audit_creation_method	'MofGen! by Chris Wilmer'
_symmetry_space_group_name_H-M	'P1'
_symmetry_Int_Tables_number	1
_symmetry_cell_setting	triclinic
loop_
_symmetry_equiv_pos_as_xyz
  x,y,z
_cell_length_a	13.330367
_cell_length_b	16.992694
_cell_length_c	16.992695
_cell_angle_alpha	89.331777
_cell_angle_beta	89.995081
_cell_angle_gamma	89.998159
loop_
_atom_site_label
_atom_site_type_symbol
_atom_site_fract_x
_atom_site_fract_y
_atom_site_fract_z
O1	O	0.083299	-1.050854	0.166905
O2	O	0.083328	-0.822454	0.165074
O3	O	0.083306	-0.935738	0.051790
O4	O	0.083321	-0.937570	0.280190
O5	O	-0.083541	-0.935721	0.051808
O6	O	-0.083519	-0.822437	0.165092
O7	O	-0.083548	-1.050837	0.166924
Cu8	Cu	-0.098768	-0.936635	0.166010
Cu9	Cu	0.098548	-0.936655	0.165988
O10	O	-0.083526	-0.937552	0.280208
C11	C	-0.000092	-0.793085	0.162727
C12	C	-0.000081	-0.705600	0.155699
C13	C	-0.000118	-0.933374	0.022439
C14	C	-0.000116	-0.926345	-0.065046
N15	N	-0.237550	-0.936626	0.166025
C16	C	-0.710165	-0.987399	0.216738
C17	C	-0.710148	-0.885934	0.115208
C18	C	-0.605130	-0.885923	0.115220
C19	C	-0.552624	-0.936652	0.165990
C20	C	-0.605137	-0.987391	0.216749
C21	C	-0.552609	-0.835191	0.064456
C22	C	-0.447584	-0.835179	0.064465
C23	C	-0.395077	-0.885904	0.115240
C24	C	-0.447596	-0.936644	0.166002
C25	C	-0.395091	-0.987373	0.216772
C26	C	-0.447608	-1.038110	0.267538
C27	C	-0.552630	-1.038116	0.267524
C28	C	-0.290055	-0.885898	0.115254
C29	C	-0.290062	-0.987365	0.216783
N30	N	0.237329	-0.936670	0.165967
C31	C	-0.000126	-1.080205	0.169270
C32	C	-0.000131	-1.167690	0.176299
C33	C	-0.000077	-0.659610	0.223517
C34	C	-0.000091	-0.577409	0.216908
C35	C	-0.000102	-0.541201	0.142480
C36	C	-0.000109	-0.587198	0.074657
C37	C	-0.000102	-0.669397	0.081267
C38	C	-0.000131	-0.295886	0.115086
C39	C	-0.000135	-0.213681	0.108481
C40	C	-0.000119	-0.203898	0.250732
C41	C	-0.000106	-0.286099	0.257336
C42	C	-0.000118	-0.332089	0.189512
N43	N	-0.000113	-0.457178	0.135723
N44	N	-0.000113	-0.416110	0.196270
C45	C	-0.000126	-0.994163	-0.111037
C46	C	-0.000116	-0.987554	-0.193238
C47	C	-0.000103	-0.913127	-0.229446
C48	C	-0.000090	-0.845303	-0.183449
C49	C	-0.000093	-0.851913	-0.101250
C50	C	-0.000085	-0.885732	-0.474760
C51	C	-0.000085	-0.879127	-0.556966
C52	C	-0.000109	-1.021379	-0.566749
C53	C	-0.000118	-1.027982	-0.484547
C54	C	-0.000100	-0.960159	-0.438558
N55	N	-0.000095	-0.906369	-0.313468
N56	N	-0.000101	-0.966917	-0.354537
C57	C	-0.000100	-0.939917	0.309559
C58	C	-0.000095	-0.946945	0.397044
H59	H	-0.247320	-1.028672	0.258131
F60	F	-0.766057	-1.041389	0.270768
F61	F	-0.000150	-1.073380	-0.072509
F62	F	-0.391716	-1.092102	0.321565
F63	F	-0.000127	-0.548660	-0.004555
H64	H	-0.752904	-0.844638	0.073869
F65	F	-0.000089	-0.324628	0.336551
F66	F	-0.000109	-0.718344	0.009085
F67	F	-0.000128	-1.059736	-0.242181
F68	F	-0.608494	-0.781206	0.010427
H69	H	-0.595398	-1.079425	0.308853
H70	H	-0.000129	-1.088589	-0.455073
H71	H	-0.000122	-1.076596	-0.604202
H72	H	-0.404833	-0.793865	0.023129
H73	H	-0.000091	-0.818516	-0.586443
F74	F	-0.000058	-0.698138	0.302733
F75	F	-0.000108	-0.154947	0.322909
F76	F	-0.000064	-0.813548	-0.425825
F77	F	-0.234167	-0.831915	0.061218
F78	F	-0.000065	-0.766091	-0.221987
F79	F	-0.000082	-0.528465	0.289090
H80	H	-0.000085	-0.796688	-0.063804
H81	H	-0.000143	-0.184203	0.047870
H82	H	-0.000141	-0.333322	0.059859
