data_functionalizedCrystal
_audit_creation_method	'MofGen! by Chris Wilmer'
_symmetry_space_group_name_H-M	'P1'
_symmetry_Int_Tables_number	1
_symmetry_cell_setting	triclinic
loop_
_symmetry_equiv_pos_as_xyz
  x,y,z
_cell_length_a	6.817900
_cell_length_b	14.858565
_cell_length_c	16.255661
_cell_angle_alpha	95.050358
_cell_angle_beta	103.488922
_cell_angle_gamma	104.523916
loop_
_atom_site_label
_atom_site_type_symbol
_atom_site_fract_x
_atom_site_fract_y
_atom_site_fract_z
V1	V	-4.031916	-0.129422	-0.264108
V2	V	-3.531916	0.370578	0.235892
O3	O	-4.013971	0.005446	-0.258838
O4	O	-3.513971	0.505446	0.241162
O5	O	-3.988552	-0.255878	-0.262536
O6	O	-3.488552	0.244122	0.237464
O7	O	-3.983411	-0.127770	-0.379189
O8	O	-3.483411	0.372230	0.120811
O9	O	-4.019148	-0.123549	-0.141377
O10	O	-3.519148	0.376451	0.358623
V11	V	-4.514905	-0.113250	-0.249400
V12	V	-4.014905	0.386750	0.250600
O13	O	-4.294346	-0.164896	-0.296372
O14	O	-3.794346	0.335104	0.203628
O15	O	-4.702672	-0.077776	-0.217137
O16	O	-4.202672	0.422224	0.282863
O17	O	-4.335062	0.013206	-0.250973
O18	O	-3.835062	0.513206	0.249027
O19	O	-4.650246	-0.248118	-0.254671
O20	O	-4.150246	0.251882	0.245329
O21	O	-4.645069	-0.119123	-0.372131
O22	O	-4.145069	0.380877	0.127869
O23	O	-4.340202	-0.114902	-0.134320
O24	O	-3.840202	0.385098	0.365680
C25	C	-3.834781	-0.286695	-0.258429
C26	C	-3.334781	0.213305	0.241571
C27	C	-3.880612	-0.390077	-0.257911
C28	C	-3.380612	0.109923	0.242089
C29	C	-4.048360	-0.768643	-0.256023
C30	C	-3.548360	-0.268643	0.243977
C31	C	-4.001679	-0.663314	-0.256547
C32	C	-3.501679	-0.163314	0.243453
C33	C	-3.964487	-0.579363	-0.256966
C34	C	-3.464487	-0.079363	0.243034
C35	C	-3.917804	-0.474028	-0.257492
C36	C	-3.417804	0.025972	0.242508
C37	C	-3.828223	-0.123279	-0.407231
C38	C	-3.328223	0.376721	0.092769
C39	C	-3.869882	-0.122766	-0.501311
C40	C	-3.369882	0.377234	-0.001311
C41	C	-3.780192	-0.116631	-0.724119
C42	C	-3.280192	0.383369	-0.224119
C43	C	-3.939791	-0.195814	-0.793740
C44	C	-3.439791	0.304186	-0.293740
C45	C	-3.946228	-0.121803	-0.673558
C46	C	-3.446228	0.378197	-0.173558
C47	C	-3.860882	-0.041714	-0.771572
C48	C	-3.360882	0.458286	-0.271572
C49	C	-4.019958	-0.120868	-0.839940
C50	C	-3.519958	0.379132	-0.339940
C51	C	-4.105312	-0.201056	-0.741950
C52	C	-3.605312	0.298944	-0.241950
C53	C	-4.026338	-0.046887	-0.719766
C54	C	-3.526338	0.453113	-0.219766
C55	C	-4.186075	-0.126092	-0.789368
C56	C	-3.686075	0.373908	-0.289368
C57	C	-3.903748	-0.122342	-0.577710
C58	C	-3.403748	0.377658	-0.077710
C59	C	-4.062455	-0.120336	-0.935788
C60	C	-3.562455	0.379664	-0.435788
C61	C	-4.152175	0.044018	-0.255077
C62	C	-3.652175	0.544018	0.244923
C63	C	-4.085582	0.147399	-0.255601
C64	C	-3.585582	0.647399	0.244399
C65	C	-4.158733	-0.119396	-0.106273
C66	C	-3.658733	0.380604	0.393727
C67	C	-4.096312	-0.119904	-0.012192
C68	C	-3.596312	0.380096	0.487808
H69	H	-3.608281	-0.112733	-0.695631
H70	H	-3.108281	0.387267	-0.195631
C71	C	-3.890962	-0.280868	-0.837252
C72	C	-3.390962	0.219132	-0.337252
N73	N	-3.854168	-0.344926	-0.870023
N74	N	-3.354168	0.155074	-0.370023
H75	H	-4.358109	-0.130113	-0.817722
H76	H	-3.858109	0.369887	-0.317722
C77	C	-4.244357	-0.292133	-0.723927
C78	C	-3.744357	0.207867	-0.223927
N79	N	-4.349075	-0.360733	-0.710350
N80	N	-3.849075	0.139267	-0.210350
C81	C	-4.075045	0.038180	-0.676225
C82	C	-3.575045	0.538180	-0.176225
N83	N	-4.111709	0.102260	-0.643425
N84	N	-3.611709	0.602260	-0.143425
C85	C	-3.721815	0.049266	-0.789746
C86	C	-3.221815	0.549266	-0.289746
N87	N	-3.617057	0.117788	-0.803431
N88	N	-3.117057	0.617788	-0.303431
