data_functionalizedCrystal
_audit_creation_method	'MofGen! by Chris Wilmer'
_symmetry_space_group_name_H-M	'P1'
_symmetry_Int_Tables_number	1
_symmetry_cell_setting	triclinic
loop_
_symmetry_equiv_pos_as_xyz
  x,y,z
_cell_length_a	15.538191
_cell_length_b	16.109302
_cell_length_c	14.586319
_cell_angle_alpha	89.994552
_cell_angle_beta	89.999456
_cell_angle_gamma	65.366938
loop_
_atom_site_label
_atom_site_type_symbol
_atom_site_fract_x
_atom_site_fract_y
_atom_site_fract_z
O1	O	0.121097	1.066615	-0.076271
O2	O	0.136166	0.820009	-0.076263
O3	O	-0.008513	0.991316	-0.076273
O4	O	0.265775	0.895308	-0.076261
O5	O	-0.008515	0.991308	0.076208
O6	O	0.136164	0.820001	0.076218
O7	O	0.121095	1.066607	0.076210
Cu8	Cu	0.128629	0.943303	0.090137
Cu9	Cu	0.128631	0.943313	-0.090190
O10	O	0.265773	0.895300	0.076220
C11	C	0.135554	0.789214	-0.000021
C12	C	0.133724	0.697471	-0.000019
C13	C	0.129490	0.486402	0.083089
C14	C	0.127760	0.400204	0.083086
C15	C	0.127767	0.400221	-0.083157
C16	C	0.129491	0.486421	-0.083153
C17	C	0.130357	0.529507	-0.000027
C18	C	0.126904	0.357109	-0.000034
C19	C	0.125028	0.263649	-0.000038
C20	C	0.132231	0.622974	-0.000022
C21	C	-0.043612	1.001357	-0.000036
C22	C	-0.148195	1.031277	-0.000046
C23	C	-0.435895	0.734025	-0.000016
C24	C	-0.534170	0.762160	-0.000015
C25	C	-0.556661	0.920418	-0.000021
C26	C	-0.458386	0.892296	-0.000026
C27	C	-0.398011	0.799098	-0.000023
C28	C	-0.420502	0.957369	-0.000033
C29	C	-0.322236	0.929248	-0.000034
C30	C	-0.261855	0.836054	-0.000028
C31	C	-0.299745	0.770977	-0.000024
C32	C	-0.480879	1.050566	-0.000030
C33	C	-0.442995	1.115639	-0.000037
C34	C	-0.344727	1.087519	-0.000044
C35	C	-0.284346	0.994325	-0.000038
C36	C	-0.306837	1.152596	-0.000049
C37	C	-0.208571	1.124475	-0.000049
C38	C	-0.186080	0.966204	-0.000039
C39	C	0.300873	0.885259	-0.000019
C40	C	0.405456	0.855339	-0.000015
C41	C	0.121706	1.097402	-0.000034
C42	C	0.123537	1.189145	-0.000042
N43	N	0.128627	0.943303	0.216968
N44	N	0.128626	0.943322	-0.217021
C45	C	0.064584	1.019169	0.451970
C46	C	0.064582	1.019173	0.547952
C47	C	0.192672	0.867449	0.547970
C48	C	0.192669	0.867444	0.451991
C49	C	0.128626	0.943309	0.403993
C50	C	0.128627	0.943316	0.595954
C51	C	0.128625	0.943319	0.700021
C52	C	0.128627	0.943305	0.299919
H53	H	0.130196	0.521480	0.150776
C54	C	0.126822	0.352816	-0.174590
N55	N	0.126114	0.317109	-0.243460
H56	H	0.244820	0.805664	0.412925
H57	H	-0.250583	0.695086	-0.000028
H58	H	0.130194	0.521519	-0.150840
H59	H	0.244815	0.805682	0.587059
H60	H	-0.565010	0.709163	0.000004
C61	C	0.126818	0.352787	0.174521
N62	N	0.126111	0.317072	0.243393
H63	H	-0.605831	0.996300	-0.000020
C64	C	-0.005877	1.102621	0.600722
N65	N	-0.058953	1.165477	0.640468
H66	H	-0.136918	0.890313	-0.000043
C67	C	-0.166895	1.196059	-0.000062
N68	N	-0.135506	1.249978	-0.000070
H69	H	-0.181841	0.813160	-0.000023
C70	C	-0.369476	0.631501	-0.000013
N71	N	-0.319450	0.554285	-0.000008
H72	H	-0.560893	1.073459	-0.000038
H73	H	0.012436	1.080942	0.412893
H74	H	-0.356008	1.228478	-0.000042
C75	C	-0.509418	1.218155	-0.000042
N76	N	-0.559447	1.295371	-0.000049
