data_functionalizedCrystal
_audit_creation_method	'MofGen! by Chris Wilmer'
_symmetry_space_group_name_H-M	'P1'
_symmetry_Int_Tables_number	1
_symmetry_cell_setting	triclinic
loop_
_symmetry_equiv_pos_as_xyz
  x,y,z
_cell_length_a	12.837943
_cell_length_b	13.262508
_cell_length_c	11.295483
_cell_angle_alpha	109.979812
_cell_angle_beta	85.461227
_cell_angle_gamma	89.431992
loop_
_atom_site_label
_atom_site_type_symbol
_atom_site_fract_x
_atom_site_fract_y
_atom_site_fract_z
O1	O	1.377386	0.272273	-0.010815
O2	O	1.075837	0.258501	-0.015282
O3	O	1.237740	0.110123	-0.063331
O4	O	1.215483	0.420651	0.037234
O5	O	1.223520	0.123133	0.138933
O6	O	1.061617	0.271511	0.186981
O7	O	1.363166	0.285283	0.191449
Cu8	Cu	1.211093	0.279585	0.207684
Cu9	Cu	1.227910	0.264199	-0.031517
O10	O	1.201263	0.433661	0.239497
C11	C	1.030192	0.260354	0.084342
C12	C	0.915373	0.246479	0.079845
C13	C	0.671321	0.413281	0.133881
C14	C	0.563437	0.400249	0.129659
C15	C	0.591718	0.207385	0.067187
C16	C	0.699602	0.220417	0.071409
C17	C	0.739399	0.323368	0.104756
C18	C	0.847286	0.336398	0.108969
C19	C	0.875564	0.143535	0.046506
C20	C	0.767680	0.130503	0.042284
C21	C	1.230690	0.076606	0.024837
C22	C	1.230856	-0.042650	-0.013791
C23	C	1.200314	-0.350456	0.318351
C24	C	1.200149	-0.238409	0.354646
C25	C	1.207826	-0.189464	0.262540
C26	C	1.215667	-0.252576	0.134133
C27	C	1.215824	-0.364633	0.097835
C28	C	1.223336	-0.203641	0.042023
C29	C	1.231177	-0.266753	-0.086384
C30	C	1.231334	-0.378799	-0.122676
C31	C	1.223657	-0.427745	-0.030570
C32	C	1.223180	-0.091584	0.078321
C33	C	1.238690	-0.105761	-0.142195
C34	C	1.238854	-0.217808	-0.178490
C35	C	1.408811	0.283430	0.091822
C36	C	1.523631	0.297304	0.096311
C37	C	1.208313	0.467178	0.151327
C38	C	1.208147	0.586433	0.189947
N39	N	1.199273	0.290407	0.375924
N40	N	1.239739	0.253369	-0.199760
C41	C	1.324829	0.175409	0.587975
C42	C	1.315904	0.183595	0.715289
C43	C	1.172492	0.314960	0.757868
C44	C	1.181417	0.306773	0.630554
C45	C	1.257590	0.236997	0.545611
C46	C	1.266519	0.228816	0.418296
C47	C	1.123103	0.360175	0.460875
C48	C	1.114178	0.368361	0.588190
H49	H	1.216786	-0.040208	0.182871
O50	O	1.246307	-0.279012	-0.303254
C51	C	1.169719	-0.322507	-0.501827
C52	C	1.161179	-0.253102	-0.360565
H53	H	1.100891	-0.301600	-0.548198
H54	H	1.246005	-0.306383	-0.549951
H55	H	1.168550	-0.410987	-0.511889
H56	H	1.162303	-0.164599	-0.350387
H57	H	1.084902	-0.269318	-0.312507
H58	H	1.068355	0.410327	0.426371
H59	H	1.223796	-0.518982	-0.060115
O60	O	1.040051	0.436012	0.670615
C61	C	0.856259	0.482881	0.723928
C62	C	0.940098	0.406173	0.630501
H63	H	0.775430	0.458798	0.691516
H64	H	0.861338	0.478142	0.822211
H65	H	0.869958	0.568549	0.727180
H66	H	0.926454	0.320471	0.627138
H67	H	0.934998	0.411005	0.532265
H68	H	1.237710	-0.430183	-0.227233
O69	O	0.497248	0.487570	0.158148
C70	C	0.351623	0.591489	0.294367
C71	C	0.426528	0.492571	0.262256
H72	H	0.294414	0.595552	0.378523
H73	H	0.398546	0.667346	0.319014
H74	H	0.306411	0.584755	0.209263
H75	H	0.471759	0.499200	0.347312
H76	H	0.379547	0.416753	0.237559
O77	O	1.245956	-0.058127	-0.231586
C78	C	1.164828	0.063009	-0.317686
C79	C	1.156515	0.009164	-0.216363
H80	H	1.092515	0.117407	-0.305430
H81	H	1.237623	0.112803	-0.307047
H82	H	1.170475	-0.001393	-0.415662
H83	H	1.150826	0.073494	-0.118343
H84	H	1.083734	-0.040653	-0.227113
O85	O	1.340536	0.160950	0.335936
C86	C	1.481873	0.031559	0.307160
C87	C	1.398081	0.108361	0.400557
H88	H	1.528436	-0.010963	0.359376
H89	H	1.442427	-0.030508	0.228737
H90	H	1.536837	0.079355	0.264232
H91	H	1.343091	0.060655	0.443580
H92	H	1.437597	0.170429	0.478906
O93	O	1.207704	-0.080611	0.298009
C94	C	1.198906	0.087966	0.471091
C95	C	1.199050	-0.035304	0.431091
H96	H	1.191888	0.124634	0.578689
H97	H	1.274860	0.112902	0.431403
H98	H	1.129782	0.117622	0.432780
H99	H	1.268124	-0.065049	0.469390
H100	H	1.123051	-0.060169	0.470762
O101	O	1.398850	0.107549	0.505613
C102	C	1.540206	-0.021822	0.476832
C103	C	1.456407	0.054967	0.570231
H104	H	1.586778	-0.064339	0.529044
H105	H	1.500767	-0.083894	0.398407
H106	H	1.595161	0.025984	0.433906
H107	H	1.401427	0.007251	0.613251
H108	H	1.495917	0.117040	0.648581
O109	O	1.098360	0.382597	0.840299
C110	C	0.914562	0.429431	0.893617
C111	C	0.998410	0.352746	0.800180
H112	H	0.833736	0.405337	0.861201
H113	H	0.919646	0.424678	0.991893
H114	H	0.928244	0.515107	0.896888
H115	H	0.984783	0.267036	0.796798
H116	H	0.993305	0.357592	0.701951
H117	H	0.879686	0.420226	0.136123
H118	H	1.193776	-0.187031	0.459195
H119	H	0.703724	0.497108	0.161031
O120	O	0.553008	0.107397	0.034599
C121	C	0.454898	-0.025945	-0.111136
C122	C	0.498701	0.087300	-0.074393
H123	H	0.410963	-0.042220	-0.199243
H124	H	0.522047	-0.088034	-0.131323
H125	H	0.399192	-0.031390	-0.029972
H126	H	0.554393	0.092850	-0.155509
H127	H	0.431500	0.149336	-0.054160
O128	O	0.728846	0.030575	0.009862
C129	C	0.575175	-0.074974	-0.024255
C130	C	0.619012	0.038256	0.012458
H131	H	0.486367	-0.068800	-0.022144
H132	H	0.609234	-0.125427	-0.123504
H133	H	0.597476	-0.114521	0.045796
H134	H	0.596725	0.077897	-0.057507
H135	H	0.584955	0.088632	0.111736
H136	H	0.931007	0.070321	0.022782
H137	H	1.194057	-0.390318	0.393330
H138	H	1.370656	0.133442	0.749776
