data_functionalizedCrystal
_audit_creation_method	'MofGen! by Chris Wilmer'
_symmetry_space_group_name_H-M	'P1'
_symmetry_Int_Tables_number	1
_symmetry_cell_setting	triclinic
loop_
_symmetry_equiv_pos_as_xyz
  x,y,z
_cell_length_a	30.700809
_cell_length_b	30.711276
_cell_length_c	30.700862
_cell_angle_alpha	59.998386
_cell_angle_beta	89.999414
_cell_angle_gamma	60.000191
loop_
_atom_site_label
_atom_site_type_symbol
_atom_site_fract_x
_atom_site_fract_y
_atom_site_fract_z
O1	O	-0.371254	-0.311651	0.012944
O2	O	-0.307913	-0.222487	-0.012907
O3	O	-0.307911	-0.311650	0.076286
O4	O	-0.371257	-0.222488	-0.076249
O5	O	-0.235466	-0.384070	0.076286
O6	O	-0.235468	-0.294907	-0.012907
O7	O	-0.298809	-0.384071	0.012944
Zn8	Zn	-0.255636	-0.350987	0.000018
Zn9	Zn	-0.351086	-0.255571	0.000019
O10	O	-0.298812	-0.294908	-0.076249
C11	C	-0.234796	-0.137097	-0.018777
C12	C	-0.261674	-0.083360	-0.015076
C13	C	-0.182374	-0.163176	-0.019143
C14	C	-0.234798	-0.215942	-0.018783
C15	C	-0.261678	-0.246507	-0.015089
C16	C	-0.182376	-0.241901	-0.019150
C17	C	-0.155920	-0.215947	-0.018777
C18	C	-0.098463	-0.246515	-0.015075
C19	C	-0.261132	-0.163172	-0.019150
C20	C	-0.574961	-0.535511	0.039265
C21	C	-0.548506	-0.588283	0.039634
C22	C	-0.496086	-0.535509	0.039262
C23	C	-0.469751	-0.588281	0.039632
C24	C	-0.496085	-0.614360	0.039265
C25	C	-0.548507	-0.509552	0.039632
C26	C	-0.765169	-0.393516	0.024987
C27	C	-0.819034	-0.364488	0.020950
C28	C	-0.846055	-0.389406	0.018925
C29	C	-0.904462	-0.357927	0.014538
C30	C	-0.819206	-0.443357	0.020941
C31	C	-0.765344	-0.472385	0.024984
C32	C	-0.738325	-0.447463	0.027007
C33	C	-0.447920	-0.790230	0.024988
C34	C	-0.423094	-0.840041	0.020951
C35	C	-0.371150	-0.865027	0.018921
C36	C	-0.344230	-0.919028	0.014536
C37	C	-0.344030	-0.840201	0.020935
C38	C	-0.368852	-0.790399	0.024981
C39	C	-0.420803	-0.765414	0.027004
C40	C	-0.447922	-0.393510	0.024977
C41	C	-0.423099	-0.364475	0.020931
C42	C	-0.371152	-0.389391	0.018903
C43	C	-0.344235	-0.357911	0.014513
C44	C	-0.344034	-0.443338	0.020916
C45	C	-0.368860	-0.472368	0.024960
C46	C	-0.420804	-0.447452	0.026995
C47	C	-0.679920	-0.478941	0.031387
C48	C	-0.633366	-0.504032	0.034880
C49	C	-0.469171	-0.504029	0.034875
C50	C	-0.447717	-0.478936	0.031380
C51	C	-0.469170	-0.668361	0.034880
C52	C	-0.447716	-0.711408	0.031386
C53	C	-0.496432	-0.071057	-0.503890
C54	C	-0.548853	-0.018285	-0.530226
C55	C	-0.496432	-0.071056	-0.425015
C56	C	-0.548854	-0.018284	-0.451470
C57	C	-0.575308	0.007793	-0.503892
C58	C	-0.470097	-0.097014	-0.451469
C59	C	-0.368666	-0.213054	-0.552051
C60	C	-0.343664	-0.242084	-0.576877
C61	C	-0.370616	-0.217167	-0.628824
C62	C	-0.343513	-0.248647	-0.655741
C63	C	-0.422570	-0.163216	-0.655945
C64	C	-0.447565	-0.134187	-0.631122
C65	C	-0.420611	-0.159108	-0.579173
C66	C	-0.765518	0.183662	-0.631659
C67	C	-0.819384	0.233473	-0.656662
C68	C	-0.846408	0.258459	-0.629712
C69	C	-0.904813	0.312461	-0.656813
C70	C	-0.819559	0.233635	-0.577758
C71	C	-0.765694	0.183833	-0.552761
C72	C	-0.738677	0.158847	-0.579717
C73	C	-0.368668	-0.213052	-0.234803
C74	C	-0.343669	-0.242086	-0.180935
C75	C	-0.370621	-0.217169	-0.153914
C76	C	-0.343519	-0.248648	-0.095506
C77	C	-0.422573	-0.163222	-0.180762
C78	C	-0.447570	-0.134193	-0.234627
C79	C	-0.420610	-0.159111	-0.261646
C80	C	-0.447720	-0.127629	-0.552258
C81	C	-0.469327	-0.102536	-0.530805
C82	C	-0.469328	-0.102535	-0.366609
C83	C	-0.447721	-0.127627	-0.320054
C84	C	-0.633714	0.061794	-0.530997
C85	C	-0.680269	0.104841	-0.552605
O86	O	0.076277	-0.384081	0.012960
O87	O	-0.076257	-0.294916	-0.012894
O88	O	0.012931	-0.384083	0.076300
O89	O	-0.012910	-0.294914	-0.076234
O90	O	0.012933	-0.311666	0.076306
O91	O	-0.076254	-0.222499	-0.012888
O92	O	0.076280	-0.311664	0.012966
Zn93	Zn	0.000013	-0.255584	0.000040
Zn94	Zn	0.000010	-0.350996	0.000032
O95	O	-0.012908	-0.222497	-0.076228
O96	O	-0.298805	0.063292	0.012964
O97	O	-0.235462	-0.063346	-0.012888
O98	O	-0.235465	-0.063353	0.076305
O99	O	-0.298803	0.063300	-0.076229
O100	O	-0.307912	-0.063350	0.076299
O101	O	-0.307909	-0.063342	-0.012895
O102	O	-0.371252	0.063295	0.012958
Zn103	Zn	-0.351083	-0.000023	0.000031
Zn104	Zn	-0.255631	-0.000027	0.000039
O105	O	-0.371250	0.063303	-0.076236
O106	O	-1.076607	0.456783	-0.692421
O107	O	-0.924074	0.330140	-0.629074
O108	O	-1.013262	0.330138	-0.629073
O109	O	-0.987418	0.456785	-0.692422
O110	O	-1.013261	0.330136	-0.701518
O111	O	-0.924072	0.330138	-0.701518
O112	O	-1.076605	0.456781	-0.764865
Zn113	Zn	-1.000338	0.393459	-0.744694
Zn114	Zn	-1.000340	0.393461	-0.649245
O115	O	-0.987417	0.456783	-0.764866
O116	O	-0.307911	-0.311650	-0.764507
O117	O	-0.371254	-0.222491	-0.701165
O118	O	-0.371252	-0.311652	-0.701162
O119	O	-0.307912	-0.222489	-0.764510
O120	O	-0.298806	-0.384074	-0.628716
O121	O	-0.298807	-0.294912	-0.628719
O122	O	-0.235464	-0.384072	-0.692061
Zn123	Zn	-0.255634	-0.350991	-0.648887
Zn124	Zn	-0.351085	-0.255572	-0.744338
O125	O	-0.235466	-0.294910	-0.692064
C126	C	-0.155920	-0.469469	0.234827
C127	C	-0.098464	-0.523208	0.261706
C128	C	-0.182375	-0.443392	0.261162
C129	C	-0.234797	-0.390619	0.155950
C130	C	-0.261676	-0.360052	0.098494
C131	C	-0.261132	-0.364662	0.182405
C132	C	-0.234797	-0.390620	0.234826
C133	C	-0.261675	-0.360052	0.261704
C134	C	-0.182375	-0.443391	0.182406
C135	C	0.018810	-0.390643	0.234846
C136	C	0.015111	-0.360079	0.261727
C137	C	0.019176	-0.443414	0.261179
C138	C	0.018812	-0.390637	0.155967
C139	C	0.015115	-0.360067	0.098511
C140	C	0.019178	-0.443408	0.182420
C141	C	0.018807	-0.469488	0.234841
C142	C	0.015106	-0.523226	0.261717
C143	C	0.019180	-0.364683	0.182425
C144	C	-0.234799	-0.215977	0.234834
C145	C	-0.261678	-0.246545	0.261708
C146	C	-0.182376	-0.241940	0.261172
C147	C	-0.234798	-0.137119	0.155964
C148	C	-0.261676	-0.083372	0.098509
C149	C	-0.182375	-0.163202	0.182421
C150	C	-0.155921	-0.215981	0.234841
C151	C	-0.098464	-0.246554	0.261721
C152	C	-0.261134	-0.163198	0.182415
C153	C	-0.039199	0.007461	-0.503869
C154	C	-0.039568	-0.018614	-0.530207
C155	C	-0.039203	-0.071390	-0.424995
C156	C	-0.039572	-0.097344	-0.451452
C157	C	-0.039201	-0.071385	-0.503874
C158	C	-0.039570	-0.018618	-0.451448
C159	C	-0.024912	0.183325	-0.552025
C160	C	-0.020873	0.233135	-0.576849
C161	C	-0.018844	0.258123	-0.628796
C162	C	-0.014454	0.312124	-0.655711
C163	C	-0.020859	0.233301	-0.655918
C164	C	-0.024906	0.183500	-0.631097
C165	C	-0.026932	0.158512	-0.579148
C166	C	-0.024920	-0.133799	-0.631644
C167	C	-0.020882	-0.162650	-0.656647
C168	C	-0.018855	-0.216605	-0.629699
C169	C	-0.014470	-0.247897	-0.656801
C170	C	-0.020872	-0.241704	-0.577746
C171	C	-0.024919	-0.212847	-0.552747
C172	C	-0.026939	-0.158893	-0.579702
C173	C	-0.024929	-0.133823	-0.234783
C174	C	-0.020887	-0.162684	-0.180915
C175	C	-0.018862	-0.216639	-0.153896
C176	C	-0.014477	-0.247936	-0.095488
C177	C	-0.020875	-0.241733	-0.180745
C178	C	-0.024915	-0.212872	-0.234610
C179	C	-0.026947	-0.158912	-0.261627
C180	C	-0.031316	0.104507	-0.552235
C181	C	-0.034811	0.061462	-0.530782
C182	C	-0.034820	-0.102682	-0.366590
C183	C	-0.031328	-0.127624	-0.320035
C184	C	-0.034816	-0.102672	-0.530980
C185	C	-0.031322	-0.127610	-0.552588
O186	O	-0.012940	-0.294936	0.371303
O187	O	0.012923	-0.384099	0.307961
O188	O	-0.076273	-0.294935	0.307950
O189	O	0.076257	-0.384100	0.371315
O190	O	-0.076265	-0.222515	0.235508
O191	O	0.012932	-0.311679	0.235520
O192	O	-0.012931	-0.222517	0.298862
Zn193	Zn	0.000002	-0.255600	0.255689
Zn194	Zn	-0.000010	-0.351016	0.351134
O195	O	0.076266	-0.311681	0.298873
C196	C	-0.574962	0.464558	-0.503864
C197	C	-0.548506	0.490518	-0.530195
C198	C	-0.496085	0.385697	-0.424987
C199	C	-0.469749	0.411776	-0.451438
C200	C	-0.496084	0.464555	-0.503857
C201	C	-0.548507	0.411779	-0.451444
C202	C	-0.765173	0.526994	-0.552039
C203	C	-0.819039	0.555852	-0.576867
C204	C	-0.846061	0.609814	-0.628812
C205	C	-0.904469	0.641114	-0.655732
C206	C	-0.819211	0.634913	-0.655928
C207	C	-0.765348	0.606050	-0.631102
C208	C	-0.738329	0.552088	-0.579155
C209	C	-0.447916	0.606561	-0.631604
C210	C	-0.423088	0.635592	-0.656601
C211	C	-0.371143	0.610674	-0.629648
C212	C	-0.344222	0.642150	-0.656742
C213	C	-0.344023	0.556716	-0.577696
C214	C	-0.368845	0.527681	-0.552704
C215	C	-0.420798	0.552613	-0.579664
C216	C	-0.447920	0.209802	-0.234786
C217	C	-0.423096	0.159988	-0.180919
C218	C	-0.371148	0.134996	-0.153895
C219	C	-0.344230	0.080987	-0.095489
C220	C	-0.344029	0.159823	-0.180737
C221	C	-0.368856	0.209637	-0.234602
C222	C	-0.420801	0.234620	-0.261624
C223	C	-0.679923	0.520797	-0.552238
C224	C	-0.633367	0.495853	-0.530781
C225	C	-0.469169	0.331687	-0.366583
C226	C	-0.447714	0.288634	-0.320030
C227	C	-0.469167	0.496035	-0.530956
C228	C	-0.447712	0.521128	-0.552558
H229	H	-0.426680	-0.610102	0.040221
H230	H	-0.570092	0.003538	-0.430229
C231	C	-0.154119	-0.472555	0.318633
C232	C	-0.182499	-0.490071	0.350781
C233	C	-0.156484	-0.516951	0.403727
H234	H	-0.152288	-0.443666	0.320757
H235	H	-0.119051	-0.507806	0.330622
H236	H	-0.217558	-0.454824	0.338796
H237	H	-0.184332	-0.518966	0.348673
H238	H	-0.121415	-0.552203	0.415716
H239	H	-0.154654	-0.488059	0.405845
H240	H	-0.175733	-0.528845	0.425546
C241	C	-0.154145	-0.298510	0.318628
C242	C	-0.182536	-0.284797	0.350784
C243	C	-0.156549	-0.336892	0.403712
H244	H	-0.119074	-0.310345	0.330664
H245	H	-0.152338	-0.331315	0.320684
H246	H	-0.184337	-0.252002	0.348731
H247	H	-0.217606	-0.272969	0.338764
H248	H	-0.154742	-0.369697	0.405768
H249	H	-0.121479	-0.348724	0.415743
H250	H	-0.175811	-0.327597	0.425536
H251	H	-0.161136	-0.141377	0.161182
H252	H	-0.161128	-0.465208	0.161163
C253	C	0.019864	-0.307989	0.154039
C254	C	-0.025541	-0.259753	0.108396
C255	C	-0.024932	-0.207517	0.082237
H256	H	0.050936	-0.317109	0.144009
H257	H	0.019996	-0.296149	0.177286
H258	H	-0.025668	-0.271591	0.085154
H259	H	-0.056619	-0.250614	0.118411
H260	H	-0.024800	-0.195677	0.105484
H261	H	0.006141	-0.216644	0.072211
H262	H	-0.055741	-0.174781	0.051268
C263	C	-0.318529	-0.134168	-0.019835
C264	C	-0.321379	-0.176948	0.025570
C265	C	-0.374240	-0.150249	0.024960
H266	H	-0.340478	-0.122249	-0.050907
H267	H	-0.330501	-0.098958	-0.019965
H268	H	-0.309413	-0.212146	0.025695
H269	H	-0.299441	-0.188869	0.056650
H270	H	-0.386212	-0.115040	0.024830
H271	H	-0.396185	-0.138331	-0.006115
H272	H	-0.376180	-0.179269	0.055768
H273	H	-0.304205	-0.141373	0.161175
C274	C	-0.339481	-0.530873	0.027046
C275	C	-0.368148	-0.521056	-0.016169
C276	C	-0.341096	-0.574935	-0.014269
H277	H	-0.336172	-0.563388	0.059451
H278	H	-0.304994	-0.541559	0.025233
H279	H	-0.402626	-0.510378	-0.014352
H280	H	-0.371459	-0.488551	-0.048580
H281	H	-0.306609	-0.585621	-0.016081
H282	H	-0.337788	-0.607446	0.018138
H283	H	-0.360540	-0.568280	-0.043592
C284	C	-0.154040	-0.134049	-0.020059
C285	C	-0.139412	-0.116562	-0.065961
C286	C	-0.113307	-0.089731	-0.066835
H287	H	-0.123015	-0.162959	0.010672
H288	H	-0.177286	-0.098791	-0.020254
H289	H	-0.116167	-0.151816	-0.065760
H290	H	-0.170427	-0.087647	-0.096699
H291	H	-0.136553	-0.054472	-0.067030
H292	H	-0.082284	-0.118643	-0.036102
H293	H	-0.103383	-0.077857	-0.097981
C294	C	0.020076	-0.472558	0.154114
C295	C	0.065965	-0.490067	0.139468
C296	C	0.066814	-0.516929	0.113403
H297	H	-0.010662	-0.443661	0.123099
H298	H	0.020272	-0.507810	0.177390
H299	H	0.065764	-0.454819	0.116193
H300	H	0.096712	-0.518970	0.170473
H301	H	0.067010	-0.552182	0.136679
H302	H	0.036073	-0.488029	0.082390
H303	H	0.097951	-0.528818	0.103466
C304	C	0.019848	-0.472421	0.318572
C305	C	-0.025567	-0.429646	0.321413
C306	C	-0.024972	-0.456347	0.374270
H307	H	0.050913	-0.484335	0.340531
H308	H	0.019985	-0.507633	0.330539
H309	H	-0.025699	-0.394444	0.309452
H310	H	-0.056639	-0.417728	0.299465
H311	H	-0.024836	-0.491559	0.386237
H312	H	0.006094	-0.468260	0.396224
H313	H	-0.055788	-0.427330	0.376203
H314	H	-0.301723	0.536422	-0.555753
H315	H	-0.301736	-0.463624	0.019263
C316	C	-0.040410	-0.153933	-0.423062
C317	C	-0.040668	-0.171183	-0.371399
C318	C	-0.041456	-0.223297	-0.345238
H319	H	-0.009655	-0.186793	-0.421186
H320	H	-0.071535	-0.144718	-0.442235
H321	H	-0.009547	-0.180402	-0.352231
H322	H	-0.071422	-0.138340	-0.373258
H323	H	-0.072580	-0.214082	-0.364410
H324	H	-0.010700	-0.256152	-0.343366
H325	H	-0.041636	-0.235005	-0.310183
C326	C	-0.318525	-0.307962	0.154084
C327	C	-0.321355	-0.259739	0.151483
C328	C	-0.374212	-0.207496	0.125398
H329	H	-0.340473	-0.317080	0.173241
H330	H	-0.330511	-0.296110	0.118990
H331	H	-0.309375	-0.271590	0.186571
H332	H	-0.299418	-0.250603	0.132323
H333	H	-0.386198	-0.195644	0.090304
H334	H	-0.396155	-0.216620	0.144557
H335	H	-0.376138	-0.174769	0.123626
H336	H	-0.040160	0.003216	-0.573279
H337	H	-0.026556	-0.233307	-0.256467
H338	H	-0.161139	-0.284365	-0.019743
C339	C	-0.040394	0.010590	-0.423225
C340	C	-0.040642	0.062487	-0.457631
C341	C	-0.041411	0.089413	-0.431654
H342	H	-0.009635	-0.018291	-0.392232
H343	H	-0.071515	0.022542	-0.413267
H344	H	-0.009524	0.050534	-0.467582
H345	H	-0.071399	0.091381	-0.488625
H346	H	-0.072532	0.101366	-0.421696
H347	H	-0.010651	0.060529	-0.400662
H348	H	-0.041584	0.124632	-0.454996
C349	C	-0.576916	-0.617291	0.040419
C350	C	-0.628588	-0.583133	0.040650
C351	C	-0.654772	-0.609838	0.041374
H352	H	-0.557783	-0.658357	0.071523
H353	H	-0.578769	-0.617501	0.009640
H354	H	-0.626732	-0.582931	0.071426
H355	H	-0.647735	-0.542068	0.009549
H356	H	-0.656624	-0.610048	0.010596
H357	H	-0.635634	-0.650903	0.072479
H358	H	-0.689835	-0.586663	0.041526
H359	H	-0.019235	-0.142256	-0.159055
C360	C	-0.848618	0.260523	-0.713069
C361	C	-0.901571	0.309497	-0.729197
C362	C	-0.928516	0.334434	-0.781158
H363	H	-0.847989	0.229711	-0.713898
H364	H	-0.831609	0.275042	-0.736551
H365	H	-0.918576	0.294977	-0.705721
H366	H	-0.902216	0.340322	-0.728380
H367	H	-0.911506	0.348953	-0.804640
H368	H	-0.927882	0.303617	-0.781982
H369	H	-0.964445	0.367669	-0.792109
H370	H	-0.444519	-0.142934	-0.158758
C371	C	-0.018574	-0.300379	-0.151408
C372	C	0.025982	-0.346000	-0.152380
C373	C	0.028122	-0.400032	-0.125355
H374	H	-0.050057	-0.292460	-0.168347
H375	H	-0.015852	-0.314010	-0.115471
H376	H	0.023256	-0.332371	-0.188310
H377	H	0.057472	-0.353937	-0.135438
H378	H	0.030844	-0.413663	-0.089419
H379	H	-0.003363	-0.392107	-0.142296
H380	H	0.058355	-0.430994	-0.126007
H381	H	-0.570087	0.003544	-0.573301
H382	H	-0.569749	-0.467085	0.040220
C383	C	-0.027097	-0.075263	-0.264016
C384	C	-0.024451	-0.059475	-0.228971
C385	C	-0.026438	-0.005540	-0.255881
H386	H	-0.059526	-0.042792	-0.293207
H387	H	0.002199	-0.081863	-0.276843
H388	H	-0.053744	-0.052871	-0.216152
H389	H	0.007976	-0.091931	-0.199779
H390	H	0.002857	-0.012140	-0.268709
H391	H	-0.058868	0.026927	-0.285072
H392	H	-0.024638	0.005176	-0.232107
C393	C	-0.339325	0.469127	-0.496292
C394	C	-0.288525	0.453521	-0.478028
C395	C	-0.261319	0.399590	-0.426060
H396	H	-0.335969	0.436598	-0.496182
H397	H	-0.358685	0.475663	-0.473535
H398	H	-0.269169	0.446981	-0.500779
H399	H	-0.291865	0.486034	-0.478125
H400	H	-0.280679	0.406127	-0.403303
H401	H	-0.257967	0.367067	-0.425955
H402	H	-0.226850	0.388998	-0.413659
H403	H	-0.026563	0.162985	-0.509727
H404	H	-0.019230	0.253339	-0.554762
C405	C	-0.848442	-0.470521	0.018776
C406	C	-0.813399	-0.523988	0.021422
C407	C	-0.840309	-0.549035	0.019436
H408	H	-0.877634	-0.441392	-0.013653
H409	H	-0.861268	-0.480385	0.048073
H410	H	-0.800581	-0.514122	-0.007873
H411	H	-0.784207	-0.553131	0.053849
H412	H	-0.853135	-0.558898	0.048733
H413	H	-0.869500	-0.519901	-0.012993
H414	H	-0.816535	-0.585317	0.021236
H415	H	-0.426677	0.389946	-0.430194
H416	H	-0.490215	0.626864	-0.653559
C417	C	-0.339477	0.236693	-0.263743
C418	C	-0.368143	0.298731	-0.282582
C419	C	-0.341092	0.323673	-0.309423
H420	H	-0.336169	0.233515	-0.292964
H421	H	-0.304989	0.214711	-0.239945
H422	H	-0.402621	0.320707	-0.306379
H423	H	-0.371451	0.301927	-0.253372
H424	H	-0.306604	0.301691	-0.285624
H425	H	-0.337785	0.320490	-0.338641
H426	H	-0.360535	0.365766	-0.322204
H427	H	-0.445183	0.139782	-0.159066
C428	C	-0.027140	-0.075205	-0.661008
C429	C	-0.024526	-0.059391	-0.711859
C430	C	-0.026577	-0.005416	-0.738924
H431	H	0.002134	-0.081749	-0.641617
H432	H	-0.059589	-0.042768	-0.664271
H433	H	0.007919	-0.091820	-0.708594
H434	H	-0.053798	-0.052835	-0.731264
H435	H	-0.059025	0.027021	-0.742187
H436	H	0.002699	-0.011966	-0.719528
H437	H	-0.024808	0.005324	-0.773431
H438	H	-0.019210	0.253653	-0.698214
H439	H	-0.026547	0.163294	-0.653183
H440	H	-0.569746	0.532985	-0.573266
H441	H	-0.301729	0.139473	-0.158731
H442	H	-0.019237	-0.142213	-0.698946
H443	H	-0.019230	-0.285631	-0.555806
C444	C	-0.027075	-0.240207	-0.496333
C445	C	-0.024423	-0.293642	-0.478075
C446	C	-0.026398	-0.318868	-0.426105
H447	H	-0.059502	-0.211147	-0.496218
H448	H	0.002223	-0.250144	-0.473575
H449	H	-0.053718	-0.283703	-0.500826
H450	H	0.008002	-0.322716	-0.478176
H451	H	0.002900	-0.328805	-0.403347
H452	H	-0.058826	-0.289803	-0.425995
H453	H	-0.024594	-0.355129	-0.413708
C454	C	-0.452620	-0.305926	0.018775
C455	C	-0.503418	-0.290330	0.021434
C456	C	-0.530626	-0.236404	0.019459
H457	H	-0.455982	-0.273393	-0.013655
H458	H	-0.433259	-0.312465	0.048071
H459	H	-0.522775	-0.283787	-0.007859
H460	H	-0.500073	-0.322848	0.053862
H461	H	-0.511265	-0.242942	0.048755
H462	H	-0.533984	-0.203875	-0.012971
H463	H	-0.565094	-0.225818	0.021267
C464	C	-0.576909	0.382751	-0.423225
C465	C	-0.628576	0.416906	-0.457632
C466	C	-0.654752	0.390182	-0.431656
H467	H	-0.578776	0.382519	-0.392233
H468	H	-0.557751	0.341685	-0.413264
H469	H	-0.647729	0.457962	-0.467585
H470	H	-0.626724	0.417141	-0.488625
H471	H	-0.635594	0.349115	-0.421696
H472	H	-0.656615	0.389951	-0.400665
H473	H	-0.689809	0.413348	-0.454999
C474	C	-0.504333	0.236866	-0.264023
C475	C	-0.522777	0.204479	-0.228984
C476	C	-0.574744	0.229402	-0.255897
H477	H	-0.504387	0.233637	-0.293218
H478	H	-0.527022	0.278974	-0.276845
H479	H	-0.500093	0.162382	-0.216169
H480	H	-0.522735	0.207706	-0.199788
H481	H	-0.597434	0.271509	-0.268720
H482	H	-0.574794	0.226171	-0.285092
H483	H	-0.587267	0.207435	-0.232126
H484	H	-0.490220	-0.373215	0.026628
C485	C	-0.735925	0.468391	-0.495651
C486	C	-0.770960	0.452579	-0.477225
C487	C	-0.744032	0.398595	-0.425287
H488	H	-0.723079	0.474925	-0.472914
H489	H	-0.706742	0.435959	-0.495656
H490	H	-0.800133	0.485004	-0.477216
H491	H	-0.783808	0.446032	-0.499947
H492	H	-0.714849	0.366162	-0.425292
H493	H	-0.731186	0.405135	-0.402555
H494	H	-0.767797	0.387856	-0.412780
H495	H	-0.346767	-0.770191	0.026621
C496	C	-0.735916	-0.366395	0.027230
C497	C	-0.770947	-0.312955	0.024626
C498	C	-0.744012	-0.287968	0.026707
H499	H	-0.723062	-0.356508	-0.002039
H500	H	-0.706737	-0.395583	0.059684
H501	H	-0.800117	-0.283774	-0.007825
H502	H	-0.783802	-0.322826	0.053892
H503	H	-0.714833	-0.317156	0.059161
H504	H	-0.731160	-0.278085	-0.002563
H505	H	-0.767776	-0.251710	0.024945
H506	H	-0.840896	0.535415	-0.554785
H507	H	-0.841216	0.678847	-0.698222
C508	C	-0.736300	0.633411	-0.660618
C509	C	-0.771494	0.686854	-0.711416
C510	C	-0.744756	0.712081	-0.738618
H511	H	-0.707115	0.604355	-0.663979
H512	H	-0.723481	0.643338	-0.641251
H513	H	-0.784304	0.676924	-0.730778
H514	H	-0.800679	0.715923	-0.708071
H515	H	-0.731938	0.722009	-0.719251
H516	H	-0.715572	0.683021	-0.741975
H517	H	-0.768632	0.748348	-0.773085
H518	H	-0.841561	0.253985	-0.555818
C519	C	-0.452599	0.694246	-0.712955
C520	C	-0.499207	0.739753	-0.713922
C521	C	-0.526403	0.793799	-0.765823
H522	H	-0.461632	0.686288	-0.736475
H523	H	-0.430399	0.708003	-0.723985
H524	H	-0.521404	0.725999	-0.702900
H525	H	-0.490189	0.747730	-0.690413
H526	H	-0.504202	0.807557	-0.776852
H527	H	-0.535432	0.785835	-0.789339
H528	H	-0.558027	0.824684	-0.766485
C529	C	-0.848271	-0.305857	0.018666
C530	C	-0.891257	-0.258112	-0.029179
C531	C	-0.918206	-0.204093	-0.031301
H532	H	-0.824532	-0.295086	0.020416
H533	H	-0.861140	-0.312370	0.047930
H534	H	-0.878388	-0.251599	-0.058436
H535	H	-0.915008	-0.268862	-0.030940
H536	H	-0.931076	-0.210605	-0.002037
H537	H	-0.894463	-0.193328	-0.029549
H538	H	-0.947378	-0.171693	-0.063761
C539	C	-0.287659	-0.867206	0.018662
C540	C	-0.286576	-0.821680	-0.025879
C541	C	-0.234655	-0.846531	-0.027987
H542	H	-0.276700	-0.900411	0.015938
H543	H	-0.264132	-0.881732	0.050168
H544	H	-0.310095	-0.807163	-0.057378
H545	H	-0.297525	-0.788472	-0.023166
H546	H	-0.211129	-0.861057	0.003519
H547	H	-0.223701	-0.879736	-0.030709
H548	H	-0.233913	-0.815644	-0.058205
C549	C	-0.504310	-0.763216	0.027213
C550	C	-0.522740	-0.795628	0.024602
C551	C	-0.574680	-0.770763	0.026657
H552	H	-0.527042	-0.721110	-0.002062
H553	H	-0.504308	-0.766480	0.059662
H554	H	-0.522746	-0.792358	-0.007843
H555	H	-0.500023	-0.837733	0.053875
H556	H	-0.574678	-0.774026	0.059106
H557	H	-0.597407	-0.728657	-0.002619
H558	H	-0.587189	-0.792753	0.024891
H559	H	-0.445180	-0.860248	0.019309
C560	C	-0.412657	-0.153616	-0.423245
C561	C	-0.395150	-0.170870	-0.457651
C562	C	-0.342239	-0.223001	-0.431673
H563	H	-0.410557	-0.186467	-0.392254
H564	H	-0.390738	-0.144419	-0.413284
H565	H	-0.417062	-0.180070	-0.467606
H566	H	-0.397236	-0.138034	-0.488643
H567	H	-0.320321	-0.213804	-0.421711
H568	H	-0.340145	-0.255847	-0.400682
H569	H	-0.330352	-0.234711	-0.455015
H570	H	-0.743487	-0.516312	0.026628
H571	H	-0.301369	-0.286012	-0.159078
C572	C	-0.339317	-0.240211	-0.264040
C573	C	-0.288475	-0.293674	-0.228999
C574	C	-0.261426	-0.318707	-0.255915
H575	H	-0.336030	-0.211073	-0.293228
H576	H	-0.358741	-0.250074	-0.276875
H577	H	-0.269056	-0.283809	-0.216173
H578	H	-0.291746	-0.322826	-0.199811
H579	H	-0.280850	-0.328570	-0.268749
H580	H	-0.258144	-0.289565	-0.285101
H581	H	-0.226929	-0.354988	-0.232142
C582	C	-0.339300	-0.240187	-0.495660
C583	C	-0.288448	-0.293633	-0.477230
C584	C	-0.261382	-0.318638	-0.425288
H585	H	-0.358688	-0.250071	-0.472929
H586	H	-0.336038	-0.211011	-0.495663
H587	H	-0.291712	-0.322804	-0.477223
H588	H	-0.269046	-0.283766	-0.499947
H589	H	-0.258120	-0.289461	-0.425291
H590	H	-0.280774	-0.328518	-0.402561
H591	H	-0.226874	-0.354900	-0.412778
H592	H	-0.444508	-0.142931	-0.698242
C593	C	-0.287294	-0.300711	-0.547458
C594	C	-0.287367	-0.348465	-0.542675
C595	C	-0.235447	-0.402479	-0.515581
H596	H	-0.274775	-0.311474	-0.512947
H597	H	-0.264546	-0.294196	-0.566842
H598	H	-0.310108	-0.354980	-0.523290
H599	H	-0.299876	-0.337723	-0.577177
H600	H	-0.212699	-0.395965	-0.534965
H601	H	-0.222932	-0.413236	-0.481072
H602	H	-0.235489	-0.434885	-0.512336
C603	C	-0.503978	-0.075635	-0.660646
C604	C	-0.522237	-0.060032	-0.711447
C605	C	-0.574204	-0.006103	-0.738657
H606	H	-0.504089	-0.043105	-0.664003
H607	H	-0.526736	-0.082171	-0.641288
H608	H	-0.499485	-0.053493	-0.730801
H609	H	-0.522138	-0.092547	-0.708105
H610	H	-0.596962	-0.012639	-0.719299
H611	H	-0.574311	0.026423	-0.742011
H612	H	-0.586601	0.004488	-0.773127
H613	H	-0.743837	0.163627	-0.510462
C614	C	-0.736269	0.156646	-0.661025
C615	C	-0.771304	0.189057	-0.711876
C616	C	-0.744375	0.164190	-0.738942
H617	H	-0.723424	0.114541	-0.641635
H618	H	-0.707085	0.159910	-0.664288
H619	H	-0.800478	0.185787	-0.708611
H620	H	-0.784150	0.231162	-0.731280
H621	H	-0.715191	0.167454	-0.742206
H622	H	-0.731531	0.122085	-0.719548
H623	H	-0.768140	0.186180	-0.773449
H624	H	-0.489870	-0.090268	-0.256484
