data_functionalizedCrystal
_audit_creation_method	'MofGen! by Chris Wilmer'
_symmetry_space_group_name_H-M	'P1'
_symmetry_Int_Tables_number	1
_symmetry_cell_setting	triclinic
loop_
_symmetry_equiv_pos_as_xyz
  x,y,z
_cell_length_a	13.897448
_cell_length_b	12.759401
_cell_length_c	12.759393
_cell_angle_alpha	90.020057
_cell_angle_beta	89.966603
_cell_angle_gamma	89.986705
loop_
_atom_site_label
_atom_site_type_symbol
_atom_site_fract_x
_atom_site_fract_y
_atom_site_fract_z
Zn1	Zn	-0.384071	-1.606233	-0.594013
Zn2	Zn	0.115929	-1.106233	-0.094013
Zn3	Zn	-0.545400	-1.606118	-0.418328
Zn4	Zn	-0.045400	-1.106118	0.081672
Zn5	Zn	-0.384109	-1.430535	-0.418348
Zn6	Zn	0.115891	-0.930535	0.081652
Zn7	Zn	-0.545313	-1.430515	-0.593964
Zn8	Zn	-0.045313	-0.930515	-0.093964
O9	O	-0.464723	-1.518350	-0.506163
O10	O	0.035277	-1.018350	-0.006163
O11	O	-0.405492	-1.753239	-0.570720
O12	O	0.094508	-1.253239	-0.070720
O13	O	-0.524057	-1.582788	-0.271309
O14	O	-0.024057	-1.082788	0.228691
O15	O	-0.249122	-1.453899	-0.441679
O16	O	0.250878	-0.953899	0.058321
O17	O	-0.524020	-1.753155	-0.441645
O18	O	-0.024020	-1.253155	0.058355
O19	O	-0.249094	-1.582983	-0.570740
O20	O	0.250906	-1.082983	-0.070740
O21	O	-0.405557	-1.453787	-0.271324
O22	O	0.094443	-0.953787	0.228676
O23	O	-0.405472	-1.283511	-0.441632
O24	O	0.094528	-0.783511	0.058368
O25	O	-0.523872	-1.453863	-0.740992
O26	O	-0.023872	-0.953863	-0.240992
O27	O	-0.523908	-1.283496	-0.570656
O28	O	-0.023908	-0.783496	-0.070656
O29	O	-0.405408	-1.582963	-0.741028
O30	O	0.094592	-1.082963	-0.241028
O31	O	-0.680370	-1.582767	-0.441598
O32	O	-0.180370	-1.082767	0.058402
O33	O	-0.680306	-1.453752	-0.570637
O34	O	-0.180306	-0.953752	-0.070637
C35	C	-0.464685	-1.245383	-0.506141
C36	C	0.035315	-0.745383	-0.006141
C37	C	-0.464693	-1.128606	-0.506157
C38	C	0.035307	-0.628606	-0.006157
C39	C	-0.403100	-0.964052	-0.573474
C40	C	0.096900	-0.464052	-0.073474
C41	C	-0.403087	-1.073776	-0.573469
C42	C	0.096913	-0.573776	-0.073469
C43	C	-0.526322	-1.073707	-0.438852
C44	C	-0.026322	-0.573707	0.061148
C45	C	-0.526339	-0.963985	-0.438863
C46	C	-0.026339	-0.463985	0.061137
C47	C	-0.715337	-1.518274	-0.506133
C48	C	-0.215337	-1.018274	-0.006133
C49	C	-0.822551	-1.518337	-0.506155
C50	C	-0.322551	-1.018337	-0.006155
C51	C	-1.018846	-1.518447	-0.506221
C52	C	-0.518846	-1.018447	-0.006221
C53	C	-0.909614	-1.518383	-0.506187
C54	C	-0.409614	-1.018383	-0.006187
C55	C	-0.213130	-1.518456	-0.506217
C56	C	0.286870	-1.018456	-0.006217
C57	C	-0.105916	-1.518501	-0.506240
C58	C	0.394084	-1.018501	-0.006240
C59	C	-0.464626	-1.518424	-0.780197
C60	C	0.035374	-1.018424	-0.280197
C61	C	-0.464584	-1.518455	-0.896974
C62	C	0.035416	-1.018455	-0.396974
C63	C	-0.464748	-0.792384	-0.506180
C64	C	0.035252	-0.292384	-0.006180
C65	C	-0.464722	-0.909160	-0.506172
C66	C	0.035278	-0.409160	-0.006172
C67	C	-0.402870	-1.451309	-0.951843
C68	C	0.097130	-0.951309	-0.451843
C69	C	-0.402840	-1.451333	-1.061567
C70	C	0.097160	-0.951333	-0.561567
C71	C	-0.526242	-1.585659	-1.061543
C72	C	-0.026242	-1.085659	-0.561543
C73	C	-0.526276	-1.585629	-0.951821
C74	C	-0.026276	-1.085629	-0.451821
C75	C	-0.464751	-1.518338	-0.233196
C76	C	0.035249	-1.018338	0.266804
C77	C	-0.464521	-1.518510	-0.116420
C78	C	0.035479	-1.018510	0.383580
H79	H	-0.576486	-1.118359	-0.384050
H80	H	-0.076486	-0.618359	0.115950
N81	N	-0.339847	-1.382708	-0.895814
N82	N	0.160153	-0.882708	-0.395814
N83	N	-0.250838	-1.389725	-0.908093
N84	N	0.249162	-0.889725	-0.408093
H85	H	-0.206325	-1.341274	-0.868524
H86	H	0.293675	-0.841274	-0.368524
H87	H	-0.576525	-0.919291	-0.384057
H88	H	-0.076525	-0.419291	0.115943
N89	N	-0.589298	-1.654231	-0.895750
N90	N	-0.089298	-1.154231	-0.395750
N91	N	-0.589311	-1.654197	-0.797785
N92	N	-0.089311	-1.154197	-0.297785
H93	H	-0.633817	-1.702646	-0.758182
H94	H	-0.133817	-1.202646	-0.258182
N95	N	-0.339783	-1.382748	-1.117595
N96	N	0.160217	-0.882748	-0.617595
N97	N	-0.250782	-1.389760	-1.105360
N98	N	0.249218	-0.889760	-0.605360
H99	H	-0.206244	-1.341317	-1.144927
H100	H	0.293756	-0.841317	-0.644927
N101	N	-0.340167	-0.908065	-0.642243
N102	N	0.159833	-0.408065	-0.142243
N103	N	-0.285159	-0.957094	-0.702336
N104	N	0.214841	-0.457094	-0.202336
H105	H	-0.240715	-0.917557	-0.750913
H106	H	0.259285	-0.417557	-0.250913
N107	N	-0.340139	-1.129829	-0.642229
N108	N	0.159861	-0.629829	-0.142229
N109	N	-0.285137	-1.080862	-0.702321
N110	N	0.214863	-0.580862	-0.202321
H111	H	-0.240679	-1.120448	-0.750888
H112	H	0.259321	-0.620448	-0.250888
N113	N	-0.589250	-1.654264	-1.117587
N114	N	-0.089250	-1.154264	-0.617587
N115	N	-0.589212	-1.654284	-1.215552
N116	N	-0.089212	-1.154284	-0.715552
H117	H	-0.633712	-1.702738	-1.255133
H118	H	-0.133712	-1.202738	-0.755133
