data_functionalizedCrystal
_audit_creation_method	'MofGen! by Chris Wilmer'
_symmetry_space_group_name_H-M	'P1'
_symmetry_Int_Tables_number	1
_symmetry_cell_setting	triclinic
loop_
_symmetry_equiv_pos_as_xyz
  x,y,z
_cell_length_a	19.188930
_cell_length_b	19.288865
_cell_length_c	17.766277
_cell_angle_alpha	90.011603
_cell_angle_beta	89.976758
_cell_angle_gamma	96.859488
loop_
_atom_site_label
_atom_site_type_symbol
_atom_site_fract_x
_atom_site_fract_y
_atom_site_fract_z
O1	O	0.926143	-0.086718	-0.062845
O2	O	1.426143	0.413282	0.437155
O3	O	0.722831	-0.098391	-0.062794
O4	O	1.222831	0.401609	0.437206
O5	O	0.830362	0.008575	-0.062806
O6	O	1.330362	0.508575	0.437194
O7	O	0.818612	-0.193685	-0.062833
O8	O	1.318612	0.306315	0.437167
O9	O	0.830343	0.008581	0.062382
O10	O	1.330343	0.508581	0.562382
O11	O	0.722812	-0.098386	0.062394
O12	O	1.222812	0.401614	0.562394
O13	O	0.926124	-0.086712	0.062344
O14	O	1.426124	0.413288	0.562344
Cu15	Cu	0.824466	-0.092549	0.073800
Cu16	Cu	1.324466	0.407451	0.573800
Cu17	Cu	0.824489	-0.092555	-0.074250
Cu18	Cu	1.324489	0.407445	0.425750
O19	O	0.818593	-0.193679	0.062356
O20	O	1.318593	0.306321	0.562356
C21	C	0.696811	-0.098011	-0.000193
C22	C	1.196811	0.401989	0.499807
C23	C	0.619306	-0.096876	-0.000173
C24	C	1.119306	0.403124	0.499827
C25	C	0.574377	-0.159640	-0.000194
C26	C	1.074377	0.340360	0.499806
C27	C	0.501554	-0.158574	-0.000202
C28	C	1.001554	0.341426	0.499798
C29	C	0.473662	-0.094740	-0.000205
C30	C	0.973662	0.405260	0.499795
C31	C	0.518600	-0.031967	-0.000180
C32	C	1.018600	0.468033	0.499820
C33	C	0.591423	-0.033035	-0.000165
C34	C	1.091423	0.466965	0.499835
N35	N	0.365692	-0.045949	-0.042836
N36	N	0.865692	0.454051	0.457164
N37	N	0.296513	-0.044938	-0.042852
N38	N	0.796513	0.455062	0.457148
C39	C	0.254254	-0.091519	-0.000250
C40	C	0.754254	0.408481	0.499750
N41	N	0.283784	-0.139158	0.042359
N42	N	0.783784	0.360842	0.542359
N43	N	0.352969	-0.140170	0.042372
N44	N	0.852969	0.359830	0.542372
C45	C	0.394700	-0.093575	-0.000221
C46	C	0.894700	0.406425	0.499779
C47	C	0.130361	-0.153132	-0.000278
C48	C	0.630361	0.346868	0.499722
C49	C	0.057536	-0.152063	-0.000282
C50	C	0.557536	0.347937	0.499718
C51	C	0.074584	-0.025454	-0.000268
C52	C	0.574584	0.474546	0.499732
C53	C	0.147407	-0.026525	-0.000257
C54	C	0.647407	0.473475	0.499743
C55	C	0.175291	-0.090365	-0.000266
C56	C	0.675291	0.409635	0.499734
C57	C	0.829974	0.034454	-0.000209
C58	C	1.329974	0.534454	0.499791
C59	C	0.828839	0.111558	-0.000203
C60	C	1.328839	0.611558	0.499797
C61	C	0.952145	-0.087093	-0.000259
C62	C	1.452145	0.412907	0.499741
C63	C	1.029649	-0.088228	-0.000284
C64	C	1.529649	0.411772	0.499716
C65	C	0.818981	-0.219558	-0.000243
C66	C	1.318981	0.280442	0.499757
C67	C	0.820116	-0.296662	-0.000255
C68	C	1.320116	0.203338	0.499745
N69	N	0.824456	-0.092544	0.177930
N70	N	1.324456	0.407456	0.677930
C71	C	0.891934	0.156250	-0.000215
C72	C	1.391934	0.656250	0.499785
C73	C	0.890867	0.228697	-0.000226
C74	C	1.390867	0.728697	0.499774
C75	C	0.826703	0.256449	-0.000211
C76	C	1.326703	0.756449	0.499789
C77	C	0.763601	0.211748	-0.000203
C78	C	1.263601	0.711748	0.499797
C79	C	0.764669	0.139302	-0.000199
C80	C	1.264669	0.639302	0.499801
C81	C	0.776256	0.364742	0.043653
C82	C	1.276256	0.864742	0.543653
C83	C	0.775191	0.437187	0.043653
C84	C	1.275191	0.937187	0.543653
C85	C	0.823407	0.479895	-0.000227
C86	C	1.323407	0.979895	0.499773
C87	C	0.872700	0.450151	-0.044098
C88	C	1.372700	0.950151	0.455902
C89	C	0.873768	0.377706	-0.044093
C90	C	1.373768	0.877706	0.455907
C91	C	0.825538	0.335003	-0.000216
C92	C	1.325538	0.835003	0.499784
C93	C	0.885349	0.603143	-0.000252
C94	C	1.385349	1.103143	0.499748
C95	C	0.884280	0.675591	-0.000269
C96	C	1.384280	1.175591	0.499731
C97	C	0.757012	0.658640	-0.000238
C98	C	1.257012	1.158640	0.499762
C99	C	0.758083	0.586194	-0.000229
C100	C	1.258083	1.086194	0.499771
C101	C	0.822253	0.558449	-0.000233
C102	C	1.322253	1.058449	0.499767
N103	N	0.824505	-0.092555	-0.178381
N104	N	1.324505	0.407445	0.321619
C105	C	0.872086	-0.045202	0.217312
C106	C	1.372086	0.454798	0.717312
C107	C	0.872090	-0.045199	0.296114
C108	C	1.372090	0.454801	0.796114
C109	C	0.824471	-0.092549	0.335531
C110	C	1.324471	0.407451	0.835531
C111	C	0.776832	-0.139895	0.296139
C112	C	1.276832	0.360105	0.796139
C113	C	0.776824	-0.139892	0.217339
C114	C	1.276824	0.360108	0.717339
C115	C	0.815123	-0.155836	0.460362
C116	C	1.315123	0.344164	0.960362
C117	C	0.815136	-0.155840	0.539160
C118	C	1.315136	0.344160	1.039160
C119	C	0.824489	-0.092558	0.578577
C120	C	1.324489	0.407442	1.078577
C121	C	0.833845	-0.029269	0.539185
C122	C	1.333845	0.470731	1.039185
C123	C	0.833838	-0.029266	0.460385
C124	C	1.333838	0.470734	0.960385
C125	C	0.824473	-0.092557	0.420976
C126	C	1.324473	0.407443	0.920976
C127	C	0.872126	-0.045209	0.703405
C128	C	1.372126	0.454791	1.203405
C129	C	0.872125	-0.045204	0.782208
C130	C	1.372125	0.454796	1.282208
C131	C	0.776871	-0.139906	0.782232
C132	C	1.276871	0.360094	1.282232
C133	C	0.776868	-0.139904	0.703430
C134	C	1.276868	0.360096	1.203430
C135	C	0.824500	-0.092556	0.664021
C136	C	1.324500	0.407444	1.164021
H137	H	0.051876	0.026521	-0.000317
H138	H	0.551876	0.526521	0.499683
H139	H	0.495886	0.020007	-0.000193
H140	H	0.995886	0.520007	0.499807
H141	H	0.738058	-0.178447	0.328237
H142	H	1.238058	0.321553	0.828237
H143	H	0.706704	0.549804	-0.000215
H144	H	1.206704	1.049804	0.499785
H145	H	0.020955	-0.203175	-0.000294
H146	H	0.520955	0.296825	0.499706
C147	C	0.924510	0.006878	0.660051
C148	C	1.424510	0.506878	1.160051
H149	H	0.952871	0.035082	0.694795
H150	H	1.452871	0.535082	1.194795
H151	H	0.953492	-0.018035	0.629290
H152	H	1.453492	0.481965	1.129290
H153	H	0.899480	0.035732	0.629333
H154	H	1.399480	0.535732	1.129333
H155	H	0.910909	-0.006649	0.814273
H156	H	1.410909	0.493351	1.314273
C157	C	0.161036	-0.223352	-0.000280
C158	C	0.661036	0.276648	0.499720
H159	H	0.123845	-0.260581	-0.000283
H160	H	0.623845	0.239419	0.499717
H161	H	0.189111	-0.226403	-0.043932
H162	H	0.689111	0.273597	0.456068
H163	H	0.189067	-0.226397	0.043385
H164	H	0.689067	0.273603	0.543385
H165	H	0.942248	0.265092	-0.000239
H166	H	1.442248	0.765092	0.499761
H167	H	0.738037	-0.178444	0.185274
H168	H	1.238037	0.321556	0.685274
H169	H	0.944186	0.133666	-0.000220
H170	H	1.444186	0.633666	0.499780
H171	H	0.913902	0.353491	-0.079816
H172	H	1.413902	0.853491	0.420184
H173	H	0.183989	0.024585	-0.000245
H174	H	0.683989	0.524585	0.499755
C175	C	0.925736	0.497120	-0.092373
C176	C	1.425736	0.997120	0.407627
H177	H	0.918036	0.544525	-0.086102
H178	H	1.418036	1.044525	0.413898
H179	H	0.972104	0.491407	-0.076966
H180	H	1.472104	0.991407	0.423034
H181	H	0.919776	0.484413	-0.143839
H182	H	1.419776	0.984413	0.356161
H183	H	0.841454	0.022266	0.428315
H184	H	1.341454	0.522266	0.928315
H185	H	0.935661	0.711979	-0.000283
H186	H	1.435661	1.211979	0.499717
C187	C	0.605046	-0.229862	-0.000189
C188	C	1.105046	0.270138	0.499811
H189	H	0.567854	-0.267090	-0.000195
H190	H	1.067854	0.232910	0.499805
H191	H	0.633127	-0.232917	-0.043836
H192	H	1.133127	0.267083	0.456164
H193	H	0.633071	-0.232906	0.043481
H194	H	1.133071	0.267094	0.543481
C195	C	0.955932	0.572621	-0.000265
C196	C	1.455932	1.072621	0.499735
H197	H	0.993358	0.609617	-0.000285
H198	H	1.493358	1.109617	0.499715
H199	H	0.958989	0.544724	0.043393
H200	H	1.458989	1.044724	0.543393
H201	H	0.958999	0.544701	-0.043924
H202	H	1.458999	1.044701	0.456076
H203	H	0.736992	0.329974	0.079389
H204	H	1.236992	0.829974	0.579389
C205	C	0.686433	0.689159	-0.000223
C206	C	1.186433	1.189159	0.499777
H207	H	0.694832	0.738706	-0.000224
H208	H	1.194832	1.238706	0.499776
H209	H	0.660469	0.673793	-0.043872
H210	H	1.160469	1.173793	0.456128
H211	H	0.660457	0.673816	0.043445
H212	H	1.160457	1.173816	0.543445
C213	C	0.720973	0.469899	0.091909
C214	C	1.220973	0.969899	0.591909
H215	H	0.692402	0.434088	0.118032
H216	H	1.192402	0.934088	0.618032
H217	H	0.744685	0.501381	0.127172
H218	H	1.244685	1.001381	0.627172
H219	H	0.692370	0.494399	0.060286
H220	H	1.192370	0.994399	0.560286
H221	H	0.711358	0.234348	-0.000192
H222	H	1.211358	0.734348	0.499808
C223	C	0.844129	0.040345	0.582532
C224	C	1.344129	0.540345	1.082532
H225	H	0.842784	0.031283	0.635104
H226	H	1.342784	0.531283	1.135104
H227	H	0.888239	0.065226	0.569604
H228	H	1.388239	0.565226	1.069604
H229	H	0.807696	0.067469	0.569640
H230	H	1.307696	0.567469	1.069640
C231	C	0.724482	-0.191988	0.660108
C232	C	1.224482	0.308012	1.160108
H233	H	0.696125	-0.220193	0.694868
H234	H	1.196125	0.279807	1.194868
H235	H	0.695496	-0.167074	0.629389
H236	H	1.195496	0.332926	1.129389
H237	H	0.749508	-0.220842	0.629350
H238	H	1.249508	0.279158	1.129350
H239	H	0.628004	0.018077	-0.000149
H240	H	1.128004	0.518077	0.499851
C241	C	0.695264	0.090136	-0.000184
C242	C	1.195264	0.590136	0.499816
H243	H	0.705091	0.043017	-0.000187
H244	H	1.205091	0.543017	0.499813
H245	H	0.668933	0.098537	0.043474
H246	H	1.168933	0.598537	0.543474
H247	H	0.668955	0.098516	-0.043843
H248	H	1.168955	0.598516	0.456157
C249	C	0.452123	-0.227618	-0.000235
C250	C	0.952123	0.272382	0.499765
H251	H	0.479160	-0.265791	-0.000245
H252	H	0.979160	0.234209	0.499755
H253	H	0.423331	-0.229839	0.043410
H254	H	0.923331	0.270161	0.543410
H255	H	0.423392	-0.229823	-0.043908
H256	H	0.923392	0.270177	0.456092
H257	H	0.910869	-0.006647	0.185227
H258	H	1.410869	0.493353	0.685227
C259	C	0.724489	-0.191992	0.825578
C260	C	1.224489	0.308008	1.325578
H261	H	0.696119	-0.220187	0.790834
H262	H	1.196119	0.279813	1.290834
H263	H	0.749512	-0.220845	0.856298
H264	H	1.249512	0.279155	1.356298
H265	H	0.695505	-0.167073	0.856338
H266	H	1.195505	0.332927	1.356338
C267	C	0.924486	0.006878	0.339443
C268	C	1.424486	0.506878	0.839443
H269	H	0.952854	0.035074	0.304686
H270	H	1.452854	0.535074	0.804686
H271	H	0.899469	0.035730	0.370206
H272	H	1.399469	0.535730	0.870206
H273	H	0.953470	-0.018048	0.370158
H274	H	1.453470	0.481952	0.870158
H275	H	0.807522	-0.207373	0.571227
H276	H	1.307522	0.292627	1.071227
H277	H	0.807495	-0.207372	0.428275
H278	H	1.307495	0.292628	0.928275
