data_functionalizedCrystal
_audit_creation_method	'MofGen! by Chris Wilmer'
_symmetry_space_group_name_H-M	'P1'
_symmetry_Int_Tables_number	1
_symmetry_cell_setting	triclinic
loop_
_symmetry_equiv_pos_as_xyz
  x,y,z
_cell_length_a	17.077402
_cell_length_b	16.120530
_cell_length_c	17.077396
_cell_angle_alpha	92.916610
_cell_angle_beta	90.029784
_cell_angle_gamma	87.118337
loop_
_atom_site_label
_atom_site_type_symbol
_atom_site_fract_x
_atom_site_fract_y
_atom_site_fract_z
Zn1	Zn	-0.373441	1.274550	0.504614
Zn2	Zn	-0.040108	1.607883	0.837947
Zn3	Zn	0.293225	1.941216	1.171281
Zn4	Zn	-0.504712	1.274451	0.373340
Zn5	Zn	-0.171378	1.607784	0.706674
Zn6	Zn	0.161955	1.941118	1.040007
Zn7	Zn	-0.366803	1.135133	0.366714
Zn8	Zn	-0.033470	1.468466	0.700047
Zn9	Zn	0.299863	1.801800	1.033380
Zn10	Zn	-0.498002	1.135099	0.497919
Zn11	Zn	-0.164669	1.468432	0.831252
Zn12	Zn	0.168664	1.801766	1.164585
O13	O	-0.435740	1.204808	0.435647
O14	O	-0.102406	1.538141	0.768980
O15	O	0.230927	1.871475	1.102313
O16	O	-0.396441	1.391202	0.492775
O17	O	-0.063107	1.724536	0.826109
O18	O	0.270226	2.057869	1.159442
O19	O	-0.486447	1.255943	0.262613
O20	O	-0.153114	1.589276	0.595946
O21	O	0.180219	1.922610	0.929280
O22	O	-0.257840	1.153682	0.385035
O23	O	0.075494	1.487016	0.718369
O24	O	0.408827	1.820349	1.051702
O25	O	-0.492884	1.391130	0.396329
O26	O	-0.159551	1.724463	0.729663
O27	O	0.173782	2.057797	1.062996
O28	O	-0.262717	1.256111	0.486350
O29	O	0.070617	1.589445	0.819683
O30	O	0.403950	1.922778	1.153017
O31	O	-0.385127	1.153587	0.257744
O32	O	-0.051793	1.486920	0.591078
O33	O	0.281540	1.820253	0.924411
O34	O	-0.378621	1.018463	0.378543
O35	O	-0.045288	1.351796	0.711876
O36	O	0.288046	1.685129	1.045210
O37	O	-0.481449	1.153624	0.608655
O38	O	-0.148116	1.486958	0.941988
O39	O	0.185217	1.820291	1.275322
O40	O	-0.475013	1.018438	0.474939
O41	O	-0.141679	1.351771	0.808272
O42	O	0.191654	1.685104	1.141605
O43	O	-0.389935	1.256078	0.613574
O44	O	-0.056602	1.589412	0.946907
O45	O	0.276732	1.922745	1.280241
O46	O	-0.613666	1.255910	0.389837
O47	O	-0.280332	1.589243	0.723170
O48	O	0.053001	1.922577	1.056504
O49	O	-0.608737	1.153529	0.481364
O50	O	-0.275403	1.486862	0.814698
O51	O	0.057930	1.820195	1.148031
C52	C	-0.639684	1.204728	0.435611
C53	C	-0.306350	1.538061	0.768945
C54	C	0.026983	1.871394	1.102278
C55	C	-0.726935	1.204769	0.435626
C56	C	-0.393602	1.538103	0.768960
C57	C	-0.060269	1.871436	1.102293
C58	C	-0.425369	0.988200	0.425296
C59	C	-0.092036	1.321533	0.758629
C60	C	0.241298	1.654867	1.091962
C61	C	-0.420951	0.895534	0.420886
C62	C	-0.087618	1.228867	0.754220
C63	C	0.245715	1.562201	1.087553
C64	C	-0.770469	1.258134	0.388025
C65	C	-0.437135	1.591467	0.721358
C66	C	-0.103802	1.924801	1.054691
C67	C	-0.852451	1.258175	0.388047
C68	C	-0.519118	1.591508	0.721380
C69	C	-0.185784	1.924841	1.054713
C70	C	-0.890898	1.204846	0.435667
C71	C	-0.557565	1.538180	0.769000
C72	C	-0.224232	1.871513	1.102333
C73	C	-0.847359	1.151479	0.483274
C74	C	-0.514026	1.484813	0.816607
C75	C	-0.180693	1.818146	1.149940
C76	C	-0.765379	1.151443	0.483255
C77	C	-0.432045	1.484777	0.816589
C78	C	-0.098712	1.818110	1.149922
C79	C	-1.018233	1.151557	0.483307
C80	C	-0.684900	1.484890	0.816641
C81	C	-0.351566	1.818223	1.149974
C82	C	-1.100219	1.151591	0.483325
C83	C	-0.766886	1.484925	0.816658
C84	C	-0.433553	1.818258	1.149991
C85	C	-1.105305	1.258288	0.388098
C86	C	-0.771972	1.591621	0.721432
C87	C	-0.438639	1.924955	1.054765
C88	C	-1.023325	1.258252	0.388080
C89	C	-0.689992	1.591585	0.721413
C90	C	-0.356658	1.924919	1.054747
C91	C	-0.979791	1.204884	0.435686
C92	C	-0.646458	1.538217	0.769020
C93	C	-0.313125	1.871550	1.102353
C94	C	-0.412868	0.725872	0.412842
C95	C	-0.079534	1.059206	0.746176
C96	C	0.253799	1.392539	1.079509
C97	C	-0.458669	0.684584	0.458508
C98	C	-0.125336	1.017918	0.791842
C99	C	0.207997	1.351251	1.125175
C100	C	-0.454172	0.590179	0.454033
C101	C	-0.120838	0.923512	0.787366
C102	C	0.212495	1.256846	1.120699
C103	C	-0.417364	0.820286	0.417317
C104	C	-0.084031	1.153620	0.750650
C105	C	0.249302	1.486953	1.083984
C106	C	-0.231000	1.204912	0.435700
C107	C	0.102333	1.538245	0.769034
C108	C	0.435666	1.871578	1.102367
C109	C	-0.143753	1.204956	0.435723
C110	C	0.189581	1.538289	0.769056
C111	C	0.522914	1.871622	1.102390
C112	C	-0.435684	1.204859	0.640393
C113	C	-0.102351	1.538192	0.973727
C114	C	0.230982	1.871525	1.307060
C115	C	-0.435661	1.204880	0.727644
C116	C	-0.102327	1.538213	1.060978
C117	C	0.231006	1.871547	1.394311
C118	C	-0.446151	1.422262	0.446038
C119	C	-0.112818	1.755595	0.779372
C120	C	0.220515	2.088929	1.112705
C121	C	-0.450588	1.514928	0.450467
C122	C	-0.117255	1.848261	0.783800
C123	C	0.216079	2.181595	1.117133
C124	C	-0.435740	1.204806	0.231699
C125	C	-0.102407	1.538139	0.565032
C126	C	0.230926	1.871472	0.898365
C127	C	-0.435551	1.204946	0.144456
C128	C	-0.102217	1.538279	0.477789
C129	C	0.231116	1.871613	0.811123
C130	C	-0.388005	1.258230	0.771197
C131	C	-0.054672	1.591563	1.104530
C132	C	0.278662	1.924896	1.437864
C133	C	-0.387979	1.258240	0.853178
C134	C	-0.054646	1.591573	1.186511
C135	C	0.278687	1.924906	1.519845
C136	C	-0.435614	1.204904	0.891605
C137	C	-0.102281	1.538237	1.224938
C138	C	0.231053	1.871570	1.558272
C139	C	-0.483272	1.151548	0.848046
C140	C	-0.149938	1.484881	1.181379
C141	C	0.183395	1.818215	1.514713
C142	C	-0.483292	1.151534	0.766066
C143	C	-0.149959	1.484868	1.099400
C144	C	0.183374	1.818201	1.432733
C145	C	-0.483226	1.151582	1.018918
C146	C	-0.149893	1.484915	1.352251
C147	C	0.183441	1.818248	1.685584
C148	C	-0.483206	1.151596	1.100903
C149	C	-0.149873	1.484930	1.434237
C150	C	0.183460	1.818263	1.767570
C151	C	-0.387913	1.258287	1.106030
C152	C	-0.054579	1.591620	1.439363
C153	C	0.278754	1.924954	1.772696
C154	C	-0.387934	1.258273	1.024050
C155	C	-0.054600	1.591607	1.357383
C156	C	0.278733	1.924940	1.690717
C157	C	-0.435593	1.204919	0.980497
C158	C	-0.102259	1.538252	1.313830
C159	C	0.231074	1.871585	1.647163
H160	H	-0.739170	1.301556	0.349243
H161	H	-0.405837	1.634890	0.682577
H162	H	-0.072504	1.968223	1.015910
Br163	Br	-0.547915	1.079157	0.900195
Br164	Br	-0.214581	1.412490	1.233529
Br165	Br	0.118752	1.745824	1.566862
H166	H	-0.501259	0.720138	0.500966
H167	H	-0.167925	1.053471	0.834300
H168	H	0.165408	1.386804	1.167633
H169	H	-0.887893	1.301629	0.349284
H170	H	-0.554559	1.634962	0.682617
H171	H	-0.221226	1.968295	1.015950
Br172	Br	-0.971146	1.330625	0.323450
Br173	Br	-0.637813	1.663959	0.656784
Br174	Br	-0.304479	1.997292	0.990117
H175	H	-0.370281	0.690321	0.370388
H176	H	-0.036948	1.023654	0.703721
H177	H	0.296385	1.356988	1.037055
Br178	Br	-0.323361	1.330625	0.719055
Br179	Br	0.009973	1.663958	1.052388
Br180	Br	0.343306	1.997292	1.385722
H181	H	-0.349175	1.301684	0.888636
H182	H	-0.015842	1.635018	1.221969
H183	H	0.317491	1.968351	1.555302
Br184	Br	-1.164385	1.330705	0.323479
Br185	Br	-0.831052	1.664038	0.656812
Br186	Br	-0.497718	1.997372	0.990145
Br187	Br	-1.152397	1.079204	0.547940
Br188	Br	-0.819064	1.412537	0.881274
Br189	Br	-0.485731	1.745870	1.214607
Br190	Br	-0.547846	1.079203	1.153054
Br191	Br	-0.214513	1.412536	1.486387
Br192	Br	0.118821	1.745869	1.819720
H193	H	-0.522090	1.108083	0.730606
H194	H	-0.188757	1.441417	1.063939
H195	H	0.144576	1.774750	1.397273
H196	H	-0.982791	1.108101	0.522076
H197	H	-0.649457	1.441435	0.855410
H198	H	-0.316124	1.774768	1.188743
Br199	Br	-0.899537	1.079111	0.547909
Br200	Br	-0.566204	1.412444	0.881243
Br201	Br	-0.232870	1.745778	1.214576
H202	H	-0.349106	1.301729	1.141494
H203	H	-0.015773	1.635062	1.474828
H204	H	0.317561	1.968396	1.808161
Br205	Br	-0.706297	1.079023	0.547866
Br206	Br	-0.372963	1.412356	0.881199
Br207	Br	-0.039630	1.745689	1.214532
H208	H	-0.349150	1.301709	0.992765
H209	H	-0.015817	1.635042	1.326099
H210	H	0.317517	1.968376	1.659432
H211	H	-0.522022	1.108122	0.983458
H212	H	-0.188689	1.441455	1.316792
H213	H	0.144645	1.774788	1.650125
