data_functionalizedCrystal
_audit_creation_method	'MofGen! by Chris Wilmer'
_symmetry_space_group_name_H-M	'P1'
_symmetry_Int_Tables_number	1
_symmetry_cell_setting	triclinic
loop_
_symmetry_equiv_pos_as_xyz
  x,y,z
_cell_length_a	25.639242
_cell_length_b	25.639239
_cell_length_c	14.908694
_cell_angle_alpha	93.266315
_cell_angle_beta	86.682682
_cell_angle_gamma	90.030990
loop_
_atom_site_label
_atom_site_type_symbol
_atom_site_fract_x
_atom_site_fract_y
_atom_site_fract_z
Zn1	Zn	0.816305	-0.225309	-0.510099
Zn2	Zn	1.316305	0.274691	-0.010099
Zn3	Zn	0.811177	-0.307704	-0.359234
Zn4	Zn	1.311177	0.192296	0.140766
Zn5	Zn	0.723831	-0.220273	-0.359254
Zn6	Zn	1.223831	0.279727	0.140746
Zn7	Zn	0.728825	-0.312702	-0.510041
Zn8	Zn	1.228825	0.187298	-0.010041
O9	O	0.770035	-0.266497	-0.434657
O10	O	1.270035	0.233503	0.065343
O11	O	0.888791	-0.236255	-0.490102
O12	O	1.388791	0.263745	0.009898
O13	O	0.795354	-0.291907	-0.232994
O14	O	1.295354	0.208093	0.267006
O15	O	0.736154	-0.147777	-0.379297
O16	O	1.236154	0.352223	0.120703
O17	O	0.885023	-0.296790	-0.379262
O18	O	1.385023	0.203210	0.120738
O19	O	0.804095	-0.151477	-0.490122
O20	O	1.304095	0.348523	0.009878
O21	O	0.731181	-0.227672	-0.233008
O22	O	1.231181	0.272328	0.266992
O23	O	0.651328	-0.232518	-0.379240
O24	O	1.151328	0.267482	0.120760
O25	O	0.744666	-0.305308	-0.636291
O26	O	1.244666	0.194692	-0.136291
O27	O	0.654997	-0.300425	-0.490023
O28	O	1.154997	0.199575	0.009977
O29	O	0.808937	-0.241101	-0.636334
O30	O	1.308937	0.258899	-0.136334
O31	O	0.800197	-0.381531	-0.379206
O32	O	1.300197	0.118469	0.120794
O33	O	0.739693	-0.385203	-0.490003
O34	O	1.239693	0.114797	0.009997
C35	C	0.634191	-0.266468	-0.434628
C36	C	1.134191	0.233532	0.065372
C37	C	0.576077	-0.266469	-0.434637
C38	C	1.076077	0.233531	0.065363
C39	C	0.326858	-0.235040	-0.492477
C40	C	0.826858	0.264960	0.007523
C41	C	0.381462	-0.235034	-0.492471
C42	C	0.881462	0.264966	0.007529
O43	O	0.411377	-0.208289	-0.541643
O44	O	0.911377	0.291711	-0.041643
N45	N	0.406804	-0.266491	-0.434667
N46	N	0.906804	0.233509	0.065333
C47	C	0.377540	-0.297960	-0.376871
C48	C	0.877540	0.202040	0.123129
O49	O	0.404110	-0.324717	-0.327704
O50	O	0.904110	0.175283	0.172296
C51	C	0.322937	-0.297968	-0.376881
C52	C	0.822937	0.202032	0.123119
C53	C	0.297597	-0.266504	-0.434683
C54	C	0.797597	0.233496	0.065317
C55	C	0.301518	-0.203579	-0.550274
C56	C	0.801518	0.296421	-0.050274
C57	C	0.246918	-0.203584	-0.550278
C58	C	0.746918	0.296416	-0.050278
C59	C	0.217657	-0.235049	-0.492484
C60	C	0.717657	0.264951	0.007516
C61	C	0.242997	-0.266509	-0.434686
C62	C	0.742997	0.233491	0.065314
C63	C	0.293674	-0.329439	-0.319090
C64	C	0.793674	0.170561	0.180910
C65	C	0.239067	-0.329444	-0.319106
C66	C	0.739067	0.170556	0.180894
C67	C	0.213728	-0.297981	-0.376907
C68	C	0.713728	0.202019	0.123093
C69	C	0.159136	-0.297979	-0.376896
C70	C	0.659136	0.202021	0.123104
N71	N	0.133794	-0.266522	-0.434700
N72	N	0.633794	0.233478	0.065300
C73	C	0.163054	-0.235057	-0.492494
C74	C	0.663054	0.264943	0.007506
C75	C	0.492210	-0.297942	-0.376854
C76	C	0.992210	0.202058	0.123146
C77	C	0.546812	-0.297932	-0.376839
C78	C	1.046812	0.202068	0.123161
C79	C	0.550730	-0.235007	-0.492441
C80	C	1.050730	0.264993	0.007559
C81	C	0.496127	-0.235014	-0.492451
C82	C	0.996127	0.264986	0.007549
C83	C	0.466868	-0.266485	-0.434659
C84	C	0.966868	0.233515	0.065341
C85	C	0.048389	-0.235069	-0.492497
C86	C	0.548389	0.264931	0.007503
C87	C	-0.006216	-0.235075	-0.492493
C88	C	0.493784	0.264925	0.007507
C89	C	-0.010130	-0.298002	-0.376895
C90	C	0.489870	0.201998	0.123105
C91	C	0.044471	-0.297994	-0.376895
C92	C	0.544471	0.202006	0.123105
C93	C	0.073729	-0.266526	-0.434704
C94	C	0.573729	0.233474	0.065296
O95	O	0.129187	-0.324712	-0.327753
O96	O	0.629187	0.175288	0.172247
O97	O	0.136478	-0.208310	-0.541661
O98	O	0.636478	0.291690	-0.041661
C99	C	0.769945	-0.402338	-0.434615
C100	C	1.269945	0.097662	0.065385
C101	C	0.769956	-0.460453	-0.434628
C102	C	1.269956	0.039547	0.065372
C103	C	0.801630	-0.818895	-0.377063
C104	C	1.301630	-0.318895	0.122937
C105	C	0.801650	-0.873500	-0.377075
C106	C	1.301650	-0.373500	0.122925
O107	O	0.828487	-0.900103	-0.328086
O108	O	1.328487	-0.400103	0.171914
N109	N	0.770128	-0.902738	-0.434717
N110	N	1.270128	-0.402738	0.065283
C111	C	0.738588	-0.877369	-0.492356
C112	C	1.238588	-0.377369	0.007644
O113	O	0.711779	-0.907252	-0.541387
O114	O	1.211779	-0.407252	-0.041387
C115	C	0.738571	-0.822765	-0.492348
C116	C	1.238571	-0.322765	0.007652
C117	C	0.770090	-0.793530	-0.434696
C118	C	1.270090	-0.293530	0.065304
C119	C	0.833147	-0.789660	-0.319417
C120	C	1.333147	-0.289660	0.180583
C121	C	0.833126	-0.735059	-0.319403
C122	C	1.333126	-0.235059	0.180597
C123	C	0.801586	-0.709694	-0.377037
C124	C	1.301586	-0.209694	0.122963
C125	C	0.770069	-0.738929	-0.434683
C126	C	1.270069	-0.238929	0.065317
C127	C	0.707033	-0.797397	-0.549992
C128	C	1.207033	-0.297397	-0.049992
C129	C	0.707019	-0.742790	-0.549979
C130	C	1.207019	-0.242790	-0.049979
C131	C	0.738539	-0.713554	-0.492327
C132	C	1.238539	-0.213554	0.007673
C133	C	0.738508	-0.658962	-0.492304
C134	C	1.238508	-0.158962	0.007696
N135	N	0.770030	-0.629724	-0.434662
N136	N	1.270030	-0.129724	0.065338
C137	C	0.801569	-0.655090	-0.377029
C138	C	1.301569	-0.155090	0.122971
C139	C	0.738628	-0.992040	-0.492370
C140	C	1.238628	-0.492040	0.007630
C141	C	0.738642	-1.046642	-0.492375
C142	C	1.238642	-0.546642	0.007625
C143	C	0.801705	-1.042770	-0.377094
C144	C	1.301705	-0.542770	0.122906
C145	C	0.801688	-0.988166	-0.377086
C146	C	1.301688	-0.488166	0.122914
C147	C	0.770150	-0.962802	-0.434729
C148	C	1.270150	-0.462802	0.065271
C149	C	0.801521	-0.540424	-0.377005
C150	C	1.301521	-0.040424	0.122995
C151	C	0.801495	-0.485818	-0.376995
C152	C	1.301495	0.014182	0.123005
C153	C	0.738434	-0.489696	-0.492278
C154	C	1.238434	0.010304	0.007722
C155	C	0.738458	-0.544297	-0.492286
C156	C	1.238458	-0.044297	0.007714
C157	C	0.770006	-0.569659	-0.434646
C158	C	1.270006	-0.069659	0.065354
O159	O	0.711686	-0.632324	-0.541270
O160	O	1.211686	-0.132324	-0.041270
O161	O	0.828379	-0.625201	-0.328015
O162	O	1.328379	-0.125201	0.171985
C163	C	0.906409	-0.266527	-0.434687
C164	C	1.406409	0.233473	0.065313
C165	C	0.964523	-0.266540	-0.434699
C166	C	1.464523	0.233460	0.065301
C167	C	0.777931	-0.274324	-0.669961
C168	C	1.277931	0.225676	-0.169961
C169	C	0.781295	-0.277660	-0.770234
C170	C	1.281295	0.222340	-0.270234
C171	C	0.770139	-0.130126	-0.434718
C172	C	1.270139	0.369874	0.065282
C173	C	0.770184	-0.072013	-0.434744
C174	C	1.270184	0.427987	0.065256
C175	C	0.720782	-0.217041	-0.958674
C176	C	1.220782	0.282959	-0.458674
C177	C	0.723942	-0.220173	-1.052889
C178	C	1.223942	0.279827	-0.552889
C179	C	0.790771	-0.287059	-1.052881
C180	C	1.290771	0.212941	-0.552881
C181	C	0.787612	-0.283926	-0.958666
C182	C	1.287612	0.216074	-0.458666
C183	C	0.752617	-0.248916	-0.911566
C184	C	1.252617	0.251084	-0.411566
C185	C	0.749460	-0.245781	-0.817349
C186	C	1.249460	0.254219	-0.317349
C187	C	0.816286	-0.312669	-0.817342
C188	C	1.316286	0.187331	-0.317342
C189	C	0.819446	-0.315801	-0.911558
C190	C	1.319446	0.184199	-0.411558
C191	C	0.762199	-0.258663	-0.200268
C192	C	1.262199	0.241337	0.299732
C193	C	0.758936	-0.255180	-0.099996
C194	C	1.258936	0.244820	0.400004
H195	H	0.475499	-0.209394	-0.539518
H196	H	0.975499	0.290606	-0.039518
H197	H	0.325337	-0.177956	-0.597342
H198	H	0.825337	0.322044	-0.097342
H199	H	-0.026845	-0.209451	-0.539562
H200	H	0.473155	0.290549	-0.039562
C201	C	0.836363	-0.956012	-0.313668
C202	C	1.336363	-0.456012	0.186332
N203	N	0.862483	-0.931797	-0.265900
N204	N	1.362483	-0.431797	0.234100
H205	H	0.567438	-0.323546	-0.329761
H206	H	1.067438	0.176454	0.170239
H207	H	0.698020	-0.194217	-1.091241
H208	H	1.198020	0.305783	-0.591241
C209	C	0.072345	-0.332603	-0.313307
C210	C	0.572345	0.167397	0.186693
N211	N	0.093336	-0.358675	-0.265418
N212	N	0.593336	0.141325	0.234582
H213	H	0.712970	-1.070441	-0.539312
H214	H	1.212970	-0.570441	-0.039312
H215	H	0.712941	-0.971391	-0.539307
H216	H	1.212941	-0.471391	-0.039307
H217	H	0.720967	-0.217272	-0.779001
H218	H	1.220967	0.282728	-0.279001
C219	C	0.829020	-0.325808	-1.104706
C220	C	1.329020	0.174192	-0.604706
N221	N	0.857743	-0.355080	-1.143741
N222	N	1.357743	0.144920	-0.643741
H223	H	0.827211	-0.561068	-0.330072
H224	H	1.327211	-0.061068	0.169928
C225	C	0.682290	-0.178527	-0.906861
C226	C	1.182290	0.321473	-0.406861
N227	N	0.653297	-0.149518	-0.867838
N228	N	1.153297	0.350482	-0.367838
C229	C	0.857822	-0.354427	-0.963378
C230	C	1.357822	0.145573	-0.463378
N231	N	0.886686	-0.383562	-1.002408
N232	N	1.386686	0.116438	-0.502408
H233	H	0.827388	-1.063433	-0.330169
H234	H	1.327388	-0.563433	0.169831
C235	C	0.672360	-0.829544	-0.613417
C236	C	1.172360	-0.329544	-0.113417
N237	N	0.646243	-0.853757	-0.661195
N238	N	1.146243	-0.353757	-0.161195
H239	H	0.827162	-0.462016	-0.330044
H240	H	1.327162	0.037984	0.169956
H241	H	0.681337	-0.722141	-0.596922
H242	H	1.181337	-0.222141	-0.096922
H243	H	-0.033964	-0.323617	-0.329837
H244	H	0.466036	0.176383	0.170163
C245	C	0.867796	-0.702907	-0.255974
C246	C	1.367796	-0.202907	0.244026
N247	N	0.893910	-0.678693	-0.208193
N248	N	1.393910	-0.178693	0.291807
C249	C	0.080565	-0.200449	-0.556084
C250	C	0.580565	0.299551	-0.056084
N251	N	0.104800	-0.174370	-0.603973
N252	N	0.604800	0.325630	-0.103973
H253	H	0.574564	-0.209386	-0.539500
H254	H	1.074564	0.290614	-0.039500
C255	C	0.851306	-0.347734	-0.765516
C256	C	1.351306	0.152266	-0.265516
N257	N	0.877683	-0.374143	-0.726479
N258	N	1.377683	0.125857	-0.226479
H259	H	0.226291	-0.177966	-0.597350
H260	H	0.726291	0.322034	-0.097350
C261	C	0.460029	-0.332556	-0.313260
C262	C	0.960029	0.167444	0.186740
N263	N	0.435792	-0.358626	-0.265359
N264	N	0.935792	0.141374	0.234641
C265	C	0.321535	-0.364054	-0.255505
C266	C	0.821535	0.135946	0.244495
N267	N	0.342519	-0.390129	-0.207612
N268	N	0.842519	0.109871	0.292388
H269	H	0.215247	-0.355073	-0.272045
H270	H	0.715247	0.144927	0.227955
H271	H	0.712794	-0.568102	-0.539233
H272	H	1.212794	-0.068102	-0.039233
C273	C	0.867843	-0.817553	-0.256005
C274	C	1.367843	-0.317553	0.243995
N275	N	0.893974	-0.838558	-0.208232
N276	N	1.393974	-0.338558	0.291768
H277	H	0.712754	-0.469034	-0.539200
H278	H	1.212754	0.030966	-0.039200
