data_functionalizedCrystal
_audit_creation_method	'MofGen! by Chris Wilmer'
_symmetry_space_group_name_H-M	'P1'
_symmetry_Int_Tables_number	1
_symmetry_cell_setting	triclinic
loop_
_symmetry_equiv_pos_as_xyz
  x,y,z
_cell_length_a	15.995350
_cell_length_b	15.944493
_cell_length_c	14.472310
_cell_angle_alpha	90.004804
_cell_angle_beta	89.990621
_cell_angle_gamma	83.483709
loop_
_atom_site_label
_atom_site_type_symbol
_atom_site_fract_x
_atom_site_fract_y
_atom_site_fract_z
O1	O	1.110980	0.108267	-0.076750
O2	O	1.610980	0.608267	0.423250
O3	O	0.867203	0.121637	-0.076768
O4	O	1.367203	0.621637	0.423232
O5	O	0.995774	-0.007326	-0.076766
O6	O	1.495774	0.492674	0.423234
O7	O	0.982409	0.237231	-0.076752
O8	O	1.482409	0.737231	0.423248
O9	O	0.995741	-0.007319	0.076916
O10	O	1.495741	0.492681	0.576916
O11	O	0.867170	0.121645	0.076914
O12	O	1.367170	0.621645	0.576914
O13	O	1.110947	0.108274	0.076932
O14	O	1.610947	0.608274	0.576932
Cu15	Cu	0.989055	0.114960	0.090955
Cu16	Cu	1.489055	0.614960	0.590955
Cu17	Cu	0.989094	0.114951	-0.090792
Cu18	Cu	1.489094	0.614951	0.409208
O19	O	0.982376	0.237238	0.076930
O20	O	1.482376	0.737238	0.576930
C21	C	0.835992	0.121088	0.000071
C22	C	1.335992	0.621088	0.500071
C23	C	0.743041	0.119431	0.000063
C24	C	1.243041	0.619431	0.500063
C25	C	0.405295	0.113480	0.000082
C26	C	0.905295	0.613480	0.500082
C27	C	0.452743	0.021634	0.000420
C28	C	0.952743	0.521634	0.500420
C29	C	0.549433	0.023292	0.000067
C30	C	1.049433	0.523292	0.500067
C31	C	0.572855	0.116432	0.000073
C32	C	1.072855	0.616432	0.500073
C33	C	0.531780	0.161729	-0.087680
C34	C	1.031780	0.661729	0.412320
C35	C	0.435144	0.159422	-0.087747
C36	C	0.935144	0.659422	0.412253
C37	C	0.434768	0.161328	0.087018
C38	C	0.934768	0.661328	0.587018
C39	C	0.531713	0.161306	0.088171
C40	C	1.031713	0.661306	0.588171
C41	C	0.667552	0.118105	0.000065
C42	C	1.167552	0.618105	0.500065
C43	C	0.310597	0.111809	0.000084
C44	C	0.810597	0.611809	0.500084
C45	C	0.995211	-0.038617	0.000071
C46	C	1.495211	0.461383	0.500071
C47	C	0.993573	-0.131866	0.000059
C48	C	1.493573	0.368134	0.500059
C49	C	1.069253	-0.367630	0.000082
C50	C	1.569253	0.132370	0.500082
C51	C	1.028458	-0.418200	-0.075694
C52	C	1.528458	0.081800	0.424306
C53	C	0.990539	-0.302587	0.000070
C54	C	1.490539	0.197413	0.500070
C55	C	1.028407	-0.418168	0.075824
C56	C	1.528407	0.081832	0.575824
C57	C	0.987614	-0.467496	0.000085
C58	C	1.487614	0.032504	0.500085
C59	C	0.949765	-0.351928	-0.075768
C60	C	1.449765	0.148072	0.424232
C61	C	0.949726	-0.351893	0.075818
C62	C	1.449726	0.148107	0.575818
C63	C	0.908873	-0.402430	0.000024
C64	C	1.408873	0.097570	0.500024
C65	C	0.992226	-0.207587	0.000061
C66	C	1.492226	0.292413	0.500061
C67	C	0.985920	-0.562493	0.000087
C68	C	1.485920	-0.062493	0.500087
C69	C	1.142158	0.108823	0.000091
C70	C	1.642158	0.608823	0.500091
C71	C	1.235108	0.110481	0.000092
C72	C	1.735108	0.610481	0.500092
C73	C	0.982939	0.268529	0.000091
C74	C	1.482939	0.768529	0.500091
C75	C	0.984576	0.361778	0.000097
C76	C	1.484576	0.861778	0.500097
N77	N	0.989034	0.114966	0.218786
N78	N	1.489034	0.614966	0.718786
N79	N	0.989123	0.114939	-0.218622
N80	N	1.489123	0.614939	0.281378
C81	C	0.989093	0.114948	0.592877
C82	C	1.489093	0.614948	1.092877
C83	C	0.920067	0.183722	0.553711
C84	C	1.420067	0.683722	1.053711
C85	C	0.920226	0.183973	0.446623
C86	C	1.420226	0.683973	0.946623
C87	C	0.989063	0.114957	0.407286
C88	C	1.489063	0.614957	0.907286
C89	C	1.076425	0.134100	0.446131
C90	C	1.576425	0.634100	0.946131
C91	C	1.076037	0.134589	0.553253
C92	C	1.576037	0.634589	1.053253
C93	C	0.971538	0.026827	0.553400
C94	C	1.471538	0.526827	1.053400
C95	C	0.969534	0.027414	0.446272
C96	C	1.469534	0.527414	0.946272
C97	C	0.989052	0.114960	0.302398
C98	C	1.489052	0.614960	0.802398
C99	C	0.989111	0.114946	0.697765
C100	C	1.489111	0.614946	1.197765
H101	H	0.434213	-0.015076	0.063351
H102	H	0.934213	0.484924	0.563351
O103	O	0.935078	0.270593	0.412669
O104	O	1.435078	0.770593	0.912669
H105	H	0.880712	0.297209	0.370119
H106	H	1.380712	0.797209	0.870119
H107	H	1.061652	-0.447098	0.139883
H108	H	1.561652	0.052902	0.639883
O109	O	0.905717	-0.313515	0.160674
O110	O	1.405717	0.186485	0.660674
H111	H	0.906839	-0.244047	0.159518
H112	H	1.406839	0.255953	0.659518
O113	O	1.146096	0.069517	0.412385
O114	O	1.646096	0.569517	0.912385
H115	H	1.148393	0.070948	0.335755
H116	H	1.648393	0.570948	0.835755
O117	O	0.569373	0.120042	-0.174200
O118	O	1.069373	0.620042	0.325800
H119	H	0.638170	0.124179	-0.175209
H120	H	1.138170	0.624179	0.324791
O121	O	1.031819	-0.043552	0.410824
O122	O	1.531819	0.456448	0.910824
H123	H	1.028653	-0.045596	0.334255
H124	H	1.528653	0.454404	0.834255
O125	O	0.426807	-0.026784	-0.082477
O126	O	0.926807	0.473216	0.417523
H127	H	0.482987	-0.046884	-0.125480
H128	H	0.982987	0.453116	0.374520
O129	O	0.392673	0.251022	0.087822
O130	O	0.892673	0.751022	0.587822
H131	H	0.409968	0.283880	0.024189
H132	H	0.909968	0.783880	0.524189
H133	H	1.137055	-0.352005	0.000010
H134	H	1.637055	0.147995	0.500010
H135	H	1.061714	-0.447150	-0.139753
H136	H	1.561714	0.052850	0.360247
O137	O	0.905785	-0.313768	-0.160728
O138	O	1.405785	0.186232	0.339272
H139	H	0.907397	-0.244360	-0.160086
H140	H	1.407397	0.255640	0.339914
O141	O	0.567865	0.117505	0.174174
O142	O	1.067865	0.617505	0.674174
H143	H	0.598642	0.162975	0.216935
H144	H	1.098642	0.662975	0.716935
H145	H	0.855288	0.172568	0.420361
H146	H	1.355288	0.672568	0.920361
H147	H	0.841018	-0.417892	-0.000023
H148	H	1.341018	0.082108	0.499977
O149	O	0.586366	-0.024196	-0.083410
O150	O	1.086366	0.475804	0.416590
H151	H	0.619140	0.018905	-0.127282
H152	H	1.119140	0.518905	0.372718
H153	H	1.021875	-0.024353	0.578727
H154	H	1.521875	0.475647	1.078727
O155	O	0.410909	0.115642	-0.174632
O156	O	0.910909	0.615642	0.325368
H157	H	0.468185	0.096313	-0.216203
H158	H	0.968185	0.596313	0.283797
H159	H	0.547067	0.229227	0.093477
H160	H	1.047067	0.729227	0.593477
O161	O	1.096531	0.219713	0.586355
O162	O	1.596531	0.719713	1.086355
H163	H	1.106620	0.260144	0.525852
H164	H	1.606620	0.760144	1.025852
O165	O	0.407564	0.121549	0.175124
O166	O	0.907564	0.621549	0.675124
H167	H	0.366101	0.168943	0.215120
H168	H	0.866101	0.668943	0.715120
O169	O	0.888969	0.002454	0.589204
O170	O	1.388969	0.502454	1.089204
H171	H	0.859521	0.052884	0.635542
H172	H	1.359521	0.552884	1.135542
H173	H	0.854919	0.172505	0.579493
H174	H	1.354919	0.672505	1.079493
H175	H	0.931121	0.248748	0.580625
H176	H	1.431121	0.748748	1.080625
O177	O	0.392400	0.248734	-0.093027
O178	O	0.892400	0.748734	0.406973
H179	H	0.411823	0.278917	-0.157475
H180	H	0.911823	0.778917	0.342525
O181	O	0.587089	-0.023861	0.083396
O182	O	1.087089	0.476139	0.583396
H183	H	0.536244	-0.048062	0.124306
H184	H	1.036244	0.451938	0.624306
O185	O	1.146120	0.070770	0.587582
O186	O	1.646120	0.570770	1.087582
H187	H	1.180142	0.039701	0.527669
H188	H	1.680142	0.539701	1.027669
H189	H	0.905270	0.012887	0.420884
H190	H	1.405270	0.512887	0.920884
O191	O	0.550478	0.252368	-0.092014
O192	O	1.050478	0.752368	0.407986
H193	H	0.589342	0.266123	-0.031525
H194	H	1.089342	0.766123	0.468475
O195	O	1.097415	0.218262	0.410608
O196	O	1.597415	0.718262	0.910608
H197	H	1.045767	0.246585	0.365298
H198	H	1.545767	0.746585	0.865298
