data_functionalizedCrystal
_audit_creation_method	'MofGen! by Chris Wilmer'
_symmetry_space_group_name_H-M	'P1'
_symmetry_Int_Tables_number	1
_symmetry_cell_setting	triclinic
loop_
_symmetry_equiv_pos_as_xyz
  x,y,z
_cell_length_a	16.992694
_cell_length_b	17.699083
_cell_length_c	16.053810
_cell_angle_alpha	87.428156
_cell_angle_beta	92.738518
_cell_angle_gamma	86.975619
loop_
_atom_site_label
_atom_site_type_symbol
_atom_site_fract_x
_atom_site_fract_y
_atom_site_fract_z
O1	O	-1.043381	-0.157473	-0.069327
O2	O	-0.815100	-0.155711	-0.069352
O3	O	-0.935690	-0.046805	-0.069331
O4	O	-0.922791	-0.266379	-0.069347
O5	O	-0.929079	-0.052799	0.069526
O6	O	-0.808490	-0.161705	0.069506
O7	O	-1.036770	-0.163467	0.069530
Zn8	Zn	-0.921580	-0.163538	0.091565
Zn9	Zn	-0.930290	-0.155640	-0.091386
O10	O	-0.916181	-0.272373	0.069510
C11	C	-0.782587	-0.156443	0.000074
C12	C	-0.695556	-0.149686	0.000065
C13	C	-0.931922	-0.021576	0.000098
C14	C	-0.930536	0.062529	0.000098
C15	C	-1.069284	-0.162734	0.000103
C16	C	-1.156315	-0.169492	0.000107
C17	C	-0.645191	-0.214883	0.000061
C18	C	-0.563416	-0.208530	0.000073
C19	C	-0.532008	-0.136979	0.000083
C20	C	-0.582378	-0.071776	0.000090
C21	C	-0.664152	-0.078130	0.000084
C22	C	-0.288459	-0.110644	0.000107
C23	C	-0.206679	-0.104294	0.000111
C24	C	-0.187723	-0.241049	0.000095
C25	C	-0.269499	-0.247396	0.000084
C26	C	-0.319862	-0.182194	0.000095
N27	N	-0.448421	-0.130483	0.000093
N28	N	-0.403447	-0.188691	0.000092
C29	C	-0.919948	-0.297602	0.000079
C30	C	-0.921335	-0.381706	0.000074
N31	N	-0.915642	-0.168927	0.216424
C32	C	-1.001319	0.106742	0.000106
C33	C	-1.000012	0.185767	0.000099
C34	C	-0.927920	0.220577	0.000089
C35	C	-0.857131	0.176358	0.000077
C36	C	-0.858439	0.097334	0.000079
C37	C	-0.851853	0.495050	0.000070
C38	C	-0.850550	0.574079	0.000071
C39	C	-0.993426	0.583482	0.000090
C40	C	-0.994734	0.504459	0.000092
C41	C	-0.923946	0.460247	0.000076
C42	C	-0.925364	0.374559	0.000082
C43	C	-0.926501	0.306263	0.000088
N44	N	-0.936235	-0.150245	-0.216245
C45	C	-0.884911	-0.196572	0.740051
C46	C	-0.889082	-0.192817	0.652645
C47	C	-0.944581	-0.142739	0.608944
C48	C	-0.995907	-0.096406	0.652654
C49	C	-0.991731	-0.100158	0.740059
C50	C	-0.962792	-0.126347	0.347538
C51	C	-0.966965	-0.122600	0.260128
C52	C	-0.860140	-0.219011	0.260124
C53	C	-0.855972	-0.222761	0.347531
C54	C	-0.907295	-0.176426	0.391233
N55	N	-0.948847	-0.138901	0.519602
N56	N	-0.903024	-0.180260	0.480574
H57	H	-0.670757	-0.273148	0.000052
O58	O	-1.041556	-0.055046	0.782426
C59	C	-1.029965	0.021565	0.761059
H60	H	-1.002784	0.026039	0.697585
H61	H	-1.089108	0.055367	0.758084
H62	H	-0.988633	0.045239	0.810229
H63	H	-0.181110	-0.046026	0.000118
H64	H	-0.522412	-0.261621	0.000068
H65	H	-0.818354	-0.256734	0.224534
H66	H	-0.800800	0.061336	0.000072
O67	O	-0.337457	-0.047356	-0.000004
C68	C	-0.388725	-0.043822	-0.071933
H69	H	-0.393890	-0.103105	-0.095911
H70	H	-0.449470	-0.020040	-0.055763
H71	H	-0.364272	-0.005463	-0.122288
O72	O	-1.062250	0.626357	-0.000016
C73	C	-1.109447	0.613018	-0.071934
H74	H	-1.091222	0.555337	-0.095910
H75	H	-1.174075	0.613918	-0.055750
H76	H	-1.101209	0.659010	-0.122297
O77	O	-0.780449	0.607774	0.000017
C78	C	-0.718249	0.551806	0.000021
H79	H	-0.741374	0.497987	-0.026263
H80	H	-0.669833	0.573092	-0.040305
H81	H	-0.693242	0.539084	0.066633
O82	O	-1.068713	0.228794	0.000218
C83	C	-1.068814	0.271678	0.072139
H84	H	-1.005449	0.278397	0.096107
H85	H	-1.098896	0.329936	0.055963
H86	H	-1.102176	0.241379	0.122505
H87	H	-1.004583	-0.088620	0.383114
H88	H	-0.794213	0.459061	0.000057
H89	H	-0.556799	-0.013518	0.000110
O90	O	-1.049729	-0.047743	0.610099
C91	C	-1.010282	0.003696	0.559506
H92	H	-0.949488	-0.022110	0.546414
H93	H	-1.045967	0.016265	0.498046
H94	H	-1.003493	0.058528	0.593148
O95	O	-0.712969	-0.014719	0.000046
C96	C	-0.667713	0.049797	0.000075
H97	H	-0.607890	0.035416	-0.026211
H98	H	-0.699884	0.097523	-0.040237
H99	H	-0.658770	0.068620	0.066694
O100	O	-0.830892	-0.245134	0.782462
C101	C	-0.754336	-0.227179	0.761058
H102	H	-0.755228	-0.165533	0.737015
H103	H	-0.712228	-0.235943	0.818528
H104	H	-0.733647	-0.265541	0.710327
H105	H	-1.053439	0.476121	0.000104
O106	O	-1.020803	-0.073898	0.217637
C107	C	-1.007288	0.000927	0.238871
H108	H	-0.943401	0.004180	0.262927
H109	H	-1.019110	0.040739	0.181312
H110	H	-1.048424	0.018367	0.289541
O111	O	-0.299907	-0.316944	-0.000039
C112	C	-0.277573	-0.353862	-0.071971
H113	H	-0.222039	-0.328755	-0.095934
H114	H	-0.265320	-0.416894	-0.055810
H115	H	-0.327298	-0.345790	-0.122334
O116	O	-0.787167	0.210289	0.000104
C117	C	-0.801189	0.289519	0.000086
H118	H	-0.861155	0.303222	0.026382
H119	H	-0.753148	0.314809	0.040396
H120	H	-0.800603	0.314595	-0.066531
H121	H	-0.847290	-0.230540	0.617062
H122	H	-0.146708	-0.294132	0.000088
O123	O	-1.071421	0.073055	0.000077
C124	C	-1.133614	0.129028	0.000102
H125	H	-1.112987	0.185112	-0.026188
H126	H	-1.185874	0.111225	-0.040210
H127	H	-1.152273	0.136007	0.066720
O128	O	-0.801993	-0.271428	0.389849
C129	C	-0.757602	-0.311530	0.332531
H130	H	-0.759748	-0.277772	0.270220
H131	H	-0.693768	-0.320341	0.357773
H132	H	-0.783394	-0.368903	0.323253
