data_functionalizedCrystal
_audit_creation_method	'MofGen! by Chris Wilmer'
_symmetry_space_group_name_H-M	'P1'
_symmetry_Int_Tables_number	1
_symmetry_cell_setting	triclinic
loop_
_symmetry_equiv_pos_as_xyz
  x,y,z
_cell_length_a	10.654550
_cell_length_b	12.837942
_cell_length_c	9.130313
_cell_angle_alpha	89.996012
_cell_angle_beta	89.999724
_cell_angle_gamma	89.656935
loop_
_atom_site_label
_atom_site_type_symbol
_atom_site_fract_x
_atom_site_fract_y
_atom_site_fract_z
O1	O	1.683741	0.145723	-0.121688
O2	O	1.319778	0.159606	-0.121715
O3	O	1.493689	0.001704	-0.121693
O4	O	1.509830	0.303626	-0.121710
O5	O	1.493675	0.001699	0.121906
O6	O	1.319764	0.159602	0.121884
O7	O	1.683728	0.145718	0.121911
Cu8	Cu	1.501745	0.152660	0.144140
Cu9	Cu	1.501761	0.152665	-0.143944
O10	O	1.509816	0.303621	0.121889
C11	C	1.272862	0.158585	0.000081
C12	C	1.133086	0.155535	0.000071
C13	C	1.063746	0.248505	0.000070
C14	C	0.932411	0.245633	0.000096
C15	C	0.939770	0.056812	0.000117
C16	C	1.071101	0.059685	0.000102
C17	C	1.488230	-0.036958	0.000105
C18	C	1.471967	-0.152152	0.000101
C19	C	1.667472	-0.391705	0.000085
C20	C	1.652197	-0.499941	0.000082
C21	C	1.426146	-0.476861	0.000080
C22	C	1.441420	-0.368626	0.000084
C23	C	1.562087	-0.326052	0.000088
C24	C	1.577360	-0.217814	0.000103
C25	C	1.351309	-0.194737	0.000091
C26	C	1.336035	-0.302972	0.000087
C27	C	1.730644	0.146740	0.000111
C28	C	1.870420	0.149790	0.000112
C29	C	1.515276	0.342283	0.000087
C30	C	1.531538	0.457477	0.000081
N31	N	1.501742	0.152655	0.346762
N32	N	1.501772	0.152661	-0.346567
C33	C	1.578782	0.082766	0.423424
C34	C	1.578794	0.082766	0.576761
C35	C	1.424723	0.222554	0.576761
C36	C	1.424706	0.222548	0.423427
H37	H	0.889286	-0.021225	0.000151
H38	H	1.765723	-0.357041	0.000103
O39	O	1.248796	-0.131108	0.000159
C40	C	1.022971	-0.119643	0.000082
C41	C	1.138954	-0.191820	0.000028
H42	H	0.934135	-0.168700	-0.000056
H43	H	1.024383	-0.068425	0.102058
H44	H	1.024540	-0.068359	-0.101833
H45	H	1.137460	-0.243169	0.101873
H46	H	1.137499	-0.242968	-0.102017
H47	H	1.327904	-0.511544	0.000061
H48	H	1.361964	0.279461	0.361005
O49	O	1.653639	0.014768	0.349178
C50	C	1.806505	-0.123846	0.365369
C51	C	1.721772	-0.046907	0.449628
H52	H	1.861632	-0.173715	0.446546
H53	H	1.746089	-0.176168	0.293640
H54	H	1.874592	-0.078554	0.293523
H55	H	1.653671	-0.092114	0.521553
H56	H	1.782266	0.005415	0.521264
H57	H	1.362004	0.279461	0.639197
H58	H	1.641526	0.025854	0.639174
O59	O	0.865245	0.336043	0.000025
C60	C	0.871816	0.523630	0.000081
C61	C	0.948033	0.421316	0.000125
H62	H	0.938717	0.592600	0.000193
H63	H	0.810166	0.527076	-0.101878
H64	H	0.810125	0.526952	0.102013
H65	H	1.009794	0.417926	-0.101738
H66	H	1.009602	0.417912	0.102152
H67	H	1.738013	-0.553393	0.000074
H68	H	1.114209	0.326552	0.000056
H69	H	1.127560	-0.016027	0.000107
O70	O	1.218890	-0.344457	-0.000109
C71	C	1.070426	-0.453205	-0.126354
C72	C	1.203139	-0.406315	-0.126303
H73	H	1.057639	-0.503209	-0.228386
H74	H	1.057601	-0.503378	-0.024481
H75	H	0.997750	-0.387669	-0.126275
H76	H	1.275896	-0.471783	-0.126434
H77	H	1.215857	-0.356115	-0.228168
H78	H	1.675613	-0.183153	0.000112
