data_functionalizedCrystal
_audit_creation_method	'MofGen! by Chris Wilmer'
_symmetry_space_group_name_H-M	'P1'
_symmetry_Int_Tables_number	1
_symmetry_cell_setting	triclinic
loop_
_symmetry_equiv_pos_as_xyz
  x,y,z
_cell_length_a	14.853566
_cell_length_b	13.330367
_cell_length_c	10.723024
_cell_angle_alpha	89.996558
_cell_angle_beta	95.948858
_cell_angle_gamma	90.004705
loop_
_atom_site_label
_atom_site_type_symbol
_atom_site_fract_x
_atom_site_fract_y
_atom_site_fract_z
O1	O	1.197230	0.083355	-0.162908
O2	O	0.934872	0.083371	-0.182317
O3	O	1.072103	0.083359	0.009025
O4	O	1.059999	0.083367	-0.354250
O5	O	1.072083	-0.083489	0.009029
O6	O	0.934852	-0.083476	-0.182313
O7	O	1.197210	-0.083493	-0.162904
Cu8	Cu	1.066029	-0.098719	-0.172608
Cu9	Cu	1.066053	0.098597	-0.172613
O10	O	1.059979	-0.083480	-0.354246
C11	C	0.901269	-0.000051	-0.181436
C12	C	0.801171	-0.000044	-0.178801
N13	N	1.066019	-0.237500	-0.172603
C14	C	0.377939	0.090886	-0.167660
C15	C	0.377938	-0.091017	-0.167657
C16	C	0.471985	-0.091014	-0.170131
C17	C	0.519013	-0.000059	-0.171371
C18	C	0.471994	0.090892	-0.170138
C19	C	0.519010	-0.181964	-0.171376
C20	C	0.613063	-0.181964	-0.173852
C21	C	0.660094	-0.091009	-0.175084
C22	C	0.613069	-0.000054	-0.173849
C23	C	0.660097	0.090901	-0.175090
C24	C	0.613075	0.181857	-0.173847
C25	C	0.519025	0.181848	-0.171370
C26	C	0.754143	-0.090999	-0.177560
C27	C	0.754152	0.090907	-0.177568
C28	C	1.005284	-0.710118	-0.257306
C29	C	1.126846	-0.710097	-0.087910
C30	C	1.126835	-0.605078	-0.087906
C31	C	1.066050	-0.552575	-0.172605
C32	C	1.005274	-0.605090	-0.257307
C33	C	1.187616	-0.552556	-0.003214
C34	C	1.187609	-0.447531	-0.003208
C35	C	1.126818	-0.395025	-0.087901
C36	C	1.066039	-0.447547	-0.172606
C37	C	1.005254	-0.395043	-0.257304
C38	C	0.944470	-0.447563	-0.342004
C39	C	0.944484	-0.552584	-0.342000
C40	C	1.126805	-0.290004	-0.087905
C41	C	1.005244	-0.290015	-0.257306
C42	C	1.230813	-0.000069	-0.163785
C43	C	1.330911	-0.000069	-0.166420
C44	C	1.071212	-0.000064	0.055518
C45	C	1.068577	-0.000060	0.194045
N46	N	1.066070	0.237379	-0.172607
C47	C	1.060870	-0.000056	-0.400739
C48	C	1.063505	-0.000053	-0.539266
C49	C	1.145364	-0.000063	0.269805
C50	C	1.142642	-0.000060	0.412981
H51	H	0.792436	0.164974	-0.178575
C52	C	1.236901	-0.000076	0.214238
N53	N	1.305850	-0.000090	0.172388
H54	H	1.176340	-0.752848	-0.018957
H55	H	0.651376	0.255912	-0.174866
H56	H	0.894982	-0.404802	-0.410972
H57	H	1.208377	-0.000067	0.478079
C58	C	0.974692	-0.000048	0.372800
N59	N	0.907798	-0.000042	0.306559
H60	H	1.237101	-0.404776	0.065760
H61	H	1.000822	-0.000049	0.235182
H62	H	1.176298	-0.247247	-0.018949
C63	C	0.467293	0.281890	-0.170011
N64	N	0.428324	0.357242	-0.168991
C65	C	0.938419	-0.767889	-0.350463
N66	N	0.888054	-0.811404	-0.420627
C67	C	0.326214	0.190933	-0.166292
N68	N	0.287254	0.266289	-0.165262
H69	H	0.480712	-0.256014	-0.170374
C70	C	0.326204	-0.191061	-0.166296
N71	N	0.287234	-0.266419	-0.165268
H72	H	0.651341	-0.256026	-0.174862
H73	H	0.792424	-0.165054	-0.178585
H74	H	0.955741	-0.247273	-0.326273
H75	H	0.894996	-0.595352	-0.410961
H76	H	1.237110	-0.595307	0.065739
