data_functionalizedCrystal
_audit_creation_method	'MofGen! by Chris Wilmer'
_symmetry_space_group_name_H-M	'P1'
_symmetry_Int_Tables_number	1
_symmetry_cell_setting	triclinic
loop_
_symmetry_equiv_pos_as_xyz
  x,y,z
_cell_length_a	19.188930
_cell_length_b	26.210047
_cell_length_c	19.188928
_cell_angle_alpha	89.997095
_cell_angle_beta	96.855705
_cell_angle_gamma	90.022886
loop_
_atom_site_label
_atom_site_type_symbol
_atom_site_fract_x
_atom_site_fract_y
_atom_site_fract_z
O1	O	0.926150	0.042601	-0.087158
O2	O	0.722838	0.042567	-0.098892
O3	O	0.830362	0.042572	0.008631
O4	O	0.818626	0.042596	-0.194681
O5	O	0.830341	-0.042286	0.008614
O6	O	0.722818	-0.042291	-0.098909
O7	O	0.926129	-0.042257	-0.087174
Cu8	Cu	0.824472	-0.050022	-0.093043
Cu9	Cu	0.824496	0.050333	-0.093023
O10	O	0.818605	-0.042262	-0.194697
C11	C	0.696817	0.000134	-0.098520
C12	C	0.619313	0.000120	-0.097380
C13	C	0.574388	0.000136	-0.160471
C14	C	0.501564	0.000141	-0.159399
C15	C	0.473668	0.000141	-0.095233
C16	C	0.518603	0.000123	-0.032133
C17	C	0.591425	0.000113	-0.033207
N18	N	0.365696	0.029037	-0.046180
N19	N	0.296517	0.029048	-0.045165
C20	C	0.254260	0.000172	-0.091995
N21	N	0.283793	-0.028709	-0.139889
N22	N	0.352978	-0.028718	-0.140907
C23	C	0.394706	0.000153	-0.094062
C24	C	0.130371	0.000193	-0.153928
C25	C	0.057546	0.000195	-0.152853
C26	C	0.074586	0.000182	-0.025586
C27	C	0.147409	0.000175	-0.026662
C28	C	0.175297	0.000183	-0.090835
N29	N	0.824459	-0.120606	-0.093057
C30	C	0.872103	-0.473118	-0.045423
C31	C	0.872118	-0.686776	-0.045413
O32	O	0.912599	-0.714396	-0.004916
N33	N	0.824500	-0.713500	-0.093008
C34	C	0.776871	-0.686805	-0.140605
O35	O	0.736365	-0.714438	-0.181083
C36	C	0.776853	-0.473148	-0.140611
C37	C	0.824479	-0.446427	-0.093018
C38	C	0.919724	-0.446397	0.002167
C39	C	0.919723	-0.392985	0.002162
C40	C	0.872099	-0.366295	-0.045434
C41	C	0.824477	-0.393016	-0.093024
C42	C	0.729222	-0.446454	-0.188205
C43	C	0.729220	-0.393037	-0.188201
C44	C	0.776846	-0.366316	-0.140608
C45	C	0.776852	-0.312913	-0.140624
N46	N	0.824470	-0.286190	-0.093030
C47	C	0.872094	-0.312881	-0.045434
C48	C	0.776885	-0.798979	-0.140600
C49	C	0.776890	-0.852393	-0.140599
C50	C	0.872136	-0.852360	-0.045406
C51	C	0.872134	-0.798945	-0.045410
C52	C	0.824503	-0.772255	-0.093005
C53	C	0.872087	-0.200713	-0.045450
C54	C	0.872083	-0.147297	-0.045461
C55	C	0.776835	-0.147334	-0.140652
C56	C	0.776841	-0.200746	-0.140643
C57	C	0.824470	-0.227434	-0.093036
O58	O	0.736387	-0.285261	-0.181095
O59	O	0.912584	-0.285239	-0.004953
C60	C	0.872104	-0.526529	-0.045417
C61	C	0.824483	-0.553250	-0.093007
C62	C	0.776859	-0.526559	-0.140602
C63	C	0.824488	-0.606664	-0.093007
C64	C	0.872111	-0.633355	-0.045411
C65	C	0.919730	-0.606631	0.002183
C66	C	0.919728	-0.553220	0.002178
C67	C	0.729241	-0.553283	-0.188197
C68	C	0.729247	-0.606694	-0.188188
C69	C	0.776871	-0.633385	-0.140593
C70	C	0.952150	0.000178	-0.087546
C71	C	1.029655	0.000195	-0.088687
C72	C	0.829972	0.000141	0.034634
C73	C	0.828832	0.000134	0.112138
N74	N	0.824514	0.120916	-0.093004
C75	C	0.891923	0.000141	0.157062
C76	C	0.890852	0.000147	0.229886
C77	C	0.826686	0.000136	0.257783
C78	C	0.763587	0.000132	0.212849
C79	C	0.764660	0.000131	0.140027
N80	N	0.777633	-0.028754	0.365782
N81	N	0.776618	-0.028755	0.434961
C82	C	0.823450	0.000139	0.477192
N83	N	0.871346	0.029027	0.447632
N84	N	0.872363	0.029025	0.378447
C85	C	0.825516	0.000137	0.336745
C86	C	0.885384	0.000153	0.601080
C87	C	0.884311	0.000162	0.673905
C88	C	0.757043	0.000142	0.656866
C89	C	0.758119	0.000138	0.584043
C90	C	0.822291	0.000141	0.556155
C91	C	0.818998	0.000163	0.779300
C92	C	0.820144	0.000152	0.701797
H93	H	0.051874	0.000214	0.026659
H94	H	0.944177	0.000145	0.134361
H95	H	0.183988	0.000165	0.024713
H96	H	0.910868	-0.125542	-0.006705
H97	H	0.910870	-0.222436	-0.006683
H98	H	0.738062	-0.125594	-0.179406
H99	H	0.690459	-0.531555	-0.226954
H100	H	0.704798	0.000135	0.679579
Br101	Br	0.976482	0.000159	0.290866
Br102	Br	0.984357	-0.356728	0.066758
Br103	Br	0.972473	0.000152	0.563227
H104	H	0.711342	0.000124	0.235567
H105	H	0.935689	0.000171	0.710482
Br106	Br	0.672490	0.000128	0.523070
H107	H	0.464980	0.000152	-0.210777
Br108	Br	0.679029	0.000123	0.079054
Br109	Br	0.480746	0.000118	0.054950
Br110	Br	0.936772	-0.762687	0.019183
Br111	Br	0.168223	0.000200	-0.241017
Br112	Br	0.612233	0.000145	-0.247561
H113	H	0.020968	0.000205	-0.204232
Br114	Br	0.984364	-0.482611	0.066770
H115	H	0.910914	-0.874101	-0.006653
H116	H	0.628003	0.000100	0.018171
Br117	Br	0.712264	-0.888651	-0.205204
Br118	Br	0.712239	-0.762763	-0.205199
H119	H	0.690440	-0.468203	-0.226959
H120	H	0.690431	-0.371308	-0.226958
H121	H	0.738066	-0.222502	-0.179404
H122	H	0.958509	-0.531468	0.040933
H123	H	0.958509	-0.628372	0.040935
H124	H	0.690466	-0.628447	-0.226951
