data_functionalizedCrystal
_audit_creation_method	'MofGen! by Chris Wilmer'
_symmetry_space_group_name_H-M	'P1'
_symmetry_Int_Tables_number	1
_symmetry_cell_setting	triclinic
loop_
_symmetry_equiv_pos_as_xyz
  x,y,z
_cell_length_a	16.992694
_cell_length_b	10.723024
_cell_length_c	16.053802
_cell_angle_alpha	92.591250
_cell_angle_beta	87.249047
_cell_angle_gamma	87.568046
loop_
_atom_site_label
_atom_site_type_symbol
_atom_site_fract_x
_atom_site_fract_y
_atom_site_fract_z
O1	O	1.045092	0.259813	-0.069321
O2	O	0.816792	0.256907	-0.069346
O3	O	0.936208	0.077238	-0.069330
O4	O	0.925676	0.439483	-0.069337
O5	O	0.929634	0.087084	0.069528
O6	O	0.810219	0.266753	0.069512
O7	O	1.038518	0.269659	0.069537
Zn8	Zn	0.923325	0.269769	0.091572
Zn9	Zn	0.931985	0.256797	-0.091380
O10	O	0.919103	0.449329	0.069521
C11	C	0.784273	0.258094	0.000080
C12	C	0.697169	0.246945	0.000071
C13	C	0.647507	0.354505	0.000069
C14	C	0.565664	0.344024	0.000081
C15	C	0.533484	0.225982	0.000088
C16	C	0.583152	0.118414	0.000092
C17	C	0.664994	0.128896	0.000087
C18	C	0.289651	0.182535	0.000112
C19	C	0.207803	0.172060	0.000115
C20	C	0.190321	0.397672	0.000105
C21	C	0.272165	0.408144	0.000094
C22	C	0.321826	0.300577	0.000103
N23	N	0.449827	0.215265	0.000098
N24	N	0.405481	0.311294	0.000099
C25	C	0.932155	0.035595	0.000098
C26	C	0.929862	-0.103157	0.000095
C27	C	0.996681	-0.172386	0.000101
C28	C	0.994312	-0.315793	0.000098
C29	C	1.071038	0.268472	0.000109
C30	C	1.158141	0.279620	0.000113
C31	C	0.923156	0.490971	0.000091
C32	C	0.925449	0.629723	0.000089
N33	N	0.917420	0.278623	0.216431
N34	N	0.937896	0.247934	-0.216239
C35	C	0.968250	0.202204	0.260132
C36	C	0.964127	0.208409	0.347538
C37	C	0.909177	0.291041	0.391242
C38	C	0.858341	0.367463	0.347535
C39	C	0.862461	0.361250	0.260130
C40	C	0.891180	0.318143	0.652649
C41	C	0.887066	0.324353	0.740060
C42	C	0.992852	0.165297	0.740057
C43	C	0.996970	0.159097	0.652650
C44	C	0.946131	0.235514	0.608951
N45	N	0.904963	0.297389	0.480585
N46	N	0.950342	0.229159	0.519610
H47	H	1.055640	-0.125486	0.000113
C48	C	0.350727	0.555883	0.071424
C49	C	0.307553	0.537886	0.000061
H50	H	0.372582	0.635975	0.071388
H51	H	0.316883	0.550591	0.119849
H52	H	0.392004	0.493298	0.071423
H53	H	0.266272	0.600466	0.000066
H54	H	0.341399	0.543190	-0.048376
H55	H	1.013000	0.134922	0.224554
C56	C	1.004327	0.004081	0.838358
C57	C	1.048722	0.081290	0.788094
H58	H	1.038821	-0.047791	0.868010
H59	H	0.971021	0.054186	0.876890
H60	H	0.973041	-0.046530	0.804259
H61	H	1.080004	0.131908	0.822194
H62	H	1.082042	0.031180	0.749558
C63	C	0.750374	0.385876	0.767004
C64	C	0.826653	0.415170	0.788108
H65	H	0.713081	0.441934	0.796674
H66	H	0.745549	0.393129	0.708704
H67	H	0.740756	0.302703	0.781337
H68	H	0.836274	0.498340	0.773770
H69	H	0.831481	0.407929	0.846421
C70	C	0.528933	0.528019	-0.071317
C71	C	0.511077	0.462260	0.000073
H72	H	0.495230	0.601013	-0.071322
H73	H	0.582274	0.551146	-0.071318
H74	H	0.521390	0.476499	-0.119729
H75	H	0.518625	0.513777	0.048485
H76	H	0.457723	0.439136	0.000082
H77	H	0.673701	0.450628	0.000063
C78	C	1.054245	-0.522633	0.000094
C79	C	1.071539	-0.396116	0.000101
H80	H	1.101924	-0.572220	0.000090
H81	H	1.022259	-0.537316	0.048512
H82	H	1.026833	-0.544167	-0.048335
H83	H	1.098946	-0.374579	0.048532
H84	H	1.103537	-0.381425	-0.048322
C85	C	0.805060	0.447621	0.481520
C86	C	0.797940	0.458297	0.395573
H87	H	0.767774	0.503708	0.511173
H88	H	0.795417	0.364468	0.495851
H89	H	0.856818	0.467469	0.495824
H90	H	0.746184	0.438440	0.381267
H91	H	0.807577	0.541468	0.381235
H92	H	0.868243	-0.310778	0.000090
C93	C	0.395192	0.058370	-0.071274
C94	C	0.344231	0.064295	0.000109
H95	H	0.428891	-0.014628	-0.071272
H96	H	0.365185	0.055541	-0.119685
H97	H	0.426070	0.130172	-0.071266
H98	H	0.313348	-0.007502	0.000098
H99	H	0.374241	0.067113	0.048533
H100	H	0.849787	0.380368	0.617076
C101	C	0.569486	-0.072049	0.071483
C102	C	0.547782	-0.011343	0.000100
H103	H	0.547647	-0.152154	0.071486
H104	H	0.625329	-0.081197	0.071476
H105	H	0.550188	-0.023973	0.119900
H106	H	0.567085	-0.059415	-0.048317
H107	H	0.491928	-0.002201	0.000100
C108	C	0.975628	0.047180	0.445832
C109	C	1.020008	0.124408	0.395568
H110	H	1.010130	-0.004687	0.475477
H111	H	0.942320	0.097271	0.484370
H112	H	0.944344	-0.003437	0.411733
H113	H	1.051287	0.175031	0.429667
H114	H	1.053329	0.074311	0.357025
H115	H	0.705428	0.041309	0.000087
C116	C	0.848108	-0.246017	-0.071299
C117	C	0.850264	-0.166459	0.000084
H118	H	0.798968	-0.285098	-0.071302
H119	H	0.854162	-0.198895	-0.119710
H120	H	0.889727	-0.308026	-0.071288
H121	H	0.808649	-0.104443	0.000069
H122	H	0.844202	-0.213583	0.048508
H123	H	0.181606	0.075931	0.000120
C124	C	1.101113	0.002487	0.661431
C125	C	1.057369	0.068258	0.604614
H126	H	1.138398	-0.053596	0.631773
H127	H	1.128003	0.059718	0.695510
H128	H	1.066603	-0.043283	0.695533
H129	H	1.091879	0.114036	0.570515
H130	H	1.030478	0.011019	0.570520
H131	H	0.821069	0.423476	0.224550
H132	H	0.149878	0.485247	0.000100
