data_functionalizedCrystal
_audit_creation_method	'MofGen! by Chris Wilmer'
_symmetry_space_group_name_H-M	'P1'
_symmetry_Int_Tables_number	1
_symmetry_cell_setting	triclinic
loop_
_symmetry_equiv_pos_as_xyz
  x,y,z
_cell_length_a	8.597340
_cell_length_b	11.792254
_cell_length_c	7.681481
_cell_angle_alpha	84.218036
_cell_angle_beta	103.474906
_cell_angle_gamma	84.768620
loop_
_atom_site_label
_atom_site_type_symbol
_atom_site_fract_x
_atom_site_fract_y
_atom_site_fract_z
O1	O	2.101213	0.156958	0.172362
O2	O	2.601213	0.656958	0.672362
O3	O	1.637309	0.175042	0.101975
O4	O	2.137309	0.675042	0.601975
O5	O	1.880509	0.000779	0.138888
O6	O	2.380509	0.500779	0.638888
O7	O	1.858012	0.331220	0.135449
O8	O	2.358012	0.831220	0.635449
O9	O	1.910443	-0.020718	0.436289
O10	O	2.410443	0.479282	0.936289
O11	O	1.667243	0.153544	0.399376
O12	O	2.167243	0.653544	0.899376
O13	O	2.131146	0.135460	0.469763
O14	O	2.631146	0.635460	0.969763
Zn15	Zn	1.903947	0.141089	0.481788
Zn16	Zn	2.403947	0.641089	0.981788
Zn17	Zn	1.864508	0.169413	0.089950
Zn18	Zn	2.364508	0.669413	0.589950
O19	O	1.887946	0.309723	0.432850
O20	O	2.387946	0.809723	0.932850
C21	C	1.592886	0.163548	0.241665
C22	C	2.092886	0.663548	0.741665
C23	C	1.415922	0.161316	0.214815
C24	C	1.915922	0.661316	0.714815
C25	C	1.894059	-0.052254	0.287373
C26	C	2.394059	0.447746	0.787373
C27	C	1.889818	-0.178248	0.286728
C28	C	2.389818	0.321752	0.786728
C29	C	1.886371	-0.280569	0.286198
C30	C	2.386371	0.219431	0.786198
C31	C	1.882060	-0.408935	0.285528
C32	C	2.382060	0.091065	0.785528
C33	C	2.175569	0.146954	0.330069
C34	C	2.675569	0.646954	0.830069
C35	C	2.352532	0.149187	0.356907
C36	C	2.852532	0.649187	0.856907
C37	C	1.874396	0.362756	0.284362
C38	C	2.374396	0.862756	0.784362
C39	C	1.878636	0.488751	0.284995
C40	C	2.378636	0.988751	0.784995
N41	N	1.930874	0.121758	0.749210
N42	N	2.430874	0.621758	1.249210
N43	N	1.837593	0.188735	-0.177470
N44	N	2.337593	0.688735	0.322530
H45	H	1.433645	0.140501	0.499106
H46	H	1.933645	0.640501	0.999106
H47	H	1.334801	0.169994	0.072607
H48	H	1.834801	0.669994	0.572607
C49	C	1.708953	0.281086	0.701430
C50	C	2.208953	0.781086	1.201430
H51	H	1.711871	0.278972	0.578912
H52	H	2.211871	0.778972	1.078912
H53	H	1.730125	0.354618	0.734762
H54	H	2.230125	0.854618	1.234762
H55	H	1.605487	0.266628	0.715876
H56	H	2.105487	0.766628	1.215876
C57	C	2.059523	0.029403	0.870319
C58	C	2.559523	0.529403	1.370319
H59	H	2.056593	0.031505	0.992836
H60	H	2.556593	0.531505	1.492836
H61	H	2.162982	0.043850	0.855865
H62	H	2.662982	0.543850	1.355865
H63	H	2.038333	-0.044133	0.836986
H64	H	2.538333	0.455867	1.336986
