data_functionalizedCrystal
_audit_creation_method	'MofGen! by Chris Wilmer'
_symmetry_space_group_name_H-M	'P1'
_symmetry_Int_Tables_number	1
_symmetry_cell_setting	triclinic
loop_
_symmetry_equiv_pos_as_xyz
  x,y,z
_cell_length_a	16.109301
_cell_length_b	18.266242
_cell_length_c	16.109301
_cell_angle_alpha	90.006549
_cell_angle_beta	83.461481
_cell_angle_gamma	90.006222
loop_
_atom_site_label
_atom_site_type_symbol
_atom_site_fract_x
_atom_site_fract_y
_atom_site_fract_z
O1	O	1.103137	0.060837	0.106867
O2	O	1.603137	0.560837	0.606867
O3	O	0.861075	0.060849	0.120166
O4	O	1.361075	0.560849	0.620166
O5	O	0.988756	0.060835	-0.007514
O6	O	1.488756	0.560835	0.492486
O7	O	0.975457	0.060851	0.234548
O8	O	1.475457	0.560851	0.734548
O9	O	0.988734	-0.060927	-0.007518
O10	O	1.488734	0.439073	0.492482
O11	O	0.861054	-0.060913	0.120163
O12	O	1.361054	0.439087	0.620163
O13	O	1.103115	-0.060925	0.106863
O14	O	1.603115	0.439075	0.606863
Zn15	Zn	0.982081	-0.080251	0.113512
Zn16	Zn	1.482081	0.419749	0.613512
Zn17	Zn	0.982110	0.080175	0.113517
Zn18	Zn	1.482110	0.580175	0.613517
O19	O	0.975435	-0.060911	0.234544
O20	O	1.475435	0.439089	0.734544
C21	C	0.830090	-0.000031	0.119626
C22	C	1.330090	0.499969	0.619626
C23	C	0.737794	-0.000026	0.118011
C24	C	1.237794	0.499974	0.618011
C25	C	0.515522	-0.000030	0.190018
C26	C	1.015522	0.499970	0.690018
C27	C	0.428801	-0.000035	0.188494
C28	C	0.928801	0.499965	0.688494
C29	C	0.448676	-0.000042	0.037006
C30	C	0.948676	0.499958	0.537006
C31	C	0.535394	-0.000042	0.038530
C32	C	1.035394	0.499958	0.538530
C33	C	0.568815	-0.000033	0.115039
C34	C	1.068815	0.499967	0.615039
C35	C	0.395376	-0.000037	0.111990
C36	C	0.895376	0.499963	0.611990
C37	C	0.301350	-0.000042	0.110337
C38	C	0.801350	0.499958	0.610337
C39	C	0.662847	-0.000029	0.116693
C40	C	1.162847	0.499971	0.616693
N41	N	0.982068	-0.189738	0.113509
N42	N	1.482068	0.310262	0.613509
C43	C	1.032470	-0.228040	0.163954
C44	C	1.532470	0.271960	0.663954
C45	C	1.032483	-0.304685	0.163952
C46	C	1.532483	0.195315	0.663952
C47	C	0.982080	-0.343025	0.113514
C48	C	1.482080	0.156975	0.613514
C49	C	0.931674	-0.304714	0.063058
C50	C	1.431674	0.195286	0.563058
C51	C	0.931668	-0.228071	0.063056
C52	C	1.431668	0.271929	0.563056
N53	N	0.909260	-0.463374	0.111263
N54	N	1.409260	0.036626	0.611263
N55	N	0.909268	-0.536183	0.111270
N56	N	1.409268	-0.036183	0.611270
C57	C	0.982096	-0.573948	0.113517
C58	C	1.482096	-0.073948	0.613517
N59	N	1.054917	-0.536154	0.115772
N60	N	1.554917	-0.036154	0.615772
N61	N	1.054908	-0.463339	0.115770
N62	N	1.554908	0.036661	0.615770
C63	C	0.982081	-0.426132	0.113510
C64	C	1.482081	0.073868	0.613510
C65	C	1.032518	-0.695357	0.163962
C66	C	1.532518	-0.195357	0.663962
C67	C	1.032533	-0.772003	0.163954
C68	C	1.532533	-0.272003	0.663954
C69	C	0.931716	-0.772030	0.063065
C70	C	1.431716	-0.272030	0.563065
C71	C	0.931708	-0.695386	0.063069
C72	C	1.431708	-0.195386	0.563069
C73	C	0.982108	-0.657053	0.113522
C74	C	1.482108	-0.157053	0.613522
C75	C	1.134101	-0.000044	0.107404
C76	C	1.634101	0.499956	0.607404
C77	C	1.226397	-0.000043	0.109019
C78	C	1.726397	0.499957	0.609019
C79	C	0.988206	-0.000046	-0.038491
C80	C	1.488206	0.499954	0.461509
C81	C	0.986591	-0.000047	-0.130786
C82	C	1.486591	0.499953	0.369214
N83	N	0.982130	0.189662	0.113514
N84	N	1.482130	0.689662	0.613514
C85	C	1.058599	-0.000039	-0.353059
C86	C	1.558599	0.499961	0.146941
C87	C	1.057075	-0.000033	-0.439779
C88	C	1.557075	0.499967	0.060221
C89	C	0.905586	-0.000028	-0.419905
C90	C	1.405586	0.499972	0.080095
C91	C	0.907111	-0.000029	-0.333186
C92	C	1.407111	0.499971	0.166814
C93	C	0.983620	-0.000038	-0.299766
C94	C	1.483620	0.499962	0.200234
C95	C	0.980571	-0.000031	-0.473205
C96	C	1.480571	0.499969	0.026795
C97	C	0.978918	-0.000025	-0.567231
C98	C	1.478918	0.499975	-0.067231
C99	C	0.985273	-0.000044	-0.205734
C100	C	1.485273	0.499956	0.294266
C101	C	0.975984	-0.000028	0.265521
C102	C	1.475984	0.499972	0.765521
C103	C	0.977600	-0.000023	0.357816
C104	C	1.477600	0.499977	0.857816
H105	H	0.542730	-0.000028	0.252317
H106	H	1.042730	0.499972	0.752317
H107	H	0.385413	-0.000034	0.249550
H108	H	0.885413	0.499966	0.749550
N109	N	0.880185	-0.343886	0.011550
N110	N	1.380185	0.156114	0.511550
N111	N	0.825212	-0.386656	0.044004
N112	N	1.325212	0.113344	0.544004
H113	H	0.788848	-0.414322	0.007624
H114	H	1.288848	0.085678	0.507624
H115	H	0.890623	-0.196886	0.021976
H116	H	1.390623	0.303114	0.521976
H117	H	1.120897	-0.000045	-0.325851
H118	H	1.620897	0.499955	0.174149
N119	N	1.133672	-0.000028	-0.494205
N120	N	1.633672	0.499972	0.005795
N121	N	1.201973	-0.000032	-0.464350
N122	N	1.701973	0.499968	0.035650
H123	H	1.256074	-0.000027	-0.502787
H124	H	1.756074	0.499973	-0.002787
H125	H	1.073512	-0.196835	0.205033
H126	H	1.573512	0.303165	0.705033
H127	H	0.890677	-0.803246	0.021997
H128	H	1.390677	-0.303246	0.521997
N129	N	0.414522	-0.000051	-0.041135
N130	N	0.914522	0.499949	0.458865
N131	N	0.337094	-0.000050	-0.042488
N132	N	0.837094	0.499950	0.457512
H133	H	0.312972	-0.000056	-0.097676
H134	H	0.812972	0.499944	0.402324
H135	H	1.073527	-0.335877	0.205033
H136	H	1.573527	0.164123	0.705033
H137	H	1.073582	-0.803187	0.205030
H138	H	1.573582	-0.303187	0.705030
H139	H	0.843295	-0.000022	-0.447127
H140	H	1.343295	0.499978	0.052873
N141	N	0.830509	-0.000021	-0.278754
N142	N	1.330509	0.499979	0.221246
N143	N	0.762205	-0.000017	-0.308602
N144	N	1.262205	0.499983	0.191398
H145	H	0.708107	-0.000007	-0.270160
H146	H	1.208107	0.499993	0.229840
H147	H	1.073556	-0.664145	0.205043
H148	H	1.573556	-0.164145	0.705043
N149	N	0.589827	-0.000052	-0.038071
N150	N	1.089827	0.499948	0.461929
N151	N	0.559979	-0.000057	-0.106376
N152	N	1.059979	0.499943	0.393624
H153	H	0.598421	-0.000067	-0.160474
H154	H	1.098421	0.499933	0.339526
N155	N	0.880212	-0.656268	0.011540
N156	N	1.380212	-0.156268	0.511540
N157	N	0.835211	-0.690506	-0.033491
N158	N	1.335211	-0.190506	0.466509
H159	H	0.798839	-0.662880	-0.069886
H160	H	1.298839	-0.162880	0.430114
