data_functionalizedCrystal
_audit_creation_method	'MofGen! by Chris Wilmer'
_symmetry_space_group_name_H-M	'P1'
_symmetry_Int_Tables_number	1
_symmetry_cell_setting	triclinic
loop_
_symmetry_equiv_pos_as_xyz
  x,y,z
_cell_length_a	9.130313
_cell_length_b	10.654550
_cell_length_c	10.654550
_cell_angle_alpha	84.484931
_cell_angle_beta	90.004369
_cell_angle_gamma	90.000276
loop_
_atom_site_label
_atom_site_type_symbol
_atom_site_fract_x
_atom_site_fract_y
_atom_site_fract_z
O1	O	-0.121690	-1.667839	-0.176399
O2	O	0.378310	-1.167839	0.323601
O3	O	-0.121716	-1.302361	-0.193205
O4	O	0.378284	-0.802361	0.306795
O5	O	-0.121693	-1.493503	-0.002063
O6	O	0.378307	-0.993503	0.497937
O7	O	-0.121713	-1.476697	-0.367541
O8	O	0.378287	-0.976697	0.132459
O9	O	0.121906	-1.493490	-0.002057
O10	O	0.621906	-0.993490	0.497943
O11	O	0.121882	-1.302348	-0.193199
O12	O	0.621882	-0.802348	0.306801
O13	O	0.121909	-1.667826	-0.176393
O14	O	0.621909	-1.167826	0.323607
Cu15	Cu	0.144138	-1.485086	-0.184796
Cu16	Cu	0.644138	-0.985086	0.315204
Cu17	Cu	-0.143946	-1.485101	-0.184802
Cu18	Cu	0.356054	-0.985101	0.315198
O19	O	0.121886	-1.476684	-0.367535
O20	O	0.621886	-0.976684	0.132465
C21	C	0.000080	-1.255556	-0.191968
C22	C	0.500080	-0.755556	0.308032
C23	C	0.000070	-1.116113	-0.188276
C24	C	0.500070	-0.616113	0.311724
N25	N	0.346761	-1.485084	-0.184790
N26	N	0.846761	-0.985084	0.315210
N27	N	-0.346568	-1.485113	-0.184798
N28	N	0.153432	-0.985113	0.315202
C29	C	0.423423	-1.569751	-0.100188
C30	C	0.923423	-1.069751	0.399812
C31	C	0.576760	-1.569763	-0.100189
C32	C	1.076760	-1.069763	0.399811
C33	C	0.576759	-1.400437	-0.269404
C34	C	1.076759	-0.900437	0.230596
C35	C	0.423425	-1.400420	-0.269396
C36	C	0.923425	-0.900420	0.230604
C37	C	0.000105	-1.492263	0.044738
C38	C	0.500105	-0.992263	0.544738
C39	C	0.000103	-1.488571	0.184181
C40	C	0.500103	-0.988571	0.684181
C41	C	0.000110	-1.714631	-0.177630
C42	C	0.500110	-1.214631	0.322370
C43	C	0.000110	-1.854074	-0.181322
C44	C	0.500110	-1.354074	0.318678
C45	C	0.000068	-1.036628	-0.300818
C46	C	0.500068	-0.536628	0.199182
C47	C	0.000093	-0.905607	-0.297341
C48	C	0.500093	-0.405607	0.202659
C49	C	0.000117	-0.933570	-0.068772
C50	C	0.500117	-0.433570	0.431228
C51	C	0.000101	-1.064588	-0.072250
C52	C	0.500101	-0.564588	0.427750
C53	C	0.000084	-1.477925	-0.414336
C54	C	0.500084	-0.977925	0.085664
C55	C	0.000077	-1.481616	-0.553779
C56	C	0.500077	-0.981616	-0.053779
C57	C	0.000111	-1.601112	0.263667
C58	C	0.500111	-1.101112	0.763667
C59	C	0.000092	-1.597636	0.394688
C60	C	0.500092	-1.097636	0.894688
C61	C	0.000065	-1.369066	0.366725
C62	C	0.500065	-0.869066	0.866725
C63	C	0.000073	-1.372544	0.235706
C64	C	0.500073	-0.872544	0.735706
H65	H	0.639174	-1.638704	-0.031297
H66	H	1.139174	-1.138704	0.468703
O67	O	0.000122	-1.719023	0.480418
O68	O	0.500122	-1.219023	0.980418
H69	H	-0.099144	-1.774512	0.461956
H70	H	0.400856	-1.274512	0.961956
H71	H	0.361002	-1.331468	-0.338290
H72	H	0.861002	-0.831468	0.161710
O73	O	0.659444	-1.309138	-0.360670
O74	O	1.159444	-0.809138	0.139330
H75	H	0.778947	-1.323383	-0.346475
H76	H	1.278947	-0.823383	0.153525
H77	H	0.000062	-1.280893	0.170985
H78	H	0.500062	-0.780893	0.670985
O79	O	0.000064	-1.092208	-0.425953
O80	O	0.500064	-0.592208	0.074047
H81	H	0.000086	-1.014920	-0.503625
H82	H	0.500086	-0.514920	-0.003625
H83	H	0.000095	-0.840894	-0.388984
H84	H	0.500095	-0.340894	0.111016
O85	O	0.000140	-0.877999	0.056369
O86	O	0.500140	-0.377999	0.556369
H87	H	0.000137	-0.773539	0.039883
H88	H	0.500137	-0.273539	0.539883
H89	H	0.000107	-1.129309	0.019401
H90	H	0.500107	-0.629309	0.519401
H91	H	0.000132	-1.695588	0.221720
H92	H	0.500132	-1.195588	0.721720
O93	O	0.000064	-1.243926	0.422296
O94	O	0.500064	-0.743926	0.922296
H95	H	0.000081	-1.260412	0.526756
H96	H	0.500081	-0.760412	1.026756
H97	H	0.361007	-1.638687	-0.031295
H98	H	0.861007	-1.138687	0.468705
