data_functionalizedCrystal
_audit_creation_method	'MofGen! by Chris Wilmer'
_symmetry_space_group_name_H-M	'P1'
_symmetry_Int_Tables_number	1
_symmetry_cell_setting	triclinic
loop_
_symmetry_equiv_pos_as_xyz
  x,y,z
_cell_length_a	14.519709
_cell_length_b	14.519731
_cell_length_c	9.130307
_cell_angle_alpha	89.995718
_cell_angle_beta	90.004095
_cell_angle_gamma	83.684499
loop_
_atom_site_label
_atom_site_type_symbol
_atom_site_fract_x
_atom_site_fract_y
_atom_site_fract_z
O1	O	1.223873	0.120888	-0.121612
O2	O	0.955397	0.135125	-0.121657
O3	O	1.096743	-0.006230	-0.121620
O4	O	1.082527	0.262244	-0.121649
O5	O	1.096738	-0.006232	0.121979
O6	O	0.955393	0.135124	0.121942
O7	O	1.223868	0.120887	0.121987
Cu8	Cu	1.089630	0.128005	0.144207
Cu9	Cu	1.089635	0.128007	-0.143877
O10	O	1.082522	0.262242	0.121950
C11	C	0.921035	0.134461	0.000137
C12	C	0.818654	0.132473	0.000120
C13	C	0.443757	0.125153	0.000187
C14	C	0.548065	0.127186	0.000168
C15	C	0.631202	0.128813	0.000152
C16	C	0.735517	0.130846	0.000136
C17	C	1.096075	-0.040591	0.000180
C18	C	1.094079	-0.142971	0.000180
C19	C	1.092457	-0.226115	0.000176
C20	C	1.090430	-0.330424	0.000165
C21	C	1.088822	-0.413563	0.000155
C22	C	1.086795	-0.517878	0.000146
C23	C	1.258230	0.121551	0.000190
C24	C	1.360612	0.123539	0.000197
C25	C	1.083191	0.296603	0.000147
C26	C	1.085187	0.398983	0.000137
N27	N	1.089633	0.128004	0.346830
N28	N	1.089640	0.128001	-0.346500
C29	C	1.214846	0.002870	0.346853
C30	C	1.277458	-0.059695	0.423531
C31	C	1.277467	-0.059695	0.576864
C32	C	1.214855	0.002873	0.653523
C33	C	1.152243	0.065438	0.576845
C34	C	1.152242	0.065433	0.423508
C35	C	1.027027	0.190566	0.576822
C36	C	1.027021	0.190572	0.423488
C37	C	0.964416	0.253134	0.653481
C38	C	0.901806	0.315705	0.576803
C39	C	0.901800	0.315703	0.423460
C40	C	0.964409	0.253137	0.346810
H41	H	1.214852	0.002871	0.222000
H42	H	1.328435	-0.110640	0.361102
H43	H	0.964413	0.253133	0.221958
Br44	Br	0.964418	0.253130	0.861578
Br45	Br	0.816833	0.400602	0.680842
H46	H	1.328448	-0.110644	0.639296
Br47	Br	1.214852	0.002858	0.861620
Br48	Br	0.816813	0.400610	0.319410
