data_functionalizedCrystal
_audit_creation_method	'MofGen! by Chris Wilmer'
_symmetry_space_group_name_H-M	'P1'
_symmetry_Int_Tables_number	1
_symmetry_cell_setting	triclinic
loop_
_symmetry_equiv_pos_as_xyz
  x,y,z
_cell_length_a	14.519709
_cell_length_b	12.996460
_cell_length_c	10.654541
_cell_angle_alpha	89.994097
_cell_angle_beta	95.917963
_cell_angle_gamma	89.999966
loop_
_atom_site_label
_atom_site_type_symbol
_atom_site_fract_x
_atom_site_fract_y
_atom_site_fract_z
O1	O	1.224721	0.085432	-0.164626
O2	O	1.724721	0.585432	0.335374
O3	O	0.956345	0.085464	-0.184012
O4	O	1.456345	0.585464	0.315988
O5	O	1.096705	0.085441	0.008480
O6	O	1.596705	0.585441	0.508480
O7	O	1.084361	0.085455	-0.357118
O8	O	1.584361	0.585455	0.142882
O9	O	1.096690	-0.085693	0.008491
O10	O	1.596690	0.414307	0.508491
O11	O	0.956330	-0.085670	-0.184002
O12	O	1.456330	0.414330	0.315998
O13	O	1.224706	-0.085702	-0.164615
O14	O	1.724706	0.414298	0.335385
Cu15	Cu	1.090517	-0.101312	-0.174307
Cu16	Cu	1.590517	0.398688	0.325693
Cu17	Cu	1.090534	0.101074	-0.174320
Cu18	Cu	1.590534	0.601074	0.325680
O19	O	1.084347	-0.085679	-0.357107
O20	O	1.584347	0.414321	0.142893
C21	C	0.921973	-0.000099	-0.183103
C22	C	1.421973	0.499901	0.316897
C23	C	0.819578	-0.000087	-0.180396
C24	C	1.319578	0.499913	0.319604
C25	C	0.444630	-0.000135	-0.170429
C26	C	0.944630	0.499865	0.329571
C27	C	0.548952	-0.000121	-0.173197
C28	C	1.048952	0.499879	0.326803
C29	C	0.632101	-0.000110	-0.175412
C30	C	1.132101	0.499890	0.324588
C31	C	0.736429	-0.000098	-0.178181
C32	C	1.236429	0.499902	0.321819
N33	N	1.090511	-0.243659	-0.174298
N34	N	1.590511	0.256341	0.325702
C35	C	1.090533	-0.663473	-0.174321
C36	C	1.590533	-0.163473	0.325679
C37	C	1.090524	-0.546668	-0.174319
C38	C	1.590524	-0.046668	0.325681
C39	C	1.090523	-0.453570	-0.174310
C40	C	1.590523	0.046430	0.325690
C41	C	1.090513	-0.336757	-0.174306
C42	C	1.590513	0.163243	0.325694
C43	C	1.259078	-0.000136	-0.165524
C44	C	1.759078	0.499864	0.334476
C45	C	1.361474	-0.000141	-0.168231
C46	C	1.861474	0.499859	0.331769
C47	C	1.095791	-0.000125	0.055275
C48	C	1.595791	0.499875	0.555275
C49	C	1.093081	-0.000123	0.194692
C50	C	1.593081	0.499877	0.694692
N51	N	1.090547	0.243421	-0.174320
N52	N	1.590547	0.743421	0.325680
C53	C	1.085260	-0.000110	-0.403902
C54	C	1.585260	0.499890	0.096098
C55	C	1.087970	-0.000106	-0.543319
C56	C	1.587970	0.499894	-0.043319
C57	C	1.260920	-0.000156	0.224277
C58	C	1.760920	0.499844	0.724277
C59	C	1.343562	-0.000174	0.304566
C60	C	1.843562	0.499826	0.804566
C61	C	1.341010	-0.000171	0.435559
C62	C	1.841010	0.499829	0.935559
C63	C	1.255806	-0.000146	0.486265
C64	C	1.755806	0.499854	0.986265
C65	C	1.173164	-0.000127	0.405976
C66	C	1.673164	0.499873	0.905976
C67	C	1.175725	-0.000134	0.274981
C68	C	1.675725	0.499866	0.774981
C69	C	1.005328	-0.000087	0.376392
C70	C	1.505328	0.499913	0.876392
C71	C	1.007878	-0.000098	0.245398
C72	C	1.507878	0.499902	0.745398
C73	C	0.920124	-0.000063	0.427098
C74	C	1.420124	0.499937	0.927098
C75	C	0.837480	-0.000052	0.346809
C76	C	1.337480	0.499948	0.846809
C77	C	0.840036	-0.000056	0.215808
C78	C	1.340036	0.499944	0.715808
C79	C	0.925236	-0.000080	0.165109
C80	C	1.425236	0.499920	0.665109
H81	H	1.263006	-0.000173	0.117616
H82	H	1.763006	0.499827	0.617616
Cl83	Cl	1.450669	-0.000199	0.240815
Cl84	Cl	1.950669	0.499801	0.740815
H85	H	1.408304	-0.000177	0.500931
H86	H	1.908304	0.499823	1.000931
H87	H	1.253736	-0.000130	0.592928
H88	H	1.753736	0.499870	1.092928
Cl89	Cl	0.916916	0.000007	0.591776
Cl90	Cl	1.416916	0.500007	1.091776
Cl91	Cl	0.730380	-0.000008	0.410560
Cl92	Cl	1.230380	0.499992	0.910560
Cl93	Cl	0.736136	-0.000026	0.114883
Cl94	Cl	1.236136	0.499974	0.614883
Cl95	Cl	0.928456	-0.000093	0.000432
Cl96	Cl	1.428456	0.499907	0.500432
