data_functionalizedCrystal
_audit_creation_method	'MofGen! by Chris Wilmer'
_symmetry_space_group_name_H-M	'P1'
_symmetry_Int_Tables_number	1
_symmetry_cell_setting	triclinic
loop_
_symmetry_equiv_pos_as_xyz
  x,y,z
_cell_length_a	16.992694
_cell_length_b	16.992695
_cell_length_c	16.776229
_cell_angle_alpha	89.993259
_cell_angle_beta	89.998654
_cell_angle_gamma	90.668223
loop_
_atom_site_label
_atom_site_type_symbol
_atom_site_fract_x
_atom_site_fract_y
_atom_site_fract_z
O1	O	1.050854	0.166919	-0.066189
O2	O	0.822453	0.165087	-0.066213
O3	O	0.935738	0.051803	-0.066195
O4	O	0.937569	0.280203	-0.066207
O5	O	0.935721	0.051795	0.066382
O6	O	0.822437	0.165079	0.066364
O7	O	1.050837	0.166910	0.066387
Zn8	Zn	0.936634	0.165993	0.087425
Zn9	Zn	0.936656	0.166004	-0.087250
O10	O	0.937553	0.280195	0.066370
C11	C	0.793085	0.162727	0.000073
C12	C	0.705600	0.155699	0.000064
C13	C	0.659610	0.223517	0.000061
C14	C	0.577409	0.216908	0.000072
C15	C	0.541201	0.142480	0.000081
C16	C	0.587198	0.074657	0.000086
C17	C	0.669397	0.081267	0.000081
C18	C	0.295886	0.115086	0.000104
C19	C	0.213681	0.108481	0.000107
C20	C	0.203898	0.250732	0.000094
C21	C	0.286099	0.257335	0.000084
C22	C	0.332089	0.189512	0.000094
N23	N	0.457178	0.135723	0.000090
N24	N	0.416110	0.196270	0.000090
C25	C	0.933374	0.022439	0.000093
C26	C	0.926345	-0.065046	0.000092
C27	C	0.994163	-0.111037	0.000100
C28	C	0.987554	-0.193238	0.000092
C29	C	0.913127	-0.229446	0.000082
C30	C	0.845303	-0.183449	0.000071
C31	C	0.851913	-0.101250	0.000074
C32	C	0.885732	-0.474760	0.000068
C33	C	0.879127	-0.556966	0.000068
C34	C	1.021379	-0.566749	0.000087
C35	C	1.027982	-0.484547	0.000094
C36	C	0.960159	-0.438558	0.000080
N37	N	0.906369	-0.313468	0.000076
N38	N	0.966917	-0.354537	0.000080
C39	C	1.080205	0.169270	0.000100
C40	C	1.167690	0.176299	0.000104
C41	C	0.939917	0.309559	0.000080
C42	C	0.946945	0.397044	0.000076
N43	N	0.936625	0.165986	0.206636
N44	N	0.936671	0.166006	-0.206461
C45	C	0.986805	0.115846	0.248361
C46	C	0.986810	0.115846	0.331814
C47	C	0.936637	0.165989	0.373539
C48	C	0.886452	0.216131	0.331808
C49	C	0.886444	0.216127	0.248358
C50	C	0.886481	0.216148	0.668356
C51	C	0.886494	0.216150	0.751812
C52	C	0.986847	0.115867	0.751811
C53	C	0.986839	0.115863	0.668361
C54	C	0.936651	0.166001	0.626637
C55	C	0.936646	0.166000	0.536149
C56	C	0.936646	0.165995	0.464026
H57	H	0.333322	0.059859	0.000112
O58	O	1.035638	0.067125	0.372221
C59	C	1.135165	-0.032358	0.363414
C60	C	1.079914	0.022790	0.317554
H61	H	1.170964	-0.068228	0.319236
H62	H	1.176666	0.004092	0.402447
H63	H	1.098720	-0.073804	0.402520
H64	H	1.116295	0.064248	0.278405
H65	H	1.038410	-0.013708	0.278571
O66	O	1.066524	-0.075994	0.000073
C67	C	1.206918	-0.094383	0.000128
C68	C	1.125018	-0.134167	0.000145
H69	H	1.254233	-0.141397	0.000203
H70	H	1.213626	-0.056163	-0.055368
H71	H	1.213525	-0.056127	0.055598
H72	H	1.118355	-0.172462	-0.055288
H73	H	1.118347	-0.172340	0.055677
O74	O	1.035601	0.067079	0.627953
C75	C	1.135170	-0.032363	0.636762
C76	C	1.079977	0.022836	0.682621
H77	H	1.171074	-0.068136	0.680941
H78	H	1.098753	-0.073891	0.597727
H79	H	1.176583	0.004121	0.597659
H80	H	1.038552	-0.013585	0.721768
H81	H	1.116442	0.064366	0.721606
O82	O	0.159340	0.316691	0.000056
C83	C	0.158313	0.458482	0.000097
C84	C	0.208867	0.383845	0.000119
H85	H	0.198335	0.512794	0.000165
H86	H	0.119600	0.459005	-0.055396
H87	H	0.119568	0.458897	0.055570
H88	H	0.247658	0.383381	-0.055316
H89	H	0.247528	0.383351	0.055649
H90	H	1.042779	-0.230680	0.000100
H91	H	0.184203	0.047870	0.000113
O92	O	0.806764	-0.592013	0.000014
C93	C	0.666366	-0.573640	0.000024
C94	C	0.748263	-0.533847	0.000067
H95	H	0.619046	-0.526631	0.000084
H96	H	0.659683	-0.611848	-0.055474
H97	H	0.659745	-0.611911	0.055492
H98	H	0.754941	-0.495538	-0.055364
H99	H	0.754910	-0.495687	0.055602
H100	H	1.088589	-0.455073	0.000103
O101	O	0.819872	-0.430062	-0.000082
C102	C	0.744797	-0.331547	-0.068753
C103	C	0.819410	-0.382136	-0.068691
H104	H	0.744406	-0.292774	-0.124209
H105	H	0.690443	-0.371514	-0.068808
H106	H	0.744329	-0.292859	-0.013245
H107	H	0.819954	-0.420829	-0.124189
H108	H	0.873730	-0.342123	-0.068594
O109	O	0.837675	0.264882	0.792222
C110	C	0.738155	0.364375	0.783421
C111	C	0.793386	0.309217	0.737558
H112	H	0.702346	0.400246	0.739245
H113	H	0.696663	0.327932	0.822482
H114	H	0.774617	0.405820	0.822501
H115	H	0.756988	0.267761	0.698435
H116	H	0.834881	0.345709	0.698548
H117	H	1.027710	0.075039	0.785792
O118	O	0.837849	0.264902	0.627749
C119	C	0.827825	0.371395	0.533570
C120	C	0.882988	0.316211	0.579494
H121	H	0.864298	0.412903	0.494557
H122	H	0.786373	0.334975	0.494455
H123	H	0.791959	0.407199	0.577750
H124	H	0.918905	0.280396	0.535371
H125	H	0.924388	0.352676	0.618620
O126	O	0.551901	0.002418	0.000061
C127	C	0.429607	-0.070810	0.000120
C128	C	0.469476	0.011051	0.000133
H129	H	0.362961	-0.063858	0.000194
H130	H	0.448124	-0.104597	-0.055374
H131	H	0.448231	-0.104581	0.055592
H132	H	0.450873	0.044887	-0.055302
H133	H	0.450959	0.044779	0.055663
H134	H	0.706842	0.026042	0.000083
H135	H	0.845596	0.256956	0.365786
H136	H	0.845581	0.256954	0.214386
H137	H	0.689084	0.284124	0.000053
H138	H	1.076596	-0.604202	0.000097
H139	H	0.539966	0.272133	0.000069
H140	H	0.784703	-0.212936	0.000058
O141	O	0.321294	0.329623	-0.000084
C142	C	0.408418	0.419621	-0.068809
C143	C	0.368605	0.337734	-0.068708
H144	H	0.446691	0.426198	-0.124277
H145	H	0.361447	0.466980	-0.068870
H146	H	0.446634	0.426286	-0.013314
H147	H	0.330393	0.330992	-0.124194
H148	H	0.415616	0.290416	-0.068606
H149	H	0.796688	-0.063804	0.000067
H150	H	1.027665	0.075017	0.214394
