data_functionalizedCrystal
_audit_creation_method	'MofGen! by Chris Wilmer'
_symmetry_space_group_name_H-M	'P1'
_symmetry_Int_Tables_number	1
_symmetry_cell_setting	triclinic
loop_
_symmetry_equiv_pos_as_xyz
  x,y,z
_cell_length_a	12.759401
_cell_length_b	17.640280
_cell_length_c	12.759393
_cell_angle_alpha	78.768122
_cell_angle_beta	89.981504
_cell_angle_gamma	78.801088
loop_
_atom_site_label
_atom_site_type_symbol
_atom_site_fract_x
_atom_site_fract_y
_atom_site_fract_z
Zn1	Zn	1.690815	-0.314620	-0.509515
Zn2	Zn	1.726240	-0.446817	-0.298344
Zn3	Zn	1.515128	-0.314662	-0.333843
Zn4	Zn	1.550620	-0.446756	-0.474002
O5	O	1.620701	-0.380714	-0.403926
O6	O	1.842537	-0.332165	-0.481509
O7	O	1.698207	-0.429329	-0.156021
O8	O	1.508755	-0.204049	-0.386865
O9	O	1.868564	-0.429289	-0.326362
O10	O	1.637831	-0.204019	-0.515931
O11	O	1.543105	-0.332235	-0.182102
O12	O	1.372813	-0.332176	-0.352430
O13	O	1.569245	-0.429185	-0.625745
O14	O	1.398888	-0.429226	-0.455404
O15	O	1.672246	-0.332106	-0.651837
O16	O	1.732622	-0.557416	-0.291927
O17	O	1.603595	-0.557371	-0.420982
C18	C	1.347729	-0.380699	-0.403916
C19	C	1.230956	-0.380712	-0.403931
C20	C	1.189721	-0.431327	-0.457417
C21	C	1.079999	-0.431337	-0.457425
C22	C	1.052758	-0.330115	-0.350454
C23	C	1.162476	-0.330102	-0.350453
C24	C	1.205448	-0.489768	-0.519172
C25	C	1.095727	-0.489778	-0.519181
C26	C	1.675832	-0.586073	-0.348771
C27	C	1.699514	-0.673926	-0.325211
C28	C	1.441225	-0.962886	-0.583293
C29	C	1.463480	-1.045438	-0.561121
C30	C	1.597919	-1.045419	-0.426872
C31	C	1.575680	-0.962866	-0.449037
C32	C	1.497331	-0.921606	-0.527247
C33	C	1.631785	-0.921585	-0.392991
C34	C	1.609543	-0.839039	-0.415150
C35	C	1.531196	-0.797773	-0.493355
C36	C	1.475089	-0.839060	-0.549406
C37	C	1.710129	-0.962847	-0.314775
C38	C	1.766234	-0.921566	-0.258729
C39	C	1.743998	-0.839018	-0.280893
C40	C	1.665650	-0.797753	-0.359098
C41	C	1.800105	-0.797732	-0.224841
C42	C	1.777863	-0.715186	-0.247000
C43	C	1.643408	-0.715207	-0.381257
C44	C	1.894738	-0.380729	-0.403937
C45	C	2.011516	-0.380736	-0.403942
C46	C	1.620753	-0.380634	-0.677981
C47	C	1.620775	-0.380600	-0.794767
C48	C	1.565383	-0.174553	-0.459319
C49	C	1.541809	-0.086700	-0.482925
C50	C	1.674416	-0.330046	-0.863218
C51	C	1.674433	-0.330017	-0.972949
C52	C	1.567168	-0.431104	-0.945768
C53	C	1.567145	-0.431128	-0.836040
C54	C	1.736348	-0.271687	-0.878911
C55	C	1.736365	-0.271658	-0.988643
C56	C	1.620694	-0.380736	-0.130953
C57	C	1.620815	-0.380548	-0.014227
H58	H	1.230869	-0.473444	-0.604961
C59	C	1.508176	-0.486681	-0.991179
N60	N	1.463742	-0.528542	-1.025382
C61	C	1.355023	-0.917496	-0.669316
N62	N	1.290090	-0.883307	-0.734096
C63	C	1.041855	-0.460249	-0.631599
N64	N	1.001277	-0.438003	-0.716270
H65	H	1.698128	-0.210475	-0.865588
C66	C	1.886275	-0.843129	-0.138801
N67	N	1.951177	-0.877322	-0.073993
H68	H	1.819518	-0.293631	-0.838983
H69	H	1.255083	-0.547887	-0.474284
C70	C	1.401758	-1.090844	-0.622788
N71	N	1.355270	-1.125043	-0.669235
H72	H	1.082380	-0.550979	-0.480818
C73	C	1.557206	-0.669816	-0.467279
N74	N	1.492273	-0.635628	-0.532060
C75	C	1.684097	-1.090814	-0.340838
N76	N	1.749008	-1.125005	-0.276037
H77	H	1.823549	-0.681575	-0.201360
C78	C	1.675963	-0.193073	-1.055743
N79	N	1.630479	-0.133880	-1.106285
H80	H	1.728238	-1.030061	-0.296739
H81	H	1.513080	-0.730559	-0.511388
H82	H	1.196043	-0.288882	-0.306908
C83	C	1.852411	-0.966961	-0.172695
N84	N	1.917322	-1.001152	-0.107894
C85	C	0.977421	-0.274450	-0.291627
N86	N	0.920679	-0.232522	-0.247316
H87	H	1.822142	-0.288053	-1.014019
H88	H	1.523461	-0.472291	-0.780311
C89	C	1.388887	-0.793669	-0.635429
N90	N	1.323954	-0.759481	-0.700209
