data_functionalizedCrystal
_audit_creation_method	'MofGen! by Chris Wilmer'
_symmetry_space_group_name_H-M	'P1'
_symmetry_Int_Tables_number	1
_symmetry_cell_setting	triclinic
loop_
_symmetry_equiv_pos_as_xyz
  x,y,z
_cell_length_a	16.109301
_cell_length_b	15.995292
_cell_length_c	14.586319
_cell_angle_alpha	89.999401
_cell_angle_beta	89.998857
_cell_angle_gamma	83.465100
loop_
_atom_site_label
_atom_site_type_symbol
_atom_site_fract_x
_atom_site_fract_y
_atom_site_fract_z
O1	O	1.103137	0.107628	-0.076183
O2	O	1.603137	0.607628	0.423817
O3	O	0.861076	0.121022	-0.076195
O4	O	1.361076	0.621022	0.423805
O5	O	0.988749	-0.007568	-0.076190
O6	O	1.488749	0.492432	0.423810
O7	O	0.975465	0.236218	-0.076188
O8	O	1.475465	0.736218	0.423812
O9	O	0.988740	-0.007570	0.076290
O10	O	1.488740	0.492430	0.576290
O11	O	0.861067	0.121020	0.076285
O12	O	1.361067	0.621020	0.576285
O13	O	1.103128	0.107626	0.076297
O14	O	1.603128	0.607626	0.576297
Cu15	Cu	0.982097	0.114323	0.090214
Cu16	Cu	1.482097	0.614323	0.590214
Cu17	Cu	0.982108	0.114325	-0.090112
Cu18	Cu	1.482108	0.614325	0.409888
O19	O	0.975456	0.236216	0.076292
O20	O	1.475456	0.736216	0.576292
C21	C	0.830097	0.120478	0.000043
C22	C	1.330097	0.620478	0.500043
C23	C	0.737802	0.118852	0.000038
C24	C	1.237802	0.618852	0.500038
C25	C	0.428808	0.189837	0.000055
C26	C	0.928808	0.689837	0.500055
C27	C	0.515528	0.191373	0.000050
C28	C	1.015528	0.691373	0.500050
C29	C	0.535392	0.038805	0.000036
C30	C	1.035392	0.538805	0.500036
C31	C	0.448673	0.037270	0.000035
C32	C	0.948673	0.537270	0.500035
C33	C	0.395383	0.112788	0.000049
C34	C	0.895383	0.612788	0.500049
C35	C	0.568822	0.115860	0.000045
C36	C	1.068822	0.615860	0.500045
C37	C	0.662848	0.117525	0.000039
C38	C	1.162848	0.617525	0.500039
C39	C	0.301351	0.111123	0.000053
C40	C	0.801351	0.611123	0.500053
C41	C	0.988204	-0.038764	0.000048
C42	C	1.488204	0.461236	0.500048
C43	C	0.986583	-0.131717	0.000041
C44	C	1.486583	0.368283	0.500041
C45	C	0.980624	-0.469454	0.000049
C46	C	1.480624	0.030546	0.500049
C47	C	1.072775	-0.446166	0.000394
C48	C	1.572775	0.053834	0.500394
C49	C	1.074526	-0.349491	0.000047
C50	C	1.574526	0.150509	0.500047
C51	C	0.983581	-0.301898	0.000045
C52	C	1.483581	0.198102	0.500045
C53	C	0.937515	-0.330986	-0.087028
C54	C	1.437515	0.169014	0.412972
C55	C	0.936406	-0.427776	-0.087098
C56	C	1.436406	0.072224	0.412902
C57	C	0.934514	-0.427635	0.086301
C58	C	1.434514	0.072365	0.586301
C59	C	0.937929	-0.331143	0.087449
C60	C	1.437929	0.168857	0.587449
C61	C	0.985247	-0.207203	0.000040
C62	C	1.485247	0.292797	0.500040
C63	C	0.978955	-0.564149	0.000048
C64	C	1.478955	-0.064149	0.500048
C65	C	1.134108	0.108170	0.000057
C66	C	1.634108	0.608170	0.500057
C67	C	1.226403	0.109796	0.000056
C68	C	1.726403	0.609796	0.500056
C69	C	0.976001	0.267412	0.000052
C70	C	1.476001	0.767412	0.500052
C71	C	0.977622	0.360365	0.000053
C72	C	1.477622	0.860365	0.500053
N73	N	0.982096	0.114321	0.217046
N74	N	1.482096	0.614321	0.717046
N75	N	0.982116	0.114321	-0.216944
N76	N	1.482116	0.614321	0.283056
C77	C	1.038648	0.057400	0.452054
C78	C	1.538648	0.557400	0.952054
C79	C	1.038650	0.057398	0.548036
C80	C	1.538650	0.557398	1.048036
C81	C	0.925557	0.171244	0.548041
C82	C	1.425557	0.671244	1.048041
C83	C	0.925552	0.171241	0.452061
C84	C	1.425552	0.671241	0.952061
C85	C	0.982102	0.114320	0.404071
C86	C	1.482102	0.614320	0.904071
C87	C	0.982110	0.114321	0.596031
C88	C	1.482110	0.614321	1.096031
C89	C	0.982112	0.114319	0.700099
C90	C	1.482112	0.614319	1.200099
C91	C	0.982099	0.114321	0.299997
C92	C	1.482099	0.614321	0.799997
H93	H	0.542738	0.254113	0.000054
H94	H	1.042738	0.754113	0.500054
H95	H	0.385421	0.251328	0.000066
H96	H	0.885421	0.751328	0.500066
H97	H	0.578791	-0.022679	0.000027
H98	H	1.078791	0.477321	0.500027
H99	H	0.421459	-0.025476	0.000027
H100	H	0.921459	0.474524	0.500027
C101	C	1.100849	-0.005225	0.600814
C102	C	1.600849	0.494775	1.100814
N103	N	1.147697	-0.052399	0.640565
N104	N	1.647697	0.447601	1.140565
H105	H	1.110604	-0.330477	0.062463
H106	H	1.610604	0.169523	0.562463
C107	C	1.120760	-0.484009	0.084751
C108	C	1.620760	0.015991	0.584751
N109	N	1.156903	-0.512518	0.148290
N110	N	1.656903	-0.012518	0.648290
C111	C	0.983223	-0.306047	0.174475
C112	C	1.483223	0.193953	0.674475
N113	N	1.017335	-0.287130	0.240022
N114	N	1.517335	0.212870	0.740022
C115	C	0.842883	-0.446524	0.087102
C116	C	1.342883	0.053476	0.587102
N117	N	0.773871	-0.460759	0.087700
N118	N	1.273871	0.039241	0.587700
H119	H	1.108100	-0.475193	-0.061696
H120	H	1.608100	0.024807	0.438304
C121	C	1.123559	-0.324636	-0.084423
C122	C	1.623559	0.175364	0.415577
N123	N	1.160491	-0.305915	-0.148051
N124	N	1.660491	0.194085	0.351949
C125	C	0.979528	-0.464018	-0.175021
C126	C	1.479528	0.035982	0.324979
N127	N	1.012014	-0.491312	-0.241244
N128	N	1.512014	0.008688	0.258756
H129	H	1.084693	0.011051	0.412983
H130	H	1.584693	0.511051	0.912983
H131	H	0.868840	-0.442308	-0.091044
H132	H	1.368840	0.057692	0.408956
C133	C	0.847106	-0.287904	-0.091412
C134	C	1.347106	0.212096	0.408588
N135	N	0.779010	-0.255451	-0.094712
N136	N	1.279010	0.244549	0.405288
C137	C	0.980745	-0.303905	-0.174569
C138	C	1.480745	0.196095	0.325431
N139	N	1.013312	-0.283512	-0.240503
N140	N	1.513312	0.216488	0.259497
C141	C	0.863354	0.233852	0.600839
C142	C	1.363354	0.733852	1.100839
N143	N	0.816501	0.281009	0.640607
N144	N	1.316501	0.781009	1.140607
C145	C	0.973511	-0.465816	0.175462
C146	C	1.473511	0.034184	0.675462
N147	N	1.002894	-0.494575	0.242614
N148	N	1.502894	0.005425	0.742614
H149	H	0.871547	-0.298156	0.092706
H150	H	1.371547	0.201844	0.592706
H151	H	0.879501	0.217593	0.412990
H152	H	1.379501	0.717593	0.912990
