data_functionalizedCrystal
_audit_creation_method	'MofGen! by Chris Wilmer'
_symmetry_space_group_name_H-M	'P1'
_symmetry_Int_Tables_number	1
_symmetry_cell_setting	triclinic
loop_
_symmetry_equiv_pos_as_xyz
  x,y,z
_cell_length_a	21.606444
_cell_length_b	23.196402
_cell_length_c	23.196402
_cell_angle_alpha	60.002465
_cell_angle_beta	90.000572
_cell_angle_gamma	60.001587
loop_
_atom_site_label
_atom_site_type_symbol
_atom_site_fract_x
_atom_site_fract_y
_atom_site_fract_z
Zr1	Zr	0.596238	0.631022	-0.075647
O2	O	0.497416	0.751283	-0.167689
O3	O	0.626529	0.510758	-0.047435
O4	O	0.626530	0.631023	-0.167699
O5	O	0.497418	0.631018	0.047446
O6	O	0.728379	0.631027	-0.167702
O7	O	0.497416	0.631018	-0.047425
O8	O	0.728379	0.415894	0.047429
O9	O	0.497419	0.846150	-0.167685
O10	O	0.715461	0.560228	-0.035401
O11	O	0.639453	0.560225	0.035403
O12	O	0.639454	0.701822	-0.106193
O13	O	0.563446	0.701819	-0.035389
Zr14	Zr	0.758680	0.631028	0.075655
Zr15	Zr	0.758676	0.631028	-0.075652
Zr16	Zr	0.596242	0.631022	0.075661
Zr17	Zr	0.596242	0.782324	-0.075640
Zr18	Zr	0.758676	0.479726	0.075649
O19	O	0.728389	0.751292	0.047443
O20	O	0.728383	0.751292	-0.167697
O21	O	0.497422	0.751283	0.047451
O22	O	0.857502	0.510767	0.167698
O23	O	0.857496	0.510767	-0.047442
O24	O	0.626535	0.510757	0.167706
O25	O	0.857500	0.631032	-0.047437
O26	O	0.728388	0.631027	0.167707
O27	O	0.626539	0.631023	0.167711
O28	O	0.857502	0.631032	0.047434
O29	O	0.626536	0.846156	-0.167690
O30	O	0.728382	0.415894	0.167698
O31	O	0.857499	0.415899	0.167694
O32	O	0.857496	0.415900	0.047424
O33	O	0.497422	0.846150	-0.047416
O34	O	0.626539	0.846155	-0.047420
O35	O	0.715464	0.560228	0.106201
O36	O	0.791472	0.560231	0.035398
O37	O	0.715465	0.701825	-0.035394
O38	O	0.639457	0.701822	0.035409
C39	C	0.677453	0.441769	-0.000004
C40	C	0.677452	0.377537	-0.000007
C41	C	0.474273	0.631017	0.000011
C42	C	0.405314	0.631014	0.000013
C43	C	0.717121	0.347368	-0.036968
C44	C	0.717129	0.287007	-0.036962
C45	C	0.677451	0.256829	-0.000005
C46	C	0.637780	0.287001	0.036965
C47	C	0.637780	0.347355	0.036964
C48	C	0.610993	0.194797	-0.005277
C49	C	0.610991	0.134447	-0.005281
C50	C	0.677452	0.070674	0.000002
C51	C	0.743916	0.067265	0.005276
C52	C	0.743916	0.127619	0.005275
C53	C	0.677447	0.191384	0.000001
C54	C	0.717134	-0.024946	-0.036955
C55	C	0.717143	-0.085312	-0.036944
C56	C	0.637787	-0.085310	0.036978
C57	C	0.637785	-0.024952	0.036972
C58	C	0.677456	0.005230	0.000002
C59	C	0.412589	0.557104	0.036964
C60	C	0.347792	0.557106	0.036964
C61	C	0.275720	0.631019	0.000010
C62	C	0.268446	0.704935	-0.036941
C63	C	0.333242	0.704932	-0.036937
C64	C	0.007127	0.704949	-0.036957
C65	C	-0.057671	0.704947	-0.036960
C66	C	0.021677	0.557124	0.036945
C67	C	0.086474	0.557120	0.036949
C68	C	0.079194	0.631036	0.000000
C69	C	0.149455	0.631032	0.000001
C70	C	0.205459	0.631024	0.000005
C71	C	0.880645	0.631033	-0.000003
C72	C	0.949604	0.631036	-0.000005
C73	C	0.677454	0.631025	-0.189259
C74	C	0.677452	0.631025	-0.253493
C75	C	0.677465	0.820281	0.000012
C76	C	0.677466	0.884513	0.000015
C77	C	0.621351	0.631032	-0.716331
C78	C	0.621351	0.631027	-0.655974
C79	C	0.677460	0.631030	-0.625794
C80	C	0.733585	0.631018	-0.655966
C81	C	0.733588	0.631015	-0.716319
C82	C	0.694946	0.678536	-0.553927
C83	C	0.694938	0.678543	-0.493578
C84	C	0.677455	0.631034	-0.439645
C85	C	0.659964	0.583527	-0.446074
C86	C	0.659967	0.583525	-0.506426
C87	C	0.677463	0.631032	-0.560352
C88	C	0.621337	0.631034	-0.344031
C89	C	0.621341	0.631023	-0.283669
C90	C	0.733573	0.631023	-0.283667
C91	C	0.733571	0.631025	-0.344023
C92	C	0.677449	0.631035	-0.374203
C93	C	0.677464	0.631025	0.189267
C94	C	0.677466	0.631025	0.253501
C95	C	0.880639	0.441777	-0.000011
C96	C	0.949597	0.377548	-0.000016
C97	C	0.677459	0.441768	0.189259
C98	C	0.677458	0.377537	0.253490
C99	C	0.880644	0.441777	0.189252
C100	C	0.949604	0.377547	0.253481
C101	C	0.474274	0.820273	-0.189244
C102	C	0.405314	0.884502	-0.253473
C103	C	0.474279	0.820273	0.000019
C104	C	0.405321	0.884502	0.000024
C105	C	0.677459	0.820281	-0.189251
C106	C	0.677460	0.884513	-0.253482
C107	C	0.942303	0.347383	-0.036981
C108	C	1.007090	0.287042	-0.036999
C109	C	1.079170	0.256861	-0.000049
C110	C	1.086462	0.287031	0.036917
C111	C	1.021676	0.347376	0.036931
C112	C	0.717135	0.347374	0.320617
C113	C	0.717132	0.287030	0.380975
C114	C	0.677456	0.256845	0.374205
C115	C	0.637774	0.287013	0.307072
C116	C	0.637773	0.347361	0.246715
C117	C	1.021670	0.347386	0.246685
C118	C	1.086470	0.287045	0.307029
C119	C	1.079204	0.256861	0.374169
C120	C	1.007130	0.287028	0.380964
C121	C	0.942331	0.347373	0.320620
C122	C	0.333248	0.914671	-0.246677
C123	C	0.268448	0.975031	-0.307021
C124	C	0.275714	1.005218	-0.374161
C125	C	0.347788	0.975047	-0.380955
C126	C	0.412587	0.914692	-0.320612
C127	C	0.412615	0.914673	0.036983
C128	C	0.347828	0.975031	0.036985
C129	C	0.275748	1.005214	0.000032
C130	C	0.268456	0.975041	-0.036931
C131	C	0.333242	0.914687	-0.036936
C132	C	0.717143	0.914679	-0.246690
C133	C	0.717158	0.975024	-0.307036
C134	C	0.677485	1.005206	-0.374174
C135	C	0.637800	0.975034	-0.380965
C136	C	0.637790	0.914686	-0.320619
H137	H	0.749427	0.371938	-0.067069
H138	H	0.749452	-0.109879	-0.067039
H139	H	0.779271	0.631018	-0.631390
H140	H	1.145150	0.262489	0.301485
H141	H	1.131916	0.207724	-0.000066
Cl142	Cl	0.587909	0.012979	0.083439
H143	H	1.001225	0.262444	0.435637
H144	H	0.327293	0.890124	-0.067031
Cl145	Cl	0.324094	0.797851	-0.083388
H146	H	0.779285	0.631009	-0.740881
H147	H	0.605471	0.262428	0.301570
H148	H	0.605498	0.999617	-0.435637
Cl149	Cl	0.851736	0.385277	0.329176
Cl150	Cl	0.324093	0.876734	-0.162280
Cl151	Cl	0.527437	0.138741	-0.011914
Cl152	Cl	0.177835	1.012990	-0.083378
H153	H	0.749449	0.262474	0.435631
H154	H	0.749450	0.890114	-0.192028
Cl155	Cl	1.177083	0.249078	0.083369
H156	H	0.605471	0.890132	-0.326160
H157	H	0.353781	0.999588	0.067087
Cl158	Cl	0.177851	1.012945	-0.298463
Cl159	Cl	0.194310	1.081085	0.000049
H160	H	0.605475	0.262426	0.067056
Cl161	Cl	0.767011	0.249065	-0.083424
Cl162	Cl	0.827466	0.123331	0.011908
H163	H	0.605466	0.371911	0.192060
H164	H	1.027625	0.371928	0.067036
Cl165	Cl	0.767047	1.012946	-0.298483
H166	H	1.001137	0.262485	-0.067101
Cl167	Cl	0.827473	-0.012901	0.011915
Cl168	Cl	1.030825	0.385324	0.162288
H169	H	0.575640	0.631038	-0.368602
Cl170	Cl	0.194244	1.081093	-0.450015
H171	H	0.353696	0.999633	-0.435628
H172	H	0.353723	0.496921	0.067054
H173	H	0.709181	0.717229	-0.597839
H174	H	0.749445	0.371944	0.326142
Cl175	Cl	0.677502	1.081075	-0.450031
Cl176	Cl	0.677467	0.180977	0.450090
Cl177	Cl	1.160674	0.180996	0.450024
Cl178	Cl	-0.002032	0.797871	-0.083409
H179	H	0.749440	-0.000374	-0.067056
Cl180	Cl	0.503222	0.876745	0.083439
H181	H	0.605481	-0.109881	0.067070
Cl182	Cl	0.637981	0.523799	-0.378278
H183	H	0.556864	0.246731	-0.009594
H184	H	0.471265	0.890129	-0.326154
H185	H	0.605474	0.371919	0.067062
H186	H	0.145156	0.496933	0.067038
Cl187	Cl	0.030826	0.464200	0.083398
Cl188	Cl	0.503191	0.464179	0.083419
H189	H	0.209759	0.765116	-0.067026
H190	H	0.575654	0.631037	-0.740901
Cl191	Cl	0.550799	0.631037	-0.618043
Cl192	Cl	-0.148279	0.797873	-0.083419
Cl193	Cl	0.637984	0.523801	-0.514505
H194	H	0.779261	0.631020	-0.259093
Cl195	Cl	0.550795	0.631026	-0.245739
H196	H	0.779263	0.631024	-0.368589
H197	H	0.883618	0.371956	-0.067079
Cl198	Cl	0.716911	0.738278	-0.485509
