data_functionalizedCrystal
_audit_creation_method	'MofGen! by Chris Wilmer'
_symmetry_space_group_name_H-M	'P1'
_symmetry_Int_Tables_number	1
_symmetry_cell_setting	triclinic
loop_
_symmetry_equiv_pos_as_xyz
  x,y,z
_cell_length_a	11.792241
_cell_length_b	10.868271
_cell_length_c	10.654550
_cell_angle_alpha	90.003964
_cell_angle_beta	84.339159
_cell_angle_gamma	90.000107
loop_
_atom_site_label
_atom_site_type_symbol
_atom_site_fract_x
_atom_site_fract_y
_atom_site_fract_z
O1	O	1.507306	0.102199	0.172136
O2	O	1.177006	0.102228	0.189876
O3	O	1.349750	0.102208	-0.001754
O4	O	1.334562	0.102219	0.363767
O5	O	1.349736	-0.102436	-0.001762
O6	O	1.176992	-0.102417	0.189869
O7	O	1.507292	-0.102445	0.172129
Zn8	Zn	1.342139	-0.134923	0.180998
Zn9	Zn	1.342158	0.134705	0.181007
O10	O	1.334547	-0.102426	0.363759
C11	C	1.134705	-0.000091	0.188758
C12	C	1.008684	-0.000080	0.185423
C13	C	0.777957	-0.000116	0.179290
C14	C	0.906351	-0.000096	0.182697
N15	N	1.342135	-0.318937	0.180990
C16	C	1.342152	-0.569943	0.181005
C17	C	1.342139	-0.430265	0.181000
C18	C	1.549592	-0.000124	0.173247
C19	C	1.675614	-0.000127	0.176582
C20	C	1.348628	-0.000112	-0.048553
C21	C	1.345291	-0.000108	-0.187987
N22	N	1.342172	0.318719	0.181005
C23	C	1.447000	-0.000120	-0.267760
C24	C	1.443858	-0.000111	-0.398772
C25	C	1.237290	-0.000083	-0.370224
C26	C	1.240433	-0.000083	-0.239215
C27	C	1.551859	-0.000145	-0.216532
C28	C	1.653577	-0.000159	-0.296307
C29	C	1.650435	-0.000150	-0.427319
C30	C	1.545575	-0.000128	-0.478556
C31	C	1.335670	-0.000102	0.410558
C32	C	1.339006	-0.000099	0.549992
H33	H	1.554429	-0.000156	-0.109857
C34	C	1.768914	-0.000179	-0.239957
H35	H	1.829039	-0.000172	-0.306234
H36	H	1.774429	-0.071546	-0.189451
H37	H	1.774440	0.071191	-0.189437
C38	C	1.542114	-0.000110	-0.622666
H39	H	1.465100	-0.000091	-0.641751
H40	H	1.579544	-0.071474	-0.657587
H41	H	1.579552	0.071264	-0.657560
H42	H	1.151918	-0.000066	-0.411953
H43	H	1.733258	-0.000149	-0.492268
C44	C	1.128556	-0.000071	-0.151460
H45	H	1.065656	-0.000073	-0.200731
H46	H	1.125499	0.071294	-0.099756
H47	H	1.125483	-0.071444	-0.099765
