data_functionalizedCrystal
_audit_creation_method	'MofGen! by Chris Wilmer'
_symmetry_space_group_name_H-M	'P1'
_symmetry_Int_Tables_number	1
_symmetry_cell_setting	triclinic
loop_
_symmetry_equiv_pos_as_xyz
  x,y,z
_cell_length_a	16.625546
_cell_length_b	19.077105
_cell_length_c	19.077482
_cell_angle_alpha	85.418775
_cell_angle_beta	92.186699
_cell_angle_gamma	87.718759
loop_
_atom_site_label
_atom_site_type_symbol
_atom_site_fract_x
_atom_site_fract_y
_atom_site_fract_z
Zn1	Zn	-0.391047	1.094194	-0.441839
Zn2	Zn	-0.057714	1.427527	-0.108506
Zn3	Zn	0.275620	1.760860	0.224827
Zn4	Zn	-0.520431	1.089256	-0.323947
Zn5	Zn	-0.187098	1.422589	0.009387
Zn6	Zn	0.146236	1.755922	0.342720
Zn7	Zn	-0.379976	0.971446	-0.319235
Zn8	Zn	-0.046643	1.304780	0.014098
Zn9	Zn	0.286690	1.638113	0.347431
Zn10	Zn	-0.520193	0.976271	-0.437066
Zn11	Zn	-0.186860	1.309605	-0.103733
Zn12	Zn	0.146473	1.642938	0.229601
O13	O	-0.452912	1.032792	-0.380522
O14	O	-0.119579	1.366125	-0.047188
O15	O	0.213755	1.699458	0.286145
O16	O	-0.412943	1.192193	-0.430170
O17	O	-0.079609	1.525526	-0.096836
O18	O	0.253724	1.858860	0.236497
O19	O	-0.497266	1.069542	-0.224671
O20	O	-0.163933	1.402876	0.108663
O21	O	0.169401	1.736209	0.441996
O22	O	-0.268616	0.987776	-0.335525
O23	O	0.064718	1.321110	-0.002192
O24	O	0.398051	1.654443	0.331142
O25	O	-0.508001	1.188565	-0.343555
O26	O	-0.174667	1.521899	-0.010221
O27	O	0.158666	1.855232	0.323112
O28	O	-0.276749	1.077958	-0.425602
O29	O	0.056584	1.411291	-0.092268
O30	O	0.389917	1.744625	0.241065
O31	O	-0.394074	0.982988	-0.221209
O32	O	-0.060741	1.316321	0.112124
O33	O	0.272592	1.649655	0.445457
O34	O	-0.393844	0.873432	-0.330897
O35	O	-0.060510	1.206765	0.002437
O36	O	0.272823	1.540098	0.335770
O37	O	-0.507595	0.996000	-0.536350
O38	O	-0.174262	1.329333	-0.203017
O39	O	0.159071	1.662666	0.130317
O40	O	-0.496861	0.876977	-0.417466
O41	O	-0.163527	1.210310	-0.084133
O42	O	0.169806	1.543643	0.249201
O43	O	-0.412712	1.082637	-0.539857
O44	O	-0.079379	1.415970	-0.206524
O45	O	0.253955	1.749303	0.126810
O46	O	-0.633229	1.074221	-0.338926
O47	O	-0.299895	1.407554	-0.005593
O48	O	0.033438	1.740887	0.327741
O49	O	-0.633054	0.991212	-0.422034
O50	O	-0.299721	1.324545	-0.088701
O51	O	0.033613	1.657878	0.244632
C52	C	-0.444126	0.849624	-0.373153
C53	C	-0.110792	1.182958	-0.039819
C54	C	0.222541	1.516291	0.293514
C55	C	-0.440387	0.771265	-0.370017
C56	C	-0.107054	1.104598	-0.036683
C57	C	0.226280	1.437932	0.296650
C58	C	-0.492340	0.736313	-0.413545
C59	C	-0.159007	1.069646	-0.080211
C60	C	0.174326	1.402980	0.253122
C61	C	-0.488817	0.662686	-0.410602
C62	C	-0.155484	0.996020	-0.077268
C63	C	0.177850	1.329353	0.256065
C64	C	-0.433344	0.624013	-0.364127
C65	C	-0.100010	0.957346	-0.030793
C66	C	0.233323	1.290680	0.302540
C67	C	-0.381385	0.658970	-0.320597
C68	C	-0.048052	0.992304	0.012737
C69	C	0.285282	1.325637	0.346070
C70	C	-0.384905	0.732596	-0.323544
C71	C	-0.051571	1.065929	0.009789
C72	C	0.281762	1.399262	0.343123
C73	C	-0.417053	0.403617	-0.350490
C74	C	-0.083720	0.736950	-0.017157
C75	C	0.249614	1.070284	0.316176
C76	C	-0.413539	0.329986	-0.347545
C77	C	-0.080205	0.663320	-0.014212
C78	C	0.253128	0.996653	0.319122
C79	C	-0.520970	0.333708	-0.437551
C80	C	-0.187637	0.667041	-0.104218
C81	C	0.145696	1.000374	0.229116
C82	C	-0.524489	0.407334	-0.440491
C83	C	-0.191155	0.740667	-0.107158
C84	C	0.142178	1.074001	0.226176
C85	C	-0.472527	0.442285	-0.396964
C86	C	-0.139194	0.775618	-0.063631
C87	C	0.194140	1.108952	0.269703
N88	N	-0.429743	0.548755	-0.361116
N89	N	-0.096409	0.882088	-0.027782
N90	N	0.236924	1.215421	0.305551
N91	N	-0.476125	0.517542	-0.399979
N92	N	-0.142791	0.850876	-0.066646
N93	N	0.190542	1.184209	0.266688
C94	C	-0.662398	1.032724	-0.380490
C95	C	-0.329065	1.366057	-0.047156
C96	C	0.004268	1.699390	0.286177
C97	C	-0.752022	1.032760	-0.380502
C98	C	-0.418688	1.366093	-0.047169
C99	C	-0.085355	1.699427	0.286165
C100	C	-1.080206	1.032886	-0.380580
C101	C	-0.746873	1.366219	-0.047247
C102	C	-0.413540	1.699553	0.286086
C103	C	-0.988895	1.032849	-0.380560
C104	C	-0.655562	1.366182	-0.047227
C105	C	-0.322229	1.699516	0.286106
C106	C	-0.916117	1.032823	-0.380541
C107	C	-0.582783	1.366156	-0.047207
C108	C	-0.249450	1.699489	0.286126
C109	C	-0.824800	1.032786	-0.380522
C110	C	-0.491467	1.366120	-0.047188
C111	C	-0.158133	1.699453	0.286145
C112	C	-0.242609	1.032880	-0.380570
C113	C	0.090724	1.366213	-0.047237
C114	C	0.424057	1.699546	0.286096
C115	C	-0.152991	1.032917	-0.380591
C116	C	0.180343	1.366251	-0.047258
C117	C	0.513676	1.699584	0.286076
C118	C	-0.461362	1.040407	-0.564398
C119	C	-0.128029	1.373741	-0.231065
C120	C	0.205305	1.707074	0.102269
C121	C	-0.464963	1.043652	-0.642755
C122	C	-0.131629	1.376986	-0.309422
C123	C	0.201704	1.710319	0.023912
C124	C	-0.461733	1.216674	-0.387920
C125	C	-0.128400	1.550008	-0.054587
C126	C	0.204934	1.883341	0.278747
C127	C	-0.465492	1.295034	-0.391073
C128	C	-0.132159	1.628368	-0.057740
C129	C	0.201175	1.961701	0.275594
C130	C	-0.444439	1.025246	-0.197363
C131	C	-0.111105	1.358580	0.135971
C132	C	0.222228	1.691913	0.469304
C133	C	-0.440617	1.022138	-0.119012
C134	C	-0.107284	1.355471	0.214322
C135	C	0.226050	1.688804	0.547655
C136	C	-0.492185	1.066063	-0.083982
C137	C	-0.158851	1.399396	0.249352
C138	C	0.174482	1.732730	0.582685
C139	C	-0.488599	1.063132	-0.010362
C140	C	-0.155265	1.396465	0.322971
C141	C	0.178068	1.729798	0.656305
C142	C	-0.433440	1.016278	0.028226
C143	C	-0.100107	1.349612	0.361560
C144	C	0.233226	1.682945	0.694893
C145	C	-0.381870	0.972348	-0.006808
C146	C	-0.048537	1.305682	0.326525
C147	C	0.284796	1.639015	0.659858
C148	C	-0.385461	0.975276	-0.080427
C149	C	-0.052128	1.308610	0.252907
C150	C	0.281206	1.641943	0.586240
C151	C	-0.416983	1.002651	0.248592
C152	C	-0.083650	1.335984	0.581926
C153	C	0.249683	1.669317	0.915259
C154	C	-0.413395	0.999727	0.322215
C155	C	-0.080062	1.333060	0.655549
C156	C	0.253272	1.666394	0.988882
C157	C	-0.520125	1.090510	0.318657
C158	C	-0.186792	1.423844	0.651990
C159	C	0.146542	1.757177	0.985323
C160	C	-0.523707	1.093437	0.245037
C161	C	-0.190374	1.426771	0.578370
C162	C	0.142959	1.760104	0.911704
C163	C	-0.472140	1.049505	0.210009
C164	C	-0.138807	1.382838	0.543342
C165	C	0.194526	1.716171	0.876676
N166	N	-0.429772	1.013283	0.103477
N167	N	-0.096438	1.346616	0.436811
N168	N	0.236895	1.679949	0.770144
N169	N	-0.475813	1.052497	0.134759
N170	N	-0.142480	1.385831	0.468093
N171	N	0.190853	1.719164	0.801426
H172	H	-0.374748	0.432065	-0.315042
H173	H	-0.041415	0.765398	0.018291
H174	H	0.291919	1.098731	0.351625
H175	H	-0.336963	0.934196	0.024616
H176	H	-0.003630	1.267529	0.357950
H177	H	0.329704	1.600862	0.691283
H178	H	-0.342595	0.761053	-0.288102
H179	H	-0.009261	1.094386	0.045231
H180	H	0.324072	1.427719	0.378564
C181	C	-0.552864	1.117606	-0.126422
C182	C	-0.219531	1.450939	0.206911
C183	C	0.113802	1.784272	0.540244
N184	N	-0.598572	1.156427	-0.158386
N185	N	-0.265239	1.489760	0.174947
N186	N	0.068094	1.823094	0.508280
C187	C	-0.352510	0.287447	-0.296417
C188	C	-0.019177	0.620780	0.036916
C189	C	0.314157	0.954114	0.370249
N190	N	-0.306547	0.255406	-0.257909
N191	N	0.026787	0.588740	0.075424
N192	N	0.360120	0.922073	0.408758
H193	H	-0.563274	0.305243	-0.472989
H194	H	-0.229940	0.638576	-0.139656
H195	H	0.103393	0.971909	0.193677
C196	C	-0.545290	1.111487	0.028166
C197	C	-0.211957	1.444821	0.361499
C198	C	0.121376	1.778154	0.694832
N199	N	-0.587980	1.147923	0.057184
N200	N	-0.254647	1.481256	0.390517
N201	N	0.078687	1.814589	0.723850
C202	C	-0.328730	0.926957	-0.118959
C203	C	0.004603	1.260290	0.214374
C204	C	0.337936	1.593623	0.547708
N205	N	-0.286000	0.890560	-0.147981
N206	N	0.047334	1.223893	0.185353
N207	N	0.380667	1.557226	0.518686
C208	C	-0.584389	1.144977	0.202595
C209	C	-0.251056	1.478310	0.535929
C210	C	0.082278	1.811643	0.869262
N211	N	-0.630095	1.183798	0.170628
N212	N	-0.296762	1.517131	0.503962
N213	N	0.036572	1.850464	0.837295
H214	H	-0.569663	0.438817	-0.478335
H215	H	-0.236329	0.772150	-0.145001
H216	H	0.097004	1.105484	0.188332
H217	H	-0.537515	0.767796	-0.451388
H218	H	-0.204182	1.101129	-0.118054
H219	H	0.129151	1.434462	0.215279
H220	H	-0.368473	0.961574	0.353632
H221	H	-0.035140	1.294908	0.686965
H222	H	0.298194	1.628241	1.020299
H223	H	-0.562109	1.126277	0.347185
H224	H	-0.228775	1.459610	0.680518
H225	H	0.104558	1.792944	1.013851
H226	H	-0.531124	0.634232	-0.446046
H227	H	-0.197791	0.967565	-0.112713
H228	H	0.135543	1.300898	0.220620
H229	H	-0.336214	0.627477	-0.282759
H230	H	-0.002881	0.960810	0.050575
H231	H	0.330453	1.294143	0.383908
H232	H	-0.374995	0.966876	0.220081
H233	H	-0.041662	1.300210	0.553415
H234	H	0.291672	1.633543	0.886748
