data_functionalizedCrystal
_audit_creation_method	'MofGen! by Chris Wilmer'
_symmetry_space_group_name_H-M	'P1'
_symmetry_Int_Tables_number	1
_symmetry_cell_setting	triclinic
loop_
_symmetry_equiv_pos_as_xyz
  x,y,z
_cell_length_a	15.995300
_cell_length_b	16.098524
_cell_length_c	17.019448
_cell_angle_alpha	89.196975
_cell_angle_beta	83.437365
_cell_angle_gamma	93.066695
loop_
_atom_site_label
_atom_site_type_symbol
_atom_site_fract_x
_atom_site_fract_y
_atom_site_fract_z
O1	O	1.113878	0.061817	0.104297
O2	O	1.447211	0.395150	0.437630
O3	O	1.780545	0.728484	0.770964
O4	O	0.870039	0.060913	0.116853
O5	O	1.203373	0.394246	0.450186
O6	O	1.536706	0.727579	0.783520
O7	O	0.999146	0.069558	-0.003883
O8	O	1.332480	0.402891	0.329451
O9	O	1.665813	0.736224	0.662784
O10	O	0.984771	0.053172	0.225033
O11	O	1.318104	0.386505	0.558366
O12	O	1.651437	0.719838	0.891700
O13	O	0.992479	-0.068506	-0.010162
O14	O	1.325813	0.264827	0.323172
O15	O	1.659146	0.598160	0.656505
O16	O	0.863372	-0.077152	0.110574
O17	O	1.196705	0.256182	0.443908
O18	O	1.530039	0.589515	0.777241
O19	O	1.107211	-0.076247	0.098018
O20	O	1.440544	0.257086	0.431352
O21	O	1.773878	0.590419	0.764685
Zn22	Zn	0.984233	-0.098620	0.103299
Zn23	Zn	1.317566	0.234713	0.436633
Zn24	Zn	1.650900	0.568047	0.769966
Zn25	Zn	0.993017	0.083285	0.111572
Zn26	Zn	1.326351	0.416619	0.444905
Zn27	Zn	1.659684	0.749952	0.778239
O28	O	0.978104	-0.084892	0.218754
O29	O	1.311437	0.248441	0.552087
O30	O	1.644770	0.581774	0.885421
C31	C	0.835513	-0.008084	0.113202
C32	C	1.168846	0.325250	0.446535
C33	C	1.502179	0.658583	0.779868
C34	C	0.742567	-0.007976	0.111666
C35	C	1.075900	0.325358	0.444999
C36	C	1.409234	0.658691	0.778333
N37	N	0.978244	-0.222766	0.097653
N38	N	1.311577	0.110568	0.430986
N39	N	1.644911	0.443901	0.764320
C40	C	0.572397	-0.007766	0.108831
C41	C	0.905730	0.325567	0.442164
C42	C	1.239064	0.658900	0.775498
C43	C	0.524538	-0.013922	0.194798
C44	C	0.857871	0.319412	0.528131
C45	C	1.191204	0.652745	0.861464
C46	C	0.427872	-0.013494	0.193244
C47	C	0.761206	0.319839	0.526577
C48	C	1.094539	0.653173	0.859910
C49	C	0.404853	-0.007561	0.106041
C50	C	0.738187	0.325772	0.439374
C51	C	1.071520	0.659105	0.772707
C52	C	0.449981	0.074178	0.066968
C53	C	0.783315	0.407511	0.400301
C54	C	1.116648	0.740844	0.733635
C55	C	0.546608	0.074086	0.069146
C56	C	0.879941	0.407419	0.402480
C57	C	1.213274	0.740753	0.735813
C58	C	0.539311	-0.082833	0.060733
C59	C	0.872644	0.250500	0.394066
C60	C	1.205977	0.583833	0.727400
C61	C	0.442316	-0.083866	0.060694
C62	C	0.775650	0.249468	0.394027
C63	C	1.108983	0.582801	0.727361
C64	C	0.310166	-0.007442	0.104459
C65	C	0.643499	0.325891	0.437792
C66	C	0.976832	0.659224	0.771126
C67	C	0.667086	-0.007880	0.110410
C68	C	1.000419	0.325454	0.443744
C69	C	1.333752	0.658787	0.777077
C70	C	1.026711	-0.269620	0.143386
C71	C	1.360045	0.063714	0.476719
C72	C	1.693378	0.397047	0.810052
C73	C	1.022533	-0.356526	0.139431
C74	C	1.355867	-0.023193	0.472764
C75	C	1.689200	0.310141	0.806097
C76	C	0.969883	-0.396577	0.089747
C77	C	1.303216	-0.063244	0.423080
C78	C	1.636549	0.270090	0.756413
C79	C	0.921414	-0.349716	0.044009
C80	C	1.254747	-0.016383	0.377342
C81	C	1.588080	0.316950	0.710675
C82	C	0.925597	-0.262811	0.047960
C83	C	1.258930	0.070522	0.381293
C84	C	1.592264	0.403855	0.714627
C85	C	0.954727	-0.658803	0.075425
C86	C	1.288060	-0.325470	0.408759
C87	C	1.621394	0.007863	0.742092
C88	C	0.950545	-0.745715	0.071479
C89	C	1.283879	-0.412381	0.404813
C90	C	1.617212	-0.079048	0.738146
C91	C	1.051667	-0.752518	0.166901
C92	C	1.385000	-0.419185	0.500234
C93	C	1.718333	-0.085851	0.833567
C94	C	1.055841	-0.665611	0.170851
C95	C	1.389175	-0.332278	0.504185
C96	C	1.722508	0.001055	0.837518
C97	C	1.007376	-0.618758	0.125110
C98	C	1.340709	-0.285425	0.458444
C99	C	1.674042	0.047908	0.791777
C100	C	0.965609	-0.485409	0.085705
C101	C	1.298942	-0.152076	0.419038
C102	C	1.632275	0.181258	0.752371
C103	C	1.011655	-0.529927	0.129149
C104	C	1.344988	-0.196594	0.462482
C105	C	1.678321	0.136739	0.795815
C106	C	1.141738	-0.007249	0.101670
C107	C	1.475071	0.326084	0.435003
C108	C	1.808404	0.659417	0.768336
C109	C	1.234684	-0.007352	0.103206
C110	C	1.568017	0.325981	0.436539
C111	C	1.901350	0.659315	0.769872
C112	C	0.995396	0.002624	-0.036315
C113	C	1.328729	0.335957	0.297018
C114	C	1.662063	0.669291	0.630352
C115	C	0.994144	0.008877	-0.123598
C116	C	1.327477	0.342210	0.209735
C117	C	1.660811	0.675544	0.543069
N118	N	0.999013	0.207431	0.117212
N119	N	1.332346	0.540765	0.450545
N120	N	1.665679	0.874098	0.783879
C121	C	0.987325	0.048108	-0.617087
C122	C	1.320658	0.381441	-0.283754
C123	C	1.653992	0.714774	0.049580
C124	C	0.988493	0.042215	-0.535075
C125	C	1.321826	0.375549	-0.201742
C126	C	1.655159	0.708882	0.131592
C127	C	0.985436	-0.035990	-0.497507
C128	C	1.318769	0.297344	-0.164174
C129	C	1.652102	0.630677	0.169160
C130	C	0.981219	-0.108307	-0.541957
C131	C	1.314553	0.225026	-0.208624
C132	C	1.647886	0.558360	0.124710
C133	C	0.980058	-0.102414	-0.623968
C134	C	1.313391	0.230919	-0.290635
C135	C	1.646724	0.564253	0.042699
C136	C	0.988766	-0.057547	-0.250059
C137	C	1.322099	0.275786	0.083274
C138	C	1.655433	0.609119	0.416608
C139	C	0.989925	-0.063435	-0.168041
C140	C	1.323259	0.269898	0.165292
C141	C	1.656592	0.603232	0.498625
C142	C	0.997200	0.087088	-0.161165
C143	C	1.330534	0.420421	0.172168
C144	C	1.663867	0.753755	0.505501
C145	C	0.996033	0.092974	-0.243178
C146	C	1.329367	0.426308	0.090156
C147	C	1.662700	0.759641	0.423489
C148	C	0.991822	0.020657	-0.287621
C149	C	1.325155	0.353990	0.045712
C150	C	1.658488	0.687323	0.379046
C151	C	0.986626	-0.042014	-0.413677
C152	C	1.319960	0.291319	-0.080344
C153	C	1.653293	0.624653	0.252989
C154	C	0.990637	0.026682	-0.371450
C155	C	1.323970	0.360016	-0.038116
C156	C	1.657304	0.693349	0.295217
C157	C	0.981854	-0.017957	0.251186
C158	C	1.315188	0.315376	0.584520
C159	C	1.648521	0.648710	0.917853
C160	C	0.983107	-0.024204	0.338470
C161	C	1.316440	0.309129	0.671803
C162	C	1.649773	0.642462	1.005136
H163	H	0.396532	-0.072285	0.224192
H164	H	0.729866	0.261048	0.557526
H165	H	1.063199	0.594381	0.890859
Cl166	Cl	0.991162	0.146428	-0.664306
Cl167	Cl	1.324496	0.479761	-0.330972
Cl168	Cl	1.657829	0.813094	0.002361
H169	H	0.436305	0.081469	0.003027
H170	H	0.769639	0.414802	0.336360
H171	H	1.102972	0.748135	0.669693
Cl172	Cl	0.999879	0.191293	-0.290400
Cl173	Cl	1.333212	0.524626	0.042934
Cl174	Cl	1.666546	0.857960	0.376267
Cl175	Cl	0.977381	-0.206623	-0.494729
Cl176	Cl	1.310714	0.126711	-0.161396
Cl177	Cl	1.644048	0.460044	0.171937
H178	H	0.878549	-0.382332	0.003551
H179	H	1.211882	-0.048999	0.336884
H180	H	1.545215	0.284334	0.670217
Cl181	Cl	1.077845	-0.479576	0.191604
Cl182	Cl	1.411178	-0.146243	0.524937
Cl183	Cl	1.744511	0.187091	0.858270
H184	H	1.098718	-0.633008	0.211307
H185	H	1.432051	-0.299675	0.544640
H186	H	1.765384	0.033659	0.877974
Cl187	Cl	1.112593	-0.811423	0.224398
Cl188	Cl	1.445926	-0.478090	0.557732
Cl189	Cl	1.779259	-0.144757	0.891065
H190	H	0.907667	-0.778321	0.031021
H191	H	1.241000	-0.444988	0.364354
H192	H	1.574333	-0.111655	0.697687
H193	H	0.579332	0.081967	0.006173
H194	H	0.912665	0.415300	0.339507
H195	H	1.245999	0.748633	0.672840
H196	H	0.412023	-0.144308	0.089193
H197	H	0.745356	0.189025	0.422526
H198	H	1.078690	0.522358	0.755859
Cl199	Cl	0.974759	-0.193325	-0.679841
Cl200	Cl	1.308093	0.140009	-0.346508
Cl201	Cl	1.641426	0.473342	-0.013174
Cl202	Cl	1.083465	-0.415425	0.196928
Cl203	Cl	1.416798	-0.082091	0.530261
Cl204	Cl	1.750132	0.251242	0.863595
Cl205	Cl	0.549177	-0.104494	0.244408
Cl206	Cl	0.882511	0.228840	0.577742
Cl207	Cl	1.215844	0.562173	0.911075
H208	H	0.424300	0.130863	0.098882
H209	H	0.757634	0.464196	0.432215
H210	H	1.090967	0.797530	0.765548
Cl211	Cl	0.566312	-0.178070	0.100241
Cl212	Cl	0.899645	0.155263	0.433574
Cl213	Cl	1.232978	0.488596	0.766908
H214	H	0.915263	-0.620666	0.038179
H215	H	1.248596	-0.287332	0.371513
H216	H	1.581929	0.046001	0.704846
Cl217	Cl	0.418709	-0.084542	-0.037799
Cl218	Cl	0.752043	0.248791	0.295534
Cl219	Cl	1.085376	0.582124	0.628868
Cl220	Cl	0.588785	-0.077010	-0.037171
Cl221	Cl	0.922118	0.256323	0.296163
Cl222	Cl	1.255451	0.589656	0.629496
H223	H	0.546711	0.039984	0.231393
H224	H	0.880045	0.373317	0.564726
H225	H	1.213378	0.706650	0.898059
Cl226	Cl	1.002513	0.177995	-0.105292
Cl227	Cl	1.335846	0.511329	0.228041
Cl228	Cl	1.669180	0.844662	0.561375
Cl229	Cl	0.982779	-0.140326	-0.366442
Cl230	Cl	1.316112	0.193007	-0.033109
Cl231	Cl	1.649446	0.526340	0.300225
H232	H	0.886129	-0.224664	0.010720
H233	H	1.219463	0.108670	0.344053
H234	H	1.552796	0.442003	0.677386
H235	H	0.991929	0.101100	-0.498892
H236	H	1.325263	0.434433	-0.165559
H237	H	1.658596	0.767766	0.167774
Cl238	Cl	0.899414	-0.535767	0.023253
Cl239	Cl	1.232748	-0.202433	0.356586
Cl240	Cl	1.566081	0.130900	0.689919
Cl241	Cl	1.092903	-0.219279	0.205850
Cl242	Cl	1.426236	0.114055	0.539184
Cl243	Cl	1.759570	0.447388	0.872517
H244	H	0.987411	-0.127122	-0.137454
H245	H	1.320744	0.206211	0.195880
H246	H	1.654077	0.539544	0.529213
H247	H	0.985338	-0.116434	-0.286235
H248	H	1.318671	0.216900	0.047098
H249	H	1.652004	0.550233	0.380432
Cl250	Cl	0.994486	0.124994	-0.418680
Cl251	Cl	1.327819	0.458327	-0.085346
Cl252	Cl	1.661153	0.791660	0.247987
Cl253	Cl	0.388866	0.070414	0.248744
Cl254	Cl	0.722199	0.403747	0.582077
Cl255	Cl	1.055532	0.737081	0.915410
H256	H	0.567637	0.130927	0.102570
H257	H	0.900970	0.464261	0.435903
H258	H	1.234304	0.797594	0.769237
