data_functionalizedCrystal
_audit_creation_method	'MofGen! by Chris Wilmer'
_symmetry_space_group_name_H-M	'P1'
_symmetry_Int_Tables_number	1
_symmetry_cell_setting	triclinic
loop_
_symmetry_equiv_pos_as_xyz
  x,y,z
_cell_length_a	18.101398
_cell_length_b	21.295417
_cell_length_c	18.101390
_cell_angle_alpha	90.036014
_cell_angle_beta	90.010099
_cell_angle_gamma	90.025259
loop_
_atom_site_label
_atom_site_type_symbol
_atom_site_fract_x
_atom_site_fract_y
_atom_site_fract_z
Zn1	Zn	1.132131	-0.250660	0.418535
Zn2	Zn	1.382131	-0.000660	0.668535
Zn3	Zn	1.632131	0.249340	0.918535
Zn4	Zn	1.882131	0.499340	1.168535
Zn5	Zn	1.132029	-0.355940	0.294686
Zn6	Zn	1.382029	-0.105940	0.544686
Zn7	Zn	1.632029	0.144060	0.794686
Zn8	Zn	1.882029	0.394060	1.044686
Zn9	Zn	1.008289	-0.250680	0.294727
Zn10	Zn	1.258289	-0.000680	0.544727
Zn11	Zn	1.508289	0.249320	0.794727
Zn12	Zn	1.758289	0.499320	1.044727
Zn13	Zn	1.008243	-0.355887	0.418507
Zn14	Zn	1.258243	-0.105887	0.668507
Zn15	Zn	1.508243	0.144113	0.918507
Zn16	Zn	1.758243	0.394113	1.168507
O17	O	1.070173	-0.303292	0.356614
O18	O	1.320173	-0.053292	0.606614
O19	O	1.570173	0.196708	0.856614
O20	O	1.820173	0.446708	1.106614
O21	O	1.235750	-0.264639	0.402101
O22	O	1.485750	-0.014639	0.652101
O23	O	1.735750	0.235361	0.902101
O24	O	1.985750	0.485361	1.152101
O25	O	1.115591	-0.342008	0.191059
O26	O	1.365591	-0.092008	0.441059
O27	O	1.615591	0.157992	0.691059
O28	O	1.865591	0.407992	0.941059
O29	O	1.024778	-0.162588	0.311179
O30	O	1.274778	0.087412	0.561179
O31	O	1.524778	0.337412	0.811179
O32	O	1.774778	0.587412	1.061179
O33	O	1.235675	-0.341988	0.311110
O34	O	1.485675	-0.091988	0.561110
O35	O	1.735675	0.158012	0.811110
O36	O	1.985675	0.408012	1.061110
O37	O	1.115765	-0.162573	0.402140
O38	O	1.365765	0.087427	0.652140
O39	O	1.615765	0.337427	0.902140
O40	O	1.865765	0.587427	1.152140
O41	O	1.024680	-0.264674	0.191089
O42	O	1.274680	-0.014674	0.441089
O43	O	1.524680	0.235326	0.691089
O44	O	1.774680	0.485326	0.941089
O45	O	0.904650	-0.264623	0.311152
O46	O	1.154650	-0.014623	0.561152
O47	O	1.404650	0.235377	0.811152
O48	O	1.654650	0.485377	1.061152
O49	O	1.024701	-0.341898	0.522143
O50	O	1.274701	-0.091898	0.772143
O51	O	1.524701	0.158102	1.022143
O52	O	1.774701	0.408102	1.272143
O53	O	0.904617	-0.341918	0.402092
O54	O	1.154617	-0.091918	0.652092
O55	O	1.404617	0.158082	0.902092
O56	O	1.654617	0.408082	1.152092
O57	O	1.115720	-0.264588	0.522164
O58	O	1.365720	-0.014588	0.772164
O59	O	1.615720	0.235412	1.022164
O60	O	1.865720	0.485412	1.272164
O61	O	1.115547	-0.444022	0.311083
O62	O	1.365547	-0.194022	0.561083
O63	O	1.615547	0.055978	0.811083
O64	O	1.865547	0.305978	1.061083
O65	O	1.024602	-0.443983	0.402053
O66	O	1.274602	-0.193983	0.652053
O67	O	1.524602	0.056017	0.902053
O68	O	1.774602	0.306017	1.152053
C69	C	0.877762	-0.303267	0.356624
C70	C	1.127762	-0.053267	0.606624
C71	C	1.377762	0.196733	0.856624
C72	C	1.627762	0.446733	1.106624
C73	C	0.795448	-0.303272	0.356646
C74	C	1.045448	-0.053272	0.606646
C75	C	1.295448	0.196728	0.856646
C76	C	1.545448	0.446728	1.106646
C77	C	0.496357	-0.303309	0.356615
C78	C	0.746357	-0.053309	0.606615
C79	C	0.996357	0.196691	0.856615
C80	C	1.246357	0.446691	1.106615
C81	C	0.527686	-0.352176	0.413550
C82	C	0.777686	-0.102176	0.663550
C83	C	1.027686	0.147824	0.913550
C84	C	1.277686	0.397824	1.163550
C85	C	0.613305	-0.352023	0.413784
C86	C	0.863305	-0.102023	0.663784
C87	C	1.113305	0.147977	0.913784
C88	C	1.363305	0.397977	1.163784
C89	C	0.644740	-0.303291	0.356630
C90	C	0.894740	-0.053291	0.606630
C91	C	1.144740	0.196709	0.856630
C92	C	1.394740	0.446709	1.106630
C93	C	0.613684	-0.236986	0.377962
C94	C	0.863684	0.013014	0.627962
C95	C	1.113684	0.263014	0.877962
C96	C	1.363684	0.513014	1.127962
C97	C	0.528039	-0.237280	0.378367
C98	C	0.778039	0.012720	0.628367
C99	C	1.028039	0.262720	0.878367
C100	C	1.278039	0.512720	1.128367
C101	C	0.527905	-0.320162	0.278211
C102	C	0.777905	-0.070162	0.528211
C103	C	1.027905	0.179838	0.778211
C104	C	1.277905	0.429838	1.028211
C105	C	0.613555	-0.321616	0.278630
C106	C	0.863555	-0.071616	0.528630
C107	C	1.113555	0.178384	0.778630
C108	C	1.363555	0.428384	1.028630
C109	C	0.728599	-0.303277	0.356638
C110	C	0.978599	-0.053277	0.606638
C111	C	1.228599	0.196723	0.856638
C112	C	1.478599	0.446723	1.106638
C113	C	0.412498	-0.303318	0.356610
C114	C	0.662498	-0.053318	0.606610
C115	C	0.912498	0.196682	0.856610
C116	C	1.162498	0.446682	1.106610
C117	C	1.070079	-0.466843	0.356576
C118	C	1.320079	-0.216843	0.606576
C119	C	1.570079	0.033157	0.856576
C120	C	1.820079	0.283157	1.106576
C121	C	1.070106	-0.536812	0.356585
C122	C	1.320106	-0.286812	0.606585
C123	C	1.570106	-0.036812	0.856585
C124	C	1.820106	0.213188	1.106585
C125	C	1.117455	-0.569613	0.403982
C126	C	1.367455	-0.319613	0.653982
C127	C	1.617455	-0.069613	0.903982
C128	C	1.867455	0.180387	1.153982
C129	C	1.117481	-0.635356	0.404000
C130	C	1.367481	-0.385356	0.654000
C131	C	1.617481	-0.135356	0.904000
C132	C	1.867481	0.114644	1.154000
C133	C	1.070166	-0.668294	0.356608
C134	C	1.320166	-0.418294	0.606608
C135	C	1.570166	-0.168294	0.856608
C136	C	1.820166	0.081706	1.106608
C137	C	1.022807	-0.635485	0.309208
C138	C	1.272807	-0.385485	0.559208
C139	C	1.522807	-0.135485	0.809208
C140	C	1.772807	0.114515	1.059208
C141	C	1.022777	-0.569743	0.309196
C142	C	1.272777	-0.319743	0.559196
C143	C	1.522777	-0.069743	0.809196
C144	C	1.772777	0.180257	1.059196
N145	N	1.064573	-0.771561	0.291797
N146	N	1.314573	-0.521561	0.541797
N147	N	1.564573	-0.271561	0.791797
N148	N	1.814573	-0.021561	1.041797
N149	N	1.064605	-0.834012	0.291810
N150	N	1.314605	-0.584012	0.541810
N151	N	1.564605	-0.334012	0.791810
N152	N	1.814605	-0.084012	1.041810
C153	C	1.070253	-0.866369	0.356642
C154	C	1.320253	-0.616369	0.606642
C155	C	1.570253	-0.366369	0.856642
C156	C	1.820253	-0.116369	1.106642
N157	N	1.075880	-0.833915	0.421461
N158	N	1.325880	-0.583915	0.671461
N159	N	1.575880	-0.333915	0.921461
N160	N	1.825880	-0.083915	1.171461
N161	N	1.075851	-0.771457	0.421447
N162	N	1.325851	-0.521457	0.671447
N163	N	1.575851	-0.271457	0.921447
N164	N	1.825851	-0.021457	1.171447
C165	C	1.070193	-0.739579	0.356616
C166	C	1.320193	-0.489579	0.606616
C167	C	1.570193	-0.239579	0.856616
C168	C	1.820193	0.010421	1.106616
C169	C	1.117633	-0.970456	0.404063
C170	C	1.367633	-0.720456	0.654063
C171	C	1.617633	-0.470456	0.904063
C172	C	1.867633	-0.220456	1.154063
C173	C	1.117654	-1.036200	0.404082
C174	C	1.367654	-0.786200	0.654082
C175	C	1.617654	-0.536200	0.904082
C176	C	1.867654	-0.286200	1.154082
C177	C	1.022984	-1.036327	0.309283
C178	C	1.272984	-0.786327	0.559283
C179	C	1.522984	-0.536327	0.809283
C180	C	1.772984	-0.286327	1.059283
C181	C	1.022959	-0.970585	0.309270
C182	C	1.272959	-0.720585	0.559270
C183	C	1.522959	-0.470585	0.809270
C184	C	1.772959	-0.220585	1.059270
C185	C	1.070287	-0.937653	0.356659
C186	C	1.320287	-0.687653	0.606659
C187	C	1.570287	-0.437653	0.856659
C188	C	1.820287	-0.187653	1.106659
C189	C	1.263335	-0.303317	0.356604
C190	C	1.513335	-0.053317	0.606604
C191	C	1.763335	0.196683	0.856604
C192	C	2.013335	0.446683	1.106604
C193	C	1.345649	-0.303328	0.356600
C194	C	1.595649	-0.053328	0.606600
C195	C	1.845649	0.196672	0.856600
C196	C	2.095649	0.446672	1.106600
C197	C	1.070217	-0.303234	0.549776
C198	C	1.320217	-0.053234	0.799776
C199	C	1.570217	0.196766	1.049776
C200	C	1.820217	0.446766	1.299776
C201	C	1.070236	-0.303210	0.632090
C202	C	1.320236	-0.053210	0.882090
C203	C	1.570236	0.196790	1.132090
C204	C	1.820236	0.446790	1.382090
C205	C	1.070288	-0.139102	0.356668
C206	C	1.320288	0.110898	0.606668
C207	C	1.570288	0.360898	0.856668
C208	C	1.820288	0.610898	1.106668
C209	C	1.070337	-0.069133	0.356690
C210	C	1.320337	0.180867	0.606690
C211	C	1.570337	0.430867	0.856690
C212	C	1.820337	0.680867	1.106690
C213	C	1.070172	-0.303304	0.164203
C214	C	1.320172	-0.053304	0.414203
C215	C	1.570172	0.196696	0.664203
C216	C	1.820172	0.446696	0.914203
C217	C	1.070297	-0.303151	0.081890
C218	C	1.320297	-0.053151	0.331890
C219	C	1.570297	0.196849	0.581890
C220	C	1.820297	0.446849	0.831890
C221	C	1.070276	-0.303171	0.931181
C222	C	1.320276	-0.053171	1.181181
C223	C	1.570276	0.196829	1.431181
C224	C	1.820276	0.446829	1.681181
C225	C	1.127731	-0.254701	0.899869
C226	C	1.377731	-0.004701	1.149869
C227	C	1.627731	0.245299	1.399869
C228	C	1.877731	0.495299	1.649869
C229	C	1.127552	-0.254521	0.814250
C230	C	1.377552	-0.004521	1.064250
C231	C	1.627552	0.245479	1.314250
C232	C	1.877552	0.495479	1.564250
C233	C	1.070257	-0.303190	0.782798
C234	C	1.320257	-0.053190	1.032798
C235	C	1.570257	0.196810	1.282798
C236	C	1.820257	0.446810	1.532798
C237	C	0.992239	-0.285162	0.813886
C238	C	1.242239	-0.035162	1.063886
C239	C	1.492239	0.214838	1.313886
C240	C	1.742239	0.464838	1.563886
C241	C	0.992583	-0.284799	0.899531
C242	C	1.242583	-0.034799	1.149531
C243	C	1.492583	0.215201	1.399531
C244	C	1.742583	0.465201	1.649531
C245	C	1.090150	-0.369794	0.899586
C246	C	1.340150	-0.119794	1.149586
C247	C	1.590150	0.130206	1.399586
C248	C	1.840150	0.380206	1.649586
C249	C	1.091863	-0.369454	0.813935
C250	C	1.341863	-0.119454	1.063935
C251	C	1.591863	0.130546	1.313935
C252	C	1.841863	0.380546	1.563935
C253	C	1.070241	-0.303202	0.698939
C254	C	1.320241	-0.053202	0.948939
C255	C	1.570241	0.196798	1.198939
C256	C	1.820241	0.446798	1.448939
C257	C	1.070286	-0.303157	1.015041
C258	C	1.320286	-0.053157	1.265041
C259	C	1.570286	0.196843	1.515041
C260	C	1.820286	0.446843	1.765041
H261	H	0.508077	-0.222986	0.435684
H262	H	0.758077	0.027014	0.685684
H263	H	1.008077	0.277014	0.935684
H264	H	1.258077	0.527014	1.185684
H265	H	1.156033	-0.662068	0.442605
H266	H	1.406033	-0.412068	0.692605
H267	H	1.656033	-0.162068	0.942605
H268	H	1.906033	0.087932	1.192605
H269	H	0.506176	-0.341166	0.471306
H270	H	0.756176	-0.091166	0.721306
H271	H	1.006176	0.158834	0.971306
H272	H	1.256176	0.408834	1.221306
H273	H	0.984281	-0.662307	0.270623
H274	H	1.234281	-0.412307	0.520623
H275	H	1.484281	-0.162307	0.770623
H276	H	1.734281	0.087693	1.020623
H277	H	0.634954	-0.288609	0.233931
H278	H	0.884954	-0.038609	0.483931
H279	H	1.134954	0.211391	0.733931
H280	H	1.384954	0.461391	0.983931
Cl281	Cl	0.496623	-0.265210	0.212715
Cl282	Cl	0.746623	-0.015210	0.462715
Cl283	Cl	0.996623	0.234790	0.712715
Cl284	Cl	1.246623	0.484790	0.962715
Cl285	Cl	0.963247	-0.528505	0.249607
Cl286	Cl	1.213247	-0.278505	0.499607
Cl287	Cl	1.463247	-0.028505	0.749607
Cl288	Cl	1.713247	0.221495	0.999607
H289	H	0.975084	-0.237002	0.792454
H290	H	1.225084	0.012998	1.042454
H291	H	1.475084	0.262998	1.292454
H292	H	1.725084	0.512998	1.542454
Cl293	Cl	1.177127	-0.929053	0.463639
Cl294	Cl	1.427127	-0.679053	0.713639
Cl295	Cl	1.677127	-0.429053	0.963639
Cl296	Cl	1.927127	-0.179053	1.213639
Cl297	Cl	1.177175	-1.077437	0.463682
Cl298	Cl	1.427175	-0.827437	0.713682
Cl299	Cl	1.677175	-0.577437	0.963682
Cl300	Cl	1.927175	-0.327437	1.213682
Cl301	Cl	0.963498	-1.077729	0.249706
Cl302	Cl	1.213498	-0.827729	0.499706
Cl303	Cl	1.463498	-0.577729	0.749706
Cl304	Cl	1.713498	-0.327729	0.999706
H305	H	0.634301	-0.401191	0.400413
H306	H	0.884301	-0.151191	0.650413
H307	H	1.134301	0.098809	0.900413
H308	H	1.384301	0.348809	1.150413
Cl309	Cl	0.963431	-0.929346	0.249681
Cl310	Cl	1.213431	-0.679346	0.499681
Cl311	Cl	1.463431	-0.429346	0.749681
Cl312	Cl	1.713431	-0.179346	0.999681
H313	H	1.185404	-0.265811	0.793232
H314	H	1.435404	-0.015811	1.043232
H315	H	1.685404	0.234189	1.293232
H316	H	1.935404	0.484189	1.543232
H317	H	0.948269	-0.319378	0.793512
H318	H	1.198269	-0.069378	1.043512
H319	H	1.448269	0.180622	1.293512
H320	H	1.698269	0.430622	1.543512
H321	H	1.155991	-0.542802	0.442571
H322	H	1.405991	-0.292802	0.692571
H323	H	1.655991	-0.042802	0.942571
H324	H	1.905991	0.207198	1.192571
Cl325	Cl	0.496040	-0.179161	0.317139
Cl326	Cl	0.746040	0.070839	0.567139
Cl327	Cl	0.996040	0.320839	0.817139
Cl328	Cl	1.246040	0.570839	1.067139
H329	H	0.633860	-0.370407	0.262542
H330	H	0.883860	-0.120407	0.512542
H331	H	1.133860	0.129593	0.762542
H332	H	1.383860	0.379593	1.012542
Cl333	Cl	1.217345	-0.271911	0.931664
Cl334	Cl	1.467345	-0.021911	1.181664
Cl335	Cl	1.717345	0.228089	1.431664
Cl336	Cl	1.967345	0.478089	1.681664
Cl337	Cl	1.107681	-0.178923	0.933128
Cl338	Cl	1.357681	0.071077	1.183128
Cl339	Cl	1.607681	0.321077	1.433128
Cl340	Cl	1.857681	0.571077	1.683128
Cl341	Cl	1.107239	-0.178320	0.782645
Cl342	Cl	1.357239	0.071680	1.032645
Cl343	Cl	1.607239	0.321680	1.282645
Cl344	Cl	1.857239	0.571680	1.532645
H345	H	0.975735	-0.236098	0.919528
H346	H	1.225735	0.013902	1.169528
H347	H	1.475735	0.263902	1.419528
H348	H	1.725735	0.513902	1.669528
Cl349	Cl	0.495855	-0.428338	0.393146
Cl350	Cl	0.745855	-0.178338	0.643146
Cl351	Cl	0.995855	0.071662	0.893146
Cl352	Cl	1.245855	0.321662	1.143146
H353	H	0.633807	-0.340871	0.471876
H354	H	0.883807	-0.090871	0.721876
H355	H	1.133807	0.159129	0.971876
H356	H	1.383807	0.409129	1.221876
Cl357	Cl	0.924233	-0.336921	0.931514
Cl358	Cl	1.174233	-0.086921	1.181514
Cl359	Cl	1.424233	0.163079	1.431514
Cl360	Cl	1.674233	0.413079	1.681514
Cl361	Cl	1.176479	-0.395109	0.932926
Cl362	Cl	1.426479	-0.145109	1.182926
Cl363	Cl	1.676479	0.104891	1.432926
Cl364	Cl	1.926479	0.354891	1.682926
Cl365	Cl	0.645124	-0.179245	0.315941
Cl366	Cl	0.895124	0.070755	0.565941
Cl367	Cl	1.145124	0.320755	0.815941
Cl368	Cl	1.395124	0.570755	1.065941
H369	H	1.149276	-0.383048	0.793615
H370	H	1.399276	-0.133048	1.043615
H371	H	1.649276	0.116952	1.293615
H372	H	1.899276	0.366952	1.543615
H373	H	1.053058	-0.407509	0.792522
H374	H	1.303058	-0.157509	1.042522
H375	H	1.553058	0.092491	1.292522
H376	H	1.803058	0.342491	1.542522
H377	H	0.635148	-0.222435	0.434656
H378	H	0.885148	0.027565	0.684656
H379	H	1.135148	0.277565	0.934656
H380	H	1.385148	0.527565	1.184656
Cl381	Cl	0.494526	-0.393527	0.248275
Cl382	Cl	0.744526	-0.143527	0.498275
Cl383	Cl	0.994526	0.106473	0.748275
Cl384	Cl	1.244526	0.356473	0.998275
H385	H	1.048306	-0.405909	0.919840
H386	H	1.298306	-0.155909	1.169840
H387	H	1.548306	0.094091	1.419840
H388	H	1.798306	0.344091	1.669840
