data_functionalizedCrystal
_audit_creation_method	'MofGen! by Chris Wilmer'
_symmetry_space_group_name_H-M	'P1'
_symmetry_Int_Tables_number	1
_symmetry_cell_setting	triclinic
loop_
_symmetry_equiv_pos_as_xyz
  x,y,z
_cell_length_a	12.759395
_cell_length_b	19.805405
_cell_length_c	19.805399
_cell_angle_alpha	90.029301
_cell_angle_beta	89.983760
_cell_angle_gamma	89.972053
loop_
_atom_site_label
_atom_site_type_symbol
_atom_site_fract_x
_atom_site_fract_y
_atom_site_fract_z
Zn1	Zn	1.606139	0.269451	-0.382651
Zn2	Zn	2.106139	0.769451	0.117349
Zn3	Zn	1.606007	0.382640	-0.269460
Zn4	Zn	2.106007	0.882640	0.230540
Zn5	Zn	1.430450	0.269473	-0.269483
Zn6	Zn	1.930450	0.769473	0.230517
Zn7	Zn	1.430394	0.382607	-0.382613
Zn8	Zn	1.930394	0.882607	0.117387
O9	O	1.518247	0.326043	-0.326052
O10	O	2.018247	0.826043	0.173948
O11	O	1.753142	0.284471	-0.367643
O12	O	2.253142	0.784471	0.132357
O13	O	1.582687	0.367651	-0.174746
O14	O	2.082687	0.867651	0.325254
O15	O	1.453835	0.174753	-0.284520
O16	O	1.953835	0.674753	0.215480
O17	O	1.753045	0.367630	-0.284481
O18	O	2.253045	0.867630	0.215519
O19	O	1.582912	0.174737	-0.367665
O20	O	2.082912	0.674737	0.132335
O21	O	1.453707	0.284508	-0.174763
O22	O	1.953707	0.784508	0.325237
O23	O	1.283422	0.284476	-0.284483
O24	O	1.783422	0.784476	0.215517
O25	O	1.453738	0.367573	-0.477335
O26	O	1.953738	0.867573	0.022665
O27	O	1.283380	0.367594	-0.367600
O28	O	1.783380	0.867594	0.132400
O29	O	1.582858	0.284439	-0.477363
O30	O	2.082858	0.784439	0.022637
O31	O	1.582632	0.477352	-0.284444
O32	O	2.082632	0.977352	0.215556
O33	O	1.453610	0.477328	-0.367577
O34	O	1.953610	0.977328	0.132423
C35	C	1.245280	0.326034	-0.326040
C36	C	1.745280	0.826034	0.173960
C37	C	1.128503	0.326047	-0.326051
C38	C	1.628503	0.826047	0.173949
C39	C	1.518129	0.501899	-0.326019
C40	C	2.018129	1.001899	0.173981
C41	C	1.518175	0.577131	-0.326028
C42	C	2.018175	1.077131	0.173972
C43	C	1.518306	0.326000	-0.502594
C44	C	2.018306	0.826000	-0.002594
C45	C	1.518331	0.325982	-0.577826
C46	C	2.018331	0.825982	-0.077826
C47	C	1.128498	0.412739	-0.412460
C48	C	1.628498	0.912739	0.087540
C49	C	1.073635	0.456090	-0.455667
C50	C	1.573635	0.956090	0.044333
C51	C	0.963914	0.456098	-0.455675
C52	C	1.463914	0.956098	0.044325
C53	C	0.909053	0.412749	-0.412474
C54	C	1.409053	0.912749	0.087526
C55	C	0.963916	0.369398	-0.369267
C56	C	1.463916	0.869398	0.130733
C57	C	1.073640	0.369396	-0.369262
C58	C	1.573640	0.869396	0.130738
C59	C	0.963921	0.282704	-0.282862
C60	C	1.463921	0.782704	0.217138
C61	C	1.073642	0.282698	-0.282850
C62	C	1.573642	0.782698	0.217150
C63	C	0.909060	0.239355	-0.239661
C64	C	1.409060	0.739355	0.260339
C65	C	0.963923	0.196006	-0.196450
C66	C	1.463923	0.696006	0.303550
C67	C	1.073651	0.196000	-0.196443
C68	C	1.573651	0.696000	0.303557
C69	C	1.128505	0.239347	-0.239643
C70	C	1.628505	0.739347	0.260357
C71	C	1.792281	0.326051	-0.326064
C72	C	2.292281	0.826051	0.173936
C73	C	1.909057	0.326055	-0.326069
C74	C	2.409057	0.826055	0.173931
C75	C	1.518395	0.149500	-0.326099
C76	C	2.018395	0.649500	0.173901
C77	C	1.518457	0.074268	-0.326120
C78	C	2.018457	0.574268	0.173880
C79	C	1.585422	0.612465	-0.282785
C80	C	2.085422	1.112465	0.217215
C81	C	1.585466	0.683153	-0.282800
C82	C	2.085466	1.183153	0.217200
C83	C	1.518258	0.718506	-0.326055
C84	C	2.018258	1.218506	0.173945
C85	C	1.451008	0.683167	-0.369302
C86	C	1.951008	1.183167	0.130698
C87	C	1.450969	0.612480	-0.369289
C88	C	1.950969	1.112480	0.130711
C89	C	1.451163	0.968240	-0.369352
C90	C	1.951163	1.468240	0.130648
C91	C	1.451204	1.038932	-0.369359
C92	C	1.951204	1.538932	0.130641
C93	C	1.585660	1.038914	-0.282863
C94	C	2.085660	1.538914	0.217137
C95	C	1.585621	0.968226	-0.282851
C96	C	2.085621	1.468226	0.217149
C97	C	1.518376	0.932893	-0.326100
C98	C	2.018376	1.432893	0.173900
C99	C	1.518330	0.856245	-0.326084
C100	C	2.018330	1.356245	0.173916
C101	C	1.518298	0.795153	-0.326067
C102	C	2.018298	1.295153	0.173933
C103	C	1.585565	0.282691	-0.613186
C104	C	2.085565	0.782691	-0.113186
C105	C	1.585576	0.282672	-0.683875
C106	C	2.085576	0.782672	-0.183875
C107	C	1.518357	0.325946	-0.719202
C108	C	2.018357	0.825946	-0.219202
C109	C	1.451116	0.369239	-0.683837
C110	C	1.951116	0.869239	-0.183837
C111	C	1.451101	0.369254	-0.613150
C112	C	1.951101	0.869254	-0.113150
C113	C	1.451175	0.369176	-0.968911
C114	C	1.951175	0.869176	-0.468911
C115	C	1.451198	0.369158	-1.039603
C116	C	1.951198	0.869158	-0.539603
C117	C	1.585651	0.282593	-1.039636
C118	C	2.085651	0.782593	-0.539636
C119	C	1.585635	0.282609	-0.968948
C120	C	2.085635	0.782609	-0.468948
C121	C	1.518391	0.325898	-0.933590
C122	C	2.018391	0.825898	-0.433590
C123	C	1.518378	0.325918	-0.856941
C124	C	2.018378	0.825918	-0.356941
C125	C	1.518374	0.325930	-0.795849
C126	C	2.018374	0.825930	-0.295849
C127	C	1.518249	0.326036	-0.150196
C128	C	2.018249	0.826036	0.349804
C129	C	1.518428	0.325864	-0.074964
C130	C	2.018428	0.825864	0.425036
H131	H	1.118315	0.491383	-0.490842
H132	H	1.618315	0.991383	0.009158
H133	H	0.819712	0.412754	-0.412490
H134	H	1.319712	0.912754	0.087510
H135	H	1.396290	0.711957	-0.404523
H136	H	1.896290	1.211957	0.095477
N137	N	1.658103	0.235976	-0.722001
N138	N	2.158103	0.735976	-0.222001
H139	H	1.706776	0.263474	-0.751328
H140	H	2.206776	0.763474	-0.251328
H141	H	1.615372	0.204603	-0.751292
H142	H	2.115372	0.704603	-0.251292
H143	H	0.919246	0.160712	-0.161282
H144	H	1.419246	0.660712	0.338718
N145	N	1.378604	0.415899	-0.721948
N146	N	1.878604	0.915899	-0.221948
H147	H	1.421272	0.447261	-0.751274
H148	H	1.921272	0.947261	-0.251274
H149	H	1.336010	0.443281	-0.688784
H150	H	1.836010	0.943281	-0.188784
H151	H	1.118314	0.160694	-0.161264
H152	H	1.618314	0.660694	0.338736
N153	N	0.790718	0.239365	-0.239662
N154	N	1.290718	0.739365	0.260338
H155	H	0.764284	0.273409	-0.273584
H156	H	1.264284	0.773409	0.226416
H157	H	0.764354	0.251723	-0.193182
H158	H	1.264354	0.751723	0.306818
H159	H	1.396211	0.583711	-0.404502
H160	H	1.896211	1.083711	0.095498
H161	H	1.217847	0.239348	-0.239640
H162	H	1.717847	0.739348	0.260360
N163	N	1.658120	0.930098	-0.236203
N164	N	2.158120	1.430098	0.263797
H165	H	1.647891	0.879957	-0.242757
H166	H	2.147891	1.379957	0.257243
H167	H	1.641825	0.942494	-0.187854
H168	H	2.141825	1.442494	0.312146
N169	N	1.378723	1.077068	-0.416019
N170	N	1.878723	1.577068	0.083981
H171	H	1.330075	1.106440	-0.388489
H172	H	1.830075	1.606440	0.111511
H173	H	1.336188	1.043919	-0.443409
H174	H	1.836188	1.543919	0.056591
H175	H	1.217839	0.412741	-0.412453
H176	H	1.717839	0.912741	0.087547
H177	H	0.919244	0.491395	-0.490861
H178	H	1.419244	0.991395	0.009139
H179	H	1.640306	0.247454	-0.584428
H180	H	2.140306	0.747454	-0.084428
H181	H	1.640375	0.247372	-0.940188
H182	H	2.140375	0.747372	-0.440188
N183	N	1.658190	1.077023	-0.236211
N184	N	2.158190	1.577023	0.263789
H185	H	1.648021	1.127167	-0.242780
H186	H	2.148021	1.627167	0.257220
H187	H	1.733209	1.064618	-0.246780
H188	H	2.233209	1.564618	0.253220
N189	N	1.657908	0.574337	-0.236130
N190	N	2.157908	1.074337	0.263870
H191	H	1.700518	0.607450	-0.208740
H192	H	2.200518	1.107450	0.291260
H193	H	1.706486	0.544963	-0.263705
H194	H	2.206486	1.044963	0.236295
H195	H	1.640225	0.711919	-0.247588
H196	H	2.140225	1.211919	0.252412
H197	H	1.640401	0.247342	-1.068433
H198	H	2.140401	0.747342	-0.568433
H199	H	1.396456	0.404399	-1.068364
H200	H	1.896456	0.904399	-0.568364
N201	N	1.378592	0.415952	-0.575011
N202	N	1.878592	0.915952	-0.075011
H203	H	1.388779	0.409395	-0.524871
H204	H	1.888779	0.909395	-0.024871
H205	H	1.303569	0.405412	-0.587363
H206	H	1.803569	0.905412	-0.087363
H207	H	1.396436	0.404435	-0.940130
H208	H	1.896436	0.904435	-0.440130
N209	N	1.378628	0.930136	-0.415991
N210	N	1.878628	1.430136	0.084009
H211	H	1.336054	0.963260	-0.443389
H212	H	1.836054	1.463260	0.056611
H213	H	1.330019	0.900854	-0.388404
H214	H	1.830019	1.400854	0.111596
