data_functionalizedCrystal
_audit_creation_method	'MofGen! by Chris Wilmer'
_symmetry_space_group_name_H-M	'P1'
_symmetry_Int_Tables_number	1
_symmetry_cell_setting	triclinic
loop_
_symmetry_equiv_pos_as_xyz
  x,y,z
_cell_length_a	19.121102
_cell_length_b	25.639239
_cell_length_c	19.120904
_cell_angle_alpha	87.589896
_cell_angle_beta	89.911827
_cell_angle_gamma	87.592882
loop_
_atom_site_label
_atom_site_type_symbol
_atom_site_fract_x
_atom_site_fract_y
_atom_site_fract_z
Zn1	Zn	1.054765	-0.255751	0.442042
Zn2	Zn	1.554765	0.244249	0.942042
Zn3	Zn	1.059658	-0.339618	0.324799
Zn4	Zn	1.559658	0.160382	0.824799
Zn5	Zn	0.942536	-0.248315	0.319827
Zn6	Zn	1.442536	0.251685	0.819827
Zn7	Zn	0.937469	-0.339266	0.437001
Zn8	Zn	1.437469	0.160734	0.937001
O9	O	0.998607	-0.295738	0.380917
O10	O	1.498607	0.204262	0.880917
O11	O	1.153518	-0.270136	0.430680
O12	O	1.653518	0.229864	0.930680
O13	O	1.048290	-0.324541	0.226035
O14	O	1.548290	0.175459	0.726035
O15	O	0.957496	-0.176139	0.336067
O16	O	1.457496	0.323861	0.836067
O17	O	1.157113	-0.331752	0.344542
O18	O	1.657113	0.168248	0.844542
O19	O	1.039950	-0.181603	0.425859
O20	O	1.539950	0.318397	0.925859
O21	O	0.962241	-0.257461	0.222382
O22	O	1.462241	0.242539	0.722382
O23	O	0.843760	-0.257121	0.331180
O24	O	1.343760	0.242879	0.831180
O25	O	0.948861	-0.331153	0.535775
O26	O	1.448861	0.168847	1.035775
O27	O	0.840037	-0.323942	0.417267
O28	O	1.340037	0.176058	0.917267
O29	O	1.035037	-0.269795	0.539478
O30	O	1.535037	0.230205	1.039478
O31	O	1.043377	-0.412733	0.339654
O32	O	1.543377	0.087267	0.839654
O33	O	0.953605	-0.412475	0.422089
O34	O	1.453605	0.087525	0.922089
C35	C	0.816461	-0.289687	0.373137
C36	C	1.316461	0.210313	0.873137
C37	C	0.738537	-0.287111	0.369826
C38	C	1.238537	0.212889	0.869826
C39	C	0.998491	-0.431575	0.380880
C40	C	1.498491	0.068425	0.880880
C41	C	0.998504	-0.489690	0.380890
C42	C	1.498504	0.010310	0.880890
C43	C	0.700012	-0.320740	0.413021
C44	C	1.200012	0.179260	0.913021
C45	C	0.626794	-0.318313	0.409912
C46	C	1.126794	0.181687	0.909912
C47	C	0.592104	-0.282260	0.363605
C48	C	1.092104	0.217740	0.863605
C49	C	0.630634	-0.248627	0.320408
C50	C	1.130634	0.251373	0.820408
C51	C	0.703850	-0.251052	0.323520
C52	C	1.203850	0.248948	0.823520
C53	C	0.371134	-0.273194	0.351972
C54	C	0.871134	0.226806	0.851972
C55	C	0.297913	-0.270773	0.348862
C56	C	0.797913	0.229227	0.848862
C57	C	0.294078	-0.340458	0.438367
C58	C	0.794078	0.159542	0.938367
C59	C	0.367296	-0.342882	0.441472
C60	C	0.867296	0.157118	0.941472
C61	C	0.405820	-0.309247	0.398278
C62	C	0.905820	0.190753	0.898278
C63	C	0.517264	-0.279779	0.360425
C64	C	1.017264	0.220221	0.860425
C65	C	0.480658	-0.311726	0.401462
C66	C	0.980658	0.188274	0.901462
C67	C	1.045465	-0.850185	0.338075
C68	C	1.545465	-0.350185	0.838075
C69	C	1.045491	-0.904791	0.338085
C70	C	1.545491	-0.404791	0.838085
O71	O	1.085298	-0.933135	0.301642
O72	O	1.585298	-0.433135	0.801642
N73	N	0.998728	-0.931982	0.380969
N74	N	1.498728	-0.431982	0.880969
C75	C	0.951940	-0.904565	0.423850
C76	C	1.451940	-0.404565	0.923850
O77	O	0.912167	-0.932708	0.460327
O78	O	1.412167	-0.432708	0.960327
C79	C	0.951917	-0.849961	0.423843
C80	C	1.451917	-0.349961	0.923843
C81	C	0.998679	-0.822772	0.380951
C82	C	1.498679	-0.322772	0.880951
C83	C	1.092223	-0.822997	0.295188
C84	C	1.592223	-0.322997	0.795188
C85	C	1.092195	-0.768395	0.295176
C86	C	1.592195	-0.268395	0.795176
C87	C	1.045409	-0.740982	0.338052
C88	C	1.545409	-0.240982	0.838052
C89	C	0.998651	-0.768171	0.380940
C90	C	1.498651	-0.268171	0.880940
C91	C	0.905133	-0.822546	0.466727
C92	C	1.405133	-0.322546	0.966727
C93	C	0.905115	-0.767938	0.466716
C94	C	1.405115	-0.267938	0.966716
C95	C	0.951876	-0.740749	0.423825
C96	C	1.451876	-0.240749	0.923825
C97	C	0.951837	-0.686156	0.423805
C98	C	1.451837	-0.186156	0.923805
N99	N	0.998600	-0.658965	0.380921
N100	N	1.498600	-0.158965	0.880921
C101	C	1.045386	-0.686378	0.338045
C102	C	1.545386	-0.186378	0.838045
C103	C	0.951992	-1.019238	0.423863
C104	C	1.451992	-0.519238	0.923863
C105	C	0.952011	-1.073841	0.423867
C106	C	1.452011	-0.573841	0.923867
C107	C	1.045564	-1.074063	0.338103
C108	C	1.545564	-0.574063	0.838103
C109	C	1.045541	-1.019459	0.338096
C110	C	1.545541	-0.519459	0.838096
C111	C	0.998756	-0.992047	0.380980
C112	C	1.498756	-0.492047	0.880980
C113	C	1.045324	-0.571710	0.338024
C114	C	1.545324	-0.071710	0.838024
C115	C	1.045290	-0.517103	0.338014
C116	C	1.545290	-0.017103	0.838014
C117	C	0.951740	-0.516886	0.423780
C118	C	1.451740	-0.016886	0.923780
C119	C	0.951771	-0.571488	0.423788
C120	C	1.451771	-0.071488	0.923788
C121	C	0.998569	-0.598899	0.380907
C122	C	1.498569	-0.098899	0.880907
O123	O	0.912052	-0.657777	0.460232
O124	O	1.412052	-0.157777	0.960232
O125	O	1.085159	-0.658229	0.301581
O126	O	1.585159	-0.158229	0.801581
C127	C	1.181464	-0.301813	0.388728
C128	C	1.681464	0.198187	0.888728
C129	C	1.259387	-0.304401	0.392057
C130	C	1.759387	0.195599	0.892057
C131	C	0.990838	-0.301264	0.563775
C132	C	1.490838	0.198736	1.063775
C133	C	0.987527	-0.303619	0.641698
C134	C	1.487527	0.196381	1.141698
C135	C	0.998742	-0.159371	0.380971
C136	C	1.498742	0.340629	0.880971
C137	C	0.998800	-0.101259	0.380993
C138	C	1.498800	0.398741	0.880993
C139	C	1.006386	-0.290196	0.198772
C140	C	1.506386	0.209804	0.698772
C141	C	1.009833	-0.287698	0.120856
C142	C	1.509833	0.212302	0.620856
C143	C	1.030837	-0.272781	0.680236
C144	C	1.530837	0.227219	1.180236
C145	C	1.027718	-0.274992	0.753453
C146	C	1.527718	0.225008	1.253453
C147	C	0.981292	-0.308044	0.788130
C148	C	1.481292	0.191956	1.288130
C149	C	0.937977	-0.338883	0.749587
C150	C	1.437977	0.161117	1.249587
C151	C	0.941093	-0.336669	0.676372
C152	C	1.441093	0.163331	1.176372
C153	C	0.969635	-0.316324	1.009097
C154	C	1.469635	0.183676	1.509097
C155	C	0.966523	-0.318536	1.082318
C156	C	1.466523	0.181464	1.582318
C157	C	1.056263	-0.254644	1.086178
C158	C	1.556263	0.245356	1.586178
C159	C	1.059378	-0.252436	1.012961
C160	C	1.559378	0.247564	1.512961
C161	C	1.016061	-0.283273	0.974424
C162	C	1.516061	0.216727	1.474424
C163	C	0.978104	-0.310306	0.862970
C164	C	1.478104	0.189694	1.362970
C165	C	1.019246	-0.281008	0.899586
C166	C	1.519246	0.218992	1.399586
H167	H	0.728252	-0.350100	0.450727
H168	H	1.228252	0.149900	0.950727
O169	O	0.589479	-0.351040	0.451890
O170	O	1.089479	0.148960	0.951890
C171	C	0.635797	-0.383377	0.493435
C172	C	1.135797	0.116623	0.993435
H173	H	0.689202	-0.386007	0.466934
H174	H	1.189202	0.113993	0.966934
H175	H	0.614301	-0.424103	0.499899
H176	H	1.114301	0.075897	0.999899
H177	H	0.641344	-0.366171	0.547064
H178	H	1.141344	0.133829	1.047064
O179	O	1.090998	-0.992997	0.296534
O180	O	1.590998	-0.492997	0.796534
C181	C	1.134552	-0.964088	0.338411
C182	C	1.634552	-0.464088	0.838411
H183	H	1.107526	-0.956691	0.390460
H184	H	1.607526	-0.456691	0.890460
H185	H	1.145173	-0.925142	0.310256
H186	H	1.645173	-0.425142	0.810256
H187	H	1.186176	-0.987053	0.348379
H188	H	1.686176	-0.487053	0.848379
O189	O	0.400881	-0.377919	0.486518
O190	O	0.900881	0.122081	0.986518
C191	C	0.351177	-0.407091	0.523964
C192	C	0.851177	0.092909	1.023964
H193	H	0.298898	-0.384026	0.524230
H194	H	0.798898	0.115974	1.024230
H195	H	0.369994	-0.415105	0.580085
H196	H	0.869994	0.084895	1.080085
H197	H	0.344445	-0.445731	0.497859
H198	H	0.844445	0.054269	0.997859
H199	H	0.913927	-1.095973	0.458787
H200	H	1.413927	-0.595973	0.958787
H201	H	0.913888	-0.996922	0.458781
H202	H	1.413888	-0.496922	0.958781
O203	O	1.098263	-0.224705	1.123718
O204	O	1.598263	0.275295	1.623718
C205	C	1.085573	-0.233754	1.195777
C206	C	1.585573	0.266246	1.695777
H207	H	1.031028	-0.249383	1.203456
H208	H	1.531028	0.250617	1.703456
H209	H	1.089180	-0.195590	1.223820
H210	H	1.589180	0.304410	1.723820
H211	H	1.126246	-0.263603	1.218323
H212	H	1.626246	0.236397	1.718323
O213	O	0.859685	-0.848869	0.508460
O214	O	1.359685	-0.348869	1.008460
C215	C	0.818384	-0.812953	0.546286
C216	C	1.318384	-0.312953	1.046286
H217	H	0.846983	-0.775035	0.549944
H218	H	1.346983	-0.275035	1.049944
H219	H	0.808526	-0.830132	0.601202
H220	H	1.308526	-0.330132	1.101202
H221	H	0.766248	-0.804650	0.518301
H222	H	1.266248	-0.304650	1.018301
H223	H	0.867017	-0.745622	0.501639
H224	H	1.367017	-0.245622	1.001639
H225	H	1.083369	-0.494968	0.303084
H226	H	1.583369	0.005032	0.803084
H227	H	0.913696	-0.593627	0.458716
H228	H	1.413696	-0.093627	0.958716
O229	O	0.932911	-0.342355	0.896619
O230	O	1.432911	0.157645	1.396619
C231	C	0.863811	-0.328079	0.875731
C232	C	1.363811	0.171921	1.375731
H233	H	0.861166	-0.285587	0.855466
H234	H	1.361166	0.214413	1.355466
H235	H	0.827124	-0.332887	0.922398
H236	H	1.327124	0.167113	1.422398
H237	H	0.847268	-0.354219	0.832440
H238	H	1.347268	0.145781	1.332440
H239	H	1.062987	-0.249882	0.784827
H240	H	1.562987	0.250118	1.284827
O241	O	0.921359	-0.350655	1.115894
O242	O	1.421359	0.149345	1.615894
C243	C	0.883806	-0.377408	1.066182
C244	C	1.383806	0.122592	1.566182
H245	H	0.883617	-0.354335	1.013896
H246	H	1.383617	0.145665	1.513896
H247	H	0.827667	-0.381787	1.084977
H248	H	1.327667	0.118213	1.584977
H249	H	0.909768	-0.417733	1.059475
H250	H	1.409768	0.082267	1.559475
H251	H	0.913645	-0.494558	0.458687
H252	H	1.413645	0.005442	0.958687
H253	H	1.130325	-0.845310	0.260273
H254	H	1.630325	-0.345310	0.760273
H255	H	0.934373	-0.341441	0.977730
H256	H	1.434373	0.158559	1.477730
O257	O	0.892779	-0.370930	0.783235
O258	O	1.392779	0.129070	1.283235
C259	C	0.823681	-0.356650	0.762347
C260	C	1.323681	0.143350	1.262347
H261	H	0.821039	-0.314156	0.742089
H262	H	1.321039	0.185844	1.242089
H263	H	0.786992	-0.361460	0.809012
H264	H	1.286992	0.138540	1.309012
H265	H	0.807137	-0.382785	0.719051
H266	H	1.307137	0.117215	1.219051
H267	H	1.097185	-0.225523	0.984732
H268	H	1.597185	0.274477	1.484732
H269	H	1.083662	-1.096393	0.303194
H270	H	1.583662	-0.596393	0.803194
H271	H	0.602383	-0.219270	0.282707
H272	H	1.102383	0.280730	0.782707
H273	H	0.905819	-0.361775	0.644995
H274	H	1.405819	0.138225	1.144995
H275	H	0.262704	-0.367840	0.473534
H276	H	0.762704	0.132160	0.973534
H277	H	1.068644	-0.245869	0.652007
H278	H	1.568644	0.254131	1.152007
H279	H	0.269669	-0.241408	0.311157
H280	H	0.769669	0.258592	0.811157
H281	H	1.057043	-0.254095	0.871348
H282	H	1.557043	0.245905	1.371348
H283	H	0.402492	-0.245810	0.316795
H284	H	0.902492	0.254190	0.816795
H285	H	0.735217	-0.223665	0.288350
H286	H	1.235217	0.276335	0.788350
H287	H	0.508906	-0.341078	0.439168
H288	H	1.008906	0.158922	0.939168
O289	O	0.483639	-0.244786	0.315349
O290	O	0.983639	0.255214	0.815349
C291	C	0.504450	-0.254617	0.246202
C292	C	1.004450	0.245383	0.746202
H293	H	0.557660	-0.276423	0.246947
H294	H	1.057660	0.223577	0.746947
H295	H	0.508297	-0.215982	0.214964
H296	H	1.008297	0.284018	0.714964
H297	H	0.464221	-0.279394	0.220781
H298	H	0.964221	0.220606	0.720781
H299	H	1.130274	-0.746261	0.260252
H300	H	1.630274	-0.246261	0.760252
O301	O	1.090805	-0.598249	0.296303
O302	O	1.590805	-0.098249	0.796303
C303	C	1.132075	-0.562534	0.258464
C304	C	1.632075	-0.062534	0.758464
H305	H	1.103440	-0.522609	0.254789
H306	H	1.603440	-0.022609	0.754789
H307	H	1.141950	-0.576895	0.203555
H308	H	1.641950	-0.076895	0.703555
H309	H	1.184204	-0.559219	0.286450
H310	H	1.684204	-0.059219	0.786450
