data_functionalizedCrystal
_audit_creation_method	'MofGen! by Chris Wilmer'
_symmetry_space_group_name_H-M	'P1'
_symmetry_Int_Tables_number	1
_symmetry_cell_setting	triclinic
loop_
_symmetry_equiv_pos_as_xyz
  x,y,z
_cell_length_a	17.038272
_cell_length_b	8.597340
_cell_length_c	7.088929
_cell_angle_alpha	103.954719
_cell_angle_beta	83.325468
_cell_angle_gamma	88.193829
loop_
_atom_site_label
_atom_site_type_symbol
_atom_site_fract_x
_atom_site_fract_y
_atom_site_fract_z
O1	O	0.107367	2.115945	0.189570
O2	O	0.120129	1.652995	0.113304
O3	O	-0.000066	1.881720	0.150999
O4	O	0.227563	1.887220	0.151875
O5	O	-0.016165	1.912282	0.474011
O6	O	0.104030	1.683557	0.436316
O7	O	0.091268	2.146507	0.512582
Cu8	Cu	0.096179	1.917823	0.503943
Cu9	Cu	0.115218	1.881680	0.121944
O10	O	0.211464	1.917782	0.474887
C11	C	0.111606	1.608749	0.265004
C12	C	0.110185	1.431374	0.235784
C13	C	-0.037241	1.891996	0.311681
C14	C	-0.124026	1.877064	0.309220
C15	C	-0.174217	2.014161	0.331807
C16	C	-0.255758	2.000119	0.329476
C17	C	-0.287109	1.848980	0.304571
C18	C	-0.236911	1.711872	0.281976
C19	C	-0.155370	1.725914	0.284294
C20	C	-0.532838	1.799371	0.296372
C21	C	-0.614385	1.785340	0.294062
C22	C	-0.633226	2.073588	0.341558
C23	C	-0.551684	2.087618	0.343886
C24	C	-0.501493	1.950509	0.321281
C25	C	-0.370458	1.834624	0.302193
C26	C	-0.418145	1.964865	0.323644
C27	C	0.248639	1.907506	0.314201
C28	C	0.335424	1.922437	0.316649
C29	C	0.099792	2.190753	0.360878
C30	C	0.101213	2.368126	0.390086
N31	N	0.082787	1.943255	0.772622
N32	N	0.128604	1.856259	-0.146734
H33	H	0.116780	1.349817	0.081307
H34	H	-0.296621	2.111759	0.347873
H35	H	-0.262442	1.588810	0.261686
H36	H	0.035311	2.033436	0.869140
H37	H	0.094613	1.449675	0.544552
H38	H	-0.392614	2.087918	0.343879
H39	H	-0.114505	1.614274	0.265900
H40	H	-0.148699	2.137236	0.352100
H41	H	0.176083	1.766097	0.756761
H42	H	-0.395992	1.711566	0.281920
H43	H	-0.674100	2.185214	0.359958
H44	H	-0.526165	2.210691	0.364166
H45	H	-0.639908	1.662261	0.273812
H46	H	-0.491982	1.687726	0.277966
