data_functionalizedCrystal
_audit_creation_method	'MofGen! by Chris Wilmer'
_symmetry_space_group_name_H-M	'P1'
_symmetry_Int_Tables_number	1
_symmetry_cell_setting	triclinic
loop_
_symmetry_equiv_pos_as_xyz
  x,y,z
_cell_length_a	16.109301
_cell_length_b	11.026607
_cell_length_c	15.186229
_cell_angle_alpha	89.998222
_cell_angle_beta	89.999362
_cell_angle_gamma	96.023749
loop_
_atom_site_label
_atom_site_type_symbol
_atom_site_fract_x
_atom_site_fract_y
_atom_site_fract_z
O1	O	1.126503	0.155971	-0.073169
O2	O	1.626503	0.655971	0.426831
O3	O	0.887350	0.175382	-0.073183
O4	O	1.387350	0.675382	0.426817
O5	O	0.987106	-0.010969	-0.073174
O6	O	1.487106	0.489031	0.426826
O7	O	1.026747	0.342322	-0.073178
O8	O	1.526747	0.842322	0.426822
O9	O	0.987097	-0.010971	0.073283
O10	O	1.487097	0.489029	0.573283
O11	O	0.887341	0.175379	0.073274
O12	O	1.387341	0.675379	0.573274
O13	O	1.126494	0.155969	0.073288
O14	O	1.626494	0.655969	0.573288
Zn15	Zn	1.006916	0.165674	0.096534
Zn16	Zn	1.506916	0.665674	0.596534
Zn17	Zn	1.006928	0.165677	-0.096429
Zn18	Zn	1.506928	0.665677	0.403571
O19	O	1.026738	0.342319	0.073279
O20	O	1.526738	0.842319	0.573279
C21	C	0.856253	0.174594	0.000044
C22	C	1.356253	0.674594	0.500044
C23	C	0.763604	0.172237	0.000039
C24	C	1.263604	0.672237	0.500039
C25	C	0.557080	0.277333	0.000048
C26	C	1.057080	0.777333	0.500048
C27	C	0.470027	0.275108	0.000053
C28	C	0.970027	0.775108	0.500053
C29	C	0.456769	0.054010	0.000052
C30	C	0.956769	0.554010	0.500052
C31	C	0.543821	0.056235	0.000053
C32	C	1.043821	0.556235	0.500053
C33	C	0.593975	0.167900	0.000046
C34	C	1.093975	0.667900	0.500046
C35	C	0.419869	0.163450	0.000051
C36	C	0.919869	0.663450	0.500051
C37	C	0.325481	0.161038	0.000057
C38	C	0.825481	0.661038	0.500057
C39	C	0.688369	0.170314	0.000042
C40	C	1.188369	0.670314	0.500042
C41	C	0.979788	-0.056178	0.000053
C42	C	1.479788	0.443822	0.500053
C43	C	0.957987	-0.190883	0.000049
C44	C	1.457987	0.309117	0.500049
C45	C	1.018183	-0.264713	0.000051
C46	C	1.518183	0.235287	0.500051
C47	C	0.995652	-0.403938	0.000046
C48	C	1.495652	0.096062	0.500046
C49	C	1.157591	0.156756	0.000059
C50	C	1.657591	0.656756	0.500059
C51	C	1.250240	0.159114	0.000059
C52	C	1.750240	0.659114	0.500059
C53	C	1.034056	0.387529	0.000050
C54	C	1.534056	0.887529	0.500050
C55	C	1.055857	0.522234	0.000049
C56	C	1.555857	1.022234	0.500049
N57	N	1.006914	0.165670	0.228227
N58	N	1.506914	0.665670	0.728227
N59	N	1.006935	0.165671	-0.228122
N60	N	1.506935	0.665671	0.271878
C61	C	1.051109	0.083182	0.453954
C62	C	1.551109	0.583182	0.953954
C63	C	1.051112	0.083179	0.546144
C64	C	1.551112	0.583179	1.046144
C65	C	0.962734	0.248163	0.546145
C66	C	1.462734	0.748163	1.046145
C67	C	0.962728	0.248159	0.453957
C68	C	1.462728	0.748159	0.953957
C69	C	1.006920	0.165670	0.407864
C70	C	1.506920	0.665670	0.907864
C71	C	1.006929	0.165671	0.592241
C72	C	1.506929	0.665671	1.092241
C73	C	1.006931	0.165669	0.692198
C74	C	1.506931	0.665669	1.192198
C75	C	1.006917	0.165671	0.307901
C76	C	1.506917	0.665671	0.807901
H77	H	0.573861	-0.032883	0.000054
H78	H	1.073861	0.467117	0.500054
H79	H	1.087092	0.016013	0.416427
H80	H	1.587092	0.516013	0.916427
Br81	Br	1.111080	-0.028778	0.608693
Br82	Br	1.611080	0.471222	1.108693
Br83	Br	0.388699	-0.097528	0.000058
Br84	Br	0.888699	0.402472	0.500058
H85	H	0.926740	0.315331	0.416428
H86	H	1.426740	0.815331	0.916428
Br87	Br	0.902763	0.360110	0.608703
Br88	Br	1.402763	0.860110	1.108703
Br89	Br	1.131885	-0.198284	0.000048
Br90	Br	1.631885	0.301716	0.500048
Br91	Br	0.419959	0.423630	0.000060
Br92	Br	0.919959	0.923630	0.500060
Br93	Br	0.844285	-0.257312	0.000030
Br94	Br	1.344285	0.242688	0.500030
Br95	Br	1.169564	-0.411346	0.000048
Br96	Br	1.669564	0.088654	0.500048
Br97	Br	0.625144	0.428877	0.000042
Br98	Br	1.125144	0.928877	0.500042
H99	H	0.927432	-0.443797	0.000037
H100	H	1.427432	0.056203	0.500037
