data_functionalizedCrystal
_audit_creation_method	'MofGen! by Chris Wilmer'
_symmetry_space_group_name_H-M	'P1'
_symmetry_Int_Tables_number	1
_symmetry_cell_setting	triclinic
loop_
_symmetry_equiv_pos_as_xyz
  x,y,z
_cell_length_a	17.038272
_cell_length_b	17.038272
_cell_length_c	10.268362
_cell_angle_alpha	89.994496
_cell_angle_beta	90.001146
_cell_angle_gamma	91.111556
loop_
_atom_site_label
_atom_site_type_symbol
_atom_site_fract_x
_atom_site_fract_y
_atom_site_fract_z
O1	O	1.048755	0.170537	-0.108138
O2	O	0.820943	0.167829	-0.108177
O3	O	0.933495	0.055278	-0.108148
O4	O	0.936203	0.283089	-0.108168
O5	O	0.933484	0.055272	0.108453
O6	O	0.820932	0.167824	0.108424
O7	O	1.048744	0.170532	0.108462
Cu8	Cu	0.934837	0.169177	0.128220
Cu9	Cu	0.934850	0.169184	-0.127935
O10	O	0.936192	0.283084	0.108433
C11	C	0.791645	0.165364	0.000119
C12	C	0.704361	0.158016	0.000104
C13	C	0.658752	0.225479	0.000099
C14	C	0.576740	0.218570	0.000118
C15	C	0.540339	0.144197	0.000132
C16	C	0.585954	0.076728	0.000141
C17	C	0.667965	0.083638	0.000132
C18	C	0.292951	0.119787	0.000169
C19	C	0.210935	0.112882	0.000175
C20	C	0.201726	0.254725	0.000154
C21	C	0.283739	0.261628	0.000137
C22	C	0.329347	0.194159	0.000153
C23	C	0.456510	0.137133	0.000147
C24	C	0.413174	0.201224	0.000147
C25	C	0.931027	0.025982	0.000152
C26	C	0.923679	-0.061301	0.000151
C27	C	0.991142	-0.106911	0.000163
C28	C	0.984233	-0.188923	0.000150
C29	C	0.909860	-0.225324	0.000133
C30	C	0.842391	-0.179708	0.000116
C31	C	0.849301	-0.097698	0.000121
C32	C	0.885449	-0.472712	0.000111
C33	C	0.878545	-0.554728	0.000111
C34	C	1.020387	-0.563937	0.000142
C35	C	1.027291	-0.481924	0.000154
C36	C	0.959822	-0.436316	0.000130
C37	C	0.902796	-0.309153	0.000123
C38	C	0.966886	-0.352488	0.000131
C39	C	1.078042	0.172997	0.000164
C40	C	1.165326	0.180346	0.000170
C41	C	0.938660	0.312379	0.000130
C42	C	0.946008	0.399663	0.000123
N43	N	0.934834	0.169172	0.308386
N44	N	0.934859	0.169183	-0.308101
C45	C	0.934846	0.169182	0.574057
C46	C	0.934837	0.169179	0.426219
H47	H	0.705099	0.028702	0.000135
C48	C	0.763281	-0.291820	0.000098
C49	C	0.821045	-0.349167	0.000106
H50	H	0.712813	-0.316527	0.000075
H51	H	0.768917	-0.260035	0.075633
H52	H	0.768934	-0.260014	-0.075434
H53	H	0.815396	-0.380970	0.075644
H54	H	0.815407	-0.380966	-0.075437
H55	H	0.830511	-0.435587	0.000092
C56	C	0.124048	0.022827	0.111544
C57	C	0.170922	0.031124	0.000199
H58	H	0.099343	-0.027642	0.111551
H59	H	0.155852	0.028468	0.187062
H60	H	0.085151	0.062023	0.111520
H61	H	0.209823	-0.008068	0.000228
H62	H	0.139115	0.025475	-0.075338
H63	H	0.330076	0.064848	0.000183
H64	H	1.051705	-0.077279	0.000185
C65	C	1.139163	-0.597022	-0.111186
C66	C	1.094547	-0.614069	0.000152
H67	H	1.184950	-0.627969	-0.111177
H68	H	1.108893	-0.608569	-0.186709
H69	H	1.153914	-0.542968	-0.111166
H70	H	1.079791	-0.668122	0.000127
H71	H	1.124822	-0.602528	0.075694
H72	H	0.794365	-0.060564	0.000110
H73	H	0.313370	0.322190	0.000110
H74	H	0.539608	0.273507	0.000112
H75	H	0.556310	0.016172	0.000171
C76	C	0.104146	0.329243	-0.111187
C77	C	0.151590	0.328882	0.000151
H78	H	0.073192	0.375025	-0.111178
H79	H	0.136327	0.328997	-0.186710
H80	H	0.070734	0.283957	-0.111165
H81	H	0.185006	0.374165	0.000125
H82	H	0.119406	0.329135	0.075693
H83	H	0.781835	-0.209353	0.000094
H84	H	0.442816	0.261778	0.000143
C85	C	0.788471	-0.641612	0.111438
C86	C	0.796785	-0.594738	0.000089
H87	H	0.737997	-0.666306	0.111428
H88	H	0.827656	-0.680509	0.111442
H89	H	0.794109	-0.609803	0.186961
H90	H	0.791153	-0.626547	-0.075435
H91	H	0.757589	-0.555835	0.000073
H92	H	1.027441	-0.322847	0.000116
H93	H	0.426863	0.076578	0.000196
C94	C	1.125130	-0.189787	0.000211
C95	C	1.058392	-0.239056	0.000179
H96	H	1.170913	-0.220739	0.000238
H97	H	1.124885	-0.157605	-0.075317
H98	H	1.124858	-0.157612	0.075751
H99	H	1.058661	-0.271228	-0.075366
H100	H	1.058638	-0.271252	0.075715
H101	H	0.688384	0.286042	0.000087
C102	C	1.117356	-0.395034	-0.111177
C103	C	1.109045	-0.441917	0.000164
H104	H	1.167827	-0.370334	-0.111160
H105	H	1.111718	-0.426831	-0.186698
H106	H	1.078163	-0.356134	-0.111167
H107	H	1.148235	-0.480821	0.000149
H108	H	1.114691	-0.410118	0.075704
