data_functionalizedCrystal
_audit_creation_method	'MofGen! by Chris Wilmer'
_symmetry_space_group_name_H-M	'P1'
_symmetry_Int_Tables_number	1
_symmetry_cell_setting	triclinic
loop_
_symmetry_equiv_pos_as_xyz
  x,y,z
_cell_length_a	8.559649
_cell_length_b	12.503572
_cell_length_c	8.559649
_cell_angle_alpha	86.971031
_cell_angle_beta	69.778664
_cell_angle_gamma	93.020673
loop_
_atom_site_label
_atom_site_type_symbol
_atom_site_fract_x
_atom_site_fract_y
_atom_site_fract_z
O1	O	2.137386	0.089304	-0.065566
O2	O	2.637386	0.589304	0.434434
O3	O	1.661902	0.089308	0.018215
O4	O	2.161902	0.589308	0.518215
O5	O	1.941534	0.089305	-0.261418
O6	O	2.441534	0.589305	0.238582
O7	O	1.857754	0.089307	0.214067
O8	O	2.357754	0.589307	0.714067
O9	O	1.920500	-0.089337	-0.240357
O10	O	2.420500	0.410663	0.259643
O11	O	1.640868	-0.089334	0.039276
O12	O	2.140868	0.410666	0.539276
O13	O	2.116352	-0.089338	-0.044505
O14	O	2.616352	0.410662	0.455495
Cu15	Cu	1.876690	-0.105647	-0.000692
Cu16	Cu	2.376690	0.394353	0.499308
Cu17	Cu	1.901564	0.105617	-0.025599
Cu18	Cu	2.401564	0.605617	0.474401
O19	O	1.836720	-0.089334	0.235128
O20	O	2.336720	0.410666	0.735128
C21	C	1.591076	-0.000012	0.035094
C22	C	2.091076	0.499988	0.535094
C23	C	1.411377	-0.000010	0.053993
C24	C	1.911377	0.499990	0.553993
N25	N	1.859206	-0.254239	0.016824
N26	N	2.359206	0.245761	0.516824
C27	C	1.833485	-0.473354	0.042604
C28	C	2.333485	0.026646	0.542604
C29	C	1.944778	-0.526683	-0.068903
C30	C	2.444778	-0.026683	0.431097
C31	C	1.930466	-0.648606	-0.054559
C32	C	2.430466	-0.148606	0.445441
C33	C	1.847794	-0.351420	0.028262
C34	C	2.347794	0.148580	0.528262
C35	C	2.187178	-0.000015	-0.061385
C36	C	2.687178	0.499985	0.438615
C37	C	2.366878	-0.000010	-0.080285
C38	C	2.866878	0.499990	0.419715
C39	C	1.937367	-0.000014	-0.311197
C40	C	2.437367	0.499986	0.188803
C41	C	1.956267	-0.000009	-0.490897
C42	C	2.456267	0.499991	0.009103
N43	N	1.919063	0.254209	-0.043129
N44	N	2.419063	0.754209	0.456871
C45	C	1.840887	-0.000013	0.284906
C46	C	2.340887	0.499987	0.784906
C47	C	1.821988	-0.000012	0.464605
C48	C	2.321988	0.499988	0.964605
H49	H	1.311989	-0.000004	0.183420
H50	H	1.811989	0.499996	0.683420
O51	O	1.707151	-0.528282	0.169287
O52	O	2.207151	-0.028282	0.669287
C53	C	1.720801	-0.639550	0.155571
C54	C	2.220801	-0.139550	0.655571
H55	H	1.855393	-0.654760	0.080731
H56	H	2.355393	-0.154760	0.580731
H57	H	1.682950	-0.682387	0.285573
H58	H	2.182950	-0.182387	0.785573
H59	H	1.635101	-0.671477	0.089321
H60	H	2.135101	-0.171477	0.589321
H61	H	2.050808	-0.480771	-0.175140
H62	H	2.550808	0.019229	0.324860
O63	O	1.667714	0.000042	-0.416642
O64	O	2.167714	0.500042	0.083358
C65	C	1.682552	0.000023	-0.257640
C66	C	2.182552	0.500023	0.242360
H67	H	1.813207	0.033841	-0.270940
H68	H	2.313207	0.533841	0.229060
H69	H	1.586083	0.051892	-0.175561
H70	H	2.086083	0.551892	0.324439
H71	H	1.660362	-0.085679	-0.197843
H72	H	2.160362	0.414321	0.302157
H73	H	2.085694	-0.000018	-0.590284
H74	H	2.585694	0.499982	-0.090284
H75	H	1.466257	-0.000005	-0.209705
H76	H	1.966257	0.499995	0.290295
