data_functionalizedCrystal
_audit_creation_method	'MofGen! by Chris Wilmer'
_symmetry_space_group_name_H-M	'P1'
_symmetry_Int_Tables_number	1
_symmetry_cell_setting	triclinic
loop_
_symmetry_equiv_pos_as_xyz
  x,y,z
_cell_length_a	14.519709
_cell_length_b	14.044190
_cell_length_c	13.101018
_cell_angle_alpha	86.339369
_cell_angle_beta	93.362947
_cell_angle_gamma	88.435961
loop_
_atom_site_label
_atom_site_type_symbol
_atom_site_fract_x
_atom_site_fract_y
_atom_site_fract_z
O1	O	1.238537	0.119059	0.085091
O2	O	0.971243	0.133692	0.085124
O3	O	1.100873	-0.011615	0.085088
O4	O	1.108907	0.264366	0.085127
O5	O	1.091562	-0.001180	-0.085340
O6	O	0.961931	0.144126	-0.085304
O7	O	1.229225	0.129494	-0.085336
Zn8	Zn	1.094100	0.138467	-0.112379
Zn9	Zn	1.106368	0.124719	0.112167
O10	O	1.099595	0.274800	-0.085301
C11	C	0.932172	0.138227	-0.000086
C12	C	0.829627	0.136182	-0.000074
C13	C	0.454121	0.128661	-0.000122
C14	C	0.558599	0.130750	-0.000109
C15	C	0.641871	0.132421	-0.000097
C16	C	0.746355	0.134511	-0.000086
C17	C	1.092704	-0.041718	-0.000129
C18	C	1.082224	-0.146961	-0.000136
C19	C	1.137391	-0.397156	-0.000103
C20	C	1.063082	-0.339653	-0.000101
C21	C	1.073735	-0.232430	-0.000121
C22	C	1.126739	-0.504390	-0.000083
C23	C	1.268296	0.124959	-0.000124
C24	C	1.370842	0.127003	-0.000129
C25	C	1.107764	0.304903	-0.000082
C26	C	1.118245	0.410146	-0.000067
N27	N	1.085733	0.147849	-0.265626
C28	C	1.126119	0.102560	-0.525547
C29	C	1.074358	0.160614	-0.474659
C30	C	1.080689	0.153510	-0.358342
C31	C	1.119790	0.109664	-0.641874
N32	N	1.114741	0.115329	0.265413
H33	H	0.991462	-0.370951	-0.000086
H34	H	1.175185	0.047527	-0.481760
H35	H	1.209005	-0.365860	-0.000122
Br36	Br	0.992576	0.252349	-0.547645
