data_functionalizedCrystal
_audit_creation_method	'MofGen! by Chris Wilmer'
_symmetry_space_group_name_H-M	'P1'
_symmetry_Int_Tables_number	1
_symmetry_cell_setting	triclinic
loop_
_symmetry_equiv_pos_as_xyz
  x,y,z
_cell_length_a	10.654550
_cell_length_b	22.010155
_cell_length_c	10.654550
_cell_angle_alpha	89.995547
_cell_angle_beta	84.484931
_cell_angle_gamma	90.005296
loop_
_atom_site_label
_atom_site_type_symbol
_atom_site_fract_x
_atom_site_fract_y
_atom_site_fract_z
O1	O	1.667850	0.050480	0.176382
O2	O	1.302372	0.050491	0.193188
O3	O	1.493514	0.050481	0.002045
O4	O	1.476708	0.050489	0.367524
O5	O	1.493479	-0.050569	0.002074
O6	O	1.302337	-0.050560	0.193216
O7	O	1.667815	-0.050571	0.176410
Cu8	Cu	1.485073	-0.059792	0.184816
Cu9	Cu	1.485114	0.059712	0.184782
O10	O	1.476673	-0.050561	0.367553
C11	C	1.255556	-0.000033	0.191968
C12	C	1.116113	-0.000029	0.188276
N13	N	1.485053	-0.143844	0.184839
C14	C	1.036628	-0.000028	0.300818
C15	C	0.905607	-0.000039	0.297341
C16	C	0.933570	-0.000048	0.068772
C17	C	1.064588	-0.000042	0.072250
C18	C	1.569757	-0.563628	0.100156
C19	C	1.569763	-0.627236	0.100148
O20	O	1.641731	-0.660131	0.028163
N21	N	1.485113	-0.659051	0.184756
C22	C	1.400444	-0.627256	0.269369
O23	O	1.328442	-0.660159	0.341333
C24	C	1.400433	-0.563650	0.269371
C25	C	1.485097	-0.531837	0.184766
C26	C	1.654413	-0.531815	0.015558
C27	C	1.654408	-0.468212	0.015568
C28	C	1.569748	-0.436422	0.100177
C29	C	1.485092	-0.468234	0.184776
C30	C	1.315758	-0.531856	0.353977
C31	C	1.315754	-0.468245	0.353971
C32	C	1.400418	-0.436433	0.269366
C33	C	1.400427	-0.372840	0.269396
N34	N	1.485077	-0.341025	0.184788
C35	C	1.569737	-0.372815	0.100179
C36	C	1.400471	-0.760834	0.269358
C37	C	1.400487	-0.824439	0.269364
C38	C	1.569805	-0.824414	0.100140
C39	C	1.569794	-0.760808	0.100142
C40	C	1.485121	-0.729018	0.184750
C41	C	1.569722	-0.239244	0.100208
C42	C	1.569714	-0.175635	0.100230
C43	C	1.400392	-0.175666	0.269448
C44	C	1.400404	-0.239269	0.269431
C45	C	1.485074	-0.271056	0.184801
O46	O	1.328493	-0.339905	0.341340
O47	O	1.641715	-0.339905	0.028216
C48	C	1.714631	-0.000046	0.177630
C49	C	1.854074	-0.000046	0.181322
C50	C	1.492263	-0.000044	-0.044738
C51	C	1.488571	-0.000043	-0.184181
N52	N	1.485144	0.143764	0.184749
C53	C	1.601112	-0.000046	-0.263667
C54	C	1.597636	-0.000038	-0.394688
C55	C	1.369066	-0.000027	-0.366725
C56	C	1.372544	-0.000030	-0.235706
C57	C	1.477925	-0.000035	0.414336
C58	C	1.481616	-0.000032	0.553779
H59	H	1.078574	-0.000022	0.395294
H60	H	1.274601	-0.000018	-0.408693
Br61	Br	1.172472	-0.000051	-0.080497
H62	H	1.638739	-0.850310	0.031245
H63	H	1.638734	-0.734910	0.031249
H64	H	1.331560	-0.850337	0.338270
H65	H	1.689279	-0.000040	-0.459401
Br66	Br	1.684632	-0.282374	-0.014649
H67	H	1.280893	-0.000026	-0.170985
H68	H	1.638661	-0.149735	0.031334
Br69	Br	1.285555	-0.717697	0.384202
H70	H	1.723354	-0.557694	-0.053347
Br71	Br	1.200852	-0.575017	0.468802
Br72	Br	1.200828	-0.425107	0.468798
H73	H	1.723345	-0.442314	-0.053328
H74	H	1.695588	-0.000055	-0.221720
H75	H	0.840894	-0.000039	0.388984
Br76	Br	1.285517	-0.282442	0.384272
Br77	Br	1.285503	-0.132511	0.384275
H78	H	0.891602	-0.000063	-0.025693
