data_functionalizedCrystal
_audit_creation_method	'MofGen! by Chris Wilmer'
_symmetry_space_group_name_H-M	'P1'
_symmetry_Int_Tables_number	1
_symmetry_cell_setting	triclinic
loop_
_symmetry_equiv_pos_as_xyz
  x,y,z
_cell_length_a	10.540539
_cell_length_b	10.540535
_cell_length_c	12.376457
_cell_angle_alpha	78.594279
_cell_angle_beta	78.605562
_cell_angle_gamma	95.475433
loop_
_atom_site_label
_atom_site_type_symbol
_atom_site_fract_x
_atom_site_fract_y
_atom_site_fract_z
O1	O	-0.154779	1.709997	-0.093935
O2	O	-0.171637	1.340588	-0.093950
O3	O	0.021499	1.533721	-0.093943
O4	O	-0.347915	1.516864	-0.093942
O5	O	-0.026719	1.485454	0.094067
O6	O	-0.219855	1.292321	0.094060
O7	O	-0.202997	1.661731	0.094075
Zn8	Zn	-0.219081	1.469363	0.123918
Zn9	Zn	-0.155553	1.532956	-0.123793
O10	O	-0.396133	1.468598	0.094068
C11	C	-0.194482	1.269152	0.000053
C12	C	-0.190701	1.128205	0.000047
C13	C	-0.049688	1.091533	0.000051
C14	C	-0.045823	0.944820	0.000489
C15	C	-0.282556	0.891357	0.107215
C16	C	-0.285577	1.038102	0.107294
C17	C	-0.232794	1.092876	-0.106517
C18	C	-0.225914	0.946888	-0.107914
C19	C	-0.419327	1.493995	0.000063
C20	C	-0.560275	1.497777	0.000064
C21	C	-0.743589	1.642805	-0.000365
C22	C	-0.597082	1.638860	0.000067
C23	C	-0.649475	1.402320	0.107421
C24	C	-0.796040	1.407115	0.107502
C25	C	-0.741710	1.459133	-0.106301
C26	C	-0.594366	1.458195	-0.107711
C27	C	0.044693	1.508324	0.000059
C28	C	0.185644	1.504544	0.000051
C29	C	-0.180151	1.733167	0.000069
C30	C	-0.183930	1.874116	0.000068
N31	N	-0.262438	1.425971	0.292975
N32	N	-0.112186	1.576357	-0.292850
C33	C	-0.011518	1.677082	0.647969
C34	C	0.018827	1.707445	0.529630
C35	C	-0.051486	1.637079	0.470461
C36	C	-0.152150	1.536346	0.529641
C37	C	-0.182506	1.505987	0.647992
C38	C	-0.222474	1.465983	0.470483
C39	C	-0.323138	1.365250	0.529664
C40	C	-0.353487	1.334895	0.648003
C41	C	-0.283174	1.405261	0.707172
C42	C	-0.192118	1.496342	0.352133
C43	C	-0.363106	1.325246	0.352156
C44	C	-0.393451	1.294883	0.470494
H45	H	0.024166	1.153225	-0.076775
H46	H	-0.627385	1.428983	0.187321
H47	H	-0.533055	1.528198	-0.187133
N48	N	-0.462054	1.226245	0.711835
H49	H	-0.547017	1.246942	0.691237
H50	H	-0.441148	1.141355	0.691218
H51	H	-0.153809	0.938636	-0.187183
H52	H	-0.628147	1.297688	0.111410
H53	H	-0.307877	1.380537	0.803534
H54	H	-0.844827	1.436692	0.187757
N55	N	0.127391	1.816086	0.465806
H56	H	0.196661	1.779675	0.416706
H57	H	0.090812	1.885281	0.416769
N58	N	-0.514490	1.735811	-0.101858
H59	H	-0.418947	1.733433	-0.101766
H60	H	-0.533146	1.712339	-0.172983
N61	N	0.064300	1.752981	0.711784
H62	H	0.029790	1.718465	0.795733
H63	H	0.159807	1.742819	0.691111
H64	H	-0.420364	1.267950	0.303981
H65	H	-0.258148	1.057632	0.187694
H66	H	-0.016121	1.115294	0.076775
N67	N	-0.357233	0.884257	-0.116924
H68	H	-0.391527	0.807483	-0.050838
H69	H	-0.420503	0.950417	-0.116199
N70	N	-0.424055	1.067062	0.113347
H71	H	-0.454963	1.100566	0.183682
H72	H	-0.427011	1.135452	0.044415
N73	N	-0.861251	1.271064	0.113956
H74	H	-0.794749	1.208244	0.116742
H75	H	-0.933616	1.243338	0.184325
H76	H	-0.026774	1.661805	0.374104
N77	N	-0.502020	1.186236	0.534329
H78	H	-0.510573	1.177686	0.618276
H79	H	-0.586918	1.207010	0.513646
H80	H	0.029512	0.935197	-0.076303
H81	H	-0.254272	0.839905	0.187260
N82	N	0.001261	0.880837	0.102829
H83	H	0.091754	0.924737	0.099798
H84	H	-0.060485	0.889764	0.173671
N85	N	-0.418611	0.827380	0.112105
H86	H	-0.417622	0.786506	0.044751
H87	H	-0.449203	0.757565	0.184023
N88	N	-0.146916	1.176737	-0.214135
H89	H	-0.079849	1.238489	-0.194898
H90	H	-0.101022	1.119004	-0.260620
H91	H	-0.568475	1.357003	-0.114200
N92	N	-0.369864	1.122618	-0.107911
H93	H	-0.432196	1.069357	-0.037247
H94	H	-0.372738	1.218728	-0.110901
N95	N	-0.755300	1.742801	-0.102359
H96	H	-0.850638	1.748956	-0.100893
H97	H	-0.709174	1.830759	-0.100945
N98	N	-0.809615	1.690288	0.101050
H99	H	-0.805547	1.626702	0.172554
H100	H	-0.763522	1.779168	0.100044
N101	N	-0.567952	1.683894	0.102188
H102	H	-0.588175	1.776155	0.098884
H103	H	-0.623629	1.624093	0.173160
N104	N	-0.755848	1.547279	-0.214096
H105	H	-0.809498	1.617548	-0.195077
H106	H	-0.666464	1.589111	-0.260679
H107	H	-0.788734	1.357405	-0.107018
H108	H	-0.110158	1.578360	0.303959
