data_functionalizedCrystal
_audit_creation_method	'MofGen! by Chris Wilmer'
_symmetry_space_group_name_H-M	'P1'
_symmetry_Int_Tables_number	1
_symmetry_cell_setting	triclinic
loop_
_symmetry_equiv_pos_as_xyz
  x,y,z
_cell_length_a	10.540514
_cell_length_b	10.540539
_cell_length_c	10.065875
_cell_angle_alpha	98.880198
_cell_angle_beta	81.164041
_cell_angle_gamma	84.520326
loop_
_atom_site_label
_atom_site_type_symbol
_atom_site_fract_x
_atom_site_fract_y
_atom_site_fract_z
O1	O	1.704313	0.160253	-0.113504
O2	O	1.334895	0.177142	-0.113503
O3	O	1.528032	-0.016009	-0.113502
O4	O	1.511176	0.353405	-0.113505
O5	O	1.491205	0.020971	0.113487
O6	O	1.298068	0.214123	0.113486
O7	O	1.667486	0.197233	0.113484
Zn8	Zn	1.476930	0.211550	0.149524
Zn9	Zn	1.525451	0.162826	-0.149543
O10	O	1.474349	0.390385	0.113483
C11	C	1.269178	0.194373	-0.000008
C12	C	1.128228	0.190604	-0.000008
C13	C	1.057523	0.328743	-0.000012
C14	C	0.910995	0.324784	-0.000534
C15	C	0.956881	0.094399	-0.129384
C16	C	1.103437	0.099236	-0.129486
C17	C	1.061959	0.139247	0.128652
C18	C	0.914705	0.138190	0.130345
C19	C	1.508354	-0.044822	-0.000010
C20	C	1.504574	-0.185771	-0.000017
C21	C	1.359737	-0.369268	-0.000526
C22	C	1.363488	-0.222567	-0.000015
C23	C	1.551440	-0.226317	0.129604
C24	C	1.546607	-0.372844	0.129713
C25	C	1.591356	-0.415416	-0.128415
C26	C	1.592934	-0.268714	-0.130129
C27	C	1.733203	0.180002	-0.000013
C28	C	1.874154	0.183770	-0.000023
C29	C	1.494027	0.419198	-0.000011
C30	C	1.497809	0.560145	-0.000013
N31	N	1.443824	0.244801	0.353630
N32	N	1.558566	0.129564	-0.353648
C33	C	1.513925	0.174387	0.421409
C34	C	1.488456	0.199989	0.578576
H35	H	0.935288	-0.009957	-0.133828
N36	N	1.547855	-0.235184	-0.257167
H37	H	1.522833	-0.315043	-0.311314
H38	H	1.470551	-0.166521	-0.230463
N39	N	1.663041	0.024593	0.569107
H40	H	1.729393	0.063861	0.509805
H41	H	1.706223	-0.018846	0.636017
N42	N	1.339339	0.349756	0.430873
H43	H	1.335953	0.353165	0.532199
H44	H	1.359084	0.435853	0.405967
N45	N	1.124292	0.004560	0.130339
H46	H	1.057091	-0.057547	0.127531
H47	H	1.195115	-0.022995	0.048205
H48	H	0.929953	0.125469	-0.226024
H49	H	0.853290	0.393605	0.092176
H50	H	1.077540	0.201210	0.226734
H51	H	1.071015	0.399893	0.092741
H52	H	0.889191	0.036680	0.138542
H53	H	1.102780	0.368870	-0.092643
N54	N	1.383974	0.304957	0.655812
H55	H	1.297675	0.285714	0.631034
H56	H	1.380702	0.308316	0.757113
N57	N	1.618369	0.069393	0.344166
H58	H	1.621745	0.065973	0.242840
H59	H	1.704626	0.088663	0.369032
H60	H	0.884397	0.363074	-0.093813
N61	N	0.839823	0.224970	0.257098
H62	H	0.787345	0.171766	0.314901
H63	H	0.902129	0.267772	0.311026
N64	N	1.305879	-0.427208	-0.123646
H65	H	1.222453	-0.462252	-0.092710
H66	H	1.288726	-0.358362	-0.180379
H67	H	1.147410	0.133303	-0.226557
H68	H	1.152339	-0.003137	-0.135008
H69	H	1.325139	-0.195097	-0.092933
H70	H	1.289236	-0.384411	0.091907
N71	N	1.272234	-0.147150	0.123272
H72	H	1.229418	-0.209185	0.177502
H73	H	1.322326	-0.091758	0.182228
H74	H	1.647120	-0.419863	0.135593
N75	N	1.459320	-0.389295	0.258056
H76	H	1.424336	-0.301484	0.314028
H77	H	1.385113	-0.436485	0.232830
H78	H	1.654267	-0.203188	0.134423
N79	N	1.551987	-0.478400	-0.258554
H80	H	1.613276	-0.461510	-0.339643
H81	H	1.555203	-0.574715	-0.260243
N82	N	1.468242	-0.149055	0.257372
H83	H	1.375315	-0.165717	0.258659
H84	H	1.499258	-0.175869	0.340162
N85	N	1.730873	-0.238345	-0.140509
H86	H	1.738074	-0.170088	-0.060656
H87	H	1.789831	-0.319404	-0.139396
H88	H	1.693403	-0.462793	-0.129287
