data_functionalizedCrystal
_audit_creation_method	'MofGen! by Chris Wilmer'
_symmetry_space_group_name_H-M	'P1'
_symmetry_Int_Tables_number	1
_symmetry_cell_setting	triclinic
loop_
_symmetry_equiv_pos_as_xyz
  x,y,z
_cell_length_a	23.096457
_cell_length_b	14.809296
_cell_length_c	14.809374
_cell_angle_alpha	61.588600
_cell_angle_beta	98.957807
_cell_angle_gamma	55.129487
loop_
_atom_site_label
_atom_site_type_symbol
_atom_site_fract_x
_atom_site_fract_y
_atom_site_fract_z
Zr1	Zr	-0.125308	1.187730	0.693455
O2	O	-0.258486	1.414140	0.511786
O3	O	-0.066350	0.961343	0.773884
O4	O	-0.213306	1.187758	0.738170
O5	O	-0.016234	1.187695	0.547532
O6	O	-0.198294	1.187753	0.888607
O7	O	-0.111529	1.187725	0.547500
O8	O	0.064584	0.782738	0.952491
O9	O	-0.279112	1.592710	0.483647
O10	O	-0.051909	1.054447	0.890568
O11	O	0.008006	1.054428	0.778323
O12	O	-0.165016	1.321002	0.736275
O13	O	-0.105102	1.320983	0.624030
Zr14	Zr	0.050619	1.187674	0.933435
Zr15	Zr	-0.101366	1.187722	0.933384
Zr16	Zr	0.026677	1.187681	0.693507
Zr17	Zr	-0.158205	1.472528	0.648577
Zr18	Zr	0.083516	0.902876	0.978314
O19	O	-0.008339	1.414061	0.853007
O20	O	-0.224443	1.414129	0.852934
O21	O	-0.042382	1.414071	0.511859
O22	O	0.183797	0.961263	1.115105
O23	O	-0.032307	0.961332	1.115032
O24	O	0.149754	0.961274	0.773957
O25	O	-0.058455	1.187708	1.079359
O26	O	0.138617	1.187646	0.888721
O27	O	0.123605	1.187651	0.738284
O28	O	0.036840	1.187678	1.079391
O29	O	-0.260081	1.592704	0.674359
O30	O	0.185392	0.782700	0.952532
O31	O	0.204423	0.782694	1.143244
O32	O	0.083615	0.782732	1.143203
O33	O	-0.158304	1.592671	0.483688
O34	O	-0.139273	1.592665	0.674399
O35	O	0.090327	1.054402	0.890616
O36	O	0.030413	1.054421	1.002861
O37	O	-0.082695	1.320976	0.848568
O38	O	-0.022780	1.320957	0.736323
C39	C	0.003804	0.831463	0.869582
C40	C	0.017770	0.710559	0.888634
C41	C	-0.030133	0.625232	0.823279
C42	C	-0.044564	0.750185	0.803600
C43	C	-0.227455	1.187762	0.813381
C44	C	-0.291977	1.187783	0.813359
C45	C	-0.314000	1.187783	0.896238
C46	C	-0.374602	1.187751	0.896269
C47	C	-0.413191	1.187751	0.813397
C48	C	-0.391158	1.187742	0.730512
C49	C	-0.330550	1.187758	0.730493
N50	N	-0.551388	1.274612	0.701446
N51	N	-0.608963	1.274600	0.701468
C52	C	-0.595796	1.187700	0.813451
N53	N	-0.522886	1.100832	0.925415
N54	N	-0.465308	1.100850	0.925392
C55	C	-0.478910	1.187733	0.813409
C56	C	-0.683529	1.187664	0.896370
C57	C	-0.744128	1.187624	0.896402
C58	C	-0.760690	1.187630	0.730634
C59	C	-0.700085	1.187655	0.730614
C60	C	-0.661511	1.187680	0.813480
C61	C	0.152766	1.187641	0.813510
C62	C	0.217288	1.187621	0.813531
C63	C	-0.067293	1.187711	0.513331
C64	C	-0.077457	1.187714	0.411475
C65	C	-0.078493	1.543941	0.757309
C66	C	-0.092459	1.664845	0.738257
C67	C	-0.032096	1.187700	0.366081
C68	C	-0.042600	1.187703	0.260807
C69	C	-0.007396	1.187692	1.113560
C70	C	0.002768	1.187689	1.215416
C71	C	0.033752	0.831453	1.169696
C72	C	0.057882	0.710546	1.290605
C73	C	0.193915	0.831402	0.869646
C74	C	0.272402	0.710478	0.888720
C75	C	0.223863	0.831393	1.169760
C76	C	0.312514	0.710465	1.290691
C77	C	-0.298552	1.544010	0.457130
C78	C	-0.387203	1.664938	0.336200
C79	C	-0.108441	1.543950	0.457194
C80	C	-0.132571	1.664858	0.336286
C81	C	-0.268604	1.544001	0.757245
C82	C	-0.347091	1.664926	0.738171
C83	C	0.026236	0.653780	1.288769
C84	C	0.048892	0.540190	1.402363
C85	C	0.103198	0.483361	1.517793
C86	C	0.134843	0.540138	1.519626
C87	C	0.112183	0.653733	1.406031
C88	C	0.352238	0.653677	0.956293
C89	C	0.425988	0.540071	0.974208
C90	C	0.419903	0.483261	0.924557
C91	C	0.340058	0.540073	0.856975
C92	C	0.266308	0.653684	0.839053
C93	C	0.322872	0.653686	1.406081
C94	C	0.406163	0.540077	1.519715
C95	C	0.479095	0.483242	1.517956
C96	C	0.468734	0.540032	1.402552
C97	C	0.385443	0.653646	1.288920
C98	C	-0.397563	1.721731	0.220807
C99	C	-0.480857	1.835375	0.107168
C100	C	-0.553791	1.892217	0.108926
C101	C	-0.543428	1.835419	0.224331
C102	C	-0.460136	1.721785	0.337966
C103	C	-0.100933	1.721635	0.338120
C104	C	-0.123609	1.835256	0.224521
C105	C	-0.177918	1.892090	0.109090
C106	C	-0.209559	1.835308	0.107259
C107	C	-0.186889	1.721696	0.220855
C108	C	-0.340978	1.721700	0.787839
C109	C	-0.414715	1.835306	0.769941
C110	C	-0.494567	1.892144	0.702367
C111	C	-0.500677	1.835359	0.652699
C112	C	-0.426939	1.721747	0.670605
H113	H	-0.156504	0.791265	0.650901
H114	H	-0.124072	1.187738	0.372397
F115	F	-0.319952	1.661254	0.218908
H116	H	-0.108614	0.876609	0.716238
F117	F	0.546363	0.479528	1.400700
F118	F	0.374433	0.714056	1.166118
H119	H	-0.621608	1.984745	0.016388
F120	F	-0.449122	1.661345	0.460773
F121	F	-0.491867	1.895799	-0.015639
F122	F	-0.676648	1.187666	0.642396
F123	F	0.245261	0.714161	1.407981
H124	H	-0.602821	1.881714	0.225748
H125	H	-0.097835	1.881469	0.226037
H126	H	-0.056707	1.675370	0.432100
H127	H	-0.792105	1.187621	0.663164
F128	F	0.028827	1.187692	0.417140
F129	F	0.101483	0.545318	1.002836
F130	F	-0.573039	2.013065	0.683317
F131	F	0.567736	0.362320	1.638904
H132	H	0.049379	1.187682	0.254481
H133	H	-0.409724	1.881529	0.810388
H134	H	-0.253780	1.881599	0.013259
F135	F	-0.398045	1.187752	0.984484
F136	F	-0.220563	1.661273	0.218885
H137	H	-0.196371	1.984599	0.016601
F138	F	-0.256001	1.661229	0.859762
F139	F	-0.585670	1.895876	0.580773
H140	H	-0.431929	1.675534	0.630151
H141	H	0.033908	0.498811	0.910642
H142	H	0.414584	0.493850	1.613671
F143	F	-0.272945	1.187800	0.984435
H144	H	-0.312619	1.187758	0.663002
F145	F	-0.432224	1.187735	0.642319
H146	H	-0.089218	1.187726	0.221733
H147	H	-0.652118	1.187677	0.963849
H148	H	-0.017992	0.700049	1.194789
H149	H	-0.762055	1.187614	0.963899
F150	F	0.015207	0.479780	1.400387
H151	H	0.121644	0.390863	1.610280
F152	F	0.192642	0.479636	1.642487
H153	H	0.357208	0.699919	0.996728
F154	F	0.145875	0.714128	1.408006
H155	H	0.490994	0.493828	1.029243
H156	H	0.335116	0.493801	0.816553
F157	F	0.181345	0.714118	0.767138
F158	F	0.498403	0.362343	0.943643
