data_functionalizedCrystal
_audit_creation_method	'MofGen! by Chris Wilmer'
_symmetry_space_group_name_H-M	'P1'
_symmetry_Int_Tables_number	1
_symmetry_cell_setting	triclinic
loop_
_symmetry_equiv_pos_as_xyz
  x,y,z
_cell_length_a	14.395555
_cell_length_b	14.395555
_cell_length_c	20.016444
_cell_angle_alpha	59.995751
_cell_angle_beta	90.001603
_cell_angle_gamma	60.002087
loop_
_atom_site_label
_atom_site_type_symbol
_atom_site_fract_x
_atom_site_fract_y
_atom_site_fract_z
Zr1	Zr	0.894854	1.016892	-0.087747
O2	O	0.746520	1.210698	-0.194432
O3	O	0.940328	0.823086	-0.055034
O4	O	0.940315	1.016901	-0.194425
O5	O	0.746541	1.016876	0.054903
O6	O	1.093182	1.016908	-0.194427
O7	O	0.746533	1.016883	-0.055042
O8	O	1.093205	0.670208	0.054917
O9	O	0.746518	1.363576	-0.194441
O10	O	1.073803	0.902806	-0.041094
O11	O	0.959726	0.902795	0.040959
O12	O	0.959711	1.130988	-0.123156
O13	O	0.845634	1.130977	-0.041103
Zr14	Zr	1.138672	1.016891	0.087599
Zr15	Zr	1.138659	1.016903	-0.087751
Zr16	Zr	0.894867	1.016880	0.087603
Zr17	Zr	0.894851	1.260714	-0.087760
Zr18	Zr	1.138676	0.773069	0.087612
O19	O	1.093198	1.210697	0.054887
O20	O	1.093180	1.210714	-0.194438
O21	O	0.746538	1.210682	0.054892
O22	O	1.287006	0.823085	0.194285
O23	O	1.286988	0.823101	-0.055040
O24	O	0.940346	0.823069	0.194290
O25	O	1.286986	1.016907	-0.055051
O26	O	1.093211	1.016882	0.194277
O27	O	0.940344	1.016875	0.194280
O28	O	1.286994	1.016900	0.054894
O29	O	0.940311	1.363585	-0.194444
O30	O	1.093216	0.670198	0.194296
O31	O	1.287008	0.670207	0.194293
O32	O	1.286998	0.670216	0.054913
O33	O	0.746528	1.363567	-0.055061
O34	O	0.940321	1.363575	-0.055065
O35	O	1.073815	0.902795	0.123008
O36	O	1.187892	0.902806	0.040955
O37	O	1.073800	1.130988	-0.041107
O38	O	0.959723	1.130977	0.040946
C39	C	1.016767	0.711907	-0.000057
C40	C	1.016769	0.608398	-0.000051
C41	C	0.954553	0.485921	0.044660
C42	C	1.061829	0.471644	0.077109
C43	C	0.909512	0.624013	-0.032462
C44	C	1.124097	0.409683	0.032397
C45	C	0.971703	0.562114	-0.077217
C46	C	1.079043	0.547791	-0.044787
C47	C	0.711800	1.016878	-0.000069
C48	C	0.608298	1.016873	-0.000067
C49	C	0.609917	0.892458	0.044675
C50	C	0.516903	0.954650	0.077098
C51	C	0.516884	0.954686	-0.032466
C52	C	0.516647	1.079065	0.032401
C53	C	0.516642	1.079084	-0.077206
C54	C	0.423610	1.141367	-0.044803
C55	C	1.321727	1.016905	-0.000079
C56	C	1.425229	1.016910	-0.000081
C57	C	1.016747	1.016906	-0.219410
C58	C	1.016742	1.016911	-0.293850
C59	C	1.016759	1.321876	-0.000091
C60	C	1.016758	1.425385	-0.000097
C61	C	0.957206	1.136005	-0.507942
C62	C	0.957216	1.135999	-0.577883
C63	C	1.076327	0.897769	-0.492198
C64	C	1.076324	0.897776	-0.422258
C65	C	1.016757	1.016898	-0.430134
C66	C	1.016769	1.016885	-0.570014
C67	C	1.016780	1.016878	-0.645847
C68	C	1.016748	1.016905	-0.354296
C69	C	1.016779	1.016877	0.219262
C70	C	1.016785	1.016872	0.293702
C71	C	1.321731	0.711921	-0.000062
C72	C	1.425234	0.608417	-0.000058
C73	C	1.016783	0.711893	0.219279
C74	C	1.016790	0.608379	0.293725
C75	C	1.321747	0.711906	0.219274
C76	C	1.425256	0.608397	0.293718
C77	C	0.711779	1.321877	-0.219422
C78	C	0.608271	1.425386	-0.293866
C79	C	0.711796	1.321862	-0.000086
C80	C	0.608292	1.425366	-0.000090
C81	C	1.016743	1.321890	-0.219427
C82	C	1.016736	1.425404	-0.293873
C83	C	1.076347	0.559768	0.371522
C84	C	1.076349	0.462519	0.441479
C85	C	1.016800	0.413877	0.433637
C86	C	0.957236	0.462498	0.355832
C87	C	0.957228	0.559751	0.285877
C88	C	1.533422	0.559794	0.285848
C89	C	1.630688	0.462550	0.355790
C90	C	1.619786	0.413904	0.433601
C91	C	1.511609	0.462517	0.441470
C92	C	1.414345	0.559766	0.371529
C93	C	0.500105	1.474001	-0.285995
C94	C	0.402838	1.571276	-0.355937
C95	C	0.413740	1.619926	-0.433749
C96	C	0.521917	1.571307	-0.441618
C97	C	0.619181	1.474041	-0.371677
C98	C	1.076296	1.474016	-0.286005
C99	C	1.076312	1.571265	-0.355949
C100	C	1.016760	1.619908	-0.433759
C101	C	0.957199	1.571287	-0.441626
C102	C	0.957190	1.474033	-0.371683
C103	C	1.548027	0.547860	0.044657
C104	C	1.578891	0.409744	0.077066
C105	C	1.578787	0.562164	-0.032506
C106	C	1.454734	0.471601	0.032397
C107	C	1.454634	0.624094	-0.077219
C108	C	1.485424	0.485988	-0.044828
H109	H	0.933559	0.599328	-0.142443
Br110	Br	0.536693	1.637345	-0.547227
Br111	Br	0.867009	0.440485	0.107780
H112	H	1.459766	0.458971	-0.082666
H113	H	0.517606	1.131624	-0.142423
Br114	Br	0.876340	1.408082	-0.382376
H115	H	0.515982	0.902065	0.142329
Br116	Br	1.751801	0.281921	0.528515
H117	H	1.131726	0.574764	-0.082608
Br118	Br	1.157156	0.736112	-0.481517
Br119	Br	0.765975	1.408068	-0.382374
H120	H	1.502749	0.422895	0.504834
Br121	Br	0.876373	1.637327	-0.547233
Br122	Br	1.157193	0.396553	0.547061
Br123	Br	1.157149	0.736119	-0.316652
H124	H	0.515972	0.902083	-0.059862
H125	H	1.099970	0.434371	0.142356
Br126	Br	0.742859	0.717115	0.107818
Br127	Br	1.157126	1.408023	-0.180414
H128	H	1.214840	0.318117	0.059867
H129	H	1.326275	0.599326	0.377949
H130	H	0.517474	1.131607	0.059871
H131	H	1.718762	0.422979	0.349368
Br132	Br	1.590429	0.592990	0.107805
H133	H	0.343978	1.246657	-0.082637
Br134	Br	1.668128	0.256994	0.185773
Br135	Br	0.876374	1.297668	-0.518631
H136	H	0.908725	1.232988	-0.641236
H137	H	0.334532	1.699126	-0.490693
Br138	Br	0.485278	1.407993	-0.180402
H139	H	0.314765	1.610845	-0.349514
Br140	Br	1.157178	0.625754	0.382187
H141	H	1.124813	1.610842	-0.349528
Br142	Br	0.758341	0.776698	-0.078118
H143	H	1.016816	0.334687	0.490606
Br144	Br	0.876426	0.396469	0.345204
Br145	Br	0.876398	0.625707	0.180298
H146	H	1.542320	0.599387	0.222496
H147	H	1.016776	1.699099	-0.490705
Br148	Br	1.365851	0.409215	0.078209
H149	H	1.401094	0.715763	-0.142426
Br150	Br	1.667927	0.624216	-0.078192
