data_functionalizedCrystal
_audit_creation_method	'MofGen! by Chris Wilmer'
_symmetry_space_group_name_H-M	'P1'
_symmetry_Int_Tables_number	1
_symmetry_cell_setting	triclinic
loop_
_symmetry_equiv_pos_as_xyz
  x,y,z
_cell_length_a	16.109295
_cell_length_b	10.268362
_cell_length_c	16.109301
_cell_angle_alpha	90.006707
_cell_angle_beta	96.539666
_cell_angle_gamma	89.998345
loop_
_atom_site_label
_atom_site_type_symbol
_atom_site_fract_x
_atom_site_fract_y
_atom_site_fract_z
O1	O	-1.103135	0.108216	0.106846
O2	O	-0.853135	0.358216	0.356846
O3	O	-0.603135	0.608216	0.606846
O4	O	-0.353135	0.858216	0.856846
O5	O	-0.861072	0.108238	0.120150
O6	O	-0.611072	0.358238	0.370150
O7	O	-0.361072	0.608238	0.620150
O8	O	-0.111072	0.858238	0.870150
O9	O	-0.988753	0.108213	-0.007533
O10	O	-0.738753	0.358213	0.242467
O11	O	-0.488753	0.608213	0.492467
O12	O	-0.238753	0.858213	0.742467
O13	O	-0.975454	0.108241	0.234529
O14	O	-0.725454	0.358241	0.484529
O15	O	-0.475454	0.608241	0.734529
O16	O	-0.225454	0.858241	0.984529
O17	O	-0.988742	-0.108388	-0.007539
O18	O	-0.738742	0.141612	0.242461
O19	O	-0.488742	0.391612	0.492461
O20	O	-0.238742	0.641612	0.742461
O21	O	-0.861061	-0.108362	0.120145
O22	O	-0.611061	0.141638	0.370145
O23	O	-0.361061	0.391638	0.620145
O24	O	-0.111061	0.641638	0.870145
O25	O	-1.103124	-0.108385	0.106840
O26	O	-0.853124	0.141615	0.356840
O27	O	-0.603124	0.391615	0.606840
O28	O	-0.353124	0.641615	0.856840
Cu29	Cu	-0.982091	-0.128151	0.113492
Cu30	Cu	-0.732091	0.121849	0.363492
Cu31	Cu	-0.482091	0.371849	0.613492
Cu32	Cu	-0.232091	0.621849	0.863492
Cu33	Cu	-0.982105	0.128004	0.113498
Cu34	Cu	-0.732105	0.378004	0.363498
Cu35	Cu	-0.482105	0.628004	0.613498
Cu36	Cu	-0.232105	0.878004	0.863498
O37	O	-0.975443	-0.108360	0.234524
O38	O	-0.725443	0.141640	0.484524
O39	O	-0.475443	0.391640	0.734524
O40	O	-0.225443	0.641640	0.984524
C41	C	-0.830092	-0.000059	0.119609
C42	C	-0.580092	0.249941	0.369609
C43	C	-0.330092	0.499941	0.619609
C44	C	-0.080092	0.749941	0.869609
C45	C	-0.737796	-0.000051	0.117996
C46	C	-0.487796	0.249949	0.367996
C47	C	-0.237796	0.499949	0.617996
C48	C	0.012204	0.749949	0.867996
N49	N	-0.982088	-0.308317	0.113487
N50	N	-0.732088	-0.058317	0.363487
N51	N	-0.482088	0.191683	0.613487
N52	N	-0.232088	0.441683	0.863487
C53	C	-0.515523	-0.000057	0.190008
C54	C	-0.265523	0.249943	0.440008
C55	C	-0.015523	0.499943	0.690008
C56	C	0.234477	0.749943	0.940008
C57	C	-0.428803	-0.000065	0.188486
C58	C	-0.178803	0.249935	0.438486
C59	C	0.071197	0.499935	0.688486
C60	C	0.321197	0.749935	0.938486
C61	C	-0.448677	-0.000077	0.036996
C62	C	-0.198677	0.249923	0.286996
C63	C	0.051323	0.499923	0.536996
C64	C	0.301323	0.749923	0.786996
C65	C	-0.535396	-0.000078	0.038520
C66	C	-0.285396	0.249922	0.288520
C67	C	-0.035396	0.499922	0.538520
C68	C	0.214604	0.749922	0.788520
C69	C	-0.568816	-0.000061	0.115028
C70	C	-0.318816	0.249939	0.365028
C71	C	-0.068816	0.499939	0.615028
C72	C	0.181184	0.749939	0.865028
C73	C	-0.395377	-0.000068	0.111982
C74	C	-0.145377	0.249932	0.361982
C75	C	0.104623	0.499932	0.611982
C76	C	0.354623	0.749932	0.861982
C77	C	-0.301351	-0.000077	0.110331
C78	C	-0.051351	0.249923	0.360331
C79	C	0.198649	0.499923	0.610331
C80	C	0.448649	0.749923	0.860331
C81	C	-0.662849	-0.000055	0.116679
C82	C	-0.412849	0.249945	0.366679
C83	C	-0.162849	0.499945	0.616679
C84	C	0.087151	0.749945	0.866679
C85	C	-0.982100	-0.573987	0.113496
C86	C	-0.732100	-0.323987	0.363496
C87	C	-0.482100	-0.073987	0.613496
C88	C	-0.232100	0.176013	0.863496
C89	C	-0.982091	-0.426150	0.113494
C90	C	-0.732091	-0.176150	0.363494
C91	C	-0.482091	0.073850	0.613494
C92	C	-0.232091	0.323850	0.863494
C93	C	-0.134104	-0.000083	0.107386
C94	C	0.115896	0.249917	0.357386
C95	C	0.365896	0.499917	0.607386
C96	C	0.615896	0.749917	0.857386
C97	C	-0.226397	-0.000078	0.109014
C98	C	0.023603	0.249922	0.359014
C99	C	0.273603	0.499922	0.609014
C100	C	0.523603	0.749922	0.859014
C101	C	-0.988209	-0.000088	-0.038511
C102	C	-0.738209	0.249912	0.211489
C103	C	-0.488209	0.499912	0.461489
C104	C	-0.238209	0.749912	0.711489
C105	C	-0.986594	-0.000090	-0.130806
C106	C	-0.736594	0.249910	0.119194
C107	C	-0.486594	0.499910	0.369194
C108	C	-0.236594	0.749910	0.619194
N109	N	-0.982114	0.308170	0.113496
N110	N	-0.732114	0.558170	0.363496
N111	N	-0.482114	0.808170	0.613496
N112	N	-0.232114	1.058170	0.863496
C113	C	-1.058602	-0.000076	-0.353080
C114	C	-0.808602	0.249924	-0.103080
C115	C	-0.558602	0.499924	0.146920
C116	C	-0.308602	0.749924	0.396920
C117	C	-1.057078	-0.000065	-0.439800
C118	C	-0.807078	0.249935	-0.189800
C119	C	-0.557078	0.499935	0.060200
C120	C	-0.307078	0.749935	0.310200
C121	C	-0.905588	-0.000056	-0.419923
C122	C	-0.655588	0.249944	-0.169923
C123	C	-0.405588	0.499944	0.080077
C124	C	-0.155588	0.749944	0.330077
C125	C	-0.907113	-0.000057	-0.333204
C126	C	-0.657113	0.249943	-0.083204
C127	C	-0.407113	0.499943	0.166796
C128	C	-0.157113	0.749943	0.416796
C129	C	-0.983622	-0.000074	-0.299785
C130	C	-0.733622	0.249926	-0.049785
C131	C	-0.483622	0.499926	0.200215
C132	C	-0.233622	0.749926	0.450215
C133	C	-0.980573	-0.000061	-0.473225
C134	C	-0.730573	0.249939	-0.223225
C135	C	-0.480573	0.499939	0.026775
C136	C	-0.230573	0.749939	0.276775
C137	C	-0.978920	-0.000050	-0.567251
C138	C	-0.728920	0.249950	-0.317251
C139	C	-0.478920	0.499950	-0.067251
C140	C	-0.228920	0.749950	0.182749
C141	C	-0.985276	-0.000083	-0.205754
C142	C	-0.735276	0.249917	0.044246
C143	C	-0.485276	0.499917	0.294246
C144	C	-0.235276	0.749917	0.544246
C145	C	-0.975987	-0.000056	0.265501
C146	C	-0.725987	0.249944	0.515501
C147	C	-0.475987	0.499944	0.765501
C148	C	-0.225987	0.749944	1.015501
C149	C	-0.977602	-0.000046	0.357796
C150	C	-0.727602	0.249954	0.607796
C151	C	-0.477602	0.499954	0.857796
C152	C	-0.227602	0.749954	1.107796
H153	H	-0.542731	-0.000053	0.252306
H154	H	-0.292731	0.249947	0.502306
H155	H	-0.042731	0.499947	0.752306
H156	H	0.207269	0.749947	1.002306
H157	H	-0.421455	-0.000098	-0.025294
H158	H	-0.171455	0.249902	0.224706
H159	H	0.078545	0.499902	0.474706
H160	H	0.328545	0.749902	0.724706
H161	H	-0.846052	-0.000052	-0.289809
H162	H	-0.596052	0.249948	-0.039809
H163	H	-0.346052	0.499948	0.210191
H164	H	-0.096052	0.749948	0.460191
H165	H	-0.578790	-0.000086	-0.022542
H166	H	-0.328790	0.249914	0.227458
H167	H	-0.078790	0.499914	0.477458
H168	H	0.171210	0.749914	0.727458
H169	H	-1.120900	-0.000086	-0.325874
H170	H	-0.870900	0.249914	-0.075874
H171	H	-0.620900	0.499914	0.174126
H172	H	-0.370900	0.749914	0.424126
H173	H	-1.118133	-0.000063	-0.483190
H174	H	-0.868133	0.249937	-0.233190
H175	H	-0.618133	0.499937	0.016810
H176	H	-0.368133	0.749937	0.266810
H177	H	-0.385414	-0.000064	0.249542
H178	H	-0.135414	0.249936	0.499542
H179	H	0.114586	0.499936	0.749542
H180	H	0.364586	0.749936	0.999542
H181	H	-0.843297	-0.000045	-0.447144
H182	H	-0.593297	0.249955	-0.197144
H183	H	-0.343297	0.499955	0.052856
H184	H	-0.093297	0.749955	0.302856
