data_functionalizedCrystal
_audit_creation_method	'MofGen! by Chris Wilmer'
_symmetry_space_group_name_H-M	'P1'
_symmetry_Int_Tables_number	1
_symmetry_cell_setting	triclinic
loop_
_symmetry_equiv_pos_as_xyz
  x,y,z
_cell_length_a	21.395362
_cell_length_b	12.759400
_cell_length_c	21.395355
_cell_angle_alpha	89.986153
_cell_angle_beta	89.956060
_cell_angle_gamma	90.030564
loop_
_atom_site_label
_atom_site_type_symbol
_atom_site_fract_x
_atom_site_fract_y
_atom_site_fract_z
Zn1	Zn	0.957929	-0.417943	-0.354606
Zn2	Zn	0.957861	-0.593607	-0.249837
Zn3	Zn	0.853144	-0.417992	-0.249807
Zn4	Zn	0.853143	-0.593629	-0.354542
O5	O	0.905519	-0.505793	-0.302198
O6	O	1.045598	-0.441215	-0.340747
O7	O	0.943942	-0.570323	-0.162155
O8	O	0.867073	-0.270964	-0.263723
O9	O	1.045548	-0.570275	-0.263774
O10	O	0.944058	-0.270928	-0.340719
O11	O	0.867007	-0.441299	-0.162133
O12	O	0.765466	-0.441320	-0.263661
O13	O	0.867071	-0.570312	-0.442228
O14	O	0.765465	-0.570360	-0.340609
O15	O	0.944057	-0.441236	-0.442275
O16	O	0.943941	-0.740631	-0.263712
O17	O	0.867005	-0.740647	-0.340638
C18	C	0.742732	-0.505848	-0.302125
C19	C	0.673090	-0.505897	-0.302109
C20	C	0.640393	-0.573177	-0.342116
C21	C	0.574958	-0.573152	-0.342144
C22	C	0.542222	-0.505857	-0.302154
C23	C	0.574927	-0.438564	-0.262144
C24	C	0.640361	-0.438584	-0.262122
C25	C	0.438496	-0.497393	-0.245748
C26	C	0.373063	-0.497380	-0.245769
C27	C	0.340401	-0.505788	-0.302223
C28	C	0.373181	-0.514231	-0.358657
C29	C	0.438615	-0.514251	-0.358635
C30	C	0.471270	-0.505827	-0.302174
C31	C	0.236752	-0.573044	-0.342263
C32	C	0.171315	-0.573011	-0.342292
C33	C	0.171286	-0.438428	-0.262287
C34	C	0.236721	-0.438456	-0.262264
C35	C	0.269450	-0.505769	-0.302251
C36	C	0.905482	-0.778760	-0.302185
C37	C	0.905523	-0.895537	-0.302200
C38	C	0.945629	-0.950355	-0.262189
C39	C	0.945667	-1.060079	-0.262209
C40	C	0.865490	-1.060156	-0.342252
C41	C	0.865455	-0.950434	-0.342235
C42	C	0.985697	-0.895458	-0.222154
C43	C	1.025805	-0.950277	-0.182139
C44	C	1.025843	-1.060001	-0.182159
C45	C	0.985774	-1.114906	-0.222193
C46	C	1.068943	-0.505738	-0.302271
C47	C	1.138584	-0.505714	-0.302303
C48	C	0.905571	-0.505771	-0.465621
C49	C	0.905593	-0.505762	-0.535263
C50	C	0.905574	-0.231759	-0.302225
C51	C	0.905597	-0.114983	-0.302236
C52	C	0.945678	-0.438550	-0.568001
C53	C	0.945678	-0.438504	-0.633437
C54	C	0.905598	-0.505691	-0.666131
C55	C	0.865505	-0.572908	-0.633384
C56	C	0.865503	-0.572944	-0.567950
C57	C	0.900638	-0.600292	-0.769799
C58	C	0.900645	-0.600258	-0.835232
C59	C	0.905602	-0.505580	-0.867952
C60	C	0.910566	-0.410932	-0.835230
C61	C	0.910563	-0.410968	-0.769796
C62	C	0.905596	-0.505659	-0.737083
C63	C	0.945688	-0.438312	-0.971643
C64	C	0.945683	-0.438265	-1.037080
C65	C	0.865514	-0.572678	-1.037026
C66	C	0.865516	-0.572716	-0.971591
C67	C	0.905607	-0.505534	-0.938903
C68	C	0.905503	-0.505738	-0.139410
C69	C	0.905603	-0.505451	-0.069770
H70	H	0.346589	-0.521076	-0.404627
C71	C	0.981271	-0.378508	-1.137407
C72	C	0.989741	-0.364367	-1.073070
H73	H	1.008467	-0.332878	-1.159625
H74	H	0.990430	-0.449079	-1.148143
H75	H	0.939174	-0.363141	-1.148087
H76	H	1.031837	-0.379742	-1.062389
H77	H	0.980586	-0.293781	-1.062330
C78	C	0.834882	-0.916612	-0.448286
C79	C	0.821375	-0.890165	-0.386217
H80	H	0.807668	-0.879406	-0.475440
H81	H	0.876966	-0.898551	-0.457495
H82	H	0.829161	-0.989816	-0.454019
H83	H	0.827100	-0.816962	-0.380484
H84	H	0.779280	-0.908219	-0.377005
C85	C	0.070971	-0.378690	-0.226768
C86	C	0.135310	-0.364488	-0.218309
H87	H	0.048760	-0.333052	-0.199609
H88	H	0.060295	-0.363381	-0.268873
H89	H	0.060222	-0.449268	-0.217547
H90	H	0.146060	-0.293911	-0.227534
H91	H	0.145991	-0.379789	-0.176194
H92	H	0.832871	-0.627608	-0.660008
H93	H	0.914603	-0.333903	-0.743157
C94	C	0.759393	-1.094100	-0.372649
C95	C	0.821444	-1.120502	-0.386253
H96	H	0.732200	-1.131350	-0.399816
H97	H	0.750253	-1.112138	-0.330548
H98	H	0.753641	-1.020906	-0.378367
H99	H	0.827197	-1.193695	-0.380530
H100	H	0.830586	-1.102471	-0.428364
C101	C	1.024920	-0.305684	-0.574632
C102	C	0.989738	-0.364693	-0.532072
H103	H	1.052117	-0.260083	-0.552448
H104	H	1.048878	-0.351439	-0.600170
H105	H	0.997624	-0.265498	-0.600135
H106	H	1.017035	-0.404886	-0.506572
H107	H	0.965779	-0.318932	-0.506523
H108	H	0.914603	-0.333836	-0.861869
C109	C	0.781234	-0.587381	-0.897945
C110	C	0.821458	-0.646607	-0.935599
H111	H	0.754030	-0.633000	-0.875728
H112	H	0.805106	-0.547384	-0.869114
H113	H	0.757279	-0.541605	-0.923458
H114	H	0.845417	-0.692378	-0.910085
H115	H	0.797584	-0.686622	-0.964433
C116	C	0.230210	-0.706056	-0.421355
C117	C	0.272732	-0.647018	-0.386225
H118	H	0.252424	-0.751717	-0.448498
H119	H	0.204642	-0.746171	-0.394027
H120	H	0.204734	-0.660317	-0.445373
H121	H	0.298205	-0.692757	-0.362203
H122	H	0.298311	-0.606900	-0.413556
H123	H	1.058432	-0.905568	-0.149548
C124	C	0.097825	-0.587805	-0.426589
C125	C	0.135373	-0.646971	-0.386274
H126	H	0.075640	-0.633468	-0.453743
H127	H	0.068967	-0.547728	-0.402780
H128	H	0.123407	-0.542106	-0.450592
H129	H	0.109791	-0.692665	-0.362267
H130	H	0.164234	-0.687065	-0.410085
H131	H	0.263344	-0.383674	-0.229683
C132	C	0.786265	-0.705807	-0.574471
C133	C	0.821445	-0.646841	-0.531960
H134	H	0.759070	-0.751434	-0.552250
H135	H	0.762305	-0.660026	-0.599968
H136	H	0.813562	-0.745963	-0.600020
H137	H	0.794148	-0.606678	-0.506414
H138	H	0.845407	-0.692627	-0.506453
C139	C	0.379519	-0.480699	-0.134184
C140	C	0.337035	-0.488097	-0.183739
H141	H	0.357277	-0.474961	-0.095890
H142	H	0.405013	-0.541601	-0.133296
H143	H	0.405074	-0.420507	-0.139756
H144	H	0.311484	-0.548293	-0.178170
H145	H	0.311531	-0.427189	-0.184627
H146	H	0.978318	-0.383766	-0.660098
H147	H	0.978329	-0.383603	-0.945027
H148	H	0.465084	-0.490542	-0.199774
H149	H	0.666983	-0.383793	-0.229543
C150	C	1.105087	-1.048899	-0.103035
C151	C	1.069929	-1.120260	-0.138177
H152	H	1.132299	-1.086101	-0.075878
H153	H	1.129027	-1.006039	-0.130355
H154	H	1.077776	-1.006172	-0.079032
H155	H	1.097239	-1.162982	-0.162184
H156	H	1.045987	-1.163138	-0.110854
H157	H	0.985813	-1.204251	-0.222210
H158	H	0.548270	-0.383770	-0.229585
H159	H	0.548330	-0.627939	-0.374725
C160	C	0.512314	-0.434777	-0.428838
C161	C	0.474646	-0.523511	-0.420664
H162	H	0.534560	-0.440493	-0.467132
H163	H	0.486811	-0.373887	-0.429721
H164	H	0.541124	-0.429784	-0.395209
H165	H	0.445832	-0.528500	-0.454292
H166	H	0.500151	-0.584418	-0.419786
H167	H	0.832875	-0.627372	-1.063645
C168	C	0.945419	-0.769421	-0.855402
C169	C	0.895193	-0.704298	-0.871189
H170	H	0.942050	-0.833656	-0.877595
H171	H	0.983563	-0.735814	-0.866157
H172	H	0.944698	-0.782970	-0.811748
H173	H	0.895916	-0.690742	-0.914844
H174	H	0.857038	-0.737912	-0.860439
C175	C	0.838882	-0.753786	-0.749597
C176	C	0.895136	-0.704338	-0.733811
H177	H	0.835472	-0.818009	-0.727374
H178	H	0.804833	-0.709545	-0.738879
H179	H	0.838195	-0.767352	-0.793246
H180	H	0.895821	-0.690764	-0.690163
H181	H	0.929194	-0.748588	-0.744525
C182	C	1.029296	-0.738237	-0.178548
C183	C	0.985658	-0.774849	-0.222134
H184	H	1.029272	-0.663778	-0.178539
H185	H	1.018483	-0.763110	-0.138113
H186	H	1.069730	-0.762980	-0.189439
H187	H	0.945223	-0.750112	-0.211241
H188	H	0.996467	-0.749964	-0.262578
H189	H	0.667037	-0.627988	-0.374678
