data_functionalizedCrystal
_audit_creation_method	'MofGen! by Chris Wilmer'
_symmetry_space_group_name_H-M	'P1'
_symmetry_Int_Tables_number	1
_symmetry_cell_setting	triclinic
loop_
_symmetry_equiv_pos_as_xyz
  x,y,z
_cell_length_a	15.297327
_cell_length_b	19.077241
_cell_length_c	19.076919
_cell_angle_alpha	90.113904
_cell_angle_beta	101.510342
_cell_angle_gamma	77.647063
loop_
_atom_site_label
_atom_site_type_symbol
_atom_site_fract_x
_atom_site_fract_y
_atom_site_fract_z
Zn1	Zn	-0.332118	-1.011713	-0.483504
Zn2	Zn	0.167882	-0.511713	0.016496
Zn3	Zn	-0.478730	-0.995791	-0.384952
Zn4	Zn	0.021270	-0.495791	0.115048
Zn5	Zn	-0.331635	-0.898996	-0.361219
Zn6	Zn	0.168365	-0.398996	0.138781
Zn7	Zn	-0.490932	-0.871899	-0.499265
Zn8	Zn	0.009068	-0.371899	0.000735
O9	O	-0.408354	-0.944600	-0.432235
O10	O	0.091646	-0.444600	0.067765
O11	O	-0.346661	-1.108622	-0.473767
O12	O	0.153339	-0.608622	0.026233
O13	O	-0.453909	-0.987628	-0.282787
O14	O	0.046091	-0.487628	0.217213
O15	O	-0.203675	-0.931952	-0.360911
O16	O	0.296325	-0.431952	0.139089
O17	O	-0.454376	-1.096925	-0.401361
O18	O	0.045624	-0.596925	0.098639
O19	O	-0.204030	-1.014764	-0.450754
O20	O	0.295970	-0.514764	0.049246
O21	O	-0.345839	-0.916513	-0.265350
O22	O	0.154161	-0.416513	0.234650
O23	O	-0.357672	-0.796380	-0.376195
O24	O	0.142328	-0.296380	0.123805
O25	O	-0.475174	-0.885769	-0.596191
O26	O	0.024826	-0.385769	-0.096191
O27	O	-0.474706	-0.776472	-0.477617
O28	O	0.025294	-0.276472	0.022383
O29	O	-0.358493	-0.988489	-0.584611
O30	O	0.141507	-0.488489	-0.084611
O31	O	-0.608372	-0.961354	-0.416645
O32	O	-0.108372	-0.461354	0.083355
O33	O	-0.617338	-0.870331	-0.500630
O34	O	-0.117338	-0.370331	-0.000630
C35	C	-0.417461	-0.760751	-0.426041
C36	C	0.082539	-0.260751	0.073959
C37	C	-0.421381	-0.682096	-0.423411
C38	C	0.078619	-0.182096	0.076589
C39	C	-0.367237	-0.651218	-0.459954
C40	C	0.132763	-0.151218	0.040046
C41	C	-0.370915	-0.577314	-0.457477
C42	C	0.129085	-0.077314	0.042523
C43	C	-0.428742	-0.534288	-0.418459
C44	C	0.071258	-0.034288	0.081541
C45	C	-0.482888	-0.565171	-0.381912
C46	C	0.017112	-0.065171	0.118088
C47	C	-0.479204	-0.639074	-0.384386
C48	C	0.020796	-0.139074	0.115614
C49	C	-0.445756	-0.312608	-0.407005
C50	C	0.054244	0.187392	0.092995
C51	C	-0.449438	-0.238700	-0.404535
C52	C	0.050562	0.261300	0.095465
C53	C	-0.337463	-0.250848	-0.480099
C54	C	0.162537	0.249152	0.019901
C55	C	-0.333789	-0.324752	-0.482573
C56	C	0.166211	0.175248	0.017427
C57	C	-0.387931	-0.355629	-0.446023
C58	C	0.112069	0.144371	0.053977
N59	N	-0.432505	-0.458745	-0.415927
N60	N	0.067495	0.041255	0.084073
N61	N	-0.384163	-0.431171	-0.448551
N62	N	0.115837	0.068829	0.051449
C63	C	-0.646050	-0.911193	-0.462939
C64	C	-0.146050	-0.411193	0.037061
C65	C	-0.747736	-0.896964	-0.476100
C66	C	-0.247736	-0.396964	0.023900
C67	C	-1.015573	-1.046571	-0.338421
C68	C	-0.515573	-0.546571	0.161579
C69	C	-0.920034	-1.059939	-0.326051
C70	C	-0.420034	-0.559939	0.173949
C71	C	-0.876955	-1.019197	-0.363563
C72	C	-0.376955	-0.519197	0.136437
C73	C	-0.929424	-0.965084	-0.413445
C74	C	-0.429424	-0.465084	0.086555
C75	C	-1.024972	-0.951711	-0.425812
C76	C	-0.524972	-0.451711	0.074188
C77	C	-0.886354	-0.924336	-0.450954
C78	C	-0.386354	-0.424336	0.049046
C79	C	-0.938822	-0.870223	-0.500836
C80	C	-0.438822	-0.370223	-0.000836
C81	C	-1.034361	-0.856853	-0.513201
C82	C	-0.534361	-0.356853	-0.013201
C83	C	-1.077440	-0.897596	-0.475689
C84	C	-0.577440	-0.397596	0.024311
C85	C	-0.790805	-0.937709	-0.438587
C86	C	-0.290805	-0.437709	0.061413
C87	C	-0.800204	-0.842849	-0.525978
C88	C	-0.300204	-0.342849	-0.025978
C89	C	-0.895743	-0.829481	-0.538347
C90	C	-0.395743	-0.329481	-0.038347
C91	C	-0.169729	-0.978156	-0.401427
C92	C	0.330271	-0.478156	0.098573
C93	C	-0.068042	-0.992456	-0.388298
C94	C	0.431958	-0.492456	0.111702
C95	C	-0.418248	-0.935883	-0.616793
C96	C	0.081752	-0.435883	-0.116793
C97	C	-0.422465	-0.932168	-0.695441
C98	C	0.077535	-0.432168	-0.195441
C99	C	-0.399206	-0.129168	-0.438447
C100	C	0.100794	0.370832	0.061553
C101	C	-0.395294	-0.207822	-0.441078
C102	C	0.104706	0.292178	0.058922
C103	C	-0.363699	-0.983901	-0.726362
C104	C	0.136301	-0.483901	-0.226362
C105	C	-0.367658	-0.980402	-0.800260
C106	C	0.132342	-0.480402	-0.300260
C107	C	-0.430388	-0.925173	-0.843235
C108	C	0.069612	-0.425173	-0.343235
C109	C	-0.489156	-0.873435	-0.812309
C110	C	0.010844	-0.373435	-0.312309
C111	C	-0.485192	-0.876931	-0.738412
C112	C	0.014808	-0.376931	-0.238412
C113	C	-0.448753	-0.908979	-1.064888
C114	C	0.051247	-0.408979	-0.564888
C115	C	-0.452714	-0.905488	-1.138790
C116	C	0.047286	-0.405488	-0.638790
C117	C	-0.331215	-1.012455	-1.126736
C118	C	0.168785	-0.512455	-0.626736
C119	C	-0.327260	-1.015949	-1.052839
C120	C	0.172740	-0.515949	-0.552839
C121	C	-0.386025	-0.964209	-1.021918
C122	C	0.113975	-0.464209	-0.521918
N123	N	-0.434438	-0.921597	-0.918770
N124	N	0.065562	-0.421597	-0.418770
N125	N	-0.381970	-0.967783	-0.946384
N126	N	0.118030	-0.467783	-0.446384
C127	C	-0.398430	-0.953333	-0.248387
C128	C	0.101570	-0.453333	0.251613
C129	C	-0.393948	-0.957221	-0.169711
C130	C	0.106052	-0.457221	0.330289
H131	H	-0.489844	-0.337739	-0.377244
H132	H	0.010156	0.162261	0.122756
H133	H	-0.319807	-1.022530	-0.825432
H134	H	0.180193	-0.522530	-0.325432
H135	H	-0.533036	-0.834799	-0.713236
H136	H	-0.033036	-0.334799	-0.213236
O137	O	-0.753761	-0.798894	-0.566443
O138	O	-0.253761	-0.298894	-0.066443
H139	H	-0.710549	-0.834930	-0.597902
H140	H	-0.210549	-0.334930	-0.097902
O141	O	-0.556808	-0.813862	-0.858660
O142	O	-0.056808	-0.313862	-0.358660
H143	H	-0.627250	-0.816563	-0.854152
H144	H	-0.127250	-0.316563	-0.354152
O145	O	-0.279056	-0.217545	-0.519506
O146	O	0.220944	0.282455	-0.019506
H147	H	-0.323673	-0.176415	-0.559623
H148	H	0.176327	0.323585	-0.059623
H149	H	-0.276182	-1.060924	-1.017853
H150	H	0.223818	-0.560924	-0.517853
O151	O	-0.267808	-1.068242	-1.160079
O152	O	0.232192	-0.568242	-0.660079
H153	H	-0.281088	-1.056528	-1.218682
H154	H	0.218912	-0.556528	-0.718682
H155	H	-0.320150	-0.686244	-0.491729
H156	H	0.179850	-0.186244	0.008271
O157	O	-0.863442	-1.118305	-0.272261
O158	O	-0.363442	-0.618305	0.227739
H159	H	-0.909446	-1.144396	-0.248261
H160	H	-0.409446	-0.644396	0.251739
O161	O	-0.545254	-0.518765	-0.339825
O162	O	-0.045254	-0.018765	0.160175
H163	H	-0.582277	-0.552655	-0.314824
H164	H	-0.082277	-0.052655	0.185176
O165	O	-0.520369	-0.845913	-1.185146
O166	O	-0.020369	-0.345913	-0.685146
H167	H	-0.560560	-0.810517	-1.151230
H168	H	-0.060560	-0.310517	-0.651230
H169	H	-0.496616	-0.866857	-1.039724
H170	H	0.003384	-0.366857	-0.539724
H171	H	-0.326827	-0.552176	-0.487235
H172	H	0.173173	-0.052176	0.012765
H173	H	-1.077079	-0.812783	-0.553810
H174	H	-0.577079	-0.312783	-0.053810
H175	H	-0.312621	-1.028877	-0.691377
H176	H	0.187379	-0.528877	-0.191377
H177	H	-1.050657	-1.079734	-0.307880
H178	H	-0.550657	-0.579734	0.192120
H179	H	-0.799162	-1.030084	-0.353488
H180	H	-0.299162	-0.530084	0.146512
O181	O	-0.271404	-0.371162	-0.524643
O182	O	0.228596	0.128838	-0.024643
H183	H	-0.234362	-0.337275	-0.549630
H184	H	0.265638	0.162725	-0.049630
H185	H	-0.496532	-0.203669	-0.372763
H186	H	0.003468	0.296331	0.127237
H187	H	-0.523293	-0.664214	-0.354628
H188	H	-0.023293	-0.164214	0.145372
H189	H	-1.155236	-0.886716	-0.485760
H190	H	-0.655236	-0.386716	0.014240
O191	O	-0.734215	-0.996079	-0.384800
O192	O	-0.234215	-0.496079	0.115200
H193	H	-0.750215	-0.984048	-0.331227
H194	H	-0.250215	-0.484048	0.168773
H195	H	-0.938477	-0.785421	-0.578962
H196	H	-0.438477	-0.285421	-0.078962
