data_functionalizedCrystal
_audit_creation_method	'MofGen! by Chris Wilmer'
_symmetry_space_group_name_H-M	'P1'
_symmetry_Int_Tables_number	1
_symmetry_cell_setting	triclinic
loop_
_symmetry_equiv_pos_as_xyz
  x,y,z
_cell_length_a	12.759395
_cell_length_b	18.050589
_cell_length_c	18.050591
_cell_angle_alpha	90.013707
_cell_angle_beta	90.006457
_cell_angle_gamma	90.029758
loop_
_atom_site_label
_atom_site_type_symbol
_atom_site_fract_x
_atom_site_fract_y
_atom_site_fract_z
Zn1	Zn	1.606024	-0.295709	0.419887
Zn2	Zn	1.605917	-0.419883	0.295707
Zn3	Zn	1.430366	-0.295714	0.295717
Zn4	Zn	1.430273	-0.419865	0.419861
O5	O	1.518145	-0.357793	0.357793
O6	O	1.753031	-0.312186	0.403422
O7	O	1.582623	-0.403421	0.191784
O8	O	1.453751	-0.191789	0.312204
O9	O	1.752952	-0.403416	0.312187
O10	O	1.582806	-0.191785	0.403431
O11	O	1.453646	-0.312195	0.191791
O12	O	1.283332	-0.312178	0.312178
O13	O	1.453594	-0.403386	0.523789
O14	O	1.283264	-0.403391	0.403385
O15	O	1.582717	-0.312169	0.523808
O16	O	1.582533	-0.523805	0.312161
O17	O	1.453489	-0.523792	0.403376
C18	C	1.245177	-0.357784	0.357780
C19	C	1.128401	-0.357798	0.357792
C20	C	1.128369	-0.452932	0.452613
C21	C	1.073492	-0.500504	0.500026
C22	C	0.963770	-0.500513	0.500035
C23	C	0.908923	-0.452943	0.452628
C24	C	0.963800	-0.405370	0.405215
C25	C	1.073524	-0.405368	0.405210
C26	C	0.963832	-0.310234	0.310399
C27	C	1.073553	-0.310227	0.310385
C28	C	0.908984	-0.262664	0.262992
C29	C	0.963861	-0.215093	0.215574
C30	C	1.073589	-0.215087	0.215567
C31	C	1.128430	-0.262655	0.262972
C32	C	1.518018	-0.550745	0.357781
C33	C	1.518060	-0.633291	0.357800
C34	C	1.447955	-0.832761	0.407386
C35	C	1.422362	-0.882191	0.339619
C36	C	1.518163	-0.784421	0.357810
C37	C	1.543807	-0.882074	0.425584
C38	C	1.518261	-0.930406	0.357825
C39	C	1.492520	-0.832763	0.290007
C40	C	1.614010	-0.832642	0.376018
C41	C	1.588454	-0.882049	0.308205
C42	C	1.518104	-0.700323	0.357802
C43	C	1.518320	-1.014503	0.357825
C44	C	1.792178	-0.357803	0.357806
C45	C	1.908955	-0.357807	0.357812
C46	C	1.518157	-0.357775	0.551498
C47	C	1.518162	-0.357768	0.634044
C48	C	1.518301	-0.164087	0.357821
C49	C	1.518367	-0.081541	0.357834
C50	C	1.588387	-0.308176	0.882881
C51	C	1.614036	-0.375927	0.833471
C52	C	1.518161	-0.357795	0.931165
C53	C	1.492563	-0.290035	0.833493
C54	C	1.518164	-0.357778	0.785179
C55	C	1.543859	-0.425581	0.882842
C56	C	1.422342	-0.339644	0.882868
C57	C	1.447953	-0.407441	0.833481
C58	C	1.518162	-0.357804	1.015263
C59	C	1.518163	-0.357777	0.701083
C60	C	1.518135	-0.357820	1.164841
C61	C	1.518160	-0.357806	1.082295
H62	H	0.819582	-0.452948	0.452646
H63	H	1.388567	-0.449443	0.811928
N64	N	1.662992	-0.909047	0.255572
N65	N	1.737677	-0.948586	0.276611
H66	H	1.790317	-0.967657	0.239438
N67	N	1.662922	-0.255600	0.910096
N68	N	1.654357	-0.188675	0.893400
H69	H	1.706997	-0.151545	0.912621
N70	N	1.570982	-0.909261	0.497469
N71	N	1.576127	-0.977469	0.508837
H72	H	1.595312	-0.996670	0.559607
N73	N	1.715613	-0.805326	0.395367
N74	N	1.754678	-0.821074	0.456883
H75	H	1.826437	-0.801782	0.470557
N76	N	1.571137	-0.497487	0.909903
N77	N	1.515834	-0.552285	0.893558
H78	H	1.535101	-0.603067	0.912670
H79	H	1.695069	-0.391275	0.811771
H80	H	1.341332	-0.324274	0.904583
N81	N	1.373353	-0.805604	0.459893
N82	N	1.299621	-0.765182	0.438852
H83	H	1.246931	-0.746000	0.475932
N84	N	1.240446	-0.452943	0.452603
N85	N	1.289404	-0.495421	0.494927
H86	H	1.368560	-0.495432	0.494921
N87	N	1.129533	-0.549084	0.548451
N88	N	1.227499	-0.549071	0.548441
H89	H	1.267077	-0.583377	0.582642
H90	H	1.341353	-0.903971	0.324232
N91	N	1.129643	-0.166479	0.167148
N92	N	1.117433	-0.097961	0.172206
H93	H	1.157019	-0.063629	0.138011
H94	H	1.470912	-0.232739	0.811813
H95	H	0.819643	-0.262671	0.263006
N96	N	0.907726	-0.549106	0.548475
N97	N	0.956701	-0.591571	0.590801
H98	H	0.917120	-0.625890	0.625012
N99	N	1.465209	-0.805716	0.218095
N100	N	1.378585	-0.822151	0.190209
H101	H	1.359289	-0.803051	0.139423
H102	H	0.919196	-0.176362	0.176983
N103	N	1.240507	-0.262654	0.262984
N104	N	1.289495	-0.247224	0.320946
H105	H	1.368651	-0.247224	0.320959
