data_functionalizedCrystal
_audit_creation_method	'MofGen! by Chris Wilmer'
_symmetry_space_group_name_H-M	'P1'
_symmetry_Int_Tables_number	1
_symmetry_cell_setting	triclinic
loop_
_symmetry_equiv_pos_as_xyz
  x,y,z
_cell_length_a	17.077404
_cell_length_b	21.295417
_cell_length_c	17.077396
_cell_angle_alpha	89.966808
_cell_angle_beta	89.981638
_cell_angle_gamma	90.028477
loop_
_atom_site_label
_atom_site_type_symbol
_atom_site_fract_x
_atom_site_fract_y
_atom_site_fract_z
Zn1	Zn	1.200013	-0.250643	-0.443793
Zn2	Zn	1.199903	-0.355916	-0.312516
Zn3	Zn	1.068745	-0.250661	-0.312544
Zn4	Zn	1.068695	-0.355875	-0.443743
O5	O	1.134339	-0.303274	-0.378149
O6	O	1.309845	-0.264618	-0.426389
O7	O	1.182479	-0.341979	-0.202673
O8	O	1.086225	-0.162569	-0.329987
O9	O	1.309764	-0.341962	-0.329940
O10	O	1.182667	-0.162556	-0.426415
O11	O	1.086118	-0.264648	-0.202693
O12	O	0.958891	-0.264608	-0.329938
O13	O	1.086140	-0.341891	-0.553596
O14	O	0.958855	-0.341908	-0.426329
O15	O	1.182619	-0.264578	-0.553633
O16	O	1.182431	-0.444000	-0.329891
O17	O	1.086033	-0.443970	-0.426302
C18	C	0.930391	-0.303256	-0.378131
C19	C	0.843141	-0.303264	-0.378142
C20	C	0.802194	-0.263062	-0.428440
C21	C	0.720214	-0.263066	-0.428443
C22	C	0.679182	-0.303275	-0.378153
C23	C	0.720135	-0.343478	-0.327850
C24	C	0.802114	-0.343471	-0.327843
C25	C	0.549265	-0.343493	-0.327870
C26	C	0.467280	-0.343501	-0.327877
C27	C	0.467365	-0.263088	-0.428470
C28	C	0.549344	-0.263081	-0.428463
C29	C	0.590291	-0.303285	-0.378161
C30	C	1.134236	-0.466826	-0.378105
C31	C	1.134264	-0.536794	-0.378113
C32	C	1.184503	-0.569655	-0.327963
C33	C	1.184539	-0.635398	-0.327981
C34	C	1.134323	-0.668276	-0.378140
C35	C	1.084081	-0.635407	-0.428300
C36	C	1.084051	-0.569665	-0.428286
N37	N	1.065655	-0.771540	-0.384118
N38	N	1.065685	-0.833991	-0.384127
C39	C	1.134411	-0.866351	-0.378185
N40	N	1.203107	-0.833900	-0.372220
N41	N	1.203076	-0.771443	-0.372207
C42	C	1.134350	-0.739562	-0.378161
C43	C	1.184694	-0.970498	-0.328052
C44	C	1.184732	-1.036242	-0.328075
C45	C	1.084267	-1.036249	-0.428390
C46	C	1.084236	-0.970507	-0.428371
C47	C	1.134448	-0.937635	-0.378198
C48	C	1.339083	-0.303292	-0.378167
C49	C	1.426333	-0.303300	-0.378175
C50	C	1.134386	-0.303228	-0.582893
C51	C	1.134407	-0.303208	-0.670143
C52	C	1.134464	-0.139084	-0.378210
C53	C	1.134517	-0.069116	-0.378236
C54	C	1.184645	-0.262948	-0.711154
C55	C	1.184654	-0.262927	-0.793134
C56	C	1.134429	-0.303170	-0.834103
C57	C	1.084185	-0.343432	-0.793086
C58	C	1.084172	-0.343449	-0.711107
C59	C	1.084217	-0.343394	-0.963956
C60	C	1.084231	-0.343377	-1.045941
C61	C	1.184699	-0.262871	-1.045984
C62	C	1.184686	-0.262889	-0.964005
C63	C	1.134443	-0.303152	-0.922994
C64	C	1.134337	-0.303275	-0.174201
C65	C	1.134469	-0.303117	-0.086952
H66	H	0.433874	-0.376243	-0.286927
H67	H	1.225648	-1.062997	-0.287238
H68	H	1.043255	-0.376227	-0.677717
H69	H	0.434021	-0.230352	-0.469426
O70	O	0.593434	-0.386856	-0.273619
H71	H	0.551131	-0.414823	-0.238656
H72	H	1.043196	-0.662180	-0.469141
H73	H	1.225583	-0.943733	-0.287200
H74	H	1.043384	-1.063018	-0.469234
O75	O	1.030042	-0.935062	-0.482459
H76	H	1.038461	-0.883825	-0.474027
O77	O	0.846449	-0.219690	-0.482677
H78	H	0.804200	-0.191731	-0.517645
H79	H	0.686720	-0.376214	-0.286899
O80	O	0.676046	-0.219706	-0.482691
H81	H	0.718351	-0.191751	-0.517666
H82	H	0.835452	-0.376206	-0.286885
H83	H	1.225390	-0.542893	-0.287111
H84	H	0.582750	-0.230343	-0.469418
H85	H	1.225565	-0.230144	-0.826522
H86	H	1.043291	-0.376170	-0.930568
O87	O	1.238821	-0.219541	-0.666975
H88	H	1.278737	-0.247728	-0.629628
O89	O	1.238737	-0.670860	-0.273905
H90	H	1.203642	-0.700870	-0.233952
O91	O	1.029849	-0.534215	-0.482364
H92	H	0.994929	-0.568119	-0.517242
O93	O	1.238859	-0.219488	-0.919812
H94	H	1.273795	-0.191485	-0.962100
H95	H	1.225607	-0.230087	-1.079379
H96	H	1.043331	-0.376145	-1.079295
O97	O	1.030005	-0.386832	-0.837270
H98	H	1.065116	-0.418860	-0.874609
