data_functionalizedCrystal
_audit_creation_method	'MofGen! by Chris Wilmer'
_symmetry_space_group_name_H-M	'P1'
_symmetry_Int_Tables_number	1
_symmetry_cell_setting	triclinic
loop_
_symmetry_equiv_pos_as_xyz
  x,y,z
_cell_length_a	19.805407
_cell_length_b	19.120786
_cell_length_c	19.805399
_cell_angle_alpha	92.468930
_cell_angle_beta	90.024201
_cell_angle_gamma	92.464129
loop_
_atom_site_label
_atom_site_type_symbol
_atom_site_fract_x
_atom_site_fract_y
_atom_site_fract_z
Zn1	Zn	1.023243	-0.279660	0.371297
Zn2	Zn	1.523243	0.220340	0.871297
Zn3	Zn	1.018331	-0.397119	0.253277
Zn4	Zn	1.518331	0.102881	0.753277
Zn5	Zn	0.910057	-0.279678	0.258112
Zn6	Zn	1.410057	0.220322	0.758112
Zn7	Zn	0.905196	-0.397080	0.366416
Zn8	Zn	1.405196	0.102920	0.866416
O9	O	0.964207	-0.338384	0.312276
O10	O	1.464207	0.161616	0.812276
O11	O	1.117308	-0.295250	0.355661
O12	O	1.617308	0.204750	0.855661
O13	O	1.003947	-0.381564	0.159201
O14	O	1.503947	0.118436	0.659201
O15	O	0.929162	-0.181385	0.277193
O16	O	1.429162	0.318615	0.777193
O17	O	1.113699	-0.381547	0.268952
O18	O	1.613699	0.118453	0.768952
O19	O	1.012319	-0.181372	0.360350
O20	O	1.512319	0.318628	0.860350
O21	O	0.924399	-0.295281	0.162753
O22	O	1.424399	0.204719	0.662753
O23	O	0.814696	-0.295243	0.272460
O24	O	1.314696	0.204757	0.772460
O25	O	0.920877	-0.381480	0.461781
O26	O	1.420877	0.118520	0.961781
O27	O	0.811125	-0.381498	0.352030
O28	O	1.311125	0.118502	0.852030
O29	O	1.007606	-0.295212	0.465367
O30	O	1.507606	0.204788	0.965367
O31	O	0.999234	-0.495404	0.264218
O32	O	1.499234	0.004596	0.764218
O33	O	0.916114	-0.495376	0.347341
O34	O	1.416114	0.004624	0.847341
C35	C	0.788352	-0.338369	0.312240
C36	C	1.288352	0.161631	0.812240
C37	C	0.713119	-0.338379	0.312240
C38	C	1.213119	0.161621	0.812240
C39	C	0.249483	-0.383382	0.353680
C40	C	0.749483	0.116618	0.853680
C41	C	0.320171	-0.383381	0.353665
C42	C	0.820171	0.116619	0.853665
C43	C	0.357357	-0.338401	0.312301
C44	C	0.857357	0.161599	0.812301
C45	C	0.323850	-0.293425	0.270944
C46	C	0.823850	0.206575	0.770944
C47	C	0.253163	-0.293431	0.270955
C48	C	0.753163	0.206569	0.770955
C49	C	0.608924	-0.293404	0.270897
C50	C	1.108924	0.206596	0.770897
C51	C	0.679616	-0.293401	0.270890
C52	C	1.179616	0.206599	0.770890
C53	C	0.675933	-0.383354	0.353607
C54	C	1.175933	0.116646	0.853607
C55	C	0.605245	-0.383359	0.353619
C56	C	1.105245	0.116641	0.853619
C57	C	0.571745	-0.338386	0.312259
C58	C	1.071745	0.161614	0.812259
C59	C	0.495096	-0.338389	0.312274
C60	C	0.995096	0.161611	0.812274
C61	C	0.434004	-0.338395	0.312289
C62	C	0.934004	0.161605	0.812289
C63	C	0.956632	-0.520875	0.304740
C64	C	1.456632	-0.020875	0.804740
C65	C	0.953453	-0.598946	0.301539
C66	C	1.453453	-0.098946	0.801539
C67	C	0.995223	-0.635556	0.343365
C68	C	1.495223	-0.135556	0.843365
C69	C	0.992233	-0.708912	0.340359
C70	C	1.492233	-0.208912	0.840359
C71	C	0.947477	-0.745655	0.295522
C72	C	1.447477	-0.245655	0.795522
C73	C	0.905702	-0.709040	0.253694
C74	C	1.405702	-0.209040	0.753694
C75	C	0.908689	-0.635686	0.256704
C76	C	1.408689	-0.135686	0.756704
C77	C	0.936291	-0.967141	0.284268
C78	C	1.436291	-0.467141	0.784268
C79	C	0.933309	-1.040500	0.281259
C80	C	1.433309	-0.540500	0.781259
C81	C	1.019840	-1.040367	0.367925
C82	C	1.519840	-0.540367	0.867925
C83	C	1.022825	-0.967011	0.370929
C84	C	1.522825	-0.467011	0.870929
C85	C	0.981048	-0.930402	0.329103
C86	C	1.481048	-0.430402	0.829103
C87	C	0.944421	-0.820636	0.292446
C88	C	1.444421	-0.320636	0.792446
C89	C	0.984101	-0.855422	0.332183
C90	C	1.484101	-0.355422	0.832183
C91	C	1.140749	-0.338401	0.312311
C92	C	1.640749	0.161599	0.812311
C93	C	1.215981	-0.338408	0.312327
C94	C	1.715981	0.161592	0.812327
C95	C	0.964247	-0.338340	0.488820
C96	C	1.464247	0.161660	0.988820
C97	C	0.964264	-0.338321	0.564053
C98	C	1.464264	0.161679	1.064053
C99	C	0.971831	-0.155181	0.319855
C100	C	1.471831	0.344819	0.819855
C101	C	0.975079	-0.077110	0.323085
C102	C	1.475079	0.422890	0.823085
C103	C	0.964209	-0.338378	0.136420
C104	C	1.464209	0.161622	0.636420
C105	C	0.964331	-0.338199	0.061196
C106	C	1.464331	0.161801	0.561196
C107	C	1.009425	-0.293399	0.601266
C108	C	1.509425	0.206601	1.101266
C109	C	1.009432	-0.293379	0.671955
C110	C	1.509432	0.206621	1.171955
C111	C	0.964282	-0.338285	0.705430
C112	C	1.464282	0.161715	1.205430
C113	C	0.919117	-0.383209	0.668212
C114	C	1.419117	0.116791	1.168212
C115	C	0.919106	-0.383225	0.597524
C116	C	1.419106	0.116775	1.097524
C117	C	0.919158	-0.383143	0.953288
C118	C	1.419158	0.116857	1.453288
C119	C	0.919173	-0.383125	1.023981
C120	C	1.419173	0.116875	1.523981
C121	C	1.009484	-0.293297	1.027719
C122	C	1.509484	0.206703	1.527719
C123	C	1.009473	-0.293313	0.957031
C124	C	1.509473	0.206687	1.457031
C125	C	0.964306	-0.338234	0.919820
C126	C	1.464306	0.161766	1.419820
C127	C	0.964297	-0.338255	0.843170
C128	C	1.464297	0.161745	1.343170
C129	C	0.964294	-0.338268	0.782078
C130	C	1.464294	0.161732	1.282078
H131	H	0.703217	-0.419975	0.387283
H132	H	1.203217	0.080025	0.887283
H133	H	1.046208	-0.256801	0.702251
H134	H	1.546208	0.243199	1.202251
C135	C	1.059139	-0.243911	0.920213
C136	C	1.559139	0.256089	1.420213
N137	N	1.096546	-0.206697	0.892482
N138	N	1.596546	0.293303	1.392482
C139	C	0.572083	-0.243922	0.225410
C140	C	1.072083	0.256078	0.725410
N141	N	0.544332	-0.206647	0.191149
N142	N	1.044332	0.293353	0.691149
H143	H	0.902276	-0.937339	0.250210
H144	H	1.402276	-0.437339	0.750210
C145	C	0.869470	-0.432555	0.912365
C146	C	1.369470	0.067445	1.412365
N147	N	0.832041	-0.469774	0.881539
N148	N	1.332041	0.030226	1.381539
H149	H	0.907982	-0.850561	0.255938
H150	H	1.407982	-0.350561	0.755938
H151	H	0.354132	-0.256806	0.237261
H152	H	0.854132	0.243194	0.737261
C153	C	0.216311	-0.243954	0.225465
C154	C	0.716311	0.256046	0.725465
N155	N	0.188555	-0.206688	0.191200
N156	N	0.688555	0.293312	0.691200
H157	H	1.031671	-0.605644	0.379874
H158	H	1.531671	-0.105644	0.879874
C159	C	0.869427	-0.432644	0.556591
C160	C	1.369427	0.067356	1.056591
N161	N	0.832006	-0.469866	0.525760
N162	N	1.332006	0.030134	1.025760
C163	C	1.033333	-0.815002	0.381501
C164	C	1.533333	-0.315002	0.881501
N165	N	1.070418	-0.784551	0.418645
N166	N	1.570418	-0.284551	0.918645
C167	C	1.059162	-0.243874	1.068658
C168	C	1.559162	0.256126	1.568658
N169	N	1.096578	-0.206649	1.099493
N170	N	1.596578	0.293351	1.599493
H171	H	1.046193	-0.256834	0.574016
H172	H	1.546193	0.243166	1.074016
H173	H	1.026252	-0.738717	0.374413
H174	H	1.526252	-0.238717	0.874413
C175	C	0.869497	-0.432522	1.060802
C176	C	1.369497	0.067478	1.560802
N177	N	0.832083	-0.469726	1.088536
N178	N	1.332083	0.030274	1.588536
H179	H	1.059270	-0.937096	0.407439
H180	H	1.559270	-0.437096	0.907439
H181	H	1.053851	-1.070182	0.401978
H182	H	1.553851	-0.570182	0.901978
H183	H	0.896860	-1.070415	0.244747
H184	H	1.396860	-0.570415	0.744747
C185	C	0.720519	-0.243922	0.225380
C186	C	1.220519	0.256078	0.725380
N187	N	0.751327	-0.206657	0.191103
N188	N	1.251327	0.293343	0.691103
C189	C	0.856511	-0.749460	0.204331
C190	C	1.356511	-0.249460	0.704331
N191	N	0.819475	-0.779905	0.167134
N192	N	1.319475	-0.279905	0.667134
C193	C	0.862739	-0.595415	0.210691
C194	C	1.362739	-0.095415	0.710691
N195	N	0.828127	-0.565083	0.176034
N196	N	1.328127	-0.065083	0.676034
H197	H	0.219211	-0.420005	0.387367
H198	H	0.719211	0.079995	0.887367
C199	C	0.357020	-0.432858	0.399155
C200	C	0.857020	0.067142	0.899155
N201	N	0.384774	-0.470128	0.433418
N202	N	0.884774	0.029872	0.933418
H203	H	0.882352	-0.419769	0.695473
H204	H	1.382352	0.080231	1.195473
C205	C	0.564345	-0.432845	0.399116
C206	C	1.064345	0.067155	0.899116
N207	N	0.533540	-0.470124	0.433382
N208	N	1.033540	0.029876	0.933382
