data_functionalizedCrystal
_audit_creation_method	'MofGen! by Chris Wilmer'
_symmetry_space_group_name_H-M	'P1'
_symmetry_Int_Tables_number	1
_symmetry_cell_setting	triclinic
loop_
_symmetry_equiv_pos_as_xyz
  x,y,z
_cell_length_a	8.559649
_cell_length_b	14.519709
_cell_length_c	7.681481
_cell_angle_alpha	95.761118
_cell_angle_beta	94.912730
_cell_angle_gamma	103.270595
loop_
_atom_site_label
_atom_site_type_symbol
_atom_site_fract_x
_atom_site_fract_y
_atom_site_fract_z
O1	O	2.104960	0.021481	-0.146415
O2	O	2.604960	0.521481	0.353585
O3	O	1.639890	-0.026138	-0.146434
O4	O	2.139890	0.473862	0.353566
O5	O	1.884761	0.132799	-0.146375
O6	O	2.384761	0.632799	0.353625
O7	O	1.860089	-0.137455	-0.146474
O8	O	2.360089	0.362545	0.353526
O9	O	1.914900	0.152401	0.146490
O10	O	2.414900	0.652401	0.646490
O11	O	1.670030	-0.006536	0.146431
O12	O	2.170030	0.493464	0.646431
O13	O	2.135100	0.041083	0.146450
O14	O	2.635100	0.541083	0.646450
Zn15	Zn	1.907350	0.020386	0.192939
Zn16	Zn	2.407350	0.520386	0.692939
Zn17	Zn	1.867640	-0.005440	-0.192923
Zn18	Zn	2.367640	0.494560	0.307077
O19	O	1.890229	-0.117853	0.146391
O20	O	2.390229	0.382147	0.646391
C21	C	1.595440	-0.019946	-0.000003
C22	C	2.095440	0.480054	0.499997
C23	C	1.418090	-0.030687	-0.000008
C24	C	1.918090	0.469313	0.499992
C25	C	1.898682	0.176877	0.000066
C26	C	2.398682	0.676877	0.500066
C27	C	1.895241	0.279013	0.000093
C28	C	2.395241	0.779013	0.500093
C29	C	1.882567	0.653002	0.000140
C30	C	2.382567	1.153002	0.500140
C31	C	1.886086	0.548946	0.000128
C32	C	2.386086	1.048946	0.500128
C33	C	1.888904	0.466011	0.000118
C34	C	2.388904	0.966011	0.500118
C35	C	1.892424	0.361948	0.000102
C36	C	2.392424	0.861948	0.500102
C37	C	2.179549	0.034891	0.000015
C38	C	2.679549	0.534891	0.500015
C39	C	2.356898	0.045632	0.000008
C40	C	2.856898	0.545632	0.500008
N41	N	1.934463	0.038013	0.456280
N42	N	2.434463	0.538013	0.956280
C43	C	1.876314	0.838072	0.000008
C44	C	2.376314	1.338072	0.500008
C45	C	1.879773	0.735948	0.000157
C46	C	2.379773	1.235948	0.500157
N47	N	1.840540	-0.023059	-0.456264
N48	N	2.340540	0.476941	0.043736
H49	H	1.440196	0.119195	0.000034
H50	H	1.940196	0.619195	0.500034
N51	N	1.713517	-0.105628	0.444121
N52	N	2.213517	0.394372	0.944121
H53	H	1.735519	-0.167616	0.476084
H54	H	2.235519	0.332384	0.976084
H55	H	1.716644	-0.103537	0.313416
H56	H	2.216644	0.396463	0.813416
H57	H	1.334799	-0.104247	-0.000052
H58	H	1.834799	0.395753	0.499948
H59	H	2.030357	0.100349	0.531509
H60	H	2.530357	0.600349	1.031509
