data_functionalizedCrystal
_audit_creation_method	'MofGen! by Chris Wilmer'
_symmetry_space_group_name_H-M	'P1'
_symmetry_Int_Tables_number	1
_symmetry_cell_setting	triclinic
loop_
_symmetry_equiv_pos_as_xyz
  x,y,z
_cell_length_a	13.635800
_cell_length_b	17.982723
_cell_length_c	20.559824
_cell_angle_alpha	91.079724
_cell_angle_beta	58.659962
_cell_angle_gamma	77.552436
loop_
_atom_site_label
_atom_site_type_symbol
_atom_site_fract_x
_atom_site_fract_y
_atom_site_fract_z
V1	V	2.123854	-0.106108	-0.237870
V2	V	2.623854	0.393892	0.262130
O3	O	2.117982	0.004385	-0.233009
O4	O	2.617982	0.504385	0.266991
O5	O	2.096477	-0.209707	-0.236564
O6	O	2.596477	0.290293	0.263436
O7	O	2.148921	-0.104789	-0.341467
O8	O	2.648921	0.395211	0.158533
O9	O	2.065176	-0.101260	-0.127379
O10	O	2.565176	0.398740	0.372621
V11	V	2.359696	-0.092855	-0.224616
V12	V	2.859696	0.407145	0.275384
O13	O	2.267469	-0.135180	-0.266945
O14	O	2.767469	0.364820	0.233055
O15	O	2.441180	-0.063783	-0.195541
O16	O	2.941180	0.436217	0.304459
O17	O	2.275469	0.010745	-0.225922
O18	O	2.775469	0.510745	0.274078
O19	O	2.424266	-0.203348	-0.229477
O20	O	2.924266	0.296652	0.270523
O21	O	2.477073	-0.097703	-0.335107
O22	O	2.977073	0.402297	0.164893
O23	O	2.223026	-0.094174	-0.121018
O24	O	2.723026	0.405826	0.378982
V25	V	2.623854	-0.106108	-0.237870
V26	V	3.123854	0.393892	0.262130
O27	O	2.617982	0.004385	-0.233009
O28	O	3.117982	0.504385	0.266991
O29	O	2.596477	-0.209707	-0.236564
O30	O	3.096477	0.290293	0.263436
O31	O	2.648921	-0.104789	-0.341467
O32	O	3.148921	0.395211	0.158533
O33	O	2.565176	-0.101260	-0.127379
O34	O	3.065176	0.398740	0.372621
V35	V	2.859696	-0.092855	-0.224616
V36	V	3.359696	0.407145	0.275384
O37	O	2.767469	-0.135180	-0.266945
O38	O	3.267469	0.364820	0.233055
O39	O	2.941180	-0.063783	-0.195541
O40	O	3.441180	0.436217	0.304459
O41	O	2.775469	0.010745	-0.225922
O42	O	3.275469	0.510745	0.274078
O43	O	2.924266	-0.203348	-0.229477
O44	O	3.424266	0.296652	0.270523
O45	O	2.977073	-0.097703	-0.335107
O46	O	3.477073	0.402297	0.164893
O47	O	2.723026	-0.094174	-0.121018
O48	O	3.223026	0.405826	0.378982
C49	C	2.016611	-0.234953	-0.232894
C50	C	2.516611	0.265047	0.267106
C51	C	2.035199	-0.319649	-0.232517
C52	C	2.535199	0.180351	0.267483
C53	C	2.242083	-0.843419	-0.233969
C54	C	2.742083	-0.343419	0.266031
C55	C	2.224614	-0.763838	-0.234327
C56	C	2.724614	-0.263838	0.265673
C57	C	2.123105	-0.720160	-0.230694
C58	C	2.623105	-0.220160	0.269306
C59	C	2.039054	-0.756065	-0.226694
C60	C	2.539054	-0.256065	0.273306
C61	C	2.056519	-0.835643	-0.226330
C62	C	2.556519	-0.335643	0.273670
C63	C	1.968616	-0.435134	-0.228159
C64	C	2.468616	0.064866	0.271841
C65	C	1.951158	-0.355551	-0.228525
C66	C	2.451158	0.144449	0.271475
C67	C	2.136711	-0.363330	-0.236156
C68	C	2.636711	0.136670	0.263844
C69	C	2.154176	-0.442908	-0.235792
C70	C	2.654176	0.057092	0.264208
C71	C	2.070121	-0.478805	-0.231788
C72	C	2.570121	0.021195	0.268212
C73	C	2.089062	-0.565095	-0.231399
C74	C	2.589062	-0.065095	0.268601
C75	C	2.104167	-0.633872	-0.231089
C76	C	2.604167	-0.133872	0.268911
C77	C	2.083507	-0.101118	-0.366708
C78	C	2.583507	0.398882	0.133292
C79	C	2.144622	-0.100725	-0.451401
C80	C	2.644622	0.399275	0.048599
C81	C	2.187006	0.035986	-0.229590
C82	C	2.687006	0.535986	0.270410
C83	C	2.158039	0.120681	-0.229972
C84	C	2.658039	0.620681	0.270028
C85	C	2.120109	-0.097847	-0.095774
C86	C	2.620109	0.402153	0.404226
C87	C	2.048613	-0.098236	-0.011080
C88	C	2.548613	0.401764	0.488920
C89	C	1.930480	-0.102226	0.024809
C90	C	2.430480	0.397774	0.524809
C91	C	1.863284	-0.102583	0.104389
C92	C	2.363284	0.397417	0.604389
C93	C	1.914225	-0.098954	0.148078
C94	C	2.414225	0.401046	0.648078
C95	C	2.032368	-0.094961	0.112184
C96	C	2.532368	0.405039	0.612184
C97	C	2.099559	-0.094599	0.032606
C98	C	2.599559	0.405401	0.532606
C99	C	2.543568	-0.168218	-0.982377
C100	C	3.043568	0.331782	-0.482377
C101	C	2.486119	-0.168572	-0.902795
C102	C	2.986119	0.331428	-0.402795
C103	C	2.433724	-0.098944	-0.851919
C104	C	2.933724	0.401056	-0.351919
C105	C	2.438768	-0.028957	-0.880627
C106	C	2.938768	0.471043	-0.380627
C107	C	2.496208	-0.028603	-0.960206
C108	C	2.996208	0.471397	-0.460206
C109	C	2.207115	-0.030383	-0.559690
C110	C	2.707115	0.469617	-0.059690
C111	C	2.149675	-0.030743	-0.480106
C112	C	2.649675	0.469257	0.019894
C113	C	2.197026	-0.170353	-0.502279
C114	C	2.697026	0.329647	-0.002279
C115	C	2.254466	-0.169999	-0.581859
C116	C	2.754466	0.330001	-0.081859
C117	C	2.259500	-0.100012	-0.610560
C118	C	2.759500	0.399988	-0.110560
C119	C	2.321791	-0.099628	-0.696851
C120	C	2.821791	0.400372	-0.196851
C121	C	2.371441	-0.099328	-0.765629
C122	C	2.871441	0.400672	-0.265629
C123	C	2.620109	-0.097847	-0.095774
C124	C	3.120109	0.402153	0.404226
C125	C	2.548613	-0.098236	-0.011080
C126	C	3.048613	0.401764	0.488920
C127	C	2.516611	-0.234953	-0.232894
C128	C	3.016611	0.265047	0.267106
C129	C	2.535199	-0.319649	-0.232517
C130	C	3.035199	0.180351	0.267483
C131	C	2.583507	-0.101118	-0.366708
C132	C	3.083507	0.398882	0.133292
C133	C	2.644622	-0.100725	-0.451401
C134	C	3.144622	0.399275	0.048599
C135	C	2.687006	0.035986	-0.229590
C136	C	3.187006	0.535986	0.270410
C137	C	2.658039	0.120681	-0.229972
C138	C	3.158039	0.620681	0.270028
C139	C	2.636714	-0.363319	-0.236158
C140	C	3.136714	0.136681	0.263842
C141	C	2.654203	-0.442902	-0.235815
C142	C	3.154203	0.057098	0.264185
C143	C	2.570170	-0.478813	-0.231825
C144	C	3.070170	0.021187	0.268175
C145	C	2.468647	-0.435137	-0.228186
C146	C	2.968647	0.064863	0.271814
C147	C	2.451165	-0.355557	-0.228534
C148	C	2.951165	0.144443	0.271466
C149	C	2.766145	-0.104351	-0.495069
C150	C	3.266145	0.395649	0.004931
C151	C	2.823580	-0.103972	-0.574646
C152	C	3.323580	0.396028	-0.074646
C153	C	2.759492	-0.099973	-0.610555
C154	C	3.259492	0.400027	-0.110555
C155	C	2.637957	-0.096345	-0.566881
C156	C	3.137957	0.403655	-0.066881
C157	C	2.580522	-0.096718	-0.487304
C158	C	3.080522	0.403282	0.012696
C159	C	2.729019	0.164351	-0.226333
C160	C	3.229019	0.664351	0.273667
C161	C	2.701804	0.243934	-0.226680
C162	C	3.201804	0.743934	0.273320
C163	C	2.603614	0.279844	-0.230671
C164	C	3.103614	0.779844	0.269329
C165	C	2.532629	0.236169	-0.234308
C166	C	3.032629	0.736169	0.265692
C167	C	2.559839	0.156589	-0.233956
C168	C	3.059839	0.656589	0.266044
H169	H	2.324745	-0.878977	-0.236933
H170	H	2.824745	-0.378977	0.263067
H171	H	2.502039	0.121038	-0.236926
H172	H	3.002039	0.621038	0.263074
H173	H	2.585789	-0.093089	-0.596130
H174	H	3.085789	0.406911	-0.096130
Cl175	Cl	2.781832	-0.497792	-0.240386
Cl176	Cl	3.281832	0.002208	0.259614
Cl177	Cl	2.569424	0.379890	-0.231114
Cl178	Cl	3.069424	0.879890	0.268886
Cl179	Cl	2.609440	-0.255756	-1.046329
Cl180	Cl	3.109440	0.244244	-0.546329
Cl181	Cl	2.330258	-0.718707	-0.239329
Cl182	Cl	2.830258	-0.218707	0.260671
H183	H	2.705147	-0.334091	-0.239402
H184	H	3.205147	0.165909	0.260598
Cl185	Cl	2.831717	-0.099508	-0.710597
Cl186	Cl	3.331717	0.400492	-0.210597
Cl187	Cl	2.281793	-0.497814	-0.240363
Cl188	Cl	2.781793	0.002186	0.259637
H189	H	2.481570	-0.093767	-0.451756
H190	H	2.981570	0.406233	0.048244
H191	H	2.759618	0.279483	-0.223719
H192	H	3.259618	0.779483	0.276281
H193	H	2.482018	-0.225559	-0.879430
H194	H	2.982018	0.274441	-0.379430
H195	H	2.500320	0.028384	-0.983575
H196	H	3.000320	0.528384	-0.483575
H197	H	2.452681	0.265420	-0.237557
H198	H	2.952681	0.765420	0.262443
Cl199	Cl	2.242378	-0.318196	-0.241185
Cl200	Cl	2.742378	0.181804	0.258815
H201	H	1.868494	-0.319990	-0.225565
H202	H	2.368494	0.180010	0.274435
Cl203	Cl	1.862935	-0.480250	-0.223114
Cl204	Cl	2.362935	0.019750	0.276886
Cl205	Cl	2.363013	-0.480293	-0.223166
Cl206	Cl	2.863013	0.019707	0.276834
H207	H	1.956399	-0.720494	-0.223730
H208	H	2.456399	-0.220494	0.276270
H209	H	2.396096	0.027736	-0.839196
H210	H	2.896096	0.527736	-0.339196
Cl211	Cl	1.950859	-0.880774	-0.221304
Cl212	Cl	2.450859	-0.380774	0.278696
Cl213	Cl	1.866411	-0.106787	-0.030097
Cl214	Cl	2.366411	0.393213	0.469903
Cl215	Cl	2.248079	-0.089594	-0.012503
Cl216	Cl	2.748079	0.410406	0.487497
Cl217	Cl	1.714770	-0.107610	0.149495
Cl218	Cl	2.214770	0.392390	0.649495
Cl219	Cl	2.096396	-0.090409	0.167116
Cl220	Cl	2.596396	0.409591	0.667116
H221	H	1.859505	-0.099259	0.212873
H222	H	2.359505	0.400741	0.712873
H223	H	2.808975	0.135124	-0.223083
H224	H	3.308975	0.635124	0.276917
H225	H	2.297131	-0.226697	-0.623280
H226	H	2.797131	0.273303	-0.123280
H227	H	2.192916	-0.227340	-0.478902
H228	H	2.692916	0.272660	0.021098
H229	H	2.107010	0.025960	-0.438683
H230	H	2.607010	0.525960	0.061317
H231	H	2.584420	-0.543613	-0.231542
H232	H	3.084420	-0.043613	0.268458
H233	H	2.211193	0.026605	-0.583048
H234	H	2.711193	0.526605	-0.083048
Cl235	Cl	2.846739	-0.109377	-0.449944
Cl236	Cl	3.346739	0.390623	0.050056
Cl237	Cl	2.323529	-0.300665	-0.223949
Cl238	Cl	2.823529	0.199335	0.276051
H239	H	2.922541	-0.106930	-0.610196
H240	H	3.422541	0.393070	-0.110196
