data_functionalizedCrystal
_audit_creation_method	'MofGen! by Chris Wilmer'
_symmetry_space_group_name_H-M	'P1'
_symmetry_Int_Tables_number	1
_symmetry_cell_setting	triclinic
loop_
_symmetry_equiv_pos_as_xyz
  x,y,z
_cell_length_a	9.065215
_cell_length_b	16.109295
_cell_length_c	7.540329
_cell_angle_alpha	90.000475
_cell_angle_beta	89.997574
_cell_angle_gamma	95.763058
loop_
_atom_site_label
_atom_site_type_symbol
_atom_site_fract_x
_atom_site_fract_y
_atom_site_fract_z
O1	O	1.957447	-0.121894	-0.147448
O2	O	2.457447	0.378106	0.352552
O3	O	1.527919	-0.131896	-0.147455
O4	O	2.027919	0.368104	0.352545
O5	O	1.754487	-0.005954	-0.147454
O6	O	2.254487	0.494046	0.352546
O7	O	1.730879	-0.247836	-0.147449
O8	O	2.230879	0.252164	0.352551
O9	O	1.754474	-0.005952	0.147512
O10	O	2.254474	0.494048	0.647512
O11	O	1.527906	-0.131894	0.147510
O12	O	2.027906	0.368106	0.647510
O13	O	1.957434	-0.121892	0.147517
O14	O	2.457434	0.378108	0.647517
Cu15	Cu	1.742669	-0.126893	0.174446
Cu16	Cu	2.242669	0.373107	0.674446
Cu17	Cu	1.742685	-0.126895	-0.174384
Cu18	Cu	2.242685	0.373105	0.325616
O19	O	1.730866	-0.247834	0.147516
O20	O	2.230866	0.252166	0.647516
C21	C	1.472949	-0.130934	0.000027
C22	C	1.972949	0.369066	0.500027
C23	C	1.309176	-0.128062	0.000024
C24	C	1.809176	0.371938	0.500024
C25	C	1.753526	0.025029	0.000025
C26	C	2.253526	0.525029	0.500025
C27	C	1.750663	0.117347	0.000012
C28	C	2.250663	0.617347	0.500012
C29	C	1.878445	0.338638	-0.000052
C30	C	2.378445	0.838638	0.499948
C31	C	1.875744	0.425380	-0.000081
C32	C	2.375744	0.925380	0.499919
C33	C	1.606934	0.407569	-0.000076
C34	C	2.106934	0.907569	0.499924
C35	C	1.609636	0.320829	-0.000060
C36	C	2.109636	0.820829	0.499940
C37	C	1.745396	0.286367	-0.000038
C38	C	2.245396	0.786367	0.499962
C39	C	1.739992	0.459848	-0.000084
C40	C	2.239992	0.959848	0.499916
C41	C	1.737063	0.553897	-0.000116
C42	C	2.237063	1.053897	0.499884
C43	C	1.748327	0.192312	-0.000010
C44	C	2.248327	0.692312	0.499990
C45	C	2.012404	-0.122854	0.000032
C46	C	2.512404	0.377146	0.500032
C47	C	2.176177	-0.125726	0.000023
C48	C	2.676177	0.374274	0.500023
C49	C	1.731837	0.721184	-0.000009
C50	C	2.231837	1.221184	0.499991
C51	C	1.734726	0.628868	-0.000134
C52	C	2.234726	1.128868	0.499866
N53	N	1.742668	-0.126891	0.419795
N54	N	2.242668	0.373109	0.919795
N55	N	1.742697	-0.126890	-0.419732
N56	N	2.242697	0.373110	0.080268
H57	H	1.984086	0.467937	-0.000095
H58	H	2.484086	0.967937	0.499905
H59	H	1.496402	0.435640	-0.000090
H60	H	1.996402	0.935640	0.499910
H61	H	1.501286	0.278267	-0.000054
H62	H	2.001286	0.778267	0.499946
H63	H	1.988990	0.310582	-0.000038
H64	H	2.488990	0.810582	0.499962
