data_functionalizedCrystal
_audit_creation_method	'MofGen! by Chris Wilmer'
_symmetry_space_group_name_H-M	'P1'
_symmetry_Int_Tables_number	1
_symmetry_cell_setting	triclinic
loop_
_symmetry_equiv_pos_as_xyz
  x,y,z
_cell_length_a	11.792241
_cell_length_b	17.038272
_cell_length_c	10.868271
_cell_angle_alpha	89.994627
_cell_angle_beta	89.999893
_cell_angle_gamma	87.652486
loop_
_atom_site_label
_atom_site_type_symbol
_atom_site_fract_x
_atom_site_fract_y
_atom_site_fract_z
O1	O	1.516303	0.107207	-0.102203
O2	O	1.186930	0.118256	-0.102232
O3	O	1.349659	-0.001093	-0.102208
O4	O	1.353574	0.226555	-0.102227
O5	O	1.349644	-0.001097	0.102436
O6	O	1.186915	0.118251	0.102412
O7	O	1.516288	0.107202	0.102441
Zn8	Zn	1.351599	0.112726	0.134919
Zn9	Zn	1.351618	0.112732	-0.134710
O10	O	1.353559	0.226551	0.102417
C11	C	1.144571	0.117559	0.000086
C12	C	1.018375	0.115482	0.000076
C13	C	1.346090	-0.030239	0.000114
C14	C	1.335466	-0.117079	0.000112
C15	C	0.787328	0.111662	0.000111
C16	C	0.915899	0.113785	0.000092
C17	C	1.433006	-0.166762	0.000122
C18	C	1.423017	-0.248357	0.000110
C19	C	1.315487	-0.280267	0.000096
C20	C	1.217940	-0.230577	0.000083
C21	C	1.227930	-0.148984	0.000086
C22	C	1.280194	-0.526181	0.000076
C23	C	1.270211	-0.607780	0.000076
C24	C	1.475289	-0.625554	0.000101
C25	C	1.485270	-0.543958	0.000112
C26	C	1.387723	-0.494276	0.000092
C27	C	1.305274	-0.363669	0.000087
C28	C	1.397937	-0.410875	0.000092
C29	C	1.558647	0.107899	0.000120
C30	C	1.684843	0.109976	0.000122
C31	C	1.357127	0.255697	0.000093
C32	C	1.367751	0.342537	0.000086
N33	N	1.351594	0.112721	0.318933
N34	N	1.351632	0.112731	-0.318724
C35	C	1.351612	0.112730	0.569939
C36	C	1.351599	0.112728	0.430261
H37	H	1.502445	-0.288806	0.000120
H38	H	1.182643	-0.633757	0.000085
C39	C	1.099657	-0.265678	0.000060
C40	C	1.064575	-0.319334	0.106319
C41	C	0.946289	-0.354434	0.106297
C42	C	0.863086	-0.335879	0.000015
C43	C	0.898167	-0.282221	-0.106252
C44	C	1.016452	-0.247120	-0.106230
H45	H	1.126168	-0.333072	0.185003
H46	H	0.920321	-0.394156	0.184964
H47	H	0.775525	-0.361863	-0.000001
H48	H	0.836573	-0.268483	-0.184936
H49	H	1.042420	-0.207399	-0.184897
C50	C	1.582585	-0.680206	0.000108
C51	C	1.603916	-0.738754	0.106370
C52	C	1.711217	-0.793406	0.106371
C53	C	1.797187	-0.789510	0.000111
C54	C	1.775859	-0.730959	-0.106159
C55	C	1.668558	-0.676307	-0.106160
H56	H	1.540273	-0.741641	0.185038
H57	H	1.727005	-0.836749	0.185040
H58	H	1.876618	-0.829966	0.000112
H59	H	1.839502	-0.728072	-0.184827
H60	H	1.652770	-0.632964	-0.184829
H61	H	1.572832	-0.517984	0.000123
C62	C	1.120636	-0.094328	0.000078
C63	C	1.034681	-0.098208	-0.106199
C64	C	0.927383	-0.043553	-0.106215
C65	C	0.906040	0.014982	0.000045
C66	C	0.991998	0.018864	0.106330
C67	C	1.099295	-0.035791	0.106346
H68	H	1.050478	-0.141541	-0.184867
H69	H	0.863752	-0.046427	-0.184895
H70	H	0.826612	0.055441	0.000033
H71	H	0.976201	0.062197	0.184997
H72	H	1.162926	-0.032917	0.185025
C73	C	1.186996	-0.398778	0.000071
C74	C	1.151928	-0.452444	0.106324
C75	C	1.033652	-0.487557	0.106299
C76	C	0.950443	-0.469005	0.000022
C77	C	0.985509	-0.415337	-0.106239
C78	C	1.103785	-0.380223	-0.106215
H79	H	1.213526	-0.466180	0.185005
H80	H	1.007695	-0.527287	0.184961
H81	H	0.862888	-0.494998	0.000003
H82	H	0.923911	-0.401601	-0.184920
H83	H	1.129743	-0.340494	-0.184877
H84	H	1.520568	-0.140788	0.000141
H85	H	1.485487	-0.384890	0.000076
H86	H	1.200764	-0.485738	0.000060
