data_functionalizedCrystal
_audit_creation_method	'MofGen! by Chris Wilmer'
_symmetry_space_group_name_H-M	'P1'
_symmetry_Int_Tables_number	1
_symmetry_cell_setting	triclinic
loop_
_symmetry_equiv_pos_as_xyz
  x,y,z
_cell_length_a	13.897441
_cell_length_b	11.169417
_cell_length_c	11.169416
_cell_angle_alpha	90.013967
_cell_angle_beta	90.023053
_cell_angle_gamma	90.018542
loop_
_atom_site_label
_atom_site_type_symbol
_atom_site_fract_x
_atom_site_fract_y
_atom_site_fract_z
Zn1	Zn	-0.545375	-1.834924	0.477741
Zn2	Zn	-0.045375	-1.334924	0.977741
Zn3	Zn	-0.384098	-1.834808	0.678464
Zn4	Zn	0.115902	-1.334808	1.178464
Zn5	Zn	-0.384100	-1.634215	0.477796
Zn6	Zn	0.115900	-1.134215	0.977796
Zn7	Zn	-0.545357	-1.634208	0.678384
Zn8	Zn	-0.045357	-1.134208	1.178384
O9	O	-0.464733	-1.734539	0.578096
O10	O	0.035267	-1.234539	1.078096
O11	O	-0.523989	-2.002859	0.504377
O12	O	-0.023989	-1.502859	1.004377
O13	O	-0.249117	-1.808154	0.651902
O14	O	0.250883	-1.308154	1.151902
O15	O	-0.405502	-1.660890	0.309839
O16	O	0.094498	-1.160890	0.809839
O17	O	-0.405499	-2.002773	0.651848
O18	O	0.094501	-1.502773	1.151848
O19	O	-0.523990	-1.808351	0.309798
O20	O	-0.023990	-1.308351	0.809798
O21	O	-0.249118	-1.660778	0.504472
O22	O	0.250882	-1.160778	1.004472
O23	O	-0.405484	-1.466264	0.504395
O24	O	0.094516	-0.966264	1.004395
O25	O	-0.680341	-1.660879	0.651711
O26	O	-0.180341	-1.160879	1.151711
O27	O	-0.523959	-1.466259	0.651765
O28	O	-0.023959	-0.966259	1.151765
O29	O	-0.680355	-1.808344	0.504300
O30	O	-0.180355	-1.308344	1.004300
O31	O	-0.405481	-1.808147	0.846403
O32	O	0.094519	-1.308147	1.346403
O33	O	-0.523957	-1.660767	0.846344
O34	O	-0.023957	-1.160767	1.346344
C35	C	-0.464738	-1.734476	0.889921
C36	C	0.035262	-1.234476	1.389921
C37	C	-0.464772	-1.734559	1.023321
C38	C	0.035228	-1.234559	1.523321
C39	C	-0.464720	-1.422714	0.578078
C40	C	0.035280	-0.922714	1.078078
C41	C	-0.464738	-1.289314	0.578099
C42	C	0.035262	-0.789314	1.078099
C43	C	-0.716326	-1.734624	0.577990
C44	C	-0.216326	-1.234624	1.077990
C45	C	-0.823540	-1.734660	0.577945
C46	C	-0.323540	-1.234660	1.077945
C47	C	-1.019835	-1.734693	0.577864
C48	C	-0.519835	-1.234693	1.077864
C49	C	-0.910602	-1.734671	0.577912
C50	C	-0.410602	-1.234671	1.077912
C51	C	-0.214118	-1.734523	0.578115
C52	C	0.285882	-1.234523	1.078115
C53	C	-0.106905	-1.734719	0.577822
C54	C	0.393095	-1.234719	1.077822
C55	C	-0.464746	-2.047581	0.578115
C56	C	0.035254	-1.547581	1.078115
C57	C	-0.464751	-2.180981	0.578123
C58	C	0.035249	-1.680981	1.078123
C59	C	-0.464759	-1.734622	1.265054
C60	C	0.035241	-1.234622	1.765054
C61	C	-0.464795	-1.734627	1.131654
C62	C	0.035205	-1.234627	1.631654
