data_functionalizedCrystal
_audit_creation_method	'MofGen! by Chris Wilmer'
_symmetry_space_group_name_H-M	'P1'
_symmetry_Int_Tables_number	1
_symmetry_cell_setting	triclinic
loop_
_symmetry_equiv_pos_as_xyz
  x,y,z
_cell_length_a	19.077269
_cell_length_b	16.959453
_cell_length_c	19.076919
_cell_angle_alpha	87.729058
_cell_angle_beta	85.330942
_cell_angle_gamma	87.727950
loop_
_atom_site_label
_atom_site_type_symbol
_atom_site_fract_x
_atom_site_fract_y
_atom_site_fract_z
Zn1	Zn	1.061653	-0.378611	0.355267
Zn2	Zn	1.561653	0.121389	0.855267
Zn3	Zn	1.066307	-0.505685	0.237385
Zn4	Zn	1.566307	-0.005685	0.737385
Zn5	Zn	0.948510	-0.368426	0.242135
Zn6	Zn	1.448510	0.131574	0.742135
Zn7	Zn	0.943738	-0.505646	0.359968
Zn8	Zn	1.443738	-0.005646	0.859968
O9	O	1.005052	-0.439592	0.298689
O10	O	1.505052	0.060408	0.798689
O11	O	1.160917	-0.399747	0.335675
O12	O	1.660917	0.100253	0.835675
O13	O	1.054626	-0.483232	0.139368
O14	O	1.554626	0.016768	0.639368
O15	O	0.963568	-0.259170	0.257162
O16	O	1.463568	0.240830	0.757162
O17	O	1.164336	-0.493108	0.249067
O18	O	1.664336	0.006892	0.749067
O19	O	1.046694	-0.266653	0.340280
O20	O	1.546694	0.233347	0.840280
O21	O	0.968081	-0.382388	0.142857
O22	O	1.468081	0.117612	0.642857
O23	O	0.849231	-0.382349	0.261721
O24	O	1.349231	0.117651	0.761721
O25	O	0.955435	-0.493040	0.457992
O26	O	1.455435	0.006960	0.957992
O27	O	0.845725	-0.483164	0.348292
O28	O	1.345725	0.016836	0.848292
O29	O	1.042067	-0.399709	0.454538
O30	O	1.542067	0.100291	0.954538
O31	O	1.049999	-0.616288	0.253626
O32	O	1.549999	-0.116288	0.753626
O33	O	0.959948	-0.616259	0.343687
O34	O	1.459948	-0.116259	0.843687
C35	C	0.821900	-0.431648	0.306032
C36	C	1.321900	0.068352	0.806032
C37	C	0.743546	-0.428269	0.309191
C38	C	1.243546	0.071731	0.809191
C39	C	0.708515	-0.475204	0.265516
C40	C	1.208515	0.024796	0.765516
C41	C	0.634893	-0.472030	0.268493
C42	C	1.134893	0.027970	0.768493
C43	C	0.596303	-0.421916	0.315141
C44	C	1.096303	0.078084	0.815141
C45	C	0.631339	-0.374979	0.358821
C46	C	1.131339	0.125021	0.858821
C47	C	0.704960	-0.378157	0.355847
C48	C	1.204960	0.121843	0.855847
C49	C	0.375929	-0.407209	0.328881
C50	C	0.875929	0.092791	0.828881
C51	C	0.302304	-0.404032	0.331850
C52	C	0.802304	0.095968	0.831850
C53	C	0.305863	-0.501085	0.241522
C54	C	0.805863	-0.001085	0.741522
C55	C	0.379485	-0.504256	0.238550
C56	C	0.879485	-0.004256	0.738550
C57	C	0.414514	-0.457322	0.282232
C58	C	0.914514	0.042678	0.782232
N59	N	0.521049	-0.418668	0.318184
N60	N	1.021049	0.081332	0.818184
N61	N	0.489767	-0.460574	0.279193
N62	N	0.989767	0.039426	0.779193
C63	C	1.004979	-0.644954	0.298666
C64	C	1.504979	-0.144954	0.798666
C65	C	1.005011	-0.732813	0.298677
C66	C	1.505011	-0.232813	0.798677
C67	C	0.958105	-0.774098	0.345537
C68	C	1.458105	-0.274098	0.845537
C69	C	1.051952	-0.774083	0.251832
C70	C	1.551952	-0.274083	0.751832
C71	C	1.051986	-0.856631	0.251843
C72	C	1.551986	-0.356631	0.751843
C73	C	1.005080	-0.897916	0.298703
C74	C	1.505080	-0.397916	0.798703
C75	C	0.958139	-0.856654	0.345551
C76	C	1.458139	-0.356654	0.845551
C77	C	1.098931	-0.897900	0.205000
C78	C	1.598931	-0.397900	0.705000
C79	C	1.098968	-0.980453	0.205010
C80	C	1.598968	-0.480453	0.705010
C81	C	1.052058	-1.021740	0.251867
C82	C	1.552058	-0.521740	0.751867
C83	C	1.005115	-0.980472	0.298717
C84	C	1.505115	-0.480472	0.798717
C85	C	0.958208	-1.021758	0.345576
C86	C	1.458208	-0.521758	0.845576
C87	C	0.911261	-0.980491	0.392423
C88	C	1.411261	-0.480491	0.892423
C89	C	0.911229	-0.897941	0.392408
C90	C	1.411229	-0.397941	0.892408
C91	C	1.052090	-1.104290	0.251883
C92	C	1.552090	-0.604290	0.751883
C93	C	0.958243	-1.104313	0.345591
C94	C	1.458243	-0.604313	0.845591
C95	C	1.188920	-0.447568	0.291317
C96	C	1.688920	0.052432	0.791317
C97	C	1.267273	-0.450967	0.288175
C98	C	1.767273	0.049033	0.788175
C99	C	0.997699	-0.447506	0.482559
C100	C	1.497699	0.052494	0.982559
C101	C	0.994566	-0.450879	0.560913
C102	C	1.494566	0.049121	1.060913
C103	C	1.005144	-0.233430	0.298726
C104	C	1.505144	0.266570	0.798726
C105	C	1.005184	-0.145576	0.298742
C106	C	1.505184	0.354424	0.798742
C107	C	1.012417	-0.431654	0.115533
C108	C	1.512417	0.068346	0.615533
C109	C	1.015687	-0.428064	0.037173
C110	C	1.515687	0.071936	0.537173
C111	C	1.038196	-0.403873	0.595927
C112	C	1.538196	0.096127	1.095927
C113	C	1.035243	-0.407038	0.669549
C114	C	1.535243	0.092962	1.169549
C115	C	0.988664	-0.457214	0.708157
C116	C	1.488664	0.042786	1.208157
C117	C	0.945029	-0.504222	0.673138
C118	C	1.445029	-0.004222	1.173138
C119	C	0.947978	-0.501052	0.599516
C120	C	1.447978	-0.001052	1.099516
C121	C	0.975002	-0.471902	0.928533
C122	C	1.475002	0.028098	1.428533
C123	C	0.972057	-0.475070	1.002159
C124	C	1.472057	0.024930	1.502159
C125	C	1.062271	-0.377885	0.998566
C126	C	1.562271	0.122115	1.498566
C127	C	1.065220	-0.374723	0.924944
C128	C	1.565220	0.125277	1.424944
C129	C	1.021582	-0.421727	0.889931
C130	C	1.521582	0.078273	1.389931
N131	N	0.985646	-0.460453	0.783411
N132	N	1.485646	0.039547	1.283411
N133	N	1.024597	-0.418484	0.814678
N134	N	1.524597	0.081516	1.314678
H135	H	0.733481	-0.339937	0.391412
H136	H	1.233481	0.160063	0.891412
H137	H	0.277334	-0.539297	0.205960
H138	H	0.777334	-0.039297	0.705960
C139	C	1.110260	-0.326173	1.037086
C140	C	1.610260	0.173827	1.537086
N141	N	1.146404	-0.287217	1.066100
N142	N	1.646404	0.212783	1.566100
H143	H	0.920045	-1.137922	0.383750
H144	H	1.420045	-0.637922	0.883750
H145	H	0.599913	-0.334178	0.396807
H146	H	1.099913	0.165822	0.896807
C147	C	0.859665	-1.025916	0.443967
C148	C	1.359665	-0.525916	0.943967
N149	N	0.820803	-1.060133	0.482787
N150	N	1.320803	-0.560133	0.982787
H151	H	0.934124	-0.515932	1.033591
H152	H	1.434124	-0.015932	1.533591
C153	C	1.150524	-0.852481	0.153458
C154	C	1.650524	-0.352481	0.653458
N155	N	1.189384	-0.818268	0.114633
N156	N	1.689384	-0.318268	0.614633
H157	H	1.103152	-0.333866	0.893514
H158	H	1.603152	0.166134	1.393514
H159	H	0.606374	-0.510250	0.232928
H160	H	1.106374	-0.010250	0.732928
H161	H	0.873007	-0.864336	0.430549
H162	H	1.373007	-0.364336	0.930549
H163	H	0.919879	-0.740497	0.383677
H164	H	1.419879	-0.240497	0.883677
C165	C	1.103546	-0.728666	0.200289
C166	C	1.603546	-0.228666	0.700289
N167	N	1.142407	-0.694455	0.161463
N168	N	1.642407	-0.194455	0.661463
H169	H	1.090318	-1.137886	0.213745
H170	H	1.590318	-0.637886	0.713745
H171	H	0.404441	-0.368993	0.364451
H172	H	0.904441	0.131007	0.864451
C173	C	0.421929	-0.559385	0.187232
C174	C	0.921929	-0.059385	0.687232
N175	N	0.453897	-0.600907	0.148577
N176	N	0.953897	-0.100907	0.648577
H177	H	1.137195	-1.014045	0.166864
H178	H	1.637195	-0.514045	0.666864
C179	C	1.089437	-0.348674	0.553466
C180	C	1.589437	0.151326	1.053466
N181	N	1.128031	-0.307093	0.521486
N182	N	1.628031	0.192907	1.021486
H183	H	0.939480	-0.510189	0.900035
H184	H	1.439480	-0.010189	1.400035
H185	H	1.070773	-0.368763	0.698054
H186	H	1.570773	0.131237	1.198054
H187	H	0.907100	-0.545074	0.704577
H188	H	1.407100	-0.045074	1.204577
C189	C	0.259856	-0.348903	0.383173
C190	C	0.759856	0.151097	0.883173
N191	N	0.227884	-0.307383	0.421827
N192	N	0.727884	0.192617	0.921827
H193	H	0.912443	-0.539321	0.571009
H194	H	1.412443	-0.039321	1.071009
H195	H	0.739930	-0.516010	0.227526
H196	H	1.239930	-0.016010	0.727526
