data_functionalizedCrystal
_audit_creation_method	'MofGen! by Chris Wilmer'
_symmetry_space_group_name_H-M	'P1'
_symmetry_Int_Tables_number	1
_symmetry_cell_setting	triclinic
loop_
_symmetry_equiv_pos_as_xyz
  x,y,z
_cell_length_a	15.944499
_cell_length_b	15.944493
_cell_length_c	15.021413
_cell_angle_alpha	89.990110
_cell_angle_beta	90.009905
_cell_angle_gamma	83.476327
loop_
_atom_site_label
_atom_site_type_symbol
_atom_site_fract_x
_atom_site_fract_y
_atom_site_fract_z
O1	O	1.114533	0.108117	0.074074
O2	O	1.447867	0.441450	0.407407
O3	O	1.781200	0.774784	0.740740
O4	O	0.869975	0.121519	0.074062
O5	O	1.203308	0.454852	0.407396
O6	O	1.536642	0.788186	0.740729
O7	O	0.998958	-0.007461	0.074076
O8	O	1.332291	0.325872	0.407409
O9	O	1.665625	0.659205	0.740742
O10	O	0.985551	0.237097	0.074060
O11	O	1.318884	0.570431	0.407394
O12	O	1.652217	0.903764	0.740727
O13	O	0.998937	-0.007443	-0.073989
O14	O	1.332271	0.325890	0.259345
O15	O	1.665604	0.659224	0.592678
O16	O	0.869955	0.121537	-0.074002
O17	O	1.203288	0.454871	0.259331
O18	O	1.536621	0.788204	0.592665
O19	O	1.114513	0.108135	-0.073991
O20	O	1.447846	0.441469	0.259343
O21	O	1.781180	0.774802	0.592676
Zn22	Zn	0.992230	0.114839	-0.097505
Zn23	Zn	1.325564	0.448173	0.235829
Zn24	Zn	1.658897	0.781506	0.569162
Zn25	Zn	0.992257	0.114815	0.097576
Zn26	Zn	1.325591	0.448148	0.430910
Zn27	Zn	1.658924	0.781482	0.764243
O28	O	0.985530	0.237116	-0.074004
O29	O	1.318863	0.570449	0.259329
O30	O	1.652197	0.903782	0.592663
C31	C	0.838670	0.120979	0.000029
C32	C	1.172004	0.454313	0.333362
C33	C	1.505337	0.787646	0.666696
C34	C	0.745422	0.119334	0.000025
C35	C	1.078756	0.452668	0.333359
C36	C	1.412089	0.786001	0.666692
C37	C	0.453871	0.194269	0.000034
C38	C	0.787204	0.527602	0.333367
C39	C	1.120537	0.860935	0.666700
C40	C	0.514918	0.155307	0.073041
C41	C	0.848251	0.488640	0.406375
C42	C	1.181585	0.821974	0.739708
C43	C	0.409787	0.113358	0.000046
C44	C	0.743120	0.446691	0.333379
C45	C	1.076454	0.780025	0.666713
C46	C	0.514884	0.155303	-0.072939
C47	C	0.848217	0.488637	0.260395
C48	C	1.181550	0.821970	0.593728
C49	C	0.574695	0.116299	0.000034
C50	C	0.908028	0.449632	0.333368
C51	C	1.241362	0.782965	0.666701
C52	C	0.469606	0.074374	0.073114
C53	C	0.802940	0.407707	0.406447
C54	C	1.136273	0.741041	0.739781
C55	C	0.469565	0.074382	-0.072931
C56	C	0.802899	0.407715	0.260402
C57	C	1.136232	0.741048	0.593735
C58	C	0.530595	0.035361	0.000094
C59	C	0.863929	0.368694	0.333427
C60	C	1.197262	0.702028	0.666761
C61	C	0.314787	0.111666	0.000054
C62	C	0.648121	0.445000	0.333387
C63	C	0.981454	0.778333	0.666720
C64	C	0.669694	0.117984	0.000033
C65	C	1.003027	0.451318	0.333367
C66	C	1.336360	0.784651	0.666700
C67	C	0.998400	-0.038747	0.000047
C68	C	1.331733	0.294586	0.333381
C69	C	1.665066	0.627920	0.666714
C70	C	0.996757	-0.131995	0.000059
C71	C	1.330090	0.201338	0.333392
C72	C	1.663423	0.534671	0.666725
C73	C	1.072679	-0.367769	0.000045
C74	C	1.406012	-0.034436	0.333379
C75	C	1.739346	0.298897	0.666712
C76	C	1.031747	-0.418339	0.073046
C77	C	1.365080	-0.085005	0.406380
C78	C	1.698414	0.248328	0.739713
C79	C	0.993713	-0.302716	0.000048
C80	C	1.327046	0.030618	0.333381
C81	C	1.660379	0.363951	0.666714
C82	C	1.031709	-0.418297	-0.072933
C83	C	1.365042	-0.084963	0.260400
C84	C	1.698375	0.248370	0.593733
C85	C	0.990778	-0.467625	0.000033
C86	C	1.324111	-0.134291	0.333366
C87	C	1.657445	0.199042	0.666700
C88	C	0.952802	-0.352057	0.073109
C89	C	1.286135	-0.018724	0.406442
C90	C	1.619469	0.314610	0.739776
C91	C	0.952775	-0.352012	-0.072936
C92	C	1.286108	-0.018678	0.260397
C93	C	1.619442	0.314655	0.593730
C94	C	0.911785	-0.402548	0.000082
C95	C	1.245118	-0.069215	0.333416
C96	C	1.578452	0.264118	0.666749
C97	C	0.995405	-0.207716	0.000057
C98	C	1.328739	0.125617	0.333390
C99	C	1.662072	0.458951	0.666723
C100	C	0.989079	-0.562622	0.000030
C101	C	1.322412	-0.229288	0.333364
C102	C	1.655746	0.104045	0.666697
C103	C	1.145818	0.108675	0.000045
C104	C	1.479151	0.442008	0.333378
C105	C	1.812484	0.775342	0.666711
C106	C	1.239066	0.110320	0.000054
C107	C	1.572399	0.443653	0.333388
C108	C	1.905732	0.776987	0.666721
C109	C	0.986088	0.268401	0.000026
C110	C	1.319422	0.601735	0.333360
C111	C	1.652755	0.935068	0.666693
C112	C	0.987731	0.361650	0.000021
C113	C	1.321064	0.694983	0.333354
C114	C	1.654398	1.028316	0.666688
N115	N	0.992218	0.114855	-0.230642
N116	N	1.325551	0.448189	0.102691
N117	N	1.658885	0.781522	0.436024
C118	C	0.932567	0.174468	-0.470332
C119	C	1.265901	0.507801	-0.136998
C120	C	1.599234	0.841134	0.196335
C121	C	1.008466	0.190761	-0.529664
C122	C	1.341799	0.524095	-0.196331
C123	C	1.675133	0.857428	0.137003
C124	C	0.992240	0.114834	-0.412249
C125	C	1.325573	0.448168	-0.078916
C126	C	1.658906	0.781501	0.254418
C127	C	0.916361	0.098560	-0.529659
C128	C	1.249695	0.431893	-0.196325
C129	C	1.583028	0.765226	0.137008
C130	C	0.992254	0.114816	-0.587673
C131	C	1.325587	0.448149	-0.254340
C132	C	1.658920	0.781483	0.078993
C133	C	1.068177	0.131165	-0.470275
C134	C	1.401510	0.464499	-0.136942
C135	C	1.734843	0.797832	0.196392
C136	C	0.976022	0.038931	-0.470264
C137	C	1.309355	0.372264	-0.136931
C138	C	1.642689	0.705598	0.196402
C139	C	1.051976	0.055192	-0.529570
C140	C	1.385309	0.388525	-0.196237
C141	C	1.718642	0.721859	0.137097
C142	C	0.992230	0.114847	-0.311192
C143	C	1.325564	0.448180	0.022142
C144	C	1.658897	0.781514	0.355475
C145	C	0.992272	0.114803	-0.688728
C146	C	1.325605	0.448136	-0.355395
C147	C	1.658938	0.781469	-0.022062
N148	N	0.992276	0.114792	0.230714
N149	N	1.325610	0.448126	0.564047
N150	N	1.658943	0.781459	0.897381
H151	H	0.420527	0.261416	0.000100
H152	H	0.753860	0.594750	0.333433
H153	H	1.087193	0.928083	0.666767
H154	H	0.852187	0.084803	-0.555746
H155	H	1.185520	0.418136	-0.222412
H156	H	1.518853	0.751470	0.110921
H157	H	0.563787	-0.031847	0.000137
H158	H	0.897120	0.301486	0.333470
H159	H	1.230453	0.634820	0.666804
Br160	Br	1.087341	-0.466608	0.175919
Br161	Br	1.420675	-0.133275	0.509252
Br162	Br	1.754008	0.200058	0.842585
Br163	Br	1.031354	0.297733	-0.573150
Br164	Br	1.364687	0.631066	-0.239816
Br165	Br	1.698020	0.964400	0.093517
Br166	Br	1.087302	-0.466515	-0.175792
Br167	Br	1.420635	-0.133182	0.157541
Br168	Br	1.753969	0.200151	0.490874
H169	H	0.449643	0.040176	0.134905
H170	H	0.782976	0.373509	0.468239
H171	H	1.116310	0.706843	0.801572
H172	H	0.919481	-0.323239	0.134892
H173	H	1.252814	0.010095	0.468225
H174	H	1.586148	0.343428	0.801558
Br175	Br	0.953100	-0.068011	-0.426741
Br176	Br	1.286434	0.265322	-0.093407
Br177	Br	1.619767	0.598656	0.239926
Br178	Br	0.897243	-0.303694	-0.175814
Br179	Br	1.230576	0.029639	0.157519
Br180	Br	1.563909	0.362973	0.490852
H181	H	0.882155	0.224939	-0.444321
H182	H	1.215489	0.558272	-0.110988
H183	H	1.548822	0.891605	0.222345
Br184	Br	0.798328	-0.428309	0.000138
Br185	Br	1.131661	-0.094975	0.333471
Br186	Br	1.464995	0.238358	0.666804
Br187	Br	1.175166	0.154218	-0.426989
Br188	Br	1.508499	0.487552	-0.093656
Br189	Br	1.841832	0.820885	0.239678
H190	H	1.102500	0.004751	-0.555417
H191	H	1.435833	0.338084	-0.222084
H192	H	1.769166	0.671418	0.111250
H193	H	0.535018	0.189524	0.134755
H194	H	0.868351	0.522857	0.468089
H195	H	1.201684	0.856191	0.801422
H196	H	0.449447	0.040195	-0.134651
H197	H	0.782781	0.373529	0.198682
H198	H	1.116114	0.706862	0.532015
Br199	Br	0.548324	0.212377	-0.175806
Br200	Br	0.881658	0.545710	0.157528
Br201	Br	1.214991	0.879043	0.490861
H202	H	1.140699	-0.352153	0.000122
H203	H	1.474032	-0.018820	0.333455
H204	H	1.807365	0.314513	0.666789
