data_functionalizedCrystal
_audit_creation_method	'MofGen! by Chris Wilmer'
_symmetry_space_group_name_H-M	'P1'
_symmetry_Int_Tables_number	1
_symmetry_cell_setting	triclinic
loop_
_symmetry_equiv_pos_as_xyz
  x,y,z
_cell_length_a	12.645331
_cell_length_b	25.639239
_cell_length_c	12.645323
_cell_angle_alpha	89.966151
_cell_angle_beta	89.978207
_cell_angle_gamma	90.037665
loop_
_atom_site_label
_atom_site_type_symbol
_atom_site_fract_x
_atom_site_fract_y
_atom_site_fract_z
Zn1	Zn	1.620567	-0.208151	-0.599395
Zn2	Zn	1.620387	-0.295593	-0.422113
Zn3	Zn	1.443285	-0.208171	-0.422139
Zn4	Zn	1.443199	-0.295555	-0.599328
O5	O	1.531859	-0.251868	-0.510744
O6	O	1.768891	-0.219757	-0.575895
O7	O	1.596854	-0.284020	-0.273769
O8	O	1.466913	-0.135003	-0.445691
O9	O	1.768758	-0.284000	-0.445647
O10	O	1.597162	-0.134988	-0.575920
O11	O	1.466738	-0.219792	-0.273788
O12	O	1.294926	-0.219756	-0.445627
O13	O	1.466767	-0.283937	-0.747685
O14	O	1.294863	-0.283957	-0.575807
O15	O	1.597079	-0.219721	-0.747733
O16	O	1.596771	-0.368753	-0.445582
O17	O	1.466592	-0.368726	-0.575782
C18	C	1.256430	-0.251855	-0.510713
C19	C	1.138600	-0.251862	-0.510725
C20	C	0.971040	-0.211288	-0.429281
C21	C	1.093600	-0.211393	-0.428922
C22	C	1.094039	-0.306941	-0.480197
C23	C	0.971441	-0.306719	-0.479641
C24	C	0.971459	-0.237883	-0.623013
C25	C	1.094066	-0.236652	-0.622389
C26	C	1.531681	-0.387710	-0.510695
C27	C	1.531702	-0.445824	-0.510710
C28	C	1.599821	-0.806189	-0.443064
C29	C	1.599862	-0.860793	-0.443079
O30	O	1.657594	-0.889031	-0.385511
N31	N	1.532046	-0.888107	-0.510814
C32	C	1.464192	-0.860813	-0.578547
O33	O	1.406513	-0.889059	-0.636163
C34	C	1.464157	-0.806210	-0.578538
C35	C	1.531970	-0.778899	-0.510790
C36	C	1.667629	-0.778878	-0.375323
C37	C	1.667586	-0.724278	-0.375308
C38	C	1.599735	-0.696988	-0.443034
C39	C	1.531927	-0.724298	-0.510775
C40	C	1.396309	-0.778917	-0.646275
C41	C	1.396281	-0.724310	-0.646260
C42	C	1.464093	-0.696999	-0.578513
C43	C	1.464033	-0.642408	-0.578485
N44	N	1.531849	-0.615095	-0.510750
C45	C	1.599700	-0.642384	-0.443024
C46	C	1.464272	-0.975483	-0.578564
C47	C	1.464300	-1.030086	-0.578569
C48	C	1.599972	-1.030062	-0.443101
C49	C	1.599937	-0.975459	-0.443092
C50	C	1.532088	-0.948170	-0.510828
C51	C	1.599605	-0.527719	-0.442997
C52	C	1.599553	-0.473114	-0.442984
C53	C	1.463886	-0.473142	-0.578455
C54	C	1.463933	-0.527743	-0.578464
C55	C	1.531801	-0.555030	-0.510731
O56	O	1.406334	-0.614135	-0.636027
O57	O	1.657379	-0.614132	-0.385428
C58	C	1.808365	-0.251880	-0.510775
C59	C	1.926195	-0.251886	-0.510788
C60	C	1.531933	-0.251822	-0.787249
C61	C	1.531965	-0.251803	-0.905079
C62	C	1.532067	-0.115494	-0.510816
C63	C	1.532156	-0.057380	-0.510846
C64	C	1.449990	-0.292193	-0.949931
C65	C	1.449702	-0.292041	-1.072491
C66	C	1.502136	-0.196614	-1.072995
C67	C	1.501509	-0.196881	-0.950397
C68	C	1.644043	-0.266052	-0.950267
C69	C	1.643473	-0.267234	-1.072873
C70	C	1.531847	-0.251875	-0.235314
C71	C	1.532021	-0.251747	-0.117485
H72	H	1.122872	-0.220648	-0.345759
H73	H	1.654872	-0.549930	-0.387844
C74	C	1.338434	-0.279588	-0.908325
H75	H	1.341599	-0.249817	-0.863742
H76	H	1.312151	-0.308498	-0.869313
H77	H	1.292734	-0.272662	-0.966259
C78	C	1.742194	-0.694243	-0.300798
H79	H	1.782612	-0.718322	-0.260480
H80	H	1.701667	-0.672976	-0.254558
H81	H	1.788353	-0.672909	-0.341398
H82	H	1.124702	-0.264065	-0.686368
C83	C	1.674605	-1.060088	-0.368600
H84	H	1.664913	-1.096518	-0.378319
H85	H	1.659122	-1.051173	-0.297357
H86	H	1.745825	-1.051103	-0.384180
C87	C	0.931354	-0.348922	-0.556433
H88	H	0.990000	-0.366133	-0.587813
H89	H	0.889693	-0.333104	-0.610074
H90	H	0.889656	-0.373559	-0.518802
C91	C	0.929766	-0.184573	-0.660517
H92	H	0.884360	-0.170356	-0.608077
H93	H	0.891615	-0.188880	-0.724621
H94	H	0.987610	-0.161588	-0.671965
C95	C	1.680874	-0.319465	-0.908504
H96	H	1.628235	-0.333576	-0.863114
H97	H	1.745008	-0.315324	-0.870320
H98	H	1.692074	-0.342453	-0.966320
C99	C	1.474903	-0.347258	-1.113137
H100	H	1.474766	-0.347239	-1.188267
H101	H	1.422921	-0.370981	-1.087975
H102	H	1.542587	-0.357618	-1.088255
C103	C	1.580336	-0.154823	-1.112370
H104	H	1.632025	-0.170665	-1.156402
H105	H	1.614107	-0.138949	-1.053511
H106	H	1.543115	-0.129077	-1.151513
C107	C	1.730376	-0.230386	-1.114230
H108	H	1.699687	-0.204959	-1.159441
H109	H	1.781386	-0.249942	-1.152519
H110	H	1.763656	-0.213513	-1.056232
C111	C	1.133422	-0.181899	-0.653495
H112	H	1.176819	-0.168363	-0.598670
H113	H	1.074530	-0.159500	-0.663930
H114	H	1.173225	-0.184060	-0.717072
H115	H	0.942787	-0.318594	-0.397599
H116	H	0.942457	-0.267452	-0.683743
H117	H	1.123184	-0.337998	-0.537699
C118	C	1.321721	-0.808947	-0.720806
H119	H	1.281324	-0.784866	-0.761144
H120	H	1.275558	-0.830287	-0.680234
H121	H	1.362273	-0.830208	-0.767045
C122	C	1.674539	-0.945422	-0.368579
H123	H	1.714954	-0.969500	-0.328253
H124	H	1.634006	-0.924154	-0.322345
H125	H	1.720701	-0.924089	-0.409177
H126	H	1.124686	-0.319020	-0.399035
H127	H	1.705113	-0.236632	-0.921270
C128	C	1.389700	-1.060122	-0.653084
H129	H	1.349294	-1.036044	-0.693418
H130	H	1.343545	-1.081462	-0.612502
H131	H	1.430248	-1.081383	-0.699325
H132	H	1.366669	-0.282581	-1.101819
H133	H	1.123730	-0.170550	-0.448058
C134	C	0.931250	-0.155948	-0.454826
H135	H	0.886927	-0.157105	-0.515426
H136	H	0.989921	-0.133782	-0.468449
H137	H	0.892320	-0.142821	-0.396357
C138	C	1.674155	-0.443075	-0.368464
H139	H	1.714577	-0.467152	-0.328142
H140	H	1.633618	-0.421811	-0.322228
H141	H	1.720311	-0.421738	-0.409061
C142	C	1.673947	-0.322041	-1.112167
H143	H	1.741441	-0.331188	-1.084915
H144	H	1.676348	-0.322136	-1.187250
H145	H	1.622857	-0.346614	-1.088566
H146	H	1.341030	-0.702094	-0.701423
H147	H	1.408639	-0.450914	-0.633594
H148	H	0.940187	-0.220441	-0.346607
H149	H	1.419597	-0.184825	-0.921801
C150	C	1.742265	-0.808889	-0.300812
H151	H	1.782632	-0.784796	-0.260468
H152	H	1.788456	-0.830156	-0.341394
H153	H	1.701744	-0.830221	-0.254580
H154	H	1.421140	-0.184334	-1.103700
H155	H	1.409012	-0.953267	-0.633720
H156	H	1.408718	-0.549980	-0.633633
C157	C	1.474855	-0.347608	-0.910091
H158	H	1.535447	-0.346611	-0.865741
H159	H	1.488242	-0.369777	-0.968745
H160	H	1.416214	-0.360622	-0.871181
C161	C	1.578666	-0.154818	-0.910309
H162	H	1.610251	-0.137642	-0.968954
H163	H	1.632133	-0.170718	-0.868561
H164	H	1.541196	-0.130135	-0.868697
