data_functionalizedCrystal
_audit_creation_method	'MofGen! by Chris Wilmer'
_symmetry_space_group_name_H-M	'P1'
_symmetry_Int_Tables_number	1
_symmetry_cell_setting	triclinic
loop_
_symmetry_equiv_pos_as_xyz
  x,y,z
_cell_length_a	6.817900
_cell_length_b	16.418055
_cell_length_c	9.514088
_cell_angle_alpha	91.369957
_cell_angle_beta	118.843545
_cell_angle_gamma	103.389726
loop_
_atom_site_label
_atom_site_type_symbol
_atom_site_fract_x
_atom_site_fract_y
_atom_site_fract_z
V1	V	-4.217228	-0.117372	-0.501308
O2	O	-4.201371	0.004112	-0.491191
O3	O	-4.167197	-0.231259	-0.498431
O4	O	-4.252008	-0.116237	-0.719693
O5	O	-4.115972	-0.111706	-0.268397
V6	V	-4.690289	-0.102762	-0.473383
O7	O	-4.501436	-0.149420	-0.562563
O8	O	-4.856279	-0.070713	-0.412127
O9	O	-4.517113	0.011126	-0.476259
O10	O	-4.823543	-0.224246	-0.483499
O11	O	-4.908942	-0.108427	-0.706293
O12	O	-4.432302	-0.103897	-0.254997
C13	C	-4.009110	-0.259002	-0.490665
C14	C	-4.050045	-0.352110	-0.489768
C15	C	-4.367845	-0.658112	-0.494984
C16	C	-4.329384	-0.570625	-0.495801
C17	C	-3.959033	-0.562033	-0.479707
C18	C	-3.997488	-0.649517	-0.478878
C19	C	-4.201905	-0.697555	-0.486526
C20	C	-4.124988	-0.522583	-0.488170
C21	C	-4.083285	-0.427726	-0.489056
C22	C	-4.243609	-0.792419	-0.485637
C23	C	-4.117293	-0.112278	-0.772905
C24	C	-4.227002	-0.112104	-0.951440
C25	C	-4.338541	0.038863	-0.484021
C26	C	-4.276848	0.131971	-0.484928
C27	C	-4.230356	-0.107858	-0.201776
C28	C	-4.099885	-0.108028	-0.023240
H29	H	-4.534289	-0.697222	-0.501207
F30	F	-3.741483	-0.510900	-0.471564
H31	H	-4.464510	-0.538513	-0.502684
H32	H	-3.862347	-0.681632	-0.471988
H33	H	-4.419780	-0.115461	-1.026564
H34	H	-3.907128	-0.104681	-0.948128
