data_functionalizedCrystal
_audit_creation_method	'MofGen! by Chris Wilmer'
_symmetry_space_group_name_H-M	'P1'
_symmetry_Int_Tables_number	1
_symmetry_cell_setting	triclinic
loop_
_symmetry_equiv_pos_as_xyz
  x,y,z
_cell_length_a	16.109301
_cell_length_b	23.532407
_cell_length_c	14.586319
_cell_angle_alpha	89.991566
_cell_angle_beta	89.999213
_cell_angle_gamma	83.155079
loop_
_atom_site_label
_atom_site_type_symbol
_atom_site_fract_x
_atom_site_fract_y
_atom_site_fract_z
O1	O	1.102555	0.073202	-0.076192
O2	O	0.860422	0.082312	-0.076208
O3	O	0.988790	-0.005148	-0.076183
O4	O	0.974187	0.160662	-0.076217
O5	O	0.988781	-0.005149	0.076298
O6	O	0.860413	0.082311	0.076273
O7	O	1.102546	0.073201	0.076289
Cu8	Cu	0.981479	0.077756	0.090204
Cu9	Cu	0.981489	0.077757	-0.090123
O10	O	0.974178	0.160660	0.076264
C11	C	0.829445	0.081942	0.000031
C12	C	0.737159	0.080836	0.000026
C13	C	0.514498	0.130160	0.000026
C14	C	0.427786	0.129116	0.000032
C15	C	0.448476	0.025348	0.000050
C16	C	0.535187	0.026393	0.000050
C17	C	0.568195	0.078801	0.000034
C18	C	0.394773	0.076712	0.000039
C19	C	0.300755	0.075580	0.000046
C20	C	0.662218	0.079933	0.000029
C21	C	0.988414	-0.026366	0.000060
C22	C	0.987296	-0.089587	0.000067
C23	C	1.056249	-0.488436	0.000021
C24	C	1.055210	-0.547840	0.000014
O25	O	1.119130	-0.584349	-0.000015
N26	N	0.978895	-0.570748	0.000010
C27	C	0.903614	-0.534248	0.000003
O28	O	0.838607	-0.559187	-0.000002
C29	C	0.904654	-0.474845	0.000004
C30	C	0.980973	-0.451941	0.000018
C31	C	1.132562	-0.465531	0.000034
C32	C	1.133601	-0.406131	0.000043
C33	C	1.058325	-0.369636	0.000039
C34	C	0.982012	-0.392541	0.000026
C35	C	0.829373	-0.438346	-0.000009
C36	C	0.830419	-0.378940	-0.000009
C37	C	0.906739	-0.356036	0.000004
C38	C	0.907774	-0.296645	0.000031
N39	N	0.984089	-0.273738	0.000035
C40	C	1.059365	-0.310233	0.000039
C41	C	0.901437	-0.658998	0.000001
C42	C	0.900396	-0.718400	0.000007
C43	C	1.051993	-0.731988	0.000016
C44	C	1.053032	-0.672585	0.000017
C45	C	0.977752	-0.636091	0.000005
C46	C	1.061539	-0.185488	0.000058
C47	C	1.062571	-0.126082	0.000071
C48	C	0.910975	-0.112499	0.000057
C49	C	0.909943	-0.171900	0.000049
C50	C	0.985232	-0.208394	0.000047
O51	O	0.843888	-0.260102	0.000057
O52	O	1.124361	-0.285285	0.000032
C53	C	1.133523	0.073570	0.000048
C54	C	1.225809	0.074677	0.000047
C55	C	0.974554	0.181878	0.000019
C56	C	0.975672	0.245100	0.000006
N57	N	0.981477	0.077754	0.217035
N58	N	0.981497	0.077754	-0.216954
C59	C	1.038338	0.039040	0.452053
C60	C	1.038340	0.039039	0.548034
C61	C	0.924631	0.116470	0.548021
C62	C	0.924625	0.116468	0.452042
C63	C	0.981483	0.077754	0.404060
C64	C	0.981491	0.077754	0.596021
C65	C	0.981494	0.077753	0.700088
C66	C	0.981480	0.077754	0.299986
H67	H	0.578910	-0.015433	0.000059
C68	C	0.818616	-0.618858	0.000000
N69	N	0.756236	-0.588628	-0.000001
C70	C	0.412159	-0.032297	0.000060
N71	N	0.384805	-0.075717	0.000063
C72	C	0.550804	0.187810	0.000019
N73	N	0.578147	0.231234	0.000019
H74	H	1.195748	-0.387488	0.000050
H75	H	1.113286	-0.761714	0.000016
H76	H	0.769115	-0.349228	-0.000020
C77	C	1.100878	-0.003555	0.600822
N78	N	1.147981	-0.035640	0.640581
C79	C	1.146532	-0.100892	0.000083
N80	N	1.209770	-0.081921	0.000090
H81	H	1.084634	0.007516	0.412989
C82	C	0.368723	0.185616	0.000028
N83	N	0.324236	0.228175	0.000027
C84	C	1.144361	-0.225623	0.000064
N85	N	1.206743	-0.255852	0.000076
C86	C	0.745414	-0.463527	-0.000031
N87	N	0.682171	-0.482491	-0.000050
C88	C	1.215379	-0.505668	0.000048
N89	N	1.277762	-0.535895	0.000069
C90	C	1.136989	-0.647397	0.000024
N91	N	1.200229	-0.628428	0.000025
C92	C	0.816439	-0.743587	0.000003
N93	N	0.753199	-0.762556	-0.000005
C94	C	0.825988	-0.197095	0.000040
N95	N	0.762751	-0.216068	0.000024
C96	C	0.828176	-0.072344	0.000046
N97	N	0.765812	-0.042097	0.000029
C98	C	0.862089	0.159052	0.600810
N99	N	0.814981	0.191126	0.640570
C100	C	0.862115	0.159085	0.399247
N101	N	0.815047	0.191190	0.359481
