data_functionalizedCrystal
_audit_creation_method	'MofGen! by Chris Wilmer'
_symmetry_space_group_name_H-M	'P1'
_symmetry_Int_Tables_number	1
_symmetry_cell_setting	triclinic
loop_
_symmetry_equiv_pos_as_xyz
  x,y,z
_cell_length_a	19.805407
_cell_length_b	19.805405
_cell_length_c	12.759393
_cell_angle_alpha	89.962167
_cell_angle_beta	89.980254
_cell_angle_gamma	90.023727
loop_
_atom_site_label
_atom_site_type_symbol
_atom_site_fract_x
_atom_site_fract_y
_atom_site_fract_z
Zn1	Zn	1.034749	-0.269470	-0.594003
Zn2	Zn	1.034660	-0.382676	-0.418305
Zn3	Zn	0.921559	-0.269501	-0.418335
Zn4	Zn	0.921527	-0.382617	-0.593939
O5	O	0.978124	-0.326066	-0.506146
O6	O	1.129453	-0.284499	-0.570711
O7	O	1.019633	-0.367700	-0.271288
O8	O	0.936625	-0.174780	-0.441678
O9	O	1.129388	-0.367670	-0.441626
O10	O	1.019785	-0.174758	-0.570740
O11	O	0.936539	-0.284550	-0.271310
O12	O	0.826839	-0.284494	-0.441616
O13	O	0.936570	-0.367571	-0.740969
O14	O	0.826815	-0.367601	-0.570631
O15	O	1.019753	-0.284443	-0.741016
O16	O	1.019601	-0.477384	-0.441563
O17	O	0.936483	-0.477342	-0.570601
C18	C	0.802268	-0.326045	-0.506120
C19	C	0.727036	-0.326052	-0.506134
C20	C	0.691726	-0.282821	-0.573451
C21	C	0.621038	-0.282825	-0.573455
C22	C	0.585660	-0.326063	-0.506147
C23	C	0.620974	-0.369296	-0.438823
C24	C	0.691662	-0.369288	-0.438814
C25	C	0.335901	-0.369326	-0.438855
C26	C	0.265209	-0.369332	-0.438871
C27	C	0.265277	-0.282863	-0.573496
C28	C	0.335964	-0.282855	-0.573487
C29	C	0.371273	-0.326085	-0.506160
C30	C	0.447921	-0.326080	-0.506155
C31	C	0.509013	-0.326072	-0.506156
C32	C	0.978047	-0.501922	-0.506095
C33	C	0.978077	-0.577154	-0.506108
C34	C	1.021398	-0.612498	-0.438989
C35	C	1.021427	-0.683186	-0.439012
C36	C	0.978130	-0.718530	-0.506150
C37	C	0.934807	-0.683181	-0.573277
C38	C	0.934782	-0.612494	-0.573258
C39	C	0.934907	-0.968254	-0.573355
C40	C	0.934933	-1.038946	-0.573366
C41	C	1.021552	-1.038947	-0.439108
C42	C	1.021527	-0.968260	-0.439090
C43	C	0.978206	-0.932917	-0.506220
C44	C	0.978177	-0.856268	-0.506196
C45	C	0.978156	-0.795177	-0.506170
C46	C	1.154666	-0.326088	-0.506172
C47	C	1.229898	-0.326097	-0.506183
C48	C	0.978168	-0.325997	-0.780179
C49	C	0.978186	-0.325968	-0.896956
C50	C	0.978219	-0.149523	-0.506220
C51	C	0.978259	-0.074291	-0.506251
C52	C	0.934938	-0.282664	-0.951836
C53	C	0.934958	-0.282644	-1.061560
C54	C	1.021482	-0.369233	-1.061515
C55	C	1.021458	-0.369256	-0.951793
C56	C	0.884986	-0.232670	-0.951863
C57	C	0.885006	-0.232650	-1.061587
C58	C	0.978119	-0.326086	-0.233178
C59	C	0.978231	-0.325925	-0.116402
H60	H	0.720526	-0.247613	-0.628264
H61	H	0.592164	-0.404498	-0.384014
Cl62	Cl	0.736051	-0.423638	-0.354185
H63	H	0.899632	-0.939483	-0.628013
Cl64	Cl	0.380435	-0.228499	-0.658111
Cl65	Cl	0.808124	-0.261628	-1.114120
Cl66	Cl	1.075876	-0.423650	-1.130460
Cl67	Cl	0.804031	-0.254341	-0.905871
Cl68	Cl	0.576652	-0.228477	-0.658089
Cl69	Cl	1.076017	-1.083382	-0.354720
Cl70	Cl	1.075828	-0.568073	-0.354574
Cl71	Cl	0.906626	-0.151682	-1.107614
H72	H	0.899557	-0.711963	-0.627947
H73	H	0.903784	-0.182885	-0.917856
H74	H	0.364641	-0.404527	-0.384034
H75	H	0.236406	-0.404543	-0.384057
Cl76	Cl	0.220885	-0.228513	-0.658134
H77	H	1.056704	-0.711960	-0.384356
H78	H	0.899677	-1.067721	-0.628046
Cl79	Cl	1.075960	-0.923832	-0.354684
Cl80	Cl	0.880320	-0.568061	-0.657645
H81	H	1.056665	-0.404528	-0.907114
