data_functionalizedCrystal
_audit_creation_method	'MofGen! by Chris Wilmer'
_symmetry_space_group_name_H-M	'P1'
_symmetry_Int_Tables_number	1
_symmetry_cell_setting	triclinic
loop_
_symmetry_equiv_pos_as_xyz
  x,y,z
_cell_length_a	16.959455
_cell_length_b	19.120786
_cell_length_c	16.959447
_cell_angle_alpha	87.526619
_cell_angle_beta	89.983056
_cell_angle_gamma	92.462118
loop_
_atom_site_label
_atom_site_type_symbol
_atom_site_fract_x
_atom_site_fract_y
_atom_site_fract_z
Zn1	Zn	1.194948	-0.279673	-0.433464
Zn2	Zn	1.189213	-0.397141	-0.295639
Zn3	Zn	1.062770	-0.279695	-0.301301
Zn4	Zn	1.057092	-0.397089	-0.427780
O5	O	1.126006	-0.338400	-0.364546
O6	O	1.304798	-0.295268	-0.415191
O7	O	1.172416	-0.381593	-0.185777
O8	O	1.085080	-0.181402	-0.323581
O9	O	1.300584	-0.381572	-0.313931
O10	O	1.182191	-0.181386	-0.420681
O11	O	1.079518	-0.295306	-0.189937
O12	O	0.951406	-0.295255	-0.318069
O13	O	1.075403	-0.381482	-0.539146
O14	O	0.947235	-0.381503	-0.410993
O15	O	1.176685	-0.295217	-0.543323
O16	O	1.166910	-0.495425	-0.308419
O17	O	1.069842	-0.495386	-0.405503
C18	C	0.920640	-0.338376	-0.364529
C19	C	0.832784	-0.338383	-0.364540
C20	C	0.463456	-0.293453	-0.316268
C21	C	0.459155	-0.383404	-0.412866
C22	C	0.541701	-0.383394	-0.412862
C23	C	0.585129	-0.338413	-0.364559
C24	C	0.546011	-0.293443	-0.316260
C25	C	0.580826	-0.428368	-0.461154
C26	C	0.663377	-0.428360	-0.461151
C27	C	0.706807	-0.383376	-0.412851
C28	C	0.667683	-0.338403	-0.364551
C29	C	0.711111	-0.293423	-0.316248
C30	C	0.671989	-0.248447	-0.267952
C31	C	0.589440	-0.248459	-0.267961
C32	C	0.789356	-0.383364	-0.412843
C33	C	0.793665	-0.293413	-0.316241
C34	C	1.117159	-0.520891	-0.355747
C35	C	1.113447	-0.598961	-0.352009
C36	C	1.162226	-0.635570	-0.400849
C37	C	1.158734	-0.708926	-0.397338
C38	C	1.106468	-0.745671	-0.344983
C39	C	1.057684	-0.709057	-0.296141
C40	C	1.061171	-0.635703	-0.299656
C41	C	1.093406	-0.967157	-0.331842
C42	C	1.089923	-1.040516	-0.328328
C43	C	1.190973	-1.040380	-0.429527
C44	C	1.194460	-0.967024	-0.433034
C45	C	1.145673	-0.930417	-0.384195
C46	C	1.102900	-0.820652	-0.341392
C47	C	1.149238	-0.855437	-0.387791
C48	C	1.332173	-0.338423	-0.364563
C49	C	1.420029	-0.338433	-0.364571
C50	C	1.126051	-0.338341	-0.570717
C51	C	1.126070	-0.338316	-0.658575
C52	C	1.134908	-0.155196	-0.373397
C53	C	1.138702	-0.077125	-0.377168
C54	C	1.077776	-0.293317	-1.032226
C55	C	1.174511	-0.383168	-1.027882
C56	C	1.174496	-0.383184	-0.945335
C57	C	1.126120	-0.338267	-0.906230
C58	C	1.077758	-0.293333	-0.949672
C59	C	1.222851	-0.428123	-0.901887
C60	C	1.222838	-0.428141	-0.819336
C61	C	1.174465	-0.383220	-0.780229
C62	C	1.126102	-0.338283	-0.823676
C63	C	1.077726	-0.293366	-0.784571
C64	C	1.029367	-0.248426	-0.828016
C65	C	1.029386	-0.248411	-0.910565
C66	C	1.174446	-0.383234	-0.697680
C67	C	1.077708	-0.293382	-0.702016
C68	C	1.126009	-0.338407	-0.159179
C69	C	1.126152	-0.338234	-0.071331
H70	H	1.204790	-0.605657	-0.443478
H71	H	1.230692	-1.070193	-0.469289
H72	H	0.423791	-0.420029	-0.452188
H73	H	1.038405	-0.256725	-1.067603
H74	H	1.213825	-0.419819	-0.662311
H75	H	0.990013	-0.211824	-0.945946
H76	H	1.053683	-0.937357	-0.292074
O77	O	1.013901	-0.600063	-0.252177
C78	C	1.060948	-0.557641	-0.203183
H79	H	1.121358	-0.546590	-0.231642
H80	H	1.031206	-0.506088	-0.195034
H81	H	1.068321	-0.585939	-0.143258
H82	H	1.038318	-0.256801	-0.670183
O83	O	0.701467	-0.471945	-0.508115
C84	C	0.751144	-0.432000	-0.561177
H85	H	0.766073	-0.378740	-0.535960
H86	H	0.807815	-0.460612	-0.570341
H87	H	0.719716	-0.424347	-0.620135
H88	H	0.989975	-0.211857	-0.796166
H89	H	0.431600	-0.256832	-0.276948
O90	O	1.199901	-0.819668	-0.438689
C91	C	1.156882	-0.777252	-0.491746
H92	H	1.097513	-0.766331	-0.464341
H93	H	1.191520	-0.725636	-0.504833
H94	H	1.146828	-0.805490	-0.548965
O95	O	1.039075	-1.076104	-0.277451
C96	C	0.996774	-1.028064	-0.235085
H97	H	0.996503	-0.975757	-0.269963
H98	H	0.933493	-1.049313	-0.225586
H99	H	1.026120	-1.020277	-0.175450
H100	H	1.213890	-0.419743	-1.059726
H101	H	1.237020	-0.937107	-0.475666
H102	H	0.829018	-0.256780	-0.276911
H103	H	1.015124	-0.738981	-0.253516
H104	H	1.262227	-0.464700	-0.933733
H105	H	1.262214	-0.464735	-0.783969
H106	H	0.707358	-0.211827	-0.228620
H107	H	0.821205	-0.419985	-0.452162
O108	O	0.538605	-0.471954	-0.508160
C109	C	0.492795	-0.432016	-0.561198
H110	H	0.520359	-0.376704	-0.568847
H111	H	0.490640	-0.457485	-0.620754
H112	H	0.430344	-0.429566	-0.536881
O113	O	1.052023	-0.856318	-0.290616
C114	C	0.974081	-0.838431	-0.308655
H115	H	0.971005	-0.818225	-0.372762
H116	H	0.932745	-0.886708	-0.299501
H117	H	0.955466	-0.795899	-0.268289
H118	H	0.557579	-0.211842	-0.228639
H119	H	1.198461	-0.738729	-0.437103
