data_functionalizedCrystal
_audit_creation_method	'MofGen! by Chris Wilmer'
_symmetry_space_group_name_H-M	'P1'
_symmetry_Int_Tables_number	1
_symmetry_cell_setting	triclinic
loop_
_symmetry_equiv_pos_as_xyz
  x,y,z
_cell_length_a	18.050591
_cell_length_b	25.639240
_cell_length_c	18.050582
_cell_angle_alpha	89.968180
_cell_angle_beta	89.979078
_cell_angle_gamma	90.028762
loop_
_atom_site_label
_atom_site_type_symbol
_atom_site_fract_x
_atom_site_fract_y
_atom_site_fract_z
Zn1	Zn	1.135269	-0.208240	-0.419984
Zn2	Zn	1.635269	0.291760	0.080016
Zn3	Zn	1.135170	-0.295667	-0.295774
Zn4	Zn	1.635170	0.204333	0.204226
Zn5	Zn	1.011088	-0.208242	-0.295795
Zn6	Zn	1.511088	0.291758	0.204205
Zn7	Zn	1.011026	-0.295640	-0.419909
Zn8	Zn	1.511026	0.204360	0.080091
O9	O	1.073138	-0.251947	-0.357865
O10	O	1.573138	0.248053	0.142135
O11	O	1.239181	-0.219848	-0.403529
O12	O	1.739181	0.280152	0.096471
O13	O	1.118695	-0.284083	-0.191852
O14	O	1.618695	0.215917	0.308148
O15	O	1.027629	-0.135076	-0.312309
O16	O	1.527629	0.364924	0.187691
O17	O	1.239108	-0.284081	-0.312273
O18	O	1.739108	0.215919	0.187727
O19	O	1.118864	-0.135075	-0.403550
O20	O	1.618864	0.364925	0.096450
O21	O	1.027532	-0.219851	-0.191867
O22	O	1.527532	0.280149	0.308133
O23	O	0.907156	-0.219825	-0.312236
O24	O	1.407156	0.280175	0.187764
O25	O	1.027523	-0.284034	-0.523844
O26	O	1.527523	0.215966	-0.023844
O27	O	0.907110	-0.284036	-0.403423
O28	O	1.407110	0.215964	0.096577
O29	O	1.118804	-0.219821	-0.523898
O30	O	1.618804	0.280179	-0.023898
O31	O	1.118635	-0.368829	-0.312200
O32	O	1.618635	0.131171	0.187800
O33	O	1.027427	-0.368809	-0.403402
O34	O	1.527427	0.131191	0.096598
C35	C	0.880186	-0.251928	-0.357824
C36	C	1.380186	0.248072	0.142176
C37	C	0.797641	-0.251932	-0.357824
C38	C	1.297641	0.248068	0.142176
C39	C	0.598193	-0.216974	-0.308351
C40	C	1.098193	0.283026	0.191649
C41	C	0.548768	-0.264661	-0.290064
C42	C	1.048768	0.235339	0.209936
C43	C	0.646510	-0.251948	-0.357858
C44	C	1.146510	0.248052	0.142142
C45	C	0.548854	-0.204277	-0.376143
C46	C	1.048854	0.295723	0.123857
C47	C	0.500525	-0.251959	-0.357889
C48	C	1.000525	0.248041	0.142111
C49	C	0.598172	-0.299660	-0.339535
C50	C	1.098172	0.200340	0.160465
C51	C	0.598262	-0.239244	-0.425646
C52	C	1.098262	0.260756	0.074354
C53	C	0.548859	-0.286965	-0.407384
C54	C	1.048859	0.213035	0.092616
C55	C	0.730608	-0.251941	-0.357838
C56	C	1.230608	0.248059	0.142162
C57	C	0.416429	-0.251971	-0.357909
C58	C	0.916429	0.248029	0.142091
C59	C	1.073034	-0.387790	-0.357807
C60	C	1.573034	0.112210	0.142193
C61	C	1.073057	-0.445904	-0.357807
C62	C	1.573057	0.054096	0.142193
C63	C	1.120668	-0.806228	-0.405460
C64	C	1.620668	-0.306228	0.094540
C65	C	1.120690	-0.860832	-0.405475
C66	C	1.620690	-0.360832	0.094525
O67	O	1.161046	-0.889035	-0.445932
O68	O	1.661046	-0.389035	0.054068
N69	N	1.073241	-0.888186	-0.357937
N70	N	1.573241	-0.388186	0.142063
C71	C	1.025763	-0.860933	-0.310386
C72	C	1.525763	-0.360933	0.189614
O73	O	0.985405	-0.889214	-0.269953
O74	O	1.485405	-0.389214	0.230047
C75	C	1.025738	-0.806330	-0.310375
C76	C	1.525738	-0.306330	0.189625
C77	C	1.073195	-0.778979	-0.357911
C78	C	1.573195	-0.278979	0.142089
C79	C	1.168121	-0.778876	-0.452993
C80	C	1.668121	-0.278876	0.047007
C81	C	1.168100	-0.724275	-0.452977
C82	C	1.668100	-0.224275	0.047023
C83	C	1.120626	-0.697027	-0.405428
C84	C	1.620626	-0.197027	0.094572
C85	C	1.073173	-0.724378	-0.357895
C86	C	1.573173	-0.224378	0.142105
C87	C	0.978255	-0.779078	-0.262828
C88	C	1.478255	-0.279078	0.237172
C89	C	0.978234	-0.724471	-0.262822
C90	C	1.478234	-0.224471	0.237178
C91	C	1.025691	-0.697120	-0.310358
C92	C	1.525691	-0.197120	0.189642
C93	C	1.025679	-0.642529	-0.310330
C94	C	1.525679	-0.142529	0.189670
N95	N	1.073127	-0.615174	-0.357868
N96	N	1.573127	-0.115174	0.142132
C97	C	1.120601	-0.642423	-0.405417
C98	C	1.620601	-0.142423	0.094583
C99	C	1.025818	-0.975604	-0.310413
C100	C	1.525818	-0.475604	0.189587
C101	C	1.025846	-1.030206	-0.310420
C102	C	1.525846	-0.530206	0.189580
C103	C	1.120773	-1.030101	-0.405510
C104	C	1.620773	-0.530101	0.094490
C105	C	1.120748	-0.975498	-0.405499
C106	C	1.620748	-0.475498	0.094501
C107	C	1.073267	-0.948250	-0.357951
C108	C	1.573267	-0.448250	0.142049
C109	C	1.120553	-0.527758	-0.405379
C110	C	1.620553	-0.027758	0.094621
C111	C	1.120530	-0.473153	-0.405356
C112	C	1.620530	0.026847	0.094644
C113	C	1.025601	-0.473263	-0.310269
C114	C	1.525601	0.026737	0.189731
C115	C	1.025627	-0.527863	-0.310288
C116	C	1.525627	-0.027863	0.189712
C117	C	1.073105	-0.555110	-0.357849
C118	C	1.573105	-0.055110	0.142151
O119	O	0.985341	-0.614291	-0.269896
O120	O	1.485341	-0.114291	0.230104
O121	O	1.160944	-0.614136	-0.445850
O122	O	1.660944	-0.114136	0.054150
C123	C	1.266844	-0.251967	-0.357907
C124	C	1.766844	0.248033	0.142093
C125	C	1.349390	-0.251976	-0.357925
C126	C	1.849390	0.248024	0.142075
C127	C	1.073168	-0.251924	-0.551571
C128	C	1.573168	0.248076	-0.051571
C129	C	1.073180	-0.251914	-0.634117
C130	C	1.573180	0.248086	-0.134117
C131	C	1.073264	-0.115574	-0.357940
C132	C	1.573264	0.384426	0.142060
C133	C	1.073318	-0.057460	-0.357972
C134	C	1.573318	0.442540	0.142028
C135	C	1.023580	-0.286785	-0.833538
C136	C	1.523580	0.213215	-0.333538
C137	C	1.091333	-0.299569	-0.882933
C138	C	1.591333	0.200431	-0.382933
C139	C	1.073217	-0.251874	-0.785247
C140	C	1.573217	0.248126	-0.285247
C141	C	1.005500	-0.239076	-0.882934
C142	C	1.505500	0.260924	-0.382934
C143	C	1.073246	-0.251837	-0.931232
C144	C	1.573246	0.248163	-0.431232
C145	C	1.141006	-0.264683	-0.833556
C146	C	1.641006	0.235317	-0.333556
C147	C	1.055127	-0.204168	-0.833551
C148	C	1.555127	0.295832	-0.333551
C149	C	1.122927	-0.216933	-0.882925
C150	C	1.622927	0.283067	-0.382925
C151	C	1.073199	-0.251897	-0.701149
C152	C	1.573199	0.248103	-0.201149
C153	C	1.073272	-0.251814	-1.015329
C154	C	1.573272	0.248186	-0.515329
C155	C	1.073152	-0.251933	-0.164913
C156	C	1.573152	0.248067	0.335087
C157	C	1.073284	-0.251795	-0.082368
C158	C	1.573284	0.248205	0.417632
H159	H	0.527150	-0.163963	-0.391570
H160	H	1.027150	0.336037	0.108430
N161	N	0.933642	-0.225522	-0.910143
N162	N	1.433642	0.274478	-0.410143
N163	N	0.878916	-0.253267	-0.894307
N164	N	1.378916	0.246733	-0.394307
H165	H	0.828165	-0.243699	-0.913522
H166	H	1.328165	0.256301	-0.413522
N167	N	0.625576	-0.225744	-0.497519
N168	N	1.125576	0.274256	0.002481
N169	N	0.665192	-0.257198	-0.532553
N170	N	1.165192	0.242802	-0.032553
H171	H	0.684486	-0.247659	-0.583313
H172	H	1.184486	0.252341	-0.083313
N173	N	1.169261	-1.057933	-0.454098
N174	N	1.669261	-0.557933	0.045902
N175	N	1.211624	-1.033510	-0.496545
N176	N	1.711624	-0.533510	0.003455
H177	H	1.245867	-1.053167	-0.530859
H178	H	1.745867	-0.553167	-0.030859
N179	N	0.977108	-0.445433	-0.261691
N180	N	1.477108	0.054567	0.238309
N181	N	0.982075	-0.451562	-0.193169
N182	N	1.482075	0.048438	0.306831
H183	H	0.947822	-0.431908	-0.158862
H184	H	1.447822	0.068092	0.341138
N185	N	1.212889	-0.278292	-0.806470
N186	N	1.712889	0.221708	-0.306470
N187	N	1.247894	-0.247069	-0.766448
N188	N	1.747894	0.252931	-0.266448
H189	H	1.298661	-0.256680	-0.747318
H190	H	1.798661	0.243320	-0.247318
H191	H	0.939567	-0.702289	-0.224104
H192	H	1.439567	-0.202289	0.275896
N193	N	0.521478	-0.278145	-0.218171
N194	N	1.021478	0.221855	0.281829
N195	N	0.453254	-0.280682	-0.206828
N196	N	0.953254	0.219318	0.293172
H197	H	0.433981	-0.290201	-0.156051
H198	H	0.933981	0.209799	0.343949
H199	H	0.981643	-0.316347	-0.811854
H200	H	1.481643	0.183653	-0.311854
H201	H	0.619854	-0.187429	-0.266440
H202	H	1.119854	0.312571	0.233560
H203	H	1.159178	-0.450885	-0.444065
H204	H	1.659178	0.049115	0.055935
N205	N	1.110559	-0.350153	-0.910163
N206	N	1.610559	0.149847	-0.410163
N207	N	1.166786	-0.355846	-0.949777
N208	N	1.666786	0.144154	-0.449777
H209	H	1.180361	-0.391572	-0.969007
H210	H	1.680361	0.108428	-0.469007
H211	H	1.206741	-0.702009	-0.491687
H212	H	1.706741	-0.202009	0.008313
H213	H	0.619746	-0.339992	-0.324019
H214	H	1.119746	0.160008	0.175981
N215	N	1.169054	-0.555576	-0.453966
N216	N	1.669054	-0.055576	0.046034
N217	N	1.211415	-0.531140	-0.496399
N218	N	1.711415	-0.031140	0.003601
H219	H	1.245672	-0.550786	-0.530712
H220	H	1.745672	-0.050786	-0.030712
H221	H	0.527335	-0.316580	-0.449263
H222	H	1.027335	0.183420	0.050737
H223	H	0.986989	-0.550134	-0.271575
H224	H	1.486989	-0.050134	0.228425
N225	N	0.977308	-0.947775	-0.261844
N226	N	1.477308	-0.447775	0.238156
N227	N	0.908781	-0.953917	-0.266702
N228	N	1.408781	-0.453917	0.233298
H229	H	0.874519	-0.934265	-0.232402
H230	H	1.374519	-0.434265	0.267598
N231	N	1.216619	-0.806696	-0.501576
N232	N	1.716619	-0.306696	-0.001576
N233	N	1.258978	-0.782258	-0.544009
N234	N	1.758978	-0.282258	-0.044009
H235	H	1.293237	-0.801903	-0.578322
H236	H	1.793237	-0.301903	-0.078322
H237	H	1.159391	-0.953231	-0.444208
H238	H	1.659391	-0.453231	0.055792
N239	N	1.175648	-0.179873	-0.909972
N240	N	1.675648	0.320127	-0.409972
N241	N	1.154702	-0.142694	-0.949574
N242	N	1.654702	0.357306	-0.449574
H243	H	1.191937	-0.116521	-0.968677
H244	H	1.691937	0.383479	-0.468677
H245	H	0.939611	-0.801339	-0.224119
H246	H	1.439611	-0.301339	0.275881
N247	N	0.977379	-1.058134	-0.261845
N248	N	1.477379	-0.558134	0.238155
N249	N	0.935001	-1.033791	-0.219393
N250	N	1.435001	-0.533791	0.280607
H251	H	0.900767	-1.053513	-0.185086
H252	H	1.400767	-0.553513	0.314914
N253	N	1.035880	-0.153590	-0.806325
N254	N	1.535880	0.346410	-0.306325
N255	N	0.974411	-0.134111	-0.822117
N256	N	1.474411	0.365889	-0.322117
H257	H	0.960810	-0.098389	-0.802888
H258	H	1.460810	0.401611	-0.302888
