data_functionalizedCrystal
_audit_creation_method	'MofGen! by Chris Wilmer'
_symmetry_space_group_name_H-M	'P1'
_symmetry_Int_Tables_number	1
_symmetry_cell_setting	triclinic
loop_
_symmetry_equiv_pos_as_xyz
  x,y,z
_cell_length_a	15.995350
_cell_length_b	10.654550
_cell_length_c	9.730223
_cell_angle_alpha	90.000193
_cell_angle_beta	90.006164
_cell_angle_gamma	96.011361
loop_
_atom_site_label
_atom_site_type_symbol
_atom_site_fract_x
_atom_site_fract_y
_atom_site_fract_z
O1	O	1.111921	-0.161868	-0.114083
O2	O	0.868261	-0.181857	-0.114130
O3	O	0.995693	0.010950	-0.114100
O4	O	0.984489	-0.354675	-0.114113
O5	O	0.995692	0.010945	0.114480
O6	O	0.868260	-0.181862	0.114450
O7	O	1.111919	-0.161872	0.114497
Zn8	Zn	0.990089	-0.171868	0.150765
Zn9	Zn	0.990091	-0.171861	-0.150398
O10	O	0.984487	-0.354680	0.114467
C11	C	0.837061	-0.181033	0.000154
C12	C	0.744096	-0.178555	0.000136
C13	C	0.994870	0.057735	0.000188
C14	C	0.992409	0.197146	0.000183
C15	C	1.143119	-0.162696	0.000210
C16	C	1.236084	-0.165174	0.000219
C17	C	1.573883	-0.174071	0.000163
C18	C	1.527247	-0.311385	0.000675
C19	C	1.430542	-0.308907	0.000175
C20	C	1.406297	-0.169658	0.000192
C21	C	1.446965	-0.101927	-0.130339
C22	C	1.543621	-0.105376	-0.130462
C23	C	1.543995	-0.102546	0.129476
C24	C	1.447050	-0.102579	0.131215
C25	C	1.311585	-0.167156	0.000203
C26	C	1.668596	-0.176569	0.000143
C27	C	0.985311	-0.401464	0.000176
C28	C	0.987772	-0.540875	0.000172
N29	N	0.990094	-0.171871	0.356302
C30	C	1.067438	0.277612	0.000201
C31	C	1.065121	0.408603	0.000191
C32	C	0.912737	0.378648	0.000150
C33	C	0.915055	0.247660	0.000150
C34	C	1.155416	0.294907	0.000231
C35	C	1.153098	0.425897	0.000221
N36	N	0.990093	-0.171848	-0.355935
C37	C	1.046536	-0.086525	0.428241
C38	C	1.046533	-0.086510	0.572124
C39	C	0.933646	-0.257198	0.572116
C40	C	0.933644	-0.257206	0.428236
C41	C	1.111713	0.012017	0.428247
C42	C	1.111711	0.012032	0.572130
H43	H	1.402440	-0.362154	0.093739
Br44	Br	1.213026	-0.037664	0.353870
H45	H	1.183431	0.259644	0.098933
Br46	Br	1.077795	0.163619	0.646505
Br47	Br	1.087888	0.172594	0.363140
Br48	Br	1.212771	0.246715	-0.159179
Br49	Br	1.400101	-0.180321	-0.292246
H50	H	1.179687	0.471890	-0.098468
Br51	Br	1.208344	0.496231	0.159661
H52	H	1.547146	-0.366021	-0.092414
Br53	Br	1.559283	-0.403261	0.155991
Br54	Br	1.384591	-0.398227	-0.156048
Br55	Br	1.218951	-0.022415	0.637250
H56	H	1.564809	-0.147441	0.228403
Br57	Br	0.813225	0.138458	0.000082
H58	H	1.562197	-0.154765	-0.228041
H59	H	1.575283	-0.004564	-0.136402
H60	H	1.432245	0.000376	-0.135181
Br61	Br	0.857037	-0.373002	0.669747
H62	H	1.420050	-0.152035	0.227780
Br63	Br	1.420462	0.066673	0.144383
H64	H	0.849758	0.419794	0.000122
Br65	Br	1.595962	0.066187	0.130962
Br66	Br	0.857030	-0.373014	0.330600
