data_functionalizedCrystal
_audit_creation_method	'MofGen! by Chris Wilmer'
_symmetry_space_group_name_H-M	'P1'
_symmetry_Int_Tables_number	1
_symmetry_cell_setting	triclinic
loop_
_symmetry_equiv_pos_as_xyz
  x,y,z
_cell_length_a	14.044191
_cell_length_b	15.995300
_cell_length_c	13.101039
_cell_angle_alpha	93.366198
_cell_angle_beta	86.337551
_cell_angle_gamma	88.331792
loop_
_atom_site_label
_atom_site_type_symbol
_atom_site_fract_x
_atom_site_fract_y
_atom_site_fract_z
O1	O	1.262878	0.197664	-0.085145
O2	O	0.986911	0.190373	-0.085159
O3	O	1.132464	0.072694	-0.085157
O4	O	1.117326	0.315344	-0.085148
O5	O	1.122020	0.081152	0.085273
O6	O	0.976468	0.198832	0.085271
O7	O	1.252435	0.206123	0.085284
Zn8	Zn	1.112793	0.203821	0.112337
Zn9	Zn	1.126553	0.192676	-0.112212
O10	O	1.106883	0.323803	0.085282
C11	C	0.946376	0.191413	0.000054
C12	C	0.841152	0.181899	0.000048
C13	C	0.590855	0.231979	0.000060
C14	C	0.648498	0.164521	0.000056
C15	C	0.755700	0.174193	0.000052
C16	C	0.483642	0.222308	0.000065
C17	C	1.126625	0.045681	0.000054
C18	C	1.124775	-0.047410	0.000044
C19	C	1.121356	-0.217848	0.000054
C20	C	1.224992	-0.257571	0.000057
C21	C	1.223077	-0.354381	0.000448
C22	C	1.117991	-0.385656	0.000062
C23	C	1.060622	-0.343542	0.097191
C24	C	1.063239	-0.246709	0.097269
C25	C	1.073581	-0.256167	-0.096548
C26	C	1.073669	-0.353174	-0.097821
C27	C	1.116084	-0.480493	0.000071
C28	C	1.123260	-0.123010	0.000052
C29	C	1.292971	0.205083	0.000069
C30	C	1.398195	0.214597	0.000068
C31	C	1.112721	0.350815	0.000069
C32	C	1.114572	0.443906	0.000072
N33	N	1.103410	0.211426	0.265585
N34	N	1.135944	0.185064	-0.265460
C35	C	1.090643	0.221782	0.474628
C36	C	1.148707	0.174711	0.525504
C37	C	1.141604	0.180473	0.641822
C38	C	1.097745	0.216021	0.358299
H39	H	1.267746	-0.383281	-0.069162
H40	H	0.622015	0.296990	0.000060
O41	O	0.958053	-0.369658	0.101626
H42	H	0.924045	-0.350327	0.032158
O43	O	1.285826	-0.233539	-0.092185
H44	H	1.242852	-0.193021	-0.139018
H45	H	1.091458	-0.365657	0.169751
O46	O	1.221623	0.115594	0.467494
H47	H	1.270698	0.151855	0.418617
O48	O	1.106425	-0.213980	0.193801
H49	H	1.062255	-0.232399	0.261619
O50	O	0.607236	0.078393	0.000050
H51	H	0.566977	0.067328	-0.069419
O52	O	1.273697	-0.222961	0.092182
H53	H	1.293290	-0.275064	0.139959
O54	O	0.962101	-0.211215	0.102767
H55	H	0.963211	-0.141853	0.102862
O56	O	1.017741	0.280904	0.532634
H57	H	1.023544	0.276216	0.616215
O58	O	1.270674	-0.382694	0.093217
H59	H	1.231733	-0.354270	0.163780
O60	O	1.124705	-0.230311	-0.194041
H61	H	1.200375	-0.252916	-0.197265
O62	O	1.129219	-0.390405	-0.193013
H63	H	1.188149	-0.431876	-0.170717
H64	H	0.997416	-0.374550	-0.103982
H65	H	0.997224	-0.230152	-0.097478
