data_functionalizedCrystal
_audit_creation_method	'MofGen! by Chris Wilmer'
_symmetry_space_group_name_H-M	'P1'
_symmetry_Int_Tables_number	1
_symmetry_cell_setting	triclinic
loop_
_symmetry_equiv_pos_as_xyz
  x,y,z
_cell_length_a	21.295420
_cell_length_b	21.295417
_cell_length_c	19.805399
_cell_angle_alpha	89.969157
_cell_angle_beta	89.981220
_cell_angle_gamma	90.028757
loop_
_atom_site_label
_atom_site_type_symbol
_atom_site_fract_x
_atom_site_fract_y
_atom_site_fract_z
Zn1	Zn	0.962319	-0.250653	-0.382690
Zn2	Zn	1.462319	0.249347	0.117310
Zn3	Zn	0.962232	-0.355922	-0.269495
Zn4	Zn	1.462232	0.144078	0.230505
Zn5	Zn	0.857053	-0.250667	-0.269516
Zn6	Zn	1.357053	0.249333	0.230484
Zn7	Zn	0.857011	-0.355885	-0.382644
Zn8	Zn	1.357011	0.144115	0.117356
O9	O	0.909654	-0.303282	-0.326086
O10	O	1.409654	0.196718	0.173914
O11	O	1.050396	-0.264627	-0.367685
O12	O	1.550396	0.235373	0.132315
O13	O	0.948261	-0.341981	-0.174781
O14	O	1.448261	0.158019	0.325219
O15	O	0.871070	-0.162576	-0.284557
O16	O	1.371070	0.337424	0.215443
O17	O	1.050333	-0.341967	-0.284521
O18	O	1.550333	0.158033	0.215479
O19	O	0.948409	-0.162566	-0.367705
O20	O	1.448409	0.337434	0.132295
O21	O	0.870986	-0.264651	-0.174797
O22	O	1.370986	0.235349	0.325203
O23	O	0.768958	-0.264615	-0.284512
O24	O	1.268958	0.235385	0.215488
O25	O	0.870999	-0.341905	-0.477366
O26	O	1.370999	0.158095	0.022634
O27	O	0.768927	-0.341918	-0.367626
O28	O	1.268927	0.158082	0.132374
O29	O	0.948368	-0.264591	-0.477400
O30	O	1.448368	0.235409	0.022600
O31	O	0.948220	-0.444006	-0.284476
O32	O	1.448220	0.055994	0.215524
O33	O	0.870915	-0.443980	-0.367606
O34	O	1.370915	0.056020	0.132394
C35	C	0.746102	-0.303265	-0.326067
C36	C	1.246102	0.196735	0.173933
C37	C	0.676134	-0.303273	-0.326075
C38	C	1.176134	0.196727	0.173925
C39	C	0.176677	-0.343608	-0.369322
C40	C	0.676677	0.156392	0.130678
C41	C	0.242419	-0.343608	-0.369315
C42	C	0.742419	0.156392	0.130685
C43	C	0.275294	-0.303296	-0.326107
C44	C	0.775294	0.196704	0.173893
C45	C	0.242422	-0.262993	-0.282892
C46	C	0.742422	0.237007	0.217108
C47	C	0.176681	-0.262998	-0.282895
C48	C	0.676681	0.237002	0.217105
N49	N	0.378536	-0.248179	-0.321019
N50	N	0.878536	0.251821	0.178981
N51	N	0.440987	-0.248176	-0.321019
N52	N	0.940987	0.251824	0.178981
C53	C	0.473369	-0.303278	-0.326093
C54	C	0.973369	0.196722	0.173907
N55	N	0.440941	-0.358385	-0.331179
N56	N	0.940941	0.141615	0.168821
N57	N	0.378483	-0.358388	-0.331182
N58	N	0.878483	0.141612	0.168818
C59	C	0.346580	-0.303286	-0.326099
C60	C	0.846580	0.196714	0.173901
C61	C	0.577519	-0.343583	-0.369295
C62	C	1.077519	0.156417	0.130705
C63	C	0.643263	-0.343584	-0.369283
C64	C	1.143263	0.156416	0.130717
C65	C	0.643265	-0.262963	-0.282864
C66	C	1.143265	0.237037	0.217136
C67	C	0.577522	-0.262967	-0.282872
C68	C	1.077522	0.237033	0.217128
C69	C	0.544653	-0.303277	-0.326091
C70	C	1.044653	0.196723	0.173909
C71	C	0.909571	-0.466834	-0.326049
C72	C	1.409571	0.033166	0.173951
C73	C	0.909593	-0.536802	-0.326055
C74	C	1.409593	-0.036802	0.173945
C75	C	0.949882	-0.569661	-0.282814
C76	C	1.449882	-0.069661	0.217186
C77	C	0.949911	-0.635404	-0.282829
C78	C	1.449911	-0.135404	0.217171
C79	C	0.909641	-0.668284	-0.326079
C80	C	1.409641	-0.168284	0.173921
C81	C	0.869350	-0.635416	-0.369328
C82	C	1.369350	-0.135416	0.130672
C83	C	0.869326	-0.569675	-0.369317
C84	C	1.369326	-0.069675	0.130683
N85	N	0.854574	-0.771548	-0.331232
N86	N	1.354574	-0.271548	0.168768
N87	N	0.854598	-0.834000	-0.331239
N88	N	1.354598	-0.334000	0.168761
C89	C	0.909712	-0.866359	-0.326117
C90	C	1.409712	-0.366359	0.173883
N91	N	0.964801	-0.833907	-0.320975
N92	N	1.464801	-0.333907	0.179025
N93	N	0.964776	-0.771450	-0.320964
N94	N	1.464776	-0.271450	0.179036
C95	C	0.909663	-0.739569	-0.326096
C96	C	1.409663	-0.239569	0.173904
C97	C	0.950036	-0.970504	-0.282890
C98	C	1.450036	-0.470504	0.217110
C99	C	0.950066	-1.036248	-0.282910
C100	C	1.450066	-0.536248	0.217090
C101	C	0.869499	-1.036259	-0.369406
C102	C	1.369499	-0.536259	0.130594
C103	C	0.869474	-0.970517	-0.369389
C104	C	1.369474	-0.470517	0.130611
C105	C	0.909741	-0.937643	-0.326128
C106	C	1.409741	-0.437643	0.173872
C107	C	1.073844	-0.303299	-0.326106
C108	C	1.573844	0.196701	0.173894
C109	C	1.143812	-0.303307	-0.326115
C110	C	1.643812	0.196693	0.173885
C111	C	0.909689	-0.303242	-0.502629
C112	C	1.409689	0.196758	-0.002629
C113	C	0.909704	-0.303225	-0.577861
C114	C	1.409704	0.196775	-0.077861
C115	C	0.909754	-0.139092	-0.326139
C116	C	1.409754	0.360908	0.173861
C117	C	0.909796	-0.069123	-0.326161
C118	C	1.409796	0.430877	0.173839
C119	C	0.949991	-0.262966	-0.613224
C120	C	1.449991	0.237034	-0.113224
C121	C	0.949997	-0.262948	-0.683913
C122	C	1.449997	0.237052	-0.183913
C123	C	0.909720	-0.303192	-0.719237
C124	C	1.409720	0.196808	-0.219237
C125	C	0.869428	-0.343453	-0.683869
C126	C	1.369428	0.156547	-0.183869
C127	C	0.869419	-0.343468	-0.613182
C128	C	1.369419	0.156532	-0.113182
C129	C	0.869464	-0.343395	-0.968942
C130	C	1.369464	0.156605	-0.468942
C131	C	0.869477	-0.343378	-1.039634
C132	C	1.369477	0.156622	-0.539634
C133	C	0.950042	-0.262875	-1.039673
C134	C	1.450042	0.237125	-0.539673
C135	C	0.950033	-0.262889	-0.968986
C136	C	1.450033	0.237111	-0.468986
C137	C	0.909739	-0.303148	-0.933624
C138	C	1.409739	0.196852	-0.433624
C139	C	0.909732	-0.303166	-0.856976
C140	C	1.409732	0.196834	-0.356976
C141	C	0.909730	-0.303178	-0.795884
C142	C	1.409730	0.196822	-0.295884
C143	C	0.909655	-0.303276	-0.150230
C144	C	1.409655	0.196724	0.349770
C145	C	0.909762	-0.303116	-0.074999
C146	C	1.409762	0.196884	0.425001
H147	H	0.670031	-0.230143	-0.247681
H148	H	1.170031	0.269857	0.252319
N149	N	0.277882	-0.219512	-0.236296
N150	N	0.777882	0.280488	0.263704
H151	H	0.266462	-0.174549	-0.246896
H152	H	0.766462	0.325451	0.253104
H153	H	0.266411	-0.229285	-0.187934
H154	H	0.766411	0.270715	0.312066
N155	N	0.826021	-0.386782	-1.077728
N156	N	1.326021	0.113218	-0.577728
H157	H	0.796875	-0.361184	-1.107058
H158	H	1.296875	0.138816	-0.607058
H159	H	0.851627	-0.415948	-1.107013
H160	H	1.351627	0.084052	-0.607013
H161	H	0.149923	-0.230178	-0.247711
H162	H	0.649923	0.269822	0.252289
N163	N	0.993362	-0.670848	-0.236177
N164	N	1.493362	-0.170848	0.263823
H165	H	0.967799	-0.698163	-0.204794
H166	H	1.467799	-0.198163	0.295206
H167	H	1.022526	-0.698048	-0.263754
H168	H	1.522526	-0.198048	0.236246
H169	H	0.836665	-0.943760	-0.404598
H170	H	1.336665	-0.443760	0.095402
N171	N	0.993491	-0.219441	-1.077816
N172	N	1.493491	0.280559	-0.577816
H173	H	1.019005	-0.193950	-1.044711
H174	H	1.519005	0.306050	-0.544711
H175	H	1.022611	-0.245058	-1.107145
H176	H	1.522611	0.254942	-0.607145
H177	H	0.982672	-0.542898	-0.247590
H178	H	1.482672	-0.042898	0.252410
N179	N	0.825916	-0.670875	-0.415978
N180	N	1.325916	-0.170875	0.084022
H181	H	0.832043	-0.717509	-0.409423
H182	H	1.332043	-0.217509	0.090577
H183	H	0.780961	-0.659428	-0.405398
H184	H	1.280961	-0.159428	0.094602
N185	N	0.542070	-0.219498	-0.236272
N186	N	1.042070	0.280502	0.263728
H187	H	0.572870	-0.193960	-0.208898
H188	H	1.072870	0.306040	0.291102
H189	H	0.514815	-0.190401	-0.263881
H190	H	1.014815	0.309599	0.236119
N191	N	0.993456	-0.219522	-0.722042
N192	N	1.493456	0.280478	-0.222042
H193	H	1.022617	-0.245097	-0.751370
H194	H	1.522617	0.254903	-0.251370
H195	H	0.967855	-0.190343	-0.751332
H196	H	1.467855	0.309657	-0.251332
N197	N	0.542062	-0.387057	-0.415905
N198	N	1.042062	0.112943	0.084095
H199	H	0.572860	-0.412592	-0.443273
H200	H	1.072860	0.087408	0.056727
H201	H	0.514760	-0.416157	-0.388300
H202	H	1.014760	0.083843	0.111700
N203	N	0.993438	-0.219563	-0.575127
N204	N	1.493438	0.280437	-0.075127
H205	H	1.018959	-0.194056	-0.608258
H206	H	1.518959	0.305944	-0.108258
H207	H	0.967829	-0.190435	-0.545802
H208	H	1.467829	0.309565	-0.045802
N209	N	0.825869	-0.534229	-0.415956
N210	N	1.325869	-0.034229	0.084044
H211	H	0.800362	-0.565031	-0.443359
H212	H	1.300362	-0.065031	0.056641
H213	H	0.796743	-0.506998	-0.388368
H214	H	1.296743	-0.006998	0.111632
N215	N	0.678713	-0.387059	-0.415881
N216	N	1.178713	0.112941	0.084119
H217	H	0.647913	-0.412593	-0.443259
H218	H	1.147913	0.087407	0.056741
H219	H	0.706015	-0.361470	-0.447249
H220	H	1.206015	0.138530	0.052751
H221	H	0.269183	-0.376426	-0.404501
H222	H	0.769183	0.123574	0.095499
N223	N	0.141226	-0.387093	-0.415923
N224	N	0.641226	0.112907	0.084077
H225	H	0.152687	-0.377378	-0.464304
H226	H	0.652687	0.122622	0.035696
H227	H	0.152666	-0.432036	-0.405258
H228	H	0.652666	0.067964	0.094742
N229	N	0.825966	-0.386895	-0.575045
N230	N	1.325966	0.113105	-0.075045
H231	H	0.851523	-0.416076	-0.545710
H232	H	1.351523	0.083924	-0.045710
H233	H	0.796812	-0.361271	-0.545760
H234	H	1.296812	0.138729	-0.045760
N235	N	0.993465	-0.935042	-0.236235
N236	N	1.493465	-0.435042	0.263765
H237	H	1.018997	-0.965837	-0.208846
H238	H	1.518997	-0.465837	0.291154
H239	H	1.022570	-0.907719	-0.263809
H240	H	1.522570	-0.407719	0.236191
H241	H	0.982878	-1.063001	-0.247700
H242	H	1.482878	-0.563001	0.252300
N243	N	0.993479	-0.219484	-0.930890
N244	N	1.493479	0.280516	-0.430890
H245	H	0.983731	-0.174504	-0.943203
H246	H	1.483731	0.325496	-0.443203
H247	H	0.987341	-0.225657	-0.880756
H248	H	1.487341	0.274343	-0.380756
N249	N	0.826068	-1.071713	-0.416060
N250	N	1.326068	-0.571713	0.083940
H251	H	0.832197	-1.118347	-0.409508
H252	H	1.332197	-0.618347	0.090492
H253	H	0.781111	-1.060269	-0.405480
H254	H	1.281111	-0.560269	0.094520
H255	H	0.836664	-0.376185	-0.940159
H256	H	1.336664	0.123815	-0.440159
H257	H	0.836631	-0.376219	-0.712635
H258	H	1.336631	0.123781	-0.212635
