data_functionalizedCrystal
_audit_creation_method	'MofGen! by Chris Wilmer'
_symmetry_space_group_name_H-M	'P1'
_symmetry_Int_Tables_number	1
_symmetry_cell_setting	triclinic
loop_
_symmetry_equiv_pos_as_xyz
  x,y,z
_cell_length_a	10.540539
_cell_length_b	14.971491
_cell_length_c	14.048226
_cell_angle_alpha	89.991693
_cell_angle_beta	89.995726
_cell_angle_gamma	84.070863
loop_
_atom_site_label
_atom_site_type_symbol
_atom_site_fract_x
_atom_site_fract_y
_atom_site_fract_z
O1	O	0.165454	1.187876	-0.079197
O2	O	0.185257	0.927588	-0.079189
O3	O	-0.009418	1.063671	-0.079192
O4	O	0.360129	1.051794	-0.079194
O5	O	-0.009430	1.063654	0.079129
O6	O	0.185246	0.927572	0.079132
O7	O	0.165443	1.187860	0.079124
Zn8	Zn	0.175342	1.057713	0.104265
Zn9	Zn	0.175358	1.057735	-0.104330
O10	O	0.360118	1.051777	0.079127
C11	C	0.184365	0.894251	-0.000028
C12	C	0.181707	0.794939	-0.000025
C13	C	0.170246	0.367178	-0.086348
C14	C	0.172739	0.460492	-0.086344
C15	C	0.173988	0.507136	-0.000040
C16	C	0.172730	0.460461	0.086266
C17	C	0.170228	0.367150	0.086262
C18	C	0.177949	0.654953	0.086270
C19	C	0.180454	0.748271	0.086275
C20	C	0.180460	0.748295	-0.086336
C21	C	0.177958	0.654983	-0.086341
C22	C	0.176703	0.608315	-0.000034
C23	C	-0.056717	1.062772	-0.000033
C24	C	-0.197635	1.060107	-0.000038
C25	C	-0.379905	0.957999	-0.000390
C26	C	-0.233318	0.960700	-0.000034
C27	C	-0.259840	1.107937	0.090370
C28	C	-0.406347	1.104544	0.090446
C29	C	-0.406875	1.106585	-0.089595
C30	C	-0.259903	1.107500	-0.090790
C31	C	0.407417	1.052676	-0.000034
C32	C	0.548334	1.055341	-0.000035
C33	C	0.166335	1.221198	-0.000039
C34	C	0.168993	1.320510	-0.000048
N35	N	0.175331	1.057705	0.246626
N36	N	0.175359	1.057750	-0.246691
C37	C	0.089165	1.117981	0.296443
C38	C	0.089164	1.117987	0.396100
C39	C	0.175337	1.057721	0.445939
C40	C	0.261508	0.997437	0.396116
C41	C	0.261501	0.997428	0.296460
C42	C	0.261517	0.997463	0.603830
C43	C	0.261525	0.997474	0.703493
C44	C	0.089180	1.118023	0.703470
C45	C	0.089173	1.118013	0.603815
C46	C	0.175346	1.057731	0.553998
H47	H	0.176942	0.616957	0.156550
H48	H	0.173752	0.498486	-0.156618
H49	H	-0.409675	0.918883	0.064081
F50	F	-0.178178	0.911142	0.084817
F51	F	-0.442692	1.058320	0.178780
F52	F	0.353229	0.933300	0.550815
F53	F	0.181775	0.797911	0.178129
F54	F	-0.177065	0.911507	-0.084742
F55	F	0.174055	0.510106	0.178118
H56	H	0.019000	1.167068	0.436661
F57	F	0.353215	0.933292	0.449159
F58	F	0.168885	0.317483	0.178114
H59	H	-0.236502	1.179976	-0.096252
H60	H	0.018998	1.167061	0.255870
H61	H	-0.408056	0.918737	-0.065223
H62	H	0.331665	0.948343	0.255900
H63	H	0.019011	1.167091	0.563236
F64	F	0.353241	0.933328	0.756528
F65	F	0.168927	0.317543	-0.178206
F66	F	0.176640	0.605342	-0.178195
F67	F	-0.205383	1.062116	-0.178222
H68	H	-0.455125	1.176036	0.094545
F69	F	0.181808	0.797962	-0.178191
H70	H	-0.238313	1.180938	0.093729
F71	F	-0.002529	1.182180	0.756493
H72	H	-0.438058	1.074419	-0.158118
F73	F	-0.203679	1.064492	0.178312
H74	H	-0.454913	1.178386	-0.090205
