data_functionalizedCrystal
_audit_creation_method	'MofGen! by Chris Wilmer'
_symmetry_space_group_name_H-M	'P1'
_symmetry_Int_Tables_number	1
_symmetry_cell_setting	triclinic
loop_
_symmetry_equiv_pos_as_xyz
  x,y,z
_cell_length_a	19.077236
_cell_length_b	16.959447
_cell_length_c	19.077068
_cell_angle_alpha	92.264979
_cell_angle_beta	94.708605
_cell_angle_gamma	87.680436
loop_
_atom_site_label
_atom_site_type_symbol
_atom_site_fract_x
_atom_site_fract_y
_atom_site_fract_z
Zn1	Zn	1.066448	-0.505826	-0.237430
Zn2	Zn	1.399781	-0.172492	0.095903
Zn3	Zn	1.733115	0.160841	0.429237
Zn4	Zn	1.061621	-0.378739	-0.355331
Zn5	Zn	1.394955	-0.045406	-0.021998
Zn6	Zn	1.728288	0.287928	0.311335
Zn7	Zn	0.948559	-0.368547	-0.242185
Zn8	Zn	1.281893	-0.035213	0.091149
Zn9	Zn	1.615226	0.298120	0.424482
Zn10	Zn	0.943784	-0.505760	-0.360009
Zn11	Zn	1.277118	-0.172426	-0.026676
Zn12	Zn	1.610451	0.160907	0.306658
O13	O	1.005103	-0.439718	-0.298739
O14	O	1.338437	-0.106384	0.034595
O15	O	1.671770	0.226949	0.367928
O16	O	1.164460	-0.493260	-0.249122
O17	O	1.497793	-0.159927	0.084211
O18	O	1.831126	0.173406	0.417545
O19	O	1.046602	-0.266776	-0.340354
O20	O	1.379935	0.066557	-0.007021
O21	O	1.713269	0.399890	0.326312
O22	O	0.968216	-0.382519	-0.142902
O23	O	1.301549	-0.049186	0.190431
O24	O	1.634883	0.284148	0.523765
O25	O	1.160914	-0.399890	-0.335744
O26	O	1.494247	-0.066557	-0.002410
O27	O	1.827580	0.266776	0.330923
O28	O	1.054828	-0.483377	-0.139409
O29	O	1.388162	-0.150044	0.193925
O30	O	1.721495	0.183289	0.527258
O31	O	0.963536	-0.259288	-0.257226
O32	O	1.296869	0.074045	0.076107
O33	O	1.630202	0.407379	0.409440
O34	O	0.849274	-0.382455	-0.261762
O35	O	1.182607	-0.049122	0.071571
O36	O	1.515941	0.284212	0.404905
O37	O	0.960077	-0.616379	-0.343716
O38	O	1.293411	-0.283046	-0.010383
O39	O	1.626744	0.050288	0.322950
O40	O	0.845766	-0.483265	-0.348327
O41	O	1.179099	-0.149932	-0.014994
O42	O	1.512432	0.183402	0.318340
O43	O	1.050198	-0.616427	-0.253658
O44	O	1.383531	-0.283094	0.079675
O45	O	1.716865	0.050239	0.413009
O46	O	1.041972	-0.399826	-0.454604
O47	O	1.375305	-0.066493	-0.121270
O48	O	1.708638	0.266840	0.212063
O49	O	0.955397	-0.493148	-0.458041
O50	O	1.288731	-0.159815	-0.124707
O51	O	1.622064	0.173519	0.208626
C52	C	0.821940	-0.431747	-0.306069
C53	C	1.155274	-0.098414	0.027265
C54	C	1.488607	0.234919	0.360598
C55	C	0.743582	-0.428357	-0.309222
C56	C	1.076915	-0.095024	0.024112
C57	C	1.410248	0.238310	0.357445
C58	C	0.708613	-0.475457	-0.265675
C59	C	1.041946	-0.142124	0.067658
C60	C	1.375279	0.191209	0.400992
C61	C	0.634987	-0.472265	-0.268634
C62	C	0.968320	-0.138931	0.064699
C63	C	1.301653	0.194402	0.398033
C64	C	0.596331	-0.421976	-0.315144
C65	C	0.929664	-0.088642	0.018190
C66	C	1.262997	0.244691	0.351523
C67	C	0.631305	-0.374870	-0.358692
C68	C	0.964638	-0.041537	-0.025358
C69	C	1.297972	0.291797	0.307975
C70	C	0.704930	-0.378059	-0.355729
C71	C	1.038263	-0.044726	-0.022395
C72	C	1.371596	0.288608	0.310938
C73	C	0.375938	-0.407213	-0.328830
C74	C	0.709271	-0.073880	0.004503
C75	C	1.042605	0.259454	0.337836
C76	C	0.302308	-0.404029	-0.331792
C77	C	0.635642	-0.070696	0.001542
C78	C	0.968975	0.262637	0.334875
C79	C	0.305995	-0.501423	-0.241732
C80	C	0.639328	-0.168090	0.091601
C81	C	0.972662	0.165243	0.424934
C82	C	0.379621	-0.504611	-0.238777
C83	C	0.712955	-0.171278	0.094557
C84	C	1.046288	0.162055	0.427890
C85	C	0.414589	-0.457503	-0.282322
C86	C	0.747922	-0.124170	0.051011
C87	C	1.081256	0.209164	0.384345
N88	N	0.521073	-0.418713	-0.318171
N89	N	0.854406	-0.085380	0.015163
N90	N	1.187740	0.247954	0.348496
N91	N	0.489846	-0.460762	-0.279291
N92	N	0.823179	-0.127429	0.054042
N93	N	1.156512	0.205905	0.387376
C94	C	1.005143	-0.645885	-0.298679
C95	C	1.338477	-0.312552	0.034655
C96	C	1.671810	0.020782	0.367988
C97	C	1.005160	-0.733741	-0.298653
C98	C	1.338494	-0.400408	0.034680
C99	C	1.671827	-0.067075	0.368014
C100	C	0.961977	-1.101324	-0.255295
C101	C	1.295310	-0.767991	0.078038
C102	C	1.628643	-0.434657	0.411371
C103	C	1.048474	-1.109109	-0.341857
C104	C	1.381808	-0.775776	-0.008524
C105	C	1.715141	-0.442443	0.324809
C106	C	1.048461	-1.026564	-0.341874
C107	C	1.381795	-0.693230	-0.008541
C108	C	1.715128	-0.359897	0.324792
C109	C	1.005205	-0.981394	-0.298602
C110	C	1.338538	-0.648061	0.034732
C111	C	1.671871	-0.314728	0.368065
C112	C	0.961961	-1.018771	-0.255312
C113	C	1.295294	-0.685437	0.078021
C114	C	1.628628	-0.352104	0.411354
C115	C	1.091699	-0.989181	-0.385168
C116	C	1.425032	-0.655848	-0.051835
C117	C	1.758366	-0.322514	0.281499
C118	C	1.091687	-0.906630	-0.385187
C119	C	1.425021	-0.573297	-0.051854
C120	C	1.758354	-0.239963	0.281479
C121	C	1.048434	-0.861459	-0.341911
C122	C	1.381767	-0.528126	-0.008577
C123	C	1.715101	-0.194793	0.324756
C124	C	1.005189	-0.898841	-0.298619
C125	C	1.338522	-0.565507	0.034714
C126	C	1.671856	-0.232174	0.368048
C127	C	0.961932	-0.853671	-0.255346
C128	C	1.295266	-0.520338	0.077987
C129	C	1.628599	-0.187005	0.411320
C130	C	0.918691	-0.891051	-0.212050
C131	C	1.252024	-0.557718	0.121283
C132	C	1.585357	-0.224384	0.454616
C133	C	0.918708	-0.973600	-0.212036
C134	C	1.252041	-0.640266	0.121298
C135	C	1.585374	-0.306933	0.454631
C136	C	1.048417	-0.778911	-0.341925
C137	C	1.381750	-0.445577	-0.008592
C138	C	1.715084	-0.112244	0.324741
C139	C	0.961917	-0.771118	-0.255364
C140	C	1.295250	-0.437784	0.077970
C141	C	1.628583	-0.104451	0.411303
C142	C	1.188981	-0.447720	-0.291381
C143	C	1.522315	-0.114386	0.041953
C144	C	1.855648	0.218947	0.375286
C145	C	1.267339	-0.451130	-0.288245
C146	C	1.600673	-0.117796	0.045088
C147	C	1.934006	0.215537	0.378422
C148	C	0.997662	-0.447604	-0.481901
C149	C	1.330995	-0.114271	-0.148567
C150	C	1.664328	0.219062	0.184766
C151	C	0.994543	-0.451007	-0.560256
C152	C	1.327876	-0.117674	-0.226922
C153	C	1.661209	0.215659	0.106411
C154	C	1.005106	-0.234352	-0.298746
C155	C	1.338439	0.098981	0.034587
C156	C	1.671773	0.432315	0.367921
C157	C	1.005233	-0.146493	-0.298568
C158	C	1.338567	0.186840	0.034766
C159	C	1.671900	0.520173	0.368099
C160	C	1.038187	-0.404062	-0.595253
C161	C	1.371520	-0.070729	-0.261919
C162	C	1.704854	0.262605	0.071414
C163	C	1.035257	-0.407268	-0.668875
C164	C	1.368591	-0.073934	-0.335542
C165	C	1.701924	0.259399	-0.002209
C166	C	0.988680	-0.457415	-0.707500
C167	C	1.322013	-0.124082	-0.374166
C168	C	1.655346	0.209252	-0.040833
C169	C	0.945033	-0.504366	-0.672498
C170	C	1.278367	-0.171032	-0.339164
C171	C	1.611700	0.162301	-0.005831
C172	C	0.947967	-0.501164	-0.598876
C173	C	1.281300	-0.167830	-0.265543
C174	C	1.614634	0.165503	0.067791
C175	C	0.975072	-0.472201	-0.927879
C176	C	1.308406	-0.138868	-0.594546
C177	C	1.641739	0.194466	-0.261212
C178	C	0.972141	-0.475398	-1.001506
C179	C	1.305474	-0.142064	-0.668172
C180	C	1.638807	0.191269	-0.334839
C181	C	1.062366	-0.378300	-0.997879
C182	C	1.395699	-0.044967	-0.664545
C183	C	1.729032	0.288366	-0.331212
C184	C	1.065292	-0.375099	-0.924256
C185	C	1.398625	-0.041766	-0.590923
C186	C	1.731959	0.291567	-0.257589
C187	C	1.021649	-0.422053	-0.889260
C188	C	1.354982	-0.088720	-0.555927
C189	C	1.688315	0.244614	-0.222593
N190	N	0.985683	-0.460691	-0.782754
N191	N	1.319016	-0.127358	-0.449421
N192	N	1.652349	0.205976	-0.116087
N193	N	1.024650	-0.418781	-0.814007
N194	N	1.357983	-0.085447	-0.480673
N195	N	1.691316	0.247886	-0.147340
C196	C	1.012593	-0.431819	-0.114861
C197	C	1.345926	-0.098485	0.218473
C198	C	1.679260	0.234848	0.551806
C199	C	1.015785	-0.428452	-0.036503
C200	C	1.349118	-0.095119	0.296830
C201	C	1.682452	0.238214	0.630164
H202	H	0.277516	-0.539775	-0.206279
H203	H	0.610850	-0.206442	0.127054
H204	H	0.944183	0.126891	0.460387
H205	H	1.083686	-1.145891	-0.377093
H206	H	1.417020	-0.812558	-0.043760
H207	H	1.750353	-0.479224	0.289573
H208	H	0.883468	-0.854264	-0.176821
H209	H	1.216802	-0.520930	0.156512
H210	H	1.550135	-0.187597	0.489846
Cl211	Cl	0.757202	-0.538685	-0.207206
Cl212	Cl	1.090535	-0.205352	0.126128
Cl213	Cl	1.423868	0.127982	0.459461
H214	H	1.103219	-0.334265	-0.892809
H215	H	1.436553	-0.000932	-0.559476
H216	H	1.769886	0.332401	-0.226143
Cl217	Cl	1.117233	-0.319282	-1.041877
Cl218	Cl	1.450566	0.014051	-0.708544
Cl219	Cl	1.783899	0.347384	-0.375211
H220	H	0.270836	-0.363078	-0.369669
H221	H	0.604170	-0.029744	-0.036335
H222	H	0.937503	0.303589	0.296998
Cl223	Cl	0.864349	-1.020596	-0.157615
Cl224	Cl	1.197683	-0.687263	0.175719
Cl225	Cl	1.531016	-0.353930	0.509052
Cl226	Cl	0.920204	-0.531227	-0.883894
Cl227	Cl	1.253538	-0.197894	-0.550561
Cl228	Cl	1.586871	0.135439	-0.217227
H229	H	1.126908	-1.025964	-0.420407
H230	H	1.460241	-0.692630	-0.087073
H231	H	1.793574	-0.359297	0.246260
H232	H	1.076112	-0.363223	-0.563810
H233	H	1.409446	-0.029890	-0.230476
H234	H	1.742779	0.303444	0.102857
Cl235	Cl	0.913572	-0.538434	-1.050062
Cl236	Cl	1.246905	-0.205101	-0.716728
Cl237	Cl	1.580239	0.128232	-0.383395
H238	H	0.404400	-0.368855	-0.364289
H239	H	0.737733	-0.035521	-0.030956
H240	H	1.071067	0.297812	0.302378
H241	H	0.926773	-1.131762	-0.220043
H242	H	1.260106	-0.798429	0.113291
H243	H	1.593439	-0.465096	0.446624
Cl244	Cl	1.102768	-0.731922	-0.396355
Cl245	Cl	1.436101	-0.398589	-0.063022
Cl246	Cl	1.769434	-0.065255	0.270311
Cl247	Cl	0.582709	-0.311644	-0.417158
Cl248	Cl	0.916042	0.021689	-0.083824
Cl249	Cl	1.249375	0.355022	0.249509
Cl250	Cl	1.090130	-0.348250	-0.712869
Cl251	Cl	1.423463	-0.014917	-0.379535
Cl252	Cl	1.756796	0.318416	-0.046202
H253	H	0.907112	-0.545200	-0.703951
H254	H	1.240445	-0.211867	-0.370618
H255	H	1.573779	0.121466	-0.037285
H256	H	0.411090	-0.545565	-0.200906
H257	H	0.744423	-0.212232	0.132427
H258	H	1.077757	0.121101	0.465761
H259	H	0.606518	-0.510620	-0.233175
H260	H	0.939852	-0.177287	0.100158
H261	H	1.273185	0.156046	0.433492
Cl262	Cl	0.748891	-0.318845	-0.410476
Cl263	Cl	1.082224	0.014488	-0.077143
Cl264	Cl	1.415558	0.347821	0.256191
Cl265	Cl	0.907538	-0.714340	-0.200956
Cl266	Cl	1.240871	-0.381007	0.132377
Cl267	Cl	1.574204	-0.047673	0.465710
Cl268	Cl	1.146051	-0.859646	-0.439612
Cl269	Cl	1.479384	-0.526313	-0.106278
Cl270	Cl	1.812717	-0.192979	0.227055
Cl271	Cl	0.893100	-0.560186	-0.554879
Cl272	Cl	1.226433	-0.226853	-0.221546
Cl273	Cl	1.559766	0.106481	0.111787
