data_functionalizedCrystal
_audit_creation_method	'MofGen! by Chris Wilmer'
_symmetry_space_group_name_H-M	'P1'
_symmetry_Int_Tables_number	1
_symmetry_cell_setting	triclinic
loop_
_symmetry_equiv_pos_as_xyz
  x,y,z
_cell_length_a	14.044220
_cell_length_b	14.853567
_cell_length_c	13.930277
_cell_angle_alpha	90.000757
_cell_angle_beta	90.002277
_cell_angle_gamma	88.411904
loop_
_atom_site_label
_atom_site_type_symbol
_atom_site_fract_x
_atom_site_fract_y
_atom_site_fract_z
O1	O	-1.257997	-0.217372	-0.079714
O2	O	-0.982017	-0.209528	-0.079738
O3	O	-1.127379	-0.082805	-0.079728
O4	O	-1.112635	-0.344096	-0.079724
O5	O	-1.127359	-0.082800	0.079934
O6	O	-0.981997	-0.209524	0.079923
O7	O	-1.257976	-0.217368	0.079948
Zn8	Zn	-1.119983	-0.213445	0.105286
Zn9	Zn	-1.120010	-0.213451	-0.105076
O10	O	-1.112615	-0.344091	0.079938
C11	C	-0.946688	-0.206092	0.000089
C12	C	-0.841449	-0.195851	0.000079
C13	C	-1.126701	-0.049161	0.000100
C14	C	-1.124699	0.051082	0.000091
C15	C	-1.293306	-0.220803	0.000118
C16	C	-1.398545	-0.231045	0.000122
C17	C	-0.648763	-0.177127	0.000098
C18	C	-0.591225	-0.249765	0.000103
C19	C	-0.484008	-0.239347	0.000114
C20	C	-0.755990	-0.187544	0.000088
C21	C	-1.113293	-0.377735	0.000108
C22	C	-1.115295	-0.477978	0.000110
N23	N	-1.119972	-0.213441	0.248852
C24	C	-1.029888	0.471127	0.000101
C25	C	-1.202581	0.478726	0.000116
C26	C	-1.204464	0.384543	0.000111
C27	C	-1.119057	0.333648	0.000102
C28	C	-1.031768	0.376935	0.000098
C29	C	-1.291751	0.341248	0.000124
C30	C	-1.293637	0.247060	0.000120
C31	C	-1.208229	0.196163	0.000104
C32	C	-1.120937	0.239456	0.000099
C33	C	-1.035530	0.188561	0.000090
C34	C	-0.948237	0.231852	0.000079
C35	C	-0.946360	0.326038	0.000083
C36	C	-1.210105	0.101977	0.000100
C37	C	-1.037410	0.094369	0.000088
N38	N	-1.120029	-0.213449	-0.248642
C39	C	-1.055641	-0.269540	0.701116
C40	C	-1.184405	-0.157357	0.701095
C41	C	-1.184394	-0.157353	0.600599
C42	C	-1.120006	-0.213445	0.550357
C43	C	-1.055630	-0.269540	0.600611
C44	C	-1.248775	-0.101266	0.550338
C45	C	-1.248767	-0.101260	0.449836
C46	C	-1.184374	-0.157348	0.399592
C47	C	-1.119995	-0.213445	0.449852
C48	C	-1.055608	-0.269536	0.399611
C49	C	-0.991223	-0.325629	0.449869
C50	C	-0.991237	-0.325627	0.550368
C51	C	-1.184360	-0.157349	0.299093
C52	C	-1.055596	-0.269536	0.299106
H53	H	-0.622488	-0.319778	0.000100
H54	H	-1.364716	0.211820	0.000128
H55	H	-0.617501	-0.107120	0.000102
N56	N	-0.921773	-0.386119	0.395673
H57	H	-0.880985	-0.421653	0.442755
H58	H	-0.958112	-0.428919	0.353971
H59	H	-1.361284	0.382694	0.000141
H60	H	-0.875291	0.361295	0.000074
H61	H	-0.967860	0.052936	0.000076
N62	N	-0.856121	0.176955	0.000094
H63	H	-0.870564	0.110721	0.000104
H64	H	-0.818082	0.191743	-0.059095
N65	N	-0.935739	0.517812	0.000084
H66	H	-0.947503	0.585202	0.000084
H67	H	-0.898355	0.499688	0.059269
H68	H	-1.236832	-0.111694	0.742005
H69	H	-1.272115	0.520170	0.000132
H70	H	-1.003218	-0.315207	0.742039
N71	N	-1.318225	-0.040779	0.604523
H72	H	-1.308459	-0.049289	0.675814
H73	H	-1.307199	0.024073	0.586959
N74	N	-1.304245	0.055285	0.000120
H75	H	-1.308858	0.016378	0.059309
H76	H	-1.358006	0.101875	0.000098
H77	H	-1.003160	-0.315209	0.258205
N78	N	-1.318204	-0.040763	0.395632
H79	H	-1.358995	-0.005231	0.442711
H80	H	-1.281857	0.002038	0.353944
H81	H	-0.938819	-0.371297	0.591294
N82	N	-1.253800	-0.096865	0.244885
H83	H	-1.294594	-0.061336	0.291963
H84	H	-1.217459	-0.054061	0.203195
