data_functionalizedCrystal
_audit_creation_method	'MofGen! by Chris Wilmer'
_symmetry_space_group_name_H-M	'P1'
_symmetry_Int_Tables_number	1
_symmetry_cell_setting	triclinic
loop_
_symmetry_equiv_pos_as_xyz
  x,y,z
_cell_length_a	10.654541
_cell_length_b	27.732048
_cell_length_c	9.130307
_cell_angle_alpha	89.991788
_cell_angle_beta	89.999822
_cell_angle_gamma	83.563292
loop_
_atom_site_label
_atom_site_type_symbol
_atom_site_fract_x
_atom_site_fract_y
_atom_site_fract_z
O1	O	1.664985	0.067880	-0.121772
O2	O	1.299234	0.074349	-0.121787
O3	O	1.493469	0.000788	-0.121751
O4	O	1.470750	0.141440	-0.121808
O5	O	1.493463	0.000787	0.121848
O6	O	1.299228	0.074348	0.121812
O7	O	1.664979	0.067879	0.121827
Cu8	Cu	1.482103	0.071113	0.144062
Cu9	Cu	1.482110	0.071114	-0.144022
O10	O	1.470744	0.141439	0.121791
C11	C	1.252453	0.073873	0.000011
C12	C	1.113069	0.072453	0.000007
C13	C	1.081401	0.160415	-0.000047
C14	C	1.000086	0.203726	-0.000079
C15	C	0.869124	0.202389	-0.000080
C16	C	0.819476	0.157735	-0.000044
C17	C	0.900791	0.114423	-0.000012
C18	C	1.031754	0.115766	-0.000015
C19	C	0.932459	0.026463	0.000053
C20	C	1.063421	0.027799	0.000043
C21	C	0.882811	-0.018191	0.000089
C22	C	0.964126	-0.061504	0.000111
C23	C	1.095095	-0.060164	0.000110
C24	C	1.144736	-0.015512	0.000076
C25	C	1.492989	-0.017222	0.000052
C26	C	1.491553	-0.070886	0.000064
C27	C	1.597293	-0.409043	-0.000007
C28	C	1.591965	-0.610736	-0.000027
O29	O	1.688656	-0.641390	-0.000088
N30	N	1.476791	-0.630576	-0.000031
C31	C	1.362942	-0.599990	-0.000038
O32	O	1.264858	-0.621494	-0.000056
C33	C	1.368271	-0.398299	-0.000028
C34	C	1.483452	-0.378461	-0.000010
C35	C	1.712464	-0.389205	0.000010
C36	C	1.713795	-0.338785	0.000023
C37	C	1.599954	-0.308203	0.000020
C38	C	1.484783	-0.328041	0.000003
C39	C	1.254423	-0.367713	-0.000046
C40	C	1.255766	-0.317288	-0.000047
C41	C	1.370947	-0.297450	-0.000029
C42	C	1.372273	-0.247038	0.000013
N43	N	1.487446	-0.227198	0.000016
C44	C	1.601287	-0.257780	0.000019
C45	C	1.360152	-0.705882	-0.000041
C46	C	1.358819	-0.756305	-0.000041
C47	C	1.587843	-0.767046	-0.000032
C48	C	1.589174	-0.716623	-0.000022
C49	C	1.475325	-0.686041	-0.000037
C50	C	1.604073	-0.151893	0.000048
C51	C	1.605394	-0.101468	0.000068
C52	C	1.376371	-0.090731	0.000052
C53	C	1.375050	-0.141151	0.000040
C54	C	1.488911	-0.171732	0.000034
O55	O	1.275633	-0.216356	0.000057
O56	O	1.699357	-0.236267	0.000005
C57	C	1.595962	-0.459463	-0.000020
C58	C	1.480790	-0.479301	-0.000036
C59	C	1.366950	-0.448719	-0.000040
C60	C	1.479458	-0.529724	-0.000036
C61	C	1.593298	-0.560306	-0.000033
C62	C	1.708472	-0.540466	-0.000030
C63	C	1.709803	-0.490045	-0.000017
C64	C	1.251777	-0.468560	-0.000043
C65	C	1.250455	-0.518981	-0.000054
C66	C	1.364296	-0.549563	-0.000051
C67	C	1.711760	0.068354	0.000025
C68	C	1.851144	0.069774	0.000020
C69	C	1.471224	0.159450	-0.000016
C70	C	1.472660	0.213113	-0.000037
N71	N	1.482107	0.071112	0.346685
N72	N	1.482116	0.071111	-0.346645
C73	C	1.654171	0.005994	0.346706
C74	C	1.740211	-0.026564	0.423384
C75	C	1.740224	-0.026565	0.576717
C76	C	1.654184	0.005996	0.653377
C77	C	1.568144	0.038554	0.576699
C78	C	1.568143	0.038551	0.423362
C79	C	1.396076	0.103669	0.576678
C80	C	1.396067	0.103673	0.423344
C81	C	1.310037	0.136229	0.653337
C82	C	1.224000	0.168790	0.576660
C83	C	1.223992	0.168790	0.423317
C84	C	1.310027	0.136230	0.346667
H85	H	1.251370	-0.014417	0.000058
H86	H	1.160631	-0.383856	-0.000070
C87	C	1.013416	0.279112	-0.125362
C88	C	1.054660	0.252808	-0.000121
H89	H	1.047101	0.309414	-0.125377
H90	H	1.041392	0.261258	-0.210281
H91	H	0.923782	0.284509	-0.125350
H92	H	1.144294	0.247408	-0.000139
H93	H	1.026691	0.270666	0.084820
C94	C	1.768771	-0.092243	0.749196
C95	C	1.834793	-0.062353	0.661014
H96	H	1.827155	-0.114338	0.801231
H97	H	1.717546	-0.072849	0.816778
H98	H	1.716853	-0.109818	0.689375
H99	H	1.886705	-0.044775	0.720837
H100	H	1.886040	-0.081749	0.593424
H101	H	0.802916	0.237657	-0.000096
H102	H	1.654189	0.005989	0.778229
H103	H	1.810261	-0.053075	0.360954
H104	H	1.807587	-0.322638	0.000031
H105	H	1.699192	-0.085319	0.000086
H106	H	0.776174	-0.019277	0.000096
C107	C	0.950787	-0.136894	-0.125060
C108	C	0.909554	-0.110583	0.000150
H109	H	0.917099	-0.167195	-0.125030
H110	H	0.922810	-0.119044	-0.210000
H111	H	1.040421	-0.142293	-0.125049
H112	H	0.819920	-0.105181	0.000134
H113	H	0.937525	-0.128437	0.085112
H114	H	0.712838	0.156650	-0.000027
C115	C	1.260745	-0.109695	-0.125078
C116	C	1.184478	-0.107774	0.000145
H117	H	1.315927	-0.139086	-0.125049
H118	H	1.208996	-0.108394	-0.210009
H119	H	1.309053	-0.082909	-0.125086
H120	H	1.136163	-0.134557	0.000148
H121	H	1.236233	-0.109079	0.085098
H122	H	1.696790	-0.176787	0.000037
H123	H	1.680536	-0.791955	-0.000029
H124	H	1.265028	-0.772452	-0.000030
H125	H	1.805172	-0.414100	0.000007
H126	H	1.159072	-0.443664	-0.000049
C127	C	1.191941	0.126047	0.873003
C128	C	1.310047	0.136228	0.821884
H129	H	1.191953	0.126045	0.977058
H130	H	1.128399	0.150096	0.838314
H131	H	1.175384	0.095091	0.838324
H132	H	1.326600	0.167186	0.856554
H133	H	1.373608	0.112178	0.856588
H134	H	1.188035	0.161508	-0.000078
C135	C	1.839821	-0.603396	-0.125272
C136	C	1.833610	-0.574087	-0.000036
H137	H	1.917076	-0.624151	-0.125283
H138	H	1.771038	-0.622421	-0.125264
H139	H	1.835584	-0.583489	-0.210203
H140	H	1.837838	-0.593993	0.084896
H141	H	1.902412	-0.555060	-0.000030
C142	C	1.723555	-0.666163	0.125208
C143	C	1.715784	-0.694821	-0.000015
H144	H	1.801727	-0.652709	0.125211
H145	H	1.655963	-0.640731	0.125191
H146	H	1.718265	-0.685617	0.210149
H147	H	1.721065	-0.675366	-0.084956
H148	H	1.783394	-0.720256	-0.000011
H149	H	1.267437	-0.680986	-0.000053
H150	H	1.156654	-0.535127	-0.000056
C151	C	1.029249	-0.311738	-0.000072
C152	C	1.130616	-0.283673	-0.000058
H153	H	0.951990	-0.290986	-0.000068
H154	H	1.033503	-0.331622	-0.085019
H155	H	1.033500	-0.331636	0.084879
H156	H	1.126370	-0.263778	-0.085015
H157	H	1.126360	-0.263781	0.084897
C158	C	1.936040	-0.505743	-0.000021
C159	C	1.836414	-0.468244	-0.000014
H160	H	2.014208	-0.492286	-0.000031
H161	H	1.930750	-0.525189	0.084922
H162	H	1.930737	-0.525182	-0.084976
H163	H	1.841712	-0.448808	0.084947
H164	H	1.841706	-0.448791	-0.084965
C165	C	1.772279	0.016176	0.127052
C166	C	1.654168	0.005996	0.178160
H167	H	1.772278	0.016174	0.022998
H168	H	1.788834	0.047128	0.161726
H169	H	1.835824	-0.007877	0.161756
H170	H	1.590624	0.030051	0.143465
H171	H	1.637599	-0.024960	0.143472
C172	C	1.148596	0.252197	0.623842
C173	C	1.129427	0.204576	0.660916
H174	H	1.090202	0.274289	0.675856
H175	H	1.232282	0.257746	0.648980
H176	H	1.136282	0.256853	0.521546
H177	H	1.141750	0.199919	0.763211
H178	H	1.045720	0.199025	0.635788
C179	C	1.195423	0.234473	0.250853
C180	C	1.129414	0.204579	0.339034
H181	H	1.137031	0.256566	0.198819
H182	H	1.247335	0.252047	0.310662
H183	H	1.246653	0.215079	0.183256
H184	H	1.078190	0.223973	0.406639
H185	H	1.077480	0.187004	0.279220
H186	H	1.281260	-0.157304	0.000066
H187	H	1.310033	0.136229	0.221815
H188	H	1.283685	-0.065822	0.000054
