data_functionalizedCrystal
_audit_creation_method	'MofGen! by Chris Wilmer'
_symmetry_space_group_name_H-M	'P1'
_symmetry_Int_Tables_number	1
_symmetry_cell_setting	triclinic
loop_
_symmetry_equiv_pos_as_xyz
  x,y,z
_cell_length_a	18.215407
_cell_length_b	13.897448
_cell_length_c	18.215398
_cell_angle_alpha	90.023802
_cell_angle_beta	90.019464
_cell_angle_gamma	90.018140
loop_
_atom_site_label
_atom_site_type_symbol
_atom_site_fract_x
_atom_site_fract_y
_atom_site_fract_z
Zn1	Zn	1.125106	-0.384037	0.416124
Zn2	Zn	1.375106	-0.134037	0.666124
Zn3	Zn	1.625106	0.115963	0.916124
Zn4	Zn	1.875106	0.365963	1.166124
Zn5	Zn	1.125031	-0.545340	0.293061
Zn6	Zn	1.375031	-0.295340	0.543061
Zn7	Zn	1.625031	-0.045340	0.793061
Zn8	Zn	1.875031	0.204660	1.043061
Zn9	Zn	1.002039	-0.384062	0.293072
Zn10	Zn	1.252039	-0.134062	0.543072
Zn11	Zn	1.502039	0.115938	0.793072
Zn12	Zn	1.752039	0.365938	1.043072
Zn13	Zn	1.002020	-0.545293	0.416086
Zn14	Zn	1.252020	-0.295293	0.666086
Zn15	Zn	1.502020	-0.045293	0.916086
Zn16	Zn	1.752020	0.204707	1.166086
O17	O	1.063549	-0.464683	0.354586
O18	O	1.313549	-0.214683	0.604586
O19	O	1.563549	0.035317	0.854586
O20	O	1.813549	0.285317	1.104586
O21	O	1.228080	-0.405444	0.399811
O22	O	1.478080	-0.155444	0.649811
O23	O	1.728080	0.094556	0.899811
O24	O	1.978080	0.344556	1.149811
O25	O	1.108692	-0.523976	0.190078
O26	O	1.358692	-0.273976	0.440078
O27	O	1.608692	-0.023976	0.690078
O28	O	1.858692	0.226024	0.940078
O29	O	1.018404	-0.249077	0.309415
O30	O	1.268404	0.000923	0.559415
O31	O	1.518404	0.250923	0.809415
O32	O	1.768404	0.500923	1.059415
O33	O	1.228025	-0.523952	0.309398
O34	O	1.478025	-0.273952	0.559398
O35	O	1.728025	-0.023952	0.809398
O36	O	1.978025	0.226048	1.059398
O37	O	1.108821	-0.249059	0.399821
O38	O	1.358821	0.000941	0.649821
O39	O	1.608821	0.250941	0.899821
O40	O	1.858821	0.500941	1.149821
O41	O	1.018331	-0.405485	0.190086
O42	O	1.268331	-0.155485	0.440086
O43	O	1.518331	0.094515	0.690086
O44	O	1.768331	0.344515	0.940086
O45	O	0.899053	-0.405440	0.309378
O46	O	1.149053	-0.155440	0.559378
O47	O	1.399053	0.094560	0.809378
O48	O	1.649053	0.344560	1.059378
O49	O	1.018371	-0.523873	0.519076
O50	O	1.268371	-0.273873	0.769076
O51	O	1.518371	-0.023873	1.019076
O52	O	1.768371	0.226127	1.269076
O53	O	0.899038	-0.523896	0.399756
O54	O	1.149038	-0.273896	0.649756
O55	O	1.399038	-0.023896	0.899756
O56	O	1.649038	0.226104	1.149756
O57	O	1.108802	-0.405399	0.519103
O58	O	1.358802	-0.155399	0.769103
O59	O	1.608802	0.094601	1.019103
O60	O	1.858802	0.344601	1.269103
O61	O	1.108673	-0.680315	0.309361
O62	O	1.358673	-0.430315	0.559361
O63	O	1.608673	-0.180315	0.809361
O64	O	1.858673	0.069685	1.059361
O65	O	1.018298	-0.680281	0.399747
O66	O	1.268298	-0.430281	0.649747
O67	O	1.518298	-0.180281	0.899747
O68	O	1.768298	0.069719	1.149747
C69	C	0.872343	-0.464667	0.354565
C70	C	1.122343	-0.214667	0.604565
C71	C	1.372343	0.035333	0.854565
C72	C	1.622343	0.285333	1.104565
C73	C	0.790544	-0.464683	0.354573
C74	C	1.040544	-0.214683	0.604573
C75	C	1.290544	0.035317	0.854573
C76	C	1.540544	0.285317	1.104573
C77	C	0.602362	-0.526460	0.401574
C78	C	0.852362	-0.276460	0.651574
C79	C	1.102362	-0.026460	0.901574
C80	C	1.352362	0.223540	1.151574
C81	C	0.525503	-0.526463	0.401583
C82	C	0.775503	-0.276463	0.651583
C83	C	1.025503	-0.026463	0.901583
C84	C	1.275503	0.223537	1.151583
C85	C	0.525488	-0.402924	0.307614
C86	C	0.775488	-0.152924	0.557614
C87	C	1.025488	0.097076	0.807614
C88	C	1.275488	0.347076	1.057614
C89	C	0.602346	-0.402917	0.307609
C90	C	0.852346	-0.152917	0.557609
C91	C	1.102346	0.097083	0.807609
C92	C	1.352346	0.347083	1.057609
C93	C	0.640780	-0.464690	0.354588
C94	C	0.890780	-0.214690	0.604588
C95	C	1.140780	0.035310	0.854588
C96	C	1.390780	0.285310	1.104588
C97	C	0.487064	-0.464700	0.354602
C98	C	0.737064	-0.214700	0.604602
C99	C	0.987064	0.035300	0.854602
C100	C	1.237064	0.285300	1.104602
C101	C	0.403731	-0.464703	0.354612
C102	C	0.653731	-0.214703	0.604612
C103	C	0.903731	0.035297	0.854612
C104	C	1.153731	0.285297	1.104612
C105	C	0.724119	-0.464686	0.354579
C106	C	0.974119	-0.214686	0.604579
C107	C	1.224119	0.035314	0.854579
C108	C	1.474119	0.285314	1.104579
C109	C	1.063495	-0.715297	0.354565
C110	C	1.313495	-0.465297	0.604565
C111	C	1.563495	-0.215297	0.854565
C112	C	1.813495	0.034703	1.104565
C113	C	1.063540	-0.822511	0.354580
C114	C	1.313540	-0.572511	0.604580
C115	C	1.563540	-0.322511	0.854580
C116	C	1.813540	-0.072511	1.104580
C117	C	1.063617	-1.018806	0.354626
C118	C	1.313617	-0.768806	0.604626
C119	C	1.563617	-0.518806	0.854626
C120	C	1.813617	-0.268806	1.104626
C121	C	1.063572	-0.909574	0.354603
C122	C	1.313572	-0.659574	0.604603
C123	C	1.563572	-0.409574	0.854603
C124	C	1.813572	-0.159574	1.104603
C125	C	1.255502	-0.464700	0.354607
C126	C	1.505502	-0.214700	0.604607
C127	C	1.755502	0.035300	0.854607
C128	C	2.005502	0.285300	1.104607
C129	C	1.337301	-0.464708	0.354617
C130	C	1.587301	-0.214708	0.604617
C131	C	1.837301	0.035292	0.854617
C132	C	2.087301	0.285292	1.104617
C133	C	1.063593	-0.464628	0.546539
C134	C	1.313593	-0.214628	0.796539
C135	C	1.563593	0.035372	1.046539
C136	C	1.813593	0.285372	1.296539
C137	C	1.063611	-0.464604	0.628338
C138	C	1.313611	-0.214604	0.878338
C139	C	1.563611	0.035396	1.128338
C140	C	1.813611	0.285396	1.378338
C141	C	1.063623	-0.213090	0.354623
C142	C	1.313623	0.036910	0.604623
C143	C	1.563623	0.286910	0.854623
C144	C	1.813623	0.536910	1.104623
C145	C	1.063655	-0.105876	0.354639
C146	C	1.313655	0.144124	0.604639
C147	C	1.563655	0.394124	0.854639
C148	C	1.813655	0.644124	1.104639
C149	C	1.063548	-0.464669	0.163380
C150	C	1.313548	-0.214669	0.413380
C151	C	1.563548	0.035331	0.663380
C152	C	1.813548	0.285331	0.913380
C153	C	1.063672	-0.464421	0.081581
C154	C	1.313672	-0.214421	0.331581
C155	C	1.563672	0.035579	0.581581
C156	C	1.813672	0.285579	0.831581
C157	C	1.110696	-0.526183	0.893396
C158	C	1.360696	-0.276183	1.143396
C159	C	1.610696	-0.026183	1.393396
C160	C	1.860696	0.223817	1.643396
C161	C	1.110685	-0.526216	0.816537
C162	C	1.360685	-0.276216	1.066537
C163	C	1.610685	-0.026216	1.316537
C164	C	1.860685	0.223784	1.566537
C165	C	1.016582	-0.402839	0.816528
C166	C	1.266582	-0.152839	1.066528
C167	C	1.516582	0.097161	1.316528
C168	C	1.766582	0.347161	1.566528
C169	C	1.016590	-0.402811	0.893386
C170	C	1.266590	-0.152811	1.143386
C171	C	1.516590	0.097189	1.393386
C172	C	1.766590	0.347189	1.643386
C173	C	1.063651	-0.464482	0.931818
C174	C	1.313651	-0.214482	1.181818
C175	C	1.563651	0.035518	1.431818
C176	C	1.813651	0.285518	1.681818
C177	C	1.063632	-0.464543	0.778101
C178	C	1.313632	-0.214543	1.028101
C179	C	1.563632	0.035457	1.278101
C180	C	1.813632	0.285457	1.528101
C181	C	1.063619	-0.464579	0.694768
C182	C	1.313619	-0.214579	0.944768
C183	C	1.563619	0.035421	1.194768
C184	C	1.813619	0.285421	1.444768
C185	C	1.063663	-0.464447	1.015157
C186	C	1.313663	-0.214447	1.265157
C187	C	1.563663	0.035553	1.515157
C188	C	1.813663	0.285553	1.765157
H189	H	0.494185	-0.352632	0.269364
H190	H	0.744185	-0.102632	0.519364
H191	H	0.994185	0.147368	0.769364
H192	H	1.244185	0.397368	1.019364
H193	H	1.149015	-0.576400	0.924685
H194	H	1.399015	-0.326400	1.174685
H195	H	1.649015	-0.076400	1.424685
H196	H	1.899015	0.173600	1.674685
N197	N	1.161423	-0.592769	0.775097
N198	N	1.411423	-0.342769	1.025097
N199	N	1.661423	-0.092769	1.275097
N200	N	1.911423	0.157231	1.525097
H201	H	1.191234	-0.631830	0.811108
H202	H	1.441234	-0.381830	1.061108
H203	H	1.691234	-0.131830	1.311108
H204	H	1.941234	0.118170	1.561108
H205	H	1.195486	-0.553519	0.743217
H206	H	1.445486	-0.303519	0.993217
H207	H	1.695486	-0.053519	1.243217
H208	H	1.945486	0.196481	1.493217
H209	H	0.978268	-0.352628	0.785228
H210	H	1.228268	-0.102628	1.035228
H211	H	1.478268	0.147372	1.285228
H212	H	1.728268	0.397372	1.535228
H213	H	0.978277	-0.352565	0.924669
H214	H	1.228277	-0.102565	1.174669
H215	H	1.478277	0.147435	1.424669
H216	H	1.728277	0.397435	1.674669
H217	H	0.633653	-0.576757	0.439829
H218	H	0.883653	-0.326757	0.689829
H219	H	1.133653	-0.076757	0.939829
H220	H	1.383653	0.173243	1.189829
H221	H	0.633627	-0.352610	0.269347
H222	H	0.883627	-0.102610	0.519347
H223	H	1.133627	0.147390	0.769347
H224	H	1.383627	0.397390	1.019347
H225	H	0.494226	-0.576760	0.439845
H226	H	0.744226	-0.326760	0.689845
H227	H	0.994226	-0.076760	0.939845
H228	H	1.244226	0.173240	1.189845
