data_functionalizedCrystal
_audit_creation_method	'MofGen! by Chris Wilmer'
_symmetry_space_group_name_H-M	'P1'
_symmetry_Int_Tables_number	1
_symmetry_cell_setting	triclinic
loop_
_symmetry_equiv_pos_as_xyz
  x,y,z
_cell_length_a	8.597340
_cell_length_b	10.489746
_cell_length_c	7.088929
_cell_angle_alpha	83.712230
_cell_angle_beta	103.954719
_cell_angle_gamma	84.938432
loop_
_atom_site_label
_atom_site_type_symbol
_atom_site_fract_x
_atom_site_fract_y
_atom_site_fract_z
O1	O	2.103384	0.175169	0.187502
O2	O	1.638941	0.195991	0.110990
O3	O	1.881728	-0.000108	0.151001
O4	O	1.860597	0.371268	0.147491
O5	O	1.914173	-0.026374	0.474323
O6	O	1.671386	0.169725	0.434312
O7	O	2.135830	0.148903	0.510824
Cu8	Cu	1.906571	0.156916	0.502090
Cu9	Cu	1.868200	0.187978	0.119724
O10	O	1.893043	0.345002	0.470813
C11	C	1.595692	0.182085	0.262854
C12	C	1.418484	0.179767	0.233661
C13	C	1.896353	-0.060759	0.312398
C14	C	1.891574	-0.202348	0.311609
C15	C	1.734265	-0.353873	0.285671
C16	C	1.796915	-0.264196	0.139216
C17	C	1.828940	-0.290133	0.457992
C18	C	1.945771	-0.364935	0.163591
C19	C	1.977788	-0.390889	0.482507
C20	C	2.040544	-0.301259	0.336031
C21	C	2.179078	0.162809	0.358956
C22	C	2.356285	0.165129	0.388136
C23	C	1.878417	0.405653	0.309411
C24	C	1.883195	0.547243	0.310187
N25	N	1.933570	0.135067	0.771027
N26	N	1.841213	0.209816	-0.149211
H27	H	1.438606	0.154360	0.542730
F28	F	2.058703	0.033824	0.898373
H29	H	1.336155	0.190527	0.079057
H30	H	2.170135	-0.277873	0.357294
F31	F	1.564978	-0.384740	0.257583
H32	H	1.779565	-0.257105	0.582401
H33	H	1.720519	-0.209240	-0.005914
F34	F	2.010196	-0.407869	0.000763
F35	F	2.077572	-0.462755	0.672198
H36	H	1.745497	0.287278	0.753368
