data_functionalizedCrystal
_audit_creation_method	'MofGen! by Chris Wilmer'
_symmetry_space_group_name_H-M	'P1'
_symmetry_Int_Tables_number	1
_symmetry_cell_setting	triclinic
loop_
_symmetry_equiv_pos_as_xyz
  x,y,z
_cell_length_a	27.732048
_cell_length_b	27.732064
_cell_length_c	9.130307
_cell_angle_alpha	90.001170
_cell_angle_beta	89.998491
_cell_angle_gamma	82.646039
loop_
_atom_site_label
_atom_site_type_symbol
_atom_site_fract_x
_atom_site_fract_y
_atom_site_fract_z
O1	O	0.640930	0.057517	0.121599
O2	O	0.974263	0.390850	0.454932
O3	O	1.307597	0.724184	0.788265
O4	O	0.500137	0.066262	0.121641
O5	O	0.833471	0.399596	0.454974
O6	O	1.166804	0.732929	0.788308
O7	O	0.574902	-0.008507	0.121624
O8	O	0.908236	0.324827	0.454958
O9	O	1.241569	0.658160	0.788291
O10	O	0.566165	0.132286	0.121616
O11	O	0.899498	0.465619	0.454949
O12	O	1.232832	0.798952	0.788282
O13	O	0.574897	-0.008510	-0.121975
O14	O	0.908230	0.324824	0.211359
O15	O	1.241563	0.658157	0.544692
O16	O	0.500132	0.066259	-0.121958
O17	O	0.833465	0.399593	0.211375
O18	O	1.166798	0.732926	0.544709
O19	O	0.640925	0.057514	-0.122000
O20	O	0.974258	0.390847	0.211333
O21	O	1.307591	0.724181	0.544666
Cu22	Cu	0.570528	0.061886	-0.144222
Cu23	Cu	0.903861	0.395220	0.189112
Cu24	Cu	1.237194	0.728553	0.522445
Cu25	Cu	0.570534	0.061890	0.143862
Cu26	Cu	0.903868	0.395223	0.477196
Cu27	Cu	1.237201	0.728557	0.810529
O28	O	0.566160	0.132283	-0.121983
O29	O	0.899493	0.465616	0.211350
O30	O	1.232826	0.798949	0.544683
C31	C	0.482127	0.066077	-0.000153
C32	C	0.815461	0.399411	0.333181
C33	C	1.148794	0.732744	0.666514
C34	C	0.428473	0.065524	-0.000136
C35	C	0.761806	0.398858	0.333197
C36	C	1.095139	0.732191	0.666531
C37	C	0.574715	-0.026515	-0.000171
C38	C	0.908048	0.306818	0.333163
C39	C	1.241381	0.640152	0.666496
C40	C	0.574159	-0.080169	-0.000157
C41	C	0.907492	0.253164	0.333177
C42	C	1.240825	0.586497	0.666510
N43	N	0.570526	0.061883	-0.346844
N44	N	0.903860	0.395217	-0.013511
N45	N	1.237193	0.728550	0.319822
C46	C	0.089660	0.106228	-0.000202
C47	C	0.422993	0.439561	0.333131
C48	C	0.756327	0.772895	0.666465
C49	C	-0.112000	0.104177	-0.000215
C50	C	0.221334	0.437510	0.333118
C51	C	0.554667	0.770844	0.666452
O52	O	-0.143253	0.141397	-0.000281
O53	O	0.190080	0.474731	0.333053
O54	O	0.523413	0.808064	0.666386
N55	N	-0.131126	0.059842	-0.000210
N56	N	0.202207	0.393175	0.333124
N57	N	0.535540	0.726509	0.666457
C58	C	-0.099834	0.016017	-0.000211
C59	C	0.233499	0.349350	0.333123
C60	C	0.566833	0.682683	0.666456
O61	O	-0.120729	-0.021740	-0.000221
O62	O	0.212604	0.311594	0.333112
O63	O	0.545937	0.644927	0.666445
C64	C	0.101825	0.018068	-0.000208
C65	C	0.435158	0.351402	0.333125
C66	C	0.768491	0.684735	0.666459
C67	C	0.120948	0.062406	-0.000199
C68	C	0.454281	0.395739	0.333135
C69	C	0.787615	0.729073	0.666468
C70	C	0.108784	0.150562	-0.000194
C71	C	0.442117	0.483895	0.333139
C72	C	0.775451	0.817229	0.666473
C73	C	0.159196	0.151074	-0.000183
C74	C	0.492529	0.484408	0.333150
C75	C	0.825862	0.817741	0.666484
C76	C	0.190484	0.107252	-0.000180
C77	C	0.523817	0.440586	0.333154
C78	C	0.857151	0.773919	0.666487
C79	C	0.171360	0.062918	-0.000187
C80	C	0.504693	0.396252	0.333146
C81	C	0.838027	0.729585	0.666479
C82	C	0.133116	-0.025756	-0.000220
C83	C	0.466449	0.307577	0.333114
C84	C	0.799782	0.640910	0.666447
C85	C	0.183533	-0.025240	-0.000223
C86	C	0.516866	0.308094	0.333111
C87	C	0.850200	0.641427	0.666444
C88	C	0.202656	0.019098	-0.000213
C89	C	0.535990	0.352431	0.333120
C90	C	0.869323	0.685765	0.666453
C91	C	0.253060	0.019609	-0.000173
C92	C	0.586393	0.352942	0.333161
C93	C	0.919727	0.686275	0.666494
N94	N	0.272186	0.063944	-0.000178
N95	N	0.605520	0.397277	0.333155
N96	N	0.938853	0.730610	0.666489
C97	C	0.240898	0.107765	-0.000182
C98	C	0.574232	0.441099	0.333152
C99	C	0.907565	0.774432	0.666485
C100	C	-0.205708	0.014943	-0.000209
C101	C	0.127625	0.348276	0.333124
C102	C	0.460958	0.681610	0.666458
C103	C	-0.256123	0.014430	-0.000207
C104	C	0.077211	0.347763	0.333126
C105	C	0.410544	0.681097	0.666460
C106	C	-0.268285	0.102590	-0.000214
C107	C	0.065048	0.435923	0.333119
C108	C	0.398382	0.769257	0.666453
C109	C	-0.217870	0.103103	-0.000206
C110	C	0.115464	0.436436	0.333128
C111	C	0.448797	0.769769	0.666461
C112	C	-0.186582	0.059278	-0.000214
C113	C	0.146751	0.392611	0.333119
C114	C	0.480085	0.725944	0.666452
C115	C	0.346768	0.108838	-0.000157
C116	C	0.680101	0.442171	0.333177
C117	C	1.013434	0.775505	0.666510
C118	C	0.397185	0.109346	-0.000139
C119	C	0.730518	0.442680	0.333194
C120	C	1.063851	0.776013	0.666527
C121	C	0.409342	0.021186	-0.000140
C122	C	0.742676	0.354520	0.333193
C123	C	1.076009	0.687853	0.666527
C124	C	0.358930	0.020678	-0.000150
C125	C	0.692263	0.354011	0.333184
C126	C	1.025596	0.687344	0.666517
C127	C	0.327643	0.064507	-0.000163
C128	C	0.660976	0.397841	0.333170
C129	C	0.994310	0.731174	0.666504
O130	O	0.284342	-0.017592	-0.000124
O131	O	0.617675	0.315742	0.333210
O132	O	0.951008	0.649075	0.666543
O133	O	0.261803	0.145516	-0.000203
O134	O	0.595136	0.478850	0.333130
O135	O	0.928470	0.812183	0.666463
C136	C	0.039248	0.105716	-0.000213
C137	C	0.372581	0.439049	0.333120
C138	C	0.705915	0.772382	0.666453
C139	C	0.020124	0.061381	-0.000221
C140	C	0.353457	0.394715	0.333112
C141	C	0.686791	0.728048	0.666446
C142	C	0.051412	0.017560	-0.000218
C143	C	0.384745	0.350893	0.333116
C144	C	0.718079	0.684226	0.666449
C145	C	-0.030290	0.060868	-0.000219
C146	C	0.303043	0.394202	0.333114
C147	C	0.636376	0.727535	0.666448
C148	C	-0.061578	0.104690	-0.000222
C149	C	0.271755	0.438024	0.333111
C150	C	0.605088	0.771357	0.666444
C151	C	-0.042452	0.149025	-0.000228
C152	C	0.290881	0.482359	0.333106
C153	C	0.624215	0.815692	0.666439
C154	C	0.007960	0.149537	-0.000217
C155	C	0.341293	0.482871	0.333117
C156	C	0.674627	0.816204	0.666450
C157	C	0.032286	-0.026775	-0.000212
C158	C	0.365619	0.306558	0.333121
C159	C	0.698952	0.639891	0.666454
C160	C	-0.018127	-0.027284	-0.000222
C161	C	0.315207	0.306049	0.333111
C162	C	0.648540	0.639383	0.666445
C163	C	-0.049415	0.016538	-0.000225
C164	C	0.283918	0.349871	0.333108
C165	C	0.617252	0.683205	0.666441
C166	C	0.658934	0.057699	-0.000203
C167	C	0.992268	0.391032	0.333130
C168	C	1.325601	0.724366	0.666463
C169	C	0.712589	0.058252	-0.000210
C170	C	1.045923	0.391585	0.333123
C171	C	1.379256	0.724918	0.666456
C172	C	0.526192	-0.457242	-0.000137
C173	C	0.859525	-0.123909	0.333197
C174	C	1.192858	0.209425	0.666530
C175	C	0.528238	-0.255582	-0.000135
C176	C	0.861571	0.077752	0.333198
C177	C	1.194905	0.411085	0.666531
O178	O	0.491017	-0.224329	-0.000066
O179	O	0.824350	0.109004	0.333268
O180	O	1.157684	0.442338	0.666601
N181	N	0.572572	-0.236454	-0.000148
N182	N	0.905906	0.096879	0.333185
N183	N	1.239239	0.430212	0.666518
C184	C	0.616398	-0.267745	-0.000152
C185	C	0.949731	0.065588	0.333181
C186	C	1.283065	0.398921	0.666514
O187	O	0.654154	-0.246849	-0.000148
O188	O	0.987487	0.086484	0.333185
O189	O	1.320821	0.419818	0.666518
C190	C	0.614351	-0.469405	-0.000143
C191	C	0.947685	-0.136071	0.333190
C192	C	1.281018	0.197262	0.666524
C193	C	0.570014	-0.488529	-0.000145
C194	C	0.903347	-0.155196	0.333188
C195	C	1.236681	0.178138	0.666522
C196	C	0.481858	-0.476367	-0.000137
C197	C	0.815191	-0.143034	0.333197
C198	C	1.148525	0.190300	0.666530
C199	C	0.481347	-0.526779	-0.000145
C200	C	0.814680	-0.193446	0.333188
C201	C	1.148014	0.139888	0.666522
C202	C	0.525169	-0.558066	-0.000153
C203	C	0.858503	-0.224733	0.333180
C204	C	1.191836	0.108600	0.666514
C205	C	0.569503	-0.538941	-0.000153
C206	C	0.902836	-0.205608	0.333180
C207	C	1.236170	0.127725	0.666514
C208	C	0.658177	-0.500695	-0.000137
C209	C	0.991510	-0.167361	0.333197
C210	C	1.324843	0.165972	0.666530
C211	C	0.657661	-0.551112	-0.000131
C212	C	0.990994	-0.217779	0.333203
C213	C	1.324328	0.115554	0.666536
C214	C	0.613324	-0.570237	-0.000132
C215	C	0.946657	-0.236903	0.333201
C216	C	1.279991	0.096430	0.666534
C217	C	0.612814	-0.620640	-0.000170
C218	C	0.946148	-0.287307	0.333164
C219	C	1.279481	0.046026	0.666497
N220	N	0.568480	-0.639768	-0.000157
N221	N	0.901813	-0.306435	0.333177
N222	N	1.235147	0.026899	0.666510
C223	C	0.524658	-0.608481	-0.000148
C224	C	0.857991	-0.275147	0.333185
C225	C	1.191324	0.058186	0.666518
C226	C	0.617469	-0.161871	-0.000160
C227	C	0.950803	0.171462	0.333173
C228	C	1.284136	0.504796	0.666507
C229	C	0.617981	-0.111456	-0.000165
C230	C	0.951315	0.221877	0.333168
C231	C	1.284648	0.555210	0.666502
C232	C	0.529821	-0.099296	-0.000145
C233	C	0.863154	0.234037	0.333188
C234	C	1.196488	0.567370	0.666521
C235	C	0.529310	-0.149712	-0.000151
C236	C	0.862643	0.183622	0.333183
C237	C	1.195976	0.516955	0.666516
C238	C	0.573135	-0.180998	-0.000147
C239	C	0.906469	0.152335	0.333186
C240	C	1.239802	0.485668	0.666520
C241	C	0.523588	-0.714350	-0.000167
C242	C	0.856921	-0.381017	0.333166
C243	C	1.190254	-0.047684	0.666500
C244	C	0.523080	-0.764767	-0.000181
C245	C	0.856414	-0.431434	0.333152
C246	C	1.189747	-0.098101	0.666485
C247	C	0.611241	-0.776923	-0.000193
C248	C	0.944574	-0.443590	0.333140
C249	C	1.277907	-0.110257	0.666473
C250	C	0.611748	-0.726511	-0.000187
C251	C	0.945081	-0.393177	0.333147
C252	C	1.278415	-0.059844	0.666480
C253	C	0.567918	-0.695225	-0.000169
C254	C	0.901251	-0.361891	0.333165
C255	C	1.234584	-0.028558	0.666498
O256	O	0.650016	-0.651921	-0.000223
O257	O	0.983349	-0.318588	0.333110
O258	O	1.316682	0.014745	0.666444
O259	O	0.486907	-0.629387	-0.000120
O260	O	0.820241	-0.296053	0.333214
O261	O	1.153574	0.037280	0.666547
C262	C	0.526703	-0.406830	-0.000128
C263	C	0.860036	-0.073497	0.333205
C264	C	1.193369	0.259837	0.666538
C265	C	0.571036	-0.387705	-0.000128
C266	C	0.904370	-0.054372	0.333205
C267	C	1.237703	0.278962	0.666538
C268	C	0.614859	-0.418992	-0.000137
C269	C	0.948192	-0.085659	0.333197
C270	C	1.281525	0.247675	0.666530
C271	C	0.571548	-0.337290	-0.000133
C272	C	0.904881	-0.003957	0.333200
C273	C	1.238215	0.329376	0.666534
C274	C	0.527726	-0.306003	-0.000125
C275	C	0.861059	0.027330	0.333208
C276	C	1.194392	0.360663	0.666542
C277	C	0.483391	-0.325131	-0.000112
C278	C	0.816725	0.008203	0.333222
C279	C	1.150058	0.341536	0.666555
C280	C	0.482880	-0.375543	-0.000120
C281	C	0.816214	-0.042209	0.333213
C282	C	1.149547	0.291124	0.666547
C283	C	0.659193	-0.399865	-0.000150
C284	C	0.992526	-0.066531	0.333184
C285	C	1.325860	0.266802	0.666517
C286	C	0.659701	-0.349452	-0.000143
C287	C	0.993034	-0.016119	0.333190
C288	C	1.326367	0.317215	0.666524
C289	C	0.615878	-0.318165	-0.000135
C290	C	0.949211	0.015169	0.333199
C291	C	1.282545	0.348502	0.666532
C292	C	0.566347	0.150291	-0.000185
C293	C	0.899680	0.483624	0.333148
C294	C	1.233014	0.816958	0.666481
C295	C	0.566903	0.203945	-0.000190
C296	C	0.900236	0.537279	0.333144
C297	C	1.233570	0.870612	0.666477
C298	C	0.512336	0.003646	-0.346882
C299	C	0.845669	0.336979	-0.013548
C300	C	1.179003	0.670312	0.319785
C301	C	0.483246	-0.025474	-0.423567
C302	C	0.816579	0.307859	-0.090234
C303	C	1.149913	0.641192	0.243100
C304	C	0.483253	-0.025475	-0.576900
C305	C	0.816586	0.307859	-0.243567
C306	C	1.149920	0.641192	0.089766
C307	C	0.512352	0.003649	-0.653552
C308	C	0.845685	0.336983	-0.320219
C309	C	1.179019	0.670316	0.013115
C310	C	0.541442	0.032769	-0.576867
C311	C	0.874775	0.366103	-0.243533
C312	C	1.208109	0.699436	0.089800
C313	C	0.541433	0.032765	-0.423530
C314	C	0.874766	0.366099	-0.090196
C315	C	1.208100	0.699432	0.243137
C316	C	0.599629	0.091009	-0.576829
C317	C	0.932963	0.424342	-0.243496
C318	C	1.266296	0.757676	0.089837
C319	C	0.599626	0.091007	-0.423496
C320	C	0.932959	0.424341	-0.090163
C321	C	1.266292	0.757674	0.243171
C322	C	0.628728	0.120133	-0.653481
C323	C	0.962062	0.453466	-0.320148
C324	C	1.295395	0.786800	0.013186
C325	C	0.657822	0.149251	-0.576796
C326	C	0.991155	0.482584	-0.243462
C327	C	1.324488	0.815918	0.089871
C328	C	0.657814	0.149250	-0.423453
C329	C	0.991147	0.482583	-0.090120
C330	C	1.324480	0.815916	0.243214
C331	C	0.628716	0.120127	-0.346811
C332	C	0.962049	0.453461	-0.013477
C333	C	1.295382	0.786794	0.319856
N334	N	0.570539	0.061889	0.346485
N335	N	0.903872	0.395222	0.679819
N336	N	1.237206	0.728556	1.013152
H337	H	0.412752	0.145453	-0.000131
H338	H	0.746085	0.478786	0.333203
H339	H	1.079418	0.812120	0.666536
F340	F	0.452277	-0.056467	-0.341979
F341	F	0.785610	0.276866	-0.008646
F342	F	1.118943	0.610200	0.324687
F343	F	0.216829	-0.071886	-0.000236
F344	F	0.550163	0.261448	0.333098
F345	F	0.883496	0.594781	0.666431
H346	H	0.487897	-0.688883	-0.000152
H347	H	0.821230	-0.355550	0.333182
H348	H	1.154563	-0.022216	0.666515
H349	H	-0.067936	0.184706	-0.000225
H350	H	0.265397	0.518040	0.333109
H351	H	0.598731	0.851373	0.666442
F352	F	0.705367	-0.480352	-0.000109
F353	F	1.038700	-0.147019	0.333225
F354	F	1.372034	0.186314	0.666558
F355	F	-0.038473	-0.074478	-0.000213
F356	F	0.294860	0.258856	0.333120
F357	F	0.628194	0.592189	0.666453
F358	F	0.435690	-0.395890	-0.000119
F359	F	0.769024	-0.062556	0.333214
F360	F	1.102357	0.270777	0.666547
H361	H	0.446171	-0.450897	-0.000125
H362	H	0.779504	-0.117564	0.333208
H363	H	1.112837	0.215769	0.666542
H364	H	0.459563	-0.049184	-0.639337
H365	H	0.792896	0.284149	-0.306004
H366	H	1.126230	0.617482	0.027329
H367	H	0.057756	-0.062461	-0.000213
H368	H	0.391090	0.270872	0.333120
H369	H	0.724423	0.604206	0.666454
F370	F	0.628732	0.120135	-0.816673
F371	F	0.962065	0.453469	-0.483339
F372	F	1.295398	0.786802	-0.150006
F373	F	0.512351	0.003654	-0.816744
F374	F	0.845685	0.336987	-0.483410
F375	F	1.179018	0.670321	-0.150077
H376	H	0.512331	0.003639	-0.222029
H377	H	0.845664	0.336973	0.111304
H378	H	1.178998	0.670306	0.444637
H379	H	0.486974	-0.780335	-0.000189
H380	H	0.820308	-0.447002	0.333144
H381	H	1.153641	-0.113669	0.666477
F382	F	0.706894	-0.329105	-0.000144
F383	F	1.040227	0.004229	0.333190
F384	F	1.373560	0.337562	0.666523
H385	H	0.343359	-0.015426	-0.000136
H386	H	0.676692	0.317908	0.333197
H387	H	1.010026	0.651241	0.666531
H388	H	0.445243	-0.542345	-0.000134
H389	H	0.778577	-0.209012	0.333200
H390	H	1.111910	0.124321	0.666533
H391	H	0.681509	0.172964	-0.639218
H392	H	1.014842	0.506297	-0.305884
H393	H	1.348176	0.839631	0.027449
H394	H	0.434826	-0.014492	-0.000132
H395	H	0.768159	0.318841	0.333202
H396	H	1.101493	0.652174	0.666535
H397	H	0.681500	0.172966	-0.361025
H398	H	1.014833	0.506299	-0.027692
H399	H	1.348167	0.839632	0.305642
F400	F	0.313477	0.155486	-0.000172
F401	F	0.646810	0.488820	0.333161
F402	F	0.980143	0.822153	0.666495
F403	F	0.028306	0.196728	-0.000207
F404	F	0.361639	0.530061	0.333126
F405	F	0.694972	0.863395	0.666460
F406	F	0.628707	0.120122	-0.183619
F407	F	0.962040	0.453455	0.149714
F408	F	1.295373	0.786788	0.483047
F409	F	-0.172415	-0.031705	-0.000217
F410	F	0.160918	0.301628	0.333116
F411	F	0.494252	0.634962	0.666450
F412	F	0.075491	0.197208	-0.000198
F413	F	0.408825	0.530541	0.333136
F414	F	0.742158	0.863874	0.666469
F415	F	0.179542	0.198265	-0.000180
F416	F	0.512875	0.531598	0.333153
F417	F	0.846208	0.864932	0.666487
H418	H	-0.293769	0.138272	-0.000217
H419	H	0.039565	0.471605	0.333116
H420	H	0.372898	0.804938	0.666449
F421	F	-0.197522	0.150292	-0.000198
F422	F	0.135812	0.483626	0.333135
F423	F	0.469145	0.816959	0.666468
H424	H	0.653160	-0.187341	-0.000159
H425	H	0.986493	0.145992	0.333174
H426	H	1.319826	0.479326	0.666507
H427	H	0.493206	-0.165279	-0.000158
H428	H	0.826540	0.168054	0.333175
H429	H	1.159873	0.501388	0.666509
F430	F	0.705838	-0.433157	-0.000161
F431	F	1.039171	-0.099823	0.333173
F432	F	1.372504	0.233510	0.666506
H433	H	0.494139	-0.073813	-0.000145
H434	H	0.827472	0.259520	0.333188
H435	H	1.160806	0.592853	0.666522
H436	H	-0.271688	-0.021674	-0.000192
H437	H	0.061645	0.311659	0.333142
H438	H	0.394979	0.644992	0.666475
F439	F	0.112774	-0.072947	-0.000209
F440	F	0.446108	0.260386	0.333124
F441	F	0.779441	0.593719	0.666458
H442	H	0.654085	-0.095890	-0.000187
H443	H	0.987418	0.237443	0.333147
H444	H	1.320752	0.570777	0.666480
H445	H	0.693350	-0.576584	-0.000120
H446	H	1.026683	-0.243251	0.333214
H447	H	1.360017	0.090083	0.666547
H448	H	0.647851	-0.710939	-0.000206
H449	H	0.981184	-0.377605	0.333127
H450	H	1.314518	-0.044272	0.666460
F451	F	0.436752	-0.291824	-0.000109
F452	F	0.770086	0.041510	0.333224
F453	F	1.103419	0.374843	0.666557
F454	F	0.657877	-0.810230	-0.000213
F455	F	0.991210	-0.476896	0.333120
F456	F	1.324544	-0.143563	0.666454
