data_functionalizedCrystal
_audit_creation_method	'MofGen! by Chris Wilmer'
_symmetry_space_group_name_H-M	'P1'
_symmetry_Int_Tables_number	1
_symmetry_cell_setting	triclinic
loop_
_symmetry_equiv_pos_as_xyz
  x,y,z
_cell_length_a	19.288840
_cell_length_b	14.519731
_cell_length_c	17.766277
_cell_angle_alpha	89.992662
_cell_angle_beta	89.983415
_cell_angle_gamma	83.407434
loop_
_atom_site_label
_atom_site_type_symbol
_atom_site_fract_x
_atom_site_fract_y
_atom_site_fract_z
O1	O	0.921784	0.114934	-0.062722
O2	O	0.719578	0.130477	-0.062696
O3	O	0.826035	-0.011566	-0.062703
O4	O	0.815328	0.256977	-0.062715
O5	O	0.826016	-0.011573	0.062486
O6	O	0.719559	0.130470	0.062493
O7	O	0.921766	0.114927	0.062467
Cu8	Cu	0.820661	0.122698	0.073911
Cu9	Cu	0.820683	0.122706	-0.074139
O10	O	0.815309	0.256970	0.062474
C11	C	0.693690	0.129977	-0.000098
C12	C	0.616580	0.128487	-0.000088
C13	C	0.580384	0.127776	-0.068330
C14	C	0.507932	0.126366	-0.068339
C15	C	0.471681	0.125649	-0.000102
C16	C	0.507885	0.126366	0.068149
C17	C	0.580335	0.127785	0.068156
C18	C	0.362139	0.069381	0.052169
C19	C	0.289692	0.067956	0.052159
C20	C	0.248221	0.121275	-0.000122
C21	C	0.279208	0.176008	-0.052405
C22	C	0.351658	0.177427	-0.052398
C23	C	0.393121	0.124110	-0.000103
C24	C	0.133464	0.119036	-0.068379
C25	C	0.061010	0.117631	-0.068385
C26	C	0.060965	0.117622	0.068105
C27	C	0.133417	0.119036	0.068109
C28	C	0.169662	0.119738	-0.000135
C29	C	0.825524	-0.045926	-0.000108
C30	C	0.824020	-0.148297	-0.000107
C31	C	0.822799	-0.231433	-0.000109
C32	C	0.821272	-0.335732	-0.000115
C33	C	0.820061	-0.418863	-0.000119
C34	C	0.818535	-0.523168	-0.000123
C35	C	0.947654	0.115426	-0.000132
C36	C	1.024764	0.116916	-0.000147
C37	C	0.815820	0.291330	-0.000122
C38	C	0.817323	0.393700	-0.000128
N39	N	0.820650	0.122691	0.178041
N40	N	0.820699	0.122705	-0.178270
C41	C	0.867805	0.059825	0.217425
C42	C	0.867809	0.059821	0.296227
C43	C	0.820665	0.122698	0.335641
C44	C	0.773502	0.185569	0.296248
C45	C	0.773494	0.185566	0.217448
C46	C	0.811673	0.206727	0.460476
C47	C	0.811685	0.206732	0.539275
C48	C	0.820683	0.122709	0.578688
C49	C	0.829684	0.038679	0.539292
C50	C	0.829677	0.038675	0.460492
C51	C	0.820667	0.122709	0.421087
C52	C	0.867845	0.059834	0.703518
C53	C	0.867844	0.059828	0.782321
C54	C	0.773540	0.185585	0.782341
C55	C	0.773538	0.185582	0.703539
C56	C	0.820694	0.122708	0.664132
H57	H	0.031540	0.117058	-0.123958
H58	H	0.837011	-0.029740	0.571380
H59	H	0.906240	0.008634	0.671431
C60	C	0.173340	0.119817	-0.143440
H61	H	0.221674	0.120751	-0.133663
H62	H	0.156245	0.173354	-0.171484
H63	H	0.166708	0.065812	-0.171477
H64	H	0.735152	0.236777	0.814432
H65	H	0.609805	0.128366	0.123729
H66	H	0.735115	0.236764	0.328343
C67	C	0.919712	-0.009330	0.825647
H68	H	0.912958	-0.000333	0.878222
H69	H	0.966078	0.000525	0.812716
H70	H	0.912089	-0.070857	0.812741
H71	H	0.804361	0.275154	0.571345
H72	H	0.735143	0.236777	0.671470
C73	C	0.721627	0.254728	0.174124
H74	H	0.693552	0.292180	0.208881
H75	H	0.692672	0.221655	0.143396
H76	H	0.746665	0.293033	0.143372
H77	H	0.804334	0.275152	0.428393
H78	H	0.376885	0.221995	-0.094967
C79	C	0.919666	-0.009344	0.174081
H80	H	0.947746	-0.046791	0.208828
H81	H	0.948618	0.023724	0.143321
H82	H	0.894625	-0.047653	0.143362
H83	H	0.609891	0.128348	-0.123900
H84	H	0.906209	0.008626	0.328299
H85	H	0.031449	0.117044	0.123665
H86	H	0.478456	0.125787	-0.123912
H87	H	0.162888	0.119610	0.123680
H88	H	0.395900	0.025959	0.094745
C89	C	0.233600	0.234666	-0.109914
H90	H	0.186013	0.225994	-0.102427
H91	H	0.247337	0.215912	-0.159454
H92	H	0.239304	0.298288	-0.103329
C93	C	0.255611	0.007755	0.109668
H94	H	0.290683	-0.023783	0.140814
H95	H	0.231587	-0.036237	0.083785
H96	H	0.223547	0.046154	0.139896
H97	H	0.837004	-0.029745	0.428419
C98	C	0.468005	0.125647	0.143207
H99	H	0.419670	0.124712	0.133430
H100	H	0.474650	0.179668	0.171209
H101	H	0.485083	0.072126	0.171287
