data_functionalizedCrystal
_audit_creation_method	'MofGen! by Chris Wilmer'
_symmetry_space_group_name_H-M	'P1'
_symmetry_Int_Tables_number	1
_symmetry_cell_setting	triclinic
loop_
_symmetry_equiv_pos_as_xyz
  x,y,z
_cell_length_a	19.188930
_cell_length_b	10.654550
_cell_length_c	9.130313
_cell_angle_alpha	89.998999
_cell_angle_beta	90.011902
_cell_angle_gamma	96.185159
loop_
_atom_site_label
_atom_site_type_symbol
_atom_site_fract_x
_atom_site_fract_y
_atom_site_fract_z
O1	O	0.098065	-1.665753	0.121938
O2	O	0.107407	-1.300077	0.121916
O3	O	0.001149	-1.493467	0.121899
O4	O	0.204323	-1.472362	0.121955
O5	O	0.001140	-1.493477	-0.121700
O6	O	0.107398	-1.300087	-0.121682
O7	O	0.098056	-1.665763	-0.121661
Cu8	Cu	0.102726	-1.482926	-0.143914
Cu9	Cu	0.102737	-1.482914	0.144170
O10	O	0.204314	-1.472372	-0.121644
C11	C	0.106717	-1.253298	0.000114
C12	C	0.104665	-1.113898	0.000104
C13	C	-0.024871	-1.492789	0.000096
C14	C	-0.102389	-1.490737	0.000083
N15	N	0.102718	-1.482943	-0.346537
C16	C	-0.146570	-1.604213	0.000083
C17	C	-0.219407	-1.602285	0.000106
C18	C	-0.248058	-1.486876	0.000100
C19	C	-0.203867	-1.373386	0.000109
C20	C	-0.131032	-1.375316	0.000100
N21	N	-0.356643	-1.398663	-0.082806
N22	N	-0.425834	-1.396836	-0.082801
C23	C	-0.467505	-1.481052	0.000129
N24	N	-0.437373	-1.567182	0.083037
N25	N	-0.368176	-1.569012	0.083025
C26	C	-0.327034	-1.484770	0.000110
C27	C	-0.590665	-1.592445	0.000157
C28	C	-0.663502	-1.590513	0.000189
C29	C	-0.647960	-1.361610	0.000177
C30	C	-0.575125	-1.363545	0.000159
C31	C	-0.546481	-1.478966	0.000142
C32	C	0.230334	-1.473051	0.000163
C33	C	0.307852	-1.475102	0.000186
C34	C	0.098746	-1.712541	0.000145
C35	C	0.100798	-1.851941	0.000164
C36	C	0.167227	-1.033089	0.000143
C37	C	0.165295	-0.902109	0.000168
C38	C	0.038231	-0.932761	0.000121
C39	C	0.040164	-1.063738	0.000086
C40	C	0.240587	-1.015391	0.000176
C41	C	0.238654	-0.884411	0.000201
N42	N	0.102739	-1.482906	0.346792
C43	C	0.145559	-1.558681	0.423476
C44	C	0.145550	-1.558696	0.576813
C45	C	0.059897	-1.407160	0.576769
C46	C	0.059910	-1.407139	0.423435
C47	C	0.195008	-1.646173	0.423502
C48	C	0.194999	-1.646189	0.576839
H49	H	-0.123254	-1.698197	0.000074
N50	N	0.278584	-1.053447	-0.134859
H51	H	0.246118	-1.113960	-0.195144
H52	H	0.320948	-1.095863	-0.104693
H53	H	0.025027	-1.345471	0.639190
N54	N	-0.559765	-1.716927	0.000139
H55	H	-0.529874	-1.722831	0.090426
H56	H	-0.529945	-1.722745	-0.090238
H57	H	0.247538	-1.605400	0.624440
H58	H	-0.699475	-1.682922	0.000197
N59	N	0.013721	-1.325422	0.340723
H60	H	-0.013418	-1.277440	0.412547
H61	H	-0.020071	-1.380475	0.277085
H62	H	-0.255386	-1.694693	0.000112
N63	N	-0.234764	-1.248907	0.000110
H64	H	-0.287609	-1.264901	0.000111
H65	H	-0.218650	-1.199268	-0.090196
N66	N	-0.083369	-1.252925	0.000072
H67	H	-0.052787	-1.248620	0.090364
H68	H	-0.112613	-1.179584	0.000017
H69	H	0.173161	-1.741266	0.375912
N70	N	0.267906	-1.603414	0.368419
H71	H	0.301563	-1.662894	0.405278
H72	H	0.282990	-1.515293	0.405290
N73	N	-0.678852	-1.237129	0.000187
H74	H	-0.731697	-1.253123	0.000197
H75	H	-0.662741	-1.187490	-0.090121
N76	N	-0.527466	-1.241153	0.000151
H77	H	-0.556666	-1.167747	0.000150
H78	H	-0.496919	-1.236973	-0.090158
N79	N	-0.027318	-1.150888	0.000013
H80	H	-0.055433	-1.134815	0.090304
H81	H	-0.016255	-1.241440	-0.000068
H82	H	-0.014283	-0.891904	0.000129
N83	N	0.271528	-1.061978	0.139492
H84	H	0.285058	-0.988150	0.206830
H85	H	0.314468	-1.105018	0.115175
N86	N	0.268007	-0.823285	-0.139095
H87	H	0.283613	-0.890085	-0.206418
H88	H	0.309376	-0.759906	-0.114742
H89	H	0.266299	-0.842089	0.102162
N90	N	0.172398	-1.777926	0.631946
H91	H	0.162313	-1.836701	0.545939
H92	H	0.128697	-1.777108	0.693413
