data_functionalizedCrystal
_audit_creation_method	'MofGen! by Chris Wilmer'
_symmetry_space_group_name_H-M	'P1'
_symmetry_Int_Tables_number	1
_symmetry_cell_setting	triclinic
loop_
_symmetry_equiv_pos_as_xyz
  x,y,z
_cell_length_a	17.699083
_cell_length_b	13.339070
_cell_length_c	16.776229
_cell_angle_alpha	89.996888
_cell_angle_beta	89.998886
_cell_angle_gamma	99.456154
loop_
_atom_site_label
_atom_site_type_symbol
_atom_site_fract_x
_atom_site_fract_y
_atom_site_fract_z
O1	O	1.031106	0.127864	-0.066171
O2	O	1.531106	0.627864	0.433829
O3	O	0.814244	0.144499	-0.066196
O4	O	1.314244	0.644499	0.433804
O5	O	0.897786	-0.011021	-0.066184
O6	O	1.397786	0.488979	0.433816
O7	O	0.947563	0.283384	-0.066183
O8	O	1.447563	0.783384	0.433817
O9	O	0.897768	-0.011031	0.066392
O10	O	1.397768	0.488969	0.566392
O11	O	0.814226	0.144489	0.066380
O12	O	1.314226	0.644489	0.566380
O13	O	1.031088	0.127854	0.066406
O14	O	1.531088	0.627854	0.566406
Zn15	Zn	0.922654	0.136170	0.087442
Zn16	Zn	1.422654	0.636170	0.587442
Zn17	Zn	0.922677	0.136183	-0.087233
Zn18	Zn	1.422677	0.636183	0.412767
O19	O	0.947546	0.283374	0.066394
O20	O	1.447546	0.783374	0.566394
C21	C	0.785912	0.143898	0.000089
C22	C	1.285912	0.643898	0.500089
C23	C	0.701516	0.142110	0.000079
C24	C	1.201516	0.642110	0.500079
C25	C	0.889369	-0.048694	0.000102
C26	C	1.389369	0.451306	0.500102
C27	C	0.864305	-0.160935	0.000096
C28	C	1.364305	0.339065	0.500096
C29	C	0.672191	0.233397	0.000079
C30	C	1.172191	0.733397	0.500079
C31	C	0.592891	0.231710	0.000090
C32	C	1.092891	0.731710	0.500090
C33	C	0.542918	0.138736	0.000094
C34	C	1.042918	0.638736	0.500094
C35	C	0.572248	0.047442	0.000096
C36	C	1.072248	0.547442	0.500096
C37	C	0.651546	0.049129	0.000091
C38	C	1.151546	0.549129	0.500091
C39	C	0.252446	0.040635	0.000115
C40	C	0.752446	0.540635	0.500115
C41	C	0.173143	0.038955	0.000117
C42	C	0.673143	0.538955	0.500117
C43	C	0.193791	0.223216	0.000114
C44	C	0.693791	0.723216	0.500114
C45	C	0.273089	0.224904	0.000109
C46	C	0.773089	0.724904	0.500109
C47	C	0.302412	0.133610	0.000115
C48	C	0.802412	0.633610	0.500115
C49	C	0.388398	0.135440	0.000106
C50	C	0.888398	0.635440	0.500106
C51	C	0.456933	0.136906	0.000098
C52	C	0.956933	0.636906	0.500098
C53	C	1.059185	-0.526207	0.000119
C54	C	1.559185	-0.026207	0.500119
C55	C	1.082736	-0.420752	0.000129
C56	C	1.582736	0.079248	0.500129
C57	C	1.028130	-0.355792	0.000121
C58	C	1.528130	0.144208	0.500121
C59	C	0.949970	-0.396298	0.000102
C60	C	1.449970	0.103702	0.500102
C61	C	0.926417	-0.501763	0.000098
C62	C	1.426417	-0.001763	0.500098
C63	C	0.895362	-0.331349	0.000100
C64	C	1.395362	0.168651	0.500100
C65	C	0.817202	-0.371855	0.000082
C66	C	1.317202	0.128145	0.500082
C67	C	0.793652	-0.477310	0.000077
C68	C	1.293652	0.022690	0.500077
C69	C	0.848258	-0.542269	0.000086
C70	C	1.348258	-0.042269	0.500086
C71	C	0.918915	-0.225884	0.000104
C72	C	1.418915	0.274116	0.500104
C73	C	0.786147	-0.201441	0.000083
C74	C	1.286147	0.298559	0.500083
C75	C	0.762596	-0.306895	0.000073
C76	C	1.262596	0.193105	0.500073
C77	C	1.059420	0.128455	0.000119
C78	C	1.559420	0.628455	0.500119
C79	C	1.143816	0.130243	0.000124
C80	C	1.643816	0.630243	0.500124
C81	C	0.955963	0.321047	0.000106
C82	C	1.455963	0.821047	0.500106
C83	C	0.981027	0.433288	0.000107
C84	C	1.481027	0.933288	0.500107
N85	N	0.922644	0.136161	0.206654
N86	N	1.422644	0.636161	0.706654
N87	N	0.922692	0.136184	-0.206444
N88	N	1.422692	0.636184	0.293556
C89	C	0.959658	0.067325	0.248376
C90	C	1.459658	0.567325	0.748376
C91	C	0.959662	0.067324	0.331828
C92	C	1.459662	0.567324	0.831828
C93	C	0.922656	0.136165	0.373556
C94	C	1.422656	0.636165	0.873556
C95	C	0.885638	0.205004	0.331828
C96	C	1.385638	0.705004	0.831828
C97	C	0.885629	0.204999	0.248378
C98	C	1.385629	0.704999	0.748378
C99	C	0.885669	0.205024	0.668375
C100	C	1.385669	0.705024	1.168375
C101	C	0.885682	0.205026	0.751832
C102	C	1.385682	0.705026	1.251832
C103	C	0.959702	0.067349	0.751826
C104	C	1.459702	0.567349	1.251826
C105	C	0.959694	0.067344	0.668375
C106	C	1.459694	0.567344	1.168375
C107	C	0.922672	0.136179	0.626654
C108	C	1.422672	0.636179	1.126654
C109	C	0.922667	0.136178	0.536166
C110	C	1.422667	0.636178	1.036166
C111	C	0.922666	0.136172	0.464043
C112	C	1.422666	0.636172	0.964043
H113	H	0.712875	0.309107	0.000075
H114	H	1.212875	0.809107	0.500075
H115	H	0.855502	0.261052	0.365808
H116	H	1.355502	0.761052	0.865808
N117	N	0.709352	-0.520998	0.000056
N118	N	1.209352	-0.020998	0.500056
H119	H	0.702718	-0.597661	0.000055
H120	H	1.202718	-0.097661	0.500055
H121	H	0.684470	-0.497233	0.049198
H122	H	1.184470	0.002767	0.549198
H123	H	0.982554	-0.192915	0.000119
H124	H	1.482554	0.307085	0.500119
N125	N	0.727239	-0.131396	0.000069
N126	N	1.227239	0.368604	0.500069
H127	H	0.694112	-0.144410	0.049211
H128	H	1.194112	0.355590	0.549211
H129	H	0.754072	-0.058470	0.000040
H130	H	1.254072	0.441530	0.500040
N131	N	0.683172	-0.049335	0.000088
N132	N	1.183172	0.450665	0.500088
H133	H	0.715614	-0.052742	-0.049058
H134	H	1.215614	0.447258	0.450942
H135	H	0.715575	-0.052685	0.049267
H136	H	1.215575	0.447315	0.549267
H137	H	0.829087	-0.628140	0.000074
H138	H	1.329087	-0.128140	0.500074
H139	H	0.531553	-0.028259	0.000110
H140	H	1.031553	0.471741	0.500110
N141	N	0.678297	-0.350588	0.000054
N142	N	1.178297	0.149412	0.500054
H143	H	0.671666	-0.427251	0.000052
H144	H	1.171666	0.072749	0.500052
H145	H	0.653414	-0.326826	0.049198
H146	H	1.153414	0.173174	0.549198
N147	N	0.561264	0.330172	0.000078
N148	N	1.061264	0.830172	0.500078
H149	H	0.503446	0.314998	0.000085
H150	H	1.003446	0.814998	0.500085
H151	H	0.579636	0.370703	0.049221
H152	H	1.079636	0.870703	0.549221
N153	N	0.326989	0.325182	0.000094
N154	N	0.826989	0.825182	0.500094
H155	H	0.296378	0.382758	0.000096
H156	H	0.796378	0.882758	0.500096
H157	H	0.360344	0.329895	0.049238
H158	H	0.860344	0.829895	0.549238
N159	N	0.999578	-0.006920	0.203372
N160	N	1.499578	0.493080	0.703372
H161	H	1.023025	-0.050528	0.242469
H162	H	1.523025	0.449472	0.742469
H163	H	0.961227	-0.051574	0.168754
H164	H	1.461227	0.448426	0.668754
N165	N	0.999618	-0.006886	0.376830
N166	N	1.499618	0.493114	0.876830
H167	H	1.023075	-0.050480	0.337732
H168	H	1.523075	0.449520	0.837732
H169	H	1.041188	0.031812	0.411431
H170	H	1.541188	0.531812	0.911431
H171	H	0.855526	0.261074	0.634413
H172	H	1.355526	0.761074	1.134413
H173	H	0.989831	0.011291	0.634403
H174	H	1.489831	0.511291	1.134403
H175	H	0.276310	-0.033702	0.000121
H176	H	0.776310	0.466298	0.500121
N177	N	0.845702	0.279243	0.203378
N178	N	1.345702	0.779243	0.703378
H179	H	0.869481	0.350994	0.217891
H180	H	1.369481	0.850994	0.717891
H181	H	0.851317	0.268705	0.144195
H182	H	1.351317	0.768705	0.644195
H183	H	0.169907	0.297552	0.000113
H184	H	0.669907	0.797552	0.500113
N185	N	0.845756	0.279266	0.796842
N186	N	1.345756	0.779266	1.296842
H187	H	0.884066	0.323995	0.831458
H188	H	1.384066	0.823995	1.331458
H189	H	0.822296	0.322800	0.757700
H190	H	1.322296	0.822800	1.257700
H191	H	0.132455	-0.036760	0.000122
H192	H	0.632455	0.463240	0.500122
H193	H	1.047310	-0.269927	0.000129
H194	H	1.547310	0.230073	0.500129
N195	N	0.999633	-0.006900	0.796825
N196	N	1.499633	0.493100	1.296825
H197	H	0.994024	0.003542	0.856023
H198	H	1.494024	0.503542	1.356023
H199	H	0.975836	-0.078616	0.782243
H200	H	1.475836	0.421384	1.282243
N201	N	1.167033	-0.377079	0.000137
N202	N	1.667033	0.122921	0.500137
H203	H	1.179770	-0.333865	-0.049008
H204	H	1.679770	0.166135	0.450992
H205	H	1.179708	-0.333926	0.049317
H206	H	1.679708	0.166074	0.549317
H207	H	1.103637	-0.579105	0.000133
H208	H	1.603637	-0.079105	0.500133
