data_functionalizedCrystal
_audit_creation_method	'MofGen! by Chris Wilmer'
_symmetry_space_group_name_H-M	'P1'
_symmetry_Int_Tables_number	1
_symmetry_cell_setting	triclinic
loop_
_symmetry_equiv_pos_as_xyz
  x,y,z
_cell_length_a	13.897449
_cell_length_b	18.101395
_cell_length_c	13.897441
_cell_angle_alpha	90.029726
_cell_angle_beta	90.018596
_cell_angle_gamma	90.032384
loop_
_atom_site_label
_atom_site_type_symbol
_atom_site_fract_x
_atom_site_fract_y
_atom_site_fract_z
Zn1	Zn	1.474592	-0.294788	0.545380
Zn2	Zn	1.807926	0.038546	0.878714
Zn3	Zn	2.141259	0.371879	1.212047
Zn4	Zn	1.474455	-0.418641	0.384082
Zn5	Zn	1.807788	-0.085308	0.717415
Zn6	Zn	2.141121	0.248025	1.050748
Zn7	Zn	1.313288	-0.294821	0.384099
Zn8	Zn	1.646621	0.038512	0.717432
Zn9	Zn	1.979954	0.371846	1.050766
Zn10	Zn	1.313225	-0.418595	0.545334
Zn11	Zn	1.646559	-0.085261	0.878668
Zn12	Zn	1.979892	0.248072	1.212001
O13	O	1.393890	-0.356711	0.464724
O14	O	1.727223	-0.023378	0.798057
O15	O	2.060557	0.309955	1.131390
O16	O	1.609556	-0.311223	0.523996
O17	O	1.942889	0.022110	0.857329
O18	O	2.276222	0.355444	1.190663
O19	O	1.453044	-0.402250	0.249102
O20	O	1.786377	-0.068916	0.582435
O21	O	2.119710	0.264417	0.915769
O22	O	1.334769	-0.191184	0.405520
O23	O	1.668102	0.142150	0.738853
O24	O	2.001435	0.475483	1.072186
O25	O	1.609455	-0.402218	0.405490
O26	O	1.942788	-0.068884	0.738824
O27	O	2.276121	0.264449	1.072157
O28	O	1.453279	-0.191159	0.524013
O29	O	1.786612	0.142174	0.857346
O30	O	2.119945	0.475507	1.190679
O31	O	1.334635	-0.311279	0.249115
O32	O	1.667968	0.022054	0.582448
O33	O	2.001302	0.355387	0.915782
O34	O	1.178298	-0.311234	0.405475
O35	O	1.511631	0.022099	0.738808
O36	O	1.844964	0.355432	1.072142
O37	O	1.334663	-0.402138	0.680322
O38	O	1.667996	-0.068805	1.013655
O39	O	2.001330	0.264528	1.346989
O40	O	1.178252	-0.402170	0.523934
O41	O	1.511585	-0.068837	0.857267
O42	O	1.844919	0.264496	1.190600
O43	O	1.453218	-0.311178	0.680356
O44	O	1.786552	0.022156	1.013689
O45	O	2.119885	0.355489	1.347023
O46	O	1.452984	-0.522268	0.405445
O47	O	1.786317	-0.188935	0.738779
O48	O	2.119650	0.144399	1.072112
O49	O	1.334529	-0.522234	0.523917
O50	O	1.667863	-0.188901	0.857250
O51	O	2.001196	0.144433	1.190584
C52	C	1.143276	-0.356701	0.464702
C53	C	1.476609	-0.023368	0.798035
C54	C	1.809942	0.309965	1.131368
C55	C	1.036062	-0.356715	0.464715
C56	C	1.369395	-0.023382	0.798049
C57	C	1.702728	0.309952	1.131382
C58	C	1.393761	-0.549122	0.464695
C59	C	1.727094	-0.215789	0.798029
C60	C	2.060428	0.117545	1.131362
C61	C	1.393794	-0.631436	0.464716
C62	C	1.727127	-0.298103	0.798049
C63	C	2.060461	0.035231	1.131382
C64	C	0.839767	-0.356718	0.464741
C65	C	1.173100	-0.023384	0.798074
C66	C	1.506433	0.309949	1.131407
C67	C	0.948999	-0.356714	0.464724
C68	C	1.282332	-0.023381	0.798057
C69	C	1.615666	0.309953	1.131390
C70	C	1.394006	-0.930527	0.464767
C71	C	1.727339	-0.597193	0.798101
C72	C	2.060672	-0.263860	1.131434
C73	C	1.319650	-0.899211	0.539492
C74	C	1.652984	-0.565878	0.872825
C75	C	1.986317	-0.232544	1.206158
C76	C	1.319297	-0.813593	0.539258
C77	C	1.652630	-0.480260	0.872591
C78	C	1.985964	-0.146926	1.205925
C79	C	1.393901	-0.782144	0.464743
C80	C	1.727234	-0.448811	0.798076
C81	C	2.060567	-0.115478	1.131409
C82	C	1.366379	-0.813299	0.363084
C83	C	1.699712	-0.479966	0.696417
C84	C	2.033045	-0.146633	1.029750
C85	C	1.365899	-0.898945	0.363531
C86	C	1.699233	-0.565611	0.696864
C87	C	2.032566	-0.232278	1.030198
C88	C	1.496046	-0.898868	0.490807
C89	C	1.829379	-0.565535	0.824141
C90	C	2.162713	-0.232201	1.157474
C91	C	1.495446	-0.813217	0.493037
C92	C	1.828779	-0.479883	0.826370
C93	C	2.162113	-0.146550	1.159703
C94	C	1.393843	-0.698285	0.464722
C95	C	1.727176	-0.364952	0.798056
C96	C	2.060510	-0.031618	1.131389
C97	C	1.394061	-1.014386	0.464781
C98	C	1.727394	-0.681053	0.798114
C99	C	2.060728	-0.347720	1.131448
C100	C	1.645483	-0.356722	0.464746
C101	C	1.978816	-0.023388	0.798080
C102	C	2.312150	0.309945	1.131413
C103	C	1.752697	-0.356726	0.464756
C104	C	2.086030	-0.023393	0.798089
C105	C	2.419364	0.309941	1.131423
C106	C	1.393949	-0.356649	0.716317
C107	C	1.727282	-0.023316	1.049650
C108	C	2.060616	0.310018	1.382984
C109	C	1.393974	-0.356623	0.823531
C110	C	1.727308	-0.023289	1.156864
C111	C	2.060641	0.310044	1.490198
C112	C	1.394046	-0.163549	0.464773
C113	C	1.727379	0.169784	0.798107
C114	C	2.060713	0.503117	1.131440
C115	C	1.394112	-0.081235	0.464795
C116	C	1.727446	0.252098	0.798128
C117	C	2.060779	0.585431	1.131461
C118	C	1.393887	-0.356720	0.214109
C119	C	1.727220	-0.023386	0.547443
C120	C	2.060553	0.309947	0.880776
C121	C	1.394048	-0.356538	0.106896
C122	C	1.727382	-0.023204	0.440229
C123	C	2.060715	0.310129	0.773563
C124	C	1.393994	-0.356602	0.910601
C125	C	1.727327	-0.023268	1.243934
C126	C	2.060661	0.310065	1.577267
C127	C	1.394022	-0.356568	1.019833
C128	C	1.727355	-0.023235	1.353167
C129	C	2.060688	0.310098	1.686500
H130	H	1.336516	-0.792526	0.614637
H131	H	1.669849	-0.459193	0.947970
H132	H	2.003183	-0.125859	1.281304
F133	F	1.341929	-0.926066	0.638339
F134	F	1.675262	-0.592733	0.971672
F135	F	2.008596	-0.259399	1.305006
H136	H	1.291308	-0.918990	0.341472
H137	H	1.624642	-0.585656	0.674806
H138	H	1.957975	-0.252323	1.008139
H139	H	1.551443	-0.919119	0.436383
H140	H	1.884777	-0.585785	0.769716
H141	H	2.218110	-0.252452	1.103050
F142	F	1.221393	-0.927441	0.517247
F143	F	1.554727	-0.594108	0.850581
F144	F	1.888060	-0.260774	1.183914
H145	H	1.243662	-0.793172	0.522009
H146	H	1.576996	-0.459838	0.855343
H147	H	1.910329	-0.126505	1.188676
H148	H	1.553775	-0.791805	0.442578
H149	H	1.887109	-0.458472	0.775912
H150	H	2.220442	-0.125138	1.109245
F151	F	1.269914	-0.785355	0.333734
F152	F	1.603247	-0.452022	0.667067
F153	F	1.936580	-0.118688	1.000401
F154	F	1.433607	-0.926027	0.288273
F155	F	1.766940	-0.592694	0.621606
F156	F	2.100274	-0.259361	0.954940
H157	H	1.521138	-0.920413	0.563673
H158	H	1.854471	-0.587080	0.897007
H159	H	2.187805	-0.253746	1.230340
F160	F	1.434937	-0.786677	0.288325
F161	F	1.768270	-0.453344	0.621658
F162	F	2.101604	-0.120011	0.954992
F163	F	1.522576	-0.786598	0.590826
F164	F	1.855910	-0.453265	0.924159
F165	F	2.189243	-0.119932	1.257493
