data_functionalizedCrystal
_audit_creation_method	'MofGen! by Chris Wilmer'
_symmetry_space_group_name_H-M	'P1'
_symmetry_Int_Tables_number	1
_symmetry_cell_setting	triclinic
loop_
_symmetry_equiv_pos_as_xyz
  x,y,z
_cell_length_a	11.169417
_cell_length_b	16.120444
_cell_length_c	11.169409
_cell_angle_alpha	87.138527
_cell_angle_beta	90.019824
_cell_angle_gamma	92.927304
loop_
_atom_site_label
_atom_site_type_symbol
_atom_site_fract_x
_atom_site_fract_y
_atom_site_fract_z
Zn1	Zn	1.810607	-0.331820	0.702711
Zn2	Zn	2.310607	0.168180	1.202711
Zn3	Zn	1.800261	-0.471263	0.512185
Zn4	Zn	2.300261	0.028737	1.012185
Zn5	Zn	1.609889	-0.331870	0.502050
Zn6	Zn	2.109889	0.168130	1.002050
Zn7	Zn	1.599670	-0.471195	0.712825
Zn8	Zn	2.099670	0.028805	1.212825
O9	O	1.705107	-0.401537	0.607443
O10	O	2.205107	0.098463	1.107443
O11	O	1.977184	-0.350324	0.677447
O12	O	2.477184	0.149676	1.177447
O13	O	1.774955	-0.452822	0.342894
O14	O	2.274955	0.047178	0.842894
O15	O	1.645121	-0.215198	0.520194
O16	O	2.145121	0.284802	1.020194
O17	O	1.969583	-0.452773	0.537468
O18	O	2.469583	0.047227	1.037468
O19	O	1.792588	-0.215161	0.667619
O20	O	2.292588	0.284839	1.167619
O21	O	1.635089	-0.350411	0.335448
O22	O	2.135089	0.149589	0.835448
O23	O	1.440585	-0.350345	0.530000
O24	O	1.940585	0.149655	1.030000
O25	O	1.627705	-0.452657	0.879430
O26	O	2.127705	0.047343	1.379430
O27	O	1.433077	-0.452706	0.684856
O28	O	1.933077	0.047294	1.184856
O29	O	1.782679	-0.350258	0.871999
O30	O	2.282679	0.149742	1.371999
O31	O	1.765046	-0.587920	0.547275
O32	O	2.265046	-0.087920	1.047275
O33	O	1.617673	-0.587870	0.694684
O34	O	2.117673	-0.087870	1.194684
C35	C	1.393283	-0.401524	0.607426
C36	C	1.893283	0.098476	1.107426
C37	C	1.259882	-0.401539	0.607449
C38	C	1.759882	0.098461	1.107449
C39	C	1.689161	-0.618145	0.623203
C40	C	2.189161	-0.118145	1.123203
C41	C	1.682449	-0.710810	0.629985
C42	C	2.182449	-0.210810	1.129985
C43	C	1.740220	-0.921757	0.572517
C44	C	2.240220	-0.421757	1.072517
C45	C	1.670216	-0.880466	0.642380
C46	C	2.170216	-0.380466	1.142380
C47	C	1.677024	-0.786061	0.635482
C48	C	2.177024	-0.286061	1.135482
C49	C	1.733414	-1.016170	0.579415
C50	C	2.233414	-0.516170	1.079415
C51	C	2.018148	-0.401550	0.607460
C52	C	2.518148	0.098450	1.107460
C53	C	2.151548	-0.401556	0.607467
C54	C	2.651548	0.098444	1.107467
C55	C	1.705206	-0.401445	0.920479
C56	C	2.205206	0.098555	1.420479
C57	C	1.705248	-0.401405	1.053876
C58	C	2.205248	0.098595	1.553876
C59	C	1.721148	-0.184084	0.591648
C60	C	2.221148	0.315916	1.091648
C61	C	1.727984	-0.091418	0.584917
C62	C	2.227984	0.408582	1.084917
C63	C	1.705082	-0.401569	0.295620
C64	C	2.205082	0.098431	0.795620
C65	C	1.705290	-0.401374	0.162207
C66	C	2.205290	0.098626	0.662207
H67	H	1.805261	-0.886210	0.507528
H68	H	2.305261	-0.386210	1.007528
H69	H	1.605170	-0.916017	0.707373
H70	H	2.105170	-0.416017	1.207373
