data_functionalizedCrystal
_audit_creation_method	'MofGen! by Chris Wilmer'
_symmetry_space_group_name_H-M	'P1'
_symmetry_Int_Tables_number	1
_symmetry_cell_setting	triclinic
loop_
_symmetry_equiv_pos_as_xyz
  x,y,z
_cell_length_a	17.038272
_cell_length_b	15.500227
_cell_length_c	10.654550
_cell_angle_alpha	92.856808
_cell_angle_beta	92.201770
_cell_angle_gamma	93.043705
loop_
_atom_site_label
_atom_site_type_symbol
_atom_site_fract_x
_atom_site_fract_y
_atom_site_fract_z
O1	O	1.042493	0.071832	-0.267429
O2	O	1.542493	0.571832	0.232571
O3	O	0.814839	0.071857	-0.263094
O4	O	1.314839	0.571857	0.236906
O5	O	0.933900	0.071841	-0.083008
O6	O	1.433900	0.571841	0.416992
O7	O	0.923432	0.071849	-0.447514
O8	O	1.423432	0.571849	0.052486
O9	O	0.926675	-0.072047	-0.093891
O10	O	1.426675	0.427953	0.406109
O11	O	0.807614	-0.072030	-0.273976
O12	O	1.307614	0.427970	0.226024
O13	O	1.035268	-0.072056	-0.278311
O14	O	1.535268	0.427944	0.221689
Cu15	Cu	0.920781	-0.085181	-0.277137
Cu16	Cu	1.420781	0.414819	0.222863
Cu17	Cu	0.929326	0.084983	-0.264268
Cu18	Cu	1.429326	0.584983	0.235732
O19	O	0.916207	-0.072039	-0.458396
O20	O	1.416207	0.427961	0.041604
C21	C	0.782076	-0.000083	-0.264594
C22	C	1.282076	0.499917	0.235406
C23	C	0.695218	-0.000073	-0.252836
C24	C	1.195218	0.499927	0.247164
N25	N	0.914777	-0.204865	-0.286189
N26	N	1.414777	0.295135	0.213811
C27	C	0.645707	-0.000072	-0.360780
C28	C	1.145707	0.499928	0.139220
C29	C	0.564094	-0.000084	-0.349727
C30	C	1.064094	0.499916	0.150273
C31	C	0.531994	-0.000092	-0.230727
C32	C	1.031994	0.499908	0.269273
C33	C	0.581512	-0.000096	-0.122775
C34	C	1.081512	0.499904	0.377225
C35	C	0.663123	-0.000090	-0.133831
C36	C	1.163123	0.499910	0.366169
C37	C	0.286017	-0.000115	-0.191671
C38	C	0.786017	0.499885	0.308329
C39	C	0.204400	-0.000119	-0.180624
C40	C	0.704400	0.499881	0.319376
C41	C	0.186988	-0.000109	-0.407576
C42	C	0.686988	0.499891	0.092424
C43	C	0.268601	-0.000098	-0.418621
C44	C	0.768601	0.499902	0.081379
C45	C	0.318111	-0.000106	-0.310669
C46	C	0.818111	0.499894	0.189331
C47	C	0.448573	-0.000101	-0.219426
C48	C	0.948573	0.499899	0.280574
C49	C	0.401531	-0.000103	-0.321972
C50	C	0.901531	0.499897	0.178028
C51	C	0.965245	-0.250149	-0.209912
C52	C	1.465245	0.249851	0.290088
C53	C	0.960711	-0.340721	-0.216770
C54	C	1.460711	0.159279	0.283230
C55	C	0.905713	-0.386008	-0.299911
C56	C	1.405713	0.113992	0.200089
C57	C	0.855240	-0.340718	-0.376191
C58	C	1.355240	0.159282	0.123809
C59	C	0.859770	-0.250147	-0.369326
C60	C	1.359770	0.249853	0.130674
C61	C	0.889393	-0.659473	-0.324621
C62	C	1.389393	-0.159473	0.175379
C63	C	0.884868	-0.750049	-0.331484
C64	C	1.384868	-0.250049	0.168516
C65	C	0.990339	-0.750046	-0.172060
C66	C	1.490339	-0.250046	0.327940
C67	C	0.994868	-0.659474	-0.165207
C68	C	1.494868	-0.159474	0.334793
C69	C	0.944392	-0.614192	-0.241482
C70	C	1.444392	-0.114192	0.258518
C71	C	0.901079	-0.478587	-0.306926
C72	C	1.401079	0.021413	0.193074
C73	C	0.949022	-0.521614	-0.234460
C74	C	1.449022	-0.021614	0.265540
C75	C	1.068030	-0.000113	-0.276811
C76	C	1.568030	0.499887	0.223189
C77	C	1.154889	-0.000117	-0.288568
C78	C	1.654889	0.499883	0.211432
C79	C	0.929519	-0.000102	-0.041580
C80	C	1.429519	0.499898	0.458420
C81	C	0.927219	-0.000099	0.098077
C82	C	1.427219	0.499901	0.598077
N83	N	0.935336	0.204667	-0.255207
N84	N	1.435336	0.704667	0.244793
C85	C	0.920588	-0.000095	-0.499825
C86	C	1.420588	0.499905	0.000175
C87	C	0.922888	-0.000092	-0.639481
C88	C	1.422888	0.499908	-0.139481
C89	C	0.997320	-0.000109	0.171053
C90	C	1.497320	0.499891	0.671053
C91	C	0.995155	-0.000103	0.302275
C92	C	1.495155	0.499897	0.802275
C93	C	0.852781	-0.000079	0.287534
C94	C	1.352781	0.499921	0.787534
C95	C	0.854948	-0.000079	0.156314
C96	C	1.354948	0.499921	0.656314
C97	C	1.069592	-0.000128	0.112816
C98	C	1.569592	0.499872	0.612816
C99	C	1.139699	-0.000140	0.185792
C100	C	1.639699	0.499860	0.685792
C101	C	1.137533	-0.000133	0.317014
C102	C	1.637533	0.499867	0.817014
C103	C	1.065261	-0.000116	0.375260
C104	C	1.565261	0.499884	0.875260
H105	H	0.671836	-0.000065	-0.457682
H106	H	1.171836	0.499935	0.042318
H107	H	0.797865	-0.000072	0.096895
H108	H	1.297865	0.499928	0.596895
H109	H	0.326319	-0.000123	-0.103769
H110	H	0.826319	0.499877	0.396231
H111	H	0.422427	-0.000132	-0.122538
H112	H	0.922427	0.499868	0.377462
H113	H	0.294731	-0.000081	-0.515522
H114	H	0.794731	0.499919	-0.015522
H115	H	0.555369	-0.000114	-0.025884
H116	H	1.055369	0.499886	0.474116
H117	H	1.010034	-0.213282	-0.142215
H118	H	1.510034	0.286718	0.357785
H119	H	0.856300	-0.515467	-0.374624
H120	H	1.356300	-0.015467	0.125376
H121	H	1.001806	-0.377591	-0.154659
H122	H	1.501806	0.122409	0.345341
H123	H	0.146668	-0.000103	-0.495464
H124	H	0.646668	0.499897	0.004536
H125	H	0.523785	-0.000082	-0.437627
H126	H	1.023785	0.499918	0.062373
H127	H	1.071363	-0.000136	0.005968
H128	H	1.571363	0.499864	0.505968
H129	H	1.063505	-0.000101	0.482112
H130	H	1.563505	0.499899	0.982112
H131	H	0.178268	-0.000124	-0.083716
H132	H	0.678268	0.499876	0.416284
H133	H	1.039652	-0.622603	-0.097507
H134	H	1.539652	-0.122603	0.402493
H135	H	1.031434	-0.786923	-0.109959
H136	H	1.531434	-0.286923	0.390041
H137	H	1.198541	-0.000133	0.138361
H138	H	1.698541	0.499867	0.638361
H139	H	0.840079	-0.786918	-0.399192
H140	H	1.340079	-0.286918	0.100808
H141	H	0.848294	-0.622611	-0.386730
H142	H	1.348294	-0.122611	0.113270
H143	H	0.703435	-0.000090	-0.045931
H144	H	1.203435	0.499910	0.454069
H145	H	0.810455	-0.377596	-0.443882
H146	H	1.310455	0.122404	0.056118
H147	H	0.993799	-0.484739	-0.166761
H148	H	1.493799	0.015261	0.333239
H149	H	0.427670	-0.000101	-0.418862
H150	H	0.927670	0.499899	0.081138
H151	H	0.793941	-0.000066	0.334968
H152	H	1.293941	0.499934	0.834968
H153	H	1.194618	-0.000134	0.376429
H154	H	1.694618	0.499866	0.876429
H155	H	0.818672	-0.213278	-0.431437
H156	H	1.318672	0.286722	0.068563
