data_functionalizedCrystal
_audit_creation_method	'MofGen! by Chris Wilmer'
_symmetry_space_group_name_H-M	'P1'
_symmetry_Int_Tables_number	1
_symmetry_cell_setting	triclinic
loop_
_symmetry_equiv_pos_as_xyz
  x,y,z
_cell_length_a	19.188930
_cell_length_b	19.188930
_cell_length_c	10.868271
_cell_angle_alpha	89.989749
_cell_angle_beta	89.981803
_cell_angle_gamma	83.144779
loop_
_atom_site_label
_atom_site_type_symbol
_atom_site_fract_x
_atom_site_fract_y
_atom_site_fract_z
O1	O	0.926145	0.087168	-0.102732
O2	O	1.176145	0.337168	0.147268
O3	O	1.426145	0.587168	0.397268
O4	O	1.676145	0.837168	0.647268
O5	O	0.722833	0.098902	-0.102649
O6	O	0.972833	0.348902	0.147351
O7	O	1.222833	0.598902	0.397351
O8	O	1.472833	0.848902	0.647351
O9	O	0.830356	-0.008620	-0.102669
O10	O	1.080356	0.241380	0.147331
O11	O	1.330356	0.491380	0.397331
O12	O	1.580356	0.741380	0.647331
O13	O	0.818622	0.194691	-0.102712
O14	O	1.068622	0.444691	0.147288
O15	O	1.318622	0.694691	0.397288
O16	O	1.568622	0.944691	0.647288
O17	O	0.830347	-0.008625	0.101976
O18	O	1.080347	0.241375	0.351976
O19	O	1.330347	0.491375	0.601976
O20	O	1.580347	0.741375	0.851976
O21	O	0.722825	0.098898	0.101996
O22	O	0.972825	0.348898	0.351996
O23	O	1.222825	0.598898	0.601996
O24	O	1.472825	0.848898	0.851996
O25	O	0.926136	0.087164	0.101913
O26	O	1.176136	0.337164	0.351913
O27	O	1.426136	0.587164	0.601913
O28	O	1.676136	0.837164	0.851913
Zn29	Zn	0.824479	0.093030	0.134446
Zn30	Zn	1.074479	0.343030	0.384446
Zn31	Zn	1.324479	0.593030	0.634446
Zn32	Zn	1.574479	0.843030	0.884446
Zn33	Zn	0.824490	0.093036	-0.135182
Zn34	Zn	1.074490	0.343036	0.114818
Zn35	Zn	1.324490	0.593036	0.364818
Zn36	Zn	1.574490	0.843036	0.614818
O37	O	0.818613	0.194687	0.101933
O38	O	1.068613	0.444687	0.351933
O39	O	1.318613	0.694687	0.601933
O40	O	1.568613	0.944687	0.851933
C41	C	0.696818	0.098520	-0.000316
C42	C	0.946818	0.348520	0.249684
C43	C	1.196818	0.598520	0.499684
C44	C	1.446818	0.848520	0.749684
C45	C	0.619313	0.097380	-0.000283
C46	C	0.869313	0.347380	0.249717
C47	C	1.119313	0.597380	0.499717
C48	C	1.369313	0.847380	0.749717
C49	C	0.829972	-0.034634	-0.000343
C50	C	1.079972	0.215366	0.249657
C51	C	1.329972	0.465366	0.499657
C52	C	1.579972	0.715366	0.749657
C53	C	0.828831	-0.112138	-0.000332
C54	C	1.078831	0.137862	0.249668
C55	C	1.328831	0.387862	0.499668
C56	C	1.578831	0.637862	0.749668
C57	C	0.574389	0.160470	-0.000316
C58	C	0.824389	0.410470	0.249684
C59	C	1.074389	0.660470	0.499684
C60	C	1.324389	0.910470	0.749684
C61	C	0.501566	0.159399	-0.000329
C62	C	0.751566	0.409399	0.249671
C63	C	1.001566	0.659399	0.499671
C64	C	1.251566	0.909399	0.749671
C65	C	0.473669	0.095233	-0.000335
C66	C	0.723669	0.345233	0.249665
C67	C	0.973669	0.595233	0.499665
C68	C	1.223669	0.845233	0.749665
C69	C	0.518603	0.032133	-0.000295
C70	C	0.768603	0.282133	0.249705
C71	C	1.018603	0.532133	0.499705
C72	C	1.268603	0.782133	0.749705
C73	C	0.591425	0.033207	-0.000269
C74	C	0.841425	0.283207	0.249731
C75	C	1.091425	0.533207	0.499731
C76	C	1.341425	0.783207	0.749731
N77	N	0.365692	0.046187	-0.070023
N78	N	0.615692	0.296187	0.179977
N79	N	0.865692	0.546187	0.429977
N80	N	1.115692	0.796187	0.679977
N81	N	0.296513	0.045172	-0.070050
N82	N	0.546513	0.295172	0.179950
N83	N	0.796513	0.545172	0.429950
N84	N	1.046513	0.795172	0.679950
C85	C	0.254260	0.091994	-0.000409
C86	C	0.504260	0.341994	0.249591
C87	C	0.754260	0.591994	0.499591
C88	C	1.004260	0.841994	0.749591
N89	N	0.283798	0.139882	0.069244
N90	N	0.533798	0.389882	0.319244
N91	N	0.783798	0.639882	0.569244
N92	N	1.033798	0.889882	0.819244
N93	N	0.352983	0.140899	0.069266
N94	N	0.602983	0.390899	0.319266
N95	N	0.852983	0.640899	0.569266
N96	N	1.102983	0.890899	0.819266
C97	C	0.394707	0.094062	-0.000362
C98	C	0.644707	0.344062	0.249638
C99	C	0.894707	0.594062	0.499638
C100	C	1.144707	0.844062	0.749638
C101	C	0.130372	0.153928	-0.000455
C102	C	0.380372	0.403928	0.249545
C103	C	0.630372	0.653928	0.499545
C104	C	0.880372	0.903928	0.749545
C105	C	0.057547	0.152853	-0.000460
C106	C	0.307547	0.402853	0.249540
C107	C	0.557547	0.652853	0.499540
C108	C	0.807547	0.902853	0.749540
C109	C	0.074586	0.025586	-0.000438
C110	C	0.324586	0.275586	0.249562
C111	C	0.574586	0.525586	0.499562
C112	C	0.824586	0.775586	0.749562
C113	C	0.147409	0.026662	-0.000420
C114	C	0.397409	0.276662	0.249580
C115	C	0.647409	0.526662	0.499580
C116	C	0.897409	0.776662	0.749580
C117	C	0.175298	0.090835	-0.000434
C118	C	0.425298	0.340835	0.249566
C119	C	0.675298	0.590835	0.499566
C120	C	0.925298	0.840835	0.749566
C121	C	0.891922	-0.157062	-0.000351
C122	C	1.141922	0.092938	0.249649
C123	C	1.391922	0.342938	0.499649
C124	C	1.641922	0.592938	0.749649
C125	C	0.890850	-0.229886	-0.000371
C126	C	1.140850	0.020114	0.249629
C127	C	1.390850	0.270114	0.499629
C128	C	1.640850	0.520114	0.749629
C129	C	0.826684	-0.257782	-0.000345
C130	C	1.076684	-0.007782	0.249655
C131	C	1.326684	0.242218	0.499655
C132	C	1.576684	0.492218	0.749655
C133	C	0.763585	-0.212849	-0.000333
C134	C	1.013585	0.037151	0.249667
C135	C	1.263585	0.287151	0.499667
C136	C	1.513585	0.537151	0.749667
C137	C	0.764658	-0.140026	-0.000326
C138	C	1.014658	0.109974	0.249674
C139	C	1.264658	0.359974	0.499674
C140	C	1.514658	0.609974	0.749674
N141	N	0.777634	-0.365789	0.069319
N142	N	1.027634	-0.115789	0.319319
N143	N	1.277634	0.134211	0.569319
N144	N	1.527634	0.384211	0.819319
N145	N	0.776618	-0.434967	0.069315
N146	N	1.026618	-0.184967	0.319315
N147	N	1.276618	0.065033	0.569315
N148	N	1.526618	0.315033	0.819315
C149	C	0.823446	-0.477191	-0.000369
C150	C	1.073446	-0.227191	0.249631
C151	C	1.323446	0.022809	0.499631
C152	C	1.573446	0.272809	0.749631
N153	N	0.871338	-0.447624	-0.070033
N154	N	1.121338	-0.197624	0.179967
N155	N	1.371338	0.052376	0.429967
N156	N	1.621338	0.302376	0.679967
N157	N	0.872356	-0.378439	-0.070024
N158	N	1.122356	-0.128439	0.179976
N159	N	1.372356	0.121561	0.429976
N160	N	1.622356	0.371561	0.679976
C161	C	0.825513	-0.336745	-0.000354
C162	C	1.075513	-0.086745	0.249646
C163	C	1.325513	0.163255	0.499646
C164	C	1.575513	0.413255	0.749646
C165	C	0.885379	-0.601079	-0.000411
C166	C	1.135379	-0.351079	0.249589
C167	C	1.385379	-0.101079	0.499589
C168	C	1.635379	0.148921	0.749589
C169	C	0.884305	-0.673904	-0.000438
C170	C	1.134305	-0.423904	0.249562
C171	C	1.384305	-0.173904	0.499562
C172	C	1.634305	0.076096	0.749562
C173	C	0.757038	-0.656865	-0.000388
C174	C	1.007038	-0.406865	0.249612
C175	C	1.257038	-0.156865	0.499612
C176	C	1.507038	0.093135	0.749612
C177	C	0.758114	-0.584042	-0.000373
C178	C	1.008114	-0.334042	0.249627
C179	C	1.258114	-0.084042	0.499627
C180	C	1.508114	0.165958	0.749627
C181	C	0.822286	-0.556154	-0.000379
C182	C	1.072286	-0.306154	0.249621
C183	C	1.322286	-0.056154	0.499621
C184	C	1.572286	0.193846	0.749621
C185	C	0.952151	0.087546	-0.000423
C186	C	1.202151	0.337546	0.249577
C187	C	1.452151	0.587546	0.499577
C188	C	1.702151	0.837546	0.749577
C189	C	1.029656	0.088687	-0.000463
C190	C	1.279656	0.338687	0.249537
C191	C	1.529656	0.588687	0.499537
C192	C	1.779656	0.838687	0.749537
C193	C	0.818997	0.220700	-0.000396
C194	C	1.068997	0.470700	0.249604
C195	C	1.318997	0.720700	0.499604
C196	C	1.568997	0.970700	0.749604
C197	C	0.820138	0.298204	-0.000415
C198	C	1.070138	0.548204	0.249585
C199	C	1.320138	0.798204	0.499585
C200	C	1.570138	1.048204	0.749585
N201	N	0.824476	0.093026	0.318460
N202	N	1.074476	0.343026	0.568460
N203	N	1.324476	0.593026	0.818460
N204	N	1.574476	0.843026	1.068460
N205	N	0.824499	0.093034	-0.319196
N206	N	1.074499	0.343034	-0.069196
N207	N	1.324499	0.593034	0.180804
N208	N	1.574499	0.843034	0.430804
C209	C	0.824487	0.093034	0.569466
C210	C	1.074487	0.343034	0.819466
C211	C	1.324487	0.593034	1.069466
C212	C	1.574487	0.843034	1.319466
C213	C	0.824478	0.093032	0.429789
C214	C	1.074478	0.343032	0.679789
C215	C	1.324478	0.593032	0.929789
C216	C	1.574478	0.843032	1.179789
H217	H	0.597091	0.212725	-0.000330
H218	H	0.847091	0.462725	0.249670
H219	H	1.097091	0.712725	0.499670
H220	H	1.347091	0.962725	0.749670
H221	H	0.935683	-0.710481	-0.000461
H222	H	1.185683	-0.460481	0.249539
H223	H	1.435683	-0.210481	0.499539
H224	H	1.685683	0.039519	0.749539
H225	H	0.704792	-0.679578	-0.000374
H226	H	0.954792	-0.429578	0.249626
H227	H	1.204792	-0.179578	0.499626
H228	H	1.454792	0.070422	0.749626
O229	O	0.690066	-0.535581	-0.000321
O230	O	0.940066	-0.285581	0.249679
O231	O	1.190066	-0.035581	0.499679
O232	O	1.440066	0.214419	0.749679
H233	H	0.645266	-0.567211	-0.000293
H234	H	0.895266	-0.317211	0.249707
H235	H	1.145266	-0.067211	0.499707
H236	H	1.395266	0.182789	0.749707
O237	O	0.694377	-0.242935	-0.000289
O238	O	0.944377	0.007065	0.249711
O239	O	1.194377	0.257065	0.499711
O240	O	1.444377	0.507065	0.749711
H241	H	0.690848	-0.275703	-0.083691
H242	H	0.940848	-0.025703	0.166309
H243	H	1.190848	0.224297	0.416309
H244	H	1.440848	0.474297	0.666309
H245	H	0.464982	0.210776	-0.000353
H246	H	0.714982	0.460776	0.249647
H247	H	0.964982	0.710776	0.499647
H248	H	1.214982	0.960776	0.749647
O249	O	0.958900	-0.278354	-0.000375
O250	O	1.208900	-0.028354	0.249625
O251	O	1.458900	0.221646	0.499625
O252	O	1.708900	0.471646	0.749625
H253	H	1.003702	-0.246727	-0.000368
H254	H	1.253702	0.003273	0.249632
H255	H	1.503702	0.253273	0.499632
H256	H	1.753702	0.503273	0.749632
H257	H	0.153080	0.206181	-0.000448
H258	H	0.403080	0.456181	0.249552
H259	H	0.653080	0.706181	0.499552
H260	H	0.903080	0.956181	0.749552
H261	H	0.944176	-0.134360	-0.000360
H262	H	1.194176	0.115640	0.249640
H263	H	1.444176	0.365640	0.499640
H264	H	1.694176	0.615640	0.749640
O265	O	0.696608	-0.091565	-0.000283
O266	O	0.946608	0.158435	0.249717
O267	O	1.196608	0.408435	0.499717
O268	O	1.446608	0.658435	0.749717
H269	H	0.651807	-0.123194	-0.000260
H270	H	0.901807	0.126806	0.249740
H271	H	1.151807	0.376806	0.499740
H272	H	1.401807	0.626806	0.749740
O273	O	0.195865	-0.041389	-0.000394
O274	O	0.445865	0.208611	0.249606
O275	O	0.695865	0.458611	0.499606
O276	O	0.945865	0.708611	0.749606
H277	H	0.251189	-0.029863	-0.000365
H278	H	0.501189	0.220137	0.249635
H279	H	0.751189	0.470137	0.499635
H280	H	1.001189	0.720137	0.749635
O281	O	0.488521	-0.037077	-0.000301
O282	O	0.738521	0.212923	0.249699
O283	O	0.988521	0.462923	0.499699
O284	O	1.238521	0.712923	0.749699
H285	H	0.430335	-0.027225	-0.000336
H286	H	0.680335	0.222775	0.249664
H287	H	0.930335	0.472775	0.499664
H288	H	1.180335	0.722775	0.749664
O289	O	0.639886	-0.034843	-0.000240
O290	O	0.889886	0.215157	0.249760
O291	O	1.139886	0.465157	0.499760
O292	O	1.389886	0.715157	0.749760
H293	H	0.608257	-0.079644	-0.000249
H294	H	0.858257	0.170356	0.249751
H295	H	1.108257	0.420356	0.499751
H296	H	1.358257	0.670356	0.749751
H297	H	0.937632	-0.578372	-0.000422
H298	H	1.187632	-0.328372	0.249578
H299	H	1.437632	-0.078372	0.499578
H300	H	1.687632	0.171628	0.749578
H301	H	0.020970	0.204232	-0.000480
H302	H	0.270970	0.454232	0.249520
H303	H	0.520970	0.704232	0.499520
H304	H	0.770970	0.954232	0.749520
H305	H	0.051874	-0.026659	-0.000519
H306	H	0.301874	0.223341	0.249481
H307	H	0.551874	0.473341	0.499481
H308	H	0.801874	0.723341	0.749481
