data_functionalizedCrystal
_audit_creation_method	'MofGen! by Chris Wilmer'
_symmetry_space_group_name_H-M	'P1'
_symmetry_Int_Tables_number	1
_symmetry_cell_setting	triclinic
loop_
_symmetry_equiv_pos_as_xyz
  x,y,z
_cell_length_a	21.395362
_cell_length_b	19.805405
_cell_length_c	21.395355
_cell_angle_alpha	89.982777
_cell_angle_beta	89.956060
_cell_angle_gamma	90.042604
loop_
_atom_site_label
_atom_site_type_symbol
_atom_site_fract_x
_atom_site_fract_y
_atom_site_fract_z
Zn1	Zn	0.957877	-0.269255	-0.354591
Zn2	Zn	1.207877	-0.019255	-0.104591
Zn3	Zn	1.457877	0.230745	0.145409
Zn4	Zn	1.707877	0.480745	0.395409
Zn5	Zn	0.957787	-0.382425	-0.249816
Zn6	Zn	1.207787	-0.132425	0.000184
Zn7	Zn	1.457787	0.117575	0.250184
Zn8	Zn	1.707787	0.367575	0.500184
Zn9	Zn	0.853092	-0.269286	-0.249793
Zn10	Zn	1.103092	-0.019286	0.000207
Zn11	Zn	1.353092	0.230714	0.250207
Zn12	Zn	1.603092	0.480714	0.500207
Zn13	Zn	0.853068	-0.382438	-0.354521
Zn14	Zn	1.103068	-0.132438	-0.104521
Zn15	Zn	1.353068	0.117562	0.145479
Zn16	Zn	1.603068	0.367562	0.395479
O17	O	0.905456	-0.325851	-0.302180
O18	O	1.155456	-0.075851	-0.052180
O19	O	1.405456	0.174149	0.197820
O20	O	1.655456	0.424149	0.447820
O21	O	1.045543	-0.284248	-0.340732
O22	O	1.295543	-0.034248	-0.090732
O23	O	1.545543	0.215752	0.159268
O24	O	1.795543	0.465752	0.409268
O25	O	0.943871	-0.367424	-0.162135
O26	O	1.193871	-0.117424	0.087865
O27	O	1.443871	0.132576	0.337865
O28	O	1.693871	0.382576	0.587865
O29	O	0.867039	-0.174565	-0.263714
O30	O	1.117039	0.075435	-0.013714
O31	O	1.367039	0.325435	0.236286
O32	O	1.617039	0.575435	0.486286
O33	O	1.045476	-0.367393	-0.263754
O34	O	1.295476	-0.117393	-0.013754
O35	O	1.545476	0.132607	0.236246
O36	O	1.795476	0.382607	0.486246
O37	O	0.944024	-0.174542	-0.340709
O38	O	1.194024	0.075458	-0.090709
O39	O	1.444024	0.325458	0.159291
O40	O	1.694024	0.575458	0.409291
O41	O	0.866952	-0.284302	-0.162118
O42	O	1.116952	-0.034302	0.087882
O43	O	1.366952	0.215698	0.337882
O44	O	1.616952	0.465698	0.587882
O45	O	0.765411	-0.284315	-0.263646
O46	O	1.015411	-0.034315	-0.013646
O47	O	1.265411	0.215685	0.236354
O48	O	1.515411	0.465685	0.486354
O49	O	0.866999	-0.367417	-0.442208
O50	O	1.116999	-0.117417	-0.192208
O51	O	1.366999	0.132583	0.057792
O52	O	1.616999	0.382583	0.307792
O53	O	0.765393	-0.367448	-0.340589
O54	O	1.015393	-0.117448	-0.090589
O55	O	1.265393	0.132552	0.159411
O56	O	1.515393	0.382552	0.409411
O57	O	0.944002	-0.284261	-0.442260
O58	O	1.194002	-0.034261	-0.192260
O59	O	1.444002	0.215739	0.057740
O60	O	1.694002	0.465739	0.307740
O61	O	0.943848	-0.477143	-0.263686
O62	O	1.193848	-0.227143	-0.013686
O63	O	1.443848	0.022857	0.236314
O64	O	1.693848	0.272857	0.486314
O65	O	0.866912	-0.477153	-0.340612
O66	O	1.116912	-0.227153	-0.090612
O67	O	1.366912	0.022847	0.159388
O68	O	1.616912	0.272847	0.409388
C69	C	0.742668	-0.325887	-0.302107
C70	C	0.992668	-0.075887	-0.052107
C71	C	1.242668	0.174113	0.197893
C72	C	1.492668	0.424113	0.447893
C73	C	0.673027	-0.325918	-0.302091
C74	C	0.923027	-0.075918	-0.052091
C75	C	1.173027	0.174082	0.197909
C76	C	1.423027	0.424082	0.447909
C77	C	0.640321	-0.369263	-0.342096
C78	C	0.890321	-0.119263	-0.092096
C79	C	1.140321	0.130737	0.157904
C80	C	1.390321	0.380737	0.407904
C81	C	0.574886	-0.369246	-0.342124
C82	C	0.824886	-0.119246	-0.092124
C83	C	1.074886	0.130754	0.157876
C84	C	1.324886	0.380754	0.407876
C85	C	0.542159	-0.325892	-0.302136
C86	C	0.792159	-0.075892	-0.052136
C87	C	1.042159	0.174108	0.197864
C88	C	1.292159	0.424108	0.447864
C89	C	0.574872	-0.282539	-0.262129
C90	C	0.824872	-0.032539	-0.012129
C91	C	1.074872	0.217461	0.237871
C92	C	1.324872	0.467461	0.487871
C93	C	0.640306	-0.282553	-0.262106
C94	C	0.890306	-0.032553	-0.012106
C95	C	1.140306	0.217447	0.237894
C96	C	1.390306	0.467447	0.487894
C97	C	0.438434	-0.320440	-0.245731
C98	C	0.688434	-0.070440	0.004269
C99	C	0.938434	0.179560	0.254269
C100	C	1.188434	0.429560	0.504269
C101	C	0.373001	-0.320431	-0.245752
C102	C	0.623001	-0.070431	0.004248
C103	C	0.873001	0.179569	0.254248
C104	C	1.123001	0.429569	0.504248
C105	C	0.340338	-0.325848	-0.302205
C106	C	0.590338	-0.075848	-0.052205
C107	C	0.840338	0.174152	0.197795
C108	C	1.090338	0.424152	0.447795
C109	C	0.373116	-0.331287	-0.358639
C110	C	0.623116	-0.081287	-0.108639
C111	C	0.873116	0.168713	0.141361
C112	C	1.123116	0.418713	0.391361
C113	C	0.438550	-0.331301	-0.358616
C114	C	0.688550	-0.081301	-0.108616
C115	C	0.938550	0.168699	0.141384
C116	C	1.188550	0.418699	0.391384
C117	C	0.471206	-0.325873	-0.302156
C118	C	0.721206	-0.075873	-0.052156
C119	C	0.971206	0.174127	0.197844
C120	C	1.221206	0.424127	0.447844
C121	C	0.236680	-0.369177	-0.342243
C122	C	0.486680	-0.119177	-0.092243
C123	C	0.736680	0.130823	0.157757
C124	C	0.986680	0.380823	0.407757
C125	C	0.171243	-0.369156	-0.342272
C126	C	0.421243	-0.119156	-0.092272
C127	C	0.671243	0.130844	0.157728
C128	C	0.921243	0.380844	0.407728
C129	C	0.171231	-0.282452	-0.262272
C130	C	0.421231	-0.032452	-0.012272
C131	C	0.671231	0.217548	0.237728
C132	C	0.921231	0.467548	0.487728
C133	C	0.236666	-0.282470	-0.262248
C134	C	0.486666	-0.032470	-0.012248
C135	C	0.736666	0.217530	0.237752
C136	C	0.986666	0.467530	0.487752
C137	C	0.269387	-0.325836	-0.302233
C138	C	0.519387	-0.075836	-0.052233
C139	C	0.769387	0.174164	0.197767
C140	C	1.019387	0.424164	0.447767
C141	C	0.905384	-0.501707	-0.302157
C142	C	1.155384	-0.251707	-0.052157
C143	C	1.405384	-0.001707	0.197843
C144	C	1.655384	0.248293	0.447843
C145	C	0.905411	-0.576939	-0.302169
C146	C	1.155411	-0.326939	-0.052169
C147	C	1.405411	-0.076939	0.197831
C148	C	1.655411	0.173061	0.447831
C149	C	0.945474	-0.612213	-0.342292
C150	C	1.195474	-0.362213	-0.092292
C151	C	1.445474	-0.112213	0.157708
C152	C	1.695474	0.137787	0.407708
C153	C	0.945496	-0.682901	-0.342303
C154	C	1.195496	-0.432901	-0.092303
C155	C	1.445496	-0.182901	0.157697
C156	C	1.695496	0.067099	0.407697
C157	C	0.905459	-0.718315	-0.302188
C158	C	1.155459	-0.468315	-0.052188
C159	C	1.405459	-0.218315	0.197812
C160	C	1.655459	0.031685	0.447812
C161	C	0.865392	-0.683036	-0.262064
C162	C	1.115392	-0.433036	-0.012064
C163	C	1.365392	-0.183036	0.237936
C164	C	1.615392	0.066964	0.487936
C165	C	0.865367	-0.612349	-0.262056
C166	C	1.115367	-0.362349	-0.012056
C167	C	1.365367	-0.112349	0.237944
C168	C	1.615367	0.137651	0.487944
C169	C	0.865493	-0.968109	-0.262096
C170	C	1.115493	-0.718109	-0.012096
C171	C	1.365493	-0.468109	0.237904
C172	C	1.615493	-0.218109	0.487904
C173	C	0.865523	-1.038801	-0.262106
C174	C	1.115523	-0.788801	-0.012106
C175	C	1.365523	-0.538801	0.237894
C176	C	1.615523	-0.288801	0.487894
C177	C	0.945622	-1.038662	-0.342343
C178	C	1.195622	-0.788662	-0.092343
C179	C	1.445622	-0.538662	0.157657
C180	C	1.695622	-0.288662	0.407657
C181	C	0.945597	-0.967975	-0.342335
C182	C	1.195597	-0.717975	-0.092335
C183	C	1.445597	-0.467975	0.157665
C184	C	1.695597	-0.217975	0.407665
C185	C	0.905528	-0.932702	-0.302213
C186	C	1.155528	-0.682702	-0.052213
C187	C	1.405528	-0.432702	0.197787
C188	C	1.655528	-0.182702	0.447787
C189	C	0.905503	-0.856053	-0.302202
C190	C	1.155503	-0.606053	-0.052202
C191	C	1.405503	-0.356053	0.197798
C192	C	1.655503	-0.106053	0.447798
C193	C	0.905487	-0.794962	-0.302196
C194	C	1.155487	-0.544962	-0.052196
C195	C	1.405487	-0.294962	0.197804
C196	C	1.655487	-0.044962	0.447804
C197	C	1.068879	-0.325816	-0.302253
C198	C	1.318879	-0.075816	-0.052253
C199	C	1.568879	0.174184	0.197747
C200	C	1.818879	0.424184	0.447747
C201	C	1.138520	-0.325800	-0.302285
C202	C	1.388520	-0.075800	-0.052285
C203	C	1.638520	0.174200	0.197715
C204	C	1.888520	0.424200	0.447715
C205	C	0.905508	-0.325837	-0.465604
C206	C	1.155508	-0.075837	-0.215604
C207	C	1.405508	0.174163	0.034396
C208	C	1.655508	0.424163	0.284396
C209	C	0.905530	-0.325831	-0.535245
C210	C	1.155530	-0.075831	-0.285245
C211	C	1.405530	0.174169	-0.035245
C212	C	1.655530	0.424169	0.214755
C213	C	0.905545	-0.149308	-0.302217
C214	C	1.155545	0.100692	-0.052217
C215	C	1.405545	0.350692	0.197783
C216	C	1.655545	0.600692	0.447783
C217	C	0.905582	-0.074076	-0.302232
C218	C	1.155582	0.175924	-0.052232
C219	C	1.405582	0.425924	0.197768
C220	C	1.655582	0.675924	0.447768
C221	C	0.945623	-0.282530	-0.567986
C222	C	1.195623	-0.032530	-0.317986
C223	C	1.445623	0.217470	-0.067986
C224	C	1.695623	0.467470	0.182014
C225	C	0.945623	-0.282501	-0.633421
C226	C	1.195623	-0.032501	-0.383421
C227	C	1.445623	0.217499	-0.133421
C228	C	1.695623	0.467499	0.116579
C229	C	0.905535	-0.325785	-0.666113
C230	C	1.155535	-0.075785	-0.416113
C231	C	1.405535	0.174215	-0.166113
C232	C	1.655535	0.424215	0.083887
C233	C	0.865434	-0.369089	-0.633364
C234	C	1.115434	-0.119089	-0.383364
C235	C	1.365434	0.130911	-0.133364
C236	C	1.615434	0.380911	0.116636
C237	C	0.865431	-0.369112	-0.567930
C238	C	1.115431	-0.119112	-0.317930
C239	C	1.365431	0.130888	-0.067930
C240	C	1.615431	0.380888	0.182070
C241	C	0.900563	-0.386731	-0.769778
C242	C	1.150563	-0.136731	-0.519778
C243	C	1.400563	0.113269	-0.269778
C244	C	1.650563	0.363269	-0.019778
C245	C	0.900570	-0.386709	-0.835211
C246	C	1.150570	-0.136709	-0.585211
C247	C	1.400570	0.113291	-0.335211
C248	C	1.650570	0.363291	-0.085211
C249	C	0.905539	-0.325714	-0.867934
C250	C	1.155539	-0.075714	-0.617934
C251	C	1.405539	0.174286	-0.367934
C252	C	1.655539	0.424286	-0.117934
C253	C	0.910514	-0.264738	-0.835216
C254	C	1.160514	-0.014738	-0.585216
C255	C	1.410514	0.235262	-0.335216
C256	C	1.660514	0.485262	-0.085216
C257	C	0.910512	-0.264762	-0.769782
C258	C	1.160512	-0.014762	-0.519782
C259	C	1.410512	0.235238	-0.269782
C260	C	1.660512	0.485238	-0.019782
C261	C	0.905533	-0.325765	-0.737066
C262	C	1.155533	-0.075765	-0.487066
C263	C	1.405533	0.174235	-0.237066
C264	C	1.655533	0.424235	0.012934
C265	C	0.945633	-0.282378	-0.971628
C266	C	1.195633	-0.032378	-0.721628
C267	C	1.445633	0.217622	-0.471628
C268	C	1.695633	0.467622	-0.221628
C269	C	0.945628	-0.282347	-1.037064
C270	C	1.195628	-0.032347	-0.787064
C271	C	1.445628	0.217653	-0.537064
C272	C	1.695628	0.467653	-0.287064
C273	C	0.865443	-0.368941	-1.037006
C274	C	1.115443	-0.118941	-0.787006
C275	C	1.365443	0.131059	-0.537006
C276	C	1.615443	0.381059	-0.287006
C277	C	0.865445	-0.368966	-0.971571
C278	C	1.115445	-0.118966	-0.721571
C279	C	1.365445	0.131034	-0.471571
C280	C	1.615445	0.381034	-0.221571
C281	C	0.905543	-0.325685	-0.938885
C282	C	1.155543	-0.075685	-0.688885
C283	C	1.405543	0.174315	-0.438885
C284	C	1.655543	0.424315	-0.188885
C285	C	0.905440	-0.325816	-0.139393
C286	C	1.155440	-0.075816	0.110607
C287	C	1.405440	0.174184	0.360607
C288	C	1.655440	0.424184	0.610607
C289	C	0.905539	-0.325631	-0.069752
C290	C	1.155539	-0.075631	0.180248
C291	C	1.405539	0.174369	0.430248
C292	C	1.655539	0.424369	0.680248
H293	H	0.144615	-0.404451	-0.374852
H294	H	0.394615	-0.154451	-0.124852
H295	H	0.644615	0.095549	0.125148
H296	H	0.894615	0.345549	0.375148
H297	H	0.666958	-0.404574	-0.374656
H298	H	0.916958	-0.154574	-0.124656
H299	H	1.166958	0.095426	0.125344
H300	H	1.416958	0.345426	0.375344
H301	H	0.832869	-0.939395	-0.229426
H302	H	1.082869	-0.689395	0.020574
H303	H	1.332869	-0.439395	0.270574
H304	H	1.582869	-0.189395	0.520574
H305	H	0.666935	-0.247254	-0.229530
H306	H	0.916935	0.002746	0.020470
H307	H	1.166935	0.252746	0.270470
H308	H	1.416935	0.502746	0.520470
Cl309	Cl	0.331800	-0.313593	-0.174808
Cl310	Cl	0.581800	-0.063593	0.075192
Cl311	Cl	0.831800	0.186407	0.325192
Cl312	Cl	1.081800	0.436407	0.575192
Cl313	Cl	0.996039	-0.227965	-0.930535
Cl314	Cl	1.246039	0.022035	-0.680535
Cl315	Cl	1.496039	0.272035	-0.430535
Cl316	Cl	1.746039	0.522035	-0.180535
Cl317	Cl	0.815024	-0.423553	-0.526768
Cl318	Cl	1.065024	-0.173553	-0.276768
Cl319	Cl	1.315024	0.076447	-0.026768
Cl320	Cl	1.565024	0.326447	0.223232
Cl321	Cl	0.894334	-0.463420	-0.728648
Cl322	Cl	1.144334	-0.213420	-0.478648
Cl323	Cl	1.394334	0.036580	-0.228648
Cl324	Cl	1.644334	0.286580	0.021352
H325	H	0.548252	-0.404542	-0.374702
H326	H	0.798252	-0.154542	-0.124702
H327	H	1.048252	0.095458	0.125298
H328	H	1.298252	0.345458	0.375298
Cl329	Cl	0.533731	-0.228034	-0.211861
Cl330	Cl	0.783731	0.021966	0.038139
Cl331	Cl	1.033731	0.271966	0.288139
Cl332	Cl	1.283731	0.521966	0.538139
Cl333	Cl	0.815040	-0.423350	-1.078098
Cl334	Cl	1.065040	-0.173350	-0.828098
Cl335	Cl	1.315040	0.076650	-0.578098
Cl336	Cl	1.565040	0.326650	-0.328098
H337	H	0.832800	-0.404230	-0.944913
H338	H	1.082800	-0.154230	-0.694913
H339	H	1.332800	0.095770	-0.444913
H340	H	1.582800	0.345770	-0.194913
H341	H	0.978274	-0.247287	-0.541378
H342	H	1.228274	0.002713	-0.291378
H343	H	1.478274	0.252713	-0.041378
H344	H	1.728274	0.502713	0.208622
Cl345	Cl	0.815053	-0.727555	-0.211640
Cl346	Cl	1.065053	-0.477555	0.038360
Cl347	Cl	1.315053	-0.227555	0.288360
Cl348	Cl	1.565053	0.022445	0.538360
H349	H	0.832792	-0.404329	-0.659986
H350	H	1.082792	-0.154329	-0.409986
H351	H	1.332792	0.095671	-0.159986
H352	H	1.582792	0.345671	0.090014
Cl353	Cl	0.996046	-0.227917	-1.078225
Cl354	Cl	1.246046	0.022083	-0.828225
Cl355	Cl	1.496046	0.272083	-0.578225
Cl356	Cl	1.746046	0.522083	-0.328225
H357	H	0.144585	-0.247150	-0.229716
H358	H	0.394585	0.002850	0.020284
H359	H	0.644585	0.252850	0.270284
H360	H	0.894585	0.502850	0.520284
Cl361	Cl	0.479755	-0.338134	-0.429558
Cl362	Cl	0.729755	-0.088134	-0.179558
Cl363	Cl	0.979755	0.161866	0.070442
Cl364	Cl	1.229755	0.411866	0.320442
Cl365	Cl	0.332062	-0.338094	-0.429614
Cl366	Cl	0.582062	-0.088094	-0.179614
Cl367	Cl	0.832062	0.161906	0.070386
Cl368	Cl	1.082062	0.411906	0.320386
Cl369	Cl	0.894321	-0.463363	-0.876336
Cl370	Cl	1.144321	-0.213363	-0.626336
Cl371	Cl	1.394321	0.036637	-0.376336
Cl372	Cl	1.644321	0.286637	-0.126336
H373	H	0.263322	-0.404485	-0.374805
H374	H	0.513322	-0.154485	-0.124805
H375	H	0.763322	0.095515	0.125195
H376	H	1.013322	0.345515	0.375195
Cl377	Cl	0.996017	-0.228048	-0.674590
Cl378	Cl	1.246017	0.021952	-0.424590
Cl379	Cl	1.496017	0.271952	-0.174590
Cl380	Cl	1.746017	0.521952	0.075410
H381	H	0.465022	-0.316026	-0.199756
H382	H	0.715022	-0.066026	0.050244
H383	H	0.965022	0.183974	0.300244
H384	H	1.215022	0.433974	0.550244
Cl385	Cl	0.277784	-0.227979	-0.211952
Cl386	Cl	0.527784	0.022021	0.038048
Cl387	Cl	0.777784	0.272021	0.288048
Cl388	Cl	1.027784	0.522021	0.538048
H389	H	0.978079	-0.583384	-0.374955
H390	H	1.228079	-0.333384	-0.124955
H391	H	1.478079	-0.083384	0.125045
H392	H	1.728079	0.166616	0.375045
Cl393	Cl	0.995855	-0.727243	-0.392754
Cl394	Cl	1.245855	-0.477243	-0.142754
Cl395	Cl	1.495855	-0.227243	0.107246
Cl396	Cl	1.745855	0.022757	0.357246
Cl397	Cl	0.995933	-0.923459	-0.392766
Cl398	Cl	1.245933	-0.673459	-0.142766
Cl399	Cl	1.495933	-0.423459	0.107234
Cl400	Cl	1.745933	-0.173459	0.357234
Cl401	Cl	0.815000	-0.568004	-0.211614
Cl402	Cl	1.065000	-0.318004	0.038386
Cl403	Cl	1.315000	-0.068004	0.288386
Cl404	Cl	1.565000	0.181996	0.538386
Cl405	Cl	0.995993	-1.083009	-0.392786
Cl406	Cl	1.245993	-0.833009	-0.142786
Cl407	Cl	1.495993	-0.583009	0.107214
Cl408	Cl	1.745993	-0.333009	0.357214
H409	H	0.914561	-0.215070	-0.861857
H410	H	1.164561	0.034930	-0.611857
H411	H	1.414561	0.284930	-0.361857
H412	H	1.664561	0.534930	-0.111857
Cl413	Cl	0.916761	-0.188111	-0.728652
Cl414	Cl	1.166761	0.061889	-0.478652
Cl415	Cl	1.416761	0.311889	-0.228652
Cl416	Cl	1.666761	0.561889	0.021348
H417	H	0.832917	-1.067633	-0.229439
H418	H	1.082917	-0.817633	0.020561
H419	H	1.332917	-0.567633	0.270561
H420	H	1.582917	-0.317633	0.520561
