data_functionalizedCrystal
_audit_creation_method	'MofGen! by Chris Wilmer'
_symmetry_space_group_name_H-M	'P1'
_symmetry_Int_Tables_number	1
_symmetry_cell_setting	triclinic
loop_
_symmetry_equiv_pos_as_xyz
  x,y,z
_cell_length_a	16.120484
_cell_length_b	19.077105
_cell_length_c	19.076919
_cell_angle_alpha	90.076224
_cell_angle_beta	84.953390
_cell_angle_gamma	89.261477
loop_
_atom_site_label
_atom_site_type_symbol
_atom_site_fract_x
_atom_site_fract_y
_atom_site_fract_z
Zn1	Zn	-0.403262	-1.040337	0.456942
Zn2	Zn	-0.153262	-0.790337	0.706942
Zn3	Zn	0.096738	-0.540337	0.956942
Zn4	Zn	0.346738	-0.290337	1.206942
Zn5	Zn	-0.537287	-1.039017	0.344927
Zn6	Zn	-0.287287	-0.789017	0.594927
Zn7	Zn	-0.037287	-0.539017	0.844927
Zn8	Zn	0.212713	-0.289017	1.094927
Zn9	Zn	-0.392095	-0.928051	0.334278
Zn10	Zn	-0.142095	-0.678051	0.584278
Zn11	Zn	0.107905	-0.428051	0.834278
Zn12	Zn	0.357905	-0.178051	1.084278
Zn13	Zn	-0.536784	-0.916861	0.457659
Zn14	Zn	-0.286784	-0.666861	0.707659
Zn15	Zn	-0.036784	-0.416861	0.957659
Zn16	Zn	0.213216	-0.166861	1.207659
O17	O	-0.467357	-0.981066	0.398451
O18	O	-0.217357	-0.731066	0.648451
O19	O	0.032643	-0.481066	0.898451
O20	O	0.282643	-0.231066	1.148451
O21	O	-0.425924	-1.138276	0.446240
O22	O	-0.175924	-0.888276	0.696240
O23	O	0.074076	-0.638276	0.946240
O24	O	0.324076	-0.388276	1.196240
O25	O	-0.513564	-1.028428	0.245000
O26	O	-0.263564	-0.778428	0.495000
O27	O	-0.013564	-0.528428	0.745000
O28	O	0.236436	-0.278428	0.995000
O29	O	-0.276934	-0.948182	0.345793
O30	O	-0.026934	-0.698182	0.595793
O31	O	0.223066	-0.448182	0.845793
O32	O	0.473066	-0.198182	1.095793
O33	O	-0.524392	-1.137306	0.363943
O34	O	-0.274392	-0.887306	0.613943
O35	O	-0.024392	-0.637306	0.863943
O36	O	0.225608	-0.387306	1.113943
O37	O	-0.285138	-1.030678	0.435913
O38	O	-0.035138	-0.780678	0.685913
O39	O	0.214862	-0.530678	0.935913
O40	O	0.464862	-0.280678	1.185913
O41	O	-0.406892	-0.946902	0.237176
O42	O	-0.156892	-0.696902	0.487176
O43	O	0.093108	-0.446902	0.737176
O44	O	0.343108	-0.196902	0.987176
O45	O	-0.406405	-0.828452	0.346488
O46	O	-0.156405	-0.578452	0.596488
O47	O	0.093595	-0.328452	0.846488
O48	O	0.343595	-0.078452	1.096488
O49	O	-0.523535	-0.929109	0.556078
O50	O	-0.273535	-0.679109	0.806078
O51	O	-0.023535	-0.429109	1.056078
O52	O	0.226465	-0.179109	1.306078
O53	O	-0.512707	-0.820230	0.437136
O54	O	-0.262707	-0.570230	0.687136
O55	O	-0.012707	-0.320230	0.937136
O56	O	0.237293	-0.070230	1.187136
O57	O	-0.425436	-1.019827	0.555551
O58	O	-0.175436	-0.769827	0.805551
O59	O	0.074564	-0.519827	1.055551
O60	O	0.324564	-0.269827	1.305551
O61	O	-0.653863	-1.017576	0.364638
O62	O	-0.403863	-0.767576	0.614638
O63	O	-0.153863	-0.517576	0.864638
O64	O	0.096137	-0.267576	1.114638
O65	O	-0.653494	-0.927829	0.447462
O66	O	-0.403494	-0.677829	0.697462
O67	O	-0.153494	-0.427829	0.947462
O68	O	0.096506	-0.177829	1.197462
C69	C	-0.683924	-0.971363	0.407299
C70	C	-0.433924	-0.721363	0.657299
C71	C	-0.183924	-0.471363	0.907299
C72	C	0.066076	-0.221363	1.157299
C73	C	-0.776577	-0.967276	0.411111
C74	C	-0.526577	-0.717276	0.661111
C75	C	-0.276577	-0.467276	0.911111
C76	C	-0.026577	-0.217276	1.161111
C77	C	-0.458290	-0.798901	0.390734
C78	C	-0.208290	-0.548901	0.640734
C79	C	0.041710	-0.298901	0.890734
C80	C	0.291710	-0.048901	1.140734
C81	C	-0.454433	-0.720969	0.387451
C82	C	-0.204433	-0.470969	0.637451
C83	C	0.045567	-0.220969	0.887451
C84	C	0.295567	0.029031	1.137451
C85	C	-0.475675	-0.973367	0.582072
C86	C	-0.225675	-0.723367	0.832072
C87	C	0.024325	-0.473367	1.082072
C88	C	0.274325	-0.223367	1.332072
C89	C	-0.479220	-0.970086	0.660321
C90	C	-0.229220	-0.720086	0.910321
C91	C	0.020780	-0.470086	1.160321
C92	C	0.270780	-0.220086	1.410321
C93	C	-0.946215	-0.959816	0.418084
C94	C	-0.696215	-0.709816	0.668084
C95	C	-0.446215	-0.459816	0.918084
C96	C	-0.196215	-0.209816	1.168084
C97	C	-0.987665	-1.002442	0.378836
C98	C	-0.737665	-0.752442	0.628836
C99	C	-0.487665	-0.502442	0.878836
C100	C	-0.237665	-0.252442	1.128836
C101	C	-1.082058	-0.998291	0.382716
C102	C	-0.832058	-0.748291	0.632716
C103	C	-0.582058	-0.498291	0.882716
C104	C	-0.332058	-0.248291	1.132716
C105	C	-0.851814	-0.963966	0.414205
C106	C	-0.601814	-0.713966	0.664205
C107	C	-0.351814	-0.463966	0.914205
C108	C	-0.101814	-0.213966	1.164205
C109	C	-0.249946	-0.990826	0.389585
C110	C	0.000054	-0.740826	0.639585
C111	C	0.250054	-0.490826	0.889585
C112	C	0.500054	-0.240826	1.139585
C113	C	-0.157298	-0.994984	0.385807
C114	C	0.092702	-0.744984	0.635807
C115	C	0.342702	-0.494984	0.885807
C116	C	0.592702	-0.244984	1.135807
C117	C	-0.476459	-1.163943	0.406199
C118	C	-0.226459	-0.913943	0.656199
C119	C	0.023541	-0.663943	0.906199
C120	C	0.273541	-0.413943	1.156199
C121	C	-0.480338	-1.241874	0.409501
C122	C	-0.230338	-0.991874	0.659501
C123	C	0.019662	-0.741874	0.909501
C124	C	0.269662	-0.491874	1.159501
C125	C	-0.508043	-0.680093	0.433036
C126	C	-0.258043	-0.430093	0.683036
C127	C	-0.008043	-0.180093	0.933036
C128	C	0.241957	0.069907	1.183036
C129	C	-0.504408	-0.606867	0.429953
C130	C	-0.254408	-0.356867	0.679953
C131	C	-0.004408	-0.106867	0.929953
C132	C	0.245592	0.143133	1.179953
C133	C	-0.447165	-0.574519	0.381281
C134	C	-0.197165	-0.324519	0.631281
C135	C	0.052835	-0.074519	0.881281
C136	C	0.302835	0.175481	1.131281
C137	C	-0.393548	-0.615400	0.335694
C138	C	-0.143548	-0.365400	0.585694
C139	C	0.106452	-0.115400	0.835694
C140	C	0.356452	0.134600	1.085694
C141	C	-0.397180	-0.688624	0.338781
C142	C	-0.147180	-0.438624	0.588781
C143	C	0.102820	-0.188624	0.838781
C144	C	0.352820	0.061376	1.088781
C145	C	-0.430354	-0.355979	0.367000
C146	C	-0.180354	-0.105979	0.617000
C147	C	0.069646	0.144021	0.867000
C148	C	0.319646	0.394021	1.117000
C149	C	-0.426728	-0.282749	0.363916
C150	C	-0.176728	-0.032749	0.613916
C151	C	0.073272	0.217251	0.863916
C152	C	0.323272	0.467251	1.113916
C153	C	-0.537586	-0.274222	0.458176
C154	C	-0.287586	-0.024222	0.708176
C155	C	-0.037586	0.225778	0.958176
C156	C	0.212414	0.475778	1.208176
C157	C	-0.541217	-0.347448	0.461255
C158	C	-0.291217	-0.097448	0.711255
C159	C	-0.041217	0.152552	0.961255
C160	C	0.208783	0.402552	1.211255
C161	C	-0.487598	-0.388323	0.415670
C162	C	-0.237598	-0.138323	0.665670
C163	C	0.012402	0.111677	0.915670
C164	C	0.262402	0.361677	1.165670
N165	N	-0.443449	-0.499670	0.378128
N166	N	-0.193449	-0.249670	0.628128
N167	N	0.056551	0.000330	0.878128
N168	N	0.306551	0.250330	1.128128
N169	N	-0.491310	-0.463169	0.418828
N170	N	-0.241310	-0.213169	0.668828
N171	N	0.008690	0.036831	0.918828
N172	N	0.258690	0.286831	1.168828
C173	C	-0.459013	-0.988779	0.215544
C174	C	-0.209013	-0.738779	0.465544
C175	C	0.040987	-0.488779	0.715544
C176	C	0.290987	-0.238779	0.965544
C177	C	-0.455240	-0.992206	0.137292
C178	C	-0.205240	-0.742206	0.387292
C179	C	0.044760	-0.492206	0.637292
C180	C	0.294760	-0.242206	0.887292
C181	C	-0.429813	-1.015774	0.696809
C182	C	-0.179813	-0.765774	0.946809
C183	C	0.070187	-0.515774	1.196809
C184	C	0.320187	-0.265774	1.446809
C185	C	-0.433140	-1.012683	0.770331
C186	C	-0.183140	-0.762683	1.020331
C187	C	0.066860	-0.512683	1.270331
C188	C	0.316860	-0.262683	1.520331
C189	C	-0.485879	-0.963906	0.807364
C190	C	-0.235879	-0.713906	1.057364
C191	C	0.014121	-0.463906	1.307364
C192	C	0.264121	-0.213906	1.557364
C193	C	-0.535288	-0.918214	0.770871
C194	C	-0.285288	-0.668214	1.020871
C195	C	-0.035288	-0.418214	1.270871
C196	C	0.214712	-0.168214	1.520871
C197	C	-0.531956	-0.921302	0.697350
C198	C	-0.281956	-0.671302	0.947350
C199	C	-0.031956	-0.421302	1.197350
C200	C	0.218044	-0.171302	1.447350
C201	C	-0.501317	-0.949602	1.027278
C202	C	-0.251317	-0.699602	1.277278
C203	C	-0.001317	-0.449602	1.527278
C204	C	0.248683	-0.199602	1.777278
C205	C	-0.504647	-0.946518	1.100804
C206	C	-0.254647	-0.696518	1.350804
C207	C	-0.004647	-0.446518	1.600804
C208	C	0.245353	-0.196518	1.850804
C209	C	-0.402498	-1.040987	1.100259
C210	C	-0.152498	-0.790987	1.350259
C211	C	0.097502	-0.540987	1.600259
C212	C	0.347502	-0.290987	1.850259
C213	C	-0.399174	-1.044074	1.026737
C214	C	-0.149174	-0.794074	1.276737
C215	C	0.100826	-0.544074	1.526737
C216	C	0.350826	-0.294074	1.776737
C217	C	-0.448580	-0.998378	0.990250
C218	C	-0.198580	-0.748378	1.240250
C219	C	0.051420	-0.498378	1.490250
C220	C	0.301420	-0.248378	1.740250
N221	N	-0.489283	-0.960747	0.882516
N222	N	-0.239283	-0.710747	1.132516
N223	N	0.010717	-0.460747	1.382516
N224	N	0.260717	-0.210747	1.632516
N225	N	-0.445171	-1.001535	0.915099
N226	N	-0.195171	-0.751535	1.165099
N227	N	0.054829	-0.501535	1.415099
N228	N	0.304829	-0.251535	1.665099
H229	H	-0.952260	-1.042052	0.342319
H230	H	-0.702260	-0.792052	0.592319
H231	H	-0.452260	-0.542052	0.842319
H232	H	-0.202260	-0.292052	1.092319
F233	F	-0.992488	-0.908044	0.465809
F234	F	-0.742488	-0.658044	0.715809
F235	F	-0.492488	-0.408044	0.965809
F236	F	-0.242488	-0.158044	1.215809
F237	F	-0.568974	-0.714514	0.484836
F238	F	-0.318974	-0.464514	0.734836
F239	F	-0.068974	-0.214514	0.984836
F240	F	0.181026	0.035486	1.234836
F241	F	-0.561467	-0.563367	0.478472
F242	F	-0.311467	-0.313367	0.728472
F243	F	-0.061467	-0.063367	0.978472
F244	F	0.188533	0.186633	1.228472
H245	H	-0.356231	-1.083794	0.996590
H246	H	-0.106231	-0.833794	1.246590
H247	H	0.143769	-0.583794	1.496590
H248	H	0.393769	-0.333794	1.746590
H249	H	-0.386870	-1.055495	0.666662
H250	H	-0.136870	-0.805495	0.916662
H251	H	0.113130	-0.555495	1.166662
H252	H	0.363130	-0.305495	1.416662
H253	H	-0.587832	-0.373781	0.500887
H254	H	-0.337832	-0.123781	0.750887
H255	H	-0.087832	0.126219	1.000887
H256	H	0.162168	0.376219	1.250887
H257	H	-0.547595	-0.906796	1.130954
H258	H	-0.297595	-0.656796	1.380954
H259	H	-0.047595	-0.406796	1.630954
H260	H	0.202405	-0.156796	1.880954
H261	H	-0.581239	-0.240934	0.495289
H262	H	-0.331239	0.009066	0.745289
H263	H	-0.081239	0.259066	0.995289
H264	H	0.168761	0.509066	1.245289
H265	H	-0.380104	-0.256414	0.324285
H266	H	-0.130104	-0.006414	0.574285
H267	H	0.119896	0.243586	0.824285
H268	H	0.369896	0.493586	1.074285
H269	H	-0.578226	-0.878496	0.801029
H270	H	-0.328226	-0.628496	1.051029
H271	H	-0.078226	-0.378496	1.301029
H272	H	0.171774	-0.128496	1.551029
F273	F	-0.373285	-0.399472	0.318486
F274	F	-0.123285	-0.149472	0.568486
F275	F	0.126715	0.100528	0.818486
F276	F	0.376715	0.350528	1.068486
F277	F	-0.332621	-0.580970	0.283898
F278	F	-0.082621	-0.330970	0.533898
F279	F	0.167379	-0.080970	0.783898
F280	F	0.417379	0.169030	1.033898
F281	F	-0.340119	-0.732127	0.290264
F282	F	-0.090119	-0.482127	0.540264
F283	F	0.159881	-0.232127	0.790264
F284	F	0.409881	0.017873	1.040264
H285	H	-0.392910	-1.049888	0.800037
H286	H	-0.142910	-0.799888	1.050037
H287	H	0.107090	-0.549888	1.300037
H288	H	0.357090	-0.299888	1.550037
F289	F	-0.349919	-1.089614	1.139097
F290	F	-0.099919	-0.839614	1.389097
F291	F	0.150081	-0.589614	1.639097
F292	F	0.400081	-0.339614	1.889097
F293	F	-0.553899	-0.900968	0.988455
F294	F	-0.303899	-0.650968	1.238455
F295	F	-0.053899	-0.400968	1.488455
F296	F	0.196101	-0.150968	1.738455
F297	F	-0.584539	-0.872673	0.658517
F298	F	-0.334539	-0.622673	0.908517
F299	F	-0.084539	-0.372673	1.158517
F300	F	0.165461	-0.122673	1.408517
