data_functionalizedCrystal
_audit_creation_method	'MofGen! by Chris Wilmer'
_symmetry_space_group_name_H-M	'P1'
_symmetry_Int_Tables_number	1
_symmetry_cell_setting	triclinic
loop_
_symmetry_equiv_pos_as_xyz
  x,y,z
_cell_length_a	18.426585
_cell_length_b	14.560438
_cell_length_c	14.560438
_cell_angle_alpha	120.001303
_cell_angle_beta	89.997881
_cell_angle_gamma	59.997073
loop_
_atom_site_label
_atom_site_type_symbol
_atom_site_fract_x
_atom_site_fract_y
_atom_site_fract_z
Zr1	Zr	0.699090	1.005293	0.120496
O2	O	0.583197	1.196916	0.267158
O3	O	0.734624	0.813679	0.075533
O4	O	0.734611	1.005297	0.267144
O5	O	0.583212	1.005291	-0.075595
O6	O	0.854042	1.005291	0.267135
O7	O	0.583209	1.005297	0.075548
O8	O	0.854065	0.662520	-0.075621
O9	O	0.583189	1.348061	0.267161
O10	O	0.838901	0.892484	0.056354
O11	O	0.749773	0.892484	-0.056436
O12	O	0.749758	1.118090	0.169161
O13	O	0.660630	1.118090	0.056371
Zr14	Zr	0.889573	1.005272	-0.120573
Zr15	Zr	0.889568	1.005283	0.120482
Zr16	Zr	0.699094	1.005282	-0.120560
Zr17	Zr	0.699078	1.246353	0.120500
Zr18	Zr	0.889584	0.764213	-0.120578
O19	O	0.854039	1.196886	-0.075611
O20	O	0.854033	1.196901	0.267139
O21	O	0.583203	1.196901	-0.075591
O22	O	1.005466	0.813649	-0.267236
O23	O	1.005460	0.813664	0.075514
O24	O	0.734630	0.813664	-0.267216
O25	O	1.005450	1.005274	0.075517
O26	O	0.854051	1.005268	-0.267221
O27	O	0.734621	1.005274	-0.267213
O28	O	1.005453	1.005268	-0.075625
O29	O	0.734594	1.348053	0.267150
O30	O	0.854068	0.662512	-0.267228
O31	O	1.005473	0.662504	-0.267239
O32	O	1.005470	0.662512	-0.075632
O33	O	0.583193	1.348053	0.075554
O34	O	0.734598	1.348045	0.075543
O35	O	0.838905	0.892475	-0.169238
O36	O	0.928033	0.892475	-0.056449
O37	O	0.838890	1.118081	0.056358
O38	O	0.749762	1.118081	-0.056432
C39	C	0.794346	0.703754	-0.000044
C40	C	0.794351	0.601417	-0.000046
C41	C	0.860124	0.373918	-0.083309
C42	C	0.860145	0.470054	-0.083315
C43	C	0.728535	0.636646	0.083240
C44	C	0.728518	0.540512	0.083249
C45	C	0.556072	1.005295	-0.000022
C46	C	0.475208	1.005300	-0.000016
C47	C	0.409538	1.005304	-0.000016
C48	C	0.327156	1.005299	-0.000026
C49	C	0.261499	1.005285	-0.000040
C50	C	0.179112	1.005279	-0.000049
C51	C	1.032591	1.005270	-0.000056
C52	C	1.113454	1.005265	-0.000062
C53	C	0.794326	1.005296	0.301485
C54	C	0.794324	1.005300	0.403819
C55	C	0.794317	1.306811	-0.000033
C56	C	0.794312	1.409148	-0.000031
C57	C	0.747799	1.123058	0.606935
C58	C	0.747792	1.123063	0.510786
C59	C	0.840859	0.887523	0.393002
C60	C	0.840861	0.887519	0.489150
C61	C	0.794335	1.005276	0.698441
C62	C	0.794333	1.005290	0.596116
C63	C	1.032605	0.703741	-0.000062
C64	C	1.113473	0.601400	-0.000069
C65	C	0.794351	0.703741	-0.301568
C66	C	0.794358	0.601400	-0.403904
C67	C	1.032611	0.703728	-0.301585
C68	C	1.113481	0.601383	-0.403927
C69	C	0.556052	1.306837	0.301507
C70	C	0.475182	1.409182	0.403849
C71	C	0.556057	1.306824	-0.000016
C72	C	0.475189	1.409165	-0.000008
C73	C	0.794311	1.306824	0.301490
C74	C	0.794305	1.409165	0.403826
C75	C	1.104924	0.553345	0.058819
C76	C	1.180901	0.457199	0.058834
C77	C	1.265426	0.409103	-0.000046
C78	C	1.273974	0.457167	-0.058936
C79	C	1.197998	0.553319	-0.058944
C80	C	1.197990	0.553321	-0.393113
C81	C	1.273983	0.457170	-0.489265
C82	C	1.265465	0.409077	-0.596230
C83	C	1.180947	0.457149	-0.607042
C84	C	1.104956	0.553304	-0.510891
C85	C	0.390673	1.457256	0.393035
C86	C	0.314679	1.553436	0.489187
C87	C	0.323197	1.601535	0.596152
C88	C	0.407716	1.553457	0.606964
C89	C	0.483707	1.457285	0.510813
C90	C	0.483738	1.457230	-0.058887
C91	C	0.407762	1.553403	-0.058875
C92	C	0.323236	1.601502	0.000008
C93	C	0.314688	1.553433	0.058894
C94	C	0.390664	1.457269	0.058889
C95	C	0.840886	0.553313	-0.510864
C96	C	0.840882	0.457162	-0.607015
C97	C	0.747821	0.457190	-0.489234
C98	C	0.747820	0.553346	-0.393085
H99	H	0.913737	0.441357	-0.151127
H100	H	0.674925	0.569209	0.151071
H101	H	0.383720	1.418100	0.305948
H102	H	0.245869	1.592565	0.480362
N103	N	0.700280	0.602464	-0.283827
N104	N	0.658738	0.559543	-0.274181
H105	H	0.625161	0.594235	-0.197019
H106	H	1.342805	0.417993	-0.106874
N107	N	0.888379	0.767241	0.283731
N108	N	0.888372	0.767258	0.197893
H109	H	0.921934	0.682306	0.120719
H110	H	0.913698	0.266959	-0.151121
N111	N	0.245560	1.699775	0.694351
N112	N	0.170113	1.742677	0.684667
H113	H	0.115278	1.812059	0.754016
H114	H	0.383691	1.418137	0.106831
N115	N	0.700274	1.243349	0.521818
N116	N	0.700277	1.243342	0.435967
H117	H	0.666716	1.328298	0.443760
H118	H	1.204942	0.592464	-0.306025
H119	H	1.173924	0.418076	0.106789
H120	H	0.878754	0.791612	0.480332
N121	N	1.343021	0.310777	-0.000130
N122	N	1.335364	0.267812	0.052381
H123	H	1.390162	0.198325	0.052282
H124	H	0.878769	0.418016	-0.694104
H125	H	1.036147	0.592424	-0.519712
N126	N	0.416393	1.602614	0.716239
N127	N	0.348530	1.688477	0.802069
H128	H	0.354654	1.723195	0.879247
N129	N	1.206754	0.602384	-0.119109
N130	N	1.282233	0.559419	-0.171674
H131	H	1.288424	0.594067	-0.214168
N132	N	1.360302	0.408093	-0.478185
N133	N	1.367886	0.451040	-0.382670
H134	H	1.428847	0.416383	-0.374841
N135	N	1.018596	0.602437	0.118964
N136	N	1.010992	0.559504	0.171534
H137	H	0.950025	0.594171	0.214017
N138	N	0.245642	1.699736	0.000001
N139	N	0.253298	1.742632	-0.052580
H140	H	0.198500	1.812009	-0.052592
N141	N	1.343102	0.310857	-0.694429
N142	N	1.418550	0.267961	-0.684745
H143	H	1.473385	0.198590	-0.754094
H144	H	0.552516	1.418144	0.519632
N145	N	1.172270	0.407997	-0.716316
N146	N	1.240133	0.322135	-0.802146
H147	H	1.234008	0.287410	-0.879325
H148	H	0.674967	0.743612	0.151043
H149	H	0.709911	1.218955	0.694028
N150	N	0.570066	1.408120	-0.119049
N151	N	0.577671	1.451068	-0.171605
H152	H	0.638638	1.416394	-0.214095
H153	H	0.414739	1.592525	-0.106831
N154	N	0.228338	1.602590	0.119036
N155	N	0.160517	1.688446	0.119019
H156	H	0.099530	1.723163	0.161490
H157	H	0.878777	0.592441	-0.519679
H158	H	0.709933	0.418050	-0.480439
