data_functionalizedCrystal
_audit_creation_method	'MofGen! by Chris Wilmer'
_symmetry_space_group_name_H-M	'P1'
_symmetry_Int_Tables_number	1
_symmetry_cell_setting	triclinic
loop_
_symmetry_equiv_pos_as_xyz
  x,y,z
_cell_length_a	17.077404
_cell_length_b	15.297327
_cell_length_c	17.077396
_cell_angle_alpha	99.647268
_cell_angle_beta	89.980499
_cell_angle_gamma	99.707136
loop_
_atom_site_label
_atom_site_type_symbol
_atom_site_fract_x
_atom_site_fract_y
_atom_site_fract_z
Zn1	Zn	1.145953	-0.359161	-0.497895
Zn2	Zn	1.123133	-0.510035	-0.389335
Zn3	Zn	1.014680	-0.359192	-0.366647
Zn4	Zn	0.991934	-0.509981	-0.520550
O5	O	1.068925	-0.434592	-0.443607
O6	O	1.252771	-0.379184	-0.483507
O7	O	1.108715	-0.490061	-0.276484
O8	O	1.051163	-0.232941	-0.365082
O9	O	1.236005	-0.490030	-0.403749
O10	O	1.147608	-0.232918	-0.461508
O11	O	1.029035	-0.379238	-0.259815
O12	O	0.901817	-0.379186	-0.387050
O13	O	1.012395	-0.489939	-0.627386
O14	O	0.885105	-0.489970	-0.500121
O15	O	1.125553	-0.379132	-0.610742
O16	O	1.086659	-0.636275	-0.425717
O17	O	0.990268	-0.636236	-0.522120
C18	C	0.864979	-0.434576	-0.443583
C19	C	0.777727	-0.434591	-0.443594
C20	C	0.728043	-0.492363	-0.502403
C21	C	0.646062	-0.492365	-0.502416
C22	C	0.613767	-0.434599	-0.443616
C23	C	0.663458	-0.376820	-0.384804
C24	C	0.745438	-0.376814	-0.384795
C25	C	0.492585	-0.376838	-0.384825
C26	C	0.410599	-0.376844	-0.384833
C27	C	0.393210	-0.492389	-0.502446
C28	C	0.475189	-0.492383	-0.502438
C29	C	0.524875	-0.434605	-0.443624
C30	C	1.033541	-0.668990	-0.478856
C31	C	1.018475	-0.769266	-0.493962
C32	C	1.176925	-1.051885	-0.335910
C33	C	1.191079	-0.957670	-0.321713
C34	C	1.147930	-0.910565	-0.364774
C35	C	1.090623	-0.957683	-0.422034
C36	C	1.076462	-1.051907	-0.436228
C37	C	1.047467	-0.910586	-0.465092
C38	C	0.990160	-0.957705	-0.522352
C39	C	0.976003	-1.051919	-0.536544
C40	C	1.019152	-1.099025	-0.493483
C41	C	1.061628	-0.816363	-0.450898
C42	C	0.961165	-0.816384	-0.551217
C43	C	0.947010	-0.910599	-0.565413
C44	C	1.273666	-0.434609	-0.443632
C45	C	1.360915	-0.434617	-0.443642
C46	C	1.068982	-0.434526	-0.648341
C47	C	1.069007	-0.434498	-0.735587
C48	C	1.104468	-0.199279	-0.408237
C49	C	1.119615	-0.099003	-0.393165
C50	C	1.127930	-0.376795	-0.767910
C51	C	1.127944	-0.376765	-0.849886
C52	C	1.069037	-0.434443	-0.899538
C53	C	1.010108	-0.492147	-0.867209
C54	C	1.010091	-0.492172	-0.785234
C55	C	1.010148	-0.492093	-1.038071
C56	C	1.010165	-0.492070	-1.120052
C57	C	1.128000	-0.376686	-1.102724
C58	C	1.127984	-0.376711	-1.020748
C59	C	1.069055	-0.434417	-0.988425
C60	C	1.068922	-0.434593	-0.239659
C61	C	1.069088	-0.434368	-0.152376
H62	H	0.637157	-0.329781	-0.336930
H63	H	0.785891	-0.329765	-0.336910
H64	H	0.533038	-0.329781	-0.336939
H65	H	1.237738	-0.919310	-0.275092
O66	O	0.919365	-0.770596	-0.593130
C67	C	0.972233	-0.716000	-0.635632
H68	H	1.029796	-0.744335	-0.644806
H69	H	0.985682	-0.644610	-0.600610
C70	C	0.863360	-0.679722	-0.705712
C71	C	0.934057	-0.714528	-0.716984
H72	H	0.839811	-0.678810	-0.755892
H73	H	0.827741	-0.716502	-0.677075
H74	H	0.874577	-0.620234	-0.676524
H75	H	0.922838	-0.774019	-0.746163
H76	H	0.969673	-0.677759	-0.745628
H77	H	1.007633	-1.175742	-0.505041
H78	H	0.962142	-0.539106	-0.907641
O79	O	0.597906	-0.548581	-0.559573
C80	C	0.643991	-0.599558	-0.611474
H81	H	0.701954	-0.602618	-0.579773
H82	H	0.657704	-0.566623	-0.666192
C83	C	0.526320	-0.691842	-0.676013
C84	C	0.597508	-0.695607	-0.637074
H85	H	0.497646	-0.751088	-0.691808
H86	H	0.495271	-0.657496	-0.641049
H87	H	0.537757	-0.664392	-0.721606
H88	H	0.586069	-0.723046	-0.591477
H89	H	0.628554	-0.729960	-0.672032
H90	H	0.962103	-0.539150	-0.758916
H91	H	0.754331	-0.539406	-0.550283
O92	O	0.379161	-0.320840	-0.327677
C93	C	0.323949	-0.372103	-0.284626
H94	H	0.337935	-0.443143	-0.290309
H95	H	0.261362	-0.375275	-0.309400
C96	C	0.312116	-0.240602	-0.189474
C97	C	0.329297	-0.327852	-0.196449
H98	H	0.315411	-0.213305	-0.135083
H99	H	0.349311	-0.206064	-0.218480
H100	H	0.259961	-0.243257	-0.210124
H101	H	0.381454	-0.325195	-0.175808
H102	H	0.292110	-0.362389	-0.167437
H103	H	1.108287	-0.778007	-0.404277
H104	H	1.175955	-0.329750	-0.980324
O105	O	0.952863	-0.548121	-1.168167
C106	C	0.900854	-0.599070	-1.122064
H107	H	0.903704	-0.562137	-1.058074
H108	H	0.919240	-0.667597	-1.123649
C109	C	0.811856	-0.657407	-1.234594
C110	C	0.815351	-0.612041	-1.156002
H111	H	0.759114	-0.665412	-1.255530
H112	H	0.846896	-0.623084	-1.265656
H113	H	0.827182	-0.714508	-1.235905
H114	H	0.800035	-0.554937	-1.154693
H115	H	0.780307	-0.646354	-1.124940
O116	O	1.161679	-0.819046	-0.350842
C117	C	1.146259	-0.787644	-0.270868
H118	H	1.151526	-0.841963	-0.233848
H119	H	1.083632	-0.770984	-0.266640
C120	C	1.200429	-0.635753	-0.284695
C121	C	1.206905	-0.702467	-0.239225
H122	H	1.237835	-0.583210	-0.265177
H123	H	1.210815	-0.656908	-0.338577
H124	H	1.148237	-0.621881	-0.281168
H125	H	1.259092	-0.716346	-0.242761
H126	H	1.196528	-0.681312	-0.185344
H127	H	1.212046	-1.090247	-0.300851
H128	H	1.175981	-0.329698	-1.129045
O129	O	0.891247	-0.956274	-0.620978
C130	C	0.816461	-0.933360	-0.600290
H131	H	0.825123	-0.864975	-0.559813
H132	H	0.782070	-0.986444	-0.567905
C133	C	0.758889	-1.012991	-0.725832
C134	C	0.769527	-0.928996	-0.676123
H135	H	0.729936	-1.010303	-0.772608
H136	H	0.809273	-1.028432	-0.739769
H137	H	0.730232	-1.057219	-0.698835
H138	H	0.798192	-0.884772	-0.703116
H139	H	0.719147	-0.913548	-0.662192
O140	O	1.185192	-0.320682	-0.719791
C141	C	1.237212	-0.269761	-0.765906
H142	H	1.205542	-0.266619	-0.823865
H143	H	1.291840	-0.302800	-0.779602
C144	C	1.301919	-0.177613	-0.648300
C145	C	1.263020	-0.173747	-0.719483
H146	H	1.317842	-0.118388	-0.619664
H147	H	1.266874	-0.211921	-0.617231
H148	H	1.347438	-0.205149	-0.659723
H149	H	1.217497	-0.146221	-0.708058
H150	H	1.298057	-0.139432	-0.750549
O151	O	0.920421	-1.097648	-0.592268
C152	C	0.940994	-1.074532	-0.667036
H153	H	1.007604	-1.048572	-0.667144
H154	H	0.907114	-1.019865	-0.679281
C155	C	0.837445	-1.190083	-0.731886
C156	C	0.919257	-1.158204	-0.732022
H157	H	0.824034	-1.241693	-0.771974
H158	H	0.823582	-1.205654	-0.681514
H159	H	0.809222	-1.144518	-0.742089
H160	H	0.947479	-1.203764	-0.721810
H161	H	0.933125	-1.142642	-0.782394
H162	H	1.175927	-0.329781	-0.876200
H163	H	0.962151	-0.539070	-1.011755
H164	H	0.352752	-0.539431	-0.550336
H165	H	0.501481	-0.539426	-0.550314
