data_functionalizedCrystal
_audit_creation_method	'MofGen! by Chris Wilmer'
_symmetry_space_group_name_H-M	'P1'
_symmetry_Int_Tables_number	1
_symmetry_cell_setting	triclinic
loop_
_symmetry_equiv_pos_as_xyz
  x,y,z
_cell_length_a	11.169417
_cell_length_b	11.169416
_cell_length_c	11.169409
_cell_angle_alpha	90.027704
_cell_angle_beta	90.021683
_cell_angle_gamma	90.011020
loop_
_atom_site_label
_atom_site_type_symbol
_atom_site_fract_x
_atom_site_fract_y
_atom_site_fract_z
Zn1	Zn	-1.834948	0.477744	-0.678641
Zn2	Zn	-1.334948	0.977744	-0.178641
Zn3	Zn	-1.834831	0.678484	-0.477974
Zn4	Zn	-1.334831	1.178484	0.022026
Zn5	Zn	-1.634234	0.477810	-0.477969
Zn6	Zn	-1.134234	0.977810	0.022031
Zn7	Zn	-1.634235	0.678380	-0.678612
Zn8	Zn	-1.134235	1.178380	-0.178612
O9	O	-1.734562	0.578105	-0.578299
O10	O	-1.234562	1.078105	-0.078299
O11	O	-2.002882	0.504389	-0.652036
O12	O	-1.502882	1.004389	-0.152036
O13	O	-1.808172	0.651936	-0.310023
O14	O	-1.308172	1.151936	0.189977
O15	O	-1.660907	0.309852	-0.504598
O16	O	-1.160907	0.809852	-0.004598
O17	O	-2.002796	0.651872	-0.504607
O18	O	-1.502796	1.151872	-0.004607
O19	O	-1.808371	0.309803	-0.652031
O20	O	-1.308371	0.809803	-0.152031
O21	O	-1.660794	0.504502	-0.310020
O22	O	-1.160794	1.004502	0.189980
O23	O	-1.466284	0.504400	-0.504570
O24	O	-0.966284	1.004400	-0.004570
O25	O	-1.660910	0.651694	-0.846566
O26	O	-1.160910	1.151694	-0.346566
O27	O	-1.466285	0.651758	-0.651982
O28	O	-0.966285	1.151758	-0.151982
O29	O	-1.808372	0.504287	-0.846587
O30	O	-1.308372	1.004287	-0.346587
O31	O	-1.808173	0.846420	-0.504579
O32	O	-1.308173	1.346420	-0.004579
O33	O	-1.660796	0.846344	-0.651988
O34	O	-1.160796	1.346344	-0.151988
C35	C	-1.422737	0.578076	-0.578273
C36	C	-0.922737	1.078076	-0.078273
C37	C	-1.289337	0.578092	-0.578291
C38	C	-0.789337	1.078092	-0.078291
C39	C	-1.734505	0.889929	-0.578307
C40	C	-1.234505	1.389929	-0.078307
C41	C	-1.734590	1.023329	-0.578351
C42	C	-1.234590	1.523329	-0.078351
C43	C	-1.047604	0.578124	-0.578316
C44	C	-0.547604	1.078124	-0.078316
C45	C	-1.181004	0.578107	-0.578299
C46	C	-0.681004	1.078107	-0.078299
C47	C	-1.734654	0.577971	-0.891342
C48	C	-1.234654	1.077971	-0.391342
C49	C	-1.734693	0.577915	-1.024742
C50	C	-1.234693	1.077915	-0.524742
C51	C	-1.734643	1.265062	-0.578333
C52	C	-1.234643	1.765062	-0.078333
C53	C	-1.734657	1.131662	-0.578389
C54	C	-1.234657	1.631662	-0.078389
C55	C	-1.734539	0.578151	-0.266474
C56	C	-1.234539	1.078151	0.233526
C57	C	-1.734732	0.577869	-0.133075
C58	C	-1.234732	1.077869	0.366925
