data_functionalizedCrystal
_audit_creation_method	'MofGen! by Chris Wilmer'
_symmetry_space_group_name_H-M	'P1'
_symmetry_Int_Tables_number	1
_symmetry_cell_setting	triclinic
loop_
_symmetry_equiv_pos_as_xyz
  x,y,z
_cell_length_a	17.077404
_cell_length_b	19.805405
_cell_length_c	17.077395
_cell_angle_alpha	89.972297
_cell_angle_beta	89.984359
_cell_angle_gamma	90.026951
loop_
_atom_site_label
_atom_site_type_symbol
_atom_site_fract_x
_atom_site_fract_y
_atom_site_fract_z
Zn1	Zn	1.200004	-0.269468	-0.443840
Zn2	Zn	1.199911	-0.382658	-0.312573
Zn3	Zn	1.068744	-0.269489	-0.312588
Zn4	Zn	1.068695	-0.382620	-0.443797
O5	O	1.134338	-0.326059	-0.378199
O6	O	1.309838	-0.284489	-0.426439
O7	O	1.182493	-0.367671	-0.202728
O8	O	1.086216	-0.174769	-0.330023
O9	O	1.309770	-0.367650	-0.329998
O10	O	1.182652	-0.174754	-0.426454
O11	O	1.086126	-0.284526	-0.202739
O12	O	0.958891	-0.284489	-0.329981
O13	O	1.086131	-0.367586	-0.553649
O14	O	0.958854	-0.367606	-0.426380
O15	O	1.182603	-0.284453	-0.553681
O16	O	1.182445	-0.477370	-0.329956
O17	O	1.086041	-0.477342	-0.426365
C18	C	0.930391	-0.326046	-0.378178
C19	C	0.843141	-0.326057	-0.378187
C20	C	1.134249	-0.501915	-0.378171
C21	C	1.134283	-0.577147	-0.378185
C22	C	0.802152	-0.369402	-0.428301
C23	C	0.720172	-0.369403	-0.428314
C24	C	0.679181	-0.326063	-0.378208
C25	C	0.720176	-0.282714	-0.328091
C26	C	0.802155	-0.282710	-0.328083
C27	C	0.549306	-0.282727	-0.328110
C28	C	0.467321	-0.282732	-0.328117
C29	C	0.467323	-0.369421	-0.428341
C30	C	0.549302	-0.369417	-0.428333
C31	C	0.590290	-0.326068	-0.378215
C32	C	1.184467	-0.612425	-0.428436
C33	C	1.184495	-0.683113	-0.428450
C34	C	1.134343	-0.718522	-0.378210
C35	C	1.084153	-0.683240	-0.327957
C36	C	1.084121	-0.612552	-0.327947
C37	C	1.084279	-0.968313	-0.327997
C38	C	1.084316	-1.039005	-0.328009
C39	C	1.184653	-1.038873	-0.428501
C40	C	1.184621	-0.968186	-0.428491
C41	C	1.134429	-0.932910	-0.378241
C42	C	1.134398	-0.856261	-0.378227
C43	C	1.134377	-0.795169	-0.378219
C44	C	1.339083	-0.326071	-0.378222
C45	C	1.426333	-0.326077	-0.378231
C46	C	1.134372	-0.326013	-0.582944
C47	C	1.134387	-0.325993	-0.670194
C48	C	1.134450	-0.149516	-0.378245
C49	C	1.134497	-0.074284	-0.378265
C50	C	1.184707	-0.282614	-1.046026
C51	C	1.184691	-0.282638	-0.964046
C52	C	1.134451	-0.325929	-0.923043
C53	C	1.084230	-0.369204	-0.964024
C54	C	1.084251	-0.369184	-1.046003
C55	C	1.084190	-0.369244	-0.793154
C56	C	1.084168	-0.369264	-0.711170
C57	C	1.184629	-0.282698	-0.711196
C58	C	1.184650	-0.282677	-0.793175
C59	C	1.134428	-0.325952	-0.834152
C60	C	1.134350	-0.326056	-0.174252
C61	C	1.134488	-0.325885	-0.087002
H62	H	0.835521	-0.404697	-0.469101
C63	C	1.029032	-0.722192	-0.272644
N64	N	0.987533	-0.751531	-0.230962
H65	H	0.686795	-0.247423	-0.287297
C66	C	1.028940	-0.416847	-0.838226
N67	N	0.987324	-0.452698	-0.872174
C68	C	1.239928	-0.235030	-0.918976
N69	N	1.281534	-0.199169	-0.885030
C70	C	1.239879	-0.235099	-0.666121
N71	N	1.281491	-0.199248	-0.632167
H72	H	1.043472	-1.067833	-0.287096
C73	C	1.239975	-0.234989	-1.091122
N74	N	1.281608	-0.199119	-1.125086
C75	C	0.847242	-0.235029	-0.272952
N76	N	0.881200	-0.199113	-0.231427
C77	C	1.029048	-0.929518	-0.272739
N78	N	0.987438	-0.900295	-0.231122
C79	C	1.028913	-0.416896	-0.666068
N80	N	0.987298	-0.452777	-0.632097
H81	H	1.225366	-0.711833	-0.469363
H82	H	1.043255	-0.583830	-0.287029
H83	H	1.225556	-0.247422	-0.826558
H84	H	1.043328	-0.404456	-0.930633
H85	H	0.686802	-0.404699	-0.469121
C86	C	0.594390	-0.417097	-0.483448
N87	N	0.628350	-0.453009	-0.524962
H88	H	1.043358	-0.404420	-1.079365
H89	H	0.433946	-0.404715	-0.469150
C90	C	0.422233	-0.235054	-0.273001
N91	N	0.388273	-0.199141	-0.231487
H92	H	0.582676	-0.247422	-0.287306
H93	H	1.225463	-0.939358	-0.469398
H94	H	1.225310	-0.583599	-0.469344
H95	H	1.225520	-1.067604	-0.469419
