data_functionalizedCrystal
_audit_creation_method	'MofGen! by Chris Wilmer'
_symmetry_space_group_name_H-M	'P1'
_symmetry_Int_Tables_number	1
_symmetry_cell_setting	triclinic
loop_
_symmetry_equiv_pos_as_xyz
  x,y,z
_cell_length_a	16.120484
_cell_length_b	19.077241
_cell_length_c	19.076919
_cell_angle_alpha	90.113904
_cell_angle_beta	95.046610
_cell_angle_gamma	84.670961
loop_
_atom_site_label
_atom_site_type_symbol
_atom_site_fract_x
_atom_site_fract_y
_atom_site_fract_z
Zn1	Zn	-0.303890	-1.044776	-0.453016
Zn2	Zn	0.196110	-0.544776	0.046984
Zn3	Zn	-0.438041	-1.043450	-0.341006
Zn4	Zn	0.061959	-0.543450	0.158994
Zn5	Zn	-0.303449	-0.932011	-0.330776
Zn6	Zn	0.196551	-0.432011	0.169224
Zn7	Zn	-0.449207	-0.920773	-0.454199
Zn8	Zn	0.050793	-0.420773	0.045801
O9	O	-0.373647	-0.985252	-0.394750
O10	O	0.126353	-0.485252	0.105250
O11	O	-0.317197	-1.143133	-0.441944
O12	O	0.182803	-0.643133	0.058056
O13	O	-0.415330	-1.032816	-0.241120
O14	O	0.084670	-0.532816	0.258880
O15	O	-0.186365	-0.952228	-0.342215
O16	O	0.313635	-0.452228	0.157785
O17	O	-0.415758	-1.142159	-0.359651
O18	O	0.084242	-0.642159	0.140349
O19	O	-0.186689	-1.035076	-0.432024
O20	O	0.313311	-0.535076	0.067976
O21	O	-0.316446	-0.950942	-0.233603
O22	O	0.183554	-0.450942	0.266397
O23	O	-0.327272	-0.831987	-0.343362
O24	O	0.172728	-0.331987	0.156638
O25	O	-0.434788	-0.933074	-0.552572
O26	O	0.065212	-0.433074	-0.052572
O27	O	-0.434360	-0.823730	-0.434041
O28	O	0.065640	-0.323730	0.065959
O29	O	-0.328024	-1.024178	-0.551703
O30	O	0.171976	-0.524178	-0.051703
O31	O	-0.556666	-1.021918	-0.360798
O32	O	-0.056666	-0.521918	0.139202
O33	O	-0.564869	-0.931788	-0.443961
O34	O	-0.064869	-0.431788	0.056039
C35	C	-0.381981	-0.802310	-0.387720
C36	C	0.118019	-0.302310	0.112280
C37	C	-0.385567	-0.724045	-0.384730
C38	C	0.114433	-0.224045	0.115270
C39	C	-0.336025	-0.687777	-0.426243
C40	C	0.163975	-0.187777	0.073757
C41	C	-0.339390	-0.614239	-0.423428
C42	C	0.160610	-0.114239	0.076572
C43	C	-0.392302	-0.576970	-0.379102
C44	C	0.107698	-0.076970	0.120898
C45	C	-0.441846	-0.613243	-0.337584
C46	C	0.058154	-0.113243	0.162416
C47	C	-0.438476	-0.686780	-0.340397
C48	C	0.061524	-0.186780	0.159603
C49	C	-0.407871	-0.356984	-0.366086
C50	C	0.092129	0.143016	0.133914
C51	C	-0.411239	-0.283442	-0.363278
C52	C	0.088761	0.216558	0.136722
C53	C	-0.308781	-0.284443	-0.449121
C54	C	0.191219	0.215557	0.050879
C55	C	-0.305420	-0.357981	-0.451933
C56	C	0.194580	0.142019	0.048067
C57	C	-0.354960	-0.394248	-0.410412
C58	C	0.145040	0.105752	0.089588
N59	N	-0.395745	-0.501802	-0.376225
N60	N	0.104255	-0.001802	0.123775
N61	N	-0.351512	-0.469415	-0.413286
N62	N	0.148488	0.030585	0.086714
C63	C	-0.591141	-0.975508	-0.403634
C64	C	-0.091141	-0.475508	0.096366
C65	C	-0.684184	-0.971403	-0.407461
C66	C	-0.184184	-0.471403	0.092539
C67	C	-0.854535	-0.963911	-0.414462
C68	C	-0.354535	-0.463911	0.085538
C69	C	-0.891913	-1.006719	-0.375053
C70	C	-0.391913	-0.506719	0.124947
C71	C	-0.986702	-1.002551	-0.378949
C72	C	-0.486702	-0.502551	0.121051
C73	C	-0.759737	-0.968079	-0.410568
C74	C	-0.259737	-0.468079	0.089432
C75	C	-0.155304	-0.995053	-0.385846
C76	C	0.344696	-0.495053	0.114154
C77	C	-0.062259	-0.999230	-0.382052
C78	C	0.437741	-0.499230	0.117948
C79	C	-0.382701	-0.977520	-0.578400
C80	C	0.117299	-0.477520	-0.078400
C81	C	-0.386559	-0.974225	-0.656660
C82	C	0.113441	-0.474225	-0.156660
C83	C	-0.365276	-0.168909	-0.401801
C84	C	0.134724	0.331091	0.098199
C85	C	-0.361697	-0.247174	-0.404792
C86	C	0.138303	0.252826	0.095208
C87	C	-0.332788	-1.020108	-0.692976
C88	C	0.167212	-0.520108	-0.192976
C89	C	-0.336410	-1.017004	-0.766510
C90	C	0.163590	-0.517004	-0.266510
C91	C	-0.393808	-0.968019	-0.803727
C92	C	0.106192	-0.468019	-0.303727
C93	C	-0.447581	-0.922131	-0.767406
C94	C	0.052419	-0.422131	-0.267406
C95	C	-0.443954	-0.925233	-0.693873
C96	C	0.056046	-0.425233	-0.193873
C97	C	-0.410612	-0.953654	-1.023695
C98	C	0.089388	-0.453654	-0.523695
C99	C	-0.414237	-0.950557	-1.097233
C100	C	0.085763	-0.450557	-0.597233
C101	C	-0.303064	-1.045428	-1.096331
C102	C	0.196936	-0.545428	-0.596331
C103	C	-0.299446	-1.048529	-1.022797
C104	C	0.200554	-0.548529	-0.522797
C105	C	-0.353216	-1.002638	-0.986483
C106	C	0.146784	-0.502638	-0.486483
N107	N	-0.397514	-0.964846	-0.878890
N108	N	0.102486	-0.464846	-0.378890
N109	N	-0.349505	-1.005808	-0.911320
N110	N	0.150495	-0.505808	-0.411320
C111	C	-0.364566	-0.992998	-0.211813
C112	C	0.135434	-0.492998	0.288187
C113	C	-0.360466	-0.996440	-0.133548
C114	C	0.139534	-0.496440	0.366452
H115	H	-0.292940	-0.718116	-0.462340
H116	H	0.207060	-0.218116	0.037660
O117	O	-0.906440	-0.911219	-0.463024
O118	O	-0.406440	-0.411219	0.036976
H119	H	-0.864438	-0.880501	-0.491298
H120	H	-0.364438	-0.380501	0.008702
H121	H	-0.299049	-0.584713	-0.457234
H122	H	0.200951	-0.084713	0.042766
H123	H	-0.478818	-0.716309	-0.306592
H124	H	0.021182	-0.216309	0.193408
O125	O	-0.509486	-0.869296	-0.807548
O126	O	-0.009486	-0.369296	-0.307548
H127	H	-0.546261	-0.837906	-0.769938
H128	H	-0.046261	-0.337906	-0.269938
O129	O	-0.237537	-1.101366	-0.982662
O130	O	0.262463	-0.601366	-0.482662
H131	H	-0.194732	-1.073180	-0.946205
H132	H	0.305268	-0.573180	-0.446205
H133	H	-0.448211	-0.386504	-0.332278
H134	H	0.051789	0.113496	0.167722
O135	O	-0.468302	-0.243244	-0.315458
O136	O	0.031698	0.256756	0.184542
H137	H	-0.514043	-0.206520	-0.347372
H138	H	-0.014043	0.293480	0.152628
O139	O	-0.255347	-0.245323	-0.493896
O140	O	0.244653	0.254677	0.006104
H141	H	-0.217992	-0.283593	-0.525193
H142	H	0.282008	0.216407	-0.025193
O143	O	-0.270880	-1.072942	-0.652835
O144	O	0.229120	-0.572942	-0.152835
H145	H	-0.234093	-1.104320	-0.690444
H146	H	0.265907	-0.604320	-0.190444
H147	H	-0.852725	-1.046498	-0.338387
H148	H	-0.352725	-0.546498	0.161613
H149	H	-0.487732	-0.887863	-0.664305
H150	H	0.012268	-0.387863	-0.164305
H151	H	-0.262336	-0.388321	-0.488030
H152	H	0.237664	0.111679	0.011970
O153	O	-0.498912	-0.573051	-0.289770
O154	O	0.001088	-0.073051	0.210230
H155	H	-0.544653	-0.536326	-0.321684
H156	H	-0.044653	-0.036326	0.178316
O157	O	-0.468584	-0.904123	-0.984550
O158	O	0.031416	-0.404123	-0.484550
H159	H	-0.534440	-0.912630	-1.001796
H160	H	-0.034440	-0.412630	-0.501796
O161	O	-0.278420	-1.066495	-0.805682
O162	O	0.221580	-0.566495	-0.305682
H163	H	-0.237907	-1.101085	-0.767450
H164	H	0.262093	-0.601085	-0.267450
H165	H	-0.259286	-1.082789	-1.125907
H166	H	0.240714	-0.582789	-0.625907
O167	O	-0.476142	-0.897717	-1.137378
O168	O	0.023858	-0.397717	-0.637378
H169	H	-0.512917	-0.866322	-1.099773
H170	H	-0.012917	-0.366322	-0.599773
