data_functionalizedCrystal
_audit_creation_method	'MofGen! by Chris Wilmer'
_symmetry_space_group_name_H-M	'P1'
_symmetry_Int_Tables_number	1
_symmetry_cell_setting	triclinic
loop_
_symmetry_equiv_pos_as_xyz
  x,y,z
_cell_length_a	12.759401
_cell_length_b	16.625545
_cell_length_c	12.759393
_cell_angle_alpha	90.033904
_cell_angle_beta	90.018496
_cell_angle_gamma	90.025719
loop_
_atom_site_label
_atom_site_type_symbol
_atom_site_fract_x
_atom_site_fract_y
_atom_site_fract_z
Zn1	Zn	1.606176	-0.320951	0.593964
Zn2	Zn	2.106176	0.179049	1.093964
Zn3	Zn	1.606037	-0.455807	0.418277
Zn4	Zn	2.106037	0.044193	0.918277
Zn5	Zn	1.430478	-0.320993	0.418304
Zn6	Zn	1.930478	0.179007	0.918304
Zn7	Zn	1.430433	-0.455745	0.593919
Zn8	Zn	1.930433	0.044255	1.093919
O9	O	1.518281	-0.388374	0.506116
O10	O	2.018281	0.111626	1.006116
O11	O	1.753179	-0.338848	0.570667
O12	O	2.253179	0.161152	1.070667
O13	O	1.582709	-0.437968	0.271260
O14	O	2.082709	0.062032	0.771260
O15	O	1.453862	-0.208155	0.441636
O16	O	1.953862	0.291845	0.941636
O17	O	1.753077	-0.437927	0.441590
O18	O	2.253077	0.062073	0.941590
O19	O	1.582946	-0.208124	0.570693
O20	O	2.082946	0.291876	1.070693
O21	O	1.453727	-0.338920	0.271279
O22	O	1.953727	0.161080	0.771279
O23	O	1.283451	-0.338860	0.441591
O24	O	1.783451	0.161140	0.941591
O25	O	1.453786	-0.437821	0.740946
O26	O	1.953786	0.062179	1.240946
O27	O	1.283418	-0.437862	0.570615
O28	O	1.783418	0.062138	1.070615
O29	O	1.582903	-0.338788	0.740979
O30	O	2.082903	0.161212	1.240979
O31	O	1.582666	-0.568632	0.441546
O32	O	2.082666	-0.068632	0.941546
O33	O	1.453651	-0.568586	0.570589
O34	O	1.953651	-0.068586	1.070589
C35	C	1.245314	-0.388359	0.506102
C36	C	1.745314	0.111641	1.006102
C37	C	1.128537	-0.388372	0.506120
C38	C	1.628537	0.111628	1.006120
C39	C	1.073686	-0.440005	0.573192
C40	C	1.573686	0.059995	1.073192
C41	C	0.963962	-0.440015	0.573203
C42	C	1.463962	0.059985	1.073203
C43	C	0.963950	-0.336758	0.439063
C44	C	1.463950	0.163242	0.939063
C45	C	1.073672	-0.336744	0.439058
C46	C	1.573672	0.163256	0.939058
C47	C	1.073691	-0.499623	0.650634
C48	C	1.573691	0.000377	1.150634
C49	C	0.963967	-0.499633	0.650645
C50	C	1.463967	0.000367	1.150645
C51	C	1.518167	-0.597865	0.506083
C52	C	2.018167	-0.097865	1.006083
C53	C	1.518214	-0.687486	0.506104
C54	C	2.018214	-0.187486	1.006104
C55	C	1.518255	-0.760268	0.506125
C56	C	2.018255	-0.260268	1.006125
C57	C	1.518316	-0.851577	0.506148
C58	C	2.018316	-0.351577	1.006148
C59	C	1.518371	-0.924353	0.506161
C60	C	2.018371	-0.424353	1.006161
C61	C	1.518431	-1.015668	0.506183
C62	C	2.018431	-0.515668	1.006183
C63	C	1.792314	-0.388390	0.506131
C64	C	2.292314	0.111610	1.006131
C65	C	1.909091	-0.388396	0.506137
C66	C	2.409091	0.111604	1.006137
C67	C	1.518355	-0.388293	0.780149
C68	C	2.018355	0.111707	1.280149
C69	C	1.518386	-0.388258	0.896926
C70	C	2.018386	0.111742	1.396926
C71	C	1.518424	-0.178065	0.506172
C72	C	2.018424	0.321935	1.006172
C73	C	1.518485	-0.088444	0.506196
C74	C	2.018485	0.411556	1.006196
C75	C	1.518268	-0.388397	0.233149
C76	C	2.018268	0.111603	0.733149
C77	C	1.518441	-0.388204	0.116372
C78	C	2.018441	0.111796	0.616372
C79	C	1.585627	-0.336687	0.951807
C80	C	2.085627	0.163313	1.451807
C81	C	1.585652	-0.336657	1.061531
C82	C	2.085652	0.163343	1.561531
C83	C	1.451192	-0.439778	1.061484
C84	C	1.951192	0.060222	1.561484
C85	C	1.451163	-0.439803	0.951761
C86	C	1.951163	0.060197	1.451761
C87	C	1.663259	-0.277153	0.951836
C88	C	2.163259	0.222847	1.451836
C89	C	1.663284	-0.277124	1.061560
C90	C	2.163284	0.222876	1.561560
H91	H	1.107691	-0.558911	0.621346
H92	H	1.607691	-0.058911	1.121346
Br93	Br	1.792039	-0.314461	0.895094
Br94	Br	2.292039	0.185539	1.395094
Br95	Br	0.914270	-0.603679	0.614049
Br96	Br	1.414270	-0.103679	1.114049
H97	H	1.396460	-0.481742	1.106144
H98	H	1.896460	0.018258	1.606144
Br99	Br	1.359883	-0.509779	0.877282
Br100	Br	1.859883	-0.009779	1.377282
H101	H	1.641506	-0.214709	0.922083
H102	H	2.141506	0.285291	1.422083
H103	H	1.744651	-0.293849	1.091337
H104	H	2.244651	0.206151	1.591337
Br105	Br	1.148112	-0.266650	0.348052
Br106	Br	1.648112	0.233350	0.848052
Br107	Br	0.889485	-0.266691	0.348057
Br108	Br	1.389485	0.233309	0.848057
H109	H	1.634185	-0.217793	1.095611
H110	H	2.134185	0.282207	1.595611
H111	H	1.103503	-0.482970	0.732041
H112	H	1.603503	0.017030	1.232041
Br113	Br	0.907299	-0.462480	0.779565
Br114	Br	1.407299	0.037520	1.279565
