data_functionalizedCrystal
_audit_creation_method	'MofGen! by Chris Wilmer'
_symmetry_space_group_name_H-M	'P1'
_symmetry_Int_Tables_number	1
_symmetry_cell_setting	triclinic
loop_
_symmetry_equiv_pos_as_xyz
  x,y,z
_cell_length_a	21.295418
_cell_length_b	21.295418
_cell_length_c	18.050582
_cell_angle_alpha	89.965893
_cell_angle_beta	89.974933
_cell_angle_gamma	90.043213
loop_
_atom_site_label
_atom_site_type_symbol
_atom_site_fract_x
_atom_site_fract_y
_atom_site_fract_z
Zn1	Zn	-0.250383	0.962310	-0.420280
Zn2	Zn	0.249617	1.462310	0.079720
Zn3	Zn	-0.355645	0.962235	-0.296085
Zn4	Zn	0.144355	1.462235	0.203915
Zn5	Zn	-0.250422	0.857050	-0.296062
Zn6	Zn	0.249578	1.357050	0.203938
Zn7	Zn	-0.355648	0.857008	-0.420191
Zn8	Zn	0.144352	1.357008	0.079809
O9	O	-0.303025	0.909651	-0.358155
O10	O	0.196975	1.409651	0.141845
O11	O	-0.264329	1.050389	-0.403851
O12	O	0.235671	1.550389	0.096149
O13	O	-0.341702	0.948269	-0.192157
O14	O	0.158298	1.448269	0.307843
O15	O	-0.162328	0.871062	-0.312568
O16	O	0.337672	1.371062	0.187432
O17	O	-0.341664	1.050335	-0.312606
O18	O	0.158336	1.550335	0.187394
O19	O	-0.162299	0.948396	-0.403830
O20	O	0.337701	1.448396	0.096170
O21	O	-0.264395	0.870990	-0.192141
O22	O	0.235605	1.370990	0.307859
O23	O	-0.264398	0.768955	-0.312482
O24	O	0.235602	1.268955	0.187518
O25	O	-0.341669	0.870990	-0.524128
O26	O	0.158331	1.370990	-0.024128
O27	O	-0.341707	0.768924	-0.403679
O28	O	0.158293	1.268924	0.096321
O29	O	-0.264332	0.948354	-0.524193
O30	O	0.235668	1.448354	-0.024193
O31	O	-0.443735	0.948228	-0.312520
O32	O	0.056265	1.448228	0.187480
O33	O	-0.443737	0.870918	-0.403701
O34	O	0.056263	1.370918	0.096299
C35	C	-0.466576	0.909577	-0.358119
C36	C	0.033424	1.409577	0.141881
C37	C	-0.536544	0.909603	-0.358129
C38	C	-0.036544	1.409603	0.141871
C39	C	-0.303058	0.746099	-0.358069
C40	C	0.196942	1.246099	0.141931
C41	C	-0.303087	0.676131	-0.358050
C42	C	0.196913	1.176131	0.141950
C43	C	-1.035980	0.950057	-0.310797
C44	C	-0.535980	1.450057	0.189203
C45	C	-0.970238	0.950033	-0.310779
C46	C	-0.470238	1.450033	0.189221
C47	C	-0.937384	0.909739	-0.358207
C48	C	-0.437384	1.409739	0.141793
C49	C	-0.970278	0.869455	-0.405642
C50	C	-0.470278	1.369455	0.094358
C51	C	-1.036019	0.869476	-0.405653
C52	C	-0.536019	1.369476	0.094347
N53	N	-0.834137	0.904841	-0.423190
N54	N	-0.334137	1.404841	0.076810
N55	N	-0.771686	0.904825	-0.423177
N56	N	-0.271686	1.404825	0.076823
C57	C	-0.739309	0.909674	-0.358175
C58	C	-0.239309	1.409674	0.141825
N59	N	-0.771743	0.914551	-0.293185
N60	N	-0.271743	1.414551	0.206815
N61	N	-0.834200	0.914570	-0.293199
N62	N	-0.334200	1.414570	0.206801
C63	C	-0.866098	0.909712	-0.358200
C64	C	-0.366098	1.409712	0.141800
C65	C	-0.635137	0.949927	-0.310720
C66	C	-0.135137	1.449927	0.189280
C67	C	-0.569394	0.949898	-0.310702
C68	C	-0.069394	1.449898	0.189298
C69	C	-0.569435	0.869323	-0.405571
C70	C	-0.069435	1.369323	0.094429
C71	C	-0.635178	0.869348	-0.405583
C72	C	-0.135178	1.369348	0.094417
C73	C	-0.668025	0.909653	-0.358159
C74	C	-0.168025	1.409653	0.141841
C75	C	-0.343395	0.643265	-0.405465
C76	C	0.156605	1.143265	0.094535
C77	C	-0.343379	0.577522	-0.405499
C78	C	0.156621	1.077522	0.094501
C79	C	-0.303063	0.544648	-0.358104
C80	C	0.196937	1.044648	0.141896
C81	C	-0.262747	0.577523	-0.310685
C82	C	0.237253	1.077523	0.189315
C83	C	-0.262759	0.643264	-0.310658
C84	C	0.237241	1.143264	0.189342
N85	N	-0.298140	0.441381	-0.293148
N86	N	0.201860	0.941381	0.206852
N87	N	-0.298133	0.378930	-0.293176
N88	N	0.201867	0.878930	0.206824
C89	C	-0.303022	0.346574	-0.358182
C90	C	0.196978	0.846574	0.141818
N91	N	-0.307933	0.379028	-0.423162
N92	N	0.192067	0.879028	0.076838
N93	N	-0.307944	0.441485	-0.423133
N94	N	0.192056	0.941485	0.076867
C95	C	-0.303045	0.473363	-0.358128
C96	C	0.196955	0.973363	0.141872
C97	C	-0.343316	0.242422	-0.405638
C98	C	0.156684	0.742422	0.094362
C99	C	-0.343296	0.176678	-0.405672
C100	C	0.156704	0.676678	0.094328
C101	C	-0.262667	0.176680	-0.310852
C102	C	0.237333	0.676680	0.189148
C103	C	-0.262683	0.242423	-0.310824
C104	C	0.237317	0.742423	0.189176
C105	C	-0.303011	0.275290	-0.358216
C106	C	0.196989	0.775290	0.141784
C107	C	-0.138834	0.909742	-0.358206
C108	C	0.361166	1.409742	0.141794
C109	C	-0.068866	0.909781	-0.358229
C110	C	0.431134	1.409781	0.141771
C111	C	-0.302997	0.909675	-0.551860
C112	C	0.197003	1.409675	-0.051860
C113	C	-0.302985	0.909686	-0.634406
C114	C	0.197015	1.409686	-0.134406
C115	C	-0.302992	1.073841	-0.358241
C116	C	0.197008	1.573841	0.141759
C117	C	-0.302978	1.143809	-0.358278
C118	C	0.197022	1.643809	0.141722
C119	C	-0.344983	0.867647	-0.833822
C120	C	0.155017	1.367647	-0.333822
C121	C	-0.360355	0.925079	-0.883235
C122	C	0.139645	1.425079	-0.383235
C123	C	-0.302937	0.909717	-0.785537
C124	C	0.197063	1.409717	-0.285537
C125	C	-0.287548	0.852317	-0.883205
C126	C	0.212452	1.352317	-0.383205
C127	C	-0.302891	0.909742	-0.931522
C128	C	0.197109	1.409742	-0.431522
C129	C	-0.318338	0.967179	-0.833863
C130	C	0.181662	1.467179	-0.333863
C131	C	-0.245504	0.894378	-0.833829
C132	C	0.254496	1.394378	-0.333829
C133	C	-0.260854	0.951849	-0.883220
C134	C	0.239146	1.451849	-0.383220
C135	C	-0.302964	0.909702	-0.701438
C136	C	0.197036	1.409702	-0.201438
C137	C	-0.302864	0.909764	-1.015618
C138	C	0.197136	1.409764	-0.515618
C139	C	-0.303007	0.909662	-0.165203
C140	C	0.196993	1.409662	0.334797
C141	C	-0.302842	0.909774	-0.082657
C142	C	0.197158	1.409774	0.417343
H143	H	-1.062720	0.982875	-0.272177
H144	H	-0.562720	1.482875	0.227823
H145	H	-0.229837	0.149915	-0.272265
H146	H	0.270163	0.649915	0.227735
H147	H	-0.661883	0.982745	-0.272104
H148	H	-0.161883	1.482745	0.227896
H149	H	-0.229863	0.269183	-0.272210
H150	H	0.270137	0.769183	0.227790
F151	F	-0.182064	0.877380	-0.805440
F152	F	0.317936	1.377380	-0.305440
H153	H	-0.274551	0.803764	-0.904881
H154	H	0.225449	1.303764	-0.404881
H155	H	-0.661954	0.836552	-0.444210
H156	H	-0.161954	1.336552	0.055790
H157	H	-0.331391	1.015746	-0.812279
H158	H	0.168609	1.515746	-0.312279
F159	F	-0.423812	0.942057	-0.911602
F160	F	0.076188	1.442057	-0.411602
F161	F	-0.391518	0.821189	-0.805470
F162	F	0.108482	1.321189	-0.305470
F163	F	-0.214353	0.998417	-0.911394
F164	F	0.285647	1.498417	-0.411394
F165	F	-0.534474	0.826432	-0.456040
F166	F	-0.034474	1.326432	0.043960
F167	F	-0.935312	0.826570	-0.456116
F168	F	-0.435312	1.326570	0.043884
F169	F	-1.071020	0.826607	-0.456140
F170	F	-0.571020	1.326607	0.043860
F171	F	-0.935231	0.992900	-0.260290
F172	F	-0.435231	1.492900	0.239710
H173	H	-0.376118	0.149919	-0.444288
H174	H	0.123882	0.649919	0.055712
F175	F	-0.386314	0.678240	-0.455907
F176	F	0.113686	1.178240	0.044093
F177	F	-0.534394	0.992768	-0.260214
F178	F	-0.034394	1.492768	0.239786
F179	F	-0.386282	0.542536	-0.455967
F180	F	0.113718	1.042536	0.044033
H181	H	-0.229934	0.670024	-0.272047
H182	H	0.270066	1.170024	0.227953
F183	F	-0.386233	0.277403	-0.456079
F184	F	0.113767	0.777403	0.043921
F185	F	-0.219836	0.542536	-0.260247
F186	F	0.280164	1.042536	0.239753
