data_functionalizedCrystal
_audit_creation_method	'MofGen! by Chris Wilmer'
_symmetry_space_group_name_H-M	'P1'
_symmetry_Int_Tables_number	1
_symmetry_cell_setting	triclinic
loop_
_symmetry_equiv_pos_as_xyz
  x,y,z
_cell_length_a	10.654559
_cell_length_b	10.654551
_cell_length_c	8.140239
_cell_angle_alpha	89.998240
_cell_angle_beta	89.996802
_cell_angle_gamma	84.487043
loop_
_atom_site_label
_atom_site_type_symbol
_atom_site_fract_x
_atom_site_fract_y
_atom_site_fract_z
O1	O	1.667832	0.176452	-0.136625
O2	O	1.302355	0.193246	-0.136624
O3	O	1.493496	0.002110	-0.136621
O4	O	1.476692	0.367587	-0.136628
O5	O	1.493485	0.002107	0.136606
O6	O	1.302345	0.193243	0.136603
O7	O	1.667822	0.176449	0.136602
Zn8	Zn	1.485081	0.184846	0.179983
Zn9	Zn	1.485095	0.184849	-0.180005
O10	O	1.476681	0.367585	0.136599
C11	C	1.255552	0.192009	-0.000010
C12	C	1.116110	0.188312	-0.000010
C13	C	1.064569	0.072300	-0.000006
C14	C	0.933547	0.068834	-0.000020
C15	C	0.905616	0.297404	-0.000036
C16	C	1.036636	0.300868	-0.000033
C17	C	0.771274	-0.073199	-0.095744
C18	C	0.719730	-0.189217	-0.095711
C19	C	0.774578	-0.288992	0.000038
C20	C	0.880968	-0.272754	0.095795
C21	C	0.932505	-0.156734	0.095777
C22	C	0.877660	-0.056963	-0.000010
C23	C	1.198912	0.442893	0.095704
C24	C	1.250451	0.558915	0.095698
C25	C	1.195605	0.658701	-0.000041
C26	C	1.089209	0.642475	-0.095774
C27	C	1.037669	0.526453	-0.095768
C28	C	1.092525	0.426667	-0.000032
C29	C	1.492257	-0.044689	-0.000010
C30	C	1.488564	-0.184133	-0.000018
C31	C	1.486837	-0.249635	-0.148955
C32	C	1.483357	-0.380656	-0.148957
C33	C	1.483337	-0.380660	0.148930
C34	C	1.486808	-0.249641	0.148930
C35	C	1.405173	-0.550729	-0.327894
C36	C	1.403467	-0.616239	-0.476840
C37	C	1.478065	-0.582695	-0.608339
C38	C	1.554399	-0.483647	-0.590898
C39	C	1.556116	-0.418145	-0.441950
C40	C	1.481489	-0.451684	-0.310457
C41	C	1.565002	-0.079567	0.327857
C42	C	1.566728	-0.014064	0.476807
C43	C	1.492138	-0.047606	0.608319
C44	C	1.415823	-0.146660	0.590895
C45	C	1.414097	-0.212163	0.441945
C46	C	1.488685	-0.178612	0.310432
C47	C	1.714625	0.177686	-0.000016
C48	C	1.854067	0.181382	-0.000027
C49	C	1.477920	0.414384	-0.000016
C50	C	1.481613	0.553828	-0.000019
N51	N	1.485081	0.184843	0.425666
N52	N	1.485106	0.184842	-0.425688
H53	H	1.044544	0.723731	-0.173724
H54	H	1.237571	0.753176	-0.000022
F55	F	1.257303	0.336686	0.197591
H56	H	1.337081	0.572123	0.173665
F57	F	1.633810	-0.447967	-0.730854
F58	F	1.045728	-0.139449	0.197677
F59	F	1.488701	-0.179920	-0.307479
H60	H	0.925611	-0.354002	0.173773
F61	F	1.637351	-0.312739	-0.423382
F62	F	1.322223	-0.721647	-0.495397
H63	H	0.732601	-0.383457	0.000064
H64	H	1.493560	0.005730	0.729606
F65	F	1.644411	-0.043874	0.187897
F66	F	0.606506	-0.206495	-0.197626
H67	H	1.481909	-0.434013	0.270198
F68	F	0.712905	0.032982	-0.197682
F69	F	0.821024	0.417186	-0.000058
H70	H	1.476674	-0.636042	-0.729613
F71	F	1.325752	-0.586421	-0.187954
F72	F	1.332876	-0.317590	0.423405
H73	H	1.355057	-0.173948	0.697968
H74	H	1.129274	-0.019350	0.000006
F75	F	0.924430	0.509187	-0.197657
H76	H	1.628878	0.066588	0.490989
