data_functionalizedCrystal
_audit_creation_method	'MofGen! by Chris Wilmer'
_symmetry_space_group_name_H-M	'P1'
_symmetry_Int_Tables_number	1
_symmetry_cell_setting	triclinic
loop_
_symmetry_equiv_pos_as_xyz
  x,y,z
_cell_length_a	14.971486
_cell_length_b	9.065218
_cell_length_c	14.048226
_cell_angle_alpha	89.995444
_cell_angle_beta	89.998499
_cell_angle_gamma	84.315007
loop_
_atom_site_label
_atom_site_type_symbol
_atom_site_fract_x
_atom_site_fract_y
_atom_site_fract_z
O1	O	1.188380	0.192261	-0.079047
O2	O	0.928151	0.215285	-0.079073
O3	O	1.063645	-0.010979	-0.079057
O4	O	1.052887	0.418524	-0.079062
O5	O	1.063628	-0.010992	0.079264
O6	O	0.928135	0.215271	0.079249
O7	O	1.188363	0.192248	0.079274
Zn8	Zn	1.058246	0.203758	0.104398
Zn9	Zn	1.058268	0.203775	-0.104197
O10	O	1.052870	0.418511	0.079259
C11	C	0.894811	0.214248	0.000085
C12	C	0.795491	0.211163	0.000075
C13	C	0.739256	0.344086	0.000075
C14	C	0.645935	0.341178	0.000089
C15	C	0.608850	0.205345	0.000097
C16	C	0.665092	0.072412	0.000100
C17	C	0.758411	0.075321	0.000092
C18	C	0.470584	0.066357	0.000113
C19	C	0.377259	0.063446	0.000118
C20	C	0.358108	0.332214	0.000110
C21	C	0.451427	0.335123	0.000102
C22	C	0.507663	0.202189	0.000103
C23	C	1.062602	-0.065951	0.000102
C24	C	1.059511	-0.229731	0.000097
C25	C	1.221704	0.193284	0.000115
C26	C	1.321024	0.196370	0.000118
C27	C	1.053912	0.473483	0.000098
C28	C	1.057004	0.637264	0.000097
N29	N	1.058238	0.203745	0.246759
N30	N	1.058284	0.203776	-0.246557
C31	C	1.118254	0.103597	0.296584
C32	C	1.118260	0.103596	0.396242
C33	C	1.058254	0.203751	0.446073
C34	C	0.998231	0.303904	0.396241
C35	C	0.998222	0.303896	0.296585
C36	C	0.998257	0.303915	0.603955
C37	C	0.998268	0.303924	0.703618
C38	C	1.118295	0.103614	0.703612
C39	C	1.118286	0.103607	0.603956
C40	C	1.058264	0.203762	0.554131
H41	H	0.769442	0.454697	0.000068
H42	H	1.167128	0.022047	0.436808
H43	H	1.167151	0.022060	0.563383
C44	C	0.585030	0.485658	0.000039
C45	C	0.637481	0.605236	0.000000
C46	C	0.581407	0.738358	-0.000056
H47	H	0.548215	0.490321	0.055239
H48	H	0.548236	0.490192	-0.055189
H49	H	0.674259	0.600704	0.055222
H50	H	0.674294	0.600621	-0.055196
H51	H	0.544613	0.742892	-0.055284
H52	H	0.544594	0.743006	0.055144
H53	H	0.616986	0.819507	-0.000092
H54	H	0.949350	0.385445	0.256019
C55	C	0.933069	0.412412	0.757851
C56	C	0.877720	0.333649	0.815099
C57	C	0.817657	0.433535	0.865084
H58	H	0.897226	0.472099	0.714021
H59	H	0.965719	0.473898	0.796772
H60	H	0.845073	0.272189	0.776181
H61	H	0.913538	0.273968	0.858946
H62	H	0.850306	0.495021	0.904005
H63	H	0.781820	0.493217	0.821248
H64	H	0.780101	0.380110	0.903939
C65	C	0.531684	-0.077927	0.000307
C66	C	0.585809	-0.084143	0.081766
C67	C	0.642095	-0.217039	0.081977
H68	H	0.568565	-0.082513	-0.054843
H69	H	0.496264	-0.159283	0.000360
H70	H	0.621226	-0.002810	0.081704
H71	H	0.548951	-0.079582	0.136928
H72	H	0.606675	-0.298395	0.082031
H73	H	0.678970	-0.221613	0.026825
H74	H	0.678819	-0.221280	0.137250
H75	H	0.481618	0.445730	0.000087
C76	C	0.819427	-0.069043	-0.000109
C77	C	0.802521	-0.150802	-0.081571
C78	C	0.858719	-0.283791	-0.081792
H79	H	0.808123	-0.124916	0.055038
H80	H	0.880328	-0.047918	-0.000164
H81	H	0.741634	-0.171931	-0.081507
H82	H	0.813830	-0.094973	-0.136732
H83	H	0.919620	-0.262666	-0.081847
H84	H	0.847410	-0.339651	-0.026641
H85	H	0.847261	-0.339275	-0.137066
H86	H	0.949379	0.385467	0.563391
C87	C	0.296953	0.476436	-0.000039
C88	C	0.242798	0.482600	-0.081474
C89	C	0.186440	0.615421	-0.081644
H90	H	0.332295	0.557867	-0.000099
H91	H	0.260101	0.480908	0.055147
H92	H	0.279645	0.478142	-0.136645
H93	H	0.207436	0.401199	-0.081430
H94	H	0.149589	0.619892	-0.026458
H95	H	0.221790	0.696841	-0.081702
H96	H	0.149684	0.619614	-0.136892
H97	H	1.167121	0.022045	0.256018
C98	C	1.183419	-0.005367	0.757577
C99	C	1.167768	-0.150387	0.733327
C100	C	1.227752	-0.250806	0.783014
H101	H	1.174896	0.008764	0.824080
H102	H	1.243255	0.010743	0.741212
H103	H	1.107946	-0.166491	0.749699
H104	H	1.176297	-0.164565	0.666833
H105	H	1.287588	-0.234696	0.766649
H106	H	1.219225	-0.236662	0.849515
H107	H	1.217147	-0.349213	0.766561
H108	H	0.949369	0.385447	0.436819
H109	H	0.634890	-0.038186	0.000119
C110	C	0.337165	-0.084178	0.000177
C111	C	0.406384	-0.199974	0.000209
C112	C	0.369484	-0.335986	0.000274
H113	H	0.301171	-0.091107	-0.055017
H114	H	0.301183	-0.090973	0.055411
H115	H	0.442351	-0.193183	-0.055019
H116	H	0.442384	-0.193095	0.055399
H117	H	0.333502	-0.342781	0.055507
H118	H	0.333491	-0.342900	-0.054921
H119	H	0.416444	-0.414570	0.000304
