data_functionalizedCrystal
_audit_creation_method	'MofGen! by Chris Wilmer'
_symmetry_space_group_name_H-M	'P1'
_symmetry_Int_Tables_number	1
_symmetry_cell_setting	triclinic
loop_
_symmetry_equiv_pos_as_xyz
  x,y,z
_cell_length_a	17.640112
_cell_length_b	17.077402
_cell_length_c	17.077396
_cell_angle_alpha	90.030619
_cell_angle_beta	101.178573
_cell_angle_gamma	78.751909
loop_
_atom_site_label
_atom_site_type_symbol
_atom_site_fract_x
_atom_site_fract_y
_atom_site_fract_z
Zn1	Zn	1.208324	0.069651	-0.201631
Zn2	Zn	1.708324	0.569651	0.298369
Zn3	Zn	1.208235	0.200946	-0.070379
Zn4	Zn	1.708235	0.700946	0.429621
Zn5	Zn	1.076154	0.096244	-0.096872
Zn6	Zn	1.576154	0.596244	0.403128
Zn7	Zn	1.076117	0.227450	-0.228086
Zn8	Zn	1.576117	0.727450	0.271914
O9	O	1.142207	0.148573	-0.149242
O10	O	1.642207	0.648573	0.350758
O11	O	1.318917	0.064847	-0.162061
O12	O	1.818917	0.564847	0.337939
O13	O	1.190693	0.187094	0.035949
O14	O	1.690693	0.687094	0.535949
O15	O	1.093739	-0.017141	-0.110784
O16	O	1.593739	0.482859	0.389216
O17	O	1.318852	0.161308	-0.065632
O18	O	1.818852	0.661308	0.434368
O19	O	1.190844	-0.036679	-0.187750
O20	O	1.690844	0.463321	0.312250
O21	O	1.093654	0.110170	0.016485
O22	O	1.593654	0.610170	0.516485
O23	O	0.965544	0.135870	-0.136436
O24	O	1.465544	0.635870	0.363564
O25	O	1.093675	0.206481	-0.334419
O26	O	1.593675	0.706481	0.165581
O27	O	0.965516	0.232267	-0.232839
O28	O	1.465516	0.732267	0.267161
O29	O	1.190807	0.090547	-0.314983
O30	O	1.690807	0.590547	0.185017
O31	O	1.190657	0.314319	-0.091284
O32	O	1.690657	0.814319	0.408716
O33	O	1.093590	0.333792	-0.207150
O34	O	1.593590	0.833792	0.292850
C35	C	0.936851	0.189831	-0.190383
C36	C	1.436851	0.689831	0.309617
C37	C	0.848999	0.207500	-0.208002
C38	C	1.348999	0.707500	0.291998
C39	C	1.142131	0.352536	-0.149226
C40	C	1.642131	0.852536	0.350774
C41	C	1.142171	0.439778	-0.149231
C42	C	1.642171	0.939778	0.350769
C43	C	1.142247	0.148504	-0.353978
C44	C	1.642247	0.648504	0.146022
C45	C	1.142264	0.148475	-0.441225
C46	C	1.642264	0.648475	0.058775
C47	C	0.560026	0.014329	-0.015398
C48	C	1.060026	0.514329	0.484602
C49	C	0.477475	0.030948	-0.031965
C50	C	0.977475	0.530948	0.468035
C51	C	0.477501	0.131464	-0.132175
C52	C	0.977501	0.631464	0.367825
C53	C	0.560053	0.114851	-0.115620
C54	C	1.060053	0.614851	0.384380
C55	C	0.601309	0.056283	-0.057230
C56	C	1.101309	0.556283	0.442770
C57	C	0.601337	0.156805	-0.157452
C58	C	1.101337	0.656805	0.342548
C59	C	0.683882	0.140196	-0.140895
C60	C	1.183882	0.640196	0.359105
C61	C	0.725143	0.081633	-0.082506
C62	C	1.225143	0.581633	0.417494
C63	C	0.683854	0.039674	-0.040673
C64	C	1.183854	0.539674	0.459327
C65	C	0.560079	0.215376	-0.215838
C66	C	1.060079	0.715376	0.284162
C67	C	0.601362	0.257330	-0.257669
C68	C	1.101362	0.757330	0.242331
C69	C	0.683909	0.240718	-0.241117
C70	C	1.183909	0.740718	0.258883
C71	C	0.725171	0.182154	-0.182728
C72	C	1.225171	0.682154	0.317272
C73	C	0.725198	0.282676	-0.282949
C74	C	1.225198	0.782676	0.217051
C75	C	0.807743	0.266067	-0.266392
C76	C	1.307743	0.766067	0.233608
C77	C	0.807716	0.165545	-0.166170
C78	C	1.307716	0.665545	0.333830
C79	C	1.348365	0.107155	-0.107940
C80	C	1.848365	0.607155	0.392060
C81	C	1.436218	0.089505	-0.090340
C82	C	1.936218	0.589505	0.409660
C83	C	1.142305	-0.056191	-0.149271
C84	C	1.642305	0.443809	0.350729
C85	C	1.142347	-0.143449	-0.149283
C86	C	1.642347	0.356551	0.350717
C87	C	1.192765	0.470592	-0.088943
C88	C	1.692765	0.970592	0.411057
C89	C	1.192804	0.552565	-0.088955
C90	C	1.692804	1.052565	0.411045
C91	C	1.142243	0.603723	-0.149253
C92	C	1.642243	1.103723	0.350747
C93	C	1.091647	0.572903	-0.209547
C94	C	1.591647	1.072903	0.290453
C95	C	1.091613	0.490931	-0.209537
C96	C	1.591613	0.990931	0.290463
C97	C	1.091720	0.743758	-0.209562
C98	C	1.591720	1.243758	0.290438
C99	C	1.091753	0.825736	-0.209571
C100	C	1.591753	1.325736	0.290429
C101	C	1.192911	0.805392	-0.088980
C102	C	1.692911	1.305392	0.411020
C103	C	1.192877	0.723420	-0.088970
C104	C	1.692877	1.223420	0.411030
C105	C	1.142279	0.692606	-0.149263
C106	C	1.642279	1.192606	0.350737
C107	C	1.091751	0.108411	-0.492346
C108	C	1.591751	0.608411	0.007654
C109	C	1.091764	0.108391	-0.574324
C110	C	1.591764	0.608391	-0.074324
C111	C	1.142294	0.148430	-0.605178
C112	C	1.642294	0.648430	-0.105178
C113	C	1.192810	0.188498	-0.554051
C114	C	1.692810	0.688498	-0.054051
C115	C	1.192792	0.188523	-0.472075
C116	C	1.692792	0.688523	0.027925
C117	C	1.192844	0.188442	-0.724914
C118	C	1.692844	0.688442	-0.224914
C119	C	1.192863	0.188417	-0.806895
C120	C	1.692863	0.688417	-0.306895
C121	C	1.091816	0.108310	-0.827163
C122	C	1.591816	0.608310	-0.327163
C123	C	1.091798	0.108335	-0.745187
C124	C	1.591798	0.608335	-0.245187
C125	C	1.142315	0.148402	-0.694065
C126	C	1.642315	0.648402	-0.194065
C127	C	1.142213	0.148576	0.054707
C128	C	1.642213	0.648576	0.554707
C129	C	1.142350	0.148353	0.141984
C130	C	1.642350	0.648353	0.641984
H131	H	0.792357	0.068112	-0.069024
H132	H	1.292357	0.568112	0.430976
H133	H	1.050684	0.075685	-0.868790
H134	H	1.550684	0.575685	-0.368790
H135	H	1.050655	0.075728	-0.720068
H136	H	1.550655	0.575728	-0.220068
H137	H	0.717447	-0.008029	0.006863
H138	H	1.217447	0.491971	0.506863
H139	H	0.593619	-0.033374	0.032137
H140	H	1.093619	0.466626	0.532137
C141	C	1.248571	0.839279	-0.022658
C142	C	1.748571	1.339279	0.477342
H143	H	1.278670	0.797073	0.013259
H144	H	1.778670	1.297073	0.513259
H145	H	1.283007	0.864288	-0.045818
H146	H	1.783007	1.364288	0.454182
H147	H	1.218364	0.877380	0.005511
H148	H	1.718364	1.377380	0.505511
H149	H	0.567761	0.305018	-0.305208
H150	H	1.067761	0.805018	0.194792
H151	H	0.443865	-0.003227	0.002099
H152	H	0.943865	0.496773	0.502099
H153	H	0.841357	0.300230	-0.300457
H154	H	1.341357	0.800230	0.199543
H155	H	1.233987	0.221061	-0.683290
H156	H	1.733987	0.721061	-0.183290
H157	H	0.691595	0.330367	-0.330485
H158	H	1.191595	0.830367	0.169515
H159	H	1.234009	0.221020	-0.832013
H160	H	1.734009	0.721020	-0.332013
H161	H	1.050483	0.614562	-0.258645
H162	H	1.550483	1.114562	0.241355
H163	H	1.234043	0.681768	-0.039868
H164	H	1.734043	1.181768	0.460132
C165	C	1.035961	0.457035	-0.275855
C166	C	1.535961	0.957035	0.224145
H167	H	1.005849	0.499242	-0.311765
H168	H	1.505849	0.999242	0.188235
H169	H	1.066164	0.418937	-0.304022
H170	H	1.566164	0.918937	0.195978
H171	H	1.001523	0.432025	-0.252691
H172	H	1.501523	0.932025	0.247309
C173	C	1.248398	0.232535	-0.587983
C174	C	1.748398	0.732535	-0.087983
H175	H	1.278476	0.256404	-0.545795
H176	H	1.778476	0.756404	-0.045795
H177	H	1.282857	0.195573	-0.613065
H178	H	1.782857	0.695573	-0.113065
H179	H	1.218154	0.272810	-0.626016
H180	H	1.718154	0.772810	-0.126016
C181	C	0.432115	0.195880	-0.196403
C182	C	0.932115	0.695880	0.303597
H183	H	0.377042	0.199761	-0.200277
H184	H	0.877042	0.699761	0.299723
H185	H	0.445630	0.245890	-0.182118
H186	H	0.945630	0.745890	0.317882
H187	H	0.445668	0.181719	-0.246448
H188	H	0.945668	0.681719	0.253552
C189	C	1.248383	0.414325	-0.022615
C190	C	1.748383	0.914325	0.477385
H191	H	1.278526	0.444420	0.013284
H192	H	1.778526	0.944420	0.513284
H193	H	1.218160	0.388468	0.005564
H194	H	1.718160	0.888468	0.505564
H195	H	1.282793	0.375382	-0.045777
H196	H	1.782793	0.875382	0.454223
H197	H	0.492866	0.228897	-0.229316
H198	H	0.992866	0.728897	0.270684
H199	H	1.234002	0.577649	-0.039862
H200	H	1.734002	1.077649	0.460138
C201	C	1.036169	0.064368	-0.458409
C202	C	1.536169	0.564368	0.041591
H203	H	1.043397	0.070113	-0.402265
H204	H	1.543397	0.570113	0.097735
H205	H	0.983060	0.086521	-0.482482
H206	H	1.483060	0.586521	0.017518
H207	H	1.047770	0.009289	-0.469536
H208	H	1.547770	0.509289	0.030464
H209	H	1.050597	0.867385	-0.258683
H210	H	1.550597	1.367385	0.241317
H211	H	1.233931	0.221140	-0.430451
H212	H	1.733931	0.721140	0.069549
C213	C	1.036067	0.709864	-0.275886
C214	C	1.536067	1.209864	0.224114
H215	H	1.005955	0.752071	-0.311795
H216	H	1.505955	1.252071	0.188205
H217	H	1.066268	0.671765	-0.304054
H218	H	1.566268	1.171765	0.195946
H219	H	1.001630	0.684855	-0.252719
H220	H	1.501630	1.184855	0.247281
C221	C	1.036204	0.064315	-0.630553
C222	C	1.536204	0.564315	-0.130553
H223	H	1.006116	0.040464	-0.600435
H224	H	1.506116	0.540464	-0.100435
H225	H	1.001754	0.101251	-0.669427
H226	H	1.501754	0.601251	-0.169427
H227	H	1.066471	0.024024	-0.656477
H228	H	1.566471	0.524024	-0.156477
H229	H	0.841309	0.117842	-0.118635
H230	H	1.341309	0.617842	0.381365
