data_functionalizedCrystal
_audit_creation_method	'MofGen! by Chris Wilmer'
_symmetry_space_group_name_H-M	'P1'
_symmetry_Int_Tables_number	1
_symmetry_cell_setting	triclinic
loop_
_symmetry_equiv_pos_as_xyz
  x,y,z
_cell_length_a	21.395362
_cell_length_b	16.625545
_cell_length_c	21.395355
_cell_angle_alpha	89.983687
_cell_angle_beta	90.043940
_cell_angle_gamma	89.960085
loop_
_atom_site_label
_atom_site_type_symbol
_atom_site_fract_x
_atom_site_fract_y
_atom_site_fract_z
Zn1	Zn	0.957889	0.320753	0.354595
Zn2	Zn	1.457889	0.820753	0.854595
Zn3	Zn	0.957803	0.455568	0.249822
Zn4	Zn	1.457803	0.955568	0.749822
Zn5	Zn	0.853103	0.320791	0.249796
Zn6	Zn	1.353103	0.820791	0.749796
Zn7	Zn	0.853085	0.455585	0.354526
Zn8	Zn	1.353085	0.955585	0.854526
O9	O	0.905470	0.388174	0.302185
O10	O	1.405470	0.888174	0.802185
O11	O	1.045555	0.338614	0.340736
O12	O	1.545555	0.838614	0.840736
O13	O	0.943887	0.437699	0.162140
O14	O	1.443887	0.937699	0.662140
O15	O	0.867047	0.207953	0.263716
O16	O	1.367047	0.707953	0.763716
O17	O	1.045492	0.437662	0.263760
O18	O	1.545492	0.937662	0.763760
O19	O	0.944032	0.207926	0.340712
O20	O	1.444032	0.707926	0.840712
O21	O	0.866964	0.338678	0.162122
O22	O	1.366964	0.838678	0.662122
O23	O	0.765423	0.338694	0.263650
O24	O	1.265423	0.838694	0.763650
O25	O	0.867015	0.437690	0.442214
O26	O	1.367015	0.937690	0.942214
O27	O	0.765409	0.437727	0.340594
O28	O	1.265409	0.937727	0.840594
O29	O	0.944014	0.338630	0.442264
O30	O	1.444014	0.838630	0.942264
O31	O	0.943869	0.568403	0.263693
O32	O	1.443869	1.068403	0.763693
O33	O	0.866932	0.568415	0.340619
O34	O	1.366932	1.068415	0.840619
C35	C	0.742682	0.388217	0.302112
C36	C	1.242682	0.888217	0.802112
C37	C	0.673041	0.388255	0.302096
C38	C	1.173041	0.888255	0.802096
C39	C	0.640337	0.439889	0.342101
C40	C	1.140337	0.939889	0.842101
C41	C	0.574902	0.439870	0.342129
C42	C	1.074902	0.939870	0.842129
C43	C	0.542173	0.388224	0.302141
C44	C	1.042173	0.888224	0.802141
C45	C	0.574885	0.336579	0.262133
C46	C	1.074885	0.836579	0.762133
C47	C	0.640319	0.336594	0.262110
C48	C	1.140319	0.836594	0.762110
C49	C	0.438447	0.381728	0.245735
C50	C	0.938447	0.881728	0.745735
C51	C	0.373015	0.381718	0.245757
C52	C	0.873015	0.881718	0.745757
C53	C	0.340352	0.388171	0.302210
C54	C	0.840352	0.888171	0.802210
C55	C	0.373131	0.394651	0.358644
C56	C	0.873131	0.894651	0.858644
C57	C	0.438565	0.394666	0.358621
C58	C	0.938565	0.894666	0.858621
C59	C	0.471220	0.388201	0.302161
C60	C	0.971220	0.888201	0.802161
C61	C	0.236696	0.439787	0.342249
C62	C	0.736696	0.939787	0.842249
C63	C	0.171259	0.439762	0.342278
C64	C	0.671259	0.939762	0.842278
C65	C	0.171243	0.336475	0.262276
C66	C	0.671243	0.836475	0.762276
C67	C	0.236678	0.336496	0.262252
C68	C	0.736678	0.836496	0.762252
C69	C	0.269401	0.388157	0.302238
C70	C	0.769401	0.888157	0.802238
C71	C	0.905406	0.597665	0.302165
C72	C	1.405406	1.097665	0.802165
C73	C	0.905436	0.687286	0.302177
C74	C	1.405436	1.187286	0.802177
C75	C	0.905539	1.015462	0.302252
C76	C	1.405539	1.515462	0.802252
C77	C	0.905508	0.924153	0.302233
C78	C	1.405508	1.424153	0.802233
C79	C	0.905487	0.851377	0.302214
C80	C	1.405487	1.351377	0.802214
C81	C	0.905457	0.760063	0.302196
C82	C	1.405457	1.260063	0.802196
C83	C	1.068893	0.388132	0.302258
C84	C	1.568893	0.888132	0.802258
C85	C	1.138535	0.388114	0.302290
C86	C	1.638535	0.888114	0.802290
C87	C	0.905522	0.388158	0.465608
C88	C	1.405522	0.888158	0.965608
C89	C	0.905544	0.388151	0.535250
C90	C	1.405544	0.888151	1.035250
C91	C	0.905546	1.177865	0.302226
C92	C	1.405546	1.677865	0.802226
C93	C	0.905564	1.088244	0.302263
C94	C	1.405564	1.588244	0.802263
C95	C	0.905454	0.388132	0.139397
C96	C	1.405454	0.888132	0.639397
C97	C	0.905553	0.387912	0.069757
C98	C	1.405553	0.887912	0.569757
C99	C	0.945636	0.336568	0.567990
C100	C	1.445636	0.836568	1.067990
C101	C	0.945635	0.336534	0.633425
C102	C	1.445635	0.836534	1.133425
C103	C	0.905549	0.388096	0.666118
C104	C	1.405549	0.888096	1.166118
C105	C	0.865450	0.439683	0.633370
C106	C	1.365450	0.939683	1.133370
C107	C	0.865447	0.439710	0.567935
C108	C	1.365447	0.939710	1.067935
C109	C	0.900580	0.460699	0.769784
C110	C	1.400580	0.960699	1.269784
C111	C	0.900587	0.460672	0.835217
C112	C	1.400587	0.960672	1.335217
C113	C	0.905553	0.388011	0.867939
C114	C	1.405553	0.888011	1.367939
C115	C	0.910526	0.315373	0.835220
C116	C	1.410526	0.815373	1.335220
C117	C	0.910523	0.315401	0.769785
C118	C	1.410523	0.815401	1.269785
C119	C	0.905547	0.388072	0.737070
C120	C	1.405547	0.888072	1.237070
C121	C	0.945646	0.336386	0.971632
C122	C	1.445646	0.836386	1.471632
C123	C	0.945640	0.336350	1.037069
C124	C	1.445640	0.836350	1.537069
C125	C	0.865459	0.439506	1.037011
C126	C	1.365459	0.939506	1.537011
C127	C	0.865461	0.439535	0.971576
C128	C	1.365461	0.939535	1.471576
C129	C	0.905557	0.387976	0.938890
C130	C	1.405557	0.887976	1.438890
H131	H	0.548269	0.481916	0.374708
H132	H	1.048269	0.981916	0.874708
O133	O	0.915882	0.236991	0.870497
O134	O	1.415882	0.736991	1.370497
H135	H	0.876060	0.197419	0.857896
H136	H	1.376060	0.697419	1.357896
O137	O	0.675627	0.495604	0.385232
O138	O	1.175627	0.995604	0.885232
H139	H	0.726623	0.486947	0.378494
H140	H	1.226623	0.986947	0.878494
O141	O	0.271992	0.495476	0.385397
O142	O	0.771992	0.995476	0.885397
H143	H	0.322987	0.486813	0.378661
H144	H	0.822987	0.986813	0.878661
O145	O	0.822195	0.495348	0.532628
O146	O	1.322195	0.995348	1.032628
H147	H	0.850211	0.536382	0.502833
H148	H	1.350211	1.036382	1.002833
O149	O	0.135945	0.280774	0.219145
O150	O	0.635945	0.780774	0.719145
H151	H	0.148554	0.217514	0.229975
H152	H	0.648554	0.717514	0.729975
O153	O	0.337666	0.374725	0.184891
O154	O	0.837666	0.874725	0.684891
H155	H	0.350162	0.425929	0.154046
H156	H	0.850162	0.925929	0.654046
H157	H	0.914571	0.256257	0.743148
H158	H	1.414571	0.756257	1.243148
H159	H	0.666946	0.294545	0.229533
H160	H	1.166946	0.794545	0.729533
H161	H	0.465250	0.399940	0.404572
H162	H	0.965250	0.899940	0.904572
H163	H	0.832810	0.481663	0.659992
H164	H	1.332810	0.981663	1.159992
O165	O	0.988888	0.280770	0.936377
O166	O	1.488888	0.780770	1.436377
H167	H	1.020756	0.316865	0.906598
H168	H	1.520756	0.816865	1.406598
O169	O	0.895217	0.539011	0.870506
O170	O	1.395217	1.039011	1.370506
H171	H	0.891747	0.589540	0.836761
H172	H	1.391747	1.089540	1.336761
H173	H	0.465036	0.376470	0.199761
H174	H	0.965036	0.876470	0.699761
O175	O	0.337917	0.401598	0.419543
O176	O	0.837917	0.901598	0.919543
H177	H	0.308057	0.456203	0.418493
H178	H	0.808057	0.956203	0.918493
H179	H	0.978281	0.294524	0.660088
H180	H	1.478281	0.794524	1.160088
O181	O	0.271953	0.280807	0.219098
O182	O	0.771953	0.780807	0.719098
H183	H	0.322952	0.289490	0.225803
H184	H	0.822952	0.789490	0.725803
H185	H	0.144633	0.481807	0.374858
H186	H	0.644633	0.981807	0.874858
O187	O	0.988885	0.280713	1.072387
O188	O	1.488885	0.780713	1.572387
H189	H	1.016769	0.244875	1.038662
H190	H	1.516769	0.744875	1.538662
H191	H	0.832814	0.481481	1.063629
H192	H	1.332814	0.981481	1.563629
H193	H	0.548232	0.294527	0.229575
H194	H	1.048232	0.794527	0.729575
O195	O	0.822202	0.495149	0.936256
O196	O	1.322202	0.995149	1.436256
H197	H	0.794322	0.530993	0.969981
H198	H	1.294322	1.030993	1.469981
O199	O	0.988879	0.280958	0.532734
O200	O	1.488879	0.780958	1.032734
H201	H	1.016754	0.245080	0.566499
H202	H	1.516754	0.745080	1.066499
O203	O	0.895215	0.539073	0.734492
O204	O	1.395215	1.039073	1.234492
H205	H	0.891765	0.589576	0.768235
H206	H	1.391765	1.089576	1.268235
