data_functionalizedCrystal
_audit_creation_method	'MofGen! by Chris Wilmer'
_symmetry_space_group_name_H-M	'P1'
_symmetry_Int_Tables_number	1
_symmetry_cell_setting	triclinic
loop_
_symmetry_equiv_pos_as_xyz
  x,y,z
_cell_length_a	16.120484
_cell_length_b	10.686220
_cell_length_c	10.685880
_cell_angle_alpha	90.358431
_cell_angle_beta	97.443083
_cell_angle_gamma	82.929033
loop_
_atom_site_label
_atom_site_type_symbol
_atom_site_fract_x
_atom_site_fract_y
_atom_site_fract_z
Zn1	Zn	-0.262275	-1.953705	-0.583880
Zn2	Zn	0.237725	-1.453705	-0.083880
Zn3	Zn	-0.392927	-1.928247	-0.384842
Zn4	Zn	0.107073	-1.428247	0.115158
Zn5	Zn	-0.263987	-1.727713	-0.390343
Zn6	Zn	0.236013	-1.227713	0.109657
Zn7	Zn	-0.414283	-1.733154	-0.612365
Zn8	Zn	0.085717	-1.233154	-0.112365
O9	O	-0.333368	-1.835705	-0.492858
O10	O	0.166632	-1.335705	0.007142
O11	O	-0.269952	-2.126553	-0.543254
O12	O	0.230048	-1.626553	-0.043254
O13	O	-0.367602	-1.888714	-0.209356
O14	O	0.132398	-1.388714	0.290644
O15	O	-0.146183	-1.766069	-0.406398
O16	O	0.353817	-1.266069	0.093602
O17	O	-0.365941	-2.107849	-0.397021
O18	O	0.134059	-1.607849	0.102979
O19	O	-0.144925	-1.932104	-0.548589
O20	O	0.355075	-1.432104	-0.048589
O21	O	-0.272871	-1.741383	-0.213398
O22	O	0.227129	-1.241383	0.286602
O23	O	-0.293579	-1.552210	-0.434018
O24	O	0.206421	-1.052210	0.065982
O25	O	-0.402340	-1.775341	-0.784802
O26	O	0.097660	-1.275341	-0.284802
O27	O	-0.404000	-1.556206	-0.597137
O28	O	0.096000	-1.056206	-0.097137
O29	O	-0.290660	-1.937380	-0.763874
O30	O	0.209340	-1.437380	-0.263874
O31	O	-0.513337	-1.893990	-0.424642
O32	O	-0.013337	-1.393990	0.075358
O33	O	-0.529027	-1.750655	-0.591802
O34	O	-0.029027	-1.250655	-0.091802
C35	C	-0.351293	-1.508515	-0.519266
C36	C	0.148707	-1.008515	-0.019266
C37	C	-0.358983	-1.368542	-0.530595
C38	C	0.141017	-0.868542	-0.030595
C39	C	-0.551668	-1.820186	-0.510741
C40	C	-0.051668	-1.320186	-0.010741
C41	C	-0.645053	-1.813666	-0.518424
C42	C	-0.145053	-1.313666	-0.018424
C43	C	-0.348691	-1.859807	-0.821306
C44	C	0.151309	-1.359807	-0.321306
C45	C	-0.355221	-1.870078	-0.961271
C46	C	0.144779	-1.370078	-0.461271
C47	C	-0.816029	-1.801771	-0.532477
C48	C	-0.316029	-1.301771	-0.032477
C49	C	-0.849855	-1.869866	-0.453241
C50	C	-0.349855	-1.369866	0.046759
C51	C	-0.944992	-1.863247	-0.461060
C52	C	-0.444992	-1.363247	0.038940
C53	C	-0.720884	-1.808388	-0.524659
C54	C	-0.220884	-1.308388	-0.024659
C55	C	-0.114215	-1.851320	-0.474930
C56	C	0.385785	-1.351320	0.025070
C57	C	-0.020825	-1.857974	-0.467290
C58	C	0.479175	-1.357974	0.032710
C59	C	-0.315374	-2.164172	-0.466347
C60	C	0.184626	-1.664172	0.033653
C61	C	-0.307705	-2.304146	-0.455049
C62	C	0.192295	-1.804146	0.044951
C63	C	-0.318040	-1.811773	-0.165676
C64	C	0.181960	-1.311773	0.334324
C65	C	-0.311260	-1.801763	-0.025673
C66	C	0.188740	-1.301763	0.474327
H67	H	-0.807363	-1.933134	-0.379533
H68	H	-0.307363	-1.433134	0.120467
O69	O	-0.425001	-1.299714	-0.627655
O70	O	0.074999	-0.799714	-0.127655
H71	H	-0.461378	-1.368895	-0.681168
H72	H	0.038622	-0.868895	-0.181168
O73	O	-0.872303	-1.717941	-0.630089
O74	O	-0.372303	-1.217941	-0.130089
H75	H	-0.939277	-1.725819	-0.620967
H76	H	-0.439277	-1.225819	-0.120967
H77	H	-0.268630	-1.735407	-0.973733
H78	H	0.231370	-1.235407	-0.473733
H79	H	-0.397857	-1.936433	-1.013218
H80	H	0.102143	-1.436433	-0.513218
O81	O	-0.241761	-1.372962	-0.357892
O82	O	0.258239	-0.872962	0.142108
H83	H	-0.252834	-1.339507	-0.262215
H84	H	0.247166	-0.839507	0.237785
