data_functionalizedCrystal
_audit_creation_method	'MofGen! by Chris Wilmer'
_symmetry_space_group_name_H-M	'P1'
_symmetry_Int_Tables_number	1
_symmetry_cell_setting	triclinic
loop_
_symmetry_equiv_pos_as_xyz
  x,y,z
_cell_length_a	25.639242
_cell_length_b	25.639239
_cell_length_c	25.639234
_cell_angle_alpha	90.024905
_cell_angle_beta	90.029352
_cell_angle_gamma	90.034213
loop_
_atom_site_label
_atom_site_type_symbol
_atom_site_fract_x
_atom_site_fract_y
_atom_site_fract_z
Zn1	Zn	0.799262	-0.208245	0.295742
Zn2	Zn	1.299262	0.291755	0.795742
Zn3	Zn	0.799175	-0.295673	0.208307
Zn4	Zn	1.299175	0.204327	0.708307
Zn5	Zn	0.711827	-0.208247	0.208306
Zn6	Zn	1.211827	0.291753	0.708306
Zn7	Zn	0.711784	-0.295644	0.295696
Zn8	Zn	1.211784	0.204356	0.795696
O9	O	0.755512	-0.251952	0.252013
O10	O	1.255512	0.248048	0.752013
O11	O	0.872416	-0.219854	0.284163
O12	O	1.372416	0.280146	0.784163
O13	O	0.787570	-0.284089	0.135141
O14	O	1.287570	0.215911	0.635141
O15	O	0.723481	-0.135081	0.219924
O16	O	1.223481	0.364919	0.719924
O17	O	0.872351	-0.284087	0.219924
O18	O	1.372351	0.215913	0.719924
O19	O	0.787719	-0.135080	0.284163
O20	O	1.287719	0.364920	0.784163
O21	O	0.723396	-0.219857	0.135141
O22	O	1.223396	0.280143	0.635141
O23	O	0.638656	-0.219829	0.219880
O24	O	1.138656	0.280171	0.719880
O25	O	0.723406	-0.284038	0.368868
O26	O	1.223406	0.215962	0.868868
O27	O	0.638624	-0.284040	0.284085
O28	O	1.138624	0.215960	0.784085
O29	O	0.787676	-0.219826	0.368901
O30	O	1.287676	0.280174	0.868901
O31	O	0.787527	-0.368835	0.219880
O32	O	1.287527	0.131165	0.719880
O33	O	0.723321	-0.368813	0.284085
O34	O	1.223321	0.131187	0.784085
C35	C	0.619669	-0.251932	0.251977
C36	C	1.119669	0.248068	0.751977
C37	C	0.561555	-0.251935	0.251975
C38	C	1.061555	0.248065	0.751975
C39	C	0.201184	-0.285443	0.285413
C40	C	0.701184	0.214557	0.785413
C41	C	0.146580	-0.285446	0.285421
C42	C	0.646580	0.214554	0.785421
O43	O	0.118337	-0.313909	0.313821
O44	O	0.618337	0.186091	0.813821
N45	N	0.119273	-0.251967	0.252047
N46	N	0.619273	0.248033	0.752047
C47	C	0.146573	-0.218478	0.218666
C48	C	0.646573	0.281522	0.718666
O49	O	0.118332	-0.190002	0.190280
O50	O	0.618332	0.309998	0.690280
C51	C	0.201176	-0.218473	0.218661
C52	C	0.701176	0.281527	0.718661
C53	C	0.228481	-0.251958	0.252034
C54	C	0.728481	0.248042	0.752034
C55	C	0.228489	-0.318925	0.318783
C56	C	0.728489	0.181075	0.818783
C57	C	0.283089	-0.318922	0.318774
C58	C	0.783089	0.181078	0.818774
C59	C	0.310385	-0.285437	0.285395
C60	C	0.810385	0.214563	0.785395
C61	C	0.283081	-0.251955	0.252024
C62	C	0.783081	0.248045	0.752024
C63	C	0.228475	-0.184982	0.185283
C64	C	0.728475	0.315018	0.685283
C65	C	0.283082	-0.184980	0.185281
C66	C	0.783082	0.315020	0.685281
C67	C	0.310387	-0.218465	0.218654
C68	C	0.810387	0.281535	0.718654
C69	C	0.364978	-0.218468	0.218636
C70	C	0.864978	0.281532	0.718636
N71	N	0.392285	-0.251947	0.252010
N72	N	0.892285	0.248053	0.752010
C73	C	0.364989	-0.285432	0.285389
C74	C	0.864989	0.214568	0.785389
C75	C	0.031902	-0.218492	0.218680
C76	C	0.531902	0.281508	0.718680
C77	C	-0.022700	-0.218499	0.218683
C78	C	0.477300	0.281501	0.718683
C79	C	-0.022689	-0.285466	0.285438
C80	C	0.477311	0.214534	0.785438
C81	C	0.031914	-0.285461	0.285433
C82	C	0.531914	0.214539	0.785433
C83	C	0.059209	-0.251971	0.252054
C84	C	0.559209	0.248029	0.752054
C85	C	0.479654	-0.285424	0.285368
C86	C	0.979654	0.214576	0.785368
C87	C	0.534259	-0.285420	0.285354
C88	C	1.034259	0.214580	0.785354
C89	C	0.534243	-0.218451	0.218601
C90	C	1.034243	0.281549	0.718601
C91	C	0.479643	-0.218457	0.218612
C92	C	0.979643	0.281543	0.718612
C93	C	0.452349	-0.251945	0.252000
C94	C	0.952349	0.248055	0.752000
O95	O	0.393256	-0.190018	0.190252
O96	O	0.893256	0.309982	0.690252
O97	O	0.393236	-0.313899	0.313776
O98	O	0.893236	0.186101	0.813776
C99	C	0.755424	-0.387795	0.251989
C100	C	1.255424	0.112205	0.751989
C101	C	0.755434	-0.445909	0.251996
C102	C	1.255434	0.054091	0.751996
C103	C	0.789031	-0.806270	0.218638
C104	C	1.289031	-0.306270	0.718638
C105	C	0.789051	-0.860875	0.218645
C106	C	1.289051	-0.360875	0.718645
O107	O	0.817526	-0.889110	0.190257
O108	O	1.317526	-0.389110	0.690257
N109	N	0.755604	-0.888191	0.252048
N110	N	1.255604	-0.388191	0.752048
C111	C	0.722138	-0.860901	0.285449
C112	C	1.222138	-0.360901	0.785449
O113	O	0.693690	-0.889150	0.313861
O114	O	1.193690	-0.389150	0.813861
C115	C	0.722120	-0.806298	0.285444
C116	C	1.222120	-0.306298	0.785444
C117	C	0.755566	-0.778984	0.252036
C118	C	1.255566	-0.278984	0.752036
C119	C	0.822475	-0.778957	0.185233
C120	C	1.322475	-0.278957	0.685233
C121	C	0.822454	-0.724356	0.185226
C122	C	1.322454	-0.224356	0.685226
C123	C	0.788989	-0.697069	0.218623
C124	C	1.288989	-0.197069	0.718623
C125	C	0.755545	-0.724383	0.252028
C126	C	1.255545	-0.224383	0.752028
C127	C	0.688657	-0.779008	0.318847
C128	C	1.188657	-0.279008	0.818847
C129	C	0.688643	-0.724401	0.318840
C130	C	1.188643	-0.224401	0.818840
C131	C	0.722089	-0.697087	0.285432
C132	C	1.222089	-0.197087	0.785432
C133	C	0.722059	-0.642496	0.285418
C134	C	1.222059	-0.142496	0.785418
N135	N	0.755507	-0.615179	0.252016
N136	N	1.255507	-0.115179	0.752016
C137	C	0.788972	-0.642466	0.218619
C138	C	1.288972	-0.142466	0.718619
C139	C	0.722177	-0.975571	0.285457
C140	C	1.222177	-0.475571	0.785457
C141	C	0.722191	-1.030174	0.285459
C142	C	1.222191	-0.530174	0.785459
C143	C	0.789106	-1.030144	0.218656
C144	C	1.289106	-0.530144	0.718656
C145	C	0.789089	-0.975541	0.218652
C146	C	1.289089	-0.475541	0.718652
C147	C	0.755625	-0.948255	0.252055
C148	C	1.255625	-0.448255	0.752055
C149	C	0.788925	-0.527801	0.218605
C150	C	1.288925	-0.027801	0.718605
C151	C	0.788899	-0.473196	0.218599
C152	C	1.288899	0.026804	0.718599
C153	C	0.721987	-0.473230	0.285403
C154	C	1.221987	0.026770	0.785403
C155	C	0.722010	-0.527831	0.285408
C156	C	1.222010	-0.027831	0.785408
C157	C	0.755483	-0.555115	0.252007
C158	C	1.255483	-0.055115	0.752007
O159	O	0.693601	-0.614226	0.313794
O160	O	1.193601	-0.114226	0.813794
O161	O	0.817419	-0.614210	0.190216
O162	O	1.317419	-0.114210	0.690216
C163	C	0.891885	-0.251973	0.252049
C164	C	1.391885	0.248027	0.752049
C165	C	0.949999	-0.251982	0.252064
C166	C	1.449999	0.248018	0.752064
C167	C	0.755546	-0.251928	0.388386
C168	C	1.255546	0.248072	0.888386
C169	C	0.755560	-0.251918	0.446500
C170	C	1.255560	0.248082	0.946500
C171	C	0.755614	-0.115579	0.252048
C172	C	1.255614	0.384421	0.752048
C173	C	0.755658	-0.057465	0.252064
C174	C	1.255658	0.442535	0.752064
C175	C	0.755508	-0.251938	0.116170
C176	C	1.255508	0.248062	0.616170
C177	C	0.755595	-0.251801	0.058057
C178	C	1.255595	0.248199	0.558057
C179	C	0.722160	-0.218411	0.806869
C180	C	1.222160	0.281589	1.306869
C181	C	0.722163	-0.218401	0.861473
C182	C	1.222163	0.281599	1.361473
O183	O	0.693738	-0.189969	0.889714
O184	O	1.193738	0.310031	1.389714
N185	N	0.755578	-0.251836	0.888783
N186	N	1.255578	0.248164	1.388783
C187	C	0.788988	-0.285287	0.861485
C188	C	1.288988	0.214713	1.361485
O189	O	0.817411	-0.313726	0.889728
O190	O	1.317411	0.186274	1.389728
C191	C	0.788983	-0.285299	0.806882
C192	C	1.288983	0.214701	1.306882
C193	C	0.755569	-0.251857	0.779575
C194	C	1.255569	0.248143	1.279575
C195	C	0.688749	-0.184972	0.779562
C196	C	1.188749	0.315028	1.279562
C197	C	0.688747	-0.184981	0.724961
C198	C	1.188747	0.315019	1.224961
C199	C	0.722156	-0.218428	0.697668
C200	C	1.222156	0.281572	1.197668
C201	C	0.755567	-0.251866	0.724974
C202	C	1.255567	0.248134	1.224974
C203	C	0.822390	-0.318752	0.779585
C204	C	1.322390	0.181248	1.279585
C205	C	0.822381	-0.318761	0.724978
C206	C	1.322381	0.181239	1.224978
C207	C	0.788968	-0.285319	0.697672
C208	C	1.288968	0.214681	1.197672
C209	C	0.788974	-0.285322	0.643080
C210	C	1.288974	0.214678	1.143080
N211	N	0.755559	-0.251887	0.615771
N212	N	1.255559	0.248113	1.115771
C213	C	0.722150	-0.218440	0.643064
C214	C	1.222150	0.281560	1.143064
C215	C	0.788998	-0.285260	0.976156
C216	C	1.288998	0.214740	1.476156
C217	C	0.789006	-0.285246	1.030758
C218	C	1.289006	0.214754	1.530758
C219	C	0.722180	-0.218361	1.030742
C220	C	1.222180	0.281639	1.530742
C221	C	0.722174	-0.218373	0.976139
C222	C	1.222174	0.281627	1.476139
C223	C	0.755583	-0.251825	0.948846
C224	C	1.255583	0.248175	1.448846
C225	C	0.722149	-0.218461	0.528399
C226	C	1.222149	0.281539	1.028399
C227	C	0.722151	-0.218471	0.473794
C228	C	1.222151	0.281529	0.973794
C229	C	0.788976	-0.285358	0.473814
C230	C	1.288976	0.214642	0.973814
C231	C	0.788975	-0.285346	0.528415
C232	C	1.288975	0.214654	1.028415
C233	C	0.755558	-0.251896	0.555706
C234	C	1.255558	0.248104	1.055706
O235	O	0.817383	-0.313741	0.614804
O236	O	1.317383	0.186259	1.114804
O237	O	0.693728	-0.190011	0.614814
O238	O	1.193728	0.309989	1.114814
H239	H	0.457438	-0.312692	0.312556
H240	H	0.957438	0.187308	0.812556
H241	H	0.816221	-0.312472	1.052987
H242	H	1.316221	0.187528	1.552987
C243	C	0.829613	-0.389069	0.840977
C244	C	1.329613	0.110931	1.340977
C245	C	0.859121	-0.355505	0.809598
C246	C	1.359121	0.144495	1.309598
H247	H	0.852292	-0.411756	0.859509
H248	H	1.352292	0.088244	1.359509
H249	H	0.806821	-0.409069	0.819663
H250	H	1.306821	0.090931	1.319663
H251	H	0.809719	-0.369143	0.865047
H252	H	1.309719	0.130857	1.365047
H253	H	0.879012	-0.375432	0.785525
H254	H	1.379012	0.124568	1.285525
H255	H	0.881922	-0.335503	0.830915
H256	H	1.381922	0.164497	1.330915
C257	C	0.859323	-0.292551	0.914782
C258	C	1.359323	0.207449	1.414782
C259	C	0.825729	-0.322028	0.946157
C260	C	1.325729	0.177972	1.446157
H261	H	0.881996	-0.315252	0.896262
H262	H	1.381996	0.184748	1.396262
H263	H	0.879337	-0.269772	0.936097
H264	H	1.379337	0.230228	1.436097
H265	H	0.839418	-0.272645	0.890701
H266	H	1.339418	0.227355	1.390701
H267	H	0.845634	-0.341932	0.970240
H268	H	1.345634	0.158068	1.470240
H269	H	0.805713	-0.344816	0.924840
H270	H	1.305713	0.155184	1.424840
H271	H	0.206270	-0.346192	0.345967
H272	H	0.706270	0.153808	0.845967
H273	H	0.054123	-0.191221	0.191496
H274	H	0.554123	0.308779	0.691496
H275	H	0.816189	-0.312571	0.550650
H276	H	1.316189	0.187429	1.050650
C277	C	-0.106392	-0.315196	0.315092
C278	C	0.393608	0.184804	0.815092
C279	C	-0.052700	-0.322269	0.322135
C280	C	0.447300	0.177731	0.822135
H281	H	-0.124920	-0.337913	0.337749
H282	H	0.375080	0.162087	0.837749
H283	H	-0.115363	-0.322804	0.279954
H284	H	0.384637	0.177196	0.779954
H285	H	-0.115308	-0.280074	0.322805
H286	H	0.384692	0.219926	0.822805
H287	H	-0.043784	-0.357390	0.314418
H288	H	0.456216	0.142610	0.814418
H289	H	-0.043726	-0.314665	0.357281
H290	H	0.456274	0.185335	0.857281
H291	H	0.556478	-0.191191	0.191422
H292	H	1.056478	0.308809	0.691422
H293	H	0.816183	-0.550009	0.191408
H294	H	1.316183	-0.050009	0.691408
C295	C	0.418284	-0.148111	0.211498
C296	C	0.918284	0.351889	0.711498
C297	C	0.449631	-0.181644	0.181932
C298	C	0.949631	0.318356	0.681932
H299	H	0.399758	-0.125380	0.188856
H300	H	0.899758	0.374620	0.688856
H301	H	0.439618	-0.128156	0.234310
H302	H	0.939618	0.371844	0.734310
H303	H	0.394208	-0.168057	0.231373
H304	H	0.894208	0.331943	0.731373
H305	H	0.473710	-0.161698	0.162061
H306	H	0.973710	0.338302	0.662061
H307	H	0.428295	-0.201601	0.159111
H308	H	0.928295	0.298399	0.659111
C309	C	0.855047	-0.478659	0.152568
C310	C	1.355047	0.021341	0.652568
C311	C	0.825668	-0.443173	0.181876
C312	C	1.325668	0.056827	0.681876
H313	H	0.877748	-0.460125	0.129901
H314	H	1.377748	0.039875	0.629901
H315	H	0.832286	-0.499988	0.132548
H316	H	1.332286	0.000012	0.632548
H317	H	0.875038	-0.499925	0.175379
H318	H	1.375038	0.000075	0.675379
H319	H	0.805673	-0.421910	0.159065
H320	H	1.305673	0.078090	0.659065
H321	H	0.848432	-0.421835	0.201897
H322	H	1.348432	0.078165	0.701897
H323	H	0.849590	-0.345999	0.702760
H324	H	1.349590	0.154001	1.202760
C325	C	0.600229	-0.159509	0.708130
C326	C	1.100229	0.340491	1.208130
C327	C	0.652012	-0.148227	0.694950
C328	C	1.152012	0.351773	1.194950
H329	H	0.577548	-0.136820	0.689602
H330	H	1.077548	0.363180	1.189602
H331	H	0.595460	-0.154719	0.744553
H332	H	1.095460	0.345281	1.244553
H333	H	0.592558	-0.194640	0.699163
H334	H	1.092558	0.305360	1.199163
H335	H	0.659683	-0.113097	0.703920
H336	H	1.159683	0.386903	1.203920
H337	H	0.656783	-0.153013	0.658519
H338	H	1.156783	0.346987	1.158519
C339	C	-0.039533	-0.192915	0.130192
C340	C	0.460467	0.307085	0.630192
C341	C	-0.052703	-0.181696	0.181989
C342	C	0.447297	0.318304	0.681989
H343	H	-0.058051	-0.170189	0.107539
H344	H	0.441949	0.329811	0.607539
H345	H	-0.048514	-0.228028	0.122483
H346	H	0.451486	0.271972	0.622483
H347	H	-0.003104	-0.188127	0.125425
H348	H	0.496896	0.311873	0.625425
H349	H	-0.089132	-0.186487	0.186757
H350	H	0.410868	0.313513	0.686757
H351	H	-0.043725	-0.146573	0.189701
H352	H	0.456275	0.353427	0.689701
C353	C	0.818630	-0.315070	0.390113
C354	C	1.318630	0.184930	0.890113
C355	C	0.825695	-0.322125	0.443806
C356	C	1.325695	0.177875	0.943806
H357	H	0.841295	-0.337773	0.371588
H358	H	1.341295	0.162227	0.871588
H359	H	0.826312	-0.279948	0.381182
H360	H	1.326312	0.220052	0.881182
H361	H	0.783490	-0.322714	0.381157
H362	H	1.283490	0.177286	0.881157
H363	H	0.860834	-0.314477	0.452763
H364	H	1.360834	0.185523	0.952763
H365	H	0.818017	-0.357255	0.452742
H366	H	1.318017	0.142745	0.952742
C367	C	0.852280	-0.862642	0.155622
C368	C	1.352280	-0.362642	0.655622
C369	C	0.859301	-0.808945	0.148556
C370	C	1.359301	-0.308945	0.648556
H371	H	0.875029	-0.881151	0.132989
H372	H	1.375029	-0.381151	0.632989
H373	H	0.817176	-0.871647	0.147897
H374	H	1.317176	-0.371647	0.647897
H375	H	0.859883	-0.871545	0.190773
H376	H	1.359883	-0.371545	0.690773
H377	H	0.851694	-0.800041	0.113406
H378	H	1.351694	-0.300041	0.613406
H379	H	0.894413	-0.799936	0.156278
H380	H	1.394413	-0.299936	0.656278
C381	C	0.696770	-0.129822	1.047583
C382	C	1.196770	0.370178	1.547583
C383	C	0.685452	-0.181600	1.060754
C384	C	1.185452	0.318400	1.560754
H385	H	0.674099	-0.107130	1.066116
H386	H	1.174099	0.392870	1.566116
H387	H	0.691979	-0.125040	1.011162
H388	H	1.191979	0.374960	1.511162
H389	H	0.731907	-0.122179	1.056549
H390	H	1.231907	0.377821	1.556549
H391	H	0.650316	-0.189244	1.051784
H392	H	1.150316	0.310756	1.551784
H393	H	0.690239	-0.186384	1.097184
H394	H	1.190239	0.313616	1.597184
C395	C	0.618417	-0.177675	0.840927
C396	C	1.118417	0.322325	1.340927
C397	C	0.652018	-0.148204	0.809554
C398	C	1.152018	0.351796	1.309554
H399	H	0.595738	-0.154972	0.859436
H400	H	1.095738	0.345028	1.359436
H401	H	0.638313	-0.197576	0.865011
H402	H	1.138313	0.302424	1.365011
H403	H	0.598404	-0.200460	0.819607
H404	H	1.098404	0.299540	1.319607
H405	H	0.672033	-0.125422	0.830874
H406	H	1.172033	0.374578	1.330874
H407	H	0.632120	-0.128294	0.785466
H408	H	1.132120	0.371706	1.285466
H409	H	0.556488	-0.312690	0.312530
H410	H	1.056488	0.187310	0.812530
H411	H	0.661393	-0.702188	0.346042
H412	H	1.161393	-0.202188	0.846042
C413	C	0.655869	-0.522373	0.351442
C414	C	1.155869	-0.022373	0.851442
C415	C	0.685246	-0.557857	0.322130
C416	C	1.185246	-0.057857	0.822130
H417	H	0.633178	-0.540908	0.374118
H418	H	1.133178	-0.040908	0.874118
H419	H	0.635871	-0.501114	0.328637
H420	H	1.135871	-0.001114	0.828637
H421	H	0.678636	-0.501037	0.371457
H422	H	1.178636	-0.001037	0.871457
H423	H	0.662480	-0.579191	0.302112
H424	H	1.162480	-0.079191	0.802112
H425	H	0.705245	-0.579125	0.344938
H426	H	1.205245	-0.079125	0.844938
C427	C	0.714930	-0.148143	0.412408
C428	C	1.214930	0.351857	0.912408
C429	C	0.685419	-0.181712	0.443779
C430	C	1.185419	0.318288	0.943779
H431	H	0.692252	-0.125449	0.393882
H432	H	1.192252	0.374551	0.893882
H433	H	0.734821	-0.168062	0.388337
H434	H	1.234821	0.331938	0.888337
H435	H	0.737725	-0.128146	0.433731
H436	H	1.237725	0.371854	0.933731
H437	H	0.662627	-0.201712	0.422456
H438	H	1.162627	0.298288	0.922456
H439	H	0.665519	-0.161790	0.467852
H440	H	1.165519	0.338210	0.967852
C441	C	0.855230	-0.981008	0.152621
C442	C	1.355230	-0.481008	0.652621
C443	C	0.825857	-0.945520	0.181932
C444	C	1.325857	-0.445520	0.681932
H445	H	0.877932	-0.962476	0.129954
H446	H	1.377932	-0.462476	0.629954
H447	H	0.832466	-1.002334	0.132601
H448	H	1.332466	-0.502334	0.632601
H449	H	0.875220	-1.002277	0.175431
H450	H	1.375220	-0.502277	0.675431
H451	H	0.805863	-0.924253	0.159122
H452	H	1.305863	-0.424253	0.659122
H453	H	0.848624	-0.924185	0.201953
H454	H	1.348624	-0.424185	0.701953
C455	C	0.233972	-0.118778	0.119313
C456	C	0.733972	0.381222	0.619313
C457	C	0.198472	-0.148169	0.148603
C458	C	0.698472	0.351831	0.648603
H459	H	0.215449	-0.096047	0.096671
H460	H	0.715449	0.403953	0.596671
H461	H	0.255241	-0.141529	0.099269
H462	H	0.755241	0.358471	0.599269
H463	H	0.255298	-0.098818	0.142138
H464	H	0.755298	0.401182	0.642138
H465	H	0.177149	-0.168132	0.125778
H466	H	0.677149	0.331868	0.625778
H467	H	0.177194	-0.125415	0.168649
H468	H	0.677194	0.374585	0.668649
H469	H	0.694937	-0.191222	0.550613
H470	H	1.194937	0.308778	1.050613
H471	H	0.054142	-0.312727	0.312609
H472	H	0.554142	0.187273	0.812609
C473	C	0.714840	-0.914142	0.355780
C474	C	1.214840	-0.414142	0.855780
C475	C	0.685384	-0.945582	0.322172
C476	C	1.185384	-0.445582	0.822172
H477	H	0.692126	-0.895633	0.378448
H478	H	1.192126	-0.395633	0.878448
H479	H	0.734750	-0.890058	0.335889
H480	H	1.234750	-0.390058	0.835889
H481	H	0.737615	-0.935417	0.375804
H482	H	1.237615	-0.435417	0.875804
H483	H	0.662612	-0.924306	0.302146
H484	H	1.162612	-0.424306	0.802146
H485	H	0.665466	-0.969669	0.342065
H486	H	1.165466	-0.469669	0.842065
H487	H	0.305303	-0.157704	0.158103
H488	H	0.805303	0.342296	0.658103
C489	C	0.277598	-0.385109	0.384763
C490	C	0.777598	0.114891	0.884763
C491	C	0.313098	-0.355725	0.355464
C492	C	0.813098	0.144275	0.855464
H493	H	0.296123	-0.407827	0.407418
H494	H	0.796123	0.092173	0.907418
H495	H	0.256280	-0.405078	0.361948
H496	H	0.756280	0.094922	0.861948
H497	H	0.256323	-0.362349	0.404799
H498	H	0.756323	0.137651	0.904799
H499	H	0.334370	-0.378485	0.335425
H500	H	0.834370	0.121515	0.835425
H501	H	0.334425	-0.335754	0.378282
H502	H	0.834425	0.164246	0.878282
C503	C	0.888604	-0.729828	0.119205
C504	C	1.388604	-0.229828	0.619205
C505	C	0.859227	-0.694337	0.148510
C506	C	1.359227	-0.194337	0.648510
H507	H	0.911311	-0.711297	0.096541
H508	H	1.411311	-0.211297	0.596541
H509	H	0.865842	-0.751153	0.099182
H510	H	1.365842	-0.251153	0.599182
H511	H	0.908589	-0.751098	0.142019
H512	H	1.408589	-0.251098	0.642019
H513	H	0.839239	-0.673070	0.125696
H514	H	1.339239	-0.173070	0.625696
H515	H	0.881992	-0.673003	0.168534
H516	H	1.381992	-0.173003	0.668534
H517	H	0.694738	-0.451005	0.312594
H518	H	1.194738	0.048995	0.812594
H519	H	0.661419	-0.801238	0.346049
H520	H	1.161419	-0.301238	0.846049
C521	C	0.818909	-1.113839	0.189076
C522	C	1.318909	-0.613839	0.689076
C523	C	0.825939	-1.060145	0.181991
C524	C	1.325939	-0.560145	0.681991
H525	H	0.841662	-1.132359	0.166456
H526	H	1.341662	-0.632359	0.666456
H527	H	0.783806	-1.122842	0.181344
H528	H	1.283806	-0.622842	0.681344
H529	H	0.826501	-1.122729	0.224233
H530	H	1.326501	-0.622729	0.724233
H531	H	0.818343	-1.051253	0.146835
H532	H	1.318343	-0.551253	0.646835
H533	H	0.861050	-1.051137	0.189719
H534	H	1.361050	-0.551137	0.689719
H535	H	0.694951	-1.052408	0.312659
H536	H	1.194951	-0.552408	0.812659
C537	C	0.714949	-0.148050	0.914750
C538	C	1.214949	0.351950	1.414750
C539	C	0.685442	-0.181616	0.946127
C540	C	1.185442	0.318384	1.446127
H541	H	0.692269	-0.125356	0.896227
H542	H	1.192269	0.374644	1.396227
H543	H	0.734837	-0.167970	0.890677
H544	H	1.234837	0.332030	1.390677
H545	H	0.737747	-0.128052	0.936069
H546	H	1.237747	0.371948	1.436069
H547	H	0.662646	-0.201617	0.924807
H548	H	1.162646	0.298383	1.424807
H549	H	0.665545	-0.161694	0.970202
H550	H	1.165545	0.338306	1.470202
