data_functionalizedCrystal
_audit_creation_method	'MofGen! by Chris Wilmer'
_symmetry_space_group_name_H-M	'P1'
_symmetry_Int_Tables_number	1
_symmetry_cell_setting	triclinic
loop_
_symmetry_equiv_pos_as_xyz
  x,y,z
_cell_length_a	13.033808
_cell_length_b	13.031981
_cell_length_c	13.032268
_cell_angle_alpha	89.068348
_cell_angle_beta	103.297372
_cell_angle_gamma	105.194505
loop_
_atom_site_label
_atom_site_type_symbol
_atom_site_fract_x
_atom_site_fract_y
_atom_site_fract_z
Zn1	Zn	1.517110	-0.269352	-0.364212
Zn2	Zn	1.522746	-0.418745	-0.169769
Zn3	Zn	1.362056	-0.269426	-0.209143
Zn4	Zn	1.316947	-0.469535	-0.364102
O5	O	1.429715	-0.356765	-0.276807
O6	O	1.668876	-0.267883	-0.321987
O7	O	1.522666	-0.377713	-0.028767
O8	O	1.399144	-0.123149	-0.246237
O9	O	1.673017	-0.377641	-0.179131
O10	O	1.513062	-0.123094	-0.360166
O11	O	1.404608	-0.268009	-0.057694
O12	O	1.205053	-0.317258	-0.246131
O13	O	1.322263	-0.464205	-0.510342
O14	O	1.171912	-0.464277	-0.359978
O15	O	1.469322	-0.317131	-0.510423
O16	O	1.478927	-0.571750	-0.179024
O17	O	1.327727	-0.609065	-0.321799
C18	C	1.149325	-0.396288	-0.307316
C19	C	1.029367	-0.413224	-0.320389
C20	C	0.868269	-0.365450	-0.283513
C21	C	0.992253	-0.347945	-0.269997
C22	C	1.399069	-0.628332	-0.246147
C23	C	1.386053	-0.744501	-0.233055
C24	C	1.436562	-0.796197	-0.283654
C25	C	1.423111	-0.916264	-0.270124
C26	C	1.711199	-0.317088	-0.246179
C27	C	1.831151	-0.300180	-0.233127
C28	C	1.390132	-0.396325	-0.549358
C29	C	1.373264	-0.413184	-0.665503
C30	C	1.460506	-0.084136	-0.307606
C31	C	1.473627	0.032042	-0.320731
C32	C	1.438506	-0.347931	-0.717324
C33	C	1.421073	-0.365353	-0.837366
C34	C	1.469214	-0.317273	-0.005318
C35	C	1.486324	-0.300091	0.110816
H36	H	0.891160	-0.231344	-0.179980
C37	C	1.392610	-0.931894	-0.095047
C38	C	1.351281	-0.976496	-0.198115
H39	H	1.348260	-0.969077	-0.050597
H40	H	1.465356	-0.937248	-0.069939
H41	H	1.392224	-0.859109	-0.094705
H42	H	1.351674	-1.049279	-0.198458
H43	H	1.278516	-0.971151	-0.223230
C44	C	1.534890	-0.139659	-0.780600
C45	C	1.579148	-0.207236	-0.829135
H46	H	1.592193	-0.082335	-0.743529
H47	H	1.486244	-0.112464	-0.832818
H48	H	1.496231	-0.178347	-0.732525
H49	H	1.617800	-0.168550	-0.877216
H50	H	1.627812	-0.234432	-0.776911
H51	H	1.507263	-0.279164	-0.672820
H52	H	1.052260	-0.279104	-0.216846
H53	H	1.526828	-0.923334	-0.374076
H54	H	1.489760	-0.751571	-0.336996
C55	C	0.845297	-0.515380	-0.399276
C56	C	0.787269	-0.458378	-0.355268
H57	H	0.795290	-0.572751	-0.443573
H58	H	0.888578	-0.469544	-0.439685
H59	H	0.891363	-0.542516	-0.344412
H60	H	0.741209	-0.431235	-0.410132
H61	H	0.743969	-0.504221	-0.314857
C62	C	1.206985	-0.796847	-0.198090
C63	C	1.314226	-0.804739	-0.161051
H64	H	1.162642	-0.834039	-0.153639
H65	H	1.206612	-0.724069	-0.197728
H66	H	1.178969	-0.827098	-0.268017
H67	H	1.342246	-0.774480	-0.091126
H68	H	1.314604	-0.877531	-0.161402
C69	C	1.328948	-0.457490	-1.004719
C70	C	1.328246	-0.458196	-0.897429
H71	H	1.271646	-0.514812	-1.041796
H72	H	1.318505	-0.392068	-1.032201
H73	H	1.397167	-0.465129	-1.012922
H74	H	1.260029	-0.450549	-0.889225
H75	H	1.338681	-0.523634	-0.869939
H76	H	0.969362	-0.482071	-0.373535
C77	C	1.295832	-0.602456	-0.685030
C78	C	1.280434	-0.506019	-0.725565
H79	H	1.238516	-0.659768	-0.722104
H80	H	1.364033	-0.610096	-0.693256
H81	H	1.295371	-0.602911	-0.612238
H82	H	1.280903	-0.505561	-0.798355
H83	H	1.212215	-0.498377	-0.717348
