data_functionalizedCrystal
_audit_creation_method	'MofGen! by Chris Wilmer'
_symmetry_space_group_name_H-M	'P1'
_symmetry_Int_Tables_number	1
_symmetry_cell_setting	triclinic
loop_
_symmetry_equiv_pos_as_xyz
  x,y,z
_cell_length_a	8.559649
_cell_length_b	17.038272
_cell_length_c	7.681481
_cell_angle_alpha	83.842174
_cell_angle_beta	94.913240
_cell_angle_gamma	80.445110
loop_
_atom_site_label
_atom_site_type_symbol
_atom_site_fract_x
_atom_site_fract_y
_atom_site_fract_z
O1	O	2.102567	-0.018069	-0.146400
O2	O	1.642806	0.021983	-0.146410
O3	O	1.869955	-0.111695	-0.146391
O4	O	1.875418	0.115610	-0.146419
O5	O	1.897909	-0.128182	0.146469
O6	O	1.670760	0.005496	0.146450
O7	O	2.130521	-0.034556	0.146460
Zn8	Zn	1.905079	-0.017147	0.192953
Zn9	Zn	1.868248	0.004575	-0.192903
O10	O	1.903372	0.099123	0.146441
C11	C	1.597666	0.016775	0.000018
C12	C	1.421513	0.025810	0.000015
C13	C	1.878962	-0.148769	0.000039
C14	C	1.864132	-0.234673	0.000038
C15	C	2.000285	-0.292946	0.000043
C16	C	1.986340	-0.373660	0.000026
C17	C	1.836242	-0.396101	0.000016
C18	C	1.700079	-0.337821	0.000006
C19	C	1.714024	-0.257108	0.000010
C20	C	1.786975	-0.638906	-0.000009
C21	C	1.773041	-0.719626	-0.000008
C22	C	2.059303	-0.755459	0.000008
C23	C	2.073236	-0.674743	0.000023
C24	C	1.937072	-0.616470	0.000004
C25	C	1.821985	-0.478604	0.000004
C26	C	1.951329	-0.533968	0.000003
C27	C	2.175661	-0.029347	0.000028
C28	C	2.351812	-0.038381	0.000020
C29	C	1.894365	0.136197	0.000008
C30	C	1.909193	0.222102	-0.000003
N31	N	1.930226	-0.031973	0.456289
N32	N	1.843113	0.019394	-0.456239
H33	H	1.426899	-0.100250	0.000019
H34	H	1.346417	0.087683	-0.000002
C35	C	1.459959	-0.193236	-0.150544
C36	C	1.564360	-0.193052	0.000007
H37	H	1.367557	-0.153694	-0.150544
H38	H	1.511311	-0.181618	-0.252647
H39	H	1.430186	-0.244522	-0.150524
H40	H	1.594143	-0.141769	-0.000019
H41	H	1.512999	-0.204666	0.102136
C42	C	1.540421	-0.435084	-0.000005
C43	C	1.656997	-0.503273	-0.000004
H44	H	1.438566	-0.450317	-0.000027
H45	H	1.561551	-0.410105	0.102123
H46	H	1.542073	-0.398591	-0.102131
H47	H	1.655353	-0.539764	0.102129
H48	H	1.635862	-0.528265	-0.102143
C49	C	2.127121	-0.148066	0.438142
C50	C	2.050289	-0.102757	0.557808
H51	H	2.201245	-0.191761	0.500819
H52	H	2.050457	-0.167948	0.366254
H53	H	2.181792	-0.115217	0.366215
H54	H	1.995608	-0.135605	0.629727
H55	H	2.126964	-0.082876	0.629726
H56	H	2.073534	-0.515691	-0.000028
C57	C	1.763246	0.162423	0.486663
C58	C	1.723058	0.090174	0.442247
H59	H	1.689132	0.206119	0.423975
H60	H	1.760514	0.164031	0.609598
H61	H	1.867341	0.166121	0.456509
H62	H	1.618967	0.086473	0.472413
H63	H	1.725774	0.088566	0.319285
H64	H	2.122512	-0.274682	0.000061
H65	H	2.097211	-0.421103	0.000034
H66	H	2.195461	-0.656479	0.000031
H67	H	1.650810	-0.737894	0.000013
C68	C	2.195321	-0.858529	-0.150551
C69	C	2.208968	-0.819511	0.000005
H70	H	2.287727	-0.898068	-0.150560
H71	H	2.103948	-0.883445	-0.150538
H72	H	2.185057	-0.820534	-0.252661
H73	H	2.219219	-0.857505	0.102116
H74	H	2.300366	-0.794594	0.000009
H75	H	1.676100	-0.591469	-0.000025
H76	H	1.577864	-0.356098	-0.000013
