data_functionalizedCrystal
_audit_creation_method	'MofGen! by Chris Wilmer'
_symmetry_space_group_name_H-M	'P1'
_symmetry_Int_Tables_number	1
_symmetry_cell_setting	triclinic
loop_
_symmetry_equiv_pos_as_xyz
  x,y,z
_cell_length_a	10.654545
_cell_length_b	10.723023
_cell_length_c	9.730223
_cell_angle_alpha	90.003395
_cell_angle_beta	90.002833
_cell_angle_gamma	84.475313
loop_
_atom_site_label
_atom_site_type_symbol
_atom_site_fract_x
_atom_site_fract_y
_atom_site_fract_z
O1	O	1.667815	0.175248	0.114273
O2	O	2.167815	0.675248	0.614273
O3	O	1.302334	0.191953	0.114278
O4	O	1.802334	0.691953	0.614278
O5	O	1.493505	0.002025	0.114270
O6	O	1.993505	0.502025	0.614270
O7	O	1.476644	0.365175	0.114281
O8	O	1.976644	0.865175	0.614281
O9	O	1.493493	0.002020	-0.114310
O10	O	1.993493	0.502020	0.385690
O11	O	1.302321	0.191948	-0.114302
O12	O	1.802321	0.691948	0.385698
O13	O	1.667803	0.175243	-0.114307
O14	O	2.167803	0.675243	0.385693
Zn15	Zn	1.485060	0.183594	-0.150596
Zn16	Zn	1.985060	0.683594	0.349404
Zn17	Zn	1.485077	0.183601	0.150568
Zn18	Zn	1.985077	0.683601	0.650568
O19	O	1.476631	0.365170	-0.114298
O20	O	1.976631	0.865170	0.385702
C21	C	1.255530	0.190725	-0.000011
C22	C	1.755530	0.690725	0.499989
C23	C	1.116087	0.187059	-0.000009
C24	C	1.616087	0.687059	0.499991
C25	C	1.050576	0.185330	-0.124609
C26	C	1.550576	0.685330	0.375391
C27	C	0.919557	0.181865	-0.124609
C28	C	1.419557	0.681865	0.375391
C29	C	0.919571	0.181862	0.124602
C30	C	1.419571	0.681862	0.624602
C31	C	1.050588	0.185318	0.124600
C32	C	1.550588	0.685318	0.624600
C33	C	1.492272	-0.044477	-0.000019
C34	C	1.992272	0.455523	0.499981
C35	C	1.488602	-0.183032	-0.000014
C36	C	1.988602	0.316968	0.499986
C37	C	1.486972	-0.244795	0.118399
C38	C	1.986972	0.255205	0.618399
C39	C	1.483178	-0.387999	0.118406
C40	C	1.983178	0.112001	0.618406
C41	C	1.714607	0.176471	-0.000015
C42	C	2.214607	0.676471	0.499985
C43	C	1.854050	0.180137	-0.000008
C44	C	2.354050	0.680137	0.499992
C45	C	1.477864	0.411673	-0.000007
C46	C	1.977864	0.911673	0.499993
C47	C	1.481535	0.550227	-0.000002
C48	C	1.981535	1.050227	0.499998
N49	N	1.485058	0.183589	-0.356133
N50	N	1.985058	0.683589	0.143867
C51	C	1.569738	0.099525	-0.428062
C52	C	2.069738	0.599525	0.071938
C53	C	1.569751	0.099525	-0.571945
C54	C	2.069751	0.599525	-0.071945
C55	C	1.400399	0.267665	-0.571956
C56	C	1.900399	0.767665	-0.071956
C57	C	1.400382	0.267657	-0.428076
C58	C	1.900382	0.767657	0.071924
N59	N	1.485088	0.183597	0.356104
N60	N	1.985088	0.683597	0.856104
H61	H	0.866223	0.180457	-0.226070
H62	H	1.366223	0.680457	0.273930
Br63	Br	1.684653	-0.014570	-0.330430
Br64	Br	2.184653	0.485430	0.169570
Br65	Br	1.139507	0.187649	0.293713
Br66	Br	1.639507	0.687649	0.793713
H67	H	1.488379	-0.191655	0.219771
H68	H	1.988379	0.308345	0.719771
H69	H	1.487181	-0.236171	-0.101386
H70	H	1.987181	0.263829	0.398614
Br71	Br	0.830677	0.179462	0.293706
Br72	Br	1.330677	0.679462	0.793706
Br73	Br	1.684672	-0.014572	-0.669562
Br74	Br	2.184672	0.485428	-0.169562
Br75	Br	1.285488	0.381756	-0.669598
Br76	Br	1.785488	0.881756	-0.169598
H77	H	1.482943	-0.396666	-0.101385
H78	H	1.982943	0.103334	0.398615
Br79	Br	1.285441	0.381742	-0.330445
Br80	Br	1.785441	0.881742	0.169555
H81	H	1.103900	0.186747	-0.226073
H82	H	1.603900	0.686747	0.273927
Br83	Br	1.480857	-0.476520	0.287387
Br84	Br	1.980857	0.023480	0.787387
