data_functionalizedCrystal
_audit_creation_method	'MofGen! by Chris Wilmer'
_symmetry_space_group_name_H-M	'P1'
_symmetry_Int_Tables_number	1
_symmetry_cell_setting	triclinic
loop_
_symmetry_equiv_pos_as_xyz
  x,y,z
_cell_length_a	16.625539
_cell_length_b	12.759395
_cell_length_c	12.759394
_cell_angle_alpha	90.016374
_cell_angle_beta	90.026497
_cell_angle_gamma	90.018200
loop_
_atom_site_label
_atom_site_type_symbol
_atom_site_fract_x
_atom_site_fract_y
_atom_site_fract_z
Zn1	Zn	-0.455869	-1.606244	0.418222
Zn2	Zn	-0.321040	-1.606141	0.593923
Zn3	Zn	-0.321055	-1.430549	0.418263
Zn4	Zn	-0.455835	-1.430534	0.593864
O5	O	-0.388450	-1.518367	0.506068
O6	O	-0.437991	-1.753251	0.441536
O7	O	-0.208210	-1.582812	0.570663
O8	O	-0.338958	-1.453905	0.271236
O9	O	-0.338933	-1.753176	0.570623
O10	O	-0.438005	-1.582987	0.271206
O11	O	-0.208220	-1.453805	0.441607
O12	O	-0.338926	-1.283526	0.441550
O13	O	-0.568672	-1.453879	0.570523
O14	O	-0.437949	-1.283515	0.570563
O15	O	-0.568697	-1.582972	0.441479
O16	O	-0.338901	-1.582797	0.740936
O17	O	-0.437935	-1.453779	0.740893
C18	C	-0.388430	-1.518304	0.779035
C19	C	-0.388449	-1.518373	0.895812
C20	C	-0.388436	-1.245399	0.506055
C21	C	-0.388449	-1.128623	0.506075
C22	C	-0.598759	-1.518435	0.505990
C23	C	-0.688380	-1.518464	0.505956
C24	C	-1.016556	-1.518513	0.505838
C25	C	-0.925247	-1.518496	0.505875
C26	C	-0.852471	-1.518489	0.505898
C27	C	-0.761156	-1.518472	0.505933
C28	C	-0.178959	-1.518359	0.506070
C29	C	-0.089338	-1.518534	0.505807
C30	C	-0.388464	-1.792400	0.506081
C31	C	-0.388470	-1.909177	0.506087
C32	C	-0.491395	-1.128650	0.640634
C33	C	-0.542870	-1.073802	0.707921
C34	C	-0.542880	-0.964081	0.707934
C35	C	-0.491411	-0.909204	0.640650
C36	C	-0.439935	-0.964051	0.573362
C37	C	-0.439929	-1.073775	0.573359
C38	C	-0.336995	-0.964024	0.438800
C39	C	-0.336980	-1.073746	0.438790
C40	C	-0.285526	-0.909147	0.371515
C41	C	-0.234045	-0.963995	0.304231
C42	C	-0.234037	-1.073723	0.304222
C43	C	-0.285505	-1.128593	0.371503
C44	C	-0.388487	-1.518459	0.232034
C45	C	-0.388503	-1.518498	0.115258
C46	C	-0.285402	-1.652820	0.895804
C47	C	-0.233889	-1.720071	0.950660
C48	C	-0.233910	-1.720133	1.060382
C49	C	-0.285453	-1.652938	1.115249
C50	C	-0.336967	-1.585687	1.060393
C51	C	-0.336938	-1.585631	0.950669
C52	C	-0.440016	-1.451247	1.060401
C53	C	-0.439992	-1.451179	0.950679
C54	C	-0.491559	-1.384053	1.115268
C55	C	-0.543070	-1.316795	1.060412
C56	C	-0.543046	-1.316735	0.950684
C57	C	-0.491505	-1.383928	0.895823
H58	H	-0.491386	-1.217991	0.640638
H59	H	-0.585036	-1.262096	1.105094
C60	C	-0.599481	-1.134168	0.781929
H61	H	-0.592101	-1.207370	0.772294
H62	H	-0.653679	-1.116218	0.766653
H63	H	-0.587577	-1.116165	0.852503
C64	C	-0.491583	-1.384117	1.235959
H65	H	-0.453516	-1.433784	1.260773
H66	H	-0.543630	-1.402266	1.260720
H67	H	-0.477600	-1.316334	1.260842
H68	H	-0.584997	-1.261976	0.906025
C69	C	-0.285481	-1.653012	1.235940
H70	H	-0.247419	-1.702686	1.260752
H71	H	-0.337531	-1.671158	1.260694
H72	H	-0.271495	-1.585233	1.260832
H73	H	-0.584799	-0.919424	0.762720
C74	C	-0.491426	-0.788514	0.640660
H75	H	-0.529452	-0.763708	0.690372
H76	H	-0.505463	-0.763714	0.572888
H77	H	-0.439368	-0.763660	0.658747
H78	H	-0.285541	-0.819806	0.371526
H79	H	-0.192147	-0.919305	0.249449
C80	C	-0.177415	-1.134047	0.230201
H81	H	-0.146765	-1.085647	0.190140
H82	H	-0.208320	-1.176878	0.184478
H83	H	-0.142217	-1.176819	0.270327
C84	C	-0.285495	-1.249284	0.371492
H85	H	-0.247465	-1.274093	0.321788
H86	H	-0.337551	-1.274136	0.353420
H87	H	-0.271448	-1.274081	0.439268
C88	C	-0.285372	-1.652751	0.775113
H89	H	-0.247302	-1.702402	0.750293
H90	H	-0.271386	-1.584946	0.750363
H91	H	-0.337412	-1.670883	0.750225
H92	H	-0.191924	-1.774782	0.905978
C93	C	-0.491482	-1.383865	0.775132
H94	H	-0.529540	-1.334188	0.750316
H95	H	-0.505457	-1.451644	0.750247
H96	H	-0.439430	-1.365708	0.750376
C97	C	-0.177246	-1.794104	1.120726
H98	H	-0.146542	-1.834109	1.072340
H99	H	-0.208125	-1.839881	1.163465
H100	H	-0.142098	-1.753946	1.163592
