data_functionalizedCrystal
_audit_creation_method	'MofGen! by Chris Wilmer'
_symmetry_space_group_name_H-M	'P1'
_symmetry_Int_Tables_number	1
_symmetry_cell_setting	triclinic
loop_
_symmetry_equiv_pos_as_xyz
  x,y,z
_cell_length_a	18.101398
_cell_length_b	18.101395
_cell_length_c	18.101389
_cell_angle_alpha	89.983159
_cell_angle_beta	89.985654
_cell_angle_gamma	90.029256
loop_
_atom_site_label
_atom_site_type_symbol
_atom_site_fract_x
_atom_site_fract_y
_atom_site_fract_z
Zn1	Zn	1.132121	-0.294944	-0.418650
Zn2	Zn	1.465454	0.038390	-0.085316
Zn3	Zn	1.798788	0.371723	0.248017
Zn4	Zn	1.132017	-0.418770	-0.294812
Zn5	Zn	1.465350	-0.085436	0.038522
Zn6	Zn	1.798683	0.247897	0.371855
Zn7	Zn	1.008280	-0.294942	-0.294832
Zn8	Zn	1.341613	0.038391	0.038501
Zn9	Zn	1.674947	0.371724	0.371834
Zn10	Zn	1.008231	-0.418744	-0.418622
Zn11	Zn	1.341564	-0.085411	-0.085288
Zn12	Zn	1.674897	0.247923	0.248045
O13	O	1.070162	-0.356850	-0.356729
O14	O	1.403495	-0.023517	-0.023395
O15	O	1.736829	0.309817	0.309938
O16	O	1.235740	-0.311381	-0.402225
O17	O	1.569073	0.021953	-0.068892
O18	O	1.902407	0.355286	0.264441
O19	O	1.115580	-0.402354	-0.191181
O20	O	1.448913	-0.069020	0.142152
O21	O	1.782247	0.264313	0.475485
O22	O	1.024772	-0.191310	-0.311277
O23	O	1.358105	0.142024	0.022056
O24	O	1.691439	0.475357	0.355389
O25	O	1.235663	-0.402355	-0.311242
O26	O	1.568997	-0.069022	0.022091
O27	O	1.902330	0.264312	0.355425
O28	O	1.115757	-0.191311	-0.402245
O29	O	1.449091	0.142023	-0.068912
O30	O	1.782424	0.475356	0.264421
O31	O	1.024671	-0.311378	-0.191197
O32	O	1.358004	0.021955	0.142137
O33	O	1.691338	0.355288	0.475470
O34	O	0.904640	-0.311354	-0.311250
O35	O	1.237974	0.021980	0.022083
O36	O	1.571307	0.355313	0.355416
O37	O	1.024688	-0.402312	-0.522258
O38	O	1.358021	-0.068978	-0.188925
O39	O	1.691355	0.264355	0.144408
O40	O	0.904604	-0.402310	-0.402198
O41	O	1.237938	-0.068977	-0.068864
O42	O	1.571271	0.264356	0.264469
O43	O	1.115710	-0.311356	-0.522279
O44	O	1.449043	0.021977	-0.188946
O45	O	1.782376	0.355311	0.144388
O46	O	1.115532	-0.522399	-0.311215
O47	O	1.448865	-0.189066	0.022119
O48	O	1.782199	0.144268	0.355452
O49	O	1.024587	-0.522380	-0.402178
O50	O	1.357920	-0.189047	-0.068844
O51	O	1.691254	0.144286	0.264489
C52	C	0.877752	-0.356830	-0.356724
C53	C	1.211085	-0.023496	-0.023390
C54	C	1.544418	0.309837	0.309943
C55	C	0.795437	-0.356839	-0.356739
C56	C	1.128771	-0.023505	-0.023406
C57	C	1.462104	0.309828	0.309928
C58	C	0.644729	-0.356852	-0.356738
C59	C	0.978062	-0.023519	-0.023405
C60	C	1.311396	0.309814	0.309929
C61	C	0.613377	-0.414168	-0.413871
C62	C	0.946711	-0.080835	-0.080538
C63	C	1.280044	0.252499	0.252796
C64	C	0.527759	-0.414400	-0.413702
C65	C	0.861092	-0.081067	-0.080368
C66	C	1.194426	0.252267	0.252965
C67	C	0.496346	-0.356866	-0.356738
C68	C	0.829680	-0.023533	-0.023405
C69	C	1.163013	0.309801	0.309929
C70	C	0.527399	-0.377679	-0.278597
C71	C	0.860733	-0.044346	0.054737
C72	C	1.194066	0.288987	0.388070
C73	C	0.613044	-0.378087	-0.278927
C74	C	0.946377	-0.044754	0.054406
C75	C	1.279711	0.288579	0.387740
C76	C	0.613208	-0.278582	-0.377064
C77	C	0.946541	0.054752	-0.043730
C78	C	1.279874	0.388085	0.289603
C79	C	0.527558	-0.279011	-0.378785
C80	C	0.860891	0.054322	-0.045451
C81	C	1.194224	0.387656	0.287882
C82	C	0.412487	-0.356873	-0.356733
C83	C	0.745820	-0.023539	-0.023400
C84	C	1.079154	0.309794	0.309933
C85	C	0.728588	-0.356848	-0.356737
C86	C	1.061922	-0.023514	-0.023404
C87	C	1.395255	0.309819	0.309929
C88	C	1.070063	-0.549261	-0.356707
C89	C	1.403396	-0.215927	-0.023374
C90	C	1.736730	0.117406	0.309960
C91	C	1.070088	-0.631575	-0.356722
C92	C	1.403422	-0.298241	-0.023389
C93	C	1.736755	0.035092	0.309944
C94	C	1.070251	-0.930665	-0.356762
C95	C	1.403584	-0.597332	-0.023429
C96	C	1.736918	-0.263999	0.309904
C97	C	1.013163	-0.899359	-0.414136
C98	C	1.346497	-0.566026	-0.080802
C99	C	1.679830	-0.232693	0.252531
C100	C	1.012892	-0.813741	-0.413956
C101	C	1.346225	-0.480408	-0.080623
C102	C	1.679559	-0.147075	0.252710
C103	C	1.070170	-0.782283	-0.356743
C104	C	1.403504	-0.448950	-0.023410
C105	C	1.736837	-0.115616	0.309923
C106	C	1.049041	-0.813419	-0.278695
C107	C	1.382374	-0.480086	0.054638
C108	C	1.715708	-0.146753	0.387971
C109	C	1.048673	-0.899065	-0.279039
C110	C	1.382006	-0.565731	0.054295
C111	C	1.715340	-0.232398	0.387628
C112	C	1.148593	-0.899015	-0.376750
C113	C	1.481926	-0.565682	-0.043416
C114	C	1.815259	-0.232349	0.289917
C115	C	1.148132	-0.813365	-0.378461
C116	C	1.481465	-0.480031	-0.045128
C117	C	1.814799	-0.146698	0.288205
C118	C	1.070126	-0.698424	-0.356728
C119	C	1.403459	-0.365090	-0.023394
C120	C	1.736793	-0.031757	0.309939
C121	C	1.070293	-1.014525	-0.356773
C122	C	1.403627	-0.681192	-0.023439
C123	C	1.736960	-0.347858	0.309894
C124	C	1.263324	-0.356871	-0.356734
C125	C	1.596657	-0.023538	-0.023401
C126	C	1.929991	0.309796	0.309932
C127	C	1.345638	-0.356880	-0.356737
C128	C	1.678971	-0.023547	-0.023403
C129	C	2.012305	0.309787	0.309930
C130	C	1.070205	-0.356831	-0.549891
C131	C	1.403538	-0.023498	-0.216557
C132	C	1.736872	0.309835	0.116776
C133	C	1.070223	-0.356823	-0.632205
C134	C	1.403556	-0.023490	-0.298872
C135	C	1.736890	0.309843	0.034462
C136	C	1.070282	-0.163688	-0.356767
C137	C	1.403615	0.169645	-0.023434
C138	C	1.736948	0.502979	0.309900
C139	C	1.070333	-0.081374	-0.356783
C140	C	1.403666	0.251959	-0.023450
C141	C	1.736999	0.585293	0.309884
C142	C	1.070266	-0.356684	-0.931296
C143	C	1.403600	-0.023351	-0.597963
C144	C	1.736933	0.309982	-0.264629
C145	C	1.012801	-0.413729	-0.899958
C146	C	1.346134	-0.080396	-0.566625
C147	C	1.679467	0.252938	-0.233291
C148	C	1.012956	-0.413994	-0.814340
C149	C	1.346289	-0.080660	-0.481006
C150	C	1.679623	0.252673	-0.147673
C151	C	1.070244	-0.356753	-0.782913
C152	C	1.403578	-0.023420	-0.449580
C153	C	1.736911	0.309913	-0.116247
C154	C	1.148270	-0.377940	-0.814006
C155	C	1.481603	-0.044607	-0.480673
C156	C	1.814936	0.288727	-0.147339
C157	C	1.147949	-0.378314	-0.899651
C158	C	1.481283	-0.044981	-0.566318
C159	C	1.814616	0.288352	-0.232985
C160	C	1.050385	-0.278326	-0.899722
C161	C	1.383718	0.055007	-0.566388
C162	C	1.717051	0.388340	-0.233055
C163	C	1.048649	-0.278779	-0.814071
C164	C	1.381982	0.054554	-0.480738
C165	C	1.715315	0.387888	-0.147404
C166	C	1.070237	-0.356791	-0.699054
C167	C	1.403570	-0.023458	-0.365721
C168	C	1.736903	0.309876	-0.032387
C169	C	1.070279	-0.356649	-1.015156
C170	C	1.403612	-0.023315	-0.681822
C171	C	1.736946	0.310018	-0.348489
C172	C	1.070162	-0.356815	-0.164318
C173	C	1.403495	-0.023482	0.169015
C174	C	1.736829	0.309852	0.502348
C175	C	1.070287	-0.356615	-0.082005
C176	C	1.403621	-0.023281	0.251329
C177	C	1.736954	0.310052	0.584662
H178	H	0.507237	-0.472403	-0.400217
H179	H	0.840570	-0.139069	-0.066883
H180	H	1.173904	0.194264	0.266450
H181	H	1.167856	-0.920574	-0.432692
H182	H	1.501190	-0.587241	-0.099359
H183	H	1.834523	-0.253908	0.233975
H184	H	1.026082	-0.472075	-0.793856
H185	H	1.359415	-0.138742	-0.460523
H186	H	1.692748	0.194591	-0.127190
H187	H	1.191125	-0.919259	-0.334963
H188	H	1.524458	-0.585926	-0.001629
H189	H	1.857791	-0.252592	0.331704
H190	H	1.192236	-0.337697	-0.793651
H191	H	1.525569	-0.004363	-0.460318
H192	H	1.858902	0.328970	-0.126985
N193	N	0.940749	-0.926409	-0.397742
N194	N	1.274083	-0.593076	-0.064409
N195	N	1.607416	-0.259743	0.268925
N196	N	0.887213	-0.907805	-0.437169
N197	N	1.220546	-0.574471	-0.103836
N198	N	1.553880	-0.241138	0.229497
H199	H	0.836070	-0.926907	-0.425589
H200	H	1.169403	-0.593573	-0.092255
H201	H	1.502736	-0.260240	0.241078
H202	H	0.991229	-0.262802	-0.793749
H203	H	1.324562	0.070532	-0.460415
H204	H	1.657896	0.403865	-0.127082
H205	H	1.088449	-0.919775	-0.234834
H206	H	1.421783	-0.586442	0.098499
H207	H	1.755116	-0.253108	0.431833
N208	N	0.501887	-0.326924	-0.223714
N209	N	0.835220	0.006410	0.109619
N210	N	1.168554	0.339743	0.442953
N211	N	0.547284	-0.289783	-0.187269
N212	N	0.880618	0.043550	0.146064
N213	N	1.213951	0.376883	0.479398
H214	H	0.529267	-0.253936	-0.148508
H215	H	0.862600	0.079397	0.184825
H216	H	1.195933	0.412730	0.518159
H217	H	1.192915	-0.791947	-0.339719
H218	H	1.526248	-0.458613	-0.006386
H219	H	1.859582	-0.125280	0.326948
N220	N	1.169100	-0.450172	-0.924712
N221	N	1.502433	-0.116839	-0.591379
N222	N	1.835766	0.216494	-0.258046
N223	N	1.183992	-0.499698	-0.878950
N224	N	1.517325	-0.166364	-0.545617
N225	N	1.850659	0.166969	-0.212283
H226	H	1.198931	-0.550449	-0.896645
H227	H	1.532264	-0.217116	-0.563312
H228	H	1.865597	0.116217	-0.229979
N229	N	0.939994	-0.397260	-0.925780
N230	N	1.273328	-0.063927	-0.592446
N231	N	1.606661	0.269406	-0.259113
N232	N	0.911158	-0.336265	-0.911136
N233	N	1.244492	-0.002932	-0.577803
N234	N	1.577825	0.330402	-0.244470
H235	H	0.859737	-0.324632	-0.929378
H236	H	1.193070	0.008701	-0.596045
H237	H	1.526404	0.342035	-0.262712
H238	H	0.954823	-0.793314	-0.400717
H239	H	1.288157	-0.459981	-0.067384
H240	H	1.621490	-0.126647	0.265949
H241	H	0.634865	-0.471838	-0.400549
H242	H	0.968199	-0.138504	-0.067216
H243	H	1.301532	0.194829	0.266118
N244	N	1.169790	-0.449038	-0.787126
N245	N	1.503124	-0.115705	-0.453793
N246	N	1.836457	0.217628	-0.120460
N247	N	1.230588	-0.475983	-0.805692
N248	N	1.563921	-0.142649	-0.472359
N249	N	1.897255	0.190684	-0.139025
H250	H	1.245785	-0.526198	-0.786711
H251	H	1.579118	-0.192865	-0.453377
H252	H	1.912451	0.140468	-0.120044
N253	N	1.097326	-0.222634	-0.787230
N254	N	1.430660	0.110699	-0.453896
N255	N	1.763993	0.444032	-0.120563
N256	N	1.148960	-0.239251	-0.744512
N257	N	1.482294	0.094083	-0.411179
N258	N	1.815627	0.427416	-0.077846
H259	H	1.183345	-0.199600	-0.725555
H260	H	1.516678	0.133733	-0.392222
H261	H	1.850012	0.467066	-0.058889
N262	N	1.203482	-0.328453	-0.925653
N263	N	1.536815	0.004881	-0.592319
N264	N	1.870149	0.338214	-0.258986
N265	N	1.242355	-0.293493	-0.880544
N266	N	1.575688	0.039841	-0.547211
N267	N	1.909021	0.373174	-0.213878
H268	H	1.281576	-0.258279	-0.898904
H269	H	1.614909	0.075054	-0.565571
H270	H	1.948242	0.408388	-0.232237
H271	H	1.089313	-0.793042	-0.234783
H272	H	1.422646	-0.459709	0.098551
H273	H	1.755979	-0.126376	0.431884
H274	H	0.506177	-0.234054	-0.340239
H275	H	0.839510	0.099279	-0.006905
H276	H	1.172844	0.432613	0.326428
N277	N	0.638068	-0.449844	-0.257366
N278	N	0.971401	-0.116511	0.075968
N279	N	1.304735	0.216823	0.409301
N280	N	0.620897	-0.475273	-0.195488
N281	N	0.954231	-0.141940	0.137846
N282	N	1.287564	0.191393	0.471179
H283	H	0.638568	-0.525954	-0.180259
H284	H	0.971901	-0.192620	0.153074
H285	H	1.305234	0.140713	0.486408
N286	N	0.639073	-0.327961	-0.223694
N287	N	0.972406	0.005372	0.109639
N288	N	1.305740	0.338705	0.442973
N289	N	0.622289	-0.261072	-0.227102
N290	N	0.955623	0.072261	0.106231
N291	N	1.288956	0.405594	0.439565
H292	H	0.640671	-0.225672	-0.188094
H293	H	0.974005	0.107661	0.145239
H294	H	1.307338	0.440995	0.478573
N295	N	1.029559	-0.925151	-0.486976
N296	N	1.362892	-0.591817	-0.153643
N297	N	1.696225	-0.258484	0.179690
N298	N	0.989931	-0.905936	-0.540152
N299	N	1.323264	-0.572603	-0.206819
N300	N	1.656597	-0.239269	0.126515
H301	H	1.001509	-0.924156	-0.591598
H302	H	1.334842	-0.590823	-0.258265
H303	H	1.668175	-0.257489	0.075068
N304	N	0.502114	-0.259328	-0.450936
N305	N	0.835447	0.074005	-0.117603
N306	N	1.168781	0.407338	0.215731
N307	N	0.461144	-0.302438	-0.486031
N308	N	0.794477	0.030895	-0.152697
N309	N	1.127810	0.364228	0.180636
H310	H	0.443175	-0.288543	-0.536991
H311	H	0.776509	0.044790	-0.203658
H312	H	1.109842	0.378124	0.129676
H313	H	0.991406	-0.919103	-0.262107
H314	H	1.324739	-0.585769	0.071227
H315	H	1.658072	-0.252436	0.404560
H316	H	0.955097	-0.400735	-0.793317
H317	H	1.288430	-0.067402	-0.459983
H318	H	1.621764	0.265931	-0.126650
N319	N	1.029103	-0.486143	-0.926970
N320	N	1.362436	-0.152810	-0.593636
N321	N	1.695770	0.180523	-0.260303
N322	N	1.082860	-0.495922	-0.969200
N323	N	1.416193	-0.162588	-0.635867
N324	N	1.749527	0.170745	-0.302533
H325	H	1.094376	-0.547063	-0.988280
H326	H	1.427709	-0.213730	-0.654946
H327	H	1.761043	0.119603	-0.321613
H328	H	0.634834	-0.259564	-0.433084
H329	H	0.968167	0.073770	-0.099751
H330	H	1.301500	0.407103	0.233583
N331	N	0.980251	-0.254117	-0.926818
N332	N	1.313584	0.079216	-0.593484
N333	N	1.646917	0.412549	-0.260151
N334	N	0.944065	-0.294328	-0.969735
N335	N	1.277398	0.039005	-0.636402
N336	N	1.610732	0.372339	-0.303068
H337	H	0.894530	-0.277238	-0.988874
H338	H	1.227864	0.056095	-0.655541
H339	H	1.561197	0.389429	-0.322207
N340	N	0.500444	-0.448655	-0.256680
N341	N	0.833777	-0.115322	0.076653
N342	N	1.167110	0.218011	0.409987
N343	N	0.458372	-0.484032	-0.298474
N344	N	0.791706	-0.150699	0.034859
N345	N	1.125039	0.182635	0.368192
H346	H	0.439334	-0.534161	-0.283000
H347	H	0.772668	-0.200827	0.050334
H348	H	1.106001	0.132506	0.383667
N349	N	0.638647	-0.225022	-0.324862
N350	N	0.971980	0.108311	0.008471
N351	N	1.305313	0.441644	0.341805
N352	N	0.679811	-0.244311	-0.272895
N353	N	1.013145	0.089022	0.060439
N354	N	1.346478	0.422356	0.393772
H355	H	0.697781	-0.206490	-0.236024
H356	H	1.031114	0.126843	0.097309
H357	H	1.364448	0.460176	0.430643
N358	N	1.102896	-0.225015	-0.925148
N359	N	1.436230	0.108318	-0.591815
N360	N	1.769563	0.441651	-0.258481
N361	N	1.154758	-0.244545	-0.966343
N362	N	1.488092	0.088789	-0.633009
N363	N	1.821425	0.422122	-0.299676
H364	H	1.191848	-0.206900	-0.984304
H365	H	1.525181	0.126434	-0.650970
H366	H	1.858514	0.459767	-0.317637
H367	H	0.633998	-0.401337	-0.471982
H368	H	0.967331	-0.068004	-0.138649
H369	H	1.300664	0.265330	0.194685
N370	N	0.501427	-0.398108	-0.486376
N371	N	0.834761	-0.064774	-0.153043
N372	N	1.168094	0.268559	0.180290
N373	N	0.546304	-0.386487	-0.537577
N374	N	0.879638	-0.053154	-0.204244
N375	N	1.212971	0.280179	0.129089
H376	H	0.527712	-0.374982	-0.588908
H377	H	0.861045	-0.041649	-0.255574
H378	H	1.194378	0.291684	0.077759
N379	N	1.029477	-0.787337	-0.486558
N380	N	1.362810	-0.454003	-0.153224
N381	N	1.696144	-0.120670	0.180109
N382	N	1.041332	-0.832162	-0.537715
N383	N	1.374665	-0.498828	-0.204382
N384	N	1.707999	-0.165495	0.128952
H385	H	1.053043	-0.813517	-0.588994
H386	H	1.386376	-0.480184	-0.255661
H387	H	1.719710	-0.146851	0.077673
H388	H	0.992380	-0.792030	-0.261460
H389	H	1.325714	-0.458696	0.071874
H390	H	1.659047	-0.125363	0.405207
H391	H	1.164065	-0.793013	-0.435900
H392	H	1.497399	-0.459679	-0.102567
H393	H	1.830732	-0.126346	0.230766
