data_functionalizedCrystal
_audit_creation_method	'MofGen! by Chris Wilmer'
_symmetry_space_group_name_H-M	'P1'
_symmetry_Int_Tables_number	1
_symmetry_cell_setting	triclinic
loop_
_symmetry_equiv_pos_as_xyz
  x,y,z
_cell_length_a	10.723024
_cell_length_b	10.654550
_cell_length_c	9.198806
_cell_angle_alpha	89.997986
_cell_angle_beta	89.996352
_cell_angle_gamma	84.476386
loop_
_atom_site_label
_atom_site_type_symbol
_atom_site_fract_x
_atom_site_fract_y
_atom_site_fract_z
O1	O	1.657214	0.176147	-0.120879
O2	O	1.294064	0.193008	-0.120884
O3	O	1.483989	0.001837	-0.120876
O4	O	1.467289	0.367318	-0.120887
O5	O	1.483973	0.001836	0.120909
O6	O	1.294049	0.193007	0.120901
O7	O	1.657199	0.176146	0.120906
Cu8	Cu	1.475622	0.184577	0.142981
Cu9	Cu	1.475640	0.184577	-0.142958
O10	O	1.467274	0.367317	0.120898
C11	C	1.247557	0.191780	0.000008
C12	C	1.109002	0.188109	0.000007
C13	C	1.482755	-0.044961	0.000015
C14	C	1.479086	-0.184404	0.000010
C15	C	1.034035	0.295078	0.000002
C16	C	0.890831	0.291287	0.000001
C17	C	1.590911	-0.263907	0.000016
C18	C	1.587456	-0.394927	0.000005
C19	C	1.360343	-0.366929	-0.000010
C20	C	1.363799	-0.235912	-0.000011
C21	C	1.706198	-0.212399	0.000036
C22	C	1.818032	-0.291903	0.000043
C23	C	1.814578	-0.422923	0.000033
C24	C	1.699289	-0.474440	0.000016
C25	C	1.703706	0.177373	0.000011
C26	C	1.842261	0.181045	0.000003
C27	C	1.468508	0.414115	0.000004
C28	C	1.472176	0.553558	-0.000000
N29	N	1.475619	0.184575	0.344095
N30	N	1.475654	0.184569	-0.344072
C31	C	1.555363	0.103954	0.416295
C32	C	1.555382	0.103950	0.583707
H33	H	1.075871	0.389466	0.000008
F34	F	1.386417	0.274799	0.574786
H35	H	1.696486	-0.581126	-0.000008
H36	H	1.709024	-0.105717	0.000049
H37	H	1.623659	0.034931	0.645796
F38	F	1.933598	-0.507533	0.000026
F39	F	1.386392	0.274786	0.425291
H40	H	1.623616	0.034929	0.354171
H41	H	1.911895	-0.249949	0.000021
H42	H	0.906672	0.089466	-0.000003
F43	F	1.244783	-0.151295	-0.000017
F44	F	1.054326	0.064734	0.000020
F45	F	0.806635	0.410985	-0.000015
F46	F	1.237655	-0.421762	-0.000027
