data_functionalizedCrystal
_audit_creation_method	'MofGen! by Chris Wilmer'
_symmetry_space_group_name_H-M	'P1'
_symmetry_Int_Tables_number	1
_symmetry_cell_setting	triclinic
loop_
_symmetry_equiv_pos_as_xyz
  x,y,z
_cell_length_a	11.792241
_cell_length_b	19.188930
_cell_length_c	10.868271
_cell_angle_alpha	89.989749
_cell_angle_beta	89.999893
_cell_angle_gamma	83.669099
loop_
_atom_site_label
_atom_site_type_symbol
_atom_site_fract_x
_atom_site_fract_y
_atom_site_fract_z
O1	O	1.505476	0.095695	-0.102218
O2	O	2.005476	0.595695	0.397782
O3	O	1.174987	0.105557	-0.102248
O4	O	1.674987	0.605557	0.397752
O5	O	1.349769	-0.000975	-0.102208
O6	O	1.849769	0.499025	0.397792
O7	O	1.330695	0.202228	-0.102258
O8	O	1.830695	0.702228	0.397742
O9	O	1.349755	-0.000980	0.102437
O10	O	1.849755	0.499020	0.602437
O11	O	1.174973	0.105553	0.102396
O12	O	1.674973	0.605553	0.602396
O13	O	1.505462	0.095691	0.102427
O14	O	2.005462	0.595691	0.602427
Zn15	Zn	1.340215	0.100621	0.134903
Zn16	Zn	1.840215	0.600621	0.634903
Zn17	Zn	1.340234	0.100627	-0.134725
Zn18	Zn	1.840234	0.600627	0.365275
O19	O	1.330680	0.202224	0.102387
O20	O	1.830680	0.702224	0.602387
C21	C	1.132699	0.104936	0.000071
C22	C	1.632699	0.604936	0.500071
C23	C	1.006713	0.103082	0.000060
C24	C	1.506713	0.603082	0.500060
C25	C	1.349144	-0.026992	0.000118
C26	C	1.849144	0.473008	0.500118
C27	C	1.347290	-0.104507	0.000128
C28	C	1.847290	0.395493	0.500128
C29	C	0.776051	0.099672	0.000096
C30	C	1.276051	0.599672	0.500096
C31	C	0.904408	0.101566	0.000076
C32	C	1.404408	0.601566	0.500076
C33	C	1.449846	-0.148850	0.000143
C34	C	1.949846	0.351150	0.500143
C35	C	1.448104	-0.221684	0.000123
C36	C	1.948104	0.278316	0.500123
C37	C	1.343800	-0.250171	0.000113
C38	C	1.843800	0.249829	0.500113
C39	C	1.241230	-0.205818	0.000091
C40	C	1.741230	0.294182	0.500091
C41	C	1.242975	-0.132986	0.000098
C42	C	1.742975	0.367014	0.500098
N43	N	1.264067	-0.358629	0.069750
N44	N	1.764067	0.141371	0.569750
N45	N	1.262417	-0.427817	0.069746
N46	N	1.762417	0.072183	0.569746
C47	C	1.338536	-0.469609	0.000088
C48	C	1.838536	0.030391	0.500088
N49	N	1.416386	-0.439602	-0.069550
N50	N	1.916386	0.060398	0.430450
N51	N	1.418040	-0.370408	-0.069540
N52	N	1.918040	0.129592	0.430460
C53	C	1.341896	-0.329144	0.000104
C54	C	1.841896	0.170856	0.500104
C55	C	1.439211	-0.592928	0.000080
C56	C	1.939211	-0.092928	0.500080
C57	C	1.437464	-0.665762	0.000052
C58	C	1.937464	-0.165762	0.500052
C59	C	1.230588	-0.649895	0.000032
C60	C	1.730588	-0.149895	0.500032
C61	C	1.232337	-0.577062	0.000047
C62	C	1.732337	-0.077062	0.500047
C63	C	1.336652	-0.548583	0.000077
C64	C	1.836652	-0.048583	0.500077
C65	C	1.547751	0.096313	0.000105
C66	C	2.047751	0.596313	0.500105
C67	C	1.673737	0.098167	0.000108
C68	C	2.173737	0.598167	0.500108
C69	C	1.331305	0.228240	0.000058
C70	C	1.831305	0.728240	0.500058
C71	C	1.333159	0.305755	0.000040
C72	C	1.833159	0.805755	0.500040
N73	N	1.340211	0.100617	0.318917
N74	N	1.840211	0.600617	0.818917
N75	N	1.340248	0.100626	-0.318739
N76	N	1.840248	0.600626	0.181261
C77	C	1.340228	0.100625	0.569923
C78	C	1.840228	0.600625	1.069923
C79	C	1.340215	0.100623	0.430246
C80	C	1.840215	0.600623	0.930246
H81	H	1.534787	-0.125667	0.000163
H82	H	2.034787	0.374333	0.500163
C83	C	1.117259	-0.680721	0.000209
C84	C	1.617259	-0.180721	0.500209
C85	C	1.055258	-0.658221	0.105473
C86	C	1.555258	-0.158221	0.605473
C87	C	0.950846	-0.686599	0.105664
C88	C	1.450846	-0.186599	0.605664
H89	H	1.130746	-0.730446	0.000267
H90	H	1.630746	-0.230446	0.500267
H91	H	1.074991	-0.665495	-0.071122
H92	H	1.574991	-0.165495	0.428878
H93	H	1.097517	-0.673450	0.176786
H94	H	1.597517	-0.173450	0.676786
H95	H	1.041740	-0.608499	0.105438
H96	H	1.541740	-0.108499	0.605438
H97	H	0.908577	-0.671373	0.034333
H98	H	1.408577	-0.171373	0.534333
H99	H	0.964344	-0.736323	0.105718
H100	H	1.464344	-0.236323	0.605718
H101	H	0.908761	-0.671331	0.177078
H102	H	1.408761	-0.171331	0.677078
H103	H	1.531620	-0.257795	0.000131
H104	H	2.031620	0.242205	0.500131
C105	C	1.120900	-0.528997	-0.000144
C106	C	1.620900	-0.028997	0.499856
C107	C	1.058065	-0.541926	-0.105420
C108	C	1.558065	-0.041926	0.394580
C109	C	0.955391	-0.497669	-0.105634
C110	C	1.455391	0.002331	0.394366
H111	H	1.136713	-0.481518	-0.000201
H112	H	1.636713	0.018482	0.499799
H113	H	1.078049	-0.537695	0.071178
H114	H	1.578049	-0.037695	0.571178
H115	H	1.100907	-0.533223	-0.176725
H116	H	1.600907	-0.033223	0.323275
H117	H	1.042222	-0.589397	-0.105386
H118	H	1.542222	-0.089397	0.394614
H119	H	0.912540	-0.506367	-0.034311
H120	H	1.412540	-0.006367	0.465689
H121	H	0.971215	-0.450193	-0.105687
H122	H	1.471215	0.049807	0.394313
H123	H	0.912741	-0.506440	-0.177056
H124	H	1.412741	-0.006440	0.322944
H125	H	1.156305	-0.229017	0.000080
H126	H	1.656305	0.270983	0.500080
H127	H	1.524150	-0.569739	0.000098
H128	H	2.024150	-0.069739	0.500098
H129	H	1.159459	-0.096881	0.000086
H130	H	1.659459	0.403119	0.500086
H131	H	1.520981	-0.701866	0.000058
H132	H	2.020981	-0.201866	0.500058
