data_functionalizedCrystal
_audit_creation_method	'MofGen! by Chris Wilmer'
_symmetry_space_group_name_H-M	'P1'
_symmetry_Int_Tables_number	1
_symmetry_cell_setting	triclinic
loop_
_symmetry_equiv_pos_as_xyz
  x,y,z
_cell_length_a	10.654550
_cell_length_b	17.038272
_cell_length_c	9.730223
_cell_angle_alpha	89.998176
_cell_angle_beta	89.996251
_cell_angle_gamma	87.798229
loop_
_atom_site_label
_atom_site_type_symbol
_atom_site_fract_x
_atom_site_fract_y
_atom_site_fract_z
O1	O	1.678036	0.109875	-0.114405
O2	O	1.313530	0.120343	-0.114384
O3	O	1.493617	0.001281	-0.114383
O4	O	1.497950	0.228936	-0.114406
O5	O	1.493615	0.001284	0.114196
O6	O	1.313528	0.120346	0.114196
O7	O	1.678034	0.109878	0.114175
Zn8	Zn	1.495781	0.115112	0.150477
Zn9	Zn	1.495783	0.115108	-0.150686
O10	O	1.497948	0.228939	0.114174
C11	C	1.266660	0.119576	-0.000091
C12	C	1.127003	0.117276	-0.000082
C13	C	1.054026	0.187378	-0.000109
C14	C	0.922804	0.185212	-0.000132
C15	C	0.937548	0.042837	-0.000108
C16	C	1.068767	0.045004	-0.000075
C17	C	1.045513	0.269577	-0.000129
C18	C	0.914292	0.267411	-0.000152
C19	C	1.489675	-0.027867	-0.000093
C20	C	1.477918	-0.114726	-0.000093
C21	C	1.585862	-0.164237	-0.000098
C22	C	1.574808	-0.245850	-0.000111
C23	C	1.455808	-0.277949	-0.000108
C24	C	1.347856	-0.228431	-0.000107
C25	C	1.358911	-0.146821	-0.000105
C26	C	1.416750	-0.523925	-0.000125
C27	C	1.405702	-0.605542	-0.000123
C28	C	1.632656	-0.622955	-0.000129
C29	C	1.643701	-0.541342	-0.000118
C30	C	1.535749	-0.491831	-0.000124
C31	C	1.444505	-0.361370	-0.000116
C32	C	1.547052	-0.408412	-0.000126
C33	C	1.724905	0.110645	-0.000121
C34	C	1.864562	0.112944	-0.000139
C35	C	1.501889	0.258088	-0.000119
C36	C	1.513646	0.344947	-0.000128
N37	N	1.495788	0.115115	0.356014
N38	N	1.495785	0.115100	-0.356223
C39	C	1.575554	0.062412	0.427940
C40	C	1.575550	0.062402	0.571823
C41	C	1.416010	0.167805	0.571841
C42	C	1.416009	0.167810	0.427961
C43	C	1.667667	0.001561	0.427931
C44	C	1.667663	0.001551	0.571814
H45	H	1.682764	-0.138109	-0.000092
C46	C	1.631865	-0.078639	0.375763
C47	C	1.729976	-0.111232	0.295894
C48	C	1.697039	-0.185110	0.247825
H49	H	1.557966	-0.073202	0.321446
H50	H	1.616890	-0.112089	0.451661
H51	H	1.744935	-0.077790	0.220007
H52	H	1.803884	-0.116688	0.350182
H53	H	1.682065	-0.218560	0.323723
H54	H	1.623139	-0.179666	0.193514
H55	H	1.763606	-0.207237	0.193640
H56	H	1.271011	-0.106509	-0.000101
H57	H	1.643941	-0.382273	-0.000158
C58	C	0.874483	-0.035682	-0.000325
C59	C	0.910902	-0.078113	-0.117894
C60	C	0.852849	-0.150454	-0.118134
H61	H	0.785874	-0.027045	-0.000416
H62	H	0.899030	-0.064617	0.079353
H63	H	0.886348	-0.049185	-0.197552
H64	H	0.999503	-0.086771	-0.117828
H65	H	0.877396	-0.179389	-0.038456
H66	H	0.764242	-0.141809	-0.118222
H67	H	0.877560	-0.179256	-0.197896
H68	H	1.765419	0.014955	0.610857
H69	H	1.077829	0.301726	0.095534
H70	H	1.328847	-0.483623	-0.000129
H71	H	1.308794	-0.631674	-0.000099
H72	H	1.720544	-0.663275	-0.000126
H73	H	0.875436	0.298382	-0.095823
C74	C	1.692156	-0.299474	-0.000035
C75	C	1.798736	-0.253895	0.000012
C76	C	1.906864	-0.303266	0.000100
H77	H	1.692750	-0.331687	-0.079725
H78	H	1.692622	-0.331663	0.079707
H79	H	1.798271	-0.221720	-0.079722
H80	H	1.798184	-0.221684	0.079696
H81	H	1.907330	-0.335455	0.079842
H82	H	1.907445	-0.335477	-0.079592
H83	H	1.979191	-0.272349	0.000145
C84	C	1.791484	0.027142	0.368353
C85	C	1.770043	0.094301	0.287502
C86	C	1.884070	0.117911	0.232624
H87	H	1.827464	-0.013897	0.313294
H88	H	1.847393	0.038653	0.441043
H89	H	1.714154	0.082786	0.214822
H90	H	1.734081	0.135355	0.342530
H91	H	1.939980	0.129422	0.305314
H92	H	1.920042	0.076868	0.177571
H93	H	1.869540	0.163484	0.177771
H94	H	0.870926	0.292254	0.098529
C95	C	1.096063	0.304535	-0.131783
C96	C	0.995794	0.325479	-0.219042
C97	C	1.042312	0.357691	-0.340328
H98	H	1.150155	0.266883	-0.176226
H99	H	1.141529	0.349845	-0.110420
H100	H	0.950348	0.280175	-0.240407
H101	H	0.941693	0.363139	-0.174642
H102	H	1.087778	0.403001	-0.318965
H103	H	1.096404	0.320035	-0.384758
H104	H	0.974286	0.371912	-0.399542
H105	H	1.250963	-0.254573	-0.000114
C106	C	1.773015	-0.506644	-0.000184
C107	C	1.865185	-0.567473	-0.000222
C108	C	1.984323	-0.535540	-0.000290
H109	H	1.782212	-0.475185	0.079510
H110	H	1.782118	-0.475187	-0.079922
H111	H	1.856085	-0.598917	0.079508
H112	H	1.856029	-0.598937	-0.079910
H113	H	1.993427	-0.504083	-0.080028
H114	H	1.993508	-0.504081	0.079406
H115	H	2.046875	-0.576807	-0.000328
H116	H	1.347615	-0.387514	-0.000111
H117	H	1.351046	0.210718	0.369400
C118	C	1.329473	0.225142	0.649780
C119	C	1.358027	0.302139	0.614763
C120	C	1.278321	0.354979	0.686514
H121	H	1.340812	0.217700	0.745793
H122	H	1.244687	0.216205	0.626169
H123	H	1.442792	0.311073	0.638383
H124	H	1.346680	0.309606	0.518762
H125	H	1.193536	0.346042	0.662903
H126	H	1.289667	0.347531	0.782524
H127	H	1.297676	0.407227	0.662756
C128	C	1.619726	-0.074138	0.631385
C129	C	1.513498	-0.056994	0.712277
C130	C	1.469296	-0.126700	0.767153
H131	H	1.683373	-0.098875	0.686417
H132	H	1.598130	-0.108314	0.558695
H133	H	1.535098	-0.022831	0.784956
H134	H	1.449826	-0.032268	0.657276
H135	H	1.447700	-0.160876	0.694464
H136	H	1.532951	-0.151431	0.822179
H137	H	1.397209	-0.115077	0.822034
H138	H	1.128180	-0.012080	-0.000033
