data_functionalizedCrystal
_audit_creation_method	'MofGen! by Chris Wilmer'
_symmetry_space_group_name_H-M	'P1'
_symmetry_Int_Tables_number	1
_symmetry_cell_setting	triclinic
loop_
_symmetry_equiv_pos_as_xyz
  x,y,z
_cell_length_a	14.519709
_cell_length_b	16.109301
_cell_length_c	15.186229
_cell_angle_alpha	90.000638
_cell_angle_beta	89.995307
_cell_angle_gamma	96.429187
loop_
_atom_site_label
_atom_site_type_symbol
_atom_site_fract_x
_atom_site_fract_y
_atom_site_fract_z
O1	O	0.118540	-1.103336	-0.073175
O2	O	0.618540	-0.603336	0.426825
O3	O	0.133292	-0.861299	-0.073189
O4	O	0.633292	-0.361299	0.426811
O5	O	-0.008336	-0.988735	-0.073174
O6	O	0.491664	-0.488735	0.426826
O7	O	0.260168	-0.975900	-0.073190
O8	O	0.760168	-0.475900	0.426810
O9	O	-0.008338	-0.988726	0.073284
O10	O	0.491662	-0.488726	0.573284
O11	O	0.133290	-0.861291	0.073268
O12	O	0.633290	-0.361291	0.573268
O13	O	0.118538	-1.103327	0.073282
O14	O	0.618538	-0.603327	0.573282
Zn15	Zn	0.125914	-0.982308	0.096529
Zn16	Zn	0.625914	-0.482308	0.596529
Zn17	Zn	0.125916	-0.982319	-0.096435
Zn18	Zn	0.625916	-0.482319	0.403565
O19	O	0.260166	-0.975892	0.073267
O20	O	0.760166	-0.475892	0.573267
C21	C	0.132693	-0.830319	0.000038
C22	C	0.632693	-0.330319	0.500038
C23	C	0.130902	-0.738021	0.000033
C24	C	0.630902	-0.238021	0.500033
C25	C	-0.042696	-0.988132	0.000055
C26	C	0.457304	-0.488132	0.500055
C27	C	-0.145073	-0.986340	0.000056
C28	C	0.354927	-0.486340	0.500056
C29	C	0.119136	-1.134307	0.000054
C30	C	0.619136	-0.634307	0.500054
C31	C	0.120928	-1.226606	0.000053
C32	C	0.620928	-0.726606	0.500053
C33	C	-0.519955	-0.979741	0.000032
C34	C	-0.019955	-0.479741	0.500032
C35	C	-0.415651	-0.981574	0.000039
C36	C	0.084349	-0.481574	0.500039
C37	C	-0.332517	-0.983041	0.000045
C38	C	0.167483	-0.483041	0.500045
C39	C	-0.228207	-0.984873	0.000050
C40	C	0.271793	-0.484873	0.500050
C41	C	0.294526	-0.976494	0.000036
C42	C	0.794526	-0.476494	0.500036
C43	C	0.396903	-0.978287	0.000030
C44	C	0.896903	-0.478287	0.500030
N45	N	0.125911	-0.982306	0.228221
N46	N	0.625911	-0.482306	0.728221
C47	C	0.210775	-0.515887	0.000038
C48	C	0.710775	-0.015887	0.500038
C49	C	0.209085	-0.429163	0.000044
C50	C	0.709085	0.070837	0.500044
C51	C	0.041048	-0.448747	0.000050
C52	C	0.541048	0.051253	0.500050
C53	C	0.042739	-0.535468	0.000051
C54	C	0.542739	-0.035468	0.500051
C55	C	0.127606	-0.569036	0.000040
C56	C	0.627606	-0.069036	0.500040
C57	C	0.124224	-0.395591	0.000045
C58	C	0.624224	0.104409	0.500045
C59	C	0.122390	-0.301562	0.000052
C60	C	0.622390	0.198438	0.500052
C61	C	0.129440	-0.663071	0.000036
C62	C	0.629440	-0.163071	0.500036
N63	N	0.125911	-0.982327	-0.228128
N64	N	0.625911	-0.482327	0.271872
C65	C	0.063219	-1.038754	0.453951
C66	C	0.563219	-0.538754	0.953951
C67	C	0.063217	-1.038756	0.546141
C68	C	0.563217	-0.538756	1.046141
C69	C	0.188606	-0.925873	0.546136
C70	C	0.688606	-0.425873	1.046136
C71	C	0.188603	-0.925867	0.453948
C72	C	0.688603	-0.425867	0.953948
C73	C	0.125911	-0.982312	0.407858
C74	C	0.625911	-0.482312	0.907858
C75	C	0.125912	-0.982321	0.592236
C76	C	0.625912	-0.482321	1.092236
C77	C	0.125910	-0.982323	0.692192
C78	C	0.625910	-0.482323	1.192192
C79	C	0.125911	-0.982309	0.307895
C80	C	0.625911	-0.482309	0.807895
H81	H	0.279879	-0.543214	0.000036
H82	H	0.779879	-0.043214	0.500036
Cl83	Cl	-0.065635	-0.406541	0.000058
Cl84	Cl	0.434365	0.093459	0.500058
Cl85	Cl	0.267417	-0.854903	0.395997
Cl86	Cl	0.767417	-0.354903	0.895997
H87	H	0.276810	-0.385892	0.000044
H88	H	0.776810	0.114108	0.500044
Cl89	Cl	0.267419	-0.854920	0.604082
Cl90	Cl	0.767419	-0.354920	1.104082
Cl91	Cl	-0.061825	-0.602290	0.000061
Cl92	Cl	0.438175	-0.102290	0.500061
H93	H	0.012167	-1.084715	0.583667
H94	H	0.512167	-0.584715	1.083667
H95	H	0.012170	-1.084714	0.416427
H96	H	0.512170	-0.584714	0.916427
