data_functionalizedCrystal
_audit_creation_method	'MofGen! by Chris Wilmer'
_symmetry_space_group_name_H-M	'P1'
_symmetry_Int_Tables_number	1
_symmetry_cell_setting	triclinic
loop_
_symmetry_equiv_pos_as_xyz
  x,y,z
_cell_length_a	12.837943
_cell_length_b	11.792241
_cell_length_c	11.892095
_cell_angle_alpha	93.915739
_cell_angle_beta	85.689438
_cell_angle_gamma	89.511178
loop_
_atom_site_label
_atom_site_type_symbol
_atom_site_fract_x
_atom_site_fract_y
_atom_site_fract_z
O1	O	1.383703	0.288690	-0.093984
O2	O	1.081816	0.274106	-0.093991
O3	O	1.240085	0.116971	-0.093980
O4	O	1.225434	0.445825	-0.093996
O5	O	1.226889	0.130050	0.094027
O6	O	1.068620	0.287185	0.094016
O7	O	1.370507	0.301770	0.094022
Zn8	Zn	1.217468	0.296554	0.123869
Zn9	Zn	1.234855	0.279322	-0.123838
O10	O	1.212238	0.458904	0.094011
C11	C	1.036570	0.275719	0.000012
C12	C	0.921410	0.261025	0.000009
C13	C	0.681444	0.437671	0.000017
C14	C	0.573241	0.423870	0.000015
C15	C	0.596797	0.219624	0.000013
C16	C	0.705001	0.233425	0.000015
C17	C	0.747320	0.342452	0.000015
C18	C	0.855526	0.356251	0.000008
C19	C	0.879080	0.152006	0.000014
C20	C	0.770877	0.138205	0.000013
C21	C	1.232566	0.081126	0.000023
C22	C	1.229812	-0.045167	0.000022
C23	C	1.224748	-0.276394	0.000003
C24	C	1.227561	-0.147723	0.000014
C25	C	1.415753	0.300157	0.000017
C26	C	1.530913	0.314850	0.000012
C27	C	1.219756	0.494749	0.000005
C28	C	1.222512	0.621042	-0.000001
N29	N	1.205610	0.308315	0.292922
N30	N	1.246721	0.267553	-0.292891
C31	C	1.329237	0.185651	0.529579
C32	C	1.320956	0.193880	0.647920
C33	C	1.180761	0.332997	0.647948
C34	C	1.189043	0.324768	0.529607
C35	C	1.263284	0.251093	0.470427
C36	C	1.271570	0.242870	0.352083
C37	C	1.131371	0.381980	0.352113
C38	C	1.123090	0.390210	0.470454
H39	H	0.932729	0.074471	0.000005
H40	H	0.562315	0.130865	0.000107
O41	O	1.401380	0.114000	0.472260
C42	C	1.457842	0.058029	0.549847
H43	H	1.409408	0.057983	0.634216
H44	H	1.534216	0.104164	0.562414
C45	C	1.541260	-0.065313	0.400034
C46	C	1.481770	-0.065378	0.503654
H47	H	1.556025	-0.141435	0.371538
H48	H	1.503224	-0.027602	0.347760
H49	H	1.604899	-0.026862	0.410520
H50	H	1.418127	-0.103816	0.493164
H51	H	1.519795	-0.103098	0.555925
H52	H	1.332023	0.182884	0.303899
O53	O	1.384876	0.130188	0.705434
C54	C	1.324142	0.058869	0.773924
H55	H	1.244828	0.045579	0.738279
H56	H	1.312629	0.100059	0.863612
C57	C	1.477905	-0.040404	0.819514
C58	C	1.380493	-0.056734	0.775728
H59	H	1.512666	-0.111712	0.820632
H60	H	1.518824	0.007648	0.773374
H61	H	1.468297	-0.006075	0.894250
H62	H	1.390102	-0.091049	0.700989
H63	H	1.339577	-0.104795	0.821855
O64	O	1.108734	0.404536	0.705622
C65	C	1.115550	0.397735	0.822756
H66	H	1.196645	0.365377	0.838896
H67	H	1.054173	0.336722	0.856347
C68	C	0.996759	0.556176	0.863703
C69	C	1.096364	0.516442	0.883528
H70	H	0.984920	0.629399	0.901193
H71	H	0.992163	0.560756	0.784788
H72	H	0.945623	0.505322	0.891696
H73	H	1.147498	0.567288	0.855523
H74	H	1.100968	0.511874	0.962440
H75	H	0.715901	0.526445	0.000015
H76	H	0.889980	0.445026	0.000010
H77	H	1.062641	0.450192	0.518653
O78	O	1.067355	0.445446	0.294477
C79	C	1.090605	0.422417	0.177334
H80	H	1.129985	0.335212	0.161159
H81	H	1.145351	0.490013	0.143750
C82	C	0.940489	0.530856	0.136458
C83	C	0.988848	0.423745	0.116591
H84	H	0.877722	0.531680	0.098987
H85	H	0.924827	0.546375	0.215379
H86	H	0.986121	0.587175	0.108471
H87	H	0.943221	0.367430	0.144590
H88	H	1.004500	0.408216	0.037673
H89	H	0.519607	0.501409	0.000020
H90	H	0.736404	0.049439	0.000026
