data_functionalizedCrystal
_audit_creation_method	'MofGen! by Chris Wilmer'
_symmetry_space_group_name_H-M	'P1'
_symmetry_Int_Tables_number	1
_symmetry_cell_setting	triclinic
loop_
_symmetry_equiv_pos_as_xyz
  x,y,z
_cell_length_a	8.497367
_cell_length_b	8.497374
_cell_length_c	12.594517
_cell_angle_alpha	90.003871
_cell_angle_beta	90.033674
_cell_angle_gamma	90.038609
loop_
_atom_site_label
_atom_site_type_symbol
_atom_site_fract_x
_atom_site_fract_y
_atom_site_fract_z
Zn1	Zn	0.628339	0.892563	1.627450
Zn2	Zn	0.892085	0.628982	1.627549
Zn3	Zn	0.628311	0.628780	1.449508
Zn4	Zn	0.892070	0.892703	1.449590
O5	O	0.760201	0.760757	1.538524
O6	O	0.663343	0.857624	1.776409
O7	O	0.857089	0.408193	1.603939
O8	O	0.407552	0.663628	1.473037
O9	O	0.857116	0.663972	1.776482
O10	O	0.407572	0.857428	1.603770
O11	O	0.663296	0.408044	1.473133
O12	O	0.663282	0.663765	1.300573
O13	O	0.857091	1.113447	1.473176
O14	O	0.857064	0.857668	1.300633
O15	O	0.663329	1.113344	1.603849
O16	O	1.112845	0.664109	1.604018
O17	O	1.112835	0.857864	1.473272
C18	C	0.760169	0.760711	1.261983
C19	C	0.760194	0.760728	1.143678
C20	C	1.348721	0.760611	1.538450
C21	C	1.170077	0.760900	1.538584
C22	C	0.760203	1.172237	1.538516
C23	C	0.760220	1.350881	1.538519
C24	C	0.654652	0.655465	1.074361
C25	C	0.798540	0.616778	1.003642
C26	C	0.616377	0.799442	1.003598
C27	C	0.904157	0.721966	1.074517
C28	C	0.721897	0.904697	1.074479
C29	C	0.865884	0.866065	1.003792
C30	C	0.760234	0.760805	1.816145
C31	C	0.760248	0.760825	1.934451
H32	H	0.565486	0.566338	1.105348
C33	C	1.066280	0.678116	1.116075
C34	C	1.064331	0.678475	1.227236
C35	C	1.213638	0.638065	1.265558
H36	H	1.141460	0.752394	1.091462
H37	H	1.093691	0.576158	1.091291
H38	H	1.036939	0.780418	1.252009
H39	H	0.989182	0.604196	1.251878
H40	H	1.241050	0.536107	1.240774
H41	H	1.288806	0.712348	1.240937
H42	H	1.212332	0.638290	1.340983
C43	C	0.841474	0.454384	0.962202
C44	C	0.730559	0.344599	0.997924
C45	C	0.770035	0.194989	0.959763
H46	H	0.942882	0.425977	0.987501
H47	H	0.842055	0.455772	0.886775
H48	H	0.729994	0.343207	1.073335
H49	H	0.629142	0.372955	0.972627
H50	H	0.770616	0.196377	0.884336
H51	H	0.871444	0.166598	0.985066
H52	H	0.694778	0.120484	0.983987
H53	H	0.494746	0.832092	0.972393
C54	C	0.985303	0.984607	0.962781
C55	C	1.135595	0.943395	0.998890
C56	C	1.245648	1.052539	0.961117
H57	H	0.959162	1.086597	0.988085
H58	H	0.984167	0.984586	0.887350
H59	H	1.136727	0.943433	1.074305
H60	H	1.161786	0.841424	0.973589
H61	H	1.244512	1.052518	0.885686
H62	H	1.219492	1.154522	0.986424
H63	H	1.347635	1.024584	0.985603
H64	H	0.689428	1.026370	1.105620
