data_functionalizedCrystal
_audit_creation_method	'MofGen! by Chris Wilmer'
_symmetry_space_group_name_H-M	'P1'
_symmetry_Int_Tables_number	1
_symmetry_cell_setting	triclinic
loop_
_symmetry_equiv_pos_as_xyz
  x,y,z
_cell_length_a	16.120530
_cell_length_b	18.050582
_cell_length_c	16.120484
_cell_angle_alpha	92.874938
_cell_angle_beta	90.167327
_cell_angle_gamma	87.088397
loop_
_atom_site_label
_atom_site_type_symbol
_atom_site_fract_x
_atom_site_fract_y
_atom_site_fract_z
Zn1	Zn	1.254423	-0.494362	-0.395664
Zn2	Zn	1.587757	-0.161029	-0.062330
Zn3	Zn	1.921090	0.172305	0.271003
Zn4	Zn	1.247279	-0.376125	-0.534710
Zn5	Zn	1.580612	-0.042792	-0.201376
Zn6	Zn	1.913945	0.290542	0.131957
Zn7	Zn	1.115376	-0.363595	-0.388616
Zn8	Zn	1.448710	-0.030262	-0.055282
Zn9	Zn	1.782043	0.303072	0.278051
Zn10	Zn	1.108276	-0.493682	-0.527617
Zn11	Zn	1.441609	-0.160349	-0.194283
Zn12	Zn	1.774942	0.172984	0.139050
O13	O	1.181338	-0.431941	-0.461651
O14	O	1.514672	-0.098608	-0.128318
O15	O	1.848005	0.234726	0.205015
O16	O	1.369840	-0.484206	-0.420027
O17	O	1.703174	-0.150872	-0.086693
O18	O	2.036507	0.182461	0.246640
O19	O	1.229763	-0.270538	-0.515349
O20	O	1.563096	0.062795	-0.182016
O21	O	1.896430	0.396128	0.151318
O22	O	1.139783	-0.375982	-0.273187
O23	O	1.473116	-0.042649	0.060146
O24	O	1.806450	0.290685	0.393480
O25	O	1.364591	-0.397338	-0.522183
O26	O	1.697925	-0.064004	-0.188850
O27	O	2.031258	0.269329	0.144484
O28	O	1.241940	-0.472056	-0.278365
O29	O	1.575273	-0.138723	0.054968
O30	O	1.908607	0.194611	0.388302
O31	O	1.132855	-0.261332	-0.408014
O32	O	1.466188	0.072001	-0.074681
O33	O	1.799522	0.405334	0.258652
O34	O	0.998069	-0.375323	-0.401136
O35	O	1.331403	-0.041990	-0.067803
O36	O	1.664736	0.291344	0.265530
O37	O	1.127681	-0.597697	-0.510094
O38	O	1.461014	-0.264364	-0.176761
O39	O	1.794348	0.068969	0.156573
O40	O	0.992853	-0.470898	-0.503260
O41	O	1.326186	-0.137564	-0.169926
O42	O	1.659519	0.195769	0.163407
O43	O	1.235055	-0.598196	-0.413149
O44	O	1.568388	-0.264863	-0.079815
O45	O	1.901722	0.068470	0.253518
O46	O	1.222878	-0.396679	-0.650133
O47	O	1.556211	-0.063345	-0.316799
O48	O	1.889544	0.269988	0.016534
O49	O	1.120753	-0.483048	-0.644921
O50	O	1.454086	-0.149714	-0.311588
O51	O	1.787420	0.183619	0.021745
C52	C	0.965289	-0.421677	-0.450664
C53	C	1.298622	-0.088344	-0.117331
C54	C	1.631955	0.244989	0.216002
C55	C	0.872861	-0.417305	-0.445984
C56	C	1.206194	-0.083972	-0.112651
C57	C	1.539527	0.249362	0.220683
C58	C	1.181373	-0.625647	-0.461616
C59	C	1.514706	-0.292313	-0.128283
C60	C	1.848040	0.041020	0.205050
C61	C	1.181388	-0.708193	-0.461601
C62	C	1.514721	-0.374859	-0.128268
C63	C	1.848054	-0.041526	0.205065
C64	C	0.703634	-0.409328	-0.437419
C65	C	1.036968	-0.075995	-0.104086
C66	C	1.370301	0.257339	0.229247
C67	C	0.659880	-0.454611	-0.485945
C68	C	0.993213	-0.121278	-0.152612
C69	C	1.326546	0.212056	0.180722
C70	C	0.565716	-0.450173	-0.481180
C71	C	0.899050	-0.116839	-0.147846
C72	C	1.232383	0.216494	0.185487
C73	C	0.797806	-0.413765	-0.442184
C74	C	1.131140	-0.080432	-0.108850
C75	C	1.464473	0.252901	0.224483
C76	C	1.123044	-0.907371	-0.514246
C77	C	1.456377	-0.574037	-0.180913
C78	C	1.789710	-0.240704	0.152420
C79	C	1.197880	-0.961229	-0.538426
C80	C	1.531214	-0.627896	-0.205093
C81	C	1.864547	-0.294563	0.128241
C82	C	1.181432	-0.859322	-0.461540
C83	C	1.514765	-0.525989	-0.128207
C84	C	1.848098	-0.192656	0.205127
C85	C	1.106638	-0.952546	-0.437339
C86	C	1.439972	-0.619213	-0.104006
C87	C	1.773305	-0.285880	0.229327
C88	C	1.181468	-1.005306	-0.461482
C89	C	1.514801	-0.671973	-0.128148
C90	C	1.848134	-0.338640	0.205185
C91	C	1.256306	-0.912097	-0.485761
C92	C	1.589639	-0.578764	-0.152428
C93	C	1.922973	-0.245431	0.180906
C94	C	1.165015	-0.903406	-0.384637
C95	C	1.498348	-0.570073	-0.051303
C96	C	1.831681	-0.236739	0.282030
C97	C	1.239905	-0.957244	-0.408790
C98	C	1.573238	-0.623910	-0.075457
C99	C	1.906571	-0.290577	0.257877
C100	C	1.181410	-0.775224	-0.461575
C101	C	1.514743	-0.441891	-0.128242
C102	C	1.848076	-0.108558	0.205091
C103	C	1.181498	-1.089403	-0.461447
C104	C	1.514832	-0.756069	-0.128113
C105	C	1.848165	-0.422736	0.205220
C106	C	1.398232	-0.442245	-0.472682
C107	C	1.731565	-0.108912	-0.139349
C108	C	2.064898	0.224421	0.193984
C109	C	1.490659	-0.446636	-0.477383
C110	C	1.823992	-0.113303	-0.144050
C111	C	2.157325	0.220030	0.189284
C112	C	1.170292	-0.441166	-0.677700
C113	C	1.503625	-0.107833	-0.344367
C114	C	1.836959	0.225500	-0.011033
C115	C	1.165642	-0.445142	-0.770130
C116	C	1.498976	-0.111808	-0.436797
C117	C	1.832309	0.221525	-0.103464
C118	C	1.181355	-0.238989	-0.461629
C119	C	1.514688	0.094345	-0.128296
C120	C	1.848022	0.427678	0.205038
C121	C	1.181513	-0.156441	-0.461418
C122	C	1.514847	0.176892	-0.128085
C123	C	1.848180	0.510226	0.205249
C124	C	1.157158	-0.452414	-0.939362
C125	C	1.490492	-0.119081	-0.606029
C126	C	1.823825	0.214252	-0.272695
C127	C	1.205667	-0.411487	-0.983108
C128	C	1.539001	-0.078154	-0.649775
C129	C	1.872334	0.255180	-0.316441
C130	C	1.200947	-0.415534	-1.077274
C131	C	1.534280	-0.082200	-0.743941
C132	C	1.867614	0.251133	-0.410608
C133	C	1.161878	-0.448369	-0.845187
C134	C	1.495211	-0.115035	-0.511854
C135	C	1.828545	0.218298	-0.178520
C136	C	1.192451	-0.422697	-0.244760
C137	C	1.525784	-0.089364	0.088573
C138	C	1.859117	0.243970	0.421906
C139	C	1.197186	-0.418758	-0.152334
C140	C	1.530519	-0.085424	0.180999
C141	C	1.863853	0.247909	0.514332
H142	H	0.670377	-0.367229	-0.392301
H143	H	1.003710	-0.033896	-0.058967
H144	H	1.337044	0.299437	0.274366
C145	C	0.704803	-0.511467	-0.546925
C146	C	1.038136	-0.178134	-0.213592
C147	C	1.371470	0.155199	0.119741
H148	H	0.763115	-0.507018	-0.542183
H149	H	1.096449	-0.173685	-0.208850
H150	H	1.429782	0.159648	0.124483
H151	H	0.691271	-0.560221	-0.534156
H152	H	1.024605	-0.226888	-0.200822
H153	H	1.357938	0.106445	0.132511
H154	H	0.687748	-0.502220	-0.602070
H155	H	1.021081	-0.168887	-0.268737
H156	H	1.354415	0.164446	0.064596
H157	H	1.319588	-0.894276	-0.506279
H158	H	1.652921	-0.560942	-0.172946
H159	H	1.986254	-0.227609	0.160388
H160	H	1.289351	-0.978998	-0.364196
H161	H	1.622684	-0.645665	-0.030862
H162	H	1.956018	-0.312331	0.302471
C163	C	1.056398	-0.877800	-0.574540
C164	C	1.389732	-0.544467	-0.241207
C165	C	1.723065	-0.211134	0.092126
H166	H	1.068216	-0.897714	-0.629143
H167	H	1.401549	-0.564380	-0.295810
H168	H	1.734883	-0.231047	0.037524
H169	H	1.003364	-0.892292	-0.557905
H170	H	1.336697	-0.558959	-0.224571
H171	H	1.670031	-0.225626	0.108762
H172	H	1.056514	-0.825146	-0.573781
H173	H	1.389848	-0.491813	-0.240448
H174	H	1.723181	-0.158479	0.092885
C175	C	1.216667	-0.995361	-0.626245
C176	C	1.550000	-0.662028	-0.292912
C177	C	1.883334	-0.328695	0.040422
H178	H	1.175119	-0.978279	-0.663649
H179	H	1.508452	-0.644946	-0.330316
H180	H	1.841786	-0.311613	0.003017
H181	H	1.269411	-0.980897	-0.643781
H182	H	1.602744	-0.647564	-0.310447
H183	H	1.936077	-0.314231	0.022886
H184	H	1.217042	-1.047969	-0.625485
H185	H	1.550375	-0.714636	-0.292151
H186	H	1.883708	-0.381302	0.041182
H187	H	1.151084	-0.878129	-0.319643
H188	H	1.484417	-0.544795	0.013690
H189	H	1.817751	-0.211462	0.347024
C190	C	1.021174	-0.976748	-0.409716
C191	C	1.354507	-0.643415	-0.076382
C192	C	1.687840	-0.310082	0.256951
H193	H	0.979745	-0.959663	-0.447244
H194	H	1.313078	-0.626329	-0.113911
H195	H	1.646411	-0.292996	0.219423
H196	H	1.021946	-1.029390	-0.409402
H197	H	1.355279	-0.696057	-0.076068
H198	H	1.688613	-0.362723	0.257265
H199	H	1.009097	-0.956107	-0.355465
H200	H	1.342430	-0.622774	-0.022131
H201	H	1.675764	-0.289441	0.311202
H202	H	1.250742	-0.373408	-0.949838
H203	H	1.584075	-0.040075	-0.616505
H204	H	1.917409	0.293259	-0.283172
H205	H	1.112086	-0.490489	-0.972629
H206	H	1.445419	-0.157156	-0.639296
H207	H	1.778753	0.176177	-0.305963
