data_functionalizedCrystal
_audit_creation_method	'MofGen! by Chris Wilmer'
_symmetry_space_group_name_H-M	'P1'
_symmetry_Int_Tables_number	1
_symmetry_cell_setting	triclinic
loop_
_symmetry_equiv_pos_as_xyz
  x,y,z
_cell_length_a	17.699083
_cell_length_b	8.965430
_cell_length_c	17.699083
_cell_angle_alpha	90.000469
_cell_angle_beta	83.283015
_cell_angle_gamma	89.997769
loop_
_atom_site_label
_atom_site_type_symbol
_atom_site_fract_x
_atom_site_fract_y
_atom_site_fract_z
O1	O	1.004076	0.123833	0.095706
O2	O	0.783697	0.123882	0.108158
O3	O	0.900113	0.123843	-0.008257
O4	O	0.887660	0.123872	0.212121
O5	O	0.900103	-0.124236	-0.008250
O6	O	0.783687	-0.124196	0.108166
O7	O	1.004066	-0.124246	0.095713
Cu8	Cu	0.893876	-0.146873	0.101940
Cu9	Cu	0.893887	0.146509	0.101931
O10	O	0.887650	-0.124206	0.212129
C11	C	0.755495	-0.000151	0.107716
C12	C	0.671477	-0.000132	0.106377
C13	C	0.622856	-0.000124	0.174710
C14	C	0.543913	-0.000143	0.173448
C15	C	0.513592	-0.000161	0.103852
C16	C	0.562219	-0.000174	0.035513
C17	C	0.641161	-0.000165	0.036776
C18	C	0.243856	-0.000211	0.030418
C19	C	0.164908	-0.000216	0.029160
C20	C	0.146608	-0.000190	0.167090
C21	C	0.225550	-0.000181	0.168353
C22	C	0.274170	-0.000202	0.100015
C23	C	0.359769	-0.000183	0.101384
C24	C	0.427995	-0.000168	0.102481
N25	N	0.893873	-0.353222	0.101946
C26	C	0.840018	-0.450509	0.155767
C27	C	0.908385	-0.549937	0.170327
C28	C	0.825535	-0.549922	0.087392
C29	C	0.962274	-0.450460	0.116541
C30	C	0.879379	-0.450437	0.033576
C31	C	0.947796	-0.549819	0.048107
C32	C	1.032268	-0.000209	0.096156
C33	C	1.116286	-0.000218	0.097494
C34	C	0.899662	-0.000196	-0.036451
C35	C	0.898323	-0.000197	-0.120469
N36	N	0.893896	0.352858	0.101919
C37	C	0.966656	-0.000214	-0.169090
C38	C	0.965394	-0.000200	-0.248033
C39	C	0.895798	-0.000180	-0.278354
C40	C	0.827459	-0.000158	-0.229727
C41	C	0.828722	-0.000161	-0.150785
C42	C	0.822364	-0.000145	-0.548090
C43	C	0.821106	-0.000147	-0.627038
C44	C	0.959036	-0.000184	-0.645338
C45	C	0.960299	-0.000187	-0.566396
C46	C	0.891961	-0.000157	-0.517776
C47	C	0.893330	-0.000169	-0.432177
C48	C	0.894427	-0.000179	-0.363951
C49	C	0.888102	-0.000164	0.240322
C50	C	0.889440	-0.000154	0.324340
H51	H	0.140225	-0.000232	-0.027517
N52	N	0.296281	-0.000212	-0.043293
H53	H	0.329438	0.091753	-0.045849
H54	H	0.329396	-0.092234	-0.045806
H55	H	0.537526	-0.000209	-0.021154
H56	H	1.014680	-0.000201	-0.684934
H57	H	0.920660	-0.593641	0.228135
H58	H	0.250232	-0.000160	0.225025
H59	H	0.764429	-0.000133	-0.651721
N60	N	0.748660	-0.000119	-0.495655
H61	H	0.704382	-0.000114	-0.526845
H62	H	0.746175	-0.092084	-0.462503
H63	H	1.023330	-0.000240	-0.144409
H64	H	0.504328	-0.000135	0.229092
H65	H	0.647537	-0.000109	0.231384
H66	H	0.680748	-0.000171	-0.018868
N67	N	0.752393	-0.000127	-0.262425
H68	H	0.761960	-0.000133	-0.319812
H69	H	0.722493	-0.092085	-0.244628
N70	N	1.008194	-0.607245	-0.012198
H71	H	0.997701	-0.569447	-0.063708
H72	H	1.059745	-0.570856	-0.001047
N73	N	0.779739	-0.392754	0.216102
H74	H	0.790799	-0.428955	0.267719
H75	H	0.779855	-0.280114	0.215302
N76	N	0.755025	-0.000173	-0.098333
H77	H	0.752476	0.091785	-0.065169
H78	H	0.710781	-0.000227	-0.129565
N79	N	0.748969	-0.607784	0.071099
H80	H	0.737593	-0.570036	0.019864
H81	H	0.749742	-0.720423	0.070761
H82	H	0.867083	-0.406698	-0.024214
H83	H	1.021038	-0.000218	-0.287618
N84	N	1.038857	-0.392838	0.132920
H85	H	1.032345	-0.330131	0.180647
H86	H	1.073513	-0.479827	0.140269
N87	N	0.094168	-0.000172	0.240801
H88	H	0.039557	-0.000185	0.229445
H89	H	0.103976	-0.092126	0.271144
N90	N	1.035363	-0.000221	-0.533692
H91	H	1.078462	-0.000228	-0.576473
H92	H	1.038894	0.091743	-0.501337
