data_functionalizedCrystal
_audit_creation_method	'MofGen! by Chris Wilmer'
_symmetry_space_group_name_H-M	'P1'
_symmetry_Int_Tables_number	1
_symmetry_cell_setting	triclinic
loop_
_symmetry_equiv_pos_as_xyz
  x,y,z
_cell_length_a	15.995350
_cell_length_b	26.809956
_cell_length_c	15.995350
_cell_angle_alpha	89.993425
_cell_angle_beta	83.492375
_cell_angle_gamma	90.005182
loop_
_atom_site_label
_atom_site_type_symbol
_atom_site_fract_x
_atom_site_fract_y
_atom_site_fract_z
O1	O	1.110992	0.041435	0.107915
O2	O	0.867217	0.041445	0.121242
O3	O	0.995768	0.041439	-0.007309
O4	O	0.982441	0.041441	0.236466
O5	O	0.995744	-0.041520	-0.007289
O6	O	0.867193	-0.041514	0.121262
O7	O	1.110968	-0.041524	0.107934
Zn8	Zn	0.989076	-0.054691	0.114601
Zn9	Zn	0.989108	0.054611	0.114575
O10	O	0.982416	-0.041519	0.236486
C11	C	0.836010	-0.000034	0.120701
C12	C	0.743060	-0.000030	0.119049
N13	N	0.989061	-0.129287	0.114618
C14	C	0.405312	-0.000040	0.113117
C15	C	0.452746	-0.000226	0.021565
C16	C	0.549436	-0.000035	0.023217
C17	C	0.572873	-0.000035	0.116060
C18	C	0.531799	0.047337	0.161205
C19	C	0.435164	0.047373	0.158905
C20	C	0.434797	-0.046967	0.160819
C21	C	0.531742	-0.047590	0.160797
C22	C	0.667570	-0.000031	0.117727
C23	C	0.310614	-0.000041	0.111452
C24	C	1.046024	-0.473916	0.057667
C25	C	1.046043	-0.682793	0.057654
O26	O	1.094441	-0.709799	0.009237
N27	N	0.989113	-0.708914	0.114557
C28	C	0.932170	-0.682812	0.171463
O29	O	0.883741	-0.709822	0.219857
C30	C	0.932146	-0.473936	0.171471
C31	C	0.989086	-0.447817	0.114571
C32	C	1.102958	-0.447797	0.000770
C33	C	1.102956	-0.395581	0.000777
C34	C	1.046019	-0.369483	0.057681
C35	C	0.989084	-0.395601	0.114577
C36	C	0.875200	-0.447835	0.228373
C37	C	0.875198	-0.395612	0.228369
C38	C	0.932138	-0.369494	0.171468
C39	C	0.932144	-0.317287	0.171488
N40	N	0.989075	-0.291166	0.114585
C41	C	1.046012	-0.317264	0.057681
C42	C	0.932187	-0.792476	0.171456
C43	C	0.932194	-0.844695	0.171455
C44	C	1.046067	-0.844672	0.057645
C45	C	1.046063	-0.792452	0.057650
C46	C	0.989117	-0.766355	0.114553
C47	C	1.046003	-0.207606	0.057701
C48	C	1.045998	-0.155385	0.057715
C49	C	0.932122	-0.155412	0.171522
C50	C	0.932130	-0.207629	0.171511
C51	C	0.989074	-0.233724	0.114593
O52	O	0.883765	-0.290249	0.219873
O53	O	1.094421	-0.290245	0.009283
C54	C	1.046026	-0.526132	0.057660
C55	C	0.989091	-0.552250	0.114557
C56	C	0.932154	-0.526152	0.171461
C57	C	0.989098	-0.604469	0.114556
C58	C	1.046035	-0.630567	0.057652
C59	C	1.102966	-0.604446	0.000750
C60	C	1.102963	-0.552230	0.000757
C61	C	0.875224	-0.552273	0.228363
C62	C	0.875231	-0.604489	0.228353
C63	C	0.932169	-0.630587	0.171449
C64	C	1.142175	-0.000045	0.108476
C65	C	1.235125	-0.000046	0.110127
C66	C	0.995205	-0.000040	-0.038494
C67	C	0.993553	-0.000037	-0.131444
N68	N	0.989131	0.129207	0.114552
C69	C	0.987621	-0.000038	-0.469192
C70	C	0.896069	0.000152	-0.421758
C71	C	0.897721	-0.000035	-0.325068
C72	C	0.990564	-0.000037	-0.301631
C73	C	1.035706	-0.047412	-0.342698
C74	C	1.033407	-0.047451	-0.439333
C75	C	1.035325	0.046889	-0.439714
C76	C	1.035304	0.047515	-0.342769
C77	C	0.992231	-0.000038	-0.206934
C78	C	0.985956	-0.000040	-0.563890
C79	C	0.982980	-0.000039	0.267671
C80	C	0.984631	-0.000039	0.360621
H81	H	0.434214	-0.034198	-0.015022
H82	H	1.092428	-0.865930	0.011313
C83	C	0.426291	0.045412	-0.027665
C84	C	0.361862	0.082795	0.014900
C85	C	0.335407	0.128434	-0.034327
C86	C	0.373380	0.136690	-0.126118
C87	C	0.437813	0.099305	-0.168688
C88	C	0.464268	0.053667	-0.119461
H89	H	0.333749	0.076685	0.082854
H90	H	0.287709	0.156108	-0.002813
H91	H	0.353796	0.170474	-0.162559
H92	H	0.465926	0.105416	-0.236642
H93	H	0.511966	0.025992	-0.150974
H94	H	1.149329	-0.530968	-0.045578
H95	H	0.416866	0.082785	0.125967
H96	H	0.402916	0.049523	0.226120
H97	H	0.545925	0.049098	0.229413
C98	C	0.846835	-0.045485	-0.448203
C99	C	0.765530	-0.038105	-0.489880
C100	C	0.716297	-0.083742	-0.516325
C101	C	0.748369	-0.136761	-0.501093
C102	C	0.829678	-0.144144	-0.459414
C103	C	0.878911	-0.098507	-0.432969
H104	H	0.741784	0.001145	-0.501157
H105	H	0.656106	-0.078277	-0.547178
H106	H	0.711924	-0.170545	-0.520669
H107	H	0.853424	-0.183394	-0.448137
H108	H	0.939102	-0.103972	-0.402116
C109	C	1.124204	-0.050365	-0.482909
C110	C	1.151224	-0.094427	-0.541580
C111	C	1.242019	-0.097345	-0.585152
C112	C	1.305792	-0.056200	-0.570053
C113	C	1.278773	-0.012135	-0.511379
C114	C	1.187979	-0.009218	-0.467807
H115	H	1.104014	-0.124888	-0.552759
H116	H	1.262020	-0.129965	-0.628587
H117	H	1.373004	-0.058360	-0.602308
H118	H	1.325983	0.018326	-0.500200
H119	H	1.167978	0.023403	-0.424373
C120	C	0.587091	0.045923	-0.025058
C121	C	0.529169	0.082567	-0.065230
C122	C	0.566823	0.128528	-0.113504
C123	C	0.662400	0.137846	-0.121606
C124	C	0.720328	0.101201	-0.081432
C125	C	0.682674	0.055240	-0.033158
H126	H	0.458412	0.075670	-0.059234
H127	H	0.523941	0.155655	-0.143243
H128	H	0.690274	0.171869	-0.157341
H129	H	0.791085	0.108098	-0.087428
H130	H	0.725556	0.028113	-0.003419
H131	H	0.559049	-0.082635	0.127842
C132	C	0.570131	0.094965	0.118815
C133	C	0.665239	0.104930	0.115820
C134	C	0.703568	0.152556	0.073420
C135	C	0.646788	0.190218	0.034014
C136	C	0.551675	0.180254	0.037008
C137	C	0.513346	0.132628	0.079408
H138	H	0.707276	0.077050	0.144991
H139	H	0.773978	0.159932	0.071204
H140	H	0.675162	0.225473	0.002627
H141	H	0.509638	0.208134	0.007837
H142	H	0.442936	0.125252	0.081624
C143	C	1.126513	0.047322	-0.482622
C144	C	1.186633	0.089749	-0.464053
C145	C	1.277816	0.090178	-0.506966
C146	C	1.308879	0.048181	-0.568449
C147	C	1.248758	0.005751	-0.587022
C148	C	1.157575	0.005322	-0.544108
H149	H	1.163638	0.120841	-0.418537
H150	H	1.322321	0.121588	-0.493217
H151	H	1.376378	0.048499	-0.600217
H152	H	1.271752	-0.025341	-0.632538
H153	H	1.113070	-0.026088	-0.557857
C154	C	0.552491	-0.051458	0.252265
C155	C	0.518342	-0.095457	0.307905
C156	C	0.539090	-0.099321	0.399376
C157	C	0.593986	-0.059186	0.435207
C158	C	0.628139	-0.015183	0.379566
C159	C	0.607391	-0.011319	0.288095
H160	H	0.477701	-0.125170	0.281382
H161	H	0.513808	-0.131895	0.440565
H162	H	0.609345	-0.062046	0.502919
H163	H	0.668779	0.014530	0.406089
H164	H	0.632673	0.021254	0.246905
C165	C	1.108633	-0.126655	-0.004882
C166	C	1.107231	-0.133826	-0.100232
C167	C	1.169862	-0.105099	-0.162828
C168	C	1.233895	-0.069200	-0.130073
C169	C	1.235299	-0.062028	-0.034718
C170	C	1.172668	-0.090755	0.027877
H171	H	1.059828	-0.160402	-0.124483
H172	H	1.168822	-0.110408	-0.233416
H173	H	1.280258	-0.047934	-0.176410
H174	H	1.282702	-0.035452	-0.010467
H175	H	1.173708	-0.085446	0.098466
H176	H	1.092428	-0.771190	0.011317
C177	C	0.407051	-0.095477	0.120395
C178	C	0.357255	-0.093097	0.043546
C179	C	0.329510	-0.141603	0.003112
C180	C	0.351561	-0.192490	0.039526
C181	C	0.401360	-0.194873	0.116379
C182	C	0.429105	-0.146366	0.156813
H183	H	0.340930	-0.055425	0.016587
H184	H	0.292646	-0.139839	-0.053780
H185	H	0.331023	-0.228398	0.009594
H186	H	0.417686	-0.232544	0.143339
H187	H	0.465969	-0.148130	0.213705
H188	H	0.403036	-0.047287	0.228320
C189	C	0.812592	-0.633216	0.290948
C190	C	0.748562	-0.669113	0.258184
C191	C	0.685920	-0.697838	0.320771
C192	C	0.687307	-0.690667	0.416123
C193	C	0.751339	-0.654768	0.448892
C194	C	0.813982	-0.626043	0.386305
H195	H	0.747533	-0.674423	0.187594
H196	H	0.638519	-0.724412	0.296512
H197	H	0.640935	-0.711931	0.462454
H198	H	0.752368	-0.649458	0.519482
H199	H	0.861382	-0.599469	0.410564
H200	H	1.000468	-0.082864	-0.457626
H201	H	1.092371	-0.228847	0.011352
H202	H	1.149319	-0.374319	-0.045559
C203	C	0.990783	0.094865	-0.305899
C204	C	0.914164	0.090395	-0.238755
C205	C	0.869643	0.137743	-0.201879
C206	C	0.901740	0.189562	-0.232147
C207	C	0.978364	0.194034	-0.299295
C208	C	1.022885	0.146685	-0.336171
H209	H	0.890400	0.052034	-0.216346
H210	H	0.812921	0.134433	-0.152172
H211	H	0.868783	0.224612	-0.204849
H212	H	1.002128	0.232395	-0.321704
H213	H	1.079607	0.149996	-0.385878
H214	H	1.149323	-0.469042	-0.045571
H215	H	0.861977	-0.034051	-0.297195
C216	C	0.846645	0.046051	-0.446790
C217	C	0.888807	0.083922	-0.510611
C218	C	0.839384	0.129825	-0.535643
C219	C	0.747800	0.137857	-0.496853
C220	C	0.705633	0.099985	-0.433028
C221	C	0.755056	0.054082	-0.407997
H222	H	0.956607	0.077977	-0.539329
H223	H	0.870600	0.157861	-0.582891
H224	H	0.711215	0.171838	-0.515383
H225	H	0.637833	0.105930	-0.404311
H226	H	0.723841	0.026047	-0.360749
H227	H	0.885773	-0.228894	0.217853
C228	C	0.869565	-0.873421	0.234053
C229	C	0.806935	-0.844708	0.296640
C230	C	0.744301	-0.873433	0.359237
C231	C	0.744297	-0.930871	0.359246
C232	C	0.806930	-0.959588	0.296657
C233	C	0.869564	-0.930863	0.234061
H234	H	0.806936	-0.802185	0.296635
H235	H	0.697937	-0.852174	0.405569
H236	H	0.697932	-0.952135	0.405584
H237	H	0.806929	-1.002111	0.296662
H238	H	0.915928	-0.952122	0.187728
C239	C	1.126773	0.051382	-0.322027
C240	C	1.155065	0.097156	-0.274323
C241	C	1.246539	0.101020	-0.253585
C242	C	1.309722	0.059110	-0.280551
C243	C	1.281432	0.013333	-0.328258
C244	C	1.189957	0.009469	-0.348996
H245	H	1.108292	0.128183	-0.254359
H246	H	1.267481	0.134907	-0.218269
H247	H	1.377436	0.061970	-0.265200
H248	H	1.328204	-0.017694	-0.348223
H249	H	1.169015	-0.024418	-0.384312
H250	H	0.885814	-0.771231	0.217796
C251	C	0.812560	-0.476557	0.290960
C252	C	0.717221	-0.469378	0.289482
C253	C	0.654575	-0.498100	0.352070
C254	C	0.687268	-0.534002	0.416136
C255	C	0.782612	-0.541183	0.417616
C256	C	0.845257	-0.512461	0.355028
H257	H	0.693015	-0.442800	0.242054
H258	H	0.583995	-0.492784	0.350974
H259	H	0.640894	-0.555265	0.462467
H260	H	0.806817	-0.567762	0.465044
H261	H	0.915837	-0.517777	0.356124
H262	H	0.828823	-0.374366	0.274705
H263	H	0.885767	-0.134155	0.217855
C264	C	1.127851	-0.049800	-0.323614
C265	C	1.163262	-0.008661	-0.270392
C266	C	1.255406	-0.011048	-0.251307
C267	C	1.312139	-0.054574	-0.285444
C268	C	1.276729	-0.095716	-0.338668
C269	C	1.184585	-0.093329	-0.357754
H270	H	1.121264	0.023562	-0.245120
H271	H	1.281618	0.019408	-0.211906
H272	H	1.380349	-0.056341	-0.271316
H273	H	1.318727	-0.127940	-0.363941
H274	H	1.158372	-0.123786	-0.397154
C275	C	1.165596	-0.633161	-0.061847
C276	C	1.132875	-0.669056	-0.125898
C277	C	1.195499	-0.697773	-0.188495
C278	C	1.290843	-0.690595	-0.187040
C279	C	1.323569	-0.654697	-0.122987
C280	C	1.260945	-0.625980	-0.060390
H281	H	1.062292	-0.674372	-0.126977
H282	H	1.171272	-0.724347	-0.235912
H283	H	1.337200	-0.711853	-0.233378
H284	H	1.394152	-0.649382	-0.121908
H285	H	1.285172	-0.599407	-0.012973
H286	H	0.828857	-0.531028	0.274700
H287	H	1.004333	-0.082665	-0.314308
C288	C	0.994904	0.095399	-0.467465
C289	C	1.047236	0.132340	-0.525674
C290	C	1.006805	0.180847	-0.553423
C291	C	0.914042	0.192414	-0.522965
C292	C	0.861704	0.155473	-0.464753
C293	C	0.902136	0.106965	-0.437003
H294	H	1.115910	0.123778	-0.548224
H295	H	1.045549	0.208194	-0.596516
H296	H	0.884112	0.228322	-0.543507
H297	H	0.793031	0.164034	-0.442203
H298	H	0.863392	0.079619	-0.393911
H299	H	0.862235	0.033925	-0.296654
H300	H	0.577855	-0.033994	-0.012270
