data_functionalizedCrystal
_audit_creation_method	'MofGen! by Chris Wilmer'
_symmetry_space_group_name_H-M	'P1'
_symmetry_Int_Tables_number	1
_symmetry_cell_setting	triclinic
loop_
_symmetry_equiv_pos_as_xyz
  x,y,z
_cell_length_a	17.038272
_cell_length_b	15.500218
_cell_length_c	17.038272
_cell_angle_alpha	92.987194
_cell_angle_beta	88.888444
_cell_angle_gamma	87.017880
loop_
_atom_site_label
_atom_site_type_symbol
_atom_site_fract_x
_atom_site_fract_y
_atom_site_fract_z
O1	O	1.052223	-0.071837	-0.174004
O2	O	1.385556	0.261496	0.159329
O3	O	1.718890	0.594830	0.492663
O4	O	0.824413	-0.071862	-0.171297
O5	O	1.157746	0.261471	0.162036
O6	O	1.491079	0.594804	0.495369
O7	O	0.936964	-0.071843	-0.058745
O8	O	1.270297	0.261490	0.274589
O9	O	1.603630	0.594824	0.607922
O10	O	0.939672	-0.071856	-0.286557
O11	O	1.273006	0.261477	0.046776
O12	O	1.606339	0.594810	0.380110
O13	O	0.930006	0.072046	-0.051795
O14	O	1.263339	0.405379	0.281538
O15	O	1.596672	0.738713	0.614871
O16	O	0.817455	0.072027	-0.164348
O17	O	1.150788	0.405360	0.168985
O18	O	1.484121	0.738693	0.502319
O19	O	1.045265	0.072052	-0.167055
O20	O	1.378598	0.405385	0.166279
O21	O	1.711932	0.738719	0.499612
Cu22	Cu	0.930725	0.085177	-0.165067
Cu23	Cu	1.264058	0.418511	0.168267
Cu24	Cu	1.597391	0.751844	0.501600
Cu25	Cu	0.938953	-0.084988	-0.173285
Cu26	Cu	1.272287	0.248346	0.160048
Cu27	Cu	1.605620	0.581679	0.493381
O28	O	0.932714	0.072033	-0.279607
O29	O	1.266047	0.405366	0.053726
O30	O	1.599381	0.738699	0.387059
C31	C	0.791641	0.000079	-0.165360
C32	C	1.124975	0.333412	0.167973
C33	C	1.458308	0.666746	0.501307
C34	C	0.704358	0.000069	-0.158012
C35	C	1.037691	0.333403	0.175321
C36	C	1.371025	0.666736	0.508654
N37	N	0.924943	0.204862	-0.159286
N38	N	1.258276	0.538196	0.174047
N39	N	1.591609	0.871529	0.507380
C40	C	0.658749	0.000066	-0.225476
C41	C	0.992082	0.333399	0.107857
C42	C	1.325416	0.666733	0.441190
C43	C	0.576736	0.000078	-0.218567
C44	C	0.910070	0.333412	0.114767
C45	C	1.243403	0.666745	0.448100
C46	C	0.540335	0.000088	-0.144193
C47	C	0.873668	0.333421	0.189140
C48	C	1.207002	0.666755	0.522474
C49	C	0.585950	0.000094	-0.076724
C50	C	0.919283	0.333427	0.256609
C51	C	1.252617	0.666760	0.589943
C52	C	0.667961	0.000088	-0.083634
C53	C	1.001294	0.333421	0.249699
C54	C	1.334627	0.666754	0.583033
C55	C	0.292946	0.000112	-0.119781
C56	C	0.626279	0.333446	0.213552
C57	C	0.959612	0.666779	0.546886
C58	C	0.210929	0.000116	-0.112876
C59	C	0.544262	0.333449	0.220457
C60	C	0.877596	0.666783	0.553790
C61	C	0.201721	0.000102	-0.254720
C62	C	0.535055	0.333436	0.078614
C63	C	0.868388	0.666769	0.411947
C64	C	0.283734	0.000091	-0.261623
C65	C	0.617067	0.333424	0.071710
C66	C	0.950401	0.666758	0.405043
C67	C	0.329342	0.000101	-0.194154
C68	C	0.662675	0.333435	0.139179
C69	C	0.996008	0.666768	0.472513
C70	C	0.456505	0.000098	-0.137129
C71	C	0.789839	0.333431	0.196205
C72	C	1.123172	0.666764	0.529538
C73	C	0.413170	0.000098	-0.201219
C74	C	0.746503	0.333431	0.132115
C75	C	1.079836	0.666764	0.465448
C76	C	0.973553	0.250138	-0.207928
C77	C	1.306886	0.583471	0.125405
C78	C	1.640220	0.916805	0.458738
C79	C	0.969190	0.340711	-0.203552
C80	C	1.302524	0.674044	0.129781
C81	C	1.635857	1.007378	0.463114
C82	C	0.916213	0.386007	-0.150538
C83	C	1.249546	0.719340	0.182796
C84	C	1.582879	1.052673	0.516129
C85	C	0.867600	0.340725	-0.101890
C86	C	1.200933	0.674058	0.231443
C87	C	1.534267	1.007391	0.564776
C88	C	0.871967	0.250154	-0.106263
C89	C	1.205301	0.583487	0.227070
C90	C	1.538634	0.916820	0.560404
C91	C	0.900489	0.659474	-0.134789
C92	C	1.233823	0.992807	0.198545
C93	C	1.567156	1.326141	0.531878
C94	C	0.896124	0.750052	-0.130421
C95	C	1.229457	1.083385	0.202912
C96	C	1.562791	1.416718	0.536245
C97	C	0.997716	0.750032	-0.232083
C98	C	1.331049	1.083365	0.101251
C99	C	1.664383	1.416698	0.434584
C100	C	1.002075	0.659458	-0.236454
C101	C	1.335408	0.992792	0.096879
C102	C	1.668742	1.326125	0.430213
C103	C	0.953465	0.614184	-0.187804
C104	C	1.286799	0.947518	0.145530
C105	C	1.620132	1.280851	0.478863
C106	C	0.911750	0.478587	-0.146065
C107	C	1.245084	0.811920	0.187268
C108	C	1.578417	1.145253	0.520602
C109	C	0.957932	0.521606	-0.192273
C110	C	1.291266	0.854939	0.141060
C111	C	1.624599	1.188273	0.474394
C112	C	1.078037	0.000109	-0.172992
C113	C	1.411370	0.333442	0.160341
C114	C	1.744703	0.666775	0.493674
C115	C	1.165320	0.000113	-0.180340
C116	C	1.498653	0.333446	0.152993
C117	C	1.831987	0.666779	0.486327
C118	C	0.931022	0.000101	-0.025977
C119	C	1.264355	0.333434	0.307356
C120	C	1.597688	0.666768	0.640689
C121	C	0.923674	0.000100	0.061306
C122	C	1.257007	0.333433	0.394640
C123	C	1.590340	0.666767	0.727973
N124	N	0.944735	0.795327	-0.179063
N125	N	1.278068	1.128660	0.154270
N126	N	1.611401	1.461994	0.487603
C127	C	0.938656	0.000087	-0.312375
C128	C	1.271989	0.333420	0.020958
C129	C	1.605323	0.666753	0.354292
C130	C	0.946004	0.000082	-0.399659
C131	C	1.279338	0.333415	-0.066325
C132	C	1.612671	0.666749	0.267008
C133	C	0.991137	0.000109	0.106916
C134	C	1.324470	0.333442	0.440249
C135	C	1.657804	0.666775	0.773583
C136	C	0.984228	0.000100	0.188927
C137	C	1.317562	0.333433	0.522261
C138	C	1.650895	0.666766	0.855594
C139	C	0.909856	0.000088	0.225328
C140	C	1.243189	0.333422	0.558661
C141	C	1.576522	0.666755	0.891995
C142	C	0.842388	0.000077	0.179712
C143	C	1.175721	0.333411	0.513045
C144	C	1.509054	0.666744	0.846379
C145	C	0.849297	0.000080	0.097702
C146	C	1.182630	0.333413	0.431035
C147	C	1.515964	0.666747	0.764369
C148	C	0.885446	0.000074	0.472715
C149	C	1.218779	0.333407	0.806049
C150	C	1.552112	0.666740	1.139382
C151	C	0.878541	0.000074	0.554732
C152	C	1.211874	0.333407	0.888065
C153	C	1.545208	0.666740	1.221398
C154	C	1.020383	0.000094	0.563941
C155	C	1.353716	0.333427	0.897275
C156	C	1.687050	0.666761	1.230608
C157	C	1.027286	0.000102	0.481929
C158	C	1.360619	0.333435	0.815263
C159	C	1.693952	0.666769	1.148596
C160	C	0.959818	0.000087	0.436320
C161	C	1.293151	0.333420	0.769654
C162	C	1.626484	0.666753	1.102987
C163	C	0.902792	0.000082	0.309157
C164	C	1.236126	0.333415	0.642490
C165	C	1.569459	0.666749	0.975824
C166	C	0.966882	0.000087	0.352493
C167	C	1.300216	0.333420	0.685826
C168	C	1.633549	0.666754	1.019159
H169	H	0.688381	0.000058	-0.286039
H170	H	1.021714	0.333391	0.047294
H171	H	1.355047	0.666724	0.380627
H172	H	0.313367	0.000073	-0.322187
H173	H	0.646700	0.333407	0.011147
H174	H	0.980033	0.666740	0.344480
H175	H	0.817974	0.000078	0.584367
H176	H	1.151308	0.333412	0.917700
H177	H	1.484641	0.666745	1.251033
H178	H	0.794361	0.000073	0.060567
H179	H	1.127694	0.333406	0.393900
H180	H	1.461028	0.666740	0.727234
H181	H	1.027437	0.000077	0.322851
H182	H	1.360770	0.333410	0.656184
H183	H	1.694104	0.666744	0.989518
Br184	Br	0.139822	0.000089	-0.346280
Br185	Br	0.473155	0.333422	-0.012946
Br186	Br	0.806488	0.666756	0.320387
Br187	Br	0.462573	0.000090	-0.302151
Br188	Br	0.795906	0.333424	0.031182
Br189	Br	1.129239	0.666757	0.364515
H190	H	0.852979	0.786929	-0.087250
H191	H	1.186312	1.120262	0.246083
H192	H	1.519646	1.453596	0.579416
H193	H	1.087848	0.000111	0.452298
H194	H	1.421181	0.333445	0.785631
H195	H	1.754514	0.666778	1.118965
Br196	Br	1.029833	0.460132	-0.264214
Br197	Br	1.363166	0.793466	0.069119
Br198	Br	1.696500	1.126799	0.402452
H199	H	0.830508	0.000061	0.435590
H200	H	1.163841	0.333395	0.768923
H201	H	1.497175	0.666728	1.102257
Br202	Br	0.729860	0.000100	0.007928
Br203	Br	1.063193	0.333433	0.341262
Br204	Br	1.396526	0.666766	0.674595
H205	H	0.868615	0.515477	-0.102901
H206	H	1.201949	0.848810	0.230433
H207	H	1.535282	1.182143	0.563766
H208	H	0.539605	0.000075	-0.273503
H209	H	0.872938	0.333408	0.059830
H210	H	1.206271	0.666741	0.393164
H211	H	0.860908	0.622623	-0.095174
H212	H	1.194241	0.955956	0.238160
H213	H	1.527574	1.289289	0.571493
H214	H	0.426857	0.000130	-0.076572
H215	H	0.760190	0.333463	0.256761
H216	H	1.093523	0.666797	0.590095
Br217	Br	0.806004	0.188707	-0.040236
Br218	Br	1.139337	0.522040	0.293098
Br219	Br	1.472670	0.855373	0.626431
H220	H	0.842237	0.000075	0.338803
H221	H	1.175571	0.333408	0.672137
H222	H	1.508904	0.666741	1.005470
Br223	Br	0.161526	0.000147	-0.011933
Br224	Br	0.494860	0.333481	0.321400
Br225	Br	0.828193	0.666814	0.654734
H226	H	1.037292	0.786903	-0.271690
H227	H	1.370625	1.120237	0.061643
H228	H	1.703958	1.453570	0.394976
H229	H	1.051699	0.000123	0.077285
H230	H	1.385032	0.333456	0.410619
H231	H	1.718366	0.666790	0.743952
H232	H	0.330070	0.000122	-0.064842
H233	H	0.663403	0.333455	0.268491
H234	H	0.996737	0.666788	0.601824
H235	H	1.016689	0.213265	-0.251103
H236	H	1.350022	0.546598	0.082231
H237	H	1.683356	0.879931	0.415564
Br238	Br	0.741452	0.000048	0.229111
Br239	Br	1.074786	0.333381	0.562444
Br240	Br	1.408119	0.666714	0.895778
H241	H	0.824468	0.377612	-0.058721
H242	H	1.157801	0.710945	0.274612
H243	H	1.491135	1.044278	0.607946
H244	H	1.039164	0.000108	0.226060
H245	H	1.372498	0.333442	0.559393
H246	H	1.705831	0.666775	0.892726
H247	H	0.556305	0.000114	-0.016166
H248	H	0.889638	0.333447	0.317167
H249	H	1.222971	0.666780	0.650500
H250	H	1.008776	0.377570	-0.243160
H251	H	1.342109	0.710904	0.090173
H252	H	1.675443	1.044237	0.423506
H253	H	1.045217	0.622585	-0.279622
H254	H	1.378551	0.955918	0.053712
H255	H	1.711884	1.289251	0.387045
H256	H	1.075311	0.000105	0.601084
H257	H	1.408645	0.333439	0.934418
H258	H	1.741978	0.666772	1.267751
