data_functionalizedCrystal
_audit_creation_method	'MofGen! by Chris Wilmer'
_symmetry_space_group_name_H-M	'P1'
_symmetry_Int_Tables_number	1
_symmetry_cell_setting	triclinic
loop_
_symmetry_equiv_pos_as_xyz
  x,y,z
_cell_length_a	12.594517
_cell_length_b	12.594516
_cell_length_c	13.897441
_cell_angle_alpha	90.028053
_cell_angle_beta	90.022202
_cell_angle_gamma	90.011616
loop_
_atom_site_label
_atom_site_type_symbol
_atom_site_fract_x
_atom_site_fract_y
_atom_site_fract_z
Zn1	Zn	1.627307	-0.423714	0.545436
Zn2	Zn	1.627209	-0.601725	0.384145
Zn3	Zn	1.449309	-0.423760	0.384150
Zn4	Zn	1.449307	-0.601650	0.545393
O5	O	1.538283	-0.512712	0.464781
O6	O	1.776240	-0.447339	0.524056
O7	O	1.603569	-0.578168	0.249164
O8	O	1.472963	-0.274808	0.405566
O9	O	1.776168	-0.578123	0.405556
O10	O	1.603738	-0.274774	0.524062
O11	O	1.472867	-0.447418	0.249168
O12	O	1.300363	-0.447345	0.405524
O13	O	1.472959	-0.577996	0.680380
O14	O	1.300361	-0.578041	0.523988
O15	O	1.603736	-0.447267	0.680412
O16	O	1.603568	-0.750660	0.405514
O17	O	1.472864	-0.750606	0.523983
C18	C	1.261742	-0.512691	0.464753
C19	C	1.143436	-0.512707	0.464763
C20	C	1.074153	-0.441525	0.400453
C21	C	1.003349	-0.538614	0.376728
C22	C	1.003442	-0.415666	0.488505
C23	C	1.074190	-0.609847	0.440992
C24	C	1.074289	-0.486834	0.552810
C25	C	1.003517	-0.583990	0.529118
C26	C	1.538234	-0.789253	0.464764
C27	C	1.538310	-0.907558	0.464789
C28	C	1.609482	-0.976803	0.400423
C29	C	1.635494	-1.047499	0.488464
C30	C	1.512431	-1.047661	0.376804
C31	C	1.564372	-0.976696	0.552877
C32	C	1.441263	-0.976852	0.441157
C33	C	1.467238	-1.047517	0.529259
C34	C	1.815904	-0.512734	0.464810
C35	C	1.934209	-0.512744	0.464822
C36	C	1.538358	-0.512618	0.716374
C37	C	1.538391	-0.512578	0.823588
C38	C	1.538361	-0.235091	0.464819
C39	C	1.538395	-0.116786	0.464835
C40	C	1.538269	-0.512729	0.214167
C41	C	1.538443	-0.512469	0.106953
C42	C	1.538419	-0.512506	1.019883
C43	C	1.538400	-0.512549	0.910651
H44	H	1.105473	-0.464897	0.627221
H45	H	0.972309	-0.333595	0.508527
H46	H	1.717601	-1.078534	0.508479
O47	O	1.343372	-0.939840	0.417084
C48	C	1.316336	-0.975959	0.324208
H49	H	1.391793	-0.995829	0.282661
H50	H	1.264725	-1.050027	0.330268
C51	C	1.161911	-0.864114	0.321720
C52	C	1.254590	-0.888510	0.270688
H53	H	1.123820	-0.810175	0.288707
H54	H	1.180123	-0.839783	0.384294
H55	H	1.118915	-0.925845	0.326767
H56	H	1.297591	-0.826783	0.265653
H57	H	1.236384	-0.912829	0.208112
H58	H	1.669680	-0.945752	0.346040
O59	O	0.966788	-0.656044	0.593919
C60	C	1.003054	-0.758199	0.568576
H61	H	1.022755	-0.760111	0.488539
H62	H	1.077255	-0.778013	0.612005
C63	C	0.891625	-0.838088	0.688645
C64	C	0.915814	-0.840440	0.590340
H65	H	0.837815	-0.888820	0.702073
H66	H	0.867194	-0.769265	0.705722
H67	H	0.953467	-0.854597	0.724824
H68	H	0.853977	-0.823918	0.554163
H69	H	0.940233	-0.909263	0.573257
O70	O	1.111112	-0.369900	0.335368
C71	C	1.074937	-0.397588	0.242668
H72	H	1.055081	-0.485877	0.240716
H73	H	1.000848	-0.349533	0.224679
C74	C	1.186710	-0.265047	0.170742
C75	C	1.162332	-0.373487	0.168342
H76	H	1.240616	-0.250177	0.124892
H77	H	1.211080	-0.246390	0.233195
H78	H	1.124962	-0.225014	0.155754
H79	H	1.224075	-0.413518	0.183341
H80	H	1.137974	-0.392151	0.105889
H81	H	1.586214	-0.945658	0.627368
H82	H	1.407087	-1.078370	0.583774
H83	H	1.490507	-1.078831	0.302377
H84	H	0.972190	-0.560521	0.302295
H85	H	1.105138	-0.691953	0.420854
