data_functionalizedCrystal
_audit_creation_method	'MofGen! by Chris Wilmer'
_symmetry_space_group_name_H-M	'P1'
_symmetry_Int_Tables_number	1
_symmetry_cell_setting	triclinic
loop_
_symmetry_equiv_pos_as_xyz
  x,y,z
_cell_length_a	10.868271
_cell_length_b	11.026607
_cell_length_c	11.026607
_cell_angle_alpha	108.586017
_cell_angle_beta	89.997040
_cell_angle_gamma	89.996513
loop_
_atom_site_label
_atom_site_type_symbol
_atom_site_fract_x
_atom_site_fract_y
_atom_site_fract_z
O1	O	0.102319	-1.726733	-0.533624
O2	O	0.602319	-1.226733	-0.033624
O3	O	0.102321	-1.360153	-0.472861
O4	O	0.602321	-0.860153	0.027139
O5	O	0.102316	-1.513061	-0.319952
O6	O	0.602316	-1.013061	0.180048
O7	O	0.102325	-1.573825	-0.686532
O8	O	0.602325	-1.073825	-0.186532
O9	O	-0.102329	-1.513044	-0.319941
O10	O	0.397671	-1.013044	0.180059
O11	O	-0.102323	-1.360135	-0.472850
O12	O	0.397677	-0.860135	0.027150
O13	O	-0.102325	-1.726715	-0.533613
O14	O	0.397675	-1.226715	-0.033613
Zn15	Zn	-0.134816	-1.543423	-0.503230
Zn16	Zn	0.365184	-1.043423	-0.003230
Zn17	Zn	0.134812	-1.543446	-0.503244
Zn18	Zn	0.634812	-1.043446	-0.003244
O19	O	-0.102320	-1.573807	-0.686521
O20	O	0.397680	-1.073807	-0.186521
C21	C	-0.000001	-1.312485	-0.461645
C22	C	0.499999	-0.812485	0.038355
C23	C	-0.000000	-1.170471	-0.428228
C24	C	0.500000	-0.670471	0.071772
C25	C	-0.000005	-1.501843	-0.272287
C26	C	0.499995	-1.001843	0.227713
C27	C	-0.000000	-1.468426	-0.130273
C28	C	0.500000	-0.968426	0.369727
N29	N	-0.318830	-1.543416	-0.503221
N30	N	0.181170	-1.043416	-0.003221
C31	C	-0.569836	-1.543439	-0.503240
C32	C	-0.069836	-1.043439	-0.003240
C33	C	-0.430159	-1.543423	-0.503232
C34	C	0.069841	-1.043423	-0.003232
N35	N	0.318826	-1.543461	-0.503245
N36	N	0.818826	-1.043461	-0.003245
C37	C	-0.000001	-1.774384	-0.544828
C38	C	0.499999	-1.274384	-0.044828
C39	C	0.000007	-1.916398	-0.578245
C40	C	0.500007	-1.416398	-0.078245
C41	C	0.000003	-1.116821	-0.520498
C42	C	0.500003	-0.616821	-0.020498
C43	C	0.000004	-0.970043	-0.485962
C44	C	0.500004	-0.470043	0.014038
C45	C	0.000003	-1.585026	-0.734187
C46	C	0.500003	-1.085026	-0.234187
C47	C	0.000007	-1.618443	-0.876200
C48	C	0.500007	-1.118443	-0.376200
C49	C	0.000001	-1.560695	-0.076624
C50	C	0.500001	-1.060695	0.423376
C51	C	0.000006	-1.526160	0.070155
C52	C	0.500006	-1.026160	0.570155
H53	H	-0.000002	-1.179555	-0.625061
H54	H	0.499998	-0.679555	-0.125061
Br55	Br	0.000024	-1.351868	0.174697
Br56	Br	0.500024	-0.851868	0.674697
Br57	Br	-0.000014	-0.865500	-0.311670
Br58	Br	0.499986	-0.365500	0.188330
H59	H	0.000029	-1.107738	-0.323666
H60	H	0.500029	-0.607738	0.176334
Br61	Br	0.000013	-1.734981	-0.181171
Br62	Br	0.500013	-1.234981	0.318829
Br63	Br	-0.000013	-1.020937	-0.752539
Br64	Br	0.499987	-0.520937	-0.252539
H65	H	0.000099	-1.723013	0.061072
H66	H	0.500099	-1.223013	0.561072
Br67	Br	0.000018	-1.294141	-0.025727
Br68	Br	0.500018	-0.794141	0.474273
