data_functionalizedCrystal
_audit_creation_method	'MofGen! by Chris Wilmer'
_symmetry_space_group_name_H-M	'P1'
_symmetry_Int_Tables_number	1
_symmetry_cell_setting	triclinic
loop_
_symmetry_equiv_pos_as_xyz
  x,y,z
_cell_length_a	10.723024
_cell_length_b	17.038272
_cell_length_c	9.798715
_cell_angle_alpha	89.996584
_cell_angle_beta	89.996609
_cell_angle_gamma	87.789713
loop_
_atom_site_label
_atom_site_type_symbol
_atom_site_fract_x
_atom_site_fract_y
_atom_site_fract_z
O1	O	1.667337	0.109720	-0.113484
O2	O	2.167337	0.609720	0.386516
O3	O	1.305156	0.120222	-0.113489
O4	O	1.805156	0.620222	0.386511
O5	O	1.484094	0.001144	-0.113475
O6	O	1.984094	0.501144	0.386525
O7	O	1.488399	0.228799	-0.113497
O8	O	1.988399	0.728799	0.386503
O9	O	1.484079	0.001144	0.113507
O10	O	1.984079	0.501144	0.613507
O11	O	1.305141	0.120222	0.113494
O12	O	1.805141	0.620222	0.613494
O13	O	1.667322	0.109720	0.113498
O14	O	2.167322	0.609720	0.613498
Zn15	Zn	1.486230	0.114971	0.149534
Zn16	Zn	1.986230	0.614971	0.649534
Zn17	Zn	1.486248	0.114971	-0.149525
Zn18	Zn	1.986248	0.614971	0.350475
O19	O	1.488384	0.228798	0.113485
O20	O	1.988384	0.728798	0.613485
C21	C	1.258578	0.119458	0.000002
C22	C	1.758578	0.619458	0.500002
C23	C	1.119813	0.117171	0.000000
C24	C	1.619813	0.617171	0.500000
C25	C	1.480171	-0.028006	0.000015
C26	C	1.980171	0.471994	0.500015
C27	C	1.468489	-0.114864	0.000015
C28	C	1.968489	0.385136	0.500015
C29	C	1.050993	0.183801	-0.000007
C30	C	1.550993	0.683801	0.499993
C31	C	0.907571	0.181440	-0.000008
C32	C	1.407571	0.681440	0.499992
C33	C	1.575744	-0.164385	0.000018
C34	C	2.075744	0.335615	0.500018
C35	C	1.564760	-0.245996	0.000005
C36	C	2.064760	0.254004	0.500005
C37	C	1.446520	-0.278084	-0.000002
C38	C	1.946520	0.221916	0.499998
C39	C	1.339256	-0.228557	-0.000009
C40	C	1.839256	0.271443	0.499991
C41	C	1.350241	-0.146947	-0.000005
C42	C	1.850241	0.353053	0.499995
C43	C	1.407711	-0.524057	-0.000021
C44	C	1.907711	-0.024057	0.499979
C45	C	1.396734	-0.605673	-0.000020
C46	C	1.896734	-0.105673	0.499980
C47	C	1.622239	-0.623107	-0.000009
C48	C	2.122239	-0.123107	0.499991
C49	C	1.633214	-0.541495	0.000002
C50	C	2.133214	-0.041495	0.500002
C51	C	1.525950	-0.491974	-0.000012
C52	C	2.025950	0.008026	0.499988
C53	C	1.435289	-0.361504	-0.000011
C54	C	1.935289	0.138496	0.499989
C55	C	1.537182	-0.408556	-0.000013
C56	C	2.037182	0.091444	0.499987
C57	C	1.713900	0.110484	0.000005
C58	C	2.213900	0.610484	0.500005
C59	C	1.852666	0.112771	-0.000003
C60	C	2.352666	0.612771	0.499997
C61	C	1.492307	0.257948	-0.000009
C62	C	1.992307	0.757948	0.499991
C63	C	1.503989	0.344806	-0.000017
C64	C	2.003989	0.844806	0.499983
N65	N	1.486226	0.114970	0.353634
N66	N	1.986226	0.614970	0.853634
N67	N	1.486261	0.114966	-0.353624
N68	N	1.986261	0.614966	0.146376
C69	C	1.561337	0.064752	0.421416
C70	C	2.061337	0.564752	0.921416
C71	C	1.561356	0.064749	0.578579
C72	C	2.061356	0.564749	1.078579
H73	H	1.098254	0.242594	-0.000005
H74	H	1.598254	0.742594	0.499995
H75	H	1.421957	0.157965	0.588095
H76	H	1.921957	0.657965	1.088095
H77	H	1.672028	-0.138265	0.000031
H78	H	2.172028	0.361735	0.500031
H79	H	0.848415	0.238480	-0.000020
H80	H	1.348415	0.738480	0.499980
H81	H	0.911814	0.055727	-0.000005
H82	H	1.411814	0.555727	0.499995
H83	H	1.421930	0.157959	0.411954
H84	H	1.921930	0.657959	0.911954
H85	H	1.242982	-0.254689	-0.000022
H86	H	1.742982	0.245311	0.499978
H87	H	1.072552	0.058378	-0.000029
H88	H	1.572552	0.558378	0.499971
H89	H	1.652100	-0.286314	0.000010
H90	H	2.152100	0.213686	0.500010
H91	H	1.709567	-0.663435	-0.000000
H92	H	2.209567	-0.163435	0.500000
H93	H	1.729498	-0.515375	0.000007
H94	H	2.229498	-0.015375	0.500007
H95	H	1.300443	-0.631796	-0.000003
H96	H	1.800443	-0.131796	0.499997
H97	H	1.625623	0.021757	0.363099
H98	H	2.125623	0.521757	0.863099
H99	H	1.262902	-0.106627	-0.000008
H100	H	1.762902	0.393373	0.499992
H101	H	1.633453	-0.382426	-0.000038
H102	H	2.133453	0.117574	0.499962
H103	H	1.320369	-0.483747	-0.000032
H104	H	1.820369	0.016253	0.499968
H105	H	1.339017	-0.387640	-0.000013
H106	H	1.839017	0.112360	0.499987
H107	H	1.625667	0.021758	0.636869
H108	H	2.125667	0.521758	1.136869
