data_functionalizedCrystal
_audit_creation_method	'MofGen! by Chris Wilmer'
_symmetry_space_group_name_H-M	'P1'
_symmetry_Int_Tables_number	1
_symmetry_cell_setting	triclinic
loop_
_symmetry_equiv_pos_as_xyz
  x,y,z
_cell_length_a	22.010155
_cell_length_b	11.026607
_cell_length_c	23.532353
_cell_angle_alpha	95.706267
_cell_angle_beta	89.989620
_cell_angle_gamma	89.984973
loop_
_atom_site_label
_atom_site_type_symbol
_atom_site_fract_x
_atom_site_fract_y
_atom_site_fract_z
O1	O	0.050555	-1.607213	-0.238182
O2	O	0.050552	-1.254245	-0.211060
O3	O	0.050541	-1.441407	-0.142810
O4	O	0.050566	-1.420051	-0.306432
O5	O	-0.050510	-1.441351	-0.142804
O6	O	-0.050498	-1.254189	-0.211054
O7	O	-0.050495	-1.607157	-0.238176
Cu8	Cu	-0.059723	-1.430668	-0.224614
Cu9	Cu	0.059780	-1.430734	-0.224621
O10	O	-0.050484	-1.419995	-0.306426
C11	C	0.000027	-1.209069	-0.206054
C12	C	0.000025	-1.074541	-0.191138
C13	C	0.000014	-1.440846	-0.121534
C14	C	0.000007	-1.439243	-0.058147
N15	N	-0.143776	-1.430630	-0.224610
C16	C	-0.563549	-1.503809	-0.266669
C17	C	-0.627157	-1.503823	-0.266669
O18	O	-0.660043	-1.565999	-0.302420
N19	N	-0.658983	-1.430758	-0.224617
C20	C	-0.627198	-1.357684	-0.182560
O21	O	-0.660110	-1.295538	-0.146791
C22	C	-0.563592	-1.357677	-0.182558
C23	C	-0.531769	-1.430737	-0.224615
C24	C	-0.531726	-1.576864	-0.308722
C25	C	-0.468123	-1.576848	-0.308723
C26	C	-0.436343	-1.503776	-0.266669
C27	C	-0.468166	-1.430721	-0.224616
C28	C	-0.531808	-1.284609	-0.140498
C29	C	-0.468198	-1.284609	-0.140500
C30	C	-0.436375	-1.357670	-0.182557
C31	C	-0.372782	-1.357633	-0.182563
N32	N	-0.340956	-1.430698	-0.224614
C33	C	-0.372736	-1.503769	-0.266668
C34	C	-0.760776	-1.357705	-0.182566
C35	C	-0.824381	-1.357705	-0.182570
C36	C	-0.824335	-1.503846	-0.266679
C37	C	-0.760729	-1.503840	-0.266677
C38	C	-0.728950	-1.430770	-0.224618
C39	C	-0.239165	-1.503729	-0.266665
C40	C	-0.175556	-1.503702	-0.266663
C41	C	-0.175608	-1.357566	-0.182553
C42	C	-0.239211	-1.357587	-0.182557
C43	C	-0.270988	-1.430678	-0.224615
O44	O	-0.339856	-1.295493	-0.146828
O45	O	-0.339817	-1.565916	-0.302425
N46	N	0.143833	-1.430782	-0.224622
C47	C	0.000032	-1.652334	-0.243182
C48	C	0.000037	-1.786862	-0.258098
C49	C	0.000032	-1.000222	-0.232322
C50	C	0.000030	-0.861180	-0.216907
C51	C	0.055121	-1.429206	0.334921
C52	C	0.055124	-1.427682	0.394481
O53	O	0.101969	-1.426878	0.425282
N54	N	0.000042	-1.426895	0.424275
C55	C	-0.055047	-1.427621	0.394506
O56	O	-0.101898	-1.426811	0.425317
C57	C	-0.055049	-1.429137	0.334948
C58	C	0.000036	-1.429935	0.305156
C59	C	0.110202	-1.430004	0.305129
C60	C	0.110198	-1.431530	0.245573
C61	C	0.055114	-1.432259	0.215809
C62	C	0.000033	-1.431462	0.245600
C63	C	-0.110137	-1.429853	0.305181
C64	C	-0.110135	-1.431368	0.245618
C65	C	-0.055050	-1.432167	0.215827
C66	C	-0.055055	-1.433718	0.156280
N67	N	0.000027	-1.434504	0.126486
C68	C	0.055111	-1.433775	0.156251
C69	C	-0.055037	-1.424436	0.519583
C70	C	-0.055036	-1.422929	0.579140
C71	C	0.055135	-1.422988	0.579110
C72	C	0.055133	-1.424503	0.519552
C73	C	0.000044	-1.425222	0.489789
C74	C	0.055100	-1.436982	0.031179
C75	C	0.055092	-1.438513	-0.028383
C76	C	-0.055079	-1.438448	-0.028348
C77	C	-0.055071	-1.436923	0.031208
C78	C	0.000024	-1.436186	0.060970
O79	O	-0.101876	-1.434517	0.125441
O80	O	0.101955	-1.434569	0.125433
C81	C	0.000043	-1.420565	0.672298
C82	C	0.000049	-1.422193	0.608910
H83	H	-0.149649	-1.563196	-0.300914
H84	H	0.000036	-1.039531	-0.278994
C85	C	-0.725730	-1.584220	-0.312940
N86	N	-0.699371	-1.644770	-0.347786
C87	C	-0.433245	-1.204221	-0.094231
N88	N	-0.406919	-1.143669	-0.059384
C89	C	-0.115667	-1.436056	0.063979
N90	N	-0.161310	-1.435391	0.088659
H91	H	-0.154996	-1.431936	0.221389
H92	H	0.000040	-0.826164	-0.304772
C93	C	-0.274111	-1.584121	-0.312936
N94	N	-0.300431	-1.644663	-0.347791
C95	C	-0.140637	-1.277388	-0.136225
N96	N	-0.114296	-1.217075	-0.101302
H97	H	0.099988	-1.422390	0.603356
C98	C	-0.566674	-1.657232	-0.354998
N99	N	-0.592993	-1.717756	-0.389860
C100	C	0.000020	-0.808086	-0.153852
N101	N	0.000014	-0.768094	-0.106359
H102	H	-0.442218	-1.636347	-0.342969
H103	H	0.000033	-1.035231	-0.144467
C104	C	0.115693	-1.439388	-0.061149
N105	N	0.161336	-1.440043	-0.085827
H106	H	-0.265123	-1.298080	-0.148316
C107	C	0.115707	-1.436192	0.063907
N108	N	0.161356	-1.435610	0.088558
C109	C	-0.725825	-1.277301	-0.136301
N110	N	-0.699503	-1.216740	-0.101454
C111	C	0.170797	-1.432395	0.212811
N112	N	0.216444	-1.433041	0.188139
H113	H	0.155061	-1.429405	0.329357
H114	H	-0.850222	-1.563344	-0.300922
C115	C	-0.859380	-1.277318	-0.136309
N116	N	-0.885738	-1.216773	-0.101461
H117	H	0.099988	-1.425152	0.495300
C118	C	-0.115634	-1.422063	0.611903
N119	N	-0.161279	-1.421401	0.636579
C120	C	-0.115669	-1.439238	-0.061099
N121	N	-0.161305	-1.439821	-0.085769
H122	H	-0.099900	-1.425025	0.495353
H123	H	-0.557708	-1.225117	-0.106250
H124	H	-0.154994	-1.429205	0.329426
