data_functionalizedCrystal
_audit_creation_method	'MofGen! by Chris Wilmer'
_symmetry_space_group_name_H-M	'P1'
_symmetry_Int_Tables_number	1
_symmetry_cell_setting	triclinic
loop_
_symmetry_equiv_pos_as_xyz
  x,y,z
_cell_length_a	31.640172
_cell_length_b	20.919309
_cell_length_c	31.640172
_cell_angle_alpha	122.545934
_cell_angle_beta	89.986812
_cell_angle_gamma	62.590278
loop_
_atom_site_label
_atom_site_type_symbol
_atom_site_fract_x
_atom_site_fract_y
_atom_site_fract_z
Zr1	Zr	0.425209	0.700660	0.073423
O2	O	0.361152	0.834213	0.144346
O3	O	0.442462	0.567102	0.049300
O4	O	0.445894	0.700635	0.140899
O5	O	0.357725	0.700701	-0.016798
O6	O	0.515450	0.700622	0.140889
O7	O	0.357721	0.700680	0.052747
O8	O	0.509313	0.461756	-0.022964
O9	O	0.363863	0.939568	0.147055
O10	O	0.504610	0.622029	0.041882
O11	O	0.452704	0.622055	-0.010011
O12	O	0.456743	0.779273	0.097834
O13	O	0.404837	0.779299	0.045941
Zr14	Zr	0.536151	0.700674	-0.037508
Zr15	Zr	0.536144	0.700639	0.073408
Zr16	Zr	0.425216	0.700695	-0.037493
Zr17	Zr	0.429533	0.868689	0.077745
Zr18	Zr	0.531827	0.532645	-0.041829
O19	O	0.518897	0.834232	-0.013385
O20	O	0.518887	0.834183	0.144324
O21	O	0.361162	0.834262	-0.013363
O22	O	0.600208	0.567121	-0.108430
O23	O	0.600198	0.567072	0.049278
O24	O	0.442473	0.567151	-0.108408
O25	O	0.603634	0.700633	0.052713
O26	O	0.515466	0.700699	-0.104983
O27	O	0.445910	0.700712	-0.104973
O28	O	0.603639	0.700654	-0.016832
O29	O	0.452042	0.939551	0.147043
O30	O	0.509318	0.461783	-0.111127
O31	O	0.597497	0.461766	-0.111139
O32	O	0.597491	0.461739	-0.022976
O33	O	0.363869	0.939595	0.058892
O34	O	0.452047	0.939578	0.058879
O35	O	0.504616	0.622061	-0.061919
O36	O	0.556522	0.622035	-0.010025
O37	O	0.508656	0.779279	0.045927
O38	O	0.456750	0.779305	-0.005967
C39	C	0.475271	0.490488	0.012552
C40	C	0.473436	0.419155	0.010718
C41	C	0.499666	0.385630	0.036944
C42	C	0.497943	0.318600	0.035215
C43	C	0.469986	0.285102	0.007263
C44	C	0.443754	0.318631	-0.018966
C45	C	0.445481	0.385655	-0.017240
C46	C	0.463419	0.082731	0.000694
C47	C	0.461693	0.015704	-0.001028
C48	C	0.515883	0.015677	0.053152
C49	C	0.517605	0.082706	0.054878
C50	C	0.491376	0.116225	0.028647
C51	C	0.468222	0.216590	0.005497
C52	C	0.493142	0.184732	0.030410
C53	C	0.341917	0.700693	0.017977
C54	C	0.294823	0.700702	0.017983
C55	C	0.027801	0.618579	-0.011259
C56	C	-0.149184	0.618563	-0.011270
O57	O	-0.150821	0.548757	-0.036128
N58	N	-0.196300	0.700642	0.017937
C59	C	-0.199168	0.782731	0.047146
O60	O	-0.243304	0.852544	0.071984
C61	C	-0.022183	0.782746	0.047153
C62	C	0.024932	0.700661	0.017949
C63	C	0.074914	0.536501	-0.040462
C64	C	0.119157	0.536505	-0.040457
C65	C	0.116288	0.618588	-0.011249
C66	C	0.069175	0.700666	0.017954
C67	C	-0.025052	0.864834	0.076359
C68	C	0.019200	0.864830	0.076357
C69	C	0.066314	0.782746	0.047152
C70	C	0.110549	0.782753	0.047167
N71	N	0.157665	0.700674	0.017960
C72	C	0.160534	0.618592	-0.011248
C73	C	-0.292086	0.782718	0.047141
C74	C	-0.336332	0.782714	0.047140
C75	C	-0.286345	0.618546	-0.011277
C76	C	-0.242099	0.618550	-0.011272
C77	C	-0.244970	0.700638	0.017934
C78	C	0.253447	0.618608	-0.011234
C79	C	0.297692	0.618620	-0.011224
C80	C	0.247701	0.782788	0.047190
C81	C	0.203460	0.782776	0.047183
C82	C	0.206336	0.700679	0.017967
O83	O	0.112224	0.852523	0.072007
O84	O	0.204674	0.548789	-0.036091
C85	C	-0.016442	0.618574	-0.011264
C86	C	-0.063555	0.700652	0.017938
C87	C	-0.066424	0.782734	0.047146
C88	C	-0.107801	0.700648	0.017937
C89	C	-0.104932	0.618566	-0.011271
C90	C	-0.057817	0.536486	-0.040478
C91	C	-0.013573	0.536491	-0.040472
C92	C	-0.113540	0.864814	0.076353
C93	C	-0.157781	0.864802	0.076346
C94	C	-0.154912	0.782720	0.047138
C95	C	0.619443	0.700640	0.017939
C96	C	0.666537	0.700631	0.017932
C97	C	0.480671	0.700624	0.156697
C98	C	0.480668	0.700609	0.203784
C99	C	0.486088	0.910846	0.023363
C100	C	0.487924	0.982178	0.025198
C101	C	0.505667	0.618574	0.510883
C102	C	0.505662	0.618549	0.333884
O103	O	0.526927	0.548741	0.286161
N104	N	0.480675	0.700627	0.340956
C105	C	0.455691	0.782717	0.392283
O106	O	0.434442	0.852529	0.394238
C107	C	0.455699	0.782742	0.569281
C108	C	0.480684	0.700658	0.562205
C109	C	0.530650	0.536498	0.503809
C110	C	0.530649	0.536505	0.548056
C111	C	0.505665	0.618589	0.599378
C112	C	0.480682	0.700665	0.606452
C113	C	0.430718	0.864831	0.620607
C114	C	0.430724	0.864830	0.664857
C115	C	0.455708	0.782746	0.657780
C116	C	0.455697	0.782756	0.702021
N117	N	0.480684	0.700678	0.694949
C118	C	0.505668	0.618594	0.643627
C119	C	0.455687	0.782699	0.299355
C120	C	0.455684	0.782693	0.255106
C121	C	0.505656	0.618524	0.196709
C122	C	0.505656	0.618531	0.240959
C123	C	0.480674	0.700621	0.292282
C124	C	0.505663	0.618616	0.736552
C125	C	0.505658	0.618630	0.780806
C126	C	0.455688	0.782798	0.839199
C127	C	0.455691	0.782784	0.794949
C128	C	0.480682	0.700686	0.743624
O129	O	0.434448	0.852527	0.749759
O130	O	0.526923	0.548793	0.641684
C131	C	0.505669	0.618567	0.466635
C132	C	0.480686	0.700644	0.473710
C133	C	0.455702	0.782728	0.525032
C134	C	0.480683	0.700638	0.429461
C135	C	0.505667	0.618554	0.378139
C136	C	0.530654	0.536476	0.371066
C137	C	0.530652	0.536483	0.415314
C138	C	0.430715	0.864806	0.532104
C139	C	0.430718	0.864792	0.487854
C140	C	0.455702	0.782708	0.436532
C141	C	0.480684	0.700708	0.879218
C142	C	0.480674	0.700714	0.832128
C143	C	0.614034	0.490462	0.012533
C144	C	0.659293	0.419120	0.010692
C145	C	0.475280	0.490532	-0.126187
C146	C	0.473448	0.419214	-0.175108
C147	C	0.614043	0.490505	-0.126206
C148	C	0.659305	0.419178	-0.175134
C149	C	0.347317	0.910829	0.162121
C150	C	0.302055	0.982156	0.211049
C151	C	0.347326	0.910872	0.023382
C152	C	0.302067	0.982214	0.025223
C153	C	0.486079	0.910802	0.162102
C154	C	0.487912	0.982120	0.211023
C155	C	0.653449	0.385614	0.036928
C156	C	0.695971	0.318590	0.035209
C157	C	0.744336	0.285069	0.007250
C158	C	0.750179	0.318582	-0.018986
C159	C	0.707658	0.385609	-0.017263
C160	C	0.499685	0.385725	-0.225182
C161	C	0.497962	0.318724	-0.271153
C162	C	0.470003	0.285207	-0.267048
C163	C	0.443763	0.318702	-0.216969
C164	C	0.445484	0.385707	-0.170999
C165	C	0.707660	0.385669	-0.171023
C166	C	0.750193	0.318659	-0.216991
C167	C	0.744370	0.285155	-0.267070
C168	C	0.696011	0.318671	-0.271180
C169	C	0.653479	0.385684	-0.225212
C170	C	0.253700	1.015673	0.206939
C171	C	0.211168	1.082704	0.252907
C172	C	0.216990	1.116212	0.302986
C173	C	0.265350	1.082691	0.307096
C174	C	0.307882	1.015666	0.261128
C175	C	0.307911	1.015727	-0.001007
C176	C	0.265389	1.082769	0.000725
C177	C	0.217024	1.116293	0.028684
C178	C	0.211181	1.082777	0.054918
C179	C	0.253702	1.015740	0.053189
C180	C	0.515875	1.015616	0.206902
C181	C	0.517607	1.082617	0.252864
C182	C	0.491372	1.116128	0.302948
C183	C	0.463408	1.082626	0.307068
C184	C	0.461680	1.015620	0.261106
H185	H	0.522430	0.412903	0.059708
H186	H	0.438925	-0.011566	-0.023790
H187	H	0.347288	0.988437	-0.023779
H188	H	0.438907	0.988356	0.264469
Cl189	Cl	0.552760	1.124725	0.247673
H190	H	0.410374	0.931672	0.626380
H191	H	0.519302	0.291303	0.056570
Cl192	Cl	0.530955	0.276627	-0.334103
H193	H	0.492784	1.170688	0.340369
H194	H	0.157517	0.469664	-0.064236
H195	H	0.712423	0.412881	-0.038630
Cl196	Cl	0.244104	0.885972	0.083898
Cl197	Cl	0.430425	1.124771	0.370034
H198	H	0.410368	0.931639	0.493625
H199	H	-0.196143	0.931650	0.100133
H200	H	0.691277	0.291382	-0.311960
Cl201	Cl	0.412499	0.427793	-0.108051
H202	H	0.171795	1.109985	0.249551
H203	H	0.789563	0.291279	-0.041748
H204	H	0.712410	0.412938	-0.130250
H205	H	-0.294432	0.849568	0.070928
H206	H	0.171797	1.110082	0.077682
H207	H	0.347253	0.988377	0.264481
H208	H	0.537239	0.988342	0.166126
Cl209	Cl	0.592653	0.427744	0.072082
H210	H	0.522452	0.413007	-0.228534
Cl211	Cl	0.810982	0.276534	-0.211813
H212	H	0.537238	-0.011622	0.074508
H213	H	0.779007	0.230588	-0.304496
Cl214	Cl	0.537083	0.515405	0.672036
Cl215	Cl	0.424275	0.885908	0.363873
Cl216	Cl	0.552749	0.124818	0.090023
Cl217	Cl	0.562062	0.433308	0.539151
Cl218	Cl	0.467846	0.200970	-0.324845
H219	H	0.614107	0.412959	-0.228566
H220	H	0.182354	1.170787	0.340412
Cl221	Cl	0.430447	0.124858	-0.032285
H222	H	0.024786	0.469649	-0.064255
Cl223	Cl	0.163574	1.200567	0.030851
H224	H	0.420994	0.291347	-0.041728
H225	H	0.424120	0.412953	-0.038595
H226	H	0.248949	0.988396	0.166166
Cl227	Cl	0.528289	0.226842	0.065547
Cl228	Cl	0.424279	0.885984	0.903724
Cl229	Cl	0.272662	1.124821	0.370056
Cl230	Cl	0.433083	0.174462	-0.029649
H231	H	-0.115884	0.931657	0.100139
H232	H	0.270156	1.110047	-0.020641
Cl233	Cl	0.246347	0.973612	0.086164
Cl234	Cl	0.408619	0.276556	-0.211819
H235	H	0.336055	0.551774	-0.035008
H236	H	0.255796	0.551756	-0.035025
H237	H	0.077259	0.469655	-0.064249
H238	H	-0.203739	0.551709	-0.035058
Cl239	Cl	0.015584	0.968034	0.113075
Cl240	Cl	-0.282746	0.515356	-0.047996
Cl241	Cl	-0.395558	0.885911	0.083863
H242	H	0.165096	0.849616	0.070970
Cl243	Cl	-0.084273	0.968033	0.113071
H244	H	0.550997	0.469642	0.409545
Cl245	Cl	-0.054218	0.433298	-0.077194
H246	H	0.526003	0.551785	0.775038
H247	H	0.550997	0.469651	0.462022
H248	H	0.525998	0.551688	0.154914
Cl249	Cl	0.537067	0.515337	0.232057
H250	H	0.435333	0.849533	0.260874
H251	H	0.410380	0.931678	0.706646
H252	H	0.550994	0.469640	0.329271
Cl253	Cl	0.399302	0.968008	0.596620
Cl254	Cl	0.688614	0.276470	0.068191
Cl255	Cl	0.797787	0.200803	0.005089
Cl256	Cl	0.424289	0.885976	0.803845
