data_functionalizedCrystal
_audit_creation_method	'MofGen! by Chris Wilmer'
_symmetry_space_group_name_H-M	'P1'
_symmetry_Int_Tables_number	1
_symmetry_cell_setting	triclinic
loop_
_symmetry_equiv_pos_as_xyz
  x,y,z
_cell_length_a	16.120444
_cell_length_b	12.827893
_cell_length_c	16.120256
_cell_angle_alpha	92.878451
_cell_angle_beta	84.383140
_cell_angle_gamma	87.075196
loop_
_atom_site_label
_atom_site_type_symbol
_atom_site_fract_x
_atom_site_fract_y
_atom_site_fract_z
Zn1	Zn	-0.356803	-1.543783	0.489464
Zn2	Zn	-0.489490	-1.543648	0.356775
Zn3	Zn	-0.349731	-1.378362	0.349709
Zn4	Zn	-0.496530	-1.359647	0.496498
O5	O	-0.423139	-1.456360	0.423111
O6	O	-0.374418	-1.689999	0.471876
O7	O	-0.465044	-1.529498	0.238875
O8	O	-0.233703	-1.408193	0.362346
O9	O	-0.471902	-1.689901	0.374390
O10	O	-0.238899	-1.529728	0.465024
O11	O	-0.362364	-1.408063	0.233683
O12	O	-0.369191	-1.229645	0.369167
O13	O	-0.483902	-1.376298	0.612528
O14	O	-0.477044	-1.215896	0.477013
O15	O	-0.381245	-1.511581	0.607359
O16	O	-0.607389	-1.511352	0.381211
O17	O	-0.612562	-1.376167	0.483865
C18	C	-0.423115	-1.184853	0.423087
C19	C	-0.423126	-1.068699	0.423098
C20	C	-0.374980	-1.016952	0.471419
C21	C	-0.374990	-0.896900	0.471431
C22	C	-0.640305	-1.441741	0.434086
C23	C	-0.733211	-1.435581	0.438810
C24	C	-0.942121	-1.488560	0.398790
C25	C	-0.903306	-1.424353	0.447442
C26	C	-0.808656	-1.430602	0.442637
C27	C	-1.036779	-1.482312	0.403593
C28	C	-0.205125	-1.471063	0.412112
C29	C	-0.112221	-1.477329	0.407424
C30	C	-0.434148	-1.441867	0.641119
C31	C	-0.438839	-1.435691	0.734020
C32	C	-0.423156	-0.728928	0.423129
C33	C	-0.423145	-0.845082	0.423119
C34	C	-0.412112	-1.470861	0.205949
C35	C	-0.407185	-1.477255	0.113036
C36	C	-0.398652	-1.488567	0.942946
C37	C	-0.447370	-1.424382	0.904105
C38	C	-0.442622	-1.430676	0.809461
C39	C	-0.403399	-1.482275	1.037598
H40	H	-0.333774	-0.852398	0.512803
H41	H	-0.941159	-1.364690	0.492702
H42	H	-0.464371	-0.889577	0.381752
H43	H	-0.904271	-1.548218	0.353532
O44	O	-0.501376	-1.353291	0.949355
C45	C	-0.555363	-1.282075	1.086313
C46	C	-0.494173	-1.362636	1.035167
H47	H	-0.549547	-1.289588	1.155701
H48	H	-0.621937	-1.297015	1.072684
H49	H	-0.539861	-1.199923	1.068409
H50	H	-0.509598	-1.444820	1.053041
H51	H	-0.427616	-1.347605	1.048801
O52	O	-0.344720	-1.559736	0.897701
C53	C	-0.290712	-1.630906	0.760735
C54	C	-0.351834	-1.550272	0.811886
H55	H	-0.296430	-1.623267	0.691344
H56	H	-0.306246	-1.713087	0.778538
H57	H	-0.224160	-1.616008	0.774463
H58	H	-0.418407	-1.565073	0.798186
H59	H	-0.336228	-1.468118	0.794076
O60	O	-0.325720	-1.069961	0.520792
C61	C	-0.225248	-1.058759	0.621709
C62	C	-0.280978	-0.998603	0.565817
H63	H	-0.189073	-1.001090	0.658139
H64	H	-0.179523	-1.115310	0.581197
H65	H	-0.265942	-1.104416	0.667215
H66	H	-0.240351	-0.952885	0.520303
H67	H	-0.326708	-0.942113	0.606380
H68	H	-0.464350	-1.024124	0.381735
