data_functionalizedCrystal
_audit_creation_method	'MofGen! by Chris Wilmer'
_symmetry_space_group_name_H-M	'P1'
_symmetry_Int_Tables_number	1
_symmetry_cell_setting	triclinic
loop_
_symmetry_equiv_pos_as_xyz
  x,y,z
_cell_length_a	31.640172
_cell_length_b	18.426585
_cell_length_c	18.426585
_cell_angle_alpha	90.001096
_cell_angle_beta	60.007886
_cell_angle_gamma	60.000462
loop_
_atom_site_label
_atom_site_type_symbol
_atom_site_fract_x
_atom_site_fract_y
_atom_site_fract_z
Zr1	Zr	0.462601	-0.095244	0.699220
O2	O	0.550762	-0.211116	0.583364
O3	O	0.374436	-0.059724	0.734721
O4	O	0.462599	-0.211121	0.734742
O5	O	0.462602	0.059707	0.583344
O6	O	0.462602	-0.211124	0.854167
O7	O	0.462599	-0.059719	0.583343
O8	O	0.304894	0.059697	0.854131
O9	O	0.620310	-0.211114	0.583380
O10	O	0.410703	-0.044577	0.839006
O11	O	0.410703	0.044552	0.749880
O12	O	0.514504	-0.133698	0.749904
O13	O	0.514504	-0.044570	0.660778
Zr14	Zr	0.462610	0.095222	0.889690
Zr15	Zr	0.462606	-0.095249	0.889690
Zr16	Zr	0.462606	0.095226	0.699220
Zr17	Zr	0.573521	-0.095242	0.699246
Zr18	Zr	0.351690	0.095219	0.889664
O19	O	0.550775	0.059702	0.854189
O20	O	0.550769	-0.211123	0.854188
O21	O	0.550769	0.059709	0.583364
O22	O	0.374449	0.211093	1.005546
O23	O	0.374443	-0.059731	1.005546
O24	O	0.374443	0.211100	0.734722
O25	O	0.462610	-0.059730	1.005566
O26	O	0.462612	0.211099	0.854168
O27	O	0.462610	0.211102	0.734743
O28	O	0.462612	0.059696	1.005567
O29	O	0.620313	-0.211118	0.734779
O30	O	0.304898	0.211096	0.854131
O31	O	0.304902	0.211092	1.005530
O32	O	0.304898	0.059693	1.005530
O33	O	0.620313	-0.059716	0.583380
O34	O	0.620317	-0.059720	0.734779
O35	O	0.410708	0.133676	0.839006
O36	O	0.410708	0.044547	0.928132
O37	O	0.514508	-0.044574	0.839030
O38	O	0.514508	0.044554	0.749904
C39	C	0.323861	-0.000014	0.794422
C40	C	0.276773	-0.000015	0.794411
C41	C	0.462600	-0.000005	0.556205
C42	C	0.462598	-0.000003	0.475346
C43	C	0.462612	0.238238	0.794456
C44	C	0.462614	0.319098	0.794456
C45	C	-0.015269	-0.046527	0.840996
C46	C	-0.192265	-0.046527	0.841014
O47	O	-0.215169	-0.086062	0.880613
N48	N	-0.214394	-0.000004	0.794490
C49	C	-0.192274	0.046526	0.747963
O50	O	-0.215162	0.086104	0.708399
C51	C	-0.015282	0.046530	0.747950
C52	C	0.006849	-0.000003	0.794470
C53	C	0.006862	-0.093055	0.887512
C54	C	0.051110	-0.093059	0.887503
C55	C	0.073228	-0.046534	0.840978
C56	C	0.051098	-0.000006	0.794461
C57	C	0.006834	0.093065	0.701429
C58	C	0.051084	0.093064	0.701432
C59	C	0.073215	0.046531	0.747952
C60	C	0.117464	0.046515	0.747926
N61	N	0.139593	-0.000008	0.794450
C62	C	0.117475	-0.046532	0.840976
C63	C	-0.285196	0.046519	0.747971
C64	C	-0.329443	0.046517	0.747973
C65	C	-0.329432	-0.046535	0.841026
C66	C	-0.285181	-0.046537	0.841018
C67	C	-0.263067	-0.000003	0.794495
C68	C	0.210401	-0.046537	0.840953
C69	C	0.254655	-0.046539	0.840937
C70	C	0.254637	0.046516	0.747888
C71	C	0.210389	0.046515	0.747900
C72	C	0.188271	-0.000013	0.794439
O73	O	0.140391	0.086037	0.708357
O74	O	0.140361	-0.086088	0.880550
C75	C	-0.059518	-0.046524	0.841005
C76	C	-0.081648	0.000005	0.794488
C77	C	-0.059530	0.046529	0.747962
C78	C	-0.125895	0.000002	0.794490
C79	C	-0.148013	-0.046522	0.841015
C80	C	-0.125884	-0.093045	0.887539
C81	C	-0.081636	-0.093048	0.887530
C82	C	-0.081659	0.093051	0.701438
C83	C	-0.125908	0.093050	0.701450
C84	C	-0.148025	0.046526	0.747976
C85	C	0.601350	-0.000009	0.794488
C86	C	0.648439	-0.000008	0.794499
C87	C	0.462600	-0.238261	0.794454
C88	C	0.462598	-0.319121	0.794454
C89	C	0.462596	0.615213	0.794457
C90	C	0.462598	0.532827	0.794459
C91	C	0.462605	0.467158	0.794457
C92	C	0.462607	0.384767	0.794458
C93	C	0.462616	-0.000019	0.179231
C94	C	0.462613	-0.000017	0.261617
C95	C	0.462607	-0.000012	0.327286
C96	C	0.462604	-0.000008	0.409677
C97	C	0.462612	-0.000017	1.032705
C98	C	0.462614	-0.000019	1.113564
C99	C	0.323867	-0.000020	1.032672
C100	C	0.276781	-0.000023	1.113520
C101	C	0.323867	0.238236	0.794423
C102	C	0.276781	0.319094	0.794412
C103	C	0.323873	0.238230	1.032672
C104	C	0.276789	0.319086	1.113521
C105	C	0.601338	-0.238252	0.556238
C106	C	0.648423	-0.319109	0.475389
C107	C	0.601344	-0.000003	0.556238
C108	C	0.648431	0.000000	0.475390
C109	C	0.601344	-0.238258	0.794487
C110	C	0.648431	-0.319117	0.794498
C111	C	0.254666	-0.046554	1.104965
C112	C	0.210430	-0.046575	1.180923
C113	C	0.188305	-0.000058	1.265437
C114	C	0.210424	0.046474	1.273991
C115	C	0.254663	0.046489	1.198033
C116	C	0.254671	0.403596	0.840930
C117	C	0.210434	0.479579	0.840916
C118	C	0.188305	0.471058	0.794389
C119	C	0.210420	0.386547	0.747866
C120	C	0.254659	0.310566	0.747875
C121	C	0.254677	0.310533	1.198019
C122	C	0.210443	0.386500	1.273993
C123	C	0.188317	0.471018	1.265466
C124	C	0.210433	0.479569	1.180959
C125	C	0.254670	0.403604	1.104987
C126	C	0.670540	-0.310556	0.390891
C127	C	0.714788	-0.386522	0.314917
C128	C	0.736916	-0.471040	0.323444
C129	C	0.714797	-0.479592	0.407951
C130	C	0.670553	-0.403626	0.483923
C131	C	0.670550	0.046524	0.483945
C132	C	0.714799	0.046523	0.407987
C133	C	0.736925	0.000004	0.323473
C134	C	0.714804	-0.046525	0.314919
C135	C	0.670559	-0.046529	0.390877
C136	C	0.670545	-0.310567	0.841034
C137	C	0.714782	-0.386535	0.841062
C138	C	0.736907	-0.471052	0.794548
C139	C	0.714788	-0.479600	0.748010
C140	C	0.670549	-0.403633	0.747988
H141	H	0.192396	-0.084423	0.878850
C142	C	0.186068	0.377185	0.696702
H143	H	0.156549	0.434544	0.703375
H144	H	0.217818	0.345621	0.635499
H145	H	0.168797	0.345628	0.719689
H146	H	-0.143898	-0.130931	0.925419
H147	H	-0.011144	-0.130940	0.925403
H148	H	0.152283	0.532934	0.794389
C149	C	0.785570	-0.554611	0.794574
H150	H	0.795579	-0.606175	0.760213
H151	H	0.820086	-0.554606	0.769680
H152	H	0.771059	-0.554606	0.853853
H153	H	0.732787	-0.379558	0.878957
H154	H	0.272667	0.410580	1.036188
H155	H	0.732790	-0.379542	0.246115
C156	C	0.646235	-0.413044	0.696780
H157	H	0.616717	-0.355701	0.703424
H158	H	0.678006	-0.444616	0.635586
H159	H	0.628972	-0.444614	0.719750
C160	C	0.278986	0.097676	1.207450
H161	H	0.308506	0.091023	1.150114
H162	H	0.247222	0.158878	1.239019
H163	H	0.296248	0.074689	1.239023
C164	C	0.139638	-0.000073	1.348982
H165	H	0.129635	-0.034441	1.331775
H166	H	0.154133	-0.024981	1.383364
H167	H	0.105115	0.059202	1.383341
C168	C	0.279012	0.412987	0.892100
H169	H	0.259510	0.474201	0.919787
H170	H	0.271764	0.385289	0.936130
H171	H	0.320784	0.385281	0.851938
H172	H	-0.267165	-0.084427	0.878899
C173	C	0.646219	0.097699	0.576900
H174	H	0.665739	0.125396	0.571104
H175	H	0.604450	0.141727	0.608462
H176	H	0.653472	0.057538	0.608475
C177	C	-0.353767	-0.097708	0.892208
H178	H	-0.334254	-0.125421	0.919917
H179	H	-0.395536	-0.057546	0.936222
H180	H	-0.346518	-0.141737	0.852054
H181	H	0.732825	-0.084399	0.246098
C182	C	0.785576	-0.554594	0.239871
H183	H	0.795570	-0.537388	0.188328
H184	H	0.820101	-0.588975	0.239858
H185	H	0.771066	-0.588958	0.239859
H186	H	0.272674	-0.084435	0.878818
C187	C	0.186111	0.572529	0.892103
H188	H	0.205621	0.566715	0.919825
H189	H	0.193365	0.604110	0.851958
H190	H	0.144339	0.604100	0.936122
H191	H	0.732820	-0.548415	0.414884
H192	H	0.272655	0.241764	0.709997
C193	C	0.279009	0.217573	1.207417
H194	H	0.259505	0.223372	1.268627
H195	H	0.271755	0.185998	1.179717
H196	H	0.320782	0.186005	1.179719
H197	H	0.652539	-0.241756	0.878911
C198	C	0.186117	0.377078	1.366939
H199	H	0.205625	0.315860	1.361129
H200	H	0.193373	0.404766	1.398521
H201	H	0.144345	0.404781	1.398501
C202	C	0.739134	-0.572571	0.696841
H203	H	0.768653	-0.616583	0.703515
H204	H	0.707380	-0.579256	0.719794
H205	H	0.756402	-0.579237	0.635632
H206	H	0.652550	-0.084411	0.383898
H207	H	0.069125	-0.130947	0.925387
H208	H	0.152296	0.532867	1.327334
H209	H	0.192412	0.548394	1.174029
H210	H	-0.267196	0.084415	0.710086
H211	H	0.652525	-0.241744	0.383931
C212	C	0.739118	0.097717	0.417412
H213	H	0.719594	0.125432	0.478625
H214	H	0.780887	0.057572	0.389732
H215	H	0.731865	0.141746	0.389705
C216	C	-0.353779	0.097692	0.696793
H217	H	-0.383297	0.091026	0.703448
H218	H	-0.371035	0.158897	0.719762
H219	H	-0.322017	0.074711	0.635588
H220	H	0.652546	-0.410601	0.552723
C221	C	0.785591	0.000017	0.239925
H222	H	0.795606	-0.034354	0.188362
H223	H	0.771087	0.059293	0.239927
H224	H	0.820110	-0.024895	0.239938
C225	C	-0.017495	0.144242	0.650246
H226	H	0.002018	0.171950	0.622546
H227	H	-0.010246	0.104086	0.606225
H228	H	-0.059266	0.188275	0.690395
H229	H	0.192376	0.084393	0.710009
C230	C	0.075409	0.144247	0.650250
H231	H	0.055892	0.171951	0.622543
H232	H	0.068167	0.188270	0.690395
H233	H	0.117179	0.104086	0.606220
H234	H	0.272655	0.084392	0.710006
H235	H	-0.143919	0.130940	0.663560
C236	C	0.278998	-0.097732	1.012010
H237	H	0.259492	-0.125451	1.017806
H238	H	0.271747	-0.057581	0.980431
H239	H	0.320770	-0.141756	0.980452
C240	C	-0.057302	-0.144226	0.938711
H241	H	-0.076821	-0.171923	0.966424
H242	H	-0.015533	-0.188254	0.898566
H243	H	-0.064553	-0.104065	0.982736
H244	H	-0.063657	0.130941	0.663553
C245	C	0.186100	-0.097752	1.171503
H246	H	0.156588	-0.091113	1.228840
H247	H	0.168838	-0.074767	1.139935
H248	H	0.217866	-0.158960	1.139932
C249	C	0.186079	0.097646	1.366958
H250	H	0.156560	0.090977	1.410963
H251	H	0.217832	0.074686	1.373648
H252	H	0.168810	0.158859	1.373622
