data_functionalizedCrystal
_audit_creation_method	'MofGen! by Chris Wilmer'
_symmetry_space_group_name_H-M	'P1'
_symmetry_Int_Tables_number	1
_symmetry_cell_setting	triclinic
loop_
_symmetry_equiv_pos_as_xyz
  x,y,z
_cell_length_a	9.065218
_cell_length_b	17.038272
_cell_length_c	8.140239
_cell_angle_alpha	89.996147
_cell_angle_beta	89.997198
_cell_angle_gamma	88.063721
loop_
_atom_site_label
_atom_site_type_symbol
_atom_site_fract_x
_atom_site_fract_y
_atom_site_fract_z
O1	O	1.971908	0.114742	-0.136620
O2	O	1.543567	0.124153	-0.136623
O3	O	1.755192	0.005614	-0.136608
O4	O	1.760283	0.233281	-0.136634
O5	O	1.755179	0.005612	0.136619
O6	O	1.543555	0.124152	0.136605
O7	O	1.971895	0.114740	0.136607
Zn8	Zn	1.757723	0.119446	0.179986
Zn9	Zn	1.757740	0.119448	-0.180002
O10	O	1.760271	0.233280	0.136593
C11	C	1.488484	0.123248	-0.000009
C12	C	1.324369	0.120544	-0.000010
C13	C	1.750555	-0.023549	0.000005
C14	C	1.736739	-0.110441	0.000005
C15	C	1.863587	-0.159639	0.000007
C16	C	1.850596	-0.241284	-0.000009
C17	C	1.710756	-0.273728	-0.000015
C18	C	1.583899	-0.224524	-0.000022
C19	C	1.596891	-0.142881	-0.000019
C20	C	1.664859	-0.519818	-0.000038
C21	C	1.651876	-0.601467	-0.000037
C22	C	1.918575	-0.618221	-0.000026
C23	C	1.931554	-0.536576	-0.000012
C24	C	1.804697	-0.487379	-0.000028
C25	C	1.697475	-0.357182	-0.000026
C26	C	1.817980	-0.403927	-0.000029
C27	C	2.026979	0.115646	-0.000010
C28	C	2.191093	0.118350	-0.000020
C29	C	1.764908	0.262442	-0.000024
C30	C	1.778724	0.349335	-0.000034
N31	N	1.757722	0.119444	0.425669
N32	N	1.757751	0.119443	-0.425685
H33	H	1.977459	-0.133230	0.000022
O34	O	2.067319	-0.504974	-0.000236
C35	C	2.082839	-0.458261	-0.141761
H36	H	1.969013	-0.438749	-0.188938
H37	H	2.143637	-0.493859	-0.240851
C38	C	2.311226	-0.409469	-0.040830
C39	C	2.171423	-0.385498	-0.098765
H40	H	2.365874	-0.364587	-0.014312
H41	H	2.300774	-0.440943	0.054516
H42	H	2.361872	-0.439134	-0.123414
H43	H	2.120773	-0.355842	-0.016174
H44	H	2.181869	-0.354018	-0.194097
H45	H	1.953890	-0.281338	-0.000003
H46	H	1.583616	-0.383607	-0.000027
O47	O	1.953735	-0.372321	-0.000242
C48	C	1.969249	-0.325608	-0.141768
H49	H	1.855421	-0.306108	-0.188957
H50	H	2.030069	-0.361200	-0.240850
C51	C	2.197608	-0.276790	-0.040815
C52	C	2.057802	-0.252835	-0.098766
H53	H	2.252237	-0.231902	-0.014294
H54	H	2.187160	-0.308264	0.054531
H55	H	2.248272	-0.306451	-0.123393
H56	H	2.007134	-0.223183	-0.016181
H57	H	2.068244	-0.221354	-0.194097
O58	O	2.041645	-0.666124	-0.000098
C59	C	2.000201	-0.745142	-0.000062
H60	H	1.883828	-0.749091	-0.051787
H61	H	2.002834	-0.768714	0.131017
C62	C	2.251505	-0.789430	-0.043689
C63	C	2.108578	-0.794281	-0.107232
H64	H	2.318360	-0.819743	-0.109789
H65	H	2.279429	-0.736195	-0.043707
H66	H	2.253678	-0.809072	0.065542
H67	H	2.106403	-0.774630	-0.216453
H68	H	2.080657	-0.847514	-0.107234
O69	O	1.473564	-0.095167	-0.000238
C70	C	1.389299	-0.110001	-0.141770
H71	H	1.417784	-0.171661	-0.188942
H72	H	1.415108	-0.065211	-0.240858
C73	C	1.188924	-0.027685	-0.040858
C74	C	1.223901	-0.103420	-0.098788
H75	H	1.086899	-0.023622	-0.014349
H76	H	1.245697	-0.017688	0.054493
H77	H	1.210442	0.009631	-0.123441
H78	H	1.202400	-0.140733	-0.016198
H79	H	1.167121	-0.113423	-0.194124
H80	H	1.537996	-0.627879	-0.000015
H81	H	1.561561	-0.479770	-0.000050
H82	H	1.470038	-0.250946	-0.000038
