data_functionalizedCrystal
_audit_creation_method	'MofGen! by Chris Wilmer'
_symmetry_space_group_name_H-M	'P1'
_symmetry_Int_Tables_number	1
_symmetry_cell_setting	triclinic
loop_
_symmetry_equiv_pos_as_xyz
  x,y,z
_cell_length_a	14.628931
_cell_length_b	12.477989
_cell_length_c	12.477989
_cell_angle_alpha	89.511470
_cell_angle_beta	64.369192
_cell_angle_gamma	64.369307
loop_
_atom_site_label
_atom_site_type_symbol
_atom_site_fract_x
_atom_site_fract_y
_atom_site_fract_z
Zr1	Zr	1.088768	0.984931	-0.193158
O2	O	1.245628	0.833001	-0.345088
O3	O	0.908439	1.031506	-0.146583
O4	O	1.077033	1.044523	-0.358105
O5	O	1.094474	0.809716	0.033286
O6	O	1.094475	1.211375	-0.368372
O7	O	1.077033	0.819984	-0.133566
O8	O	0.792889	1.188089	0.010001
O9	O	1.396060	0.833002	-0.345088
O10	O	1.004320	1.175889	-0.134382
O11	O	1.004320	1.043706	-0.002199
O12	O	1.202818	1.059033	-0.251239
O13	O	1.202818	0.926850	-0.119056
Zr14	Zr	1.144402	1.234665	0.056577
Zr15	Zr	1.116585	1.251041	-0.209533
Zr16	Zr	1.116585	0.968555	0.072952
Zr17	Zr	1.328689	0.984932	-0.193157
Zr18	Zr	0.904481	1.234664	0.056577
O19	O	1.324732	1.188091	0.010003
O20	O	1.285180	1.211376	-0.368372
O21	O	1.285180	0.809716	0.033286
O22	O	0.987542	1.386595	0.208508
O23	O	0.947990	1.409880	-0.169867
O24	O	0.947990	1.008221	0.231791
O25	O	1.138696	1.409880	-0.169866
O26	O	1.156137	1.175073	0.221524
O27	O	1.138696	1.008221	0.231792
O28	O	1.156137	1.399612	-0.003014
O29	O	1.418170	1.044524	-0.358104
O30	O	0.815000	1.175073	0.221523
O31	O	0.837110	1.386594	0.208507
O32	O	0.815000	1.399611	-0.003015
O33	O	1.418170	0.819985	-0.133566
O34	O	1.440281	1.031507	-0.146582
O35	O	1.030352	1.160563	0.114658
O36	O	1.030352	1.292746	-0.017524
O37	O	1.228851	1.175890	-0.134381
O38	O	1.228850	1.043707	-0.002199
C39	C	0.816480	1.109797	-0.068291
C40	C	0.714627	1.109797	-0.068291
C41	C	0.624448	1.027819	-0.150270
C42	C	0.729720	1.027817	-0.150272
C43	C	1.081791	0.776935	-0.047807
C44	C	1.069982	0.663964	-0.040855
C45	C	1.081791	1.130282	-0.401153
C46	C	1.069982	1.137234	-0.514124
C47	C	1.416690	1.109799	-0.068290
C48	C	1.518543	1.109799	-0.068289
C49	C	1.151380	1.442661	-0.088773
C50	C	1.163189	1.555632	-0.095725
C51	C	1.151379	1.089314	0.264573
C52	C	1.163188	1.082362	0.377543
C53	C	0.851275	1.442660	-0.088774
C54	C	0.761231	1.555631	-0.095726
C55	C	0.851275	1.089313	0.264572
C56	C	0.761231	1.082361	0.377543
C57	C	0.886069	1.422176	0.244089
C58	C	0.807834	1.528195	0.350108
C59	C	1.347101	0.797420	-0.380670
C60	C	1.425336	0.691402	-0.486688
C61	C	1.381895	0.776936	-0.047807
C62	C	1.471939	0.663965	-0.040855
C63	C	1.381895	1.130283	-0.401153
C64	C	1.471939	1.137235	-0.514123
C65	C	0.705356	1.547686	-0.160000
C66	C	0.620759	1.653825	-0.166556
C67	C	0.592034	1.767907	-0.108831
C68	C	0.647919	1.775850	-0.044554
C69	C	0.732520	1.669713	-0.038006
C70	C	0.732535	1.140093	0.491604
C71	C	0.647943	1.133556	0.597762
C72	C	0.592043	1.069292	0.589856
C73	C	0.620746	1.011552	0.475782
C74	C	0.705342	1.018083	0.369627
C75	C	0.771095	1.646991	0.330897
C76	C	0.697599	1.746617	0.430502
C77	C	0.660836	1.727444	0.549317
C78	C	0.697582	1.608636	0.568526
C79	C	0.771084	1.509012	0.468922
C80	C	1.462086	0.572605	-0.467477
C81	C	1.535613	0.472979	-0.567082
C82	C	1.572381	0.492152	-0.685897
C83	C	1.535628	0.610961	-0.705107
C84	C	1.462110	0.710584	-0.605503
C85	C	1.527823	0.671911	0.023409
C86	C	1.612443	0.565774	0.029936
C87	C	1.641171	0.451691	-0.027794
C88	C	1.585282	0.443748	-0.092065
C89	C	1.500670	0.549885	-0.098599
C90	C	1.527815	1.201509	-0.506177
C91	C	1.612412	1.208065	-0.612316
C92	C	1.641137	1.150339	-0.726399
C93	C	1.585252	1.086063	-0.734343
C94	C	1.500651	1.079515	-0.628205
H95	H	0.623787	1.179989	0.001897
H96	H	1.455164	1.027171	-0.634691
H97	H	1.252027	1.030068	-0.628777
N98	N	0.952309	1.206509	-0.505740
H99	H	0.891788	1.242143	-0.417401
H100	H	0.949796	1.274353	-0.551014
H101	H	0.637182	0.957629	-0.220451
H102	H	0.505809	1.179979	0.001901
H103	H	0.728740	1.454804	-0.207024
H104	H	0.981142	0.670285	0.011437
H105	H	1.632244	0.411021	-0.766991
H106	H	0.820564	0.957635	-0.220462
N107	N	0.792783	1.678292	0.031320
H108	H	0.778667	1.633133	0.099269
H109	H	0.878295	1.640842	-0.025845
N110	N	1.732415	0.337222	-0.020717
H111	H	1.742137	0.263738	-0.067033
H112	H	1.807897	0.339567	-0.057674
N113	N	0.560495	1.645242	-0.235886
H114	H	0.591527	1.556863	-0.271448
H115	H	0.474971	1.682782	-0.178750
H116	H	0.800986	1.412285	0.484581
H117	H	1.252020	0.549310	-0.148028
N118	N	0.500788	1.882380	-0.115901
H119	H	0.469753	1.860024	-0.165379
H120	H	0.435977	1.928007	-0.030980
H121	H	1.565574	0.626557	-0.801858
N122	N	0.616933	1.898900	0.017703
H123	H	0.554856	1.964922	0.003798
H124	H	0.587814	1.903149	0.107999
H125	H	0.523161	1.063983	0.676304
H126	H	1.608686	0.350848	-0.139066
H127	H	0.778042	1.192424	0.498065
N128	N	0.616992	1.195840	0.720787
H129	H	0.665236	1.237550	0.709678
H130	H	0.532654	1.258298	0.763644
H131	H	0.575219	0.959229	0.469363
N132	N	0.736347	0.955736	0.246610
H133	H	0.688111	0.914015	0.257723
H134	H	0.721057	1.018243	0.196001
N135	N	0.810727	1.667688	0.202754
H136	H	0.776293	1.758069	0.205716
H137	H	0.897589	1.629359	0.158409
N138	N	0.657957	1.874756	0.409781
H139	H	0.727111	1.887580	0.362261
H140	H	0.614361	1.887493	0.362328
H141	H	0.600985	1.808575	0.630410
H142	H	0.667639	1.593042	0.665278
N143	N	1.422433	0.551908	-0.339334
H144	H	1.456883	0.461528	-0.342296
H145	H	1.448287	0.590240	-0.294993
N146	N	1.575241	0.344845	-0.546348
H147	H	1.540778	0.347826	-0.455964
H148	H	1.549388	0.300500	-0.584678
N149	N	1.422470	0.838714	-0.626232
H150	H	1.456920	0.835731	-0.716617
H151	H	1.335610	0.883044	-0.587922
H152	H	1.455169	0.543398	-0.150925
H153	H	1.504442	1.248517	-0.413295
N154	N	1.672675	1.277396	-0.603734
H155	H	1.641642	1.312958	-0.515355
H156	H	1.758199	1.220261	-0.641273
H157	H	1.710027	1.155680	-0.812814
N158	N	1.496850	0.794949	0.085679
H159	H	1.545106	0.783859	0.127370
H160	H	1.512164	0.845491	0.023108
N161	N	1.616240	1.023805	-0.857392
H162	H	1.678317	1.037709	-0.923414
H163	H	1.645358	0.933509	-0.861639
H164	H	1.657935	0.572265	0.082276
