data_functionalizedCrystal
_audit_creation_method	'MofGen! by Chris Wilmer'
_symmetry_space_group_name_H-M	'P1'
_symmetry_Int_Tables_number	1
_symmetry_cell_setting	triclinic
loop_
_symmetry_equiv_pos_as_xyz
  x,y,z
_cell_length_a	14.560438
_cell_length_b	14.560438
_cell_length_c	14.560438
_cell_angle_alpha	89.999635
_cell_angle_beta	59.999258
_cell_angle_gamma	59.997876
loop_
_atom_site_label
_atom_site_type_symbol
_atom_site_fract_x
_atom_site_fract_y
_atom_site_fract_z
Zr1	Zr	1.005342	0.884691	-0.120551
O2	O	1.196953	0.738033	-0.267202
O3	O	0.813732	0.929658	-0.075592
O4	O	1.005345	0.929646	-0.267200
O5	O	1.005336	0.738045	0.075546
O6	O	1.005348	1.080784	-0.267201
O7	O	1.005339	0.738045	-0.075594
O8	O	0.662586	1.080806	0.075550
O9	O	1.348098	0.738024	-0.267205
O10	O	0.892546	1.061619	-0.056422
O11	O	0.892542	0.948826	0.056374
O12	O	1.118142	0.948812	-0.169220
O13	O	1.118138	0.836019	-0.056424
Zr14	Zr	1.005342	1.125740	0.120499
Zr15	Zr	1.005346	1.125739	-0.120553
Zr16	Zr	1.005338	0.884692	0.120501
Zr17	Zr	1.246402	0.884677	-0.120556
Zr18	Zr	0.764282	1.125754	0.120504
O19	O	1.196952	1.080773	0.075540
O20	O	1.196958	1.080773	-0.267205
O21	O	1.196946	0.738034	0.075543
O22	O	0.813732	1.272398	0.267150
O23	O	0.813738	1.272397	-0.075595
O24	O	0.813726	0.929658	0.267153
O25	O	1.005348	1.272386	-0.075598
O26	O	1.005339	1.080785	0.267148
O27	O	1.005336	0.929647	0.267149
O28	O	1.005345	1.272386	0.075542
O29	O	1.348101	0.929625	-0.267207
O30	O	0.662583	1.080806	0.267155
O31	O	0.662586	1.272407	0.267153
O32	O	0.662589	1.272407	0.075549
O33	O	1.348095	0.738024	-0.075601
O34	O	1.348098	0.929625	-0.075602
O35	O	0.892542	1.061619	0.169168
O36	O	0.892546	1.174412	0.056372
O37	O	1.118142	1.061605	-0.056426
O38	O	1.118138	0.948812	0.056370
C39	C	0.703813	1.005234	-0.000020
C40	C	0.601477	1.005240	-0.000019
C41	C	0.373985	1.088473	0.083238
C42	C	0.470120	1.088501	0.083244
C43	C	0.636699	0.921953	-0.083298
C44	C	0.540564	0.921932	-0.083308
C45	C	1.005337	0.703701	-0.000024
C46	C	1.005335	0.601370	-0.000023
C47	C	0.887578	0.612175	0.058852
C48	C	0.887584	0.516021	0.058853
C49	C	1.123115	0.398258	-0.058906
C50	C	1.123107	0.494412	-0.058899
C51	C	1.306871	1.005197	-0.000032
C52	C	1.409207	1.005191	-0.000033
C53	C	1.005347	1.005215	-0.301546
C54	C	1.005349	1.005215	-0.403879
C55	C	1.005347	1.306730	-0.000028
C56	C	1.005349	1.409061	-0.000029
C57	C	1.005352	1.088478	-0.451955
C58	C	1.005340	1.088481	-0.548101
C59	C	1.005328	0.921949	-0.548088
C60	C	1.005331	0.921951	-0.451939
C61	C	1.005337	1.005216	0.301494
C62	C	1.005335	1.005216	0.403827
C63	C	0.703818	1.306748	-0.000023
C64	C	0.601484	1.409086	-0.000021
C65	C	0.703808	1.005234	0.301499
C66	C	0.601470	1.005241	0.403834
C67	C	0.703813	1.306749	0.301497
C68	C	0.601477	1.409086	0.403831
C69	C	1.306871	0.703682	-0.301549
C70	C	1.409207	0.601345	-0.403883
C71	C	1.306866	0.703683	-0.000029
C72	C	1.409200	0.601345	-0.000030
C73	C	1.306876	1.005197	-0.301551
C74	C	1.409214	1.005190	-0.403886
C75	C	0.553404	1.398290	-0.058896
C76	C	0.457258	1.494451	-0.058899
C77	C	0.457275	1.612199	0.058856
C78	C	0.553426	1.516040	0.058852
C79	C	0.553389	1.064119	0.510788
C80	C	0.457241	1.064113	0.606939
C81	C	0.457258	0.946347	0.489167
C82	C	0.553412	0.946348	0.393019
C83	C	0.553399	1.516041	0.393033
C84	C	0.457251	1.612195	0.489190
C85	C	0.457265	1.494424	0.606942
C86	C	0.553417	1.398273	0.510785
H87	H	0.743659	0.854165	-0.151096
H88	H	0.418110	1.699280	0.480390
H89	H	1.219001	0.311163	-0.106842
O90	O	0.605261	1.282906	0.522435
H91	H	0.649061	1.273118	0.569129
O92	O	0.578562	0.832098	-0.173132
H93	H	0.538750	0.872133	-0.221149
O94	O	0.405370	1.127635	0.722296
H95	H	0.486083	1.093625	0.732076
O96	O	0.760560	0.727539	0.122361
H97	H	0.678679	0.718893	0.163309
H98	H	0.418121	1.485634	0.694033
H99	H	0.267031	1.156269	0.151044
O100	O	1.005308	0.832148	-0.400072
H101	H	1.005291	0.846151	-0.325129
H102	H	0.441430	1.156318	0.151051
O103	O	0.405406	1.482807	-0.122405
H104	H	0.299333	1.523818	-0.062965
H105	H	0.418116	0.898400	0.480375
H106	H	0.791695	0.524829	0.106797
O107	O	0.605230	1.127634	0.522446
H108	H	0.649045	1.093601	0.569125
O109	O	0.605115	0.883006	0.277648
H110	H	0.555472	0.842128	0.286278
O111	O	0.605259	1.527695	0.277674
H112	H	0.555683	1.618226	0.286325
H113	H	1.219005	0.485605	-0.106840
O114	O	1.005350	1.178290	-0.400103
H115	H	1.005334	1.236195	-0.449683
H116	H	1.005340	1.156283	-0.587241
O117	O	1.005331	0.832133	-0.599935
H118	H	1.005346	0.846109	-0.674879
O119	O	0.605259	1.282932	-0.122407
H120	H	0.555680	1.291585	-0.163357
H121	H	0.418134	1.699291	0.106790
H122	H	0.592577	1.524838	0.106794
