data_functionalizedCrystal
_audit_creation_method	'MofGen! by Chris Wilmer'
_symmetry_space_group_name_H-M	'P1'
_symmetry_Int_Tables_number	1
_symmetry_cell_setting	triclinic
loop_
_symmetry_equiv_pos_as_xyz
  x,y,z
_cell_length_a	10.654562
_cell_length_b	10.654550
_cell_length_c	9.130313
_cell_angle_alpha	90.000110
_cell_angle_beta	90.003070
_cell_angle_gamma	84.487503
loop_
_atom_site_label
_atom_site_type_symbol
_atom_site_fract_x
_atom_site_fract_y
_atom_site_fract_z
O1	O	-1.667825	-0.176469	-0.121892
O2	O	-1.302348	-0.193259	-0.121873
O3	O	-1.493490	-0.002125	-0.121877
O4	O	-1.476683	-0.367603	-0.121887
O5	O	-1.493487	-0.002130	0.121721
O6	O	-1.302346	-0.193264	0.121726
O7	O	-1.667822	-0.176474	0.121707
Cu8	Cu	-1.485084	-0.184869	0.143959
Cu9	Cu	-1.485087	-0.184863	-0.144125
O10	O	-1.476681	-0.367608	0.121711
C11	C	-1.255549	-0.192025	-0.000071
C12	C	-1.116107	-0.188327	-0.000064
C13	C	-1.492254	0.044671	-0.000080
C14	C	-1.488563	0.184114	-0.000085
C15	C	-1.714621	-0.177708	-0.000098
C16	C	-1.854064	-0.181406	-0.000115
C17	C	-1.050575	-0.186605	0.132710
C18	C	-0.919553	-0.183140	0.132686
C19	C	-0.919605	-0.183125	-0.132899
C20	C	-1.050626	-0.186580	-0.132873
C21	C	-1.116056	-0.188351	0.265519
C22	C	-1.050523	-0.186630	0.398304
C23	C	-0.919501	-0.183165	0.398280
C24	C	-0.854011	-0.181421	0.265470
C25	C	-1.477916	-0.414403	-0.000090
C26	C	-1.481608	-0.553847	-0.000094
N27	N	-1.485091	-0.184873	0.346582
C28	C	-1.601103	0.263595	-0.000086
C29	C	-1.597627	0.394615	-0.000096
C30	C	-1.369059	0.366662	-0.000097
C31	C	-1.372537	0.235644	-0.000098
C32	C	-1.717129	0.212064	-0.000073
C33	C	-1.829680	0.291546	-0.000072
C34	C	-1.826203	0.422567	-0.000083
C35	C	-1.710176	0.474106	-0.000093
N36	N	-1.485089	-0.184850	-0.346748
C37	C	-1.569750	-0.100268	0.423232
C38	C	-1.569747	-0.100253	0.576568
C39	C	-1.400421	-0.269459	0.576592
C40	C	-1.400419	-0.269467	0.423258
C41	C	-1.654422	-0.015674	0.346556
C42	C	-1.739089	0.068937	0.423206
C43	C	-1.739086	0.068952	0.576543
C44	C	-1.654415	-0.015644	0.653229
H45	H	-1.222740	-0.191176	0.265554
H46	H	-1.103855	-0.188041	0.506432
H47	H	-1.924144	0.249574	-0.000101
H48	H	-1.917847	0.487279	-0.000097
H49	H	-1.280896	0.170928	-0.000095
H50	H	-1.654411	-0.015616	0.778087
H51	H	-1.808018	0.137819	0.360760
N52	N	-0.848851	-0.181064	0.541490
H53	H	-0.755923	-0.178523	0.521328
H54	H	-0.881348	-0.103876	0.599287
H55	H	-1.274595	0.408637	-0.000104
H56	H	-1.654435	-0.015681	0.221701
H57	H	-0.866273	-0.181708	-0.241026
N58	N	-1.830405	0.160201	0.659214
H59	H	-1.817560	0.147377	0.767987
H60	H	-1.815136	0.249435	0.632403
N61	N	-1.309103	-0.360696	0.659296
H62	H	-1.321953	-0.347854	0.768063
H63	H	-1.324378	-0.449932	0.632499
H64	H	-0.747324	-0.178597	0.265461
H65	H	-1.331481	-0.338359	0.360849
H66	H	-1.103983	-0.187989	-0.240990
N67	N	-1.720878	0.070751	-0.000062
H68	H	-1.811454	0.050164	-0.000056
H69	H	-1.676794	0.033797	-0.090371
N70	N	-1.706422	0.615421	-0.000124
H71	H	-1.795323	0.657956	-0.000131
H72	H	-1.660658	0.641395	0.090180
