data_functionalizedCrystal
_audit_creation_method	'MofGen! by Chris Wilmer'
_symmetry_space_group_name_H-M	'P1'
_symmetry_Int_Tables_number	1
_symmetry_cell_setting	triclinic
loop_
_symmetry_equiv_pos_as_xyz
  x,y,z
_cell_length_a	15.297475
_cell_length_b	17.637651
_cell_length_c	15.296720
_cell_angle_alpha	93.472074
_cell_angle_beta	88.382886
_cell_angle_gamma	89.678268
loop_
_atom_site_label
_atom_site_type_symbol
_atom_site_fract_x
_atom_site_fract_y
_atom_site_fract_z
Zn1	Zn	1.146788	-0.576164	0.575099
Zn2	Zn	1.646788	-0.076164	1.075099
Zn3	Zn	1.152326	-0.682764	0.400585
Zn4	Zn	1.652326	-0.182764	0.900585
Zn5	Zn	1.033362	-0.534575	0.414276
Zn6	Zn	1.533362	-0.034575	0.914276
Zn7	Zn	0.981899	-0.675487	0.523627
Zn8	Zn	1.481899	-0.175487	1.023627
O9	O	1.078594	-0.617248	0.478397
O10	O	1.578594	-0.117248	0.978397
O11	O	1.266317	-0.610756	0.567761
O12	O	1.766317	-0.110756	1.067761
O13	O	1.160400	-0.648747	0.283602
O14	O	1.660400	-0.148747	0.783602
O15	O	1.067628	-0.436507	0.462880
O16	O	1.567628	0.063493	0.962880
O17	O	1.270385	-0.689074	0.439546
O18	O	1.770385	-0.189074	0.939546
O19	O	1.150962	-0.467063	0.581037
O20	O	1.650962	0.032937	1.081037
O21	O	1.072998	-0.539873	0.293661
O22	O	1.572998	-0.039873	0.793661
O23	O	0.907741	-0.532817	0.412969
O24	O	1.407741	-0.032817	0.912969
O25	O	0.979917	-0.676672	0.649254
O26	O	1.479917	-0.176672	1.149254
O27	O	0.869932	-0.636344	0.493309
O28	O	1.369932	-0.136344	0.993309
O29	O	1.101060	-0.603699	0.687070
O30	O	1.601060	-0.103699	1.187070
O31	O	1.110498	-0.785384	0.389636
O32	O	1.610498	-0.285384	0.889636
O33	O	0.985286	-0.780037	0.480034
O34	O	1.485286	-0.280037	0.980034
C35	C	0.858034	-0.579279	0.449040
C36	C	1.358034	-0.079279	0.949040
C37	C	0.763671	-0.563055	0.436496
C38	C	1.263671	-0.063055	0.936496
C39	C	1.042928	-0.809575	0.427785
C40	C	1.542928	-0.309575	0.927785
C41	C	1.027742	-0.891870	0.406173
C42	C	1.527742	-0.391870	0.906173
C43	C	0.419041	-0.733202	0.568047
C44	C	0.919041	-0.233202	1.068047
C45	C	0.507700	-0.748450	0.579829
C46	C	1.007700	-0.248450	1.079829
C47	C	0.571696	-0.702103	0.543997
C48	C	1.071696	-0.202103	1.043997
C49	C	0.547026	-0.640505	0.496381
C50	C	1.047026	-0.140505	0.996381
C51	C	0.458359	-0.625260	0.484593
C52	C	0.958359	-0.125260	0.984593
C53	C	0.611015	-0.594160	0.460543
C54	C	1.111015	-0.094160	0.960543
C55	C	0.586345	-0.532562	0.412927
C56	C	1.086345	-0.032562	0.912927
C57	C	0.497685	-0.517319	0.401141
C58	C	0.997685	-0.017319	0.901141
C59	C	0.433689	-0.563667	0.436973
C60	C	0.933689	-0.063667	0.936973
C61	C	0.699682	-0.609405	0.472331
C62	C	1.199682	-0.109405	0.972331
C63	C	0.739000	-0.501463	0.388876
C64	C	1.239000	-0.001463	0.888876
C65	C	0.650341	-0.486215	0.377095
C66	C	1.150341	0.013785	0.877095
C67	C	1.194457	-1.241772	0.642929
C68	C	1.694457	-0.741772	1.142929
C69	C	1.180164	-1.319095	0.622602
C70	C	1.680164	-0.819095	1.122602
C71	C	1.093482	-1.287385	0.499470
C72	C	1.593482	-0.787385	0.999470
C73	C	1.107771	-1.210058	0.519784
C74	C	1.607771	-0.710058	1.019784
C75	C	1.158259	-1.187259	0.591515
C76	C	1.658259	-0.687259	1.091515
C77	C	1.071573	-1.155544	0.468370
C78	C	1.571573	-0.655544	0.968370
C79	C	1.085858	-1.078224	0.488686
C80	C	1.585858	-0.578224	0.988686
C81	C	1.136341	-1.055418	0.560415
C82	C	1.636341	-0.555418	1.060415
C83	C	1.172544	-1.109939	0.611830
C84	C	1.672544	-0.609939	1.111830
C85	C	1.021080	-1.178345	0.396644
C86	C	1.521080	-0.678345	0.896644
C87	C	0.984882	-1.123831	0.345230
C88	C	1.484882	-0.623831	0.845230
C89	C	0.999172	-1.046510	0.365541
C90	C	1.499172	-0.546510	0.865541
C91	C	1.049655	-1.023704	0.437271
C92	C	1.549655	-0.523704	0.937271
C93	C	0.962969	-0.991990	0.314126
C94	C	1.462969	-0.491990	0.814126
C95	C	0.977254	-0.914670	0.334442
C96	C	1.477254	-0.414670	0.834442
C97	C	1.063940	-0.946384	0.457586
C98	C	1.563940	-0.446384	0.957586
C99	C	1.300014	-0.655366	0.507868
C100	C	1.800014	-0.155366	1.007868
C101	C	1.394370	-0.671609	0.520427
C102	C	1.894370	-0.171609	1.020427
C103	C	1.034130	-0.644013	0.699826
C104	C	1.534130	-0.144013	1.199826
C105	C	1.015183	-0.655419	0.794186
C106	C	1.515183	-0.155419	1.294186
C107	C	1.114418	-0.424176	0.529227
C108	C	1.614418	0.075824	1.029227
C109	C	1.129684	-0.341900	0.550888
C110	C	1.629684	0.158100	1.050888
C111	C	1.122943	-0.590542	0.257849
C112	C	1.622943	-0.090542	0.757849
C113	C	1.142093	-0.578956	0.163566
C114	C	1.642093	-0.078956	0.663566
C115	C	1.214071	-0.535605	1.138928
C116	C	1.714071	-0.035605	1.638928
C117	C	1.231878	-0.524891	1.050272
C118	C	1.731878	-0.024891	1.550272
C119	C	1.177706	-0.557522	0.986247
C120	C	1.677706	-0.057522	1.486247
C121	C	1.105723	-0.600869	1.010885
C122	C	1.605723	-0.100869	1.510885
C123	C	1.087918	-0.611589	1.099549
C124	C	1.587918	-0.111589	1.599549
C125	C	1.051553	-0.633506	0.946868
C126	C	1.551553	-0.133506	1.446868
C127	C	0.979570	-0.676853	0.971506
C128	C	1.479570	-0.176853	1.471506
C129	C	0.961768	-0.687570	1.060162
C130	C	1.461768	-0.187570	1.560162
C131	C	1.015940	-0.654940	1.124187
C132	C	1.515940	-0.154940	1.624187
C133	C	1.069358	-0.622785	0.858204
C134	C	1.569358	-0.122785	1.358204
C135	C	0.943205	-0.698769	0.818825
C136	C	1.443205	-0.198769	1.318825
C137	C	0.925398	-0.709483	0.907480
C138	C	1.425398	-0.209483	1.407480
H139	H	0.719759	-0.659558	0.511101
H140	H	1.219759	-0.159558	1.011101
H141	H	0.366929	-0.770935	0.597210
H142	H	0.866929	-0.270935	1.097210
H143	H	1.105060	-0.927821	0.515991
H144	H	1.605060	-0.427821	1.015991
Cl145	Cl	0.899486	-1.020662	0.223965
Cl146	Cl	1.399486	-0.520662	0.723965
H147	H	0.943772	-1.142406	0.286828
H148	H	1.443772	-0.642406	0.786828
H149	H	0.630242	-0.436062	0.338326
H150	H	1.130242	0.063938	0.838326
H151	H	0.643885	-0.714521	0.553593
H152	H	1.143885	-0.214521	1.053593
Cl153	Cl	1.200092	-0.544049	0.874793
Cl154	Cl	1.700092	-0.044049	1.374793
Cl155	Cl	0.871287	-0.742079	1.091132
Cl156	Cl	1.371287	-0.242079	1.591132
H157	H	0.527779	-0.798604	0.618595
H158	H	1.027779	-0.298604	1.118595
H159	H	1.127967	-0.587491	0.838153
H160	H	1.627967	-0.087491	1.338153
Cl161	Cl	1.030006	-1.316055	0.409303
Cl162	Cl	1.530006	-0.816055	0.909303
H163	H	1.209630	-1.363479	0.664485
H164	H	1.709630	-0.863479	1.164485
H165	H	0.791108	-0.463724	0.359698
H166	H	1.291108	0.036276	0.859698
H167	H	0.947777	-0.870283	0.292576
H168	H	1.447777	-0.370283	0.792576
Cl169	Cl	0.875103	-0.739798	0.738341
Cl170	Cl	1.375103	-0.239798	1.238341
Cl171	Cl	0.322225	-0.544497	0.422170
Cl172	Cl	0.822225	-0.044497	0.922170
Cl173	Cl	1.322366	-0.470400	1.019304
Cl174	Cl	1.822366	0.029600	1.519304
H175	H	0.477603	-0.467169	0.362359
H176	H	0.977603	0.032831	0.862359
Cl177	Cl	1.153980	-0.958202	0.586188
Cl178	Cl	1.653980	-0.458202	1.086188
Cl179	Cl	1.236028	-1.081271	0.701999
Cl180	Cl	1.736028	-0.581271	1.201999
Cl181	Cl	1.003275	-1.275555	0.370994
Cl182	Cl	1.503275	-0.775555	0.870994
H183	H	1.235577	-1.223210	0.701334
H184	H	1.735577	-0.723210	1.201334
H185	H	0.866789	-0.744777	0.927554
H186	H	1.366789	-0.244777	1.427554
H187	H	1.258174	-0.509047	1.191063
H188	H	1.758174	-0.009047	1.691063
Cl189	Cl	0.993561	-0.668412	1.235646
Cl190	Cl	1.493561	-0.168412	1.735646
