data_functionalizedCrystal
_audit_creation_method	'MofGen! by Chris Wilmer'
_symmetry_space_group_name_H-M	'P1'
_symmetry_Int_Tables_number	1
_symmetry_cell_setting	triclinic
loop_
_symmetry_equiv_pos_as_xyz
  x,y,z
_cell_length_a	12.759394
_cell_length_b	12.827893
_cell_length_c	12.827885
_cell_angle_alpha	90.019272
_cell_angle_beta	89.970739
_cell_angle_gamma	89.985388
loop_
_atom_site_label
_atom_site_type_symbol
_atom_site_fract_x
_atom_site_fract_y
_atom_site_fract_z
Zn1	Zn	-0.418216	-1.597675	-0.590852
Zn2	Zn	-0.593932	-1.597571	-0.416114
Zn3	Zn	-0.418268	-1.422916	-0.416126
Zn4	Zn	-0.593854	-1.422904	-0.590814
O5	O	-0.506068	-1.510267	-0.503477
O6	O	-0.441537	-1.743897	-0.567684
O7	O	-0.570684	-1.574365	-0.269880
O8	O	-0.271240	-1.446147	-0.439325
O9	O	-0.570634	-1.743821	-0.439305
O10	O	-0.271202	-1.574542	-0.567696
O11	O	-0.441624	-1.446047	-0.269888
O12	O	-0.441548	-1.276679	-0.439288
O13	O	-0.570501	-1.446126	-0.737056
O14	O	-0.570551	-1.276670	-0.567631
O15	O	-0.441461	-1.574529	-0.737084
O16	O	-0.740943	-1.574353	-0.439268
O17	O	-0.740885	-1.446025	-0.567619
C18	C	-0.506047	-1.238757	-0.503457
C19	C	-0.506064	-1.122604	-0.503473
C20	C	-0.779035	-1.510205	-0.503461
C21	C	-0.895812	-1.510274	-0.503489
C22	C	-0.505967	-1.510338	-0.776047
C23	C	-0.505924	-1.510368	-0.892200
C24	C	-1.115242	-1.644123	-0.369980
C25	C	-1.060373	-1.710962	-0.303197
C26	C	-0.950651	-1.710907	-0.303176
C27	C	-0.895796	-1.644005	-0.369944
C28	C	-0.950665	-1.577167	-0.436727
C29	C	-1.060389	-1.577231	-0.436742
C30	C	-0.950680	-1.443436	-0.570272
C31	C	-1.060402	-1.443494	-0.570300
C32	C	-0.895825	-1.376533	-0.637039
C33	C	-0.950694	-1.309699	-0.703829
C34	C	-1.060422	-1.309757	-0.703848
C35	C	-1.115271	-1.376655	-0.637083
C36	C	-0.232034	-1.510357	-0.503516
C37	C	-0.115257	-1.510396	-0.503532
C38	C	-0.506089	-1.782837	-0.503497
C39	C	-0.506098	-1.898990	-0.503506
C40	C	-0.569998	-1.070842	-0.566883
C41	C	-0.570017	-0.950792	-0.566902
C42	C	-0.442058	-1.573913	-0.943999
C43	C	-0.442012	-1.573946	-1.064049
C44	C	-0.506092	-1.510256	-0.231967
C45	C	-0.505839	-1.510428	-0.115814
H46	H	-1.204583	-1.644184	-0.370000
H47	H	-1.105048	-1.765430	-0.248834
O48	O	-0.897509	-1.775928	-0.238269
C49	C	-0.969446	-1.834966	-0.179319
H50	H	-1.047630	-1.838611	-0.222133
H51	H	-0.937681	-1.917288	-0.168233
H52	H	-0.981198	-1.796741	-0.099923
O53	O	-1.113834	-1.244974	-0.768775
C54	C	-1.177184	-1.304467	-0.836355
H55	H	-1.193587	-1.383690	-0.799573
H56	H	-1.254363	-1.261934	-0.850341
H57	H	-1.134830	-1.315884	-0.913798
H58	H	-0.560524	-1.456026	-1.071276
O59	O	-0.635169	-0.897648	-0.631782
C60	C	-0.575385	-0.834530	-0.699310
H61	H	-0.492671	-0.867500	-0.705928
H62	H	-0.613476	-0.833217	-0.779668
H63	H	-0.571665	-0.751836	-0.666941
O64	O	-0.635139	-1.124110	-0.631687
C65	C	-0.575335	-1.187264	-0.699234
H66	H	-0.495653	-1.203496	-0.662495
H67	H	-0.618061	-1.264064	-0.713084
H68	H	-0.563931	-1.145302	-0.776740
O69	O	-0.376809	-1.638751	-1.117344
C70	C	-0.391290	-1.624368	-1.225343
H71	H	-0.425705	-1.543702	-1.240135
H72	H	-0.312615	-1.631451	-1.266908
H73	H	-0.447255	-1.686318	-1.256317
H74	H	-0.560560	-1.455982	-0.936730
O75	O	-0.789242	-1.376307	-0.636918
C76	C	-0.752688	-1.276140	-0.610008
H77	H	-0.815991	-1.232999	-0.564428
H78	H	-0.679317	-1.283608	-0.559886
H79	H	-0.733199	-1.230815	-0.683946
O80	O	-0.440938	-0.952195	-0.438683
C81	C	-0.500724	-1.015270	-0.371117
H82	H	-0.580400	-1.031522	-0.407851
H83	H	-0.457973	-1.092064	-0.357241
H84	H	-0.512142	-0.973229	-0.293623
O85	O	-0.440631	-1.069493	-0.438832
C86	C	-0.335916	-1.096122	-0.461792
H87	H	-0.330670	-1.126241	-0.545251
H88	H	-0.284083	-1.024291	-0.452954
H89	H	-0.308318	-1.159365	-0.405739
O90	O	-0.789213	-1.643943	-0.369720
C91	C	-0.752661	-1.617108	-0.269539
H92	H	-0.815927	-1.635026	-0.209380
H93	H	-0.679232	-1.664211	-0.250979
H94	H	-0.733266	-1.530389	-0.267248
O95	O	-0.897359	-1.244868	-0.768791
C96	C	-0.833770	-1.304299	-0.836297
H97	H	-0.866767	-1.386617	-0.842829
H98	H	-0.832488	-1.266464	-0.916688
H99	H	-0.750638	-1.307871	-0.803964
H100	H	-1.204612	-1.376713	-0.637096
H101	H	-0.387411	-1.628288	-0.899469
