data_functionalizedCrystal
_audit_creation_method	'MofGen! by Chris Wilmer'
_symmetry_space_group_name_H-M	'P1'
_symmetry_Int_Tables_number	1
_symmetry_cell_setting	triclinic
loop_
_symmetry_equiv_pos_as_xyz
  x,y,z
_cell_length_a	18.050591
_cell_length_b	19.121111
_cell_length_c	18.050582
_cell_angle_alpha	92.417072
_cell_angle_beta	90.019760
_cell_angle_gamma	87.533013
loop_
_atom_site_label
_atom_site_type_symbol
_atom_site_fract_x
_atom_site_fract_y
_atom_site_fract_z
Zn1	Zn	1.122670	0.279726	0.432617
Zn2	Zn	1.117281	0.397170	0.313721
Zn3	Zn	0.998489	0.279729	0.308431
Zn4	Zn	0.993139	0.397133	0.437857
O5	O	1.057894	0.338440	0.373157
O6	O	1.225879	0.295318	0.416866
O7	O	1.101506	0.381608	0.209095
O8	O	1.019456	0.181444	0.320498
O9	O	1.221919	0.381604	0.329514
O10	O	1.110691	0.181441	0.411737
O11	O	1.014230	0.295325	0.205209
O12	O	0.893855	0.295290	0.325579
O13	O	1.010338	0.381542	0.541086
O14	O	0.889924	0.381546	0.420668
O15	O	1.105503	0.295283	0.537236
O16	O	1.096319	0.495450	0.334595
O17	O	1.005112	0.495423	0.425797
C18	C	0.864943	0.338415	0.373118
C19	C	0.782397	0.338421	0.373120
C20	C	1.049570	0.520921	0.381355
C21	C	1.046077	0.598987	0.384887
C22	C	0.535690	0.291466	0.321526
C23	C	0.585894	0.274367	0.388531
C24	C	0.485275	0.338457	0.373183
C25	C	0.582156	0.355506	0.306149
C26	C	0.631261	0.338438	0.373148
C27	C	0.534393	0.321324	0.440223
C28	C	0.530650	0.402493	0.357796
C29	C	0.580830	0.385418	0.424849
C30	C	0.401177	0.338466	0.373201
C31	C	0.715358	0.338428	0.373137
C32	C	1.091959	0.635653	0.339102
C33	C	1.088678	0.709004	0.342428
C34	C	1.039511	0.745688	0.391537
C35	C	0.993627	0.709017	0.437327
C36	C	0.996912	0.635667	0.434004
C37	C	1.027218	0.967158	0.403947
C38	C	1.023934	1.040514	0.407265
C39	C	1.118987	1.040496	0.312367
C40	C	1.122265	0.967145	0.309045
C41	C	1.076383	0.930480	0.354838
C42	C	1.036154	0.820665	0.394936
C43	C	1.079744	0.855504	0.351442
C44	C	1.251599	0.338465	0.373195
C45	C	1.334144	0.338476	0.373212
C46	C	1.057925	0.338408	0.566861
C47	C	1.057938	0.338395	0.649406
C48	C	1.066265	1.155246	0.364952
C49	C	1.069816	1.077180	0.361480
C50	C	1.057909	0.338420	0.180204
C51	C	1.058049	0.338235	0.097650
C52	C	1.006228	0.385239	0.850948
C53	C	1.073208	0.402411	0.901119
C54	C	1.057977	0.338342	0.800534
C55	C	0.991035	0.321150	0.897444
C56	C	1.058009	0.338291	0.946517
C57	C	1.124991	0.355547	0.849620
C58	C	1.042774	0.274256	0.845939
C59	C	1.109802	0.291404	0.896087
C60	C	1.057958	0.338372	0.716437
C61	C	1.058036	0.338260	1.030612
H62	H	0.515804	0.251706	0.277907
H63	H	0.962502	0.424950	0.831062
N64	N	0.616208	0.206421	0.404856
N65	N	0.574000	0.157785	0.415976
H66	H	0.595407	0.109797	0.427502
H67	H	1.029875	0.220098	0.821781
N68	N	1.142192	0.598184	0.288947
N69	N	1.191335	0.557206	0.313268
H70	H	1.226815	0.530744	0.277846
N71	N	0.608508	0.373627	0.235058
N72	N	0.645689	0.426786	0.229236
H73	H	0.664299	0.439581	0.179027
H74	H	0.934409	0.306630	0.918479
H75	H	1.126040	0.738855	0.305144
N76	N	1.172479	0.929691	0.258860
N77	N	1.167211	0.937945	0.190705
H78	H	1.202673	0.911499	0.155252
N79	N	0.508151	0.303156	0.511339
N80	N	0.440093	0.300214	0.522825
H81	H	0.421557	0.287385	0.573050
H82	H	1.119779	0.825634	0.311460
H83	H	0.983905	1.070380	0.447268
N84	N	0.605603	0.435257	0.479696
N85	N	0.589945	0.428916	0.546461
H86	H	0.607441	0.464112	0.585199
N87	N	0.500314	0.470421	0.341450
N88	N	0.514891	0.496493	0.281082
H89	H	0.493466	0.544467	0.269530
H90	H	0.996121	0.850541	0.434919
H91	H	1.086086	0.456585	0.925261
H92	H	1.156342	1.070357	0.275086
N93	N	0.980347	0.929723	0.450727
N94	N	0.936451	0.962488	0.494568
H95	H	0.903346	0.936047	0.527608
N96	N	0.943414	0.746497	0.487493
N97	N	0.940487	0.811987	0.490455
H98	H	0.905022	0.838458	0.525885
H99	H	1.181631	0.370129	0.828679
N100	N	0.950044	0.598222	0.480783
N101	N	0.906149	0.630981	0.524629
H102	H	0.873049	0.604537	0.557671
N103	N	1.164783	0.241627	0.920860
N104	N	1.231520	0.248071	0.905175
H105	H	1.270352	0.212918	0.922671
