data_functionalizedCrystal
_audit_creation_method	'MofGen! by Chris Wilmer'
_symmetry_space_group_name_H-M	'P1'
_symmetry_Int_Tables_number	1
_symmetry_cell_setting	triclinic
loop_
_symmetry_equiv_pos_as_xyz
  x,y,z
_cell_length_a	17.038272
_cell_length_b	17.699083
_cell_length_c	16.776229
_cell_angle_alpha	89.992455
_cell_angle_beta	89.998668
_cell_angle_gamma	87.197286
loop_
_atom_site_label
_atom_site_type_symbol
_atom_site_fract_x
_atom_site_fract_y
_atom_site_fract_z
O1	O	1.037102	0.164337	-0.066191
O2	O	0.809475	0.161728	-0.066215
O3	O	0.929720	0.053269	-0.066195
O4	O	0.916858	0.272796	-0.066211
O5	O	0.929704	0.053261	0.066381
O6	O	0.809460	0.161720	0.066362
O7	O	1.037086	0.164329	0.066385
Zn8	Zn	0.923270	0.163023	0.087423
Zn9	Zn	0.923291	0.163034	-0.087253
O10	O	0.916842	0.272788	0.066366
C11	C	0.780343	0.159350	0.000070
C12	C	0.693562	0.152270	0.000062
C13	C	0.929251	0.025037	0.000093
C14	C	0.927868	-0.059072	0.000093
C15	C	0.998449	-0.103023	0.000101
C16	C	0.997145	-0.182053	0.000094
C17	C	0.925260	-0.217130	0.000084
C18	C	0.854674	-0.173173	0.000074
C19	C	0.855978	-0.094145	0.000075
C20	C	0.849411	-0.491885	0.000067
C21	C	0.848112	-0.570919	0.000067
C22	C	0.990578	-0.579792	0.000086
C23	C	0.991882	-0.500764	0.000087
C24	C	0.921297	-0.456814	0.000072
C25	C	0.922711	-0.371121	0.000079
C26	C	0.923844	-0.302821	0.000084
C27	C	0.643342	0.217280	0.000058
C28	C	0.561802	0.210622	0.000069
C29	C	0.530484	0.138953	0.000079
C30	C	0.580710	0.073938	0.000085
C31	C	0.662249	0.080597	0.000080
C32	C	0.284764	0.115431	0.000102
C33	C	0.203220	0.108777	0.000105
C34	C	0.184317	0.245462	0.000091
C35	C	0.265857	0.252114	0.000080
C36	C	0.316077	0.187099	0.000091
C37	C	0.447137	0.132147	0.000088
C38	C	0.399422	0.193906	0.000087
C39	C	1.066218	0.166707	0.000098
C40	C	1.153000	0.173787	0.000101
C41	C	0.917311	0.301020	0.000076
C42	C	0.918693	0.385129	0.000070
N43	N	0.923262	0.163016	0.206634
N44	N	0.923306	0.163036	-0.206464
C45	C	0.976522	0.115012	0.248360
C46	C	0.976526	0.115012	0.331812
C47	C	0.923273	0.163019	0.373537
C48	C	0.870007	0.211025	0.331805
C49	C	0.870000	0.211021	0.248355
C50	C	0.870036	0.211042	0.668353
C51	C	0.870049	0.211044	0.751809
C52	C	0.976562	0.115033	0.751810
C53	C	0.976555	0.115029	0.668359
C54	C	0.923286	0.163031	0.626635
C55	C	0.923281	0.163030	0.536146
C56	C	0.923282	0.163025	0.464024
H57	H	1.054619	-0.217834	0.000103
H58	H	0.668834	0.275640	0.000049
H59	H	1.048052	-0.615585	0.000094
H60	H	0.325644	0.062490	0.000111
O61	O	1.028267	0.068288	0.792256
C62	C	1.074299	-0.060330	0.817840
C63	C	1.015714	-0.007480	0.771973
H64	H	1.064159	-0.121600	0.801471
H65	H	1.136907	-0.046464	0.801410
H66	H	1.065165	-0.052046	0.884647
H67	H	1.024775	-0.015735	0.705155
H68	H	0.953127	-0.021358	0.788469
O69	O	1.061732	-0.466726	-0.000046
C70	C	1.183926	-0.450160	-0.068697
C71	C	1.104841	-0.488741	-0.068651
H72	H	1.218809	-0.467957	-0.124150
H73	H	1.172781	-0.386121	-0.068748
H74	H	1.218761	-0.467883	-0.013186
H75	H	1.069966	-0.471079	-0.124152
H76	H	1.116041	-0.552773	-0.068558
O77	O	0.818168	0.257575	0.372301
C78	C	0.682158	0.293114	0.397812
C79	C	0.740779	0.240335	0.351917
H80	H	0.619577	0.279205	0.381336
H81	H	0.691245	0.284867	0.464633
H82	H	0.692260	0.354386	0.381401
H83	H	0.730712	0.179043	0.368261
H84	H	0.731677	0.248647	0.285107
H85	H	0.520915	0.263561	0.000065
O86	O	1.028247	0.068439	0.627727
C87	C	1.134802	0.059036	0.533246
C88	C	1.076394	0.111932	0.579267
H89	H	1.173734	0.094178	0.494042
H90	H	1.172936	0.024655	0.577291
H91	H	1.100932	0.019104	0.494291
H92	H	1.110201	0.151909	0.618223
H93	H	1.038261	0.146260	0.535178
O94	O	0.296172	0.321780	-0.000038
C95	C	0.304962	0.440621	-0.068774
C96	C	0.270572	0.361751	-0.068721
H97	H	0.284292	0.472955	-0.124307
H98	H	0.284244	0.473064	-0.013333
H99	H	0.371866	0.434211	-0.068743
H100	H	0.203668	0.368092	-0.068781
H101	H	0.291353	0.329337	-0.124157
O102	O	0.818342	0.257763	0.207855
C103	C	0.772241	0.386372	0.182336
C104	C	0.830804	0.333526	0.228235
H105	H	0.782285	0.447636	0.198809
H106	H	0.781380	0.378188	0.115515
H107	H	0.709659	0.372404	0.198746
H108	H	0.893409	0.347461	0.211892
H109	H	0.821596	0.341719	0.295045
H110	H	1.056987	-0.074469	0.000114
O111	O	0.778209	-0.604873	0.000016
C112	C	0.637034	-0.587736	0.000030
C113	C	0.716136	-0.549186	0.000070
H114	H	0.586827	-0.542731	0.000091
H115	H	0.632824	-0.624484	-0.055466
H116	H	0.632894	-0.624543	0.055500
H117	H	0.720329	-0.512341	-0.055362
H118	H	0.720311	-0.512483	0.055603
O119	O	0.780866	-0.449169	-0.000084
C120	C	0.699670	-0.354763	-0.068756
C121	C	0.777323	-0.403108	-0.068694
H122	H	0.696788	-0.317499	-0.124212
H123	H	0.648043	-0.393379	-0.068811
H124	H	0.696716	-0.317581	-0.013249
H125	H	0.780353	-0.440295	-0.124191
H126	H	0.828914	-0.364449	-0.068597
H127	H	0.796143	-0.201740	0.000061
H128	H	0.798504	-0.058361	0.000068
O129	O	1.028348	0.068367	0.372220
C130	C	1.133986	-0.026878	0.363414
C131	C	1.075347	0.025920	0.317554
H132	H	1.171990	-0.061221	0.319236
H133	H	1.173025	0.008309	0.402447
H134	H	1.100312	-0.066849	0.402521
H135	H	1.108958	0.065901	0.278404
H136	H	1.036310	-0.009314	0.278571
H137	H	0.826681	0.250138	0.785780
H138	H	0.177724	0.050413	0.000112
O139	O	0.135614	0.308669	0.000193
C140	C	0.094480	0.423429	0.068895
C141	C	0.149693	0.351884	0.068866
H142	H	0.105832	0.458380	0.124420
H143	H	0.105857	0.458495	0.013447
H144	H	0.030829	0.406345	0.068863
H145	H	0.213364	0.368899	0.068927
H146	H	0.138247	0.316835	0.124310
O147	O	0.550161	0.004376	0.000061
C148	C	0.432927	-0.066459	0.000120
C149	C	0.467417	0.012367	0.000132
H150	H	0.366025	-0.060026	0.000195
H151	H	0.453564	-0.098865	-0.055373
H152	H	0.453669	-0.098849	0.055593
H153	H	0.446691	0.044819	-0.055303
H154	H	0.446785	0.044715	0.055662
H155	H	0.703138	0.027658	0.000082
H156	H	0.424924	0.252259	0.000084
O157	O	0.416674	0.062546	-0.000050
C158	C	0.335530	-0.024259	-0.068698
C159	C	0.369996	0.054577	-0.068653
H160	H	0.297770	-0.030722	-0.124150
H161	H	0.385394	-0.069621	-0.068752
H162	H	0.297864	-0.030780	-0.013186
H163	H	0.407652	0.061171	-0.124156
H164	H	0.320095	0.099900	-0.068557
H165	H	0.826664	0.250128	0.634387
H166	H	1.019890	0.075922	0.214393
