data_functionalizedCrystal
_audit_creation_method	'MofGen! by Chris Wilmer'
_symmetry_space_group_name_H-M	'P1'
_symmetry_Int_Tables_number	1
_symmetry_cell_setting	triclinic
loop_
_symmetry_equiv_pos_as_xyz
  x,y,z
_cell_length_a	14.971486
_cell_length_b	16.109301
_cell_length_c	14.048226
_cell_angle_alpha	89.992144
_cell_angle_beta	89.998499
_cell_angle_gamma	83.537805
loop_
_atom_site_label
_atom_site_type_symbol
_atom_site_fract_x
_atom_site_fract_y
_atom_site_fract_z
O1	O	1.186791	0.108348	-0.079054
O2	O	0.926372	0.121323	-0.079081
O3	O	1.063735	-0.006187	-0.079057
O4	O	1.049427	0.235857	-0.079078
O5	O	1.063719	-0.006194	0.079264
O6	O	0.926355	0.121315	0.079241
O7	O	1.186774	0.108340	0.079267
Zn8	Zn	1.056562	0.114826	0.104391
Zn9	Zn	1.056584	0.114836	-0.104204
O10	O	1.049411	0.235850	0.079244
C11	C	0.893040	0.120739	0.000077
C12	C	0.793745	0.119000	0.000067
C13	C	0.736412	0.193908	0.000062
C14	C	0.643115	0.192269	0.000076
C15	C	0.607153	0.115721	0.000089
C16	C	0.664494	0.040807	0.000097
C17	C	0.757789	0.042447	0.000089
C18	C	0.470036	0.037395	0.000110
C19	C	0.376734	0.035755	0.000116
C20	C	0.355362	0.187217	0.000097
C21	C	0.448657	0.188857	0.000090
C22	C	0.505991	0.113942	0.000096
C23	C	1.063147	-0.037166	0.000104
C24	C	1.061410	-0.129464	0.000105
C25	C	1.138878	-0.351640	0.000098
C26	C	1.137239	-0.438362	0.000090
C27	C	0.974262	-0.418691	0.000077
C28	C	0.975902	-0.331970	0.000078
C29	C	1.058213	-0.298447	0.000094
C30	C	1.054933	-0.471890	0.000085
C31	C	1.053155	-0.565918	0.000076
C32	C	1.059992	-0.204413	0.000101
C33	C	1.220106	0.108924	0.000108
C34	C	1.319401	0.110663	0.000111
C35	C	1.049999	0.266829	0.000080
C36	C	1.051736	0.359127	0.000073
N37	N	1.056554	0.114819	0.246752
N38	N	1.056599	0.114837	-0.246565
C39	C	1.117397	0.058381	0.296580
C40	C	1.117403	0.058381	0.396238
C41	C	1.056570	0.114823	0.446065
C42	C	0.995719	0.171263	0.396230
C43	C	0.995710	0.171259	0.296574
C44	C	0.995745	0.171269	0.603944
C45	C	0.995756	0.171275	0.703607
C46	C	1.117439	0.058391	0.703608
C47	C	1.117429	0.058387	0.603952
C48	C	1.056580	0.114829	0.554123
H49	H	0.804470	-0.018551	0.000093
H50	H	0.907247	-0.445996	0.000067
H51	H	0.308675	0.248215	0.000097
C52	C	0.928782	0.233344	0.241759
C53	C	0.861897	0.295459	0.296564
C54	C	0.794963	0.357542	0.241751
C55	C	0.794916	0.357511	0.132134
C56	C	0.861804	0.295394	0.077323
C57	C	0.928737	0.233310	0.132136
H58	H	0.861930	0.295484	0.377715
H59	H	0.745448	0.403525	0.282327
H60	H	0.745368	0.403469	0.091558
H61	H	0.861771	0.295369	-0.003828
H62	H	0.978252	0.187327	0.091560
C63	C	1.184317	-0.003707	0.241775
C64	C	1.251240	-0.065791	0.296591
C65	C	1.318159	-0.127884	0.241790
C66	C	1.318157	-0.127893	0.132172
C67	C	1.251232	-0.065807	0.077350
C68	C	1.184312	-0.003714	0.132151
H69	H	1.251244	-0.065787	0.377742
H70	H	1.367702	-0.173844	0.282373
H71	H	1.367695	-0.173858	0.091605
H72	H	1.251227	-0.065812	-0.003801
H73	H	1.134770	0.042246	0.091568
C74	C	0.488213	0.273061	0.000077
C75	C	0.466573	0.335307	0.082286
C76	C	0.506128	0.419513	0.082277
C77	C	0.567322	0.441473	0.000059
C78	C	0.588965	0.379226	-0.082157
C79	C	0.549411	0.295020	-0.082148
H80	H	0.421271	0.319052	0.143154
H81	H	0.490106	0.465592	0.143139
H82	H	0.596603	0.503808	0.000052
H83	H	0.634268	0.395482	-0.143025
H84	H	0.565433	0.248941	-0.143009
C85	C	1.184370	-0.003698	0.758417
C86	C	1.286218	-0.002141	0.744708
C87	C	1.353150	-0.064224	0.799523
C88	C	1.318233	-0.127865	0.868049
C89	C	1.216379	-0.129425	0.881762
C90	C	1.149448	-0.067342	0.826946
H91	H	1.312070	0.044972	0.693978
H92	H	1.428548	-0.063069	0.789372
H93	H	1.367779	-0.173822	0.908627
H94	H	1.190527	-0.176538	0.932492
H95	H	1.074050	-0.068497	0.837098
C96	C	1.229418	-0.314763	0.000104
C97	C	1.231230	-0.219374	0.000107
C98	C	1.321772	-0.182501	0.000109
C99	C	1.410501	-0.241016	0.000107
C100	C	1.408693	-0.336410	0.000104
C101	C	1.318151	-0.373284	0.000102
H102	H	1.165544	-0.176053	0.000108
H103	H	1.323110	-0.111884	0.000111
H104	H	1.477526	-0.213720	0.000108
H105	H	1.474379	-0.379732	0.000102
H106	H	1.316812	-0.443901	0.000099
H107	H	0.347458	-0.026577	0.000128
H108	H	0.516716	-0.023609	0.000117
H109	H	0.765684	0.256242	0.000051
H110	H	0.910211	-0.288658	0.000072
C111	C	1.184346	-0.003697	0.549137
C112	C	1.182882	-0.098378	0.562850
C113	C	1.249797	-0.160463	0.508033
C114	C	1.318175	-0.127869	0.439503
C115	C	1.319642	-0.033183	0.425787
C116	C	1.252727	0.028903	0.480603
H117	H	1.132261	-0.122511	0.613583
H118	H	1.248711	-0.230556	0.518187
H119	H	1.367710	-0.173828	0.398924
H120	H	1.370263	-0.009050	0.375054
H121	H	1.253813	0.098995	0.470449
H122	H	0.635206	-0.021520	0.000121
H123	H	1.166946	0.012424	0.436808
C124	C	1.225973	-0.496873	0.000100
C125	C	1.247249	-0.559210	0.082310
C126	C	1.335987	-0.617721	0.082318
C127	C	1.403449	-0.613895	0.000117
C128	C	1.382175	-0.551556	-0.082100
C129	C	1.293437	-0.493045	-0.082108
H130	H	1.197307	-0.562044	0.143166
H131	H	1.351735	-0.663868	0.143181
H132	H	1.469139	-0.657209	0.000123
H133	H	1.432116	-0.548722	-0.142956
H134	H	1.277688	-0.446898	-0.142971
H135	H	0.946218	0.217235	0.744171
H136	H	0.596437	0.253267	0.000071
H137	H	0.946192	0.217228	0.563377
H138	H	0.946183	0.217217	0.436805
