data_functionalizedCrystal
_audit_creation_method	'MofGen! by Chris Wilmer'
_symmetry_space_group_name_H-M	'P1'
_symmetry_Int_Tables_number	1
_symmetry_cell_setting	triclinic
loop_
_symmetry_equiv_pos_as_xyz
  x,y,z
_cell_length_a	16.120530
_cell_length_b	21.295417
_cell_length_c	16.120297
_cell_angle_alpha	92.867002
_cell_angle_beta	90.128140
_cell_angle_gamma	87.125778
loop_
_atom_site_label
_atom_site_type_symbol
_atom_site_fract_x
_atom_site_fract_y
_atom_site_fract_z
Zn1	Zn	1.247391	-0.318915	-0.534523
Zn2	Zn	1.254326	-0.419125	-0.395453
Zn3	Zn	1.115383	-0.308278	-0.388443
Zn4	Zn	1.108282	-0.418545	-0.527422
O5	O	1.181345	-0.366216	-0.461460
O6	O	1.364676	-0.336903	-0.521981
O7	O	1.241769	-0.400212	-0.278158
O8	O	1.132963	-0.221604	-0.407859
O9	O	1.369771	-0.410526	-0.419806
O10	O	1.229949	-0.229419	-0.515184
O11	O	1.139688	-0.318773	-0.273008
O12	O	0.998075	-0.318211	-0.400973
O13	O	1.120862	-0.409538	-0.644729
O14	O	0.992859	-0.399224	-0.503081
O15	O	1.223064	-0.336340	-0.649946
O16	O	1.234884	-0.507133	-0.412921
O17	O	1.127586	-0.506707	-0.509878
C18	C	0.965295	-0.357501	-0.450496
C19	C	0.872866	-0.353788	-0.445825
C20	C	0.703638	-0.346996	-0.437305
C21	C	0.659891	-0.385485	-0.485677
C22	C	0.565726	-0.381705	-0.480936
C23	C	0.797811	-0.350774	-0.442045
C24	C	1.181239	-0.529761	-0.461409
C25	C	1.181268	-0.599731	-0.461418
C26	C	1.237182	-0.632802	-0.410990
C27	C	1.237220	-0.698547	-0.411010
C28	C	1.181329	-0.731217	-0.461450
C29	C	1.125411	-0.698138	-0.511889
C30	C	1.125380	-0.632395	-0.511873
N31	N	1.108264	-0.831783	-0.464098
N32	N	1.108296	-0.894236	-0.464108
C33	C	1.181420	-0.929297	-0.461503
N34	N	1.254514	-0.899546	-0.458870
N35	N	1.254481	-0.837087	-0.458855
C36	C	1.181357	-0.802504	-0.461473
C37	C	1.237380	-1.033657	-0.411094
C38	C	1.237419	-1.099403	-0.411120
C39	C	1.125603	-1.098992	-0.511994
C40	C	1.125571	-1.033248	-0.511973
C41	C	1.181459	-1.000584	-0.461518
C42	C	1.398240	-0.374966	-0.472468
C43	C	1.490667	-0.378694	-0.477159
C44	C	1.170397	-0.374061	-0.678353
C45	C	1.165731	-0.377404	-0.770780
C46	C	1.181474	-0.202033	-0.461531
C47	C	1.181529	-0.132068	-0.461562
C48	C	1.157183	-0.383493	-0.940004
C49	C	1.205672	-0.348757	-0.983777
C50	C	1.200915	-0.352144	-1.077938
C51	C	1.161938	-0.380106	-0.845834
C52	C	1.192299	-0.358358	-0.245413
C53	C	1.197126	-0.354844	-0.152995
H54	H	0.670373	-0.311209	-0.392335
Cl55	Cl	1.307452	-0.591744	-0.347573
Cl56	Cl	0.711248	-0.440739	-0.555118
H57	H	1.282755	-0.725479	-0.369945
Cl58	Cl	1.307637	-0.992590	-0.347666
Cl59	Cl	1.275299	-0.298929	-0.932456
Cl60	Cl	1.307724	-1.140980	-0.347724
H61	H	1.079906	-0.724742	-0.552959
Cl62	Cl	1.055081	-0.590817	-0.575274
H63	H	1.080099	-1.125592	-0.553068
H64	H	1.080037	-1.006319	-0.553033
H65	H	1.112102	-0.415774	-0.973246
