data_functionalizedCrystal
_audit_creation_method	'MofGen! by Chris Wilmer'
_symmetry_space_group_name_H-M	'P1'
_symmetry_Int_Tables_number	1
_symmetry_cell_setting	triclinic
loop_
_symmetry_equiv_pos_as_xyz
  x,y,z
_cell_length_a	26.374263
_cell_length_b	26.373608
_cell_length_c	26.370205
_cell_angle_alpha	60.005297
_cell_angle_beta	60.010839
_cell_angle_gamma	59.993700
loop_
_atom_site_label
_atom_site_type_symbol
_atom_site_fract_x
_atom_site_fract_y
_atom_site_fract_z
O1	O	0.070152	-0.740800	0.619517
O2	O	0.570152	-0.240800	1.119517
O3	O	0.026377	-0.576764	0.499159
O4	O	0.526377	-0.076764	0.999159
O5	O	0.130245	-0.680560	0.499088
O6	O	0.630245	-0.180560	0.999088
O7	O	-0.033715	-0.637003	0.619589
O8	O	0.466285	-0.137003	1.119589
O9	O	0.164701	-0.646107	0.533470
O10	O	0.664701	-0.146107	1.033470
O11	O	0.060833	-0.542310	0.533541
O12	O	0.560833	-0.042310	1.033541
O13	O	0.104608	-0.706346	0.653899
O14	O	0.604608	-0.206346	1.153899
Cu15	Cu	0.085867	-0.621182	0.596859
Cu16	Cu	0.585867	-0.121182	1.096859
Cu17	Cu	0.045119	-0.661927	0.556199
Cu18	Cu	0.545119	-0.161927	1.056199
O19	O	0.000741	-0.602549	0.653971
O20	O	0.500741	-0.102549	1.153971
N21	N	0.114528	-0.592529	0.625461
N22	N	0.614528	-0.092529	1.125461
N23	N	0.016463	-0.690587	0.527598
N24	N	0.516463	-0.190587	1.027598
C25	C	0.181428	-0.355400	0.692330
C26	C	0.681428	0.144600	1.192330
C27	C	0.181530	-0.525690	0.862573
C28	C	0.681530	-0.025690	1.362573
C29	C	0.181440	-0.525667	0.692313
C30	C	0.681440	-0.025667	1.192313
C31	C	0.351736	-0.525673	0.692271
C32	C	0.851736	-0.025673	1.192271
C33	C	0.200174	-0.411588	0.711047
C34	C	0.700174	0.088412	1.211047
C35	C	0.200232	-0.506954	0.806384
C36	C	0.700232	-0.006954	1.306384
C37	C	0.295546	-0.506943	0.711016
C38	C	0.795546	-0.006943	1.211016
C39	C	0.200182	-0.506940	0.711037
C40	C	0.700182	-0.006940	1.211037
C41	C	0.157567	-0.283881	0.668507
C42	C	0.657567	0.216119	1.168507
C43	C	0.157587	-0.549500	0.668479
C44	C	0.657587	-0.049500	1.168479
C45	C	0.224035	-0.483107	0.734871
C46	C	0.724035	0.016893	1.234871
C47	C	0.455739	-0.507754	0.637520
C48	C	0.955739	-0.007754	1.137520
C49	C	0.520749	-0.529425	0.615835
C50	C	1.020749	-0.029425	1.115835
C51	C	0.520768	-0.634611	0.655947
C52	C	1.020768	-0.134611	1.155947
C53	C	0.455759	-0.612939	0.677633
C54	C	0.955759	-0.112939	1.177633
C55	C	0.173240	-0.251367	0.604595
C56	C	0.673240	0.248633	1.104595
C57	C	0.151546	-0.186351	0.582941
C58	C	0.651546	0.313649	1.082941
C59	C	0.098512	-0.186369	0.689113
C60	C	0.598512	0.313631	1.189113
C61	C	0.120206	-0.251385	0.710768
C62	C	0.620206	0.248615	1.210768
C63	C	0.093669	-0.533798	0.684205
C64	C	0.593669	-0.033798	1.184205
C65	C	0.071992	-0.555464	0.662532
C66	C	0.571992	-0.055464	1.162532
C67	C	0.178144	-0.608536	0.609422
C68	C	0.678144	-0.108536	1.109422
C69	C	0.199825	-0.586869	0.631088
C70	C	0.699825	-0.086869	1.131088
C71	C	0.093821	-0.533842	0.966616
C72	C	0.593821	-0.033842	1.466616
C73	C	0.072187	-0.555526	1.031630
C74	C	0.572187	-0.055526	1.531630
C75	C	0.178370	-0.608608	1.031591
C76	C	0.678370	-0.108608	1.531591
C77	C	0.200004	-0.586926	0.966576
C78	C	0.700004	-0.086926	1.466576
C79	C	0.157728	-0.549541	0.934090
C80	C	0.657728	-0.049541	1.434090
C81	C	0.423247	-0.549509	0.668416
C82	C	0.923247	-0.049509	1.168416
C83	C	-0.097522	-0.709158	0.508557
C84	C	0.402478	-0.209158	1.008557
C85	C	-0.002050	-0.709295	0.413344
C86	C	0.497950	-0.209295	0.913344
C87	C	-0.002241	-0.804604	0.508735
C88	C	0.497759	-0.304604	1.008735
C89	C	-0.002225	-0.709288	0.508793
C90	C	0.497775	-0.209288	1.008793
C91	C	-0.026009	-0.733087	0.484858
C92	C	0.473991	-0.233087	0.984858
N93	N	0.552340	-0.592538	0.625346
N94	N	1.052340	-0.092538	1.125346
O95	O	0.750867	-0.598274	0.477076
O96	O	1.250867	-0.098274	0.977076
O97	O	0.751048	-0.718989	0.640960
O98	O	1.251048	-0.218989	1.140960
O99	O	0.750981	-0.718715	0.537020
O100	O	1.250981	-0.218715	1.037020
O101	O	0.750934	-0.598547	0.581017
O102	O	1.250934	-0.098547	1.081017
O103	O	0.647701	-0.684348	0.571512
O104	O	1.147701	-0.184348	1.071512
O105	O	0.647768	-0.684622	0.675452
O106	O	1.147768	-0.184622	1.175452
O107	O	0.647587	-0.563907	0.511569
O108	O	1.147587	-0.063907	1.011569
Cu109	Cu	0.638247	-0.621127	0.596660
Cu110	Cu	1.138247	-0.121127	1.096660
Cu111	Cu	0.760388	-0.661769	0.555869
Cu112	Cu	1.260388	-0.161769	1.055869
O113	O	0.647654	-0.564181	0.615509
O114	O	1.147654	-0.064181	1.115509
N115	N	0.846295	-0.690358	0.527176
N116	N	1.346295	-0.190358	1.027176
N117	N	0.114503	-0.154778	0.625499
N118	N	0.614503	0.345222	1.125499
O119	O	-0.033701	0.043855	0.619632
O120	O	0.466299	0.543855	1.119632
O121	O	0.130190	0.043858	0.498933
O122	O	0.630190	0.543858	0.998933
O123	O	0.026233	0.043841	0.499224
O124	O	0.526233	0.543841	0.999224
O125	O	0.070257	0.043872	0.619341
O126	O	0.570257	0.543872	1.119341
O127	O	0.060690	-0.059448	0.533654
O128	O	0.560690	0.440552	1.033654
O129	O	0.164647	-0.059431	0.533363
O130	O	0.664647	0.440569	1.033363
O131	O	0.000756	-0.059434	0.654062
O132	O	0.500756	0.440566	1.154062
Cu133	Cu	0.085848	-0.068863	0.596857
Cu134	Cu	0.585848	0.431137	1.096857
Cu135	Cu	0.045099	0.053287	0.556138
Cu136	Cu	0.545099	0.553287	1.056138
O137	O	0.104714	-0.059417	0.653771
O138	O	0.604714	0.440583	1.153771
N139	N	0.016435	0.139202	0.527497
N140	N	0.516435	0.639202	1.027497
N141	N	0.114760	-0.592585	1.063190
N142	N	0.614760	-0.092585	1.563190
O143	O	0.108896	-0.740779	1.261808
O144	O	0.608896	-0.240779	1.761808
O145	O	-0.011787	-0.576838	1.261822
O146	O	0.488213	-0.076838	1.761822
O147	O	-0.011509	-0.680779	1.261780
O148	O	0.488491	-0.180779	1.761780
O149	O	0.108618	-0.636838	1.261850
O150	O	0.608618	-0.136838	1.761850
O151	O	0.022916	-0.646341	1.158496
O152	O	0.522916	-0.146341	1.658496
O153	O	0.022638	-0.542399	1.158538
O154	O	0.522638	-0.042399	1.658538
O155	O	0.143321	-0.706341	1.158524
O156	O	0.643321	-0.206341	1.658524
Cu157	Cu	0.086123	-0.621225	1.149100
Cu158	Cu	0.586123	-0.121225	1.649100
Cu159	Cu	0.045411	-0.661953	1.271246
Cu160	Cu	0.545411	-0.161953	1.771246
O161	O	0.143044	-0.602399	1.158566
O162	O	0.643044	-0.102399	1.658566
N163	N	0.016774	-0.690600	1.357156
N164	N	0.516774	-0.190600	1.857156
C165	C	0.039504	-0.538867	0.499769
C166	C	0.539504	-0.038867	0.999769
C167	C	0.168130	-0.667407	0.499680
C168	C	0.668130	-0.167407	0.999680
C169	C	0.091482	-0.744243	0.653289
C170	C	0.591482	-0.244243	1.153289
C171	C	-0.037145	-0.615703	0.653378
C172	C	0.462855	-0.115703	1.153378
C173	C	0.699429	-0.718429	0.678853
C174	C	1.199429	-0.218429	1.178853
C175	C	0.699348	-0.718091	0.550135
C176	C	1.199348	-0.218091	1.050135
C177	C	0.699202	-0.564465	0.473677
C178	C	1.199202	-0.064465	0.973677
C179	C	0.699287	-0.564805	0.602393
C180	C	1.199287	-0.064805	1.102393
C181	C	0.168023	-0.007659	0.499484
C182	C	0.668023	0.492341	0.999484
C183	C	0.039327	-0.007807	0.499887
C184	C	0.539327	0.492193	0.999887
C185	C	-0.037119	-0.007789	0.653468
C186	C	0.462881	0.492211	1.153468
C187	C	0.091620	-0.007770	0.653109
C188	C	0.591620	0.492230	1.153109
C189	C	-0.011194	-0.538964	1.210181
C190	C	0.488806	-0.038964	1.710181
C191	C	-0.010843	-0.667676	1.210109
C192	C	0.489157	-0.167676	1.710109
C193	C	0.142729	-0.744214	1.210165
C194	C	0.642729	-0.244214	1.710165
C195	C	0.142386	-0.615494	1.210214
C196	C	0.642386	-0.115494	1.710214
H197	H	0.059391	-0.503396	0.940172
H198	H	0.559391	-0.003396	1.440172
H199	H	0.180125	-0.606093	1.210228
H200	H	0.680125	-0.106093	1.710228
H201	H	-0.084239	-0.606419	0.691217
H202	H	0.415761	-0.106419	1.191217
H203	H	0.699142	-0.526565	0.426612
H204	H	1.199142	-0.026565	0.926612
H205	H	0.101045	-0.007760	0.690842
H206	H	0.601045	0.492240	1.190842
H207	H	0.100832	-0.791364	0.691090
H208	H	0.600832	-0.291364	1.191090
H209	H	0.029900	-0.007810	0.462151
H210	H	0.529900	0.492190	0.962151
H211	H	-0.049082	-0.491880	1.210184
H212	H	0.450918	0.008120	1.710184
C213	C	0.699495	-0.769630	0.742437
C214	C	1.199495	-0.269630	1.242437
C215	C	0.699517	-0.757218	0.793617
C216	C	1.199517	-0.257218	1.293617
C217	C	0.699583	-0.808418	0.857201
C218	C	1.199583	-0.308418	1.357201
C219	C	0.699627	-0.872031	0.869604
C220	C	1.199627	-0.372031	1.369604
C221	C	0.699605	-0.884445	0.818422
C222	C	1.199605	-0.384445	1.318422
C223	C	0.699539	-0.833245	0.754838
C224	C	1.199539	-0.333245	1.254838
H225	H	0.699484	-0.710126	0.784437
H226	H	1.199484	-0.210126	1.284437
H227	H	0.699599	-0.799228	0.895090
H228	H	1.199599	-0.299228	1.395090
H229	H	0.699676	-0.909932	0.916673
H230	H	1.199676	-0.409932	1.416673
H231	H	0.699638	-0.931537	0.827602
H232	H	1.199638	-0.431537	1.327602
H233	H	0.699523	-0.842435	0.716950
H234	H	1.199523	-0.342435	1.216950
H235	H	-0.084187	-0.007791	0.691362
H236	H	0.415813	0.492209	1.191362
H237	H	0.699278	-0.527058	0.611808
H238	H	1.199278	-0.027058	1.111808
C239	C	0.001886	-0.538244	1.067403
C240	C	0.501886	-0.038244	1.567403
C241	C	-0.027596	-0.589633	1.112095
C242	C	0.472404	-0.089633	1.612095
C243	C	-0.097897	-0.572354	1.147868
C244	C	0.402103	-0.072354	1.647868
C245	C	-0.138717	-0.503684	1.138948
C246	C	0.361283	-0.003684	1.638948
C247	C	-0.109235	-0.452290	1.094254
C248	C	0.390765	0.047710	1.594254
C249	C	-0.038934	-0.469570	1.058481
C250	C	0.461066	0.030430	1.558481
H251	H	0.002621	-0.640470	1.118699
H252	H	0.502621	-0.140470	1.618699
H253	H	-0.119721	-0.610399	1.180953
H254	H	0.380279	-0.110399	1.680953
H255	H	-0.190758	-0.490893	1.165429
H256	H	0.309242	0.009107	1.665429
H257	H	-0.139453	-0.401453	1.087650
H258	H	0.360547	0.098547	1.587650
H259	H	-0.017110	-0.431524	1.025396
H260	H	0.482890	0.068476	1.525396
H261	H	-0.048566	-0.677061	1.210046
H262	H	0.451434	-0.177061	1.710046
H263	H	0.180620	-0.791296	1.210154
H264	H	0.680620	-0.291296	1.710154
H265	H	0.212798	-0.639038	1.058038
H266	H	0.712798	-0.139038	1.558038
H267	H	0.699366	-0.755841	0.540718
H268	H	1.199366	-0.255841	1.040718
H269	H	0.214995	-0.007372	0.461496
H270	H	0.714995	0.492628	0.961496
H271	H	0.252044	-0.599714	0.940097
H272	H	0.752044	-0.099714	1.440097
H273	H	0.019945	-0.542665	0.675322
H274	H	0.519945	-0.042665	1.175322
C275	C	0.047208	-0.492685	0.725326
C276	C	0.547208	0.007315	1.225326
C277	C	-0.023099	-0.475405	0.742611
C278	C	0.476901	0.024595	1.242611
C279	C	-0.069561	-0.434290	0.783733
C280	C	0.430439	0.065710	1.283733
C281	C	-0.045717	-0.410455	0.807570
C282	C	0.454283	0.089545	1.307570
C283	C	0.024593	-0.427735	0.790285
C284	C	0.524593	0.072265	1.290285
C285	C	0.071056	-0.468850	0.749164
C286	C	0.571056	0.031150	1.249164
H287	H	-0.040753	-0.493049	0.724966
H288	H	0.459247	0.006951	1.224966
H289	H	-0.121610	-0.421499	0.796528
H290	H	0.378390	0.078501	1.296528
H291	H	-0.080111	-0.380020	0.838011
H292	H	0.419889	0.119980	1.338011
H293	H	0.042247	-0.410091	0.807931
H294	H	0.542247	0.089909	1.307931
H295	H	0.123104	-0.481641	0.736368
H296	H	0.623104	0.018359	1.236368
C297	C	0.214334	-0.287111	0.558107
C298	C	0.714334	0.212889	1.058107
C299	C	0.231565	-0.251345	0.487803
C300	C	0.731565	0.248655	0.987803
C301	C	0.272660	-0.287092	0.441317
C302	C	0.772660	0.212908	0.941317
C303	C	0.296524	-0.358606	0.465135
C304	C	0.796524	0.141394	0.965135
C305	C	0.279293	-0.394377	0.535442
C306	C	0.779293	0.105623	1.035442
C307	C	0.238199	-0.358629	0.581929
C308	C	0.738199	0.141371	1.081929
H309	H	0.213899	-0.198402	0.470169
H310	H	0.713899	0.301598	0.970169
H311	H	0.285415	-0.260612	0.389271
H312	H	0.785415	0.239388	0.889271
H313	H	0.326945	-0.385069	0.430723
H314	H	0.826945	0.114931	0.930723
H315	H	0.296959	-0.447320	0.553077
H316	H	0.796959	0.052680	1.053077
H317	H	0.225443	-0.385110	0.633975
H318	H	0.725443	0.114890	1.133975
H319	H	0.212545	-0.638970	0.578981
H320	H	0.712545	-0.138970	1.078981
H321	H	0.251872	-0.599651	0.618278
H322	H	0.751872	-0.099651	1.118278
H323	H	0.547237	-0.686258	0.663446
H324	H	1.047237	-0.186258	1.163446
C325	C	0.420024	-0.658876	0.711612
C326	C	0.920024	-0.158876	1.211612
C327	C	0.428999	-0.712117	0.771983
C328	C	0.928999	-0.212117	1.271983
C329	C	0.393266	-0.758059	0.805959
C330	C	0.893266	-0.258059	1.305959
C331	C	0.348559	-0.750760	0.779563
C332	C	0.848559	-0.250760	1.279563
C333	C	0.339582	-0.697516	0.719188
C334	C	0.839582	-0.197516	1.219188
C335	C	0.375315	-0.651575	0.685212
C336	C	0.875315	-0.151575	1.185212
H337	H	0.462096	-0.717523	0.791526
H338	H	0.962096	-0.217523	1.291526
H339	H	0.399911	-0.797473	0.850652
H340	H	0.899911	-0.297473	1.350652
H341	H	0.322107	-0.784768	0.804713
H342	H	0.822107	-0.284768	1.304713
H343	H	0.306485	-0.692111	0.699645
H344	H	0.806485	-0.192111	1.199645
H345	H	0.368669	-0.612160	0.640519
H346	H	0.868669	-0.112160	1.140519
C347	C	0.556496	-0.483493	0.581844
C348	C	1.056496	0.016507	1.081844
C349	C	0.547578	-0.443984	0.615084
C350	C	1.047578	0.056016	1.115084
C351	C	0.583326	-0.398052	0.581088
C352	C	1.083326	0.101948	1.081088
C353	C	0.627991	-0.391629	0.513851
C354	C	1.127991	0.108371	1.013851
C355	C	0.636911	-0.431139	0.480607
C356	C	1.136911	0.068861	0.980607
C357	C	0.601163	-0.477071	0.514604
C358	C	1.101163	0.022929	1.014604
H359	H	0.514513	-0.448737	0.664860
H360	H	1.014513	0.051263	1.164860
H361	H	0.576723	-0.368805	0.605697
H362	H	1.076723	0.131195	1.105697
H363	H	0.654454	-0.357628	0.488685
H364	H	1.154454	0.142372	0.988685
H365	H	0.669976	-0.426386	0.430831
H366	H	1.169976	0.073614	0.930831
H367	H	0.607766	-0.506319	0.489994
H368	H	1.107766	-0.006319	0.989994
C369	C	0.419972	-0.437979	0.627385
C370	C	0.919972	0.062021	1.127385
C371	C	0.428884	-0.390707	0.561045
C372	C	0.928884	0.109293	1.061045
C373	C	0.393120	-0.320933	0.550908
C374	C	0.893120	0.179067	1.050908
C375	C	0.348444	-0.298432	0.607111
C376	C	0.848444	0.201568	1.107111
C377	C	0.339531	-0.345705	0.673456
C378	C	0.839531	0.154295	1.173456
C379	C	0.375295	-0.415479	0.683593
C380	C	0.875295	0.084521	1.183593
H381	H	0.461957	-0.407363	0.519435
H382	H	0.961957	0.092637	1.019435
H383	H	0.399718	-0.285938	0.501794
H384	H	0.899718	0.214062	1.001794
H385	H	0.321970	-0.246781	0.599607
H386	H	0.821970	0.253219	1.099607
H387	H	0.306458	-0.329050	0.715065
H388	H	0.806458	0.170950	1.215065
H389	H	0.368696	-0.450474	0.732707
H390	H	0.868696	0.049526	1.232707
C391	C	0.168783	-0.150577	0.512634
C392	C	0.668783	0.349423	1.012634
C393	C	0.204953	-0.105873	0.483137
C394	C	0.704953	0.394127	0.983137
C395	C	0.222189	-0.070102	0.412830
C396	C	0.722189	0.429898	0.912830
C397	C	0.203254	-0.079034	0.372021
C398	C	0.703254	0.420966	0.872021
C399	C	0.167081	-0.123741	0.401518
C400	C	0.667081	0.376259	0.901518
C401	C	0.149846	-0.159512	0.471825
C402	C	0.649846	0.340488	0.971825
H403	H	0.218972	-0.099259	0.513347
H404	H	0.718972	0.400741	1.013347
H405	H	0.248966	-0.037007	0.390995
H406	H	0.748966	0.462993	0.890995
H407	H	0.216012	-0.052554	0.319976
H408	H	0.716012	0.447446	0.819976
H409	H	0.153063	-0.130355	0.371309
H410	H	0.653063	0.369645	0.871309
H411	H	0.123068	-0.192607	0.493660
H412	H	0.623068	0.307393	0.993660
C413	C	0.057418	-0.150620	0.735599
C414	C	0.557418	0.349380	1.235599
C415	C	0.040187	-0.186387	0.805903
C416	C	0.540187	0.313613	1.305903
C417	C	-0.000908	-0.150639	0.852390
C418	C	0.499092	0.349361	1.352390
C419	C	-0.024773	-0.079125	0.828572
C420	C	0.475227	0.420875	1.328572
C421	C	-0.007542	-0.043354	0.758265
C422	C	0.492458	0.456646	1.258265
C423	C	0.033554	-0.079101	0.711778
C424	C	0.533554	0.420899	1.211778
H425	H	0.057854	-0.239329	0.823537
H426	H	0.557854	0.260671	1.323537
H427	H	-0.013663	-0.177120	0.904436
H428	H	0.486337	0.322880	1.404436
H429	H	-0.055194	-0.052663	0.862984
H430	H	0.444806	0.447337	1.362984
H431	H	-0.025208	0.009589	0.740630
H432	H	0.474792	0.509589	1.240630
H433	H	0.046309	-0.052621	0.659732
H434	H	0.546309	0.447379	1.159732
C435	C	0.102966	-0.287148	0.781073
C436	C	0.602966	0.212852	1.281073
C437	C	0.154378	-0.331846	0.810554
C438	C	0.654378	0.168154	1.310554
C439	C	0.137136	-0.367610	0.880862
C440	C	0.637136	0.132390	1.380862
C441	C	0.068481	-0.358677	0.921689
C442	C	0.568481	0.141323	1.421689
C443	C	0.017065	-0.313977	0.892208
C444	C	0.517065	0.186023	1.392208
C445	C	0.034307	-0.278213	0.821900
C446	C	0.534307	0.221787	1.321900
H447	H	0.205204	-0.338460	0.780331
H448	H	0.705204	0.161540	1.280331
H449	H	0.175198	-0.400699	0.902685
H450	H	0.675198	0.099301	1.402685
H451	H	0.055718	-0.385151	0.973735
H452	H	0.555718	0.114849	1.473735
H453	H	-0.033761	-0.307363	0.922431
H454	H	0.466239	0.192637	1.422431
H455	H	-0.003755	-0.245124	0.800077
H456	H	0.496245	0.254876	1.300077
C457	C	0.026879	-0.475213	0.448698
C458	C	0.526879	0.024787	0.948698
C459	C	-0.036780	-0.424143	0.461298
C460	C	0.463220	0.075857	0.961298
C461	C	-0.049405	-0.360489	0.410227
C462	C	0.450595	0.139511	0.910227
C463	C	0.001629	-0.347904	0.346556
C464	C	0.501629	0.152096	0.846556
C465	C	0.065292	-0.398975	0.333953
C466	C	0.565292	0.101025	0.833953
C467	C	0.077917	-0.462629	0.385024
C468	C	0.577917	0.037371	0.885024
H469	H	-0.074563	-0.433458	0.508434
H470	H	0.425437	0.066542	1.008434
H471	H	-0.096533	-0.322682	0.419557
H472	H	0.403467	0.177318	0.919557
H473	H	-0.007717	-0.300783	0.308750
H474	H	0.492283	0.199217	0.808750
H475	H	0.103074	-0.389660	0.286817
H476	H	0.603074	0.110340	0.786817
H477	H	0.125045	-0.500435	0.375694
H478	H	0.625045	-0.000435	0.875694
H479	H	0.215222	-0.676694	0.461838
H480	H	0.715222	-0.176694	0.961838
