data_functionalizedCrystal
_audit_creation_method	'MofGen! by Chris Wilmer'
_symmetry_space_group_name_H-M	'P1'
_symmetry_Int_Tables_number	1
_symmetry_cell_setting	triclinic
loop_
_symmetry_equiv_pos_as_xyz
  x,y,z
_cell_length_a	16.959454
_cell_length_b	19.805407
_cell_length_c	19.805399
_cell_angle_alpha	90.019197
_cell_angle_beta	89.977613
_cell_angle_gamma	89.983775
loop_
_atom_site_label
_atom_site_type_symbol
_atom_site_fract_x
_atom_site_fract_y
_atom_site_fract_z
Zn1	Zn	-0.314781	-1.034765	-0.382737
Zn2	Zn	0.185219	-0.534765	0.117263
Zn3	Zn	-0.446963	-1.034693	-0.269559
Zn4	Zn	0.053037	-0.534693	0.230441
Zn5	Zn	-0.314794	-0.921580	-0.269563
Zn6	Zn	0.185206	-0.421580	0.230437
Zn7	Zn	-0.446913	-0.921556	-0.382707
Zn8	Zn	0.053087	-0.421556	0.117293
O9	O	-0.380863	-0.978149	-0.326141
O10	O	0.119137	-0.478149	0.173859
O11	O	-0.332331	-1.129472	-0.367735
O12	O	0.167669	-0.629472	0.132265
O13	O	-0.429458	-1.019668	-0.174843
O14	O	0.070542	-0.519668	0.325157
O15	O	-0.204181	-0.936635	-0.284590
O16	O	0.295819	-0.436635	0.215410
O17	O	-0.429445	-1.129419	-0.284584
O18	O	0.070555	-0.629419	0.215416
O19	O	-0.204172	-1.019792	-0.367739
O20	O	0.295828	-0.519792	0.132261
O21	O	-0.332353	-0.936564	-0.174846
O22	O	0.167647	-0.436564	0.325154
O23	O	-0.332304	-0.826860	-0.284560
O24	O	0.167696	-0.326860	0.215440
O25	O	-0.429358	-0.936594	-0.477427
O26	O	0.070642	-0.436594	0.022573
O27	O	-0.429371	-0.826843	-0.367687
O28	O	0.070629	-0.326843	0.132313
O29	O	-0.332282	-1.019768	-0.477450
O30	O	0.167718	-0.519768	0.022550
O31	O	-0.557568	-1.019645	-0.284554
O32	O	-0.057568	-0.519645	0.215446
O33	O	-0.557530	-0.936524	-0.367683
O34	O	-0.057530	-0.436524	0.132317
C35	C	-0.380834	-0.802293	-0.326121
C36	C	0.119166	-0.302293	0.173879
C37	C	-0.380840	-0.727061	-0.326128
C38	C	0.119160	-0.227061	0.173872
C39	C	-0.330362	-0.691745	-0.369490
C40	C	0.169638	-0.191745	0.130510
C41	C	-0.330364	-0.621056	-0.369491
C42	C	0.169636	-0.121056	0.130509
C43	C	-0.380850	-0.585685	-0.326133
C44	C	0.119150	-0.085685	0.173867
C45	C	-0.431331	-0.621006	-0.282766
C46	C	0.068669	-0.121006	0.217234
C47	C	-0.431324	-0.691693	-0.282762
C48	C	0.068676	-0.191693	0.217238
C49	C	-0.431360	-0.335932	-0.282780
C50	C	0.068640	0.164068	0.217220
C51	C	-0.431364	-0.265240	-0.282788
C52	C	0.068636	0.234760	0.217212
C53	C	-0.330400	-0.265296	-0.369508
C54	C	0.169600	0.234704	0.130492
C55	C	-0.330393	-0.335983	-0.369505
C56	C	0.169607	0.164017	0.130495
C57	C	-0.380871	-0.371298	-0.326136
C58	C	0.119129	0.128702	0.173864
C59	C	-0.380866	-0.447946	-0.326134
C60	C	0.119134	0.052054	0.173866
C61	C	-0.380859	-0.509038	-0.326137
C62	C	0.119141	-0.009038	0.173863
C63	C	-0.586229	-0.978092	-0.326130
C64	C	-0.086229	-0.478092	0.173870
C65	C	-0.674086	-0.978130	-0.326148
C66	C	-0.174086	-0.478130	0.173852
C67	C	-1.045572	-0.934930	-0.369422
C68	C	-0.545572	-0.434930	0.130578
C69	C	-1.045551	-1.021555	-0.282930
C70	C	-0.545551	-0.521555	0.217070
C71	C	-0.963005	-1.021532	-0.282924
C72	C	-0.463005	-0.521532	0.217076
C73	C	-0.921739	-0.978206	-0.326167
C74	C	-0.421739	-0.478206	0.173833
C75	C	-0.963018	-0.934904	-0.369416
C76	C	-0.463018	-0.434904	0.130584
C77	C	-0.921719	-1.064828	-0.239670
C78	C	-0.421719	-0.564828	0.260330
C79	C	-0.839168	-1.064806	-0.239662
C80	C	-0.339168	-0.564806	0.260338
C81	C	-0.797900	-1.021483	-0.282909
C82	C	-0.297900	-0.521483	0.217091
C83	C	-0.839185	-0.978180	-0.326160
C84	C	-0.339185	-0.478180	0.173840
C85	C	-0.797919	-0.934854	-0.369403
C86	C	-0.297919	-0.434854	0.130597
C87	C	-0.839202	-0.891553	-0.412659
C88	C	-0.339202	-0.391553	0.087341
C89	C	-0.921750	-0.891581	-0.412663
C90	C	-0.421750	-0.391581	0.087337
C91	C	-0.715352	-1.021455	-0.282905
C92	C	-0.215352	-0.521455	0.217095
C93	C	-0.715365	-0.934827	-0.369397
C94	C	-0.215365	-0.434827	0.130603
C95	C	-0.174695	-0.978224	-0.326168
C96	C	0.325305	-0.478224	0.173832
C97	C	-0.086838	-0.978256	-0.326179
C98	C	0.413162	-0.478256	0.173821
C99	C	-0.380813	-0.978187	-0.502684
C100	C	0.119187	-0.478187	-0.002684
C101	C	-0.380792	-0.978203	-0.577916
C102	C	0.119208	-0.478203	-0.077916
C103	C	-0.380886	-0.154691	-0.326157
C104	C	0.119114	0.345309	0.173843
C105	C	-0.380881	-0.229923	-0.326147
C106	C	0.119119	0.270077	0.173853
C107	C	-0.330242	-1.021513	-0.613273
C108	C	0.169758	-0.521513	-0.113273
C109	C	-0.330219	-1.021520	-0.683962
C110	C	0.169781	-0.521520	-0.183962
C111	C	-0.380750	-0.978220	-0.719292
C112	C	0.119250	-0.478220	-0.219292
C113	C	-0.431303	-0.934905	-0.683930
C114	C	0.068697	-0.434905	-0.183930
C115	C	-0.431321	-0.934895	-0.613243
C116	C	0.068679	-0.434895	-0.113243
C117	C	-0.431229	-0.934943	-0.969004
C118	C	0.068771	-0.434943	-0.469004
C119	C	-0.431209	-0.934958	-1.039696
C120	C	0.068791	-0.434958	-0.539696
C121	C	-0.330127	-1.021568	-1.039722
C122	C	0.169873	-0.521568	-0.539722
C123	C	-0.330145	-1.021558	-0.969035
C124	C	0.169855	-0.521558	-0.469035
C125	C	-0.380694	-0.978241	-0.933679
C126	C	0.119306	-0.478241	-0.433679
C127	C	-0.380717	-0.978233	-0.857031
C128	C	0.119283	-0.478233	-0.357031
C129	C	-0.380732	-0.978230	-0.795939
C130	C	0.119268	-0.478230	-0.295939
C131	C	-0.380855	-0.978150	-0.150285
C132	C	0.119145	-0.478150	0.349715
C133	C	-0.380654	-0.978265	-0.075054
C134	C	0.119346	-0.478265	0.424946
H135	H	-0.472433	-0.592201	-0.247460
H136	H	0.027567	-0.092201	0.252540
H137	H	-0.472478	-0.236443	-0.247478
H138	H	0.027522	0.263557	0.252522
H139	H	-0.472477	-0.899621	-0.584456
H140	H	0.027523	-0.399621	-0.084456
O141	O	-0.280905	-1.063608	-1.073993
O142	O	0.219095	-0.563608	-0.573993
C143	C	-0.146448	-1.096494	-1.095669
C144	C	0.353552	-0.596494	-0.595669
C145	C	-0.202098	-1.048852	-1.056807
C146	C	0.297902	-0.548852	-0.556807
H147	H	-0.082721	-1.084571	-1.081799
H148	H	0.417279	-0.584571	-0.581799
H149	H	-0.160280	-1.151075	-1.081766
H150	H	0.339720	-0.651075	-0.581766
H151	H	-0.155149	-1.089076	-1.152257
H152	H	0.344851	-0.589076	-0.652257
H153	H	-0.193428	-1.056210	-1.000210
H154	H	0.306572	-0.556210	-0.500210
H155	H	-0.188253	-0.994288	-1.070766
H156	H	0.311747	-0.494288	-0.570766
O157	O	-0.961732	-1.106837	-0.197542
O158	O	-0.461732	-0.606837	0.302458
C159	C	-0.986888	-1.139756	-0.082415
C160	C	-0.486888	-0.639756	0.417585
C161	C	-0.941558	-1.092127	-0.130066
C162	C	-0.441558	-0.592127	0.369934
H163	H	-0.970581	-1.127889	-0.027851
H164	H	-0.470581	-0.627889	0.472149
H165	H	-1.052998	-1.132363	-0.089755
H166	H	-0.552998	-0.632363	0.410245
H167	H	-0.970600	-1.194316	-0.094371
H168	H	-0.470600	-0.694316	0.405629
H169	H	-0.957779	-1.037548	-0.118139
H170	H	-0.457779	-0.537548	0.381861
H171	H	-0.875459	-1.099578	-0.122717
H172	H	-0.375459	-0.599578	0.377283
O173	O	-0.480400	-0.726076	-0.240737
O174	O	0.019600	-0.226076	0.259263
C175	C	-0.587124	-0.805834	-0.231472
C176	C	-0.087124	-0.305834	0.268528
C177	C	-0.531585	-0.766950	-0.279145
C178	C	-0.031585	-0.266950	0.220855
H179	H	-0.628533	-0.838879	-0.262506
H180	H	-0.128533	-0.338879	0.237494
H181	H	-0.550818	-0.838965	-0.196143
H182	H	-0.050818	-0.338965	0.303857
H183	H	-0.623175	-0.768400	-0.200468
H184	H	-0.123175	-0.268400	0.299532
H185	H	-0.495523	-0.804335	-0.310192
H186	H	0.004477	-0.304335	0.189808
H187	H	-0.567936	-0.733809	-0.314429
H188	H	-0.067936	-0.233809	0.185571
H189	H	-0.289057	-1.056788	-0.712746
H190	H	0.210943	-0.556788	-0.212746
O191	O	-0.675404	-0.892678	-0.411428
O192	O	-0.175404	-0.392678	0.088572
C193	C	-0.684137	-0.806796	-0.497255
C194	C	-0.184137	-0.306796	0.002745
C195	C	-0.729490	-0.854482	-0.449678
C196	C	-0.229490	-0.354482	0.050322
H197	H	-0.727846	-0.775913	-0.528203
H198	H	-0.227846	-0.275913	-0.028203
H199	H	-0.645558	-0.771361	-0.466179
H200	H	-0.145558	-0.271361	0.033821
H201	H	-0.645423	-0.837851	-0.532640
H202	H	-0.145423	-0.337851	-0.032640
H203	H	-0.768247	-0.823482	-0.414283
H204	H	-0.268247	-0.323482	0.085717
H205	H	-0.768020	-0.889919	-0.480795
H206	H	-0.268020	-0.389919	0.019205
O207	O	-0.281426	-0.370447	-0.411601
O208	O	0.218574	0.129553	0.088399
C209	C	-0.236633	-0.479368	-0.449996
C210	C	0.263367	0.020632	0.050004
C211	C	-0.292144	-0.440424	-0.402301
C212	C	0.207856	0.059576	0.097699
H213	H	-0.245267	-0.535951	-0.442484
H214	H	0.254733	-0.035951	0.057516
H215	H	-0.250597	-0.465541	-0.504570
H216	H	0.249403	0.034459	-0.004570
H217	H	-0.172889	-0.465436	-0.438211
H218	H	0.327111	0.034564	0.061789
H219	H	-0.355907	-0.454335	-0.414026
H220	H	0.144093	0.045665	0.085974
H221	H	-0.278111	-0.454255	-0.347742
H222	H	0.221889	0.045745	0.152258
O223	O	-0.281008	-1.063520	-0.934647
O224	O	0.218992	-0.563520	-0.434647
C225	C	-0.174263	-1.072628	-0.854902
C226	C	0.325737	-0.572628	-0.354902
C227	C	-0.229883	-1.025036	-0.893788
C228	C	0.270117	-0.525036	-0.393788
H229	H	-0.132903	-1.041533	-0.821870
H230	H	0.367097	-0.541533	-0.321870
H231	H	-0.210508	-1.107998	-0.821759
H232	H	0.289492	-0.607998	-0.321759
H233	H	-0.138164	-1.103593	-0.892335
H234	H	0.361836	-0.603593	-0.392335
H235	H	-0.265994	-0.994028	-0.856405
H236	H	0.234006	-0.494028	-0.356405
H237	H	-0.193593	-0.989711	-0.926942
H238	H	0.306407	-0.489711	-0.426942
H239	H	-0.955370	-0.856327	-0.447878
H240	H	-0.455370	-0.356327	0.052122
O241	O	-0.480320	-0.892826	-1.073912
O242	O	0.019680	-0.392826	-0.573912
C243	C	-0.580610	-0.806938	-1.066430
C244	C	-0.080610	-0.306938	-0.566430
C245	C	-0.525023	-0.854601	-1.027596
C246	C	-0.025023	-0.354601	-0.527596
H247	H	-0.616780	-0.776030	-1.029001
H248	H	-0.116780	-0.276030	-0.529001
H249	H	-0.544339	-0.771525	-1.099506
H250	H	-0.044339	-0.271525	-0.599506
H251	H	-0.621906	-0.838013	-1.099541
H252	H	-0.121906	-0.338013	-0.599541
H253	H	-0.483717	-0.823580	-0.994449
H254	H	0.016283	-0.323580	-0.494449
H255	H	-0.561344	-0.890016	-0.994563
H256	H	-0.061344	-0.390016	-0.494563
H257	H	-0.472444	-0.899647	-0.712702
H258	H	0.027556	-0.399647	-0.212702
H259	H	-0.805593	-0.856274	-0.447864
H260	H	-0.305593	-0.356274	0.052136
O261	O	-0.281384	-0.230886	-0.411570
O262	O	0.218616	0.269114	0.088430
C263	C	-0.236675	-0.122014	-0.450044
C264	C	0.263325	0.377986	0.049956
C265	C	-0.292207	-0.160896	-0.402364
C266	C	0.207793	0.339104	0.097636
H267	H	-0.245417	-0.065421	-0.442627
H268	H	0.254583	0.434579	0.057373
H269	H	-0.172902	-0.135871	-0.438252
H270	H	0.327098	0.364129	0.061748
H271	H	-0.250634	-0.135972	-0.504592
H272	H	0.249366	0.364028	-0.004592
H273	H	-0.278319	-0.146959	-0.347800
H274	H	0.221681	0.353041	0.152200
H275	H	-0.355963	-0.147036	-0.414214
H276	H	0.144037	0.352964	0.085786
O277	O	-1.085684	-1.063687	-0.241009
O278	O	-0.585684	-0.563687	0.258991
C279	C	-1.178911	-1.155031	-0.231950
C280	C	-0.678911	-0.655031	0.268050
C281	C	-1.133482	-1.107383	-0.279512
C282	C	-0.633482	-0.607383	0.220488
H283	H	-1.217580	-1.190362	-0.263060
H284	H	-0.717580	-0.690362	0.236940
H285	H	-1.135280	-1.186027	-0.201033
H286	H	-0.635280	-0.686027	0.298967
H287	H	-1.217549	-1.123940	-0.196535
H288	H	-0.717549	-0.623940	0.303465
H289	H	-1.094843	-1.138422	-0.314968
H290	H	-0.594843	-0.638422	0.185032
H291	H	-1.177156	-1.076385	-0.310382
H292	H	-0.677156	-0.576385	0.189618
O293	O	-1.085791	-0.892891	-0.411374
O294	O	-0.585791	-0.392891	0.088626
C295	C	-1.212966	-0.854569	-0.449755
C296	C	-0.712966	-0.354569	0.050245
C297	C	-1.167517	-0.902201	-0.402199
C298	C	-0.667517	-0.402201	0.097801
H299	H	-1.279049	-0.862089	-0.442364
H300	H	-0.779049	-0.362089	0.057636
H301	H	-1.196844	-0.799978	-0.437815
H302	H	-0.696844	-0.299978	0.062185
H303	H	-1.196643	-0.866410	-0.504334
H304	H	-0.696643	-0.366410	-0.004334
H305	H	-1.183815	-0.890421	-0.347605
H306	H	-0.683815	-0.390421	0.152395
H307	H	-1.183642	-0.956777	-0.414197
H308	H	-0.683642	-0.456777	0.085803
H309	H	-0.472401	-0.899682	-0.940225
H310	H	0.027599	-0.399682	-0.440225
O311	O	-0.799035	-1.106773	-0.197577
O312	O	-0.299035	-0.606773	0.302423
C313	C	-0.705842	-1.115915	-0.106225
C314	C	-0.205842	-0.615915	0.393775
C315	C	-0.751257	-1.068308	-0.153830
C316	C	-0.251257	-0.568308	0.346170
H317	H	-0.667190	-1.084836	-0.070853
H318	H	-0.167190	-0.584836	0.429147
H319	H	-0.749482	-1.146871	-0.075270
H320	H	-0.249482	-0.646871	0.424730
H321	H	-0.667189	-1.151290	-0.137346
H322	H	-0.167189	-0.651290	0.362654
H323	H	-0.789911	-1.032892	-0.122761
H324	H	-0.289911	-0.532892	0.377239
H325	H	-0.707574	-1.037399	-0.184787
H326	H	-0.207574	-0.537399	0.315213
O327	O	-0.480468	-0.370126	-0.240633
O328	O	0.019532	0.129874	0.259367
C329	C	-0.580579	-0.362605	-0.154586
C330	C	-0.080579	0.137395	0.345414
C331	C	-0.525015	-0.323793	-0.202296
C332	C	-0.025015	0.176207	0.297704
H333	H	-0.616598	-0.325161	-0.123568
H334	H	-0.116598	0.174839	0.376432
H335	H	-0.622009	-0.395688	-0.185561
H336	H	-0.122009	0.104312	0.314439
H337	H	-0.544217	-0.395706	-0.119273
H338	H	-0.044217	0.104294	0.380727
H339	H	-0.561313	-0.290655	-0.237619
H340	H	-0.061313	0.209345	0.262381
H341	H	-0.483583	-0.290752	-0.171279
H342	H	0.016417	0.209248	0.328721
O343	O	-0.281247	-0.725997	-0.411632
O344	O	0.218753	-0.225997	0.088368
C345	C	-0.181136	-0.718583	-0.497680
C346	C	0.318864	-0.218583	0.002320
C347	C	-0.236707	-0.679712	-0.449977
C348	C	0.263293	-0.179712	0.050023
H349	H	-0.145123	-0.681178	-0.528704
H350	H	0.354877	-0.181178	-0.028704
H351	H	-0.139701	-0.751655	-0.466698
H352	H	0.360299	-0.251655	0.033302
H353	H	-0.217491	-0.751702	-0.532988
H354	H	0.282509	-0.251702	-0.032988
H355	H	-0.200416	-0.646556	-0.414659
H356	H	0.299584	-0.146556	0.085341
H357	H	-0.278145	-0.646683	-0.481000
H358	H	0.221855	-0.146683	0.019000
H359	H	-0.289261	-0.592306	-0.404802
H360	H	0.210739	-0.092306	0.095198
H361	H	-0.681743	-1.056707	-0.247684
H362	H	-0.181743	-0.556707	0.252316
H363	H	-0.289095	-1.056775	-0.584512
H364	H	0.210905	-0.556775	-0.084512
