data_functionalizedCrystal
_audit_creation_method	'MofGen! by Chris Wilmer'
_symmetry_space_group_name_H-M	'P1'
_symmetry_Int_Tables_number	1
_symmetry_cell_setting	triclinic
loop_
_symmetry_equiv_pos_as_xyz
  x,y,z
_cell_length_a	31.640172
_cell_length_b	14.809374
_cell_length_c	14.809374
_cell_angle_alpha	60.797835
_cell_angle_beta	89.995465
_cell_angle_gamma	67.419452
loop_
_atom_site_label
_atom_site_type_symbol
_atom_site_fract_x
_atom_site_fract_y
_atom_site_fract_z
Zr1	Zr	0.466860	0.955092	-0.203699
O2	O	0.415085	1.113025	-0.350855
O3	O	0.475402	0.777323	-0.145622
O4	O	0.492691	0.926467	-0.332163
O5	O	0.392496	0.993378	-0.031916
O6	O	0.562247	0.926450	-0.332167
O7	O	0.397795	0.963881	-0.164314
O8	O	0.531320	0.659660	0.001520
O9	O	0.423423	1.260169	-0.365603
O10	O	0.539810	0.857776	-0.136520
O11	O	0.483946	0.879802	-0.037710
O12	O	0.504302	1.055399	-0.257338
O13	O	0.448438	1.077424	-0.158528
Zr14	Zr	0.569341	1.002110	0.007455
Zr15	Zr	0.577793	0.955066	-0.203705
Zr16	Zr	0.458407	1.002136	0.007461
Zr17	Zr	0.480159	1.189769	-0.227221
Zr18	Zr	0.556042	0.767432	0.030977
O19	O	0.560799	1.179879	-0.050621
O20	O	0.572817	1.112988	-0.350864
O21	O	0.403066	1.179916	-0.050613
O22	O	0.621116	0.844177	0.154611
O23	O	0.633135	0.777286	-0.145631
O24	O	0.463383	0.844214	0.154620
O25	O	0.643705	0.963823	-0.164328
O26	O	0.543509	1.030735	0.135920
O27	O	0.473954	1.030751	0.135923
O28	O	0.638405	0.993320	-0.031929
O29	O	0.511600	1.260148	-0.365608
O30	O	0.524601	0.697054	0.169365
O31	O	0.612778	0.697033	0.169360
O32	O	0.619497	0.659639	0.001516
O33	O	0.416704	1.297563	-0.197759
O34	O	0.504881	1.297542	-0.197764
O35	O	0.531899	0.901803	0.061094
O36	O	0.587763	0.879777	-0.037716
O37	O	0.552255	1.077400	-0.158533
O38	O	0.496391	1.099425	-0.059723
C39	C	0.501466	0.685055	-0.068700
C40	C	0.495820	0.585428	-0.058714
C41	C	0.379340	0.978633	-0.098114
C42	C	0.332246	0.978644	-0.098112
C43	C	0.521016	0.530085	-0.103279
C44	C	0.515181	0.427115	-0.092959
C45	C	0.043157	0.962328	-0.171057
C46	C	-0.133830	0.962311	-0.171063
O47	O	-0.154224	0.948440	-0.233065
N48	N	-0.158880	0.978563	-0.098125
C49	C	-0.139680	0.994814	-0.025175
O50	O	-0.165046	1.008625	0.036870
C51	C	0.037308	0.994823	-0.025165
C52	C	0.062354	0.978581	-0.098115
C53	C	0.068203	0.946086	-0.244000
C54	C	0.112446	0.946097	-0.244002
C55	C	0.131643	0.962350	-0.171060
C56	C	0.106597	0.978592	-0.098117
C57	C	0.056509	1.011065	0.047788
C58	C	0.100759	1.011063	0.047786
C59	C	0.125806	0.994821	-0.025164
C60	C	0.170037	0.994855	-0.025177
N61	N	0.195087	0.978603	-0.098115
C62	C	0.175890	0.962350	-0.171057
C63	C	-0.232601	0.994810	-0.025187
C64	C	-0.276848	0.994810	-0.025190
C65	C	-0.270995	0.962305	-0.171077
C66	C	-0.226749	0.962313	-0.171077
C67	C	-0.207551	0.978558	-0.098125
C68	C	0.268803	0.962375	-0.171055
C69	C	0.313049	0.962392	-0.171053
C70	C	0.307193	0.994891	-0.025164
C71	C	0.262950	0.994880	-0.025169
C72	C	0.243757	0.978617	-0.098119
O73	O	0.190461	1.008706	0.036801
O74	O	0.201268	0.948515	-0.233077
C75	C	-0.001086	0.962318	-0.171055
C76	C	-0.026132	0.978560	-0.098112
C77	C	-0.006935	0.994812	-0.025171
C78	C	-0.070379	0.978559	-0.098116
C79	C	-0.089576	0.962307	-0.171057
C80	C	-0.064526	0.946054	-0.243995
C81	C	-0.020283	0.946065	-0.243997
C82	C	-0.031985	1.011065	0.047768
C83	C	-0.076228	1.011054	0.047762
C84	C	-0.095425	0.994801	-0.025179
C85	C	0.656861	0.978568	-0.098129
C86	C	0.703955	0.978557	-0.098132
C87	C	0.528673	0.919756	-0.362251
C88	C	0.532262	0.899784	-0.451894
C89	C	0.534735	1.272147	-0.127544
C90	C	0.540380	1.371774	-0.137530
C91	C	0.516247	0.988914	-0.551793
C92	C	0.519956	0.968275	-0.644445
C93	C	0.507527	1.037446	0.166007
C94	C	0.503939	1.057418	0.255650
C95	C	0.640226	0.685022	-0.068707
C96	C	0.681675	0.585384	-0.058724
C97	C	0.490893	0.743900	0.195429
C98	C	0.481659	0.664245	0.295058
C99	C	0.629653	0.743867	0.195422
C100	C	0.667513	0.664201	0.295048
C101	C	0.406547	1.213334	-0.391666
C102	C	0.368687	1.293000	-0.491292
C103	C	0.395974	1.272179	-0.127537
C104	C	0.354526	1.371817	-0.137520
C105	C	0.545308	1.213302	-0.391673
C106	C	0.554542	1.292957	-0.491302
C107	C	0.676109	0.527107	-0.105620
C108	C	0.715051	0.433495	-0.096261
C109	C	0.759559	0.398158	-0.039999
C110	C	0.765125	0.456445	0.006897
C111	C	0.726183	0.550060	-0.002469
C112	C	0.502353	0.638324	0.393429
C113	C	0.493676	0.563494	0.487047
C114	C	0.464306	0.514580	0.482293
C115	C	0.443609	0.540508	0.383912
C116	C	0.452284	0.615343	0.290295
C117	C	0.714458	0.615292	0.290255
C118	C	0.750037	0.540448	0.383855
C119	C	0.738670	0.514509	0.482247
C120	C	0.691721	0.563427	0.487037
C121	C	0.656143	0.638275	0.393437
C122	C	0.321743	1.341921	-0.486500
C123	C	0.286166	1.416794	-0.580103
C124	C	0.297533	1.442738	-0.678496
C125	C	0.344482	1.393814	-0.683285
C126	C	0.380059	1.318949	-0.589684
C127	C	0.360093	1.430102	-0.090634
C128	C	0.321153	1.523735	-0.100019
C129	C	0.276645	1.559075	-0.156284
C130	C	0.271079	1.500785	-0.203175
C131	C	0.310020	1.407159	-0.193796
C132	C	0.583914	1.341848	-0.486514
C133	C	0.592599	1.416682	-0.580116
C134	C	0.571909	1.442630	-0.678506
C135	C	0.542536	1.393729	-0.683292
C136	C	0.533853	1.318890	-0.589690
H137	H	0.546908	0.558929	-0.149068
C138	C	0.328319	1.012761	0.055072
N139	N	0.344235	1.026211	0.115513
H140	H	0.723722	0.636399	0.210149
C141	C	0.801677	0.486639	0.378564
N142	N	0.840571	0.446109	0.374576
C143	C	0.460843	0.546457	0.003152
N144	N	0.434497	0.517108	0.049750
C145	C	0.554493	0.776050	-0.429010
N146	N	0.571238	0.682850	-0.411770
H147	H	0.489291	0.398267	-0.047160
C148	C	0.007264	0.928186	-0.324242
N149	N	0.028011	0.914715	-0.384684
H150	H	0.536414	0.876681	-0.627503
C151	C	0.409048	1.391252	-0.028742
N152	N	0.445921	1.362002	0.017871
C153	C	0.777811	0.432161	0.585201
N154	N	0.807295	0.370132	0.662744
C155	C	0.802391	0.295169	-0.029698
N156	N	0.834650	0.217593	-0.021937
H157	H	0.419696	0.500671	0.380057
H158	H	0.234836	1.529574	-0.248986
H159	H	0.499794	1.080502	-0.568728
H160	H	0.566274	0.400615	-0.183322
C161	C	0.356978	1.422353	-0.791526
N162	N	0.366388	1.443843	-0.873056
C163	C	0.429522	0.643832	0.182092
N164	N	0.412375	0.665284	0.100595
C165	C	0.679224	0.534872	0.595280
N166	N	0.669812	0.513354	0.676812
H167	H	0.487483	1.149012	-0.761293
C168	C	0.340598	0.944517	-0.251303
N169	N	0.361348	0.931051	-0.311744
H170	H	0.509934	1.279090	-0.593603
H171	H	0.710510	0.386048	-0.134451
C172	C	0.247697	0.944490	-0.251307
N173	N	0.231798	0.931026	-0.311758
C174	C	0.454772	0.432249	0.585286
N175	N	0.447596	0.370233	0.662865
H176	H	0.617919	0.678088	0.397355
H177	H	0.132837	0.932867	-0.303401
H178	H	0.244941	1.635313	-0.163913
C179	C	0.606681	1.313316	-0.378293
N180	N	0.623834	1.291823	-0.296783
H181	H	-0.080164	0.932826	-0.303391
H182	H	-0.297241	1.008053	0.034201
H183	H	0.247941	1.456616	-0.576183
H184	H	-0.096620	1.024290	0.107165
H185	H	0.052578	0.932847	-0.303398
C186	C	0.624909	1.470466	-0.574829
N187	N	0.649244	1.510975	-0.570843
H188	H	-0.206358	0.949087	-0.230479
H189	H	0.312478	1.320802	-0.406393
C190	C	0.814087	0.417551	0.068792
N191	N	0.850965	0.388247	0.115418
C192	C	0.258392	1.525084	-0.781450
N193	N	0.228908	1.587103	-0.858991
C194	C	0.303887	1.343043	-0.245365
N195	N	0.299264	1.294752	-0.284208
H196	H	0.418282	1.279116	-0.593597
C197	C	0.627154	0.565965	-0.167521
N198	N	0.590283	0.595231	-0.214154
C199	C	0.581464	1.524959	-0.781462
N200	N	0.588661	1.586973	-0.859006
C201	C	-0.292118	0.944417	-0.251308
N202	N	-0.308028	0.930936	-0.311728
H203	H	0.325693	1.571181	-0.061828
C204	C	-0.211486	1.012659	0.055086
N205	N	-0.195583	1.026097	0.115552
H206	H	0.036122	1.024290	0.107191
C207	C	0.121874	1.028935	0.128041
N208	N	0.137775	1.042400	0.188486
H209	H	0.242554	1.008122	0.034223
H210	H	0.525692	1.414868	-0.763414
H211	H	0.730721	0.597500	0.035727
C212	C	-0.010871	1.028920	0.128029
N213	N	0.005031	1.042366	0.188489
H214	H	0.526268	0.678144	0.397319
C215	C	0.516452	0.534977	0.595256
N216	N	0.533609	0.513497	0.676757
