data_functionalizedCrystal
_audit_creation_method	'MofGen! by Chris Wilmer'
_symmetry_space_group_name_H-M	'P1'
_symmetry_Int_Tables_number	1
_symmetry_cell_setting	triclinic
loop_
_symmetry_equiv_pos_as_xyz
  x,y,z
_cell_length_a	23.532355
_cell_length_b	16.992695
_cell_length_c	15.455313
_cell_angle_alpha	87.152573
_cell_angle_beta	87.341931
_cell_angle_gamma	93.252139
loop_
_atom_site_label
_atom_site_type_symbol
_atom_site_fract_x
_atom_site_fract_y
_atom_site_fract_z
O1	O	0.762326	-0.091511	-0.072013
O2	O	0.597145	-0.105320	-0.072041
O3	O	0.679073	0.015722	-0.072020
O4	O	0.680398	-0.212552	-0.072033
O5	O	0.674387	0.008828	0.072241
O6	O	0.592458	-0.112213	0.072220
O7	O	0.757640	-0.098405	0.072248
Cu8	Cu	0.674621	-0.105938	0.085406
Cu9	Cu	0.680163	-0.097786	-0.085199
O10	O	0.675712	-0.219446	0.072227
C11	C	0.573568	-0.108421	0.000086
C12	C	0.510298	-0.107383	0.000076
C13	C	0.115405	-0.104621	0.078749
C14	C	0.055957	-0.103634	0.078753
O15	O	0.023039	-0.106292	0.145629
N16	N	0.028778	-0.099387	0.000117
C17	C	0.061052	-0.096119	-0.078528
O18	O	0.032476	-0.092415	-0.145414
C19	C	0.120500	-0.097100	-0.078531
C20	C	0.147675	-0.101356	0.000111
C21	C	0.142580	-0.108875	0.157384
C22	C	0.202024	-0.109864	0.157381
C23	C	0.234294	-0.106598	0.078742
C24	C	0.207119	-0.102344	0.000107
C25	C	0.152773	-0.093827	-0.157175
C26	C	0.212224	-0.094808	-0.157171
C27	C	0.239399	-0.099063	-0.078529
C28	C	0.298833	-0.100067	-0.078536
N29	N	0.326011	-0.104314	0.000101
C30	C	0.293742	-0.107580	0.078739
C31	C	-0.063792	-0.094056	-0.078517
C32	C	-0.123239	-0.093080	-0.078516
C33	C	-0.128330	-0.100594	0.078766
C34	C	-0.068883	-0.101575	0.078764
C35	C	-0.036614	-0.098303	0.000119
C36	C	0.418579	-0.109657	0.078726
C37	C	0.478029	-0.110648	0.078715
C38	C	0.483115	-0.103130	-0.078566
C39	C	0.423671	-0.102143	-0.078556
C40	C	0.391404	-0.105404	0.000097
O41	O	0.331787	-0.097408	-0.145378
O42	O	0.322326	-0.111273	0.145614
C43	C	0.675026	0.041474	0.000110
C44	C	0.669943	0.128477	0.000109
C45	C	0.781217	-0.095303	0.000119
C46	C	0.844487	-0.096341	0.000124
C47	C	0.679758	-0.245198	0.000095
C48	C	0.684842	-0.332201	0.000091
N49	N	0.670727	-0.111672	0.205401
C50	C	0.718990	0.179112	0.000118
C51	C	0.714210	0.260860	0.000109
C52	C	0.660383	0.291972	0.000097
C53	C	0.611333	0.241331	0.000086
C54	C	0.616113	0.159585	0.000088
C55	C	0.640572	0.535411	0.000082
C56	C	0.635795	0.617164	0.000082
C57	C	0.738673	0.636688	0.000104
C58	C	0.743448	0.554938	0.000112
C59	C	0.694398	0.504305	0.000096
N60	N	0.655497	0.375532	0.000091
N61	N	0.699285	0.420747	0.000096
N62	N	0.684061	-0.092047	-0.205193
C63	C	0.705547	-0.060268	0.250804
C64	C	0.702608	-0.064611	0.341611
C65	C	0.664851	-0.120362	0.387014
C66	C	0.630028	-0.171768	0.341604
C67	C	0.632965	-0.167421	0.250799
C68	C	0.652175	-0.139105	0.658592
C69	C	0.649242	-0.143450	0.749404
C70	C	0.721821	-0.036292	0.749404
C71	C	0.724757	-0.031952	0.658597
C72	C	0.689931	-0.083356	0.613196
N73	N	0.661847	-0.124804	0.479833
N74	N	0.692933	-0.078909	0.520378
H75	H	-0.145360	-0.089627	-0.142553
H76	H	0.730960	-0.022753	0.378578
H77	H	0.599283	-0.217159	0.378576
H78	H	0.755501	0.013445	0.621632
H79	H	0.736295	-0.014872	0.213843
H80	H	0.778607	0.677922	0.000115
H81	H	0.623819	-0.180962	0.621633
H82	H	0.787279	0.529614	0.000122
H83	H	-0.046761	-0.105041	0.142800
H84	H	0.750174	0.005559	0.786378
H85	H	0.604610	-0.209278	0.213833
H86	H	0.224145	-0.113324	0.221419
H87	H	0.591960	0.642491	0.000086
H88	H	0.500151	-0.114116	0.142757
H89	H	0.600631	0.494195	0.000069
H90	H	0.754149	0.302084	0.000118
H91	H	0.392314	-0.112319	0.142772
H92	H	0.401543	-0.098690	-0.142592
H93	H	-0.037522	-0.091398	-0.142563
H94	H	-0.154615	-0.103251	0.142798
H95	H	0.567506	0.266669	0.000070
H96	H	0.130658	-0.090360	-0.221213
H97	H	0.238495	-0.092144	-0.221214
H98	H	0.762821	0.153787	0.000133
H99	H	0.576174	0.118358	0.000081
H100	H	0.116312	-0.111533	0.221425
H101	H	0.509400	-0.100475	-0.142592
H102	H	0.618494	-0.188853	0.786366
