data_functionalizedCrystal
_audit_creation_method	'MofGen! by Chris Wilmer'
_symmetry_space_group_name_H-M	'P1'
_symmetry_Int_Tables_number	1
_symmetry_cell_setting	triclinic
loop_
_symmetry_equiv_pos_as_xyz
  x,y,z
_cell_length_a	23.532355
_cell_length_b	23.532407
_cell_length_c	22.010155
_cell_angle_alpha	89.995744
_cell_angle_beta	89.997414
_cell_angle_gamma	82.838123
loop_
_atom_site_label
_atom_site_type_symbol
_atom_site_fract_x
_atom_site_fract_y
_atom_site_fract_z
O1	O	0.755283	0.068986	-0.050454
O2	O	1.088616	0.402320	0.282880
O3	O	1.421950	0.735653	0.616213
O4	O	0.589415	0.079020	-0.050474
O5	O	0.922749	0.412354	0.282859
O6	O	1.256082	0.745687	0.616192
O7	O	0.677351	-0.008929	-0.050446
O8	O	1.010684	0.324404	0.282887
O9	O	1.344018	0.657737	0.616220
O10	O	0.667347	0.156936	-0.050482
O11	O	1.000681	0.490269	0.282852
O12	O	1.334014	0.823603	0.616185
O13	O	0.677335	-0.008916	0.050604
O14	O	1.010668	0.324417	0.383937
O15	O	1.344002	0.657750	0.717271
O16	O	0.589399	0.079033	0.050576
O17	O	0.922733	0.412367	0.383909
O18	O	1.256066	0.745700	0.717243
O19	O	0.755267	0.068999	0.050597
O20	O	1.088600	0.402333	0.383930
O21	O	1.421934	0.735666	0.717263
Cu22	Cu	0.672332	0.074018	0.059813
Cu23	Cu	1.005665	0.407351	0.393146
Cu24	Cu	1.338998	0.740684	0.726480
Cu25	Cu	0.672351	0.074002	-0.059691
Cu26	Cu	1.005684	0.407335	0.273643
Cu27	Cu	1.339017	0.740669	0.606976
O28	O	0.667331	0.156949	0.050569
O29	O	1.000665	0.490282	0.383902
O30	O	1.333998	0.823616	0.717235
C31	C	0.568191	0.078776	0.000048
C32	C	0.901524	0.412109	0.333382
C33	C	1.234857	0.745443	0.666715
C34	C	0.504972	0.078022	0.000041
C35	C	0.838305	0.411355	0.333374
C36	C	1.171639	0.744689	0.666708
C37	C	0.112950	0.073291	0.055150
C38	C	0.446283	0.406624	0.388483
C39	C	0.779616	0.739958	0.721817
C40	C	0.053550	0.072574	0.055153
C41	C	0.386884	0.405907	0.388486
C42	C	0.720217	0.739240	0.721819
O43	O	0.022824	0.072189	0.101998
O44	O	0.356158	0.405523	0.435331
O45	O	0.689491	0.738856	0.768664
N46	N	0.023850	0.072211	0.000070
N47	N	0.357184	0.405544	0.333404
N48	N	0.690517	0.738877	0.666737
C49	C	0.053554	0.072559	-0.055018
C50	C	0.386887	0.405893	0.278315
C51	C	0.720221	0.739226	0.611649
O52	O	0.022838	0.072184	-0.101870
O53	O	0.356171	0.405518	0.231464
O54	O	0.689504	0.738851	0.564797
C55	C	0.112953	0.073273	-0.055020
C56	C	0.446286	0.406606	0.278313
C57	C	0.779620	0.739939	0.611647
C58	C	0.142649	0.073641	0.000066
C59	C	0.475982	0.406975	0.333399
C60	C	0.809315	0.740308	0.666733
C61	C	0.142646	0.073659	0.110231
C62	C	0.475979	0.406992	0.443565
C63	C	0.809312	0.740326	0.776898
C64	C	0.202041	0.074378	0.110229
C65	C	0.535374	0.407711	0.443562
C66	C	0.868708	0.741044	0.776895
C67	C	0.231740	0.074728	0.055145
C68	C	0.565073	0.408061	0.388478
C69	C	0.898407	0.741395	0.721811
C70	C	0.202044	0.074360	0.000063
C71	C	0.535377	0.407693	0.333397
C72	C	0.868711	0.741027	0.666730
C73	C	0.142656	0.073617	-0.110108
C74	C	0.475989	0.406951	0.223226
C75	C	0.809322	0.740284	0.556559
C76	C	0.202059	0.074330	-0.110105
C77	C	0.535392	0.407664	0.223229
C78	C	0.868725	0.740997	0.556562
C79	C	0.231755	0.074699	-0.055019
C80	C	0.565088	0.408032	0.278314
C81	C	0.898421	0.741366	0.611648
C82	C	0.291138	0.075429	-0.055024
C83	C	0.624472	0.408762	0.278310
C84	C	0.957805	0.742096	0.611643
N85	N	0.320838	0.075792	0.000059
N86	N	0.654171	0.409125	0.333392
N87	N	0.987505	0.742458	0.666725
C88	C	0.291139	0.075441	0.055143
C89	C	0.624472	0.408775	0.388476
C90	C	0.957806	0.742108	0.721809
C91	C	-0.071188	0.071060	-0.055010
C92	C	0.262146	0.404394	0.278323
C93	C	0.595479	0.737727	0.611657
C94	C	-0.130586	0.070351	-0.055009
C95	C	0.202747	0.403684	0.278325
C96	C	0.536081	0.737018	0.611658
C97	C	-0.130585	0.070364	0.055162
C98	C	0.202748	0.403698	0.388496
C99	C	0.536081	0.737031	0.721829
C100	C	-0.071187	0.071078	0.055160
C101	C	0.262147	0.404411	0.388494
C102	C	0.595480	0.737744	0.721827
C103	C	-0.041488	0.071423	0.000072
C104	C	0.291846	0.404757	0.333406
C105	C	0.625179	0.738090	0.666739
C106	C	0.415873	0.076951	0.055133
C107	C	0.749206	0.410284	0.388466
C108	C	1.082540	0.743617	0.721800
C109	C	0.475273	0.077672	0.055125
C110	C	0.808606	0.411005	0.388459
C111	C	1.141940	0.744338	0.721792
C112	C	0.475268	0.077655	-0.055045
C113	C	0.808601	0.410989	0.278288
C114	C	1.141934	0.744322	0.611621
C115	C	0.415872	0.076938	-0.055038
C116	C	0.749206	0.410271	0.278295
C117	C	1.082539	0.743604	0.611629
C118	C	0.386177	0.076583	0.000056
C119	C	0.719510	0.409917	0.333389
C120	C	1.052843	0.743250	0.666723
O121	O	0.321902	0.075811	-0.101845
O122	O	0.655236	0.409145	0.231489
O123	O	0.988569	0.742478	0.564822
O124	O	0.321863	0.075809	0.101986
O125	O	0.655197	0.409142	0.435320
O126	O	0.988530	0.742476	0.768653
C127	C	0.677088	-0.030139	0.000082
C128	C	1.010421	0.303195	0.333415
C129	C	1.343755	0.636528	0.666749
C130	C	0.676322	-0.093356	0.000091
C131	C	1.009656	0.239978	0.333424
C132	C	1.342989	0.573311	0.666758
C133	C	0.621125	-0.359513	0.000046
C134	C	0.954459	-0.026179	0.333379
C135	C	1.287792	0.307154	0.666713
C136	C	0.621837	-0.300113	0.000051
C137	C	0.955170	0.033221	0.333384
C138	C	1.288504	0.366554	0.666718
O139	O	0.578050	-0.263360	0.000026
O140	O	0.911383	0.069973	0.333359
O141	O	1.244717	0.403307	0.666693
N142	N	0.674114	-0.277496	0.000064
N143	N	1.007448	0.055837	0.333398
N144	N	1.340781	0.389170	0.666731
C145	C	0.725684	-0.314283	0.000067
C146	C	1.059017	0.019050	0.333400
C147	C	1.392351	0.352383	0.666734
O148	O	0.770216	-0.289592	0.000079
O149	O	1.103549	0.043741	0.333412
O150	O	1.436882	0.377075	0.666745
C151	C	0.724972	-0.373682	0.000058
C152	C	1.058305	-0.040349	0.333391
C153	C	1.391639	0.292984	0.666725
C154	C	0.672691	-0.396295	0.000051
C155	C	1.006024	-0.062962	0.333384
C156	C	1.339358	0.270371	0.666717
C157	C	0.568849	-0.382126	0.000038
C158	C	0.902182	-0.048793	0.333371
C159	C	1.235515	0.284540	0.666705
C160	C	0.568137	-0.441522	0.000034
C161	C	0.901471	-0.108189	0.333368
C162	C	1.234804	0.225144	0.666701
C163	C	0.619703	-0.478305	0.000039
C164	C	0.953036	-0.144972	0.333372
C165	C	1.286370	0.188362	0.666706
C166	C	0.671980	-0.455691	0.000047
C167	C	1.005313	-0.122358	0.333380
C168	C	1.338646	0.210975	0.666714
C169	C	0.776541	-0.410468	0.000056
C170	C	1.109874	-0.077135	0.333390
C171	C	1.443208	0.256198	0.666723
C172	C	0.775824	-0.469871	0.000047
C173	C	1.109158	-0.136537	0.333380
C174	C	1.442491	0.196796	0.666713
C175	C	0.723543	-0.492484	0.000039
C176	C	1.056877	-0.159150	0.333373
C177	C	1.390210	0.174183	0.666706
C178	C	0.722834	-0.551870	0.000048
C179	C	1.056167	-0.218536	0.333381
C180	C	1.389501	0.114797	0.666714
N181	N	0.670556	-0.574486	0.000034
N182	N	1.003890	-0.241153	0.333368
N183	N	1.337223	0.092180	0.666701
C184	C	0.618991	-0.537704	0.000030
C185	C	0.952324	-0.204370	0.333363
C186	C	1.285658	0.128963	0.666696
C187	C	0.727175	-0.189541	0.000085
C188	C	1.060509	0.143792	0.333419
C189	C	1.393842	0.477126	0.666752
C190	C	0.727888	-0.130143	0.000099
C191	C	1.061221	0.203190	0.333432
C192	C	1.394555	0.536523	0.666765
C193	C	0.624041	-0.115977	0.000081
C194	C	0.957374	0.217357	0.333415
C195	C	1.290707	0.550690	0.666748
C196	C	0.623329	-0.175376	0.000072
C197	C	0.956662	0.157958	0.333405
C198	C	1.289995	0.491291	0.666739
C199	C	0.674898	-0.212158	0.000072
C200	C	1.008231	0.121176	0.333405
C201	C	1.341564	0.454509	0.666738
C202	C	0.617501	-0.662440	0.000023
C203	C	0.950835	-0.329107	0.333356
C204	C	1.284168	0.004226	0.666689
C205	C	0.616795	-0.721842	0.000022
C206	C	0.950128	-0.388509	0.333355
C207	C	1.283461	-0.055176	0.666688
C208	C	0.720642	-0.736004	0.000036
C209	C	1.053975	-0.402670	0.333369
C210	C	1.387308	-0.069337	0.666702
C211	C	0.721349	-0.676607	0.000040
C212	C	1.054682	-0.343274	0.333373
C213	C	1.388015	-0.009940	0.666707
C214	C	0.669774	-0.639826	0.000031
C215	C	1.003107	-0.306493	0.333365
C216	C	1.336440	0.026841	0.666698
O217	O	0.766598	-0.588657	0.000070
O218	O	1.099931	-0.255324	0.333403
O219	O	1.433265	0.078010	0.666737
O220	O	0.574467	-0.562403	0.000010
O221	O	0.907800	-0.229070	0.333344
O222	O	1.241133	0.104263	0.666677
C223	C	0.776492	0.069244	0.000073
C224	C	1.109825	0.402577	0.333406
C225	C	1.443158	0.735910	0.666739
C226	C	0.839710	0.069998	0.000076
C227	C	1.173044	0.403331	0.333409
C228	C	1.506377	0.736664	0.666743
C229	C	0.667594	0.178158	0.000039
C230	C	1.000928	0.511492	0.333372
C231	C	1.334261	0.844825	0.666706
C232	C	0.668360	0.241375	0.000026
C233	C	1.001693	0.574709	0.333359
C234	C	1.335027	0.908042	0.666693
N235	N	0.672323	0.074028	0.143866
N236	N	1.005656	0.407362	0.477199
N237	N	1.338989	0.740695	0.810532
N238	N	0.672364	0.073987	-0.143743
N239	N	1.005698	0.407320	0.189590
N240	N	1.339031	0.740654	0.522923
C241	C	0.711291	0.035063	0.563657
C242	C	1.044624	0.368397	0.896991
C243	C	1.377957	0.701730	1.230324
C244	C	0.711293	0.035059	0.627265
C245	C	1.044627	0.368393	0.960598
C246	C	1.377960	0.701726	1.293932
O247	O	0.744402	0.001938	0.660167
O248	O	1.077736	0.335271	0.993500
O249	O	1.411069	0.668604	1.326834
N250	N	0.672350	0.073990	0.659073
N251	N	1.005684	0.407323	0.992406
N252	N	1.339017	0.740657	1.325739
C253	C	0.633398	0.112923	0.627269
C254	C	0.966732	0.446257	0.960603
C255	C	1.300065	0.779590	1.293936
O256	O	0.600274	0.146036	0.660165
O257	O	0.933607	0.479370	0.993498
O258	O	1.266941	0.812703	1.326832
C259	C	0.633393	0.112924	0.563663
C260	C	0.966727	0.446257	0.896996
C261	C	1.300060	0.779591	1.230330
C262	C	0.672343	0.073995	0.531859
C263	C	1.005676	0.407328	0.865192
C264	C	1.339009	0.740661	1.198525
C265	C	0.750236	-0.003863	0.531853
C266	C	1.083570	0.329470	0.865186
C267	C	1.416903	0.662803	1.198520
C268	C	0.750234	-0.003858	0.468250
C269	C	1.083568	0.329475	0.801583
C270	C	1.416901	0.662808	1.134916
C271	C	0.711286	0.035073	0.436451
C272	C	1.044620	0.368406	0.769784
C273	C	1.377953	0.701740	1.103118
C274	C	0.672341	0.074000	0.468255
C275	C	1.005674	0.407333	0.801589
C276	C	1.339007	0.740666	1.134922
C277	C	0.594439	0.151854	0.531861
C278	C	0.927772	0.485188	0.865194
C279	C	1.261106	0.818521	1.198528
C280	C	0.594437	0.151851	0.468250
C281	C	0.927771	0.485185	0.801583
C282	C	1.261104	0.818518	1.134917
C283	C	0.633387	0.112922	0.436446
C284	C	0.966720	0.446255	0.769779
C285	C	1.300053	0.779589	1.103112
C286	C	0.633391	0.112936	0.372853
C287	C	0.966724	0.446269	0.706187
C288	C	1.300057	0.779602	1.039520
N289	N	0.672334	0.074005	0.341046
N290	N	1.005667	0.407338	0.674379
N291	N	1.339000	0.740672	1.007712
C292	C	0.711282	0.035074	0.372844
C293	C	1.044615	0.368407	0.706178
C294	C	1.377948	0.701740	1.039511
C295	C	0.633411	0.112918	0.760847
C296	C	0.966744	0.446251	1.094181
C297	C	1.300078	0.779585	1.427514
C298	C	0.633418	0.112921	0.824452
C299	C	0.966751	0.446254	1.157786
C300	C	1.300085	0.779587	1.491119
C301	C	0.711313	0.035056	0.824444
C302	C	1.044646	0.368389	1.157777
C303	C	1.377979	0.701722	1.491110
C304	C	0.711308	0.035057	0.760837
C305	C	1.044641	0.368390	1.094171
C306	C	1.377974	0.701723	1.427504
C307	C	0.672354	0.073988	0.729040
C308	C	1.005687	0.407321	1.062373
C309	C	1.339021	0.740654	1.395706
C310	C	0.711275	0.035087	0.239273
C311	C	1.044608	0.368420	0.572606
C312	C	1.377941	0.701754	0.905940
C313	C	0.711271	0.035097	0.175664
C314	C	1.044604	0.368430	0.508998
C315	C	1.377937	0.701764	0.842331
C316	C	0.633374	0.112959	0.175679
C317	C	0.966708	0.446293	0.509012
C318	C	1.300041	0.779626	0.842345
C319	C	0.633380	0.112952	0.239282
C320	C	0.966713	0.446285	0.572615
C321	C	1.300047	0.779618	0.905949
C322	C	0.672332	0.074011	0.271078
C323	C	1.005666	0.407344	0.604411
C324	C	1.338999	0.740678	0.937744
O325	O	0.600297	0.146039	0.339911
O326	O	0.933630	0.479372	0.673244
O327	O	1.266964	0.812706	1.006578
O328	O	0.744395	0.001961	0.339941
O329	O	1.077729	0.335295	0.673274
O330	O	1.411062	0.668628	1.006608
H331	H	0.118471	0.073373	0.155090
H332	H	0.451804	0.406706	0.488423
H333	H	0.785138	0.740039	0.821757
Br334	Br	0.803100	-0.056706	0.574998
Br335	Br	1.136434	0.276627	0.908331
Br336	Br	1.469767	0.609960	1.241664
Br337	Br	0.102369	0.073117	-0.184872
Br338	Br	0.435703	0.406450	0.148461
Br339	Br	0.769036	0.739783	0.481795
Br340	Br	0.498857	-0.332217	0.000029
Br341	Br	0.832190	0.001116	0.333363
Br342	Br	1.165523	0.334449	0.666696
Br343	Br	0.541566	0.204687	0.425101
Br344	Br	0.874899	0.538021	0.758434
Br345	Br	1.208232	0.871354	1.091767
Br346	Br	0.545837	-0.752527	0.000015
Br347	Br	0.879170	-0.419194	0.333348
Br348	Br	1.212504	-0.085860	0.666681
Br349	Br	0.541577	0.204689	0.575011
Br350	Br	0.874910	0.538022	0.908344
Br351	Br	1.208243	0.871356	1.241678
Br352	Br	0.375568	0.076449	-0.129798
Br353	Br	0.708901	0.409782	0.203536
Br354	Br	1.042234	0.743115	0.536869
H355	H	0.743023	0.003357	0.734946
H356	H	1.076357	0.336690	1.068279
H357	H	1.409690	0.670023	1.401612
H358	H	0.525565	-0.459928	0.000023
H359	H	0.858898	-0.126595	0.333356
H360	H	1.192232	0.206739	0.666690
Br361	Br	0.764171	-0.017780	0.867613
Br362	Br	1.097504	0.315554	1.200946
Br363	Br	1.430837	0.648887	1.534279
Br364	Br	0.580520	0.165795	0.132513
Br365	Br	0.913853	0.499128	0.465846
Br366	Br	1.247186	0.832461	0.799180
Br367	Br	0.580566	0.165764	0.867608
Br368	Br	0.913899	0.499098	1.200942
Br369	Br	1.247232	0.832431	1.534275
Br370	Br	0.547506	-0.612533	0.000011
Br371	Br	0.880840	-0.279199	0.333345
Br372	Br	1.214173	0.054134	0.666678
H373	H	0.742990	0.003396	0.149771
H374	H	1.076323	0.336729	0.483104
H375	H	1.409656	0.670063	0.816438
H376	H	0.580757	-0.193783	0.000069
H377	H	0.914090	0.139551	0.333402
H378	H	1.247423	0.472884	0.666735
Br379	Br	0.554058	-0.066046	0.000077
Br380	Br	0.887391	0.267287	0.333410
Br381	Br	1.220725	0.600621	0.666743
Br382	Br	0.845815	-0.519786	0.000042
Br383	Br	1.179149	-0.186453	0.333375
Br384	Br	1.512482	0.146880	0.666708
H385	H	0.770460	-0.111738	0.000114
H386	H	1.103794	0.221596	0.333447
H387	H	1.437127	0.554929	0.666781
H388	H	0.499459	0.077943	-0.099893
H389	H	0.832793	0.411276	0.233440
H390	H	1.166126	0.744610	0.566773
Br391	Br	0.580526	0.165793	0.282443
Br392	Br	0.913859	0.499127	0.615777
Br393	Br	1.247193	0.832460	0.949110
Br394	Br	0.515571	0.078176	0.129890
Br395	Br	0.848904	0.411509	0.463223
Br396	Br	1.182237	0.744842	0.796556
Br397	Br	0.375581	0.076468	0.129904
Br398	Br	0.708914	0.409801	0.463237
Br399	Br	1.042248	0.743135	0.796570
Br400	Br	0.797169	-0.239454	0.000091
Br401	Br	1.130503	0.093879	0.333424
Br402	Br	1.463836	0.427212	0.666757
Br403	Br	0.847498	-0.379795	0.000052
Br404	Br	1.180832	-0.046462	0.333386
Br405	Br	1.514165	0.286872	0.666719
H406	H	0.763920	-0.658195	0.000055
H407	H	1.097253	-0.324861	0.333388
H408	H	1.430587	0.008472	0.666721
H409	H	0.762625	-0.765962	0.000042
H410	H	1.095958	-0.432629	0.333376
H411	H	1.429292	-0.099296	0.666709
Br412	Br	0.764139	-0.017762	0.282414
Br413	Br	1.097472	0.315571	0.615747
Br414	Br	1.430805	0.648905	0.949081
H415	H	0.781949	-0.035559	0.442358
H416	H	1.115282	0.297774	0.775692
H417	H	1.448615	0.631107	1.109025
Br418	Br	0.242361	0.074796	-0.184871
Br419	Br	0.575695	0.408130	0.148462
Br420	Br	0.909028	0.741463	0.481795
H421	H	0.601691	0.144625	0.734961
H422	H	0.935025	0.477958	1.068294
H423	H	1.268358	0.811292	1.401627
H424	H	0.226215	0.074674	0.155085
H425	H	0.559548	0.408008	0.488419
H426	H	0.892881	0.741341	0.821752
Br427	Br	-0.030889	0.071535	-0.129779
Br428	Br	0.302445	0.404868	0.203554
Br429	Br	0.635778	0.738201	0.536887
H430	H	-0.047012	0.071378	0.100016
H431	H	0.286321	0.404712	0.433349
H432	H	0.619655	0.738045	0.766683
H433	H	-0.154777	0.070078	0.100015
H434	H	0.178556	0.403411	0.433348
H435	H	0.511890	0.736745	0.766681
H436	H	-0.154761	0.070060	-0.099865
H437	H	0.178573	0.403393	0.233468
H438	H	0.511906	0.736727	0.566802
