data_functionalizedCrystal
_audit_creation_method	'MofGen! by Chris Wilmer'
_symmetry_space_group_name_H-M	'P1'
_symmetry_Int_Tables_number	1
_symmetry_cell_setting	triclinic
loop_
_symmetry_equiv_pos_as_xyz
  x,y,z
_cell_length_a	6.817900
_cell_length_b	16.418049
_cell_length_c	11.102193
_cell_angle_alpha	93.887827
_cell_angle_beta	108.604059
_cell_angle_gamma	103.389670
loop_
_atom_site_label
_atom_site_type_symbol
_atom_site_fract_x
_atom_site_fract_y
_atom_site_fract_z
V1	V	-4.085012	-0.115892	-0.396705
O2	O	-4.071820	0.005563	-0.388693
O3	O	-4.035743	-0.229788	-0.394435
O4	O	-4.062193	-0.114112	-0.569520
O5	O	-4.045186	-0.110914	-0.212396
V6	V	-4.565438	-0.101364	-0.374606
O7	O	-4.353065	-0.147760	-0.445180
O8	O	-4.747583	-0.069497	-0.326131
O9	O	-4.391500	0.012532	-0.376877
O10	O	-4.696027	-0.222819	-0.382619
O11	O	-4.722661	-0.106342	-0.558916
O12	O	-4.365050	-0.103144	-0.201792
C13	C	-3.879705	-0.257554	-0.388291
C14	C	-3.920879	-0.350666	-0.387587
C15	C	-4.198616	-0.569155	-0.392347
C16	C	-4.237294	-0.656645	-0.391697
C17	C	-3.871193	-0.648100	-0.378972
C18	C	-3.832523	-0.560614	-0.379632
C19	C	-3.996238	-0.521143	-0.386313
C20	C	-4.073586	-0.696119	-0.385003
C21	C	-4.115521	-0.790979	-0.384297
C22	C	-3.954303	-0.426277	-0.387021
C23	C	-3.913444	-0.109996	-0.611627
C24	C	-3.976064	-0.109294	-0.752907
C25	C	-4.061311	-0.262706	-0.789827
C26	C	-4.133345	-0.339079	-0.874658
C27	C	-4.192183	-0.338415	-1.007401
C28	C	-4.178990	-0.261370	-1.055315
C29	C	-4.106955	-0.184997	-0.970484
C30	C	-4.048114	-0.185669	-0.837739
C31	C	-4.021724	-0.031588	-0.933565
C32	C	-3.962871	-0.032250	-0.800821
C33	C	-4.008530	0.045457	-0.981479
C34	C	-3.936480	0.121832	-0.896647
C35	C	-3.877638	0.121165	-0.763896
C36	C	-3.890836	0.044123	-0.715990
C37	C	-4.210880	0.040293	-0.383017
C38	C	-4.148945	0.133404	-0.383730
C39	C	-4.177141	-0.107263	-0.159677
C40	C	-4.093759	-0.107960	-0.018396
H41	H	-3.667717	-0.521521	-0.374723
N42	N	-4.147547	-0.422172	-0.822975
H43	H	-4.202108	-0.470451	-0.896859
H44	H	-4.249483	-0.428642	-0.773113
N45	N	-4.269901	-0.420785	-1.098907
H46	H	-4.269341	-0.469694	-1.048418
H47	H	-4.171675	-0.421001	-1.150376
H48	H	-4.056459	0.045992	-1.089567
H49	H	-4.226929	-0.260836	-1.163404
H50	H	-3.818996	0.183357	-0.694833
N51	N	-3.997763	-0.263420	-0.646651
H52	H	-4.017025	-0.323812	-0.629169
H53	H	-4.091343	-0.236275	-0.611898
N54	N	-4.375194	-0.526582	-0.399579
H55	H	-4.328275	-0.482340	-0.320957
H56	H	-4.509203	-0.570332	-0.403352
H57	H	-3.925760	0.184555	-0.935671
N58	N	-3.827111	0.043410	-0.572809
H59	H	-3.846319	-0.016982	-0.555331
H60	H	-3.920590	0.070555	-0.537959
H61	H	-4.402088	-0.695733	-0.396613
H62	H	-3.737906	-0.680248	-0.373530
