data_functionalizedCrystal
_audit_creation_method	'MofGen! by Chris Wilmer'
_symmetry_space_group_name_H-M	'P1'
_symmetry_Int_Tables_number	1
_symmetry_cell_setting	triclinic
loop_
_symmetry_equiv_pos_as_xyz
  x,y,z
_cell_length_a	13.897449
_cell_length_b	12.827892
_cell_length_c	12.827885
_cell_angle_alpha	90.029786
_cell_angle_beta	89.979901
_cell_angle_gamma	89.983328
loop_
_atom_site_label
_atom_site_type_symbol
_atom_site_fract_x
_atom_site_fract_y
_atom_site_fract_z
Zn1	Zn	1.474712	0.415947	-0.590872
Zn2	Zn	1.474614	0.590724	-0.416132
Zn3	Zn	1.313403	0.416002	-0.416143
Zn4	Zn	1.313389	0.590650	-0.590830
O5	O	1.394030	0.503331	-0.503494
O6	O	1.609681	0.439139	-0.567705
O7	O	1.453194	0.567601	-0.269897
O8	O	1.334848	0.269758	-0.439343
O9	O	1.609609	0.567547	-0.439325
O10	O	1.453361	0.269718	-0.567716
O11	O	1.334753	0.439233	-0.269905
O12	O	1.178420	0.439161	-0.439302
O13	O	1.334824	0.567422	-0.737071
O14	O	1.178410	0.567475	-0.567644
O15	O	1.453347	0.439068	-0.737102
O16	O	1.453181	0.736950	-0.439284
O17	O	1.334730	0.736896	-0.567633
C18	C	1.393969	0.774841	-0.503476
C19	C	1.394032	0.890994	-0.503503
C20	C	1.143415	0.503317	-0.503470
C21	C	1.036201	0.503336	-0.503485
C22	C	1.394095	0.503230	-0.776064
C23	C	1.394123	0.503188	-0.892218
C24	C	0.839906	0.503340	-0.503512
C25	C	0.949139	0.503334	-0.503494
C26	C	1.645623	0.503345	-0.503519
C27	C	1.752836	0.503352	-0.503529
C28	C	1.394116	0.230761	-0.503535
C29	C	1.394153	0.114607	-0.503553
C30	C	1.452715	0.942771	-0.440062
C31	C	1.452781	1.062821	-0.440088
C32	C	1.335523	0.566630	-1.064031
C33	C	1.335493	0.566675	-0.943981
C34	C	1.394020	0.503355	-0.231984
C35	C	1.394179	0.503104	-0.115832
H36	H	1.502911	0.898225	-0.385731
H37	H	1.285280	0.621066	-0.899434
H38	H	1.444346	0.448801	-0.936758
H39	H	1.444369	0.448746	-1.071303
H40	H	1.503019	1.107348	-0.385771
H41	H	1.343844	0.935542	-0.557840
F42	F	1.328475	1.056418	-0.574546
H43	H	1.285326	0.620980	-1.108560
