data_functionalizedCrystal
_audit_creation_method	'MofGen! by Chris Wilmer'
_symmetry_space_group_name_H-M	'P1'
_symmetry_Int_Tables_number	1
_symmetry_cell_setting	triclinic
loop_
_symmetry_equiv_pos_as_xyz
  x,y,z
_cell_length_a	19.805407
_cell_length_b	19.120786
_cell_length_c	19.805399
_cell_angle_alpha	87.531070
_cell_angle_beta	89.980427
_cell_angle_gamma	92.465080
loop_
_atom_site_label
_atom_site_type_symbol
_atom_site_fract_x
_atom_site_fract_y
_atom_site_fract_z
Zn1	Zn	1.023244	-0.279646	-0.371215
Zn2	Zn	1.018332	-0.397105	-0.253195
Zn3	Zn	0.910058	-0.279666	-0.258039
Zn4	Zn	0.905197	-0.397068	-0.366343
O5	O	0.964208	-0.338371	-0.312198
O6	O	1.117309	-0.295235	-0.355571
O7	O	1.003948	-0.381550	-0.159120
O8	O	0.929162	-0.181373	-0.277118
O9	O	1.113700	-0.381532	-0.268862
O10	O	1.012320	-0.181359	-0.360269
O11	O	0.924399	-0.295268	-0.162679
O12	O	0.814697	-0.295232	-0.272394
O13	O	0.920877	-0.381468	-0.461707
O14	O	0.811125	-0.381487	-0.351965
O15	O	1.007606	-0.295199	-0.465287
O16	O	0.999234	-0.495390	-0.264138
O17	O	0.916114	-0.495363	-0.347268
C18	C	0.788352	-0.338358	-0.312177
C19	C	0.713120	-0.338369	-0.312183
C20	C	0.675931	-0.383350	-0.353543
C21	C	0.605242	-0.383351	-0.353552
C22	C	0.571744	-0.338374	-0.312198
C23	C	0.608938	-0.293389	-0.270837
C24	C	0.679625	-0.293385	-0.270831
C25	C	0.323864	-0.293404	-0.270859
C26	C	0.253172	-0.293414	-0.270866
C27	C	0.249481	-0.383371	-0.353579
C28	C	0.320169	-0.383366	-0.353574
C29	C	0.357356	-0.338378	-0.312216
C30	C	0.434005	-0.338377	-0.312207
C31	C	0.495097	-0.338379	-0.312203
C32	C	0.956632	-0.520862	-0.304663
C33	C	0.953453	-0.598933	-0.301462
C34	C	0.995223	-0.635543	-0.343286
C35	C	0.992234	-0.708898	-0.340279
C36	C	0.947477	-0.745642	-0.295446
C37	C	0.905703	-0.709027	-0.253621
C38	C	0.908689	-0.635673	-0.256631
C39	C	0.936292	-0.967128	-0.284192
C40	C	0.933310	-1.040487	-0.281184
C41	C	1.019840	-1.040353	-0.367844
C42	C	1.022826	-0.966997	-0.370847
C43	C	0.981049	-0.930389	-0.329025
C44	C	0.944422	-0.820624	-0.292370
C45	C	0.984101	-0.855409	-0.332104
C46	C	1.140750	-0.338385	-0.312220
C47	C	1.215982	-0.338391	-0.312229
C48	C	0.964247	-0.338327	-0.488743
C49	C	0.964264	-0.338308	-0.563976
C50	C	0.971831	-0.155168	-0.319777
C51	C	0.975080	-0.077097	-0.323007
C52	C	1.009425	-0.293386	-0.601185
C53	C	1.009433	-0.293365	-0.671874
C54	C	0.964283	-0.338271	-0.705353
C55	C	0.919117	-0.383196	-0.668139
C56	C	0.919107	-0.383212	-0.597451
C57	C	0.919158	-0.383131	-0.953215
C58	C	0.919173	-0.383112	-1.023908
C59	C	1.009484	-0.293283	-1.027638
C60	C	1.009474	-0.293300	-0.956950
C61	C	0.964306	-0.338221	-0.919742
C62	C	0.964297	-0.338242	-0.843093
C63	C	0.964294	-0.338255	-0.782001
C64	C	0.964209	-0.338365	-0.136342
C65	C	0.964331	-0.338186	-0.061118
H66	H	0.354134	-0.256778	-0.237177
O67	O	1.038683	-0.599744	-0.386778
C68	C	1.081604	-0.486682	-0.429856
C69	C	1.032368	-0.527134	-0.380555
H70	H	1.076505	-0.427970	-0.424852
H71	H	1.135621	-0.501012	-0.417434
H72	H	1.069103	-0.501125	-0.483821
H73	H	1.044807	-0.512712	-0.326573
H74	H	0.978366	-0.512800	-0.393036
H75	H	1.026252	-0.738703	-0.374331
H76	H	0.907983	-0.850549	-0.255865
O77	O	0.875252	-0.426823	-0.917179
C78	C	0.785623	-0.515867	-0.920947
C79	C	0.835330	-0.466437	-0.961843
H80	H	0.753323	-0.547897	-0.957041
H81	H	0.815111	-0.552658	-0.886345
H82	H	0.751602	-0.483597	-0.889174
H83	H	0.869363	-0.498650	-0.993655
H84	H	0.805800	-0.429644	-0.996403
H85	H	0.874675	-0.605866	-0.222575
H86	H	0.219194	-0.419999	-0.387258
O87	O	0.708441	-0.426965	-0.393815
C88	C	0.728663	-0.461240	-0.507478
C89	C	0.691820	-0.411793	-0.461945
H90	H	0.715226	-0.449001	-0.562569
H91	H	0.785581	-0.453511	-0.500429
H92	H	0.712418	-0.517857	-0.493132
H93	H	0.708008	-0.355157	-0.476262
H94	H	0.634908	-0.419583	-0.469000
O95	O	0.576364	-0.249797	-0.230592
C96	C	0.496880	-0.240222	-0.139657
C97	C	0.533736	-0.289670	-0.185178
H98	H	0.462396	-0.272438	-0.102938
H99	H	0.535572	-0.208081	-0.110045
H100	H	0.465352	-0.203529	-0.172325
H101	H	0.565264	-0.326405	-0.152560
H102	H	0.495010	-0.321761	-0.214794
O103	O	1.053450	-0.249714	-1.063750
C104	C	1.170005	-0.215596	-1.086781
C105	C	1.120290	-0.264989	-1.045854
H106	H	1.224056	-0.227918	-1.072317
H107	H	1.162316	-0.223295	-1.143062
H108	H	1.160440	-0.158967	-1.075228
H109	H	1.129825	-0.321637	-1.057350
H110	H	1.127990	-0.257229	-0.989585
O111	O	0.875164	-0.426744	-0.700630
C112	C	0.758616	-0.460855	-0.720791
C113	C	0.808317	-0.411479	-0.683970
H114	H	0.704561	-0.448542	-0.707325
H115	H	0.766322	-0.453128	-0.777714
H116	H	0.768179	-0.517491	-0.704556
H117	H	0.798785	-0.354825	-0.700150
H118	H	0.800600	-0.419267	-0.627055
O119	O	0.220552	-0.249691	-0.230786
C120	C	0.144684	-0.154845	-0.225752
C121	C	0.181576	-0.204317	-0.271219
H122	H	0.113174	-0.118138	-0.258425
H123	H	0.110201	-0.187018	-0.188999
H124	H	0.183411	-0.122720	-0.196170
H125	H	0.142897	-0.236453	-0.300845
H126	H	0.216071	-0.172104	-0.307930
H127	H	0.882326	-0.419786	-0.567156
O128	O	0.715649	-0.249672	-0.230587
C129	C	0.711855	-0.160420	-0.148569
C130	C	0.670976	-0.209902	-0.194100
H131	H	0.675755	-0.128243	-0.119068
H132	H	0.743580	-0.192586	-0.111752
H133	H	0.746502	-0.123763	-0.181222
H134	H	0.636292	-0.246569	-0.161501
H135	H	0.639295	-0.177693	-0.230921
H136	H	1.059270	-0.937082	-0.407354
H137	H	1.020540	-0.825490	-0.368610
H138	H	1.046209	-0.256786	-0.702167
O139	O	1.060347	-1.076023	-0.408445
C140	C	1.094125	-1.188970	-0.442192
C141	C	1.048202	-1.148661	-0.396179
H142	H	1.084332	-1.247704	-0.432281
H143	H	1.082789	-1.174575	-0.497363
H144	H	1.149293	-1.174463	-0.430961
H145	H	0.993019	-1.163147	-0.407350
H146	H	1.059596	-1.163059	-0.341022
O147	O	0.889891	-1.076290	-0.237646
C148	C	0.846929	-1.189358	-0.194627
C149	C	0.896134	-1.148899	-0.243953
H150	H	0.851949	-1.248070	-0.199719
H151	H	0.859432	-1.175008	-0.140635
H152	H	0.792936	-1.174943	-0.207045
H153	H	0.950143	-1.163293	-0.231597
H154	H	0.883573	-1.163253	-0.297930
O155	O	0.895694	-0.931681	-0.243491
C156	C	0.809538	-0.939562	-0.157234
C157	C	0.855487	-0.979797	-0.203285
H158	H	0.777009	-0.978446	-0.124726
H159	H	0.842003	-0.905235	-0.123236
H160	H	0.775550	-0.905211	-0.189689
H161	H	0.889482	-1.014186	-0.170883
H162	H	0.822981	-1.014079	-0.237286
O163	O	0.862190	-0.744797	-0.210160
C164	C	0.767414	-0.827673	-0.197566
C165	C	0.816656	-0.787223	-0.246862
H166	H	0.730579	-0.861973	-0.227221
H167	H	0.797075	-0.862055	-0.160804
H168	H	0.738104	-0.788892	-0.168177
H169	H	0.845979	-0.825954	-0.276298
H170	H	0.786957	-0.752831	-0.283581
H171	H	1.046194	-0.256820	-0.573932
O172	O	1.053235	-0.249633	-0.924362
C173	C	1.066251	-0.154777	-0.848529
C174	C	1.016623	-0.204206	-0.885376
H175	H	1.036670	-0.118027	-0.817011
H176	H	1.100294	-0.186982	-0.814057
H177	H	1.098538	-0.122697	-0.887284
H178	H	0.984292	-0.236297	-0.846670
H179	H	0.982626	-0.171960	-0.919860
O180	O	0.569095	-0.426950	-0.393803
C181	C	0.488906	-0.436546	-0.484761
C182	C	0.529814	-0.387088	-0.439230
H183	H	0.457127	-0.404339	-0.521490
H184	H	0.524965	-0.468680	-0.514360
H185	H	0.454306	-0.473246	-0.452100
H186	H	0.564416	-0.350346	-0.471840
H187	H	0.493716	-0.355003	-0.409626
O188	O	0.352603	-0.427078	-0.393809
C189	C	0.341479	-0.516333	-0.475827
C190	C	0.304664	-0.466855	-0.430303
H191	H	0.302736	-0.548515	-0.505335
H192	H	0.375903	-0.484163	-0.512639
H193	H	0.373059	-0.552985	-0.443168
H194	H	0.273048	-0.430193	-0.462908
H195	H	0.270281	-0.499069	-0.393488
H196	H	0.882404	-0.419682	-1.051164
