data_functionalizedCrystal
_audit_creation_method	'MofGen! by Chris Wilmer'
_symmetry_space_group_name_H-M	'P1'
_symmetry_Int_Tables_number	1
_symmetry_cell_setting	triclinic
loop_
_symmetry_equiv_pos_as_xyz
  x,y,z
_cell_length_a	19.805407
_cell_length_b	16.120531
_cell_length_c	19.805399
_cell_angle_alpha	92.867547
_cell_angle_beta	90.019573
_cell_angle_gamma	87.067642
loop_
_atom_site_label
_atom_site_type_symbol
_atom_site_fract_x
_atom_site_fract_y
_atom_site_fract_z
Zn1	Zn	1.021043	0.331927	0.396361
Zn2	Zn	1.521043	0.831927	0.896361
Zn3	Zn	1.015207	0.471346	0.288902
Zn4	Zn	1.515207	0.971346	0.788902
Zn5	Zn	0.907857	0.331950	0.283186
Zn6	Zn	1.407857	0.831950	0.783186
Zn7	Zn	0.902072	0.471302	0.402047
Zn8	Zn	1.402072	0.971302	0.902047
O9	O	0.961545	0.401631	0.342624
O10	O	1.461545	0.901631	0.842624
O11	O	1.114985	0.350431	0.382118
O12	O	1.614985	0.850431	0.882118
O13	O	1.000945	0.452883	0.193428
O14	O	1.500945	0.952883	0.693428
O15	O	0.927735	0.215281	0.293427
O16	O	1.427735	0.715281	0.793427
O17	O	1.110698	0.452861	0.303169
O18	O	1.610698	0.952861	0.803169
O19	O	1.010892	0.215264	0.376576
O20	O	1.510892	0.715264	0.876576
O21	O	0.922076	0.350470	0.189229
O22	O	1.422076	0.850470	0.689229
O23	O	0.812374	0.350427	0.298941
O24	O	1.312374	0.850427	0.798941
O25	O	0.917876	0.452785	0.496008
O26	O	1.417876	0.952785	0.996008
O27	O	0.808123	0.452807	0.386267
O28	O	1.308123	0.952807	0.886267
O29	O	1.005283	0.350388	0.491830
O30	O	1.505283	0.850388	0.991830
O31	O	0.995336	0.588006	0.308683
O32	O	1.495336	1.088006	0.808683
O33	O	0.912216	0.587974	0.391810
O34	O	1.412216	1.087974	0.891810
C35	C	0.785690	0.401615	0.342601
C36	C	1.285690	0.901615	0.842601
C37	C	0.710457	0.401629	0.342609
C38	C	1.210457	0.901629	0.842609
C39	C	0.672914	0.455019	0.388013
C40	C	1.172914	0.955019	0.888013
C41	C	0.602226	0.455020	0.388022
C42	C	1.102226	0.955020	0.888022
C43	C	0.569081	0.401635	0.342624
C44	C	1.069081	0.901635	0.842624
C45	C	0.606629	0.348239	0.297218
C46	C	1.106629	0.848239	0.797218
C47	C	0.677317	0.348234	0.297212
C48	C	1.177317	0.848234	0.797212
C49	C	0.321555	0.348258	0.297241
C50	C	0.821555	0.848258	0.797241
C51	C	0.250863	0.348269	0.297249
C52	C	0.750863	0.848269	0.797249
C53	C	0.246464	0.455043	0.388051
C54	C	0.746464	0.955043	0.888051
C55	C	0.317152	0.455038	0.388045
C56	C	0.817152	0.955038	0.888045
C57	C	0.354694	0.401640	0.342642
C58	C	0.854694	0.901640	0.842642
C59	C	0.431342	0.401638	0.342633
C60	C	0.931342	0.901638	0.842633
C61	C	0.492434	0.401641	0.342629
C62	C	0.992434	0.901641	0.842629
C63	C	0.952534	0.618240	0.351498
C64	C	1.452534	1.118240	0.851498
C65	C	0.948740	0.710906	0.355317
C66	C	1.448740	1.210906	0.855317
C67	C	0.941819	0.880568	0.362304
C68	C	1.441819	1.380568	0.862304
C69	C	0.981297	0.921854	0.322906
C70	C	1.481297	1.421854	0.822906
C71	C	0.977445	1.016260	0.326793
C72	C	1.477445	1.516260	0.826793
C73	C	0.945669	0.786154	0.358417
C74	C	1.445669	1.286154	0.858417
C75	C	1.138087	0.401648	0.342647
C76	C	1.638087	0.901648	0.842647
C77	C	1.213319	0.401655	0.342657
C78	C	1.713319	0.901655	0.842657
C79	C	0.961585	0.401579	0.519165
C80	C	1.461585	0.901579	1.019165
C81	C	0.961602	0.401556	0.594396
C82	C	1.461602	0.901556	1.094396
C83	C	0.970586	1.184177	0.333717
C84	C	1.470586	1.684177	0.833717
C85	C	0.974377	1.091511	0.329890
C86	C	1.474377	1.591511	0.829890
C87	C	0.961546	0.401624	0.166768
C88	C	1.461546	0.901624	0.666768
C89	C	0.961670	0.401411	0.091527
C90	C	1.461670	0.901411	0.591527
C91	C	1.007116	0.348235	0.627565
C92	C	1.507116	0.848235	1.127565
C93	C	1.007124	0.348211	0.698253
C94	C	1.507124	0.848211	1.198253
C95	C	0.961621	0.401513	0.735770
C96	C	1.461621	0.901513	1.235770
C97	C	0.916102	0.454836	0.702595
C98	C	1.416102	0.954836	1.202595
C99	C	0.916091	0.454856	0.631908
C100	C	1.416091	0.954856	1.131908
C101	C	0.916143	0.454759	0.987665
C102	C	1.416143	0.954759	1.487665
C103	C	0.916159	0.454737	1.058356
C104	C	1.416159	0.954737	1.558356
C105	C	1.007176	0.348114	1.054010
C106	C	1.507176	0.848114	1.554010
C107	C	1.007166	0.348134	0.983323
C108	C	1.507166	0.848134	1.483323
C109	C	0.961645	0.401453	0.950155
C110	C	1.461645	0.901453	1.450155
C111	C	0.961636	0.401478	0.873507
C112	C	1.461636	0.901478	1.373507
C113	C	0.961632	0.401493	0.812416
C114	C	1.461632	0.901493	1.312416
H115	H	0.571661	0.498496	0.424994
H116	H	1.071661	0.998496	0.924994
C117	C	0.262307	0.242702	0.207497
C118	C	0.762307	0.742702	0.707497
C119	C	0.214429	0.289577	0.247348
C120	C	0.714429	0.789577	0.747348
H121	H	0.239813	0.206467	0.176696
H122	H	0.739813	0.706467	0.676696
H123	H	0.288358	0.278975	0.183039
H124	H	0.788358	0.778975	0.683039
H125	H	0.291215	0.210861	0.235733
H126	H	0.791215	0.710861	0.735733
H127	H	0.185524	0.321422	0.219113
H128	H	0.685524	0.821422	0.719113
H129	H	0.188367	0.253299	0.271809
H130	H	0.688367	0.753299	0.771809
C131	C	1.021272	0.235933	1.128909
C132	C	1.521272	0.735933	1.628909
C133	C	1.057209	0.289491	1.090468
C134	C	1.557209	0.789491	1.590468
H135	H	1.052162	0.199741	1.151411
H136	H	1.552162	0.699741	1.651411
H137	H	0.994181	0.267672	1.161367
H138	H	1.494181	0.767672	1.661367
H139	H	0.993110	0.204053	1.100014
H140	H	1.493110	0.704053	1.600014
H141	H	1.085368	0.321376	1.119364
H142	H	1.585368	0.821376	1.619364
H143	H	1.084312	0.257749	1.058006
H144	H	1.584312	0.757749	1.558006
C145	C	0.824603	0.466340	0.908635
C146	C	1.324603	0.966340	1.408635
C147	C	0.866111	0.513365	0.951204
C148	C	1.366111	1.013365	1.451204
H149	H	0.793713	0.502522	0.886125
H150	H	1.293713	1.002522	1.386125
H151	H	0.851703	0.434603	0.876183
H152	H	1.351703	0.934603	1.376183
H153	H	0.800235	0.430011	0.934730
H154	H	1.300235	0.930011	1.434730
H155	H	0.890484	0.549689	0.925108
H156	H	1.390484	1.049689	1.425108
H157	H	0.839008	0.545116	0.983660
H158	H	1.339008	1.045116	1.483660
C159	C	0.902010	0.567012	0.556990
C160	C	1.402010	1.067012	1.056990
C161	C	0.866067	0.513469	0.595439
C162	C	1.366067	1.013469	1.095439
H163	H	0.871124	0.603192	0.534471
H164	H	1.371124	1.103192	1.034471
H165	H	0.930165	0.598898	0.585876
H166	H	1.430165	1.098898	1.085876
H167	H	0.929108	0.535256	0.524538
H168	H	1.429108	1.035256	1.024538
H169	H	0.838972	0.545224	0.627894
H170	H	1.338972	1.045224	1.127894
H171	H	0.837899	0.481580	0.566550
H172	H	1.337899	0.981580	1.066550
H173	H	0.879101	0.498143	1.088901
H174	H	1.379101	0.998143	1.588901
C175	C	0.826128	0.560230	0.699786
C176	C	1.326128	1.060230	1.199786
C177	C	0.866082	0.513427	0.743831
C178	C	1.366082	1.013427	1.243831
H179	H	0.795246	0.596400	0.725244
H180	H	1.295246	1.096400	1.225244
H181	H	0.854283	0.592129	0.673526
H182	H	1.354283	1.092129	1.173526
H183	H	0.801749	0.523901	0.670725
H184	H	1.301749	1.023901	1.170725
H185	H	0.890464	0.549756	0.772889
H186	H	1.390464	1.049756	1.272889
H187	H	0.837922	0.481526	0.770102
H188	H	1.337922	0.981526	1.270102
C189	C	0.661459	0.560557	0.477776
C190	C	1.161459	1.060557	0.977776
C191	C	0.709343	0.513699	0.437919
C192	C	1.209343	1.013699	0.937919
H193	H	0.683950	0.596779	0.508591
H194	H	1.183950	1.096779	1.008591
H195	H	0.632555	0.592402	0.449552
H196	H	1.132555	1.092402	0.949552
H197	H	0.635407	0.524265	0.502226
H198	H	1.135407	1.024265	1.002226
H199	H	0.735393	0.549990	0.413465
H200	H	1.235393	1.049990	0.913465
H201	H	0.738259	0.481852	0.466147
H202	H	1.238259	0.981852	0.966147
C203	C	0.898009	1.014146	0.406087
C204	C	1.398009	1.514146	0.906087
C205	C	0.892284	0.928559	0.411771
C206	C	1.392284	1.428559	0.911771
H207	H	0.867423	1.043779	0.436621
H208	H	1.367423	1.543779	0.936621
H209	H	0.942907	1.028302	0.416614
H210	H	1.442907	1.528302	0.916614
H211	H	0.887566	1.028402	0.361171
H212	H	1.387566	1.528402	0.861171
H213	H	0.902731	0.914303	0.456686
H214	H	1.402731	1.414303	0.956686
H215	H	0.847375	0.914398	0.401248
H216	H	1.347375	1.414398	0.901248
H217	H	1.044222	0.304733	0.952781
H218	H	1.544222	0.804733	1.452781
C219	C	0.305702	0.560578	0.477810
C220	C	0.805702	1.060578	0.977810
C221	C	0.353584	0.513718	0.437951
C222	C	0.853584	1.013718	0.937951
H223	H	0.328195	0.596799	0.508623
H224	H	0.828195	1.096799	1.008623
H225	H	0.276798	0.592425	0.449586
H226	H	0.776798	1.092425	0.949586
H227	H	0.279649	0.524288	0.502260
H228	H	0.779649	1.024288	1.002260
H229	H	0.379634	0.550007	0.413496
H230	H	0.879634	1.050007	0.913496
H231	H	0.382499	0.481869	0.466178
H232	H	0.882499	0.981869	0.966178
H233	H	0.215889	0.498520	0.425023
H234	H	0.715889	0.998520	0.925023
H235	H	1.044173	0.304833	0.597024
H236	H	1.544173	0.804833	1.097024
H237	H	1.017986	0.886299	0.286256
H238	H	1.517986	1.386299	0.786256
C239	C	1.097102	0.242832	0.686857
C240	C	1.597102	0.742832	1.186857
C241	C	1.057160	0.289605	0.734713
C242	C	1.557160	0.789605	1.234713
H243	H	1.127996	0.206653	0.709367
H244	H	1.627996	0.706653	1.209367
H245	H	1.068941	0.210945	0.657978
H246	H	1.568941	0.710945	1.157978
H247	H	1.121468	0.279180	0.660777
H248	H	1.621468	0.779180	1.160777
H249	H	1.032790	0.253257	0.760790
H250	H	1.532790	0.753257	1.260790
H251	H	1.085325	0.321494	0.763604
H252	H	1.585325	0.821494	1.263604
H253	H	0.579637	0.304769	0.260256
H254	H	1.079637	0.804769	0.760256
H255	H	0.352113	0.304784	0.260266
H256	H	0.852113	0.804784	0.760266
H257	H	0.707883	0.304754	0.260243
H258	H	1.207883	0.804754	0.760243
