data_functionalizedCrystal
_audit_creation_method	'MofGen! by Chris Wilmer'
_symmetry_space_group_name_H-M	'P1'
_symmetry_Int_Tables_number	1
_symmetry_cell_setting	triclinic
loop_
_symmetry_equiv_pos_as_xyz
  x,y,z
_cell_length_a	10.654550
_cell_length_b	17.699083
_cell_length_c	9.130313
_cell_angle_alpha	89.994594
_cell_angle_beta	89.999724
_cell_angle_gamma	83.883973
loop_
_atom_site_label
_atom_site_type_symbol
_atom_site_fract_x
_atom_site_fract_y
_atom_site_fract_z
O1	O	1.665979	0.106303	-0.121693
O2	O	1.300323	0.116430	-0.121721
O3	O	1.493481	0.001243	-0.121693
O4	O	1.472820	0.221490	-0.121721
O5	O	1.493468	0.001240	0.121906
O6	O	1.300310	0.116427	0.121878
O7	O	1.665966	0.106299	0.121906
Cu8	Cu	1.483136	0.111363	0.144134
Cu9	Cu	1.483152	0.111367	-0.143949
O10	O	1.472807	0.221487	0.121878
C11	C	1.253531	0.115685	0.000076
C12	C	1.114127	0.113460	0.000066
C13	C	1.033454	0.181281	0.000061
C14	C	0.902470	0.179186	0.000087
C15	C	0.932844	0.041444	0.000115
C16	C	1.063826	0.043539	0.000100
C17	C	1.492735	-0.026960	0.000106
C18	C	1.490514	-0.110993	0.000107
C19	C	1.603894	-0.158893	0.000117
C20	C	1.601799	-0.237849	0.000104
C21	C	1.486323	-0.268904	0.000091
C22	C	1.372935	-0.220998	0.000076
C23	C	1.375030	-0.142043	0.000079
C24	C	1.364481	-0.539415	0.000064
C25	C	1.362394	-0.618376	0.000065
C26	C	1.591249	-0.635221	0.000089
C27	C	1.593345	-0.556266	0.000092
C28	C	1.479957	-0.508367	0.000069
C29	C	1.482229	-0.422753	0.000080
C30	C	1.484050	-0.354516	0.000090
C31	C	1.712757	0.107045	0.000106
C32	C	1.852161	0.109269	0.000107
C33	C	1.473554	0.249690	0.000075
C34	C	1.475775	0.333722	0.000065
N35	N	1.483135	0.111360	0.346757
N36	N	1.483164	0.111364	-0.346572
C37	C	1.568694	0.060376	0.423421
C38	C	1.568706	0.060376	0.576758
C39	C	1.397596	0.162350	0.576753
C40	C	1.397579	0.162345	0.423419
H41	H	0.891873	-0.015484	0.000152
O42	O	1.305297	0.217339	0.340714
H43	H	1.245821	0.252802	0.419779
O44	O	1.660936	0.005364	0.340740
H45	H	1.646552	0.013922	0.221236
O46	O	1.661002	0.005388	0.659432
H47	H	1.608276	-0.031703	0.729299
O48	O	1.087704	0.256694	0.000039
H49	H	1.192337	0.246761	0.000015
O50	O	1.305342	0.217349	0.659449
H51	H	1.245839	0.252798	0.580374
H52	H	0.836791	0.234412	0.000087
O53	O	1.724086	-0.289516	0.000140
H54	H	1.804735	-0.254657	0.000176
O55	O	1.150853	-0.029613	0.000108
H56	H	1.093873	-0.078585	0.000114
H57	H	1.282705	-0.103043	0.000070
O58	O	1.728443	-0.125398	0.000118
H59	H	1.806930	-0.171975	0.000104
H60	H	1.687377	-0.530986	0.000109
O61	O	1.248388	-0.254496	0.000069
H62	H	1.193926	-0.235306	-0.099228
H63	H	1.268354	-0.643657	0.000058
O64	O	1.713554	-0.686884	0.000108
H65	H	1.718099	-0.723250	-0.099185
O66	O	1.242190	-0.487756	0.000077
H67	H	1.161545	-0.522618	0.000093
