data_functionalizedCrystal
_audit_creation_method	'MofGen! by Chris Wilmer'
_symmetry_space_group_name_H-M	'P1'
_symmetry_Int_Tables_number	1
_symmetry_cell_setting	triclinic
loop_
_symmetry_equiv_pos_as_xyz
  x,y,z
_cell_length_a	16.992697
_cell_length_b	23.532407
_cell_length_c	15.455313
_cell_angle_alpha	92.643560
_cell_angle_beta	92.856959
_cell_angle_gamma	93.241435
loop_
_atom_site_label
_atom_site_type_symbol
_atom_site_fract_x
_atom_site_fract_y
_atom_site_fract_z
O1	O	-1.042900	0.118386	-0.072020
O2	O	-0.542900	0.618386	0.427980
O3	O	-0.814627	0.117061	-0.072049
O4	O	-0.314627	0.617061	0.427951
O5	O	-0.935647	0.035134	-0.072018
O6	O	-0.435647	0.535134	0.427982
O7	O	-0.921881	0.200313	-0.072051
O8	O	-0.421881	0.700313	0.427949
O9	O	-0.928726	0.039798	0.072243
O10	O	-0.428726	0.539798	0.572243
O11	O	-0.807707	0.121725	0.072211
O12	O	-0.307707	0.621725	0.572211
O13	O	-1.035980	0.123051	0.072240
O14	O	-0.535980	0.623051	0.572240
Cu15	Cu	-0.921212	0.122814	0.085398
Cu16	Cu	-0.421212	0.622814	0.585398
Cu17	Cu	-0.929396	0.117298	-0.085206
Cu18	Cu	-0.429396	0.617298	0.414794
O19	O	-0.914961	0.204977	0.072209
O20	O	-0.414961	0.704977	0.572209
C21	C	-0.781968	0.117689	0.000078
C22	C	-0.281968	0.617689	0.500078
C23	C	-0.694964	0.112605	0.000067
C24	C	-0.194964	0.612605	0.500067
C25	C	-0.644342	0.161651	0.000057
C26	C	-0.144342	0.661651	0.500057
C27	C	-0.562592	0.156872	0.000069
C28	C	-0.062592	0.656872	0.500069
C29	C	-0.531466	0.103046	0.000084
C30	C	-0.031466	0.603046	0.500084
C31	C	-0.582094	0.053996	0.000097
C32	C	-0.082094	0.553996	0.500097
C33	C	-0.663842	0.058776	0.000092
C34	C	-0.163842	0.558776	0.500092
C35	C	-0.288021	0.083234	0.000108
C36	C	0.211979	0.583234	0.500108
C37	C	-0.206267	0.078458	0.000110
C38	C	0.293733	0.578458	0.500110
C39	C	-0.186770	0.181334	0.000084
C40	C	0.313230	0.681334	0.500084
C41	C	-0.268521	0.186109	0.000073
C42	C	0.231479	0.686109	0.500073
C43	C	-0.319142	0.137060	0.000091
C44	C	0.180858	0.637060	0.500091
N45	N	-0.447905	0.098159	0.000094
N46	N	0.052095	0.598159	0.500094
N47	N	-0.402701	0.141947	0.000088
N48	N	0.097299	0.641947	0.500088
C49	C	-0.931836	0.016233	0.000115
C50	C	-0.431836	0.516233	0.500115
C51	C	-0.930781	-0.047036	0.000121
C52	C	-0.430781	0.452964	0.500121
C53	C	-0.995790	-0.442915	0.000082
C54	C	-0.495790	0.057085	0.500082
C55	C	-0.994811	-0.502364	0.000075
C56	C	-0.494811	-0.002364	0.500075
O57	O	-1.055074	-0.536119	0.000051
O58	O	-0.555074	-0.036119	0.500051
N59	N	-0.922864	-0.528561	0.000067
N60	N	-0.422864	-0.028561	0.500067
C61	C	-0.851892	-0.495305	0.000056
C62	C	-0.351892	0.004695	0.500056
O63	O	-0.790606	-0.523046	0.000047
O64	O	-0.290606	-0.023046	0.500047
C65	C	-0.852872	-0.435858	0.000057
C66	C	-0.352872	0.064142	0.500057
C67	C	-0.924823	-0.409664	0.000074
C68	C	-0.424823	0.090336	0.500074
C69	C	-1.067735	-0.416721	0.000098
C70	C	-0.567735	0.083279	0.500098
C71	C	-1.068713	-0.357276	0.000107
C72	C	-0.568713	0.142724	0.500107
C73	C	-0.997747	-0.324025	0.000099
C74	C	-0.497747	0.175975	0.500099
C75	C	-0.925802	-0.350219	0.000082
C76	C	-0.425802	0.149781	0.500082
C77	C	-0.781902	-0.402604	0.000040
C78	C	-0.281902	0.097396	0.500040
C79	C	-0.782888	-0.343152	0.000040
C80	C	-0.282888	0.156848	0.500040
C81	C	-0.854839	-0.316958	0.000057
C82	C	-0.354839	0.183042	0.500057
C83	C	-0.855813	-0.257523	0.000083
C84	C	-0.355813	0.242477	0.500083
N85	N	-0.927760	-0.231326	0.000091
N86	N	-0.427760	0.268674	0.500091
C87	C	-0.998727	-0.264577	0.000099
C88	C	-0.498727	0.235423	0.500099
C89	C	-0.849840	-0.620150	0.000054
C90	C	-0.349840	-0.120150	0.500054
C91	C	-0.848859	-0.679596	0.000059
C92	C	-0.348859	-0.179596	0.500059
C93	C	-0.991778	-0.686651	0.000077
C94	C	-0.491778	-0.186651	0.500077
C95	C	-0.992758	-0.627203	0.000077
C96	C	-0.492758	-0.127203	0.500077
C97	C	-0.921787	-0.593953	0.000062
C98	C	-0.421787	-0.093953	0.500062
C99	C	-1.000776	-0.139738	0.000117
C100	C	-0.500776	0.360262	0.500117
C101	C	-1.001748	-0.080287	0.000129
C102	C	-0.501748	0.419713	0.500129
C103	C	-0.858830	-0.073238	0.000107
C104	C	-0.358830	0.426762	0.500107
C105	C	-0.857857	-0.132683	0.000100
C106	C	-0.357857	0.367317	0.500100
C107	C	-0.928837	-0.165932	0.000102
C108	C	-0.428837	0.334068	0.500102
O109	O	-0.795582	-0.223732	0.000103
O110	O	-0.295582	0.276268	0.500103
O111	O	-1.060003	-0.236829	0.000096
O112	O	-0.560003	0.263171	0.500096
C113	C	-0.068640	0.122422	0.000108
C114	C	0.431360	0.622422	0.500108
C115	C	-0.155645	0.127504	0.000100
C116	C	0.344355	0.627504	0.500100
C117	C	-0.918771	0.223879	0.000075
C118	C	-0.418771	0.723879	0.500075
C119	C	-0.919826	0.287147	0.000063
C120	C	-0.419826	0.787147	0.500063
N121	N	-0.915461	0.126693	0.205392
N122	N	-0.415461	0.626693	0.705392
N123	N	-0.935152	0.113414	-0.205201
N124	N	-0.435152	0.613414	0.294799
C125	C	-0.966892	0.091903	0.250800
C126	C	-0.466892	0.591903	0.750800
C127	C	-0.962550	0.094842	0.341606
C128	C	-0.462550	0.594842	0.841606
C129	C	-0.906781	0.132576	0.387004
C130	C	-0.406781	0.632576	0.887004
C131	C	-0.855344	0.167368	0.341590
C132	C	-0.355344	0.667368	0.841590
C133	C	-0.859683	0.164425	0.250785
C134	C	-0.359683	0.664425	0.750785
C135	C	-0.888054	0.145263	0.658581
C136	C	-0.388054	0.645263	1.158581
C137	C	-0.883721	0.148205	0.749392
C138	C	-0.383721	0.648205	1.249392
C139	C	-0.990927	0.075677	0.749402
C140	C	-0.490927	0.575677	1.249402
C141	C	-0.995264	0.072740	0.658595
C142	C	-0.495264	0.572740	1.158595
C143	C	-0.943824	0.107530	0.613189
C144	C	-0.443824	0.607530	1.113189
N145	N	-0.902343	0.135583	0.479823
N146	N	-0.402343	0.635583	0.979823
N147	N	-0.948259	0.104520	0.520372
N148	N	-0.448259	0.604520	1.020372
H149	H	-0.669677	0.205482	0.000044
H150	H	-0.169677	0.705482	0.500044
H151	H	-1.051346	-0.605880	0.000091
H152	H	-0.551346	-0.105880	0.500091
H153	H	-0.846172	0.173592	0.621618
H154	H	-0.346172	0.673592	1.121618
Cl155	Cl	-1.065375	0.025304	0.601524
Cl156	Cl	-0.565375	0.525304	1.101524
H157	H	-1.032805	0.047352	0.786380
H158	H	-0.532805	0.547352	1.286380
Cl159	Cl	-0.785229	0.214803	0.398660
Cl160	Cl	-0.285229	0.714803	0.898660
Cl161	Cl	-0.760609	-0.578355	0.000044
Cl162	Cl	-0.260609	-0.078355	0.500044
H163	H	-0.521378	0.196810	0.000060
H164	H	-0.021378	0.696810	0.500060
Cl165	Cl	-0.307644	0.253779	0.000048
Cl166	Cl	0.192356	0.753779	0.500048
Cl167	Cl	-0.123128	0.242992	0.000066
Cl168	Cl	0.376872	0.742992	0.500066
Cl169	Cl	-0.167138	0.010786	0.000149
Cl170	Cl	0.332862	0.510786	0.500149
Cl171	Cl	-1.092207	-0.047362	0.000149
Cl172	Cl	-0.592207	0.452638	0.500149
Cl173	Cl	-0.351648	0.021571	0.000128
Cl174	Cl	0.148352	0.521571	0.500128
Cl175	Cl	-1.090009	-0.181527	0.000122
Cl176	Cl	-0.590009	0.318473	0.500122
H177	H	-1.012309	0.061178	0.213843
H178	H	-0.512309	0.561178	0.713843
H179	H	-0.556744	0.010170	0.000122
H180	H	-0.056744	0.510170	0.500122
H181	H	-0.705058	0.018838	0.000099
H182	H	-0.205058	0.518838	0.500099
H183	H	-1.127303	-0.335955	0.000117
H184	H	-0.627303	0.164045	0.500117
H185	H	-0.838305	0.178934	0.786351
H186	H	-0.338305	0.678934	1.286351
H187	H	-0.723312	-0.423920	0.000020
H188	H	-0.223312	0.076080	0.500020
Cl189	Cl	-1.027207	0.051104	0.398692
Cl190	Cl	-0.527207	0.551104	0.898692
Cl191	Cl	-1.156963	-0.458512	0.000110
Cl192	Cl	-0.656963	0.041488	0.500110
H193	H	-1.049563	-0.713735	0.000080
H194	H	-0.549563	-0.213735	0.500080
H195	H	-0.790269	-0.700917	0.000060
H196	H	-0.290269	-0.200917	0.500060
Cl197	Cl	-0.693661	-0.301356	0.000019
Cl198	Cl	-0.193661	0.198644	0.500019
H199	H	-0.799268	-0.154011	0.000110
H200	H	-0.299268	0.345989	0.500110
H201	H	-0.801050	-0.046154	0.000104
H202	H	-0.301050	0.453846	0.500104
H203	H	-0.817801	0.192755	0.213815
H204	H	-0.317801	0.692755	0.713815
