data_functionalizedCrystal
_audit_creation_method	'MofGen! by Chris Wilmer'
_symmetry_space_group_name_H-M	'P1'
_symmetry_Int_Tables_number	1
_symmetry_cell_setting	triclinic
loop_
_symmetry_equiv_pos_as_xyz
  x,y,z
_cell_length_a	12.759401
_cell_length_b	12.594516
_cell_length_c	12.759393
_cell_angle_alpha	89.971950
_cell_angle_beta	89.979007
_cell_angle_gamma	90.015344
loop_
_atom_site_label
_atom_site_type_symbol
_atom_site_fract_x
_atom_site_fract_y
_atom_site_fract_z
Zn1	Zn	1.606256	-0.423711	-0.594039
Zn2	Zn	1.606143	-0.601727	-0.418367
Zn3	Zn	1.430555	-0.423760	-0.418374
Zn4	Zn	1.430543	-0.601645	-0.594004
O5	O	1.518375	-0.512711	-0.506196
O6	O	1.753263	-0.447338	-0.570748
O7	O	1.582809	-0.578174	-0.271347
O8	O	1.453915	-0.274808	-0.441695
O9	O	1.753179	-0.578126	-0.441682
O10	O	1.583002	-0.274772	-0.570755
O11	O	1.453805	-0.447423	-0.271352
O12	O	1.283533	-0.447344	-0.441660
O13	O	1.453894	-0.577987	-0.741030
O14	O	1.283524	-0.578035	-0.570695
O15	O	1.582990	-0.447259	-0.741056
O16	O	1.582797	-0.750662	-0.441648
O17	O	1.453784	-0.750602	-0.570688
C18	C	1.245407	-0.512687	-0.506175
C19	C	1.128631	-0.512702	-0.506191
C20	C	0.964011	-0.444587	-0.439142
C21	C	1.073735	-0.444562	-0.439126
C22	C	1.073796	-0.580865	-0.573284
C23	C	0.964074	-0.580883	-0.573305
C24	C	1.223677	-0.318963	-0.401769
C25	C	1.278508	-0.250814	-0.334667
C26	C	1.242842	-0.234354	-0.232186
C27	C	1.152347	-0.286059	-0.196787
C28	C	1.097522	-0.354217	-0.263884
C29	C	1.133187	-0.370657	-0.366379
C30	C	0.814130	-0.706483	-0.610651
C31	C	0.759303	-0.774647	-0.677743
C32	C	0.794967	-0.791118	-0.780225
C33	C	0.885465	-0.739431	-0.815620
C34	C	0.940292	-0.671267	-0.748528
C35	C	0.904621	-0.654795	-0.646047
C36	C	1.518306	-0.789252	-0.506186
C37	C	1.518372	-0.907557	-0.506217
C38	C	1.448195	-0.976817	-0.576352
C39	C	1.422594	-1.047685	-0.480485
C40	C	1.544069	-1.047488	-0.602100
C41	C	1.492721	-0.976867	-0.410299
C42	C	1.614240	-0.976664	-0.531979
C43	C	1.588675	-1.047500	-0.436046
C44	C	1.792408	-0.512735	-0.506218
C45	C	1.909184	-0.512746	-0.506227
C46	C	1.518453	-0.512609	-0.780230
C47	C	1.518487	-0.512565	-0.897007
C48	C	1.518472	-0.235090	-0.506230
C49	C	1.518514	-0.116784	-0.506244
C50	C	1.585712	-0.444484	-0.951884
C51	C	1.585730	-0.444438	-1.061608
C52	C	1.451294	-0.580563	-1.061568
C53	C	1.451272	-0.580603	-0.951846
C54	C	1.623345	-0.318861	-1.211581
C55	C	1.690586	-0.250789	-1.266462
C56	C	1.793100	-0.234472	-1.230870
C57	C	1.828392	-0.286241	-1.140398
C58	C	1.761156	-0.354321	-1.085523
C59	C	1.658628	-0.370618	-1.121114
C60	C	1.413668	-0.706182	-0.801871
C61	C	1.346436	-0.774268	-0.746994
C62	C	1.243921	-0.790596	-0.782584
C63	C	1.208632	-0.738845	-0.873058
C64	C	1.275864	-0.670760	-0.927935
C65	C	1.378378	-0.654430	-0.892338
C66	C	1.518357	-0.512736	-0.233229
C67	C	1.518527	-0.512480	-0.116453
H68	H	1.118500	-0.636341	-0.627894
C69	C	1.723644	-0.934470	-0.561458
N70	N	1.806045	-0.902682	-0.583676
H71	H	1.497142	-0.692885	-0.772879
H72	H	0.750321	-0.846631	-0.834848
H73	H	1.396572	-0.635960	-1.106231
H74	H	1.648082	-1.078341	-0.376677
H75	H	1.470950	-0.945974	-0.329200
H76	H	0.919323	-0.389100	-0.384528
C77	C	1.573356	-1.089396	-0.711631
N78	N	1.595407	-1.120957	-0.794132
H79	H	1.640440	-0.389080	-0.907237
H80	H	1.341587	-1.078904	-0.458717
H81	H	1.789892	-0.396474	-1.011866
H82	H	1.013981	-0.629181	-0.777356
H83	H	1.911872	-0.272957	-1.111432
C84	C	1.237040	-0.613827	-1.027457
N85	N	1.207798	-0.570944	-1.102415
C86	C	0.774894	-0.688372	-0.497912
N87	N	0.745342	-0.674739	-0.412995
H88	H	1.539868	-0.332132	-1.240563
C89	C	1.867060	-0.159584	-1.291238
N90	N	1.922761	-0.103173	-1.336709
H91	H	1.023844	-0.396316	-0.235062
H92	H	1.375181	-0.816416	-0.673331
C93	C	1.262916	-0.337059	-0.514505
N94	N	1.292478	-0.350693	-0.599418
H95	H	1.661842	-0.208638	-1.340123
H96	H	1.125158	-0.752144	-0.902039
C97	C	1.169969	-0.865499	-0.722215
N98	N	1.114267	-0.921911	-0.676747
C99	C	1.367879	-0.934875	-0.656357
N100	N	1.307383	-0.903282	-0.716611
C101	C	1.113125	-0.267954	-0.084047
N102	N	1.083578	-0.254312	0.000870
C103	C	0.659753	-0.831507	-0.638802
N104	N	0.584772	-0.874330	-0.609473
H105	H	1.287493	-0.178864	-0.177551
H106	H	0.914506	-0.752845	-0.899069
C107	C	1.378038	-0.193923	-0.373616
N108	N	1.453002	-0.151071	-0.402950
