data_functionalizedCrystal
_audit_creation_method	'MofGen! by Chris Wilmer'
_symmetry_space_group_name_H-M	'P1'
_symmetry_Int_Tables_number	1
_symmetry_cell_setting	triclinic
loop_
_symmetry_equiv_pos_as_xyz
  x,y,z
_cell_length_a	13.032831
_cell_length_b	16.625546
_cell_length_c	13.033388
_cell_angle_alpha	82.835440
_cell_angle_beta	89.094871
_cell_angle_gamma	82.826778
loop_
_atom_site_label
_atom_site_type_symbol
_atom_site_fract_x
_atom_site_fract_y
_atom_site_fract_z
Zn1	Zn	1.498212	-0.544714	0.780744
Zn2	Zn	1.748212	-0.294714	1.030744
Zn3	Zn	1.998212	-0.044714	1.280744
Zn4	Zn	2.248212	0.205286	1.530744
Zn5	Zn	1.519991	-0.664802	0.608758
Zn6	Zn	1.769991	-0.414802	0.858758
Zn7	Zn	2.019991	-0.164802	1.108758
Zn8	Zn	2.269991	0.085198	1.358758
Zn9	Zn	1.348128	-0.510984	0.586996
Zn10	Zn	1.598128	-0.260984	0.836996
Zn11	Zn	1.848128	-0.010984	1.086996
Zn12	Zn	2.098128	0.239016	1.336996
Zn13	Zn	1.326198	-0.660480	0.758877
Zn14	Zn	1.576198	-0.410480	1.008877
Zn15	Zn	1.826198	-0.160480	1.258877
Zn16	Zn	2.076198	0.089520	1.508877
O17	O	1.423132	-0.595245	0.683844
O18	O	1.673132	-0.345245	0.933844
O19	O	1.923132	-0.095245	1.183844
O20	O	2.173132	0.154755	1.433844
O21	O	1.645015	-0.576569	0.776188
O22	O	1.895015	-0.326569	1.026188
O23	O	2.145015	-0.076569	1.276188
O24	O	2.395015	0.173431	1.526188
O25	O	1.515485	-0.632090	0.461962
O26	O	1.765485	-0.382090	0.711962
O27	O	2.015485	-0.132090	0.961962
O28	O	2.265485	0.117910	1.211962
O29	O	1.368100	-0.402636	0.612741
O30	O	1.618100	-0.152636	0.862741
O31	O	1.868100	0.097364	1.112741
O32	O	2.118100	0.347364	1.362741
O33	O	1.661016	-0.664797	0.649831
O34	O	1.911016	-0.414797	0.899831
O35	O	2.161016	-0.164797	1.149831
O36	O	2.411016	0.085203	1.399831
O37	O	1.478366	-0.427418	0.755086
O38	O	1.728366	-0.177418	1.005086
O39	O	1.978366	0.072582	1.255086
O40	O	2.228366	0.322582	1.505086
O41	O	1.389218	-0.519081	0.445974
O42	O	1.639218	-0.269081	0.695974
O43	O	1.889218	-0.019081	0.945974
O44	O	2.139218	0.230919	1.195974
O45	O	1.201304	-0.514889	0.591538
O46	O	1.451304	-0.264889	0.841538
O47	O	1.701304	-0.014889	1.091538
O48	O	1.951304	0.235111	1.341538
O49	O	1.330724	-0.657431	0.905687
O50	O	1.580724	-0.407431	1.155687
O51	O	1.830724	-0.157431	1.405687
O52	O	2.080724	0.092569	1.655687
O53	O	1.185193	-0.624724	0.717818
O54	O	1.435193	-0.374724	0.967818
O55	O	1.685193	-0.124724	1.217818
O56	O	1.935193	0.125276	1.467818
O57	O	1.457102	-0.572378	0.921752
O58	O	1.707102	-0.322378	1.171752
O59	O	1.957102	-0.072378	1.421752
O60	O	2.207102	0.177622	1.671752
O61	O	1.494221	-0.777051	0.628628
O62	O	1.744221	-0.527051	0.878628
O63	O	1.994221	-0.277051	1.128628
O64	O	2.244221	-0.027051	1.378628
O65	O	1.351842	-0.773875	0.738920
O66	O	1.601842	-0.523875	0.988920
O67	O	1.851842	-0.273875	1.238920
O68	O	2.101842	-0.023875	1.488920
C69	C	1.155933	-0.565678	0.649945
C70	C	1.405933	-0.315678	0.899945
C71	C	1.655933	-0.065678	1.149945
C72	C	1.905933	0.184322	1.399945
C73	C	1.041621	-0.553051	0.635467
C74	C	1.291621	-0.303051	0.885467
C75	C	1.541621	-0.053051	1.135467
C76	C	1.791621	0.196949	1.385467
C77	C	0.982725	-0.601835	0.691400
C78	C	1.232725	-0.351835	0.941400
C79	C	1.482725	-0.101835	1.191400
C80	C	1.732725	0.148165	1.441400
C81	C	0.864578	-0.588786	0.676438
C82	C	1.114578	-0.338786	0.926438
C83	C	1.364578	-0.088786	1.176438
C84	C	1.614578	0.161214	1.426438
C85	C	1.423040	-0.804721	0.683788
C86	C	1.673040	-0.554721	0.933788
C87	C	1.923040	-0.304721	1.183788
C88	C	2.173040	-0.054721	1.433788
C89	C	1.423091	-0.894350	0.683811
C90	C	1.673091	-0.644350	0.933811
C91	C	1.923091	-0.394350	1.183811
C92	C	2.173091	-0.144350	1.433811
C93	C	1.423257	-1.222554	0.683941
C94	C	1.673257	-0.972554	0.933941
C95	C	1.923257	-0.722554	1.183941
C96	C	2.173257	-0.472554	1.433941
C97	C	1.423207	-1.131238	0.683907
C98	C	1.673207	-0.881238	0.933907
C99	C	1.923207	-0.631238	1.183907
C100	C	2.173207	-0.381238	1.433907
C101	C	1.423173	-1.058455	0.683875
C102	C	1.673173	-0.808455	0.933875
C103	C	1.923173	-0.558455	1.183875
C104	C	2.173173	-0.308455	1.433875
C105	C	1.423125	-0.967133	0.683843
C106	C	1.673125	-0.717133	0.933843
C107	C	1.923125	-0.467133	1.183843
C108	C	2.173125	-0.217133	1.433843
C109	C	1.691374	-0.624928	0.717876
C110	C	1.941374	-0.374928	0.967876
C111	C	2.191374	-0.124928	1.217876
C112	C	2.441374	0.125072	1.467876
C113	C	1.805683	-0.637577	0.732378
C114	C	2.055683	-0.387577	0.982378
C115	C	2.305683	-0.137577	1.232378
C116	C	2.555683	0.112423	1.482378
C117	C	1.389037	-0.618185	0.952077
C118	C	1.639037	-0.368185	1.202077
C119	C	1.889037	-0.118185	1.452077
C120	C	2.139037	0.131815	1.702077
C121	C	1.374508	-0.627960	1.066382
C122	C	1.624508	-0.377960	1.316382
C123	C	1.874508	-0.127960	1.566382
C124	C	2.124508	0.122040	1.816382
C125	C	1.423250	-0.384956	0.683925
C126	C	1.673250	-0.134956	0.933925
C127	C	1.923250	0.115044	1.183925
C128	C	2.173250	0.365044	1.433925
C129	C	1.423300	-0.295343	0.683960
C130	C	1.673300	-0.045343	0.933960
C131	C	1.923300	0.204657	1.183960
C132	C	2.173300	0.454657	1.433960
C133	C	1.415558	-0.600346	1.243434
C134	C	1.665558	-0.350346	1.493434
C135	C	1.915558	-0.100346	1.743434
C136	C	2.165558	0.149654	1.993434
C137	C	1.430569	-0.590235	1.125293
C138	C	1.680569	-0.340235	1.375293
C139	C	1.930569	-0.090235	1.625293
C140	C	2.180569	0.159765	1.875293
C141	C	1.457086	-0.572409	1.416653
C142	C	1.707086	-0.322409	1.666653
C143	C	1.957086	-0.072409	1.916653
C144	C	2.207086	0.177591	2.166653
C145	C	1.471611	-0.562625	1.302347
C146	C	1.721611	-0.312625	1.552347
C147	C	1.971611	-0.062625	1.802347
C148	C	2.221611	0.187375	2.052347
H149	H	1.019770	-0.653260	0.750366
H150	H	1.269770	-0.403260	1.000366
H151	H	1.519770	-0.153260	1.250366
H152	H	1.769770	0.096740	1.500366
H153	H	1.315391	-0.667733	1.103401
H154	H	1.565391	-0.417733	1.353401
H155	H	1.815391	-0.167733	1.603401
H156	H	2.065391	0.082267	1.853401
H157	H	1.356452	-0.640122	1.280460
H158	H	1.606452	-0.390122	1.530460
H159	H	1.856452	-0.140122	1.780460
H160	H	2.106452	0.109878	2.030460
H161	H	0.827537	-0.537352	0.617475
H162	H	1.077537	-0.287352	0.867475
H163	H	1.327537	-0.037352	1.117475
H164	H	1.577537	0.212648	1.367475
H165	H	1.530709	-0.522842	1.265320
H166	H	1.780709	-0.272842	1.515320
H167	H	2.030709	-0.022842	1.765320
H168	H	2.280709	0.227158	2.015320
H169	H	1.489671	-0.550449	1.088271
H170	H	1.739671	-0.300449	1.338271
H171	H	1.989671	-0.050449	1.588271
H172	H	2.239671	0.199551	1.838271
H173	H	0.842722	-0.689004	0.791352
H174	H	1.092722	-0.439004	1.041352
H175	H	1.342722	-0.189004	1.291352
H176	H	1.592722	0.060996	1.541352
H177	H	1.004576	-0.501620	0.576508
H178	H	1.254576	-0.251620	0.826508
H179	H	1.504576	-0.001620	1.076508
H180	H	1.754576	0.248380	1.326508
