data_functionalizedCrystal
_audit_creation_method	'MofGen! by Chris Wilmer'
_symmetry_space_group_name_H-M	'P1'
_symmetry_Int_Tables_number	1
_symmetry_cell_setting	triclinic
loop_
_symmetry_equiv_pos_as_xyz
  x,y,z
_cell_length_a	9.065218
_cell_length_b	10.654562
_cell_length_c	9.130313
_cell_angle_alpha	89.996930
_cell_angle_beta	90.000552
_cell_angle_gamma	84.752995
loop_
_atom_site_label
_atom_site_type_symbol
_atom_site_fract_x
_atom_site_fract_y
_atom_site_fract_z
O1	O	0.207317	1.668646	-0.121889
O2	O	0.227042	1.303248	-0.121871
O3	O	0.002496	1.493499	-0.121877
O4	O	0.431863	1.478394	-0.121883
O5	O	0.002502	1.493497	0.121721
O6	O	0.227048	1.303245	0.121728
O7	O	0.207324	1.668644	0.121709
Cu8	Cu	0.217186	1.485944	0.143961
Cu9	Cu	0.217179	1.485947	-0.144122
O10	O	0.431869	1.478392	0.121716
C11	C	0.225593	1.256443	-0.000069
C12	C	0.221248	1.116983	-0.000062
C13	C	0.219225	1.051443	0.132713
C14	C	0.215154	0.920405	0.132688
C15	C	0.215137	0.920457	-0.132897
C16	C	0.219196	1.051494	-0.132871
C17	C	0.219241	1.051411	0.286046
C18	C	0.215171	0.920373	0.286022
C19	C	-0.052479	1.492047	-0.000080
C20	C	-0.216299	1.487706	-0.000087
C21	C	0.486845	1.479845	-0.000084
C22	C	0.650664	1.484185	-0.000087
C23	C	0.208773	1.715448	-0.000096
C24	C	0.213117	1.854908	-0.000112
N25	N	0.217190	1.485951	0.346584
N26	N	0.217163	1.485950	-0.346745
C27	C	0.117796	1.570217	0.423233
C28	C	0.117778	1.570213	0.576570
C29	C	0.316563	1.401675	0.576595
C30	C	0.316572	1.401673	0.423261
C31	C	0.003033	1.667525	0.423220
C32	C	0.003016	1.667522	0.576556
H33	H	0.213466	0.867121	-0.241025
C34	C	-0.005964	1.019816	0.413692
C35	C	0.081591	1.113327	0.365521
H36	H	-0.090945	1.058044	0.462745
H37	H	0.049771	0.964692	0.479065
H38	H	-0.036116	0.973306	0.331927
H39	H	0.111752	1.159831	0.447287
H40	H	0.025846	1.168473	0.300144
C41	C	-0.211822	1.738679	0.281802
C42	C	-0.150046	1.637951	0.367013
H43	H	-0.306324	1.720416	0.247108
H44	H	-0.148810	1.750842	0.200906
H45	H	-0.222251	1.813087	0.339613
H46	H	-0.139607	1.563545	0.309198
H47	H	-0.213074	1.625773	0.447920
H48	H	0.038974	1.758851	0.375656
C49	C	0.440401	0.951908	0.413661
C50	C	0.352832	0.858420	0.365463
H51	H	0.525387	0.913658	0.462692
H52	H	0.384679	1.007009	0.479059
H53	H	0.470544	0.998446	0.331911
H54	H	0.322679	0.811887	0.447214
H55	H	0.408563	0.803296	0.300061
H56	H	0.326850	1.081411	0.333621
H57	H	0.397494	1.333047	0.360855
C58	C	-0.210196	1.722912	0.727101
C59	C	-0.141650	1.625777	0.640791
H60	H	-0.299496	1.697136	0.766771
H61	H	-0.231880	1.795946	0.668526
H62	H	-0.145703	1.741511	0.804557
H63	H	-0.206139	1.607184	0.563329
H64	H	-0.119971	1.552720	0.699369
H65	H	0.397476	1.333057	0.639042
H66	H	0.107566	0.890358	0.333602
H67	H	0.220821	1.104854	-0.240988
C68	C	-0.071084	1.889680	0.581599
C69	C	0.037142	1.797937	0.632749
H70	H	-0.050010	1.970189	0.616285
H71	H	-0.165569	1.871413	0.616261
H72	H	-0.071052	1.889669	0.477556
H73	H	0.037103	1.797941	0.736792
H74	H	0.131652	1.816209	0.598094
