data_functionalizedCrystal
_audit_creation_method	'MofGen! by Chris Wilmer'
_symmetry_space_group_name_H-M	'P1'
_symmetry_Int_Tables_number	1
_symmetry_cell_setting	triclinic
loop_
_symmetry_equiv_pos_as_xyz
  x,y,z
_cell_length_a	16.109302
_cell_length_b	14.586319
_cell_length_c	16.109304
_cell_angle_alpha	89.997551
_cell_angle_beta	96.537798
_cell_angle_gamma	90.002485
loop_
_atom_site_label
_atom_site_type_symbol
_atom_site_fract_x
_atom_site_fract_y
_atom_site_fract_z
O1	O	1.103128	0.076274	-0.106872
O2	O	1.603128	0.576274	0.393128
O3	O	0.861066	0.076266	-0.120171
O4	O	1.361066	0.576266	0.379829
O5	O	0.988745	0.076273	0.007510
O6	O	1.488745	0.576273	0.507510
O7	O	0.975448	0.076268	-0.234552
O8	O	1.475448	0.576268	0.265448
O9	O	0.988744	-0.076208	0.007518
O10	O	1.488744	0.423792	0.507518
O11	O	0.861065	-0.076215	-0.120163
O12	O	1.361065	0.423785	0.379837
O13	O	1.103127	-0.076207	-0.106864
O14	O	1.603127	0.423793	0.393136
Cu15	Cu	0.982096	-0.090133	-0.113513
Cu16	Cu	1.482096	0.409867	0.386487
Cu17	Cu	0.982097	0.090193	-0.113522
Cu18	Cu	1.482097	0.590193	0.386478
O19	O	0.975447	-0.076213	-0.234544
O20	O	1.475447	0.423787	0.265456
C21	C	0.830090	0.000025	-0.119628
C22	C	1.330090	0.500025	0.380372
C23	C	0.737795	0.000022	-0.118012
C24	C	1.237795	0.500022	0.381988
C25	C	0.525454	-0.083086	-0.114273
C26	C	1.025454	0.416914	0.385727
C27	C	0.438734	-0.083083	-0.112746
C28	C	0.938734	0.416917	0.387254
C29	C	0.438745	0.083160	-0.112759
C30	C	0.938745	0.583160	0.387241
C31	C	0.525464	0.083156	-0.114280
C32	C	1.025464	0.583156	0.385720
C33	C	0.568816	0.000030	-0.115041
C34	C	1.068816	0.500030	0.384959
C35	C	0.395377	0.000038	-0.111994
C36	C	0.895377	0.500038	0.388006
C37	C	0.301351	0.000042	-0.110338
C38	C	0.801351	0.500042	0.389662
C39	C	0.662848	0.000026	-0.116695
C40	C	1.162848	0.500026	0.383305
N41	N	0.982101	-0.216965	-0.113505
N42	N	1.482101	0.283035	0.386495
C43	C	0.988206	0.000035	0.038488
C44	C	1.488206	0.500035	0.538488
C45	C	0.986590	0.000042	0.130784
C46	C	1.486590	0.500042	0.630784
C47	C	1.134102	0.000037	-0.107407
C48	C	1.634102	0.500037	0.392593
C49	C	1.226397	0.000046	-0.109022
C50	C	1.726397	0.500046	0.390978
N51	N	0.982098	0.217025	-0.113523
N52	N	1.482098	0.717025	0.386477
C53	C	1.038744	0.452034	-0.057095
C54	C	1.538744	0.952034	0.442905
C55	C	1.038746	0.548015	-0.057093
C56	C	1.538746	1.048015	0.442907
C57	C	0.925453	0.548019	-0.169938
C58	C	1.425453	1.048019	0.330062
C59	C	0.925455	0.452039	-0.169944
C60	C	1.425455	0.952039	0.330056
C61	C	0.982099	0.404049	-0.113518
C62	C	1.482099	0.904049	0.386482
C63	C	0.982100	0.596010	-0.113510
C64	C	1.482100	1.096010	0.386490
C65	C	0.982102	0.700077	-0.113509
C66	C	1.482102	1.200077	0.386491
C67	C	0.982098	0.299976	-0.113520
C68	C	1.482098	0.799976	0.386480
C69	C	0.982857	0.083159	0.343117
C70	C	1.482857	0.583159	0.843117
C71	C	0.981330	0.083159	0.429837
C72	C	1.481330	0.583159	0.929837
C73	C	0.981333	-0.083084	0.429842
C74	C	1.481333	0.416916	0.929842
C75	C	0.982854	-0.083083	0.343123
C76	C	1.482854	0.416917	0.843123
C77	C	0.983619	0.000041	0.299763
C78	C	1.483619	0.500041	0.799763
C79	C	0.980573	0.000040	0.473202
C80	C	1.480573	0.500040	0.973202
C81	C	0.978918	0.000040	0.567228
C82	C	1.478918	0.500040	1.067228
C83	C	0.985273	0.000041	0.205731
C84	C	1.485273	0.500041	0.705731
C85	C	0.975987	0.000030	0.734477
C86	C	1.475987	0.500030	1.234477
C87	C	0.977603	0.000039	0.642182
C88	C	1.477603	0.500039	1.142182
H89	H	0.560771	0.150843	-0.114903
H90	H	1.060771	0.650843	0.385097
H91	H	0.983478	0.150844	0.307815
H92	H	1.483478	0.650844	0.807815
H93	H	1.084868	0.412963	-0.011151
H94	H	1.584868	0.912963	0.488849
H95	H	0.980712	-0.150761	0.465157
H96	H	1.480712	0.349239	0.965157
H97	H	0.879333	0.587102	-0.215878
H98	H	1.379333	1.087102	0.284122
H99	H	0.879328	0.412968	-0.215893
H100	H	1.379328	0.912968	0.284107
H101	H	0.403432	-0.150764	-0.112121
H102	H	0.903432	0.349236	0.387879
H103	H	0.980708	0.150842	0.465131
H104	H	1.480708	0.650842	0.965131
H105	H	1.084872	0.587082	-0.011151
H106	H	1.584872	1.087082	0.488849
H107	H	0.560748	-0.150772	-0.114893
H108	H	1.060748	0.349228	0.385107
H109	H	0.983470	-0.150772	0.307823
H110	H	1.483470	0.349228	0.807823
H111	H	0.403438	0.150838	-0.112140
H112	H	0.903438	0.650838	0.387860
