data_functionalizedCrystal
_audit_creation_method	'MofGen! by Chris Wilmer'
_symmetry_space_group_name_H-M	'P1'
_symmetry_Int_Tables_number	1
_symmetry_cell_setting	triclinic
loop_
_symmetry_equiv_pos_as_xyz
  x,y,z
_cell_length_a	16.109318
_cell_length_b	14.586319
_cell_length_c	11.792254
_cell_angle_alpha	89.996031
_cell_angle_beta	96.166420
_cell_angle_gamma	89.999925
loop_
_atom_site_label
_atom_site_type_symbol
_atom_site_fract_x
_atom_site_fract_y
_atom_site_fract_z
O1	O	1.103814	0.076164	-0.145978
O2	O	1.603814	0.576164	0.354022
O3	O	0.861840	0.076183	-0.164113
O4	O	1.361840	0.576183	0.335887
O5	O	0.988693	0.076167	0.010175
O6	O	1.488693	0.576167	0.510175
O7	O	0.976960	0.076181	-0.320266
O8	O	1.476960	0.576181	0.179734
O9	O	0.988684	-0.076314	0.010178
O10	O	1.488684	0.423686	0.510178
O11	O	0.861831	-0.076298	-0.164110
O12	O	1.361831	0.423702	0.335890
O13	O	1.103805	-0.076316	-0.145976
O14	O	1.603805	0.423684	0.354024
Cu15	Cu	0.982817	-0.090230	-0.155043
Cu16	Cu	1.482817	0.409770	0.344957
Cu17	Cu	0.982827	0.090096	-0.155046
Cu18	Cu	1.482827	0.590096	0.344954
O19	O	0.976951	-0.076300	-0.320263
O20	O	1.476951	0.423700	0.179737
C21	C	0.830857	-0.000055	-0.163373
C22	C	1.330857	0.499945	0.336627
C23	C	0.738552	-0.000048	-0.161161
C24	C	1.238552	0.499952	0.338839
C25	C	0.439449	0.083053	-0.154016
C26	C	0.939449	0.583053	0.345984
C27	C	0.526180	0.083058	-0.156087
C28	C	1.026180	0.583058	0.343913
C29	C	0.526189	-0.083184	-0.156069
C30	C	1.026189	0.416816	0.343931
C31	C	0.439461	-0.083189	-0.153989
C32	C	0.939461	0.416811	0.346011
C33	C	0.396092	-0.000068	-0.152969
C34	C	0.896092	0.499932	0.347031
C35	C	0.569552	-0.000057	-0.157120
C36	C	1.069552	0.499943	0.342880
C37	C	0.663590	-0.000052	-0.159366
C38	C	1.163590	0.499948	0.340634
C39	C	0.302049	-0.000073	-0.150720
C40	C	0.802049	0.499927	0.349280
N41	N	0.982816	-0.217062	-0.155040
N42	N	1.482816	0.282938	0.344960
C43	C	1.039005	-0.452075	-0.077891
C44	C	1.539005	0.047925	0.422109
C45	C	1.039008	-0.548056	-0.077888
C46	C	1.539008	-0.048056	0.422112
C47	C	0.926640	-0.548051	-0.232192
C48	C	1.426640	-0.048051	0.267808
C49	C	0.926634	-0.452072	-0.232188
C50	C	1.426634	0.047928	0.267812
C51	C	0.982821	-0.404086	-0.155039
C52	C	1.482821	0.095914	0.344961
C53	C	0.982830	-0.596047	-0.155040
C54	C	1.482830	-0.096047	0.344960
C55	C	0.982832	-0.700114	-0.155038
C56	C	1.482832	-0.200114	0.344962
C57	C	0.982818	-0.300013	-0.155040
C58	C	1.482818	0.199987	0.344960
C59	C	1.134787	-0.000076	-0.146715
C60	C	1.634787	0.499924	0.353285
C61	C	1.227092	-0.000077	-0.148928
C62	C	1.727092	0.499923	0.351072
C63	C	0.977695	-0.000058	-0.362549
C64	C	1.477695	0.499942	0.137451
C65	C	0.979907	-0.000053	-0.488543
C66	C	1.479907	0.499947	0.011457
N67	N	0.982835	0.216928	-0.155039
N68	N	1.482835	0.716928	0.344961
C69	C	0.987950	-0.000073	0.052461
C70	C	1.487950	0.499927	0.552461
C71	C	0.985737	-0.000072	0.178455
C72	C	1.485737	0.499928	0.678455
C73	C	0.983940	-0.000069	0.280776
C74	C	1.483940	0.499931	0.780776
C75	C	0.981692	-0.000060	0.409143
C76	C	1.481692	0.499940	0.909143
H77	H	0.404159	-0.150880	-0.153135
H78	H	0.904159	0.349120	0.346865
H79	H	1.084755	-0.413007	-0.015070
H80	H	1.584755	0.086993	0.484930
H81	H	0.561510	-0.150859	-0.156902
H82	H	1.061510	0.349141	0.343098
C83	C	0.391744	0.174483	-0.152879
C84	C	0.891744	0.674483	0.347121
C85	C	0.412658	0.243052	-0.054671
C86	C	0.912658	0.743052	0.445329
C87	C	0.364956	0.334485	-0.053529
C88	C	0.864956	0.834485	0.446471
C89	C	0.296339	0.357349	-0.150596
C90	C	0.796339	0.857349	0.349404
C91	C	0.275421	0.288778	-0.248812
C92	C	0.775421	0.788778	0.251188
C93	C	0.323124	0.197345	-0.249953
C94	C	0.823124	0.697345	0.250047
H95	H	0.463456	0.226129	0.017191
H96	H	0.963456	0.726129	0.517191
H97	H	0.380441	0.385246	0.019177
H98	H	0.880441	0.885246	0.519177
H99	H	0.261027	0.425033	-0.149751
H100	H	0.761027	0.925033	0.350249
H101	H	0.224624	0.305701	-0.320673
H102	H	0.724624	0.805701	0.179327
H103	H	0.307639	0.146584	-0.322659
H104	H	0.807639	0.646584	0.177341
C105	C	0.864842	-0.600836	-0.317062
C106	C	1.364842	-0.100836	0.182938
C107	C	0.864889	-0.706410	-0.317138
C108	C	1.364889	-0.206410	0.182862
C109	C	0.803091	-0.759191	-0.402014
C110	C	1.303091	-0.259191	0.097986
C111	C	0.741246	-0.706399	-0.486814
C112	C	1.241246	-0.206399	0.013186
C113	C	0.741196	-0.600819	-0.486742
C114	C	1.241196	-0.100819	0.013258
C115	C	0.802994	-0.548038	-0.401866
C116	C	1.302994	-0.048038	0.098134
H117	H	0.910673	-0.745495	-0.254361
H118	H	1.410673	-0.245495	0.245639
H119	H	0.803128	-0.837348	-0.402068
H120	H	1.303128	-0.337348	0.097932
H121	H	0.695499	-0.745471	-0.549645
H122	H	1.195499	-0.245471	-0.049645
H123	H	0.695412	-0.561734	-0.549519
H124	H	1.195412	-0.061734	-0.049519
H125	H	0.802956	-0.469881	-0.401812
H126	H	1.302956	0.030119	0.098188
H127	H	0.561478	0.150744	-0.156938
H128	H	1.061478	0.650744	0.343062
H129	H	1.084756	-0.587126	-0.015066
H130	H	1.584756	-0.087126	0.484934
H131	H	0.880878	-0.412997	-0.295012
H132	H	1.380878	0.087003	0.204988
