data_functionalizedCrystal
_audit_creation_method	'MofGen! by Chris Wilmer'
_symmetry_space_group_name_H-M	'P1'
_symmetry_Int_Tables_number	1
_symmetry_cell_setting	triclinic
loop_
_symmetry_equiv_pos_as_xyz
  x,y,z
_cell_length_a	14.560432
_cell_length_b	21.606444
_cell_length_c	21.606444
_cell_angle_alpha	59.990835
_cell_angle_beta	89.997678
_cell_angle_gamma	60.004264
loop_
_atom_site_label
_atom_site_type_symbol
_atom_site_fract_x
_atom_site_fract_y
_atom_site_fract_z
Zr1	Zr	0.884763	0.677523	-0.081334
O2	O	0.738128	0.806648	-0.180179
O3	O	0.929713	0.548394	-0.051018
O4	O	0.929727	0.677521	-0.180158
O5	O	0.738104	0.677524	0.050811
O6	O	1.080865	0.677524	-0.180158
O7	O	0.738114	0.677521	-0.051040
O8	O	1.080840	0.446540	0.050849
O9	O	0.738129	0.908508	-0.180196
O10	O	1.061677	0.601510	-0.038107
O11	O	0.948878	0.601510	0.037903
O12	O	0.948894	0.753540	-0.114142
O13	O	0.836094	0.753540	-0.038132
Zr14	Zr	1.125794	0.677532	0.081105
Zr15	Zr	1.125810	0.677527	-0.081335
Zr16	Zr	0.884747	0.677528	0.081105
Zr17	Zr	0.884764	0.839978	-0.081362
Zr18	Zr	1.125792	0.515077	0.081132
O19	O	1.080843	0.806660	0.050789
O20	O	1.080866	0.806654	-0.180180
O21	O	0.738105	0.806654	0.050789
O22	O	1.272429	0.548407	0.179950
O23	O	1.272451	0.548400	-0.051019
O24	O	0.929691	0.548401	0.179950
O25	O	1.272452	0.677531	-0.051040
O26	O	1.080829	0.677534	0.179928
O27	O	0.929692	0.677531	0.179929
O28	O	1.272442	0.677533	0.050810
O29	O	0.929729	0.908511	-0.180196
O30	O	1.080828	0.446543	0.179967
O31	O	1.272428	0.446547	0.179967
O32	O	1.272440	0.446543	0.050849
O33	O	0.738116	0.908512	-0.051078
O34	O	0.929716	0.908515	-0.051078
O35	O	1.061663	0.601514	0.113913
O36	O	1.174462	0.601514	0.037903
O37	O	1.061679	0.753544	-0.038132
O38	O	0.948879	0.753545	0.037878
C39	C	0.703765	0.677522	-0.000114
C40	C	0.601434	0.677520	-0.000114
C41	C	1.005277	0.474321	-0.000081
C42	C	1.005276	0.405354	-0.000069
C43	C	1.005298	0.677522	-0.203302
C44	C	1.005305	0.677520	-0.272262
C45	C	0.719164	0.518799	0.079260
C46	C	0.729952	0.439442	0.118943
C47	C	0.633800	0.439445	0.118941
C48	C	0.526851	0.518815	0.079253
C49	C	0.516063	0.598173	0.039570
C50	C	0.612224	0.598161	0.039575
C51	C	0.398334	0.756892	-0.039799
C52	C	0.494485	0.756890	-0.039802
C53	C	0.291385	0.836262	-0.079486
C54	C	0.280595	0.915622	-0.119175
C55	C	0.376756	0.915615	-0.119172
C56	C	0.483697	0.836248	-0.079485
C57	C	1.306791	0.677533	-0.000115
C58	C	1.409122	0.677534	-0.000115
C59	C	0.922015	0.429086	-0.056195
C60	C	0.922018	0.364297	-0.056211
C61	C	1.005278	0.275776	-0.000097
C62	C	1.088547	0.252045	0.056032
C63	C	1.088548	0.316833	0.056044
C64	C	1.088547	-0.009242	0.055985
C65	C	1.088537	-0.074031	0.055970
C66	C	0.922017	0.038221	-0.056271
C67	C	0.922018	0.103010	-0.056259
C68	C	1.005290	0.079273	-0.000132
C69	C	1.005287	0.149526	-0.000117
C70	C	1.005277	0.205524	-0.000109
C71	C	1.005280	0.880734	-0.000149
C72	C	1.005280	0.949700	-0.000160
C73	C	0.921989	0.677535	-0.695566
C74	C	0.921998	0.677529	-0.630767
C75	C	1.005268	0.677528	-0.598373
C76	C	1.088539	0.677526	-0.630777
C77	C	1.088533	0.677526	-0.695572
C78	C	1.088566	0.677523	-0.369465
C79	C	1.088564	0.677526	-0.304667
C80	C	0.922032	0.677526	-0.304660
C81	C	0.922026	0.677526	-0.369455
C82	C	1.005300	0.677519	-0.401852
C83	C	1.005290	0.677525	-0.472114
C84	C	1.005274	0.677529	-0.528115
C85	C	1.005258	0.677533	0.203073
C86	C	1.005252	0.677535	0.272033
C87	C	1.306790	0.474326	-0.000081
C88	C	1.409120	0.405361	-0.000070
C89	C	1.005257	0.474326	0.203107
C90	C	1.005249	0.405362	0.272078
C91	C	1.306770	0.474332	0.203106
C92	C	1.409093	0.405369	0.272078
C93	C	0.703787	0.880723	-0.203336
C94	C	0.601463	0.949686	-0.272307
C95	C	0.703767	0.880729	-0.000148
C96	C	0.601436	0.949693	-0.000160
C97	C	1.005300	0.880728	-0.203336
C98	C	1.005307	0.949693	-0.272308
C99	C	1.398303	0.372972	-0.039747
C100	C	1.494444	0.308182	-0.039752
C101	C	1.601401	0.275777	-0.000074
C102	C	1.612216	0.308172	0.039605
C103	C	1.516076	0.372966	0.039605
C104	C	1.064118	0.372978	0.344151
C105	C	1.064107	0.308187	0.408963
C106	C	1.005233	0.275778	0.401701
C107	C	0.946357	0.308168	0.329621
C108	C	0.946362	0.372962	0.264810
C109	C	1.516036	0.372983	0.264791
C110	C	1.612189	0.308194	0.329591
C111	C	1.601397	0.275788	0.401676
C112	C	1.494443	0.308180	0.408962
C113	C	1.398293	0.372972	0.344163
C114	C	0.494520	0.982079	-0.265020
C115	C	0.398367	1.046888	-0.329820
C116	C	0.409159	1.079298	-0.401906
C117	C	0.516113	1.046902	-0.409191
C118	C	0.612264	0.982098	-0.344392
C119	C	0.612254	0.982089	0.039511
C120	C	0.516113	1.046898	0.039498
C121	C	0.409156	1.079305	-0.000183
C122	C	0.398341	1.046907	-0.039858
C123	C	0.494481	0.982104	-0.039849
C124	C	1.064193	0.982082	-0.265021
C125	C	1.064222	1.046873	-0.329821
C126	C	1.005357	1.079278	-0.401906
C127	C	0.946470	1.046883	-0.409191
C128	C	0.946448	0.982088	-0.344392
H129	H	0.797463	0.518788	0.079259
H130	H	0.485712	0.955695	-0.206330
H131	H	0.898427	0.399321	0.206127
H132	H	0.642589	0.374825	0.151258
O133	O	0.283022	1.081813	-0.321947
H134	H	0.217966	1.132329	-0.379112
H135	H	1.311219	0.399332	0.350106
H136	H	0.898491	0.955725	-0.350336
O137	O	0.832216	0.389891	-0.116747
H138	H	0.748267	0.429219	-0.113981
H139	H	1.156344	0.677520	-0.604395
O140	O	1.705084	0.205888	-0.000078
H141	H	1.755856	0.230757	-0.024918
O142	O	0.727602	0.947157	0.082308
H143	H	0.774226	0.875679	0.126186
H144	H	1.005238	0.223019	0.454480
O145	O	0.305450	1.149203	-0.471795
H146	H	0.229277	1.166277	-0.454609
H147	H	0.898423	0.281771	0.323719
H148	H	0.817040	0.374820	0.151258
O149	O	1.527697	0.407937	0.187047
H150	H	1.574404	0.353543	0.180465
H151	H	0.854228	0.677528	-0.278274
H152	H	0.524887	1.073298	-0.467891
H153	H	1.485616	0.281814	-0.072063
H154	H	1.112061	0.399358	0.350079
H155	H	0.448564	0.518811	0.079263
H156	H	0.699339	0.955724	-0.350334
H157	H	1.112173	1.073242	-0.323874
O158	O	1.127702	0.947134	-0.187279
H159	H	1.068267	0.959578	-0.155858
O160	O	1.727539	0.273254	0.321725
H161	H	1.718879	0.306664	0.260712
H162	H	1.156335	0.677524	-0.721952
O163	O	1.005368	1.149174	-0.471796
H164	H	1.056195	1.166256	-0.454611
O165	O	0.187672	0.836274	-0.079499
H166	H	0.213137	0.767759	-0.045247
H167	H	0.898544	1.073277	-0.467892
H168	H	0.524941	1.073265	0.071810
O169	O	1.727580	0.273217	0.082399
H170	H	1.737361	0.243693	0.143387
O171	O	0.587404	0.836244	-0.079487
H172	H	0.638169	0.801982	-0.020397
O173	O	0.305476	1.149178	-0.000161
H174	H	0.305551	1.208219	-0.024982
O175	O	0.165249	1.001218	-0.161983
H176	H	0.118623	1.005012	-0.121926
O177	O	0.282977	1.081864	-0.082656
H178	H	0.217953	1.132361	-0.075986
H179	H	1.156342	-0.146112	0.101667
H180	H	1.156369	0.677520	-0.395839
O181	O	1.705107	0.205895	0.471565
H182	H	1.781280	0.188817	0.454380
O183	O	1.482818	0.273208	0.486716
H184	H	1.523817	0.285633	0.518137
O185	O	1.282951	0.407925	-0.082559
H186	H	1.236315	0.395485	-0.042508
O187	O	1.178389	0.677513	-0.269717
H188	H	1.236302	0.677497	-0.303124
H189	H	0.485657	0.955729	-0.072152
H190	H	0.367959	0.980238	-0.151477
O191	O	1.178354	0.156569	0.116552
H192	H	1.236259	0.150953	0.155577
O193	O	0.832219	0.524561	-0.116723
H194	H	0.774333	0.530176	-0.155759
H195	H	0.854217	0.057543	-0.101974
O196	O	0.832227	0.198487	-0.116787
H197	H	0.774338	0.204105	-0.155825
O198	O	1.178345	0.291243	0.116582
H199	H	1.236235	0.218805	0.155605
H200	H	1.112055	0.281822	0.467648
O201	O	1.178349	-0.034843	0.116522
H202	H	1.236233	-0.107281	0.155543
O203	O	0.832157	0.677556	-0.730510
H204	H	0.836241	0.618219	-0.688402
O205	O	0.832189	0.677536	-0.595821
H206	H	0.774277	0.677549	-0.629239
H207	H	0.854217	0.677531	-0.395831
H208	H	1.524899	0.399328	0.071920
