data_functionalizedCrystal
_audit_creation_method	'MofGen! by Chris Wilmer'
_symmetry_space_group_name_H-M	'P1'
_symmetry_Int_Tables_number	1
_symmetry_cell_setting	triclinic
loop_
_symmetry_equiv_pos_as_xyz
  x,y,z
_cell_length_a	10.967926
_cell_length_b	12.837942
_cell_length_c	9.482900
_cell_angle_alpha	100.328050
_cell_angle_beta	92.549900
_cell_angle_gamma	89.656601
loop_
_atom_site_label
_atom_site_type_symbol
_atom_site_fract_x
_atom_site_fract_y
_atom_site_fract_z
O1	O	1.631220	0.183842	0.287779
O2	O	1.282268	0.186126	0.200353
O3	O	1.449005	0.033767	0.242136
O4	O	1.464483	0.336201	0.245996
O5	O	1.415152	0.064845	0.475445
O6	O	1.248415	0.217204	0.433662
O7	O	1.597367	0.214920	0.521088
Cu8	Cu	1.419800	0.218899	0.498678
Cu9	Cu	1.459835	0.182146	0.222763
O10	O	1.430630	0.367279	0.479305
C11	C	1.220367	0.199150	0.305739
C12	C	1.086355	0.191646	0.272164
C13	C	1.009072	0.204399	0.378056
C14	C	0.870564	0.196643	0.343357
C15	C	1.426851	0.010472	0.357480
C16	C	1.411259	-0.105240	0.353571
C17	C	1.598705	-0.338566	0.400504
C18	C	1.584061	-0.447289	0.396832
C19	C	1.367330	-0.431412	0.342548
C20	C	1.381974	-0.322689	0.346219
C21	C	1.497665	-0.276270	0.375200
C22	C	1.512306	-0.167544	0.378881
C23	C	1.295578	-0.151670	0.324587
C24	C	1.280934	-0.260393	0.320915
C25	C	1.659269	0.201895	0.415699
C26	C	1.793281	0.209398	0.449265
C27	C	1.452784	0.390573	0.363958
C28	C	1.468377	0.506284	0.367857
N29	N	1.391650	0.244749	0.692744
N30	N	1.487994	0.156289	0.028699
C31	C	1.451523	0.189765	0.779947
C32	C	1.428111	0.211281	0.941498
H33	H	1.049979	0.174982	0.155818
N34	N	1.578852	0.072820	0.969195
H35	H	1.582698	0.069277	0.862224
H36	H	1.662069	0.091558	1.016551
N37	N	1.637078	-0.117471	0.410146
H38	H	1.698864	-0.173438	0.425615
H39	H	1.660420	-0.084223	0.326362
H40	H	1.692902	-0.300769	0.424115
N41	N	1.300782	0.328199	0.752261
H42	H	1.343461	0.384166	0.826096
H43	H	1.264066	0.361854	0.671786
H44	H	1.359510	0.274284	0.986431
N45	N	0.841440	0.231459	0.603394
H46	H	0.933558	0.233871	0.606339
H47	H	0.809036	0.301756	0.652864
N48	N	1.057234	0.226470	0.532178
H49	H	1.111065	0.166021	0.551466
H50	H	1.106218	0.294291	0.550152
N51	N	0.822403	0.174561	0.189230
H52	H	0.730285	0.172147	0.186288
H53	H	0.850018	0.232510	0.138549
H54	H	1.666339	-0.498008	0.417433
H55	H	1.273142	-0.469228	0.318937
N56	N	1.156160	-0.310463	0.289654
H57	H	1.162213	-0.388792	0.291166
H58	H	1.098858	-0.276476	0.364940
H59	H	1.213302	-0.100935	0.303994
N60	N	1.542351	0.106281	0.720427
H61	H	1.546186	0.102733	0.613454
H62	H	1.625579	0.124994	0.767767
