data_functionalizedCrystal
_audit_creation_method	'MofGen! by Chris Wilmer'
_symmetry_space_group_name_H-M	'P1'
_symmetry_Int_Tables_number	1
_symmetry_cell_setting	triclinic
loop_
_symmetry_equiv_pos_as_xyz
  x,y,z
_cell_length_a	11.169417
_cell_length_b	13.032781
_cell_length_c	11.169409
_cell_angle_alpha	82.854210
_cell_angle_beta	90.019513
_cell_angle_gamma	97.204857
loop_
_atom_site_label
_atom_site_type_symbol
_atom_site_fract_x
_atom_site_fract_y
_atom_site_fract_z
Zn1	Zn	1.774215	-0.415913	0.739150
Zn2	Zn	2.274215	0.084087	1.239150
Zn3	Zn	1.748575	-0.590700	0.563942
Zn4	Zn	2.248575	-0.090700	1.063942
Zn5	Zn	1.573491	-0.415978	0.538495
Zn6	Zn	2.073491	0.084022	1.038495
Zn7	Zn	1.547991	-0.590616	0.764575
Zn8	Zn	2.047991	-0.090616	1.264575
O9	O	1.661068	-0.503302	0.651541
O10	O	2.161068	-0.003302	1.151541
O11	O	1.938762	-0.439107	0.715917
O12	O	2.438762	0.060893	1.215917
O13	O	1.725291	-0.567585	0.392625
O14	O	2.225291	-0.067585	0.892625
O15	O	1.621520	-0.269733	0.543823
O16	O	2.121520	0.230267	1.043823
O17	O	1.919925	-0.567522	0.587192
O18	O	2.419925	-0.067522	1.087192
O19	O	1.768990	-0.269686	0.691243
O20	O	2.268990	0.230314	1.191243
O21	O	1.596658	-0.439217	0.373930
O22	O	2.096658	0.060783	0.873930
O23	O	1.402160	-0.439136	0.568476
O24	O	1.902160	0.060864	1.068476
O25	O	1.578059	-0.567379	0.929143
O26	O	2.078059	-0.067379	1.429143
O27	O	1.383425	-0.567442	0.734576
O28	O	1.883425	-0.067442	1.234576
O29	O	1.744264	-0.439026	0.910464
O30	O	2.244264	0.060974	1.410464
O31	O	1.700565	-0.736925	0.611846
O32	O	2.200565	-0.236925	1.111846
O33	O	1.553197	-0.736863	0.759251
O34	O	2.053197	-0.236863	1.259251
C35	C	1.349245	-0.503288	0.651525
C36	C	1.849245	-0.003288	1.151525
C37	C	1.215843	-0.503307	0.651550
C38	C	1.715843	-0.003307	1.151550
C39	C	1.621364	-0.774811	0.691095
C40	C	2.121364	-0.274811	1.191095
C41	C	1.604488	-0.890964	0.708056
C42	C	2.104488	-0.390964	1.208056
C43	C	1.652506	-1.062795	0.660263
C44	C	2.152506	-0.562795	1.160263
C45	C	1.669951	-0.942745	0.642732
C46	C	2.169951	-0.442745	1.142732
C47	C	1.974108	-0.503317	0.651557
C48	C	2.474108	-0.003317	1.151557
C49	C	2.107507	-0.503323	0.651564
C50	C	2.607507	-0.003323	1.151564
C51	C	1.661177	-0.503186	0.964566
C52	C	2.161177	-0.003186	1.464566
C53	C	1.661224	-0.503136	1.097959
C54	C	2.161224	-0.003136	1.597959
C55	C	1.700960	-0.230732	0.611858
C56	C	2.200960	0.269268	1.111858
C57	C	1.717959	-0.114579	0.594948
C58	C	2.217959	0.385421	1.094948
C59	C	1.661039	-0.503342	0.339722
C60	C	2.161039	-0.003342	0.839722
C61	C	1.661268	-0.503097	0.206287
C62	C	2.161268	-0.003097	0.706287
H63	H	1.583559	-1.107338	0.729165
H64	H	2.083559	-0.607338	1.229165
H65	H	1.786916	-1.070037	0.526055
H66	H	2.286916	-0.570037	1.026055
O67	O	1.752052	-0.889574	0.560395
O68	O	2.252052	-0.389574	1.060395
C69	C	1.692858	-0.826522	0.473700
C70	C	2.192858	-0.326522	0.973700
H71	H	1.593570	-0.859555	0.470996
H72	H	2.093570	-0.359555	0.970996
H73	H	1.736502	-0.825208	0.381182
H74	H	2.236502	-0.325208	0.881182
H75	H	1.700638	-0.743820	0.498815
H76	H	2.200638	-0.243820	0.998815
H77	H	1.535536	-0.935502	0.776964
H78	H	2.035536	-0.435502	1.276964
