data_functionalizedCrystal
_audit_creation_method	'MofGen! by Chris Wilmer'
_symmetry_space_group_name_H-M	'P1'
_symmetry_Int_Tables_number	1
_symmetry_cell_setting	triclinic
loop_
_symmetry_equiv_pos_as_xyz
  x,y,z
_cell_length_a	10.654550
_cell_length_b	10.654551
_cell_length_c	9.130313
_cell_angle_alpha	90.000052
_cell_angle_beta	89.993276
_cell_angle_gamma	84.485132
loop_
_atom_site_label
_atom_site_type_symbol
_atom_site_fract_x
_atom_site_fract_y
_atom_site_fract_z
O1	O	1.667840	0.176395	-0.121910
O2	O	1.302361	0.193201	-0.121885
O3	O	1.493503	0.002059	-0.121899
O4	O	1.476698	0.367537	-0.121896
O5	O	1.493490	0.002060	0.121700
O6	O	1.302349	0.193202	0.121713
O7	O	1.667827	0.176396	0.121689
Cu8	Cu	1.485087	0.184799	0.143944
Cu9	Cu	1.485102	0.184798	-0.144140
O10	O	1.476686	0.367538	0.121703
C11	C	1.255557	0.191968	-0.000083
C12	C	1.116114	0.188276	-0.000074
C13	C	1.036629	0.300817	-0.000095
C14	C	0.905608	0.297341	-0.000120
C15	C	0.933570	0.068771	-0.000110
C16	C	1.064589	0.072249	-0.000074
C17	C	1.088154	0.416844	-0.000094
C18	C	1.008667	0.529395	-0.000116
C19	C	0.877647	0.525918	-0.000142
C20	C	0.826112	0.409891	-0.000145
C21	C	1.492263	-0.044739	-0.000103
C22	C	1.488570	-0.184182	-0.000112
C23	C	1.486845	-0.249694	-0.132895
C24	C	1.483365	-0.380714	-0.132888
C25	C	1.483340	-0.380699	0.132696
C26	C	1.486812	-0.249680	0.132688
C27	C	1.488603	-0.184196	-0.265696
C28	C	1.486879	-0.249708	-0.398490
C29	C	1.483399	-0.380729	-0.398483
C30	C	1.481643	-0.446236	-0.265682
C31	C	1.714632	0.177629	-0.000117
C32	C	1.854075	0.181321	-0.000135
C33	C	1.477926	0.414336	-0.000097
C34	C	1.481619	0.553779	-0.000097
N35	N	1.485086	0.184799	0.346566
N36	N	1.485113	0.184788	-0.346763
C37	C	1.569760	0.100182	0.576550
C38	C	1.569749	0.100189	0.423213
C39	C	1.400435	0.269415	0.423264
C40	C	1.400452	0.269412	0.576598
C41	C	1.654420	0.015558	0.653189
C42	C	1.739073	-0.069057	0.576502
C43	C	1.739063	-0.069049	0.423165
C44	C	1.654400	0.015574	0.346516
H45	H	0.719425	0.407069	-0.000143
N46	N	1.830370	-0.160294	0.340448
H47	H	1.884002	-0.213898	0.412271
H48	H	1.781804	-0.216260	0.276837
H49	H	1.654407	0.015581	0.221658
H50	H	1.050636	0.623860	-0.000101
H51	H	1.491441	-0.077513	-0.265716
H52	H	1.488297	-0.196362	-0.506611
H53	H	1.808010	-0.137947	0.638918
N54	N	1.477887	-0.587551	-0.265686
H55	H	1.554763	-0.628617	-0.213553
H56	H	1.399281	-0.609496	-0.213575
H57	H	1.331505	0.338310	0.360846
H58	H	1.194836	0.419687	-0.000080
N59	N	1.309164	0.360670	0.659324
H60	H	1.255524	0.414274	0.587509
H61	H	1.253236	0.312074	0.722964
N62	N	1.481464	-0.451349	0.275923
H63	H	1.479012	-0.544291	0.255779
H64	H	1.559792	-0.437943	0.333893
H65	H	0.891600	-0.025693	-0.000137
N66	N	0.791912	0.647303	-0.000072
H67	H	0.844439	0.721327	-0.000040
H68	H	0.736934	0.650880	-0.090363
H69	H	1.129308	-0.019392	-0.000062
N70	N	1.488665	-0.179008	0.275900
H71	H	1.487033	-0.240381	0.360029
H72	H	1.567821	-0.134147	0.281678
H73	H	1.654434	0.015542	0.778044
H74	H	1.481983	-0.434064	-0.506609
