data_functionalizedCrystal
_audit_creation_method	'MofGen! by Chris Wilmer'
_symmetry_space_group_name_H-M	'P1'
_symmetry_Int_Tables_number	1
_symmetry_cell_setting	triclinic
loop_
_symmetry_equiv_pos_as_xyz
  x,y,z
_cell_length_a	27.732048
_cell_length_b	27.731996
_cell_length_c	16.098571
_cell_angle_alpha	86.929421
_cell_angle_beta	86.913523
_cell_angle_gamma	82.632022
loop_
_atom_site_label
_atom_site_type_symbol
_atom_site_fract_x
_atom_site_fract_y
_atom_site_fract_z
O1	O	0.639001	0.055606	0.069159
O2	O	0.498205	0.064351	0.069186
O3	O	0.572989	-0.010419	0.069154
O4	O	0.564216	0.130377	0.069191
O5	O	0.576820	-0.006592	-0.069358
O6	O	0.502035	0.068179	-0.069326
O7	O	0.642831	0.059434	-0.069353
Zn8	Zn	0.573041	0.064414	-0.091331
Zn9	Zn	0.567995	0.059371	0.091164
O10	O	0.568047	0.134204	-0.069320
C11	C	0.482113	0.066081	-0.000067
C12	C	0.428458	0.065528	-0.000057
C13	C	0.089636	0.106234	-0.000083
C14	C	-0.112023	0.104183	-0.000091
O15	O	-0.143285	0.141405	-0.000117
N16	N	-0.131138	0.059847	-0.000101
C17	C	-0.099835	0.016021	-0.000115
O18	O	-0.120720	-0.021737	-0.000132
C19	C	0.101823	0.018072	-0.000113
C20	C	0.120935	0.062411	-0.000094
C21	C	0.108748	0.150569	-0.000065
C22	C	0.159160	0.151081	-0.000058
C23	C	0.190459	0.107258	-0.000070
C24	C	0.171347	0.062923	-0.000087
C25	C	0.133126	-0.025754	-0.000133
C26	C	0.183543	-0.025237	-0.000134
C27	C	0.202655	0.019102	-0.000115
C28	C	0.253058	0.019612	-0.000092
N29	N	0.272173	0.063948	-0.000082
C30	C	0.240874	0.107771	-0.000071
C31	C	-0.205709	0.014947	-0.000114
C32	C	-0.256123	0.014434	-0.000113
C33	C	-0.268308	0.102596	-0.000091
C34	C	-0.217893	0.103109	-0.000086
C35	C	-0.186594	0.059283	-0.000104
C36	C	0.346742	0.108843	-0.000056
C37	C	0.397159	0.109351	-0.000046
C38	C	0.409339	0.021189	-0.000073
C39	C	0.358927	0.020681	-0.000079
C40	C	0.327629	0.064512	-0.000073
O41	O	0.284348	-0.017590	-0.000076
O42	O	0.261769	0.145523	-0.000071
C43	C	0.039224	0.105722	-0.000089
C44	C	0.020112	0.061387	-0.000107
C45	C	0.051411	0.017564	-0.000118
C46	C	-0.030302	0.060873	-0.000106
C47	C	-0.061602	0.104697	-0.000095
C48	C	-0.042487	0.149033	-0.000084
C49	C	0.007925	0.149545	-0.000078
C50	C	0.032296	-0.026773	-0.000129
C51	C	-0.018116	-0.027281	-0.000134
C52	C	-0.049416	0.016542	-0.000123
C53	C	0.574724	-0.026513	-0.000105
C54	C	0.574182	-0.080169	-0.000113
C55	C	0.568678	-0.414973	0.075431
C56	C	0.566616	-0.616631	0.075446
O57	O	0.564553	-0.644477	0.139658
N58	N	0.568448	-0.639762	-0.000056
C59	C	0.570793	-0.612474	-0.075567
O60	O	0.572299	-0.636775	-0.139786
C61	C	0.572851	-0.410816	-0.075582
C62	C	0.571023	-0.387689	-0.000075
C63	C	0.566850	-0.391845	0.150931
C64	C	0.567368	-0.341434	0.150927
C65	C	0.569714	-0.314150	0.075422
C66	C	0.571541	-0.337278	-0.000079
C67	C	0.575191	-0.383529	-0.151092
C68	C	0.575705	-0.333111	-0.151089
C69	C	0.573877	-0.309984	-0.075582
C70	C	0.574405	-0.259583	-0.075589
N71	N	0.572573	-0.236452	-0.000087
C72	C	0.570228	-0.263736	0.075418
C73	C	0.569713	-0.718348	-0.075555
C74	C	0.569199	-0.768763	-0.075551
C75	C	0.565022	-0.772916	0.075462
C76	C	0.565539	-0.722501	0.075458
C77	C	0.567881	-0.695217	-0.000053
C78	C	0.571316	-0.157868	0.075403
C79	C	0.571836	-0.107453	0.075392
C80	C	0.576011	-0.103303	-0.075621
C81	C	0.575493	-0.153715	-0.075610
C82	C	0.573144	-0.180996	-0.000091
O83	O	0.576462	-0.231707	-0.139768
O84	O	0.568711	-0.239425	0.139627
C85	C	0.568160	-0.465384	0.075435
C86	C	0.569987	-0.488512	-0.000066
C87	C	0.572333	-0.461228	-0.075571
C88	C	0.569474	-0.538926	-0.000062
C89	C	0.567128	-0.566210	0.075443
C90	C	0.565296	-0.543079	0.150945
C91	C	0.565814	-0.492668	0.150941
C92	C	0.574165	-0.484358	-0.151073
C93	C	0.573647	-0.534770	-0.151062
C94	C	0.571302	-0.562054	-0.075557
C95	C	0.658923	0.057704	-0.000098
C96	C	0.712578	0.058257	-0.000102
C97	C	0.566312	0.150298	-0.000060
C98	C	0.566854	0.203954	-0.000046
N99	N	0.576489	0.067856	-0.215879
C100	C	0.592435	0.083837	-0.740694
C101	C	0.590026	0.081426	-0.653506
C102	C	0.559734	0.051100	-0.609913
C103	C	0.531846	0.023188	-0.653512
C104	C	0.534253	0.025602	-0.740699
C105	C	0.551008	0.042357	-0.346665
C106	C	0.548604	0.039944	-0.259473
C107	C	0.606784	0.098183	-0.259472
C108	C	0.609190	0.100592	-0.346660
C109	C	0.581301	0.072682	-0.390252
C110	C	0.557272	0.048634	-0.520792
C111	C	0.583761	0.075151	-0.479371
N112	N	0.564551	0.055925	0.215712
H113	H	-0.180229	-0.020744	-0.000129
H114	H	0.608422	0.099844	-0.514868
H115	H	0.174716	0.187186	-0.000043
O116	O	0.499173	-0.009519	-0.606493
H117	H	0.480183	-0.028518	-0.651457
O118	O	0.564320	-0.421271	0.232374
H119	H	0.531024	-0.439779	0.236001
O120	O	0.562762	-0.572510	0.232386
H121	H	0.562705	-0.611450	0.219695
O122	O	0.443106	-0.026073	-0.000093
H123	H	0.434796	-0.048874	0.056355
H124	H	0.532609	0.023941	-0.485289
H125	H	0.511545	0.002874	-0.776192
O126	O	0.074993	0.197839	-0.000049
H127	H	0.096761	0.228749	-0.000031
H128	H	0.117574	-0.061859	-0.000149
O129	O	-0.197284	0.150933	-0.000078
H130	H	-0.176174	0.151723	0.056379
O131	O	0.515970	0.007193	-0.212456
H132	H	0.519002	0.010185	-0.144506
O133	O	0.575617	-0.559713	-0.232507
H134	H	0.577330	-0.532265	-0.285006
O135	O	0.217298	-0.072510	-0.000152
H136	H	0.242121	-0.072826	-0.056611
H137	H	-0.033672	-0.063390	-0.000143
H138	H	0.528300	0.019629	-0.382148
H139	H	-0.293800	0.138279	-0.000082
H140	H	0.617104	0.108530	-0.776181
O141	O	0.636858	0.128288	-0.212451
H142	H	0.658328	0.149779	-0.257412
H143	H	0.412717	0.145459	-0.000030
O144	O	0.641863	0.133302	-0.393674
H145	H	0.619585	0.160538	-0.433385
H146	H	0.612733	0.104154	-0.618016
O147	O	0.028537	0.197367	-0.000075
H148	H	-0.001703	0.227750	-0.000079
H149	H	0.577923	-0.081080	-0.137096
O150	O	0.312989	0.156116	-0.000043
H151	H	0.334755	0.187027	-0.000021
H152	H	-0.067979	0.184715	-0.000072
H153	H	-0.271680	-0.021672	-0.000116
H154	H	0.563113	-0.795139	0.136942
O155	O	0.565389	-0.316497	0.232372
H156	H	0.598483	-0.298188	0.235996
O157	O	0.338308	-0.027140	-0.000096
H158	H	0.368544	-0.057526	-0.000107
H159	H	0.057775	-0.062459	-0.000140
O160	O	0.577474	-0.178657	-0.157054
H161	H	0.610300	-0.206082	-0.160674
H162	H	0.570349	-0.088625	0.136881
H163	H	0.569401	-0.180075	0.136898
O164	O	0.563560	-0.697556	0.156896
H165	H	0.561839	-0.725002	0.209395
O166	O	0.571175	-0.793706	-0.156990
H167	H	0.572887	-0.766259	-0.209489
H168	H	0.571622	-0.696138	-0.137048
H169	H	0.576680	-0.402350	-0.212578
H170	H	0.577604	-0.310898	-0.212580
O171	O	0.563835	-0.467725	0.232380
H172	H	0.562111	-0.495172	0.284877
O173	O	0.576704	-0.454935	-0.232514
H174	H	0.577896	-0.479494	-0.285008
