data_functionalizedCrystal
_audit_creation_method	'MofGen! by Chris Wilmer'
_symmetry_space_group_name_H-M	'P1'
_symmetry_Int_Tables_number	1
_symmetry_cell_setting	triclinic
loop_
_symmetry_equiv_pos_as_xyz
  x,y,z
_cell_length_a	13.897449
_cell_length_b	12.645330
_cell_length_c	12.645323
_cell_angle_alpha	89.972994
_cell_angle_beta	89.978672
_cell_angle_gamma	90.013926
loop_
_atom_site_label
_atom_site_type_symbol
_atom_site_fract_x
_atom_site_fract_y
_atom_site_fract_z
Zn1	Zn	1.474742	-0.421995	-0.599392
Zn2	Zn	1.474649	-0.599283	-0.422126
Zn3	Zn	1.313430	-0.422038	-0.422141
Zn4	Zn	1.313427	-0.599221	-0.599346
O5	O	1.394062	-0.510634	-0.510751
O6	O	1.609711	-0.445520	-0.575891
O7	O	1.453224	-0.575815	-0.273781
O8	O	1.334868	-0.273685	-0.445680
O9	O	1.609643	-0.575773	-0.445654
O10	O	1.453384	-0.273653	-0.575906
O11	O	1.334777	-0.445594	-0.273792
O12	O	1.178448	-0.445533	-0.445634
O13	O	1.334864	-0.575667	-0.747699
O14	O	1.178446	-0.575709	-0.575826
O15	O	1.453381	-0.445460	-0.747734
O16	O	1.453222	-0.747622	-0.445609
O17	O	1.334773	-0.747576	-0.575811
C18	C	1.143448	-0.510620	-0.510727
C19	C	1.036234	-0.510639	-0.510742
C20	C	1.394014	-0.786064	-0.510726
C21	C	1.394081	-0.903894	-0.510751
C22	C	0.839938	-0.510643	-0.510770
C23	C	0.949171	-0.510638	-0.510751
C24	C	1.468478	-1.071442	-0.428674
C25	C	1.468720	-0.948882	-0.428875
C26	C	1.421651	-0.948275	-0.622495
C27	C	1.422242	-1.070873	-0.622060
C28	C	1.292085	-1.071224	-0.482185
C29	C	1.292574	-0.948619	-0.479679
C30	C	1.645655	-0.510649	-0.510776
C31	C	1.752869	-0.510655	-0.510787
C32	C	1.394133	-0.510552	-0.787257
C33	C	1.394163	-0.510517	-0.905087
C34	C	1.394137	-0.234129	-0.510800
C35	C	1.394169	-0.116299	-0.510820
C36	C	1.319374	-0.592044	-1.072629
C37	C	1.319570	-0.592448	-0.950069
C38	C	1.495801	-0.540833	-0.949603
C39	C	1.495391	-0.541344	-1.072201
C40	C	1.368275	-0.398218	-1.072289
C41	C	1.366008	-0.398891	-0.949683
C42	C	1.394047	-0.510639	-0.235321
C43	C	1.394203	-0.510375	-0.117492
H44	H	1.451470	-0.918879	-0.346019
H45	H	1.517367	-0.623333	-1.100808
N46	N	1.525411	-0.648303	-0.908962
H47	H	1.590900	-0.667106	-0.938048
H48	H	1.528186	-0.646767	-0.829169
N49	N	1.571758	-0.465992	-1.111523
H50	H	1.636811	-0.489387	-1.084708
H51	H	1.572003	-0.465772	-1.191390
N52	N	1.265014	-0.910555	-0.370637
H53	H	1.203424	-0.868387	-0.374898
H54	H	1.255187	-0.973502	-0.322643
H55	H	1.336687	-0.675595	-0.920752
N56	N	1.445949	-1.110593	-0.318592
H57	H	1.432827	-1.048291	-0.270766
H58	H	1.387368	-1.157810	-0.320977
N59	N	1.219732	-0.567315	-0.910216
H60	H	1.195225	-0.628155	-0.865982
H61	H	1.221932	-0.501048	-0.865730
H62	H	1.422777	-0.337371	-1.101304
H63	H	1.295451	-0.370583	-1.103196
H64	H	1.543681	-1.102171	-0.447403
N65	N	1.432923	-0.314022	-0.909131
H66	H	1.482662	-0.346877	-0.861065
H67	H	1.466131	-0.278726	-0.970820
H68	H	1.267014	-1.102233	-0.402120
N69	N	1.218740	-1.109664	-0.561420
H70	H	1.153300	-1.080456	-0.542624
H71	H	1.237505	-1.084802	-0.634485
H72	H	1.544329	-0.919472	-0.447816
N73	N	1.571639	-0.464529	-0.911033
H74	H	1.540766	-0.409445	-0.864216
H75	H	1.621986	-0.504398	-0.869483
N76	N	1.519381	-0.907510	-0.655159
H77	H	1.564439	-0.969102	-0.666644
H78	H	1.513163	-0.865803	-0.722945
N79	N	1.521085	-1.108647	-0.654163
H80	H	1.536626	-1.081670	-0.727395
H81	H	1.570328	-1.081059	-0.602335
H82	H	1.291211	-0.376028	-0.920587
N83	N	1.353669	-1.110184	-0.705896
H84	H	1.323195	-1.047870	-0.742975
H85	H	1.390109	-1.154390	-0.758994
H86	H	1.243782	-0.573256	-1.102105
H87	H	1.369176	-0.919131	-0.685340
H88	H	1.234221	-0.918006	-0.535123
H89	H	1.336324	-0.674672	-1.103445
