data_functionalizedCrystal
_audit_creation_method	'MofGen! by Chris Wilmer'
_symmetry_space_group_name_H-M	'P1'
_symmetry_Int_Tables_number	1
_symmetry_cell_setting	triclinic
loop_
_symmetry_equiv_pos_as_xyz
  x,y,z
_cell_length_a	17.052832
_cell_length_b	23.196402
_cell_length_c	23.196401
_cell_angle_alpha	60.007332
_cell_angle_beta	102.328588
_cell_angle_gamma	67.555531
loop_
_atom_site_label
_atom_site_type_symbol
_atom_site_fract_x
_atom_site_fract_y
_atom_site_fract_z
Zr1	Zr	0.773346	0.630971	0.045634
O2	O	0.645162	0.751235	-0.066513
O3	O	0.812630	0.510710	0.080008
O4	O	0.812607	0.630973	-0.040261
O5	O	0.645217	0.630971	0.148633
O6	O	0.944703	0.630972	-0.019548
O7	O	0.645185	0.630972	0.053756
O8	O	0.944744	0.415843	0.195592
O9	O	0.645176	0.846099	-0.066508
O10	O	0.927980	0.560174	0.110132
O11	O	0.829421	0.560173	0.165479
O12	O	0.829394	0.701768	0.023877
O13	O	0.730836	0.701767	0.079224
Zr14	Zr	0.984075	0.630968	0.229986
Zr15	Zr	0.984025	0.630970	0.078669
Zr16	Zr	0.773397	0.630969	0.196951
Zr17	Zr	0.773368	0.782269	0.045643
Zr18	Zr	0.984054	0.479670	0.229977
O19	O	0.944792	0.751229	0.195612
O20	O	0.944720	0.751233	-0.019541
O21	O	0.645234	0.751232	0.148640
O22	O	1.112259	0.510704	0.342133
O23	O	1.112187	0.510707	0.126980
O24	O	0.812701	0.510706	0.295161
O25	O	1.112204	0.630968	0.126987
O26	O	0.944815	0.630966	0.315882
O27	O	0.812718	0.630967	0.295168
O28	O	1.112236	0.630967	0.221864
O29	O	0.812637	0.846098	-0.040249
O30	O	0.944784	0.415841	0.315869
O31	O	1.112246	0.415840	0.342128
O32	O	1.112206	0.415842	0.221851
O33	O	0.645216	0.846097	0.053769
O34	O	0.812677	0.846096	0.080028
O35	O	0.928027	0.560171	0.251743
O36	O	1.026586	0.560172	0.196396
O37	O	0.928000	0.701766	0.110141
O38	O	0.829441	0.701765	0.165488
C39	C	0.878684	0.441720	0.137799
C40	C	0.878675	0.377490	0.137795
C41	C	0.951466	0.295060	0.201470
C42	C	0.951473	0.234700	0.201477
C43	C	0.878696	0.256774	0.137800
C44	C	0.805892	0.339218	0.074119
C45	C	0.805881	0.399576	0.074117
C46	C	0.856016	0.201188	0.070452
C47	C	0.856033	0.140829	0.070455
C48	C	0.878722	0.070612	0.137807
C49	C	0.901416	0.060753	0.205164
C50	C	0.901405	0.121110	0.205161
C51	C	0.878699	0.191332	0.137796
C52	C	0.951525	-0.077271	0.201495
C53	C	0.951525	-0.137630	0.201502
C54	C	0.805948	-0.033109	0.074139
C55	C	0.805944	0.027248	0.074137
C56	C	0.878737	0.005162	0.137816
C57	C	0.615184	0.630972	0.096488
C58	C	0.525746	0.630972	0.082463
C59	C	0.273711	0.630963	0.252018
C60	C	0.357747	0.630958	0.265199
C61	C	0.399751	0.630962	0.219516
C62	C	0.357711	0.630971	0.160650
C63	C	0.273671	0.630970	0.147472
C64	C	0.399711	0.630968	0.114970
C65	C	0.357671	0.630977	0.056104
C66	C	0.273639	0.630977	0.042928
C67	C	0.231636	0.630973	0.088611
C68	C	0.483750	0.630969	0.128148
C69	C	0.483710	0.630976	0.023602
C70	C	0.399674	0.630981	0.010421
C71	C	1.142237	0.630967	0.179132
C72	C	1.231676	0.630967	0.193157
C73	C	0.878648	0.630972	-0.051464
C74	C	0.878626	0.630973	-0.115702
C75	C	0.878737	0.820219	0.137821
C76	C	0.878746	0.884449	0.137825
C77	C	0.827170	0.704882	-0.190899
C78	C	0.827195	0.704883	-0.251250
C79	C	0.878663	0.630971	-0.236403
C80	C	0.930130	0.557053	-0.161192
C81	C	0.930112	0.557054	-0.100842
C82	C	0.871345	0.574345	-0.304869
C83	C	0.871356	0.574347	-0.365221
C84	C	0.878725	0.630965	-0.422541
C85	C	0.886063	0.687595	-0.419511
C86	C	0.886044	0.687596	-0.359161
C87	C	0.878689	0.630962	-0.301837
C88	C	0.827294	0.704880	-0.563180
C89	C	0.827326	0.704878	-0.623530
C90	C	0.930254	0.557046	-0.533471
C91	C	0.930228	0.557050	-0.473122
C92	C	0.878743	0.630969	-0.487982
C93	C	0.878774	0.630967	0.327084
C94	C	0.878795	0.630966	0.391322
C95	C	1.142211	0.441718	0.179121
C96	C	1.231640	0.377487	0.193142
C97	C	0.878747	0.441717	0.327073
C98	C	0.878759	0.377486	0.391307
C99	C	1.142274	0.441715	0.368395
C100	C	1.231725	0.377483	0.446654
C101	C	0.615148	0.820224	-0.092775
C102	C	0.525697	0.884456	-0.171034
C103	C	0.615211	0.820221	0.096499
C104	C	0.525781	0.884452	0.082478
C105	C	0.878674	0.820222	-0.051453
C106	C	0.878662	0.884453	-0.115687
C107	C	1.222166	0.347325	0.154691
C108	C	1.306187	0.286982	0.167850
C109	C	1.399680	0.256798	0.219463
C110	C	1.409152	0.286967	0.257915
C111	C	1.325133	0.347313	0.244752
C112	C	0.930236	0.347322	0.466507
C113	C	0.930244	0.286979	0.526867
C114	C	0.878780	0.256797	0.512027
C115	C	0.827297	0.286967	0.436818
C116	C	0.827284	0.347313	0.376459
C117	C	1.325187	0.347320	0.454516
C118	C	1.409244	0.286976	0.528044
C119	C	1.399836	0.256793	0.593708
C120	C	1.306363	0.286962	0.585844
C121	C	1.222309	0.347309	0.512317
C122	C	0.432234	0.914627	-0.178896
C123	C	0.348178	0.974989	-0.252423
C124	C	0.357586	1.005175	-0.318088
C125	C	0.451058	0.975002	-0.310223
C126	C	0.535112	0.914645	-0.236697
C127	C	0.535255	0.914620	0.120923
C128	C	0.451235	0.974980	0.107748
C129	C	0.357741	1.005166	0.056132
C130	C	0.348269	0.974995	0.017683
C131	C	0.432289	0.914640	0.030855
C132	C	0.930136	0.914616	-0.100822
C133	C	0.930143	0.974959	-0.161168
C134	C	0.878671	1.005143	-0.236379
C135	C	0.827195	0.974974	-0.251243
C136	C	0.827194	0.914628	-0.190897
H137	H	1.010740	0.277070	0.253322
C138	C	1.512005	0.253750	0.314694
N139	N	1.589476	0.228724	0.357465
C140	C	0.421850	0.881452	-0.011433
N141	N	0.413981	0.856456	-0.043286
H142	H	0.163205	0.630982	0.077878
H143	H	0.468176	0.630957	0.230251
H144	H	0.391974	0.630949	0.313128
C145	C	0.227415	0.630962	-0.021811
N146	N	0.192605	0.630946	-0.070570
H147	H	0.239511	0.630954	0.289212
C148	C	0.245368	1.008167	-0.261057
N149	N	0.167934	1.033155	-0.267558
C150	C	1.295745	0.253801	0.125552
N151	N	1.287878	0.228809	0.093695
C152	C	0.353425	0.630984	-0.054325
N153	N	0.318590	0.630985	-0.103091
C154	C	1.031554	0.144014	0.271526
N155	N	1.091872	0.075711	0.324287
H156	H	0.424555	0.890052	-0.125437
H157	H	1.332866	0.371886	0.401057
H158	H	0.878679	1.054281	-0.285510
C159	C	0.529910	0.630980	-0.026653
N160	N	0.564714	0.630983	-0.064501
C161	C	1.492095	0.190410	0.233940
N162	N	1.561699	0.140404	0.244843
H163	H	0.785274	0.890076	-0.203011
H164	H	0.919880	0.113080	0.260004
H165	H	1.485345	0.262418	0.534434
H166	H	0.878799	0.207659	0.561182
C167	C	0.986849	0.380515	0.482850
N168	N	1.029486	0.405517	0.495164
H169	H	0.919885	0.003582	0.260007
C170	C	0.770696	0.253754	0.420507
N171	N	0.728070	0.228732	0.408224
C172	C	0.265113	1.071564	-0.398965
N173	N	0.195459	1.121565	-0.459880
H174	H	0.972059	0.999516	-0.149051
C175	C	1.335571	0.380477	0.287064
N176	N	1.343440	0.405452	0.318937
H177	H	0.785428	0.765065	-0.684760
H178	H	0.458706	0.999588	-0.363697
H179	H	0.785288	0.999559	-0.312488
C180	C	0.831049	0.151689	-0.003642
N181	N	0.812221	0.159875	-0.059456
C182	C	0.770670	0.786191	-0.579523
N183	N	0.728023	0.847436	-0.591834
H184	H	0.785251	0.765072	-0.203004
H185	H	1.468286	0.207654	0.653574
H186	H	1.298718	0.262378	0.639318
C187	C	0.637919	0.881454	-0.228061
N188	N	0.715353	0.856456	-0.221562
C189	C	0.770587	0.786191	-0.333978
N190	N	0.727949	0.847432	-0.396288
H191	H	1.146211	0.371860	0.505926
H192	H	0.972171	0.262421	0.588100
C193	C	0.725807	0.490257	0.004063
N194	N	0.665496	0.558559	-0.048703
H195	H	0.785369	0.371865	0.315230
H196	H	0.611375	0.890048	0.162957
H197	H	0.272135	0.999581	-0.024343
C198	C	0.894129	0.749879	-0.355824
N199	N	0.900225	0.796789	-0.353308
H200	H	0.972051	0.890049	-0.039586
H201	H	0.458966	0.999535	0.139063
C202	C	0.265326	1.071554	0.041655
N203	N	0.195722	1.121555	0.030757
C204	C	0.831056	0.278425	-0.003645
N205	N	0.812257	0.336599	-0.059453
H206	H	1.010799	-0.204752	0.253358
C207	C	1.031590	-0.101564	0.271547
N208	N	1.091894	-0.119864	0.324311
C209	C	0.986823	0.475744	-0.390403
N210	N	1.029454	0.414500	-0.328096
C211	C	0.725876	0.117927	0.004084
N212	N	0.665565	0.186229	-0.048683
C213	C	0.725890	-0.008823	0.004094
N214	N	0.665588	0.009469	-0.048666
C215	C	0.725838	0.363499	0.004074
N216	N	0.665537	0.381790	-0.048686
H217	H	0.517971	0.630961	0.176078
H218	H	0.892058	0.733701	-0.466184
H219	H	0.865376	0.528240	-0.367684
C220	C	0.986741	0.475750	-0.144862
N221	N	1.029384	0.414511	-0.132560
C222	C	0.863235	0.512059	-0.241821
N223	N	0.857126	0.465147	-0.194336
H224	H	0.972014	0.496867	-0.039611
H225	H	0.972161	0.496866	-0.521381
C226	C	1.119331	0.380520	0.097907
N227	N	1.041877	0.405523	0.055131
