data_functionalizedCrystal
_audit_creation_method	'MofGen! by Chris Wilmer'
_symmetry_space_group_name_H-M	'P1'
_symmetry_Int_Tables_number	1
_symmetry_cell_setting	triclinic
loop_
_symmetry_equiv_pos_as_xyz
  x,y,z
_cell_length_a	18.215407
_cell_length_b	15.299816
_cell_length_c	18.215399
_cell_angle_alpha	80.342622
_cell_angle_beta	90.019833
_cell_angle_gamma	80.351325
loop_
_atom_site_label
_atom_site_type_symbol
_atom_site_fract_x
_atom_site_fract_y
_atom_site_fract_z
Zn1	Zn	1.175767	-0.359060	0.466870
Zn2	Zn	1.196971	-0.509888	0.365123
Zn3	Zn	1.052704	-0.359090	0.343821
Zn4	Zn	1.073954	-0.509838	0.488141
O5	O	1.124849	-0.434469	0.415989
O6	O	1.281565	-0.379077	0.453386
O7	O	1.177814	-0.489918	0.259318
O8	O	1.051262	-0.232875	0.342327
O9	O	1.297144	-0.489889	0.378633
O10	O	1.141676	-0.232854	0.432730
O11	O	1.071822	-0.379127	0.243667
O12	O	0.952537	-0.379078	0.362953
O13	O	1.087479	-0.489804	0.588299
O14	O	0.968149	-0.489832	0.468984
O15	O	1.162281	-0.379028	0.572671
O16	O	1.198419	-0.636092	0.399259
O17	O	1.108039	-0.636055	0.489639
C18	C	0.933640	-0.434454	0.415965
C19	C	0.851844	-0.434469	0.415976
C20	C	0.671811	-0.492229	0.471140
C21	C	0.594953	-0.492232	0.471150
C22	C	0.578641	-0.376725	0.360856
C23	C	0.655497	-0.376719	0.360850
C24	C	0.702081	-0.434476	0.415992
C25	C	0.548366	-0.434485	0.416007
C26	C	0.465033	-0.434488	0.416017
C27	C	0.785420	-0.434472	0.415983
C28	C	1.157856	-0.668798	0.449085
C29	C	1.172044	-0.769046	0.463268
C30	C	1.023929	-1.051970	0.314869
C31	C	1.010595	-0.957782	0.301545
C32	C	1.050956	-0.910594	0.341974
C33	C	1.104653	-0.957601	0.395730
C34	C	1.117984	-1.051798	0.409060
C35	C	1.145012	-0.910422	0.436165
C36	C	1.198709	-0.957429	0.489922
C37	C	1.212038	-1.051616	0.503248
C38	C	1.171677	-1.098805	0.462819
C39	C	1.131680	-0.816225	0.422836
C40	C	1.225736	-0.816053	0.517027
C41	C	1.239070	-0.910240	0.530351
C42	C	1.316804	-0.434485	0.416013
C43	C	1.398604	-0.434492	0.416023
C44	C	1.124885	-0.434407	0.607933
C45	C	1.124900	-0.434380	0.689728
C46	C	1.091733	-0.199224	0.382779
C47	C	1.077621	-0.098977	0.368628
C48	C	1.124846	-0.434466	0.224782
C49	C	1.124938	-0.434238	0.142951
C50	C	1.163859	-0.376645	0.869778
C51	C	1.163864	-0.376619	0.946633
C52	C	1.085974	-0.491976	0.962896
C53	C	1.085965	-0.491997	0.886042
C54	C	1.124912	-0.434333	0.839485
C55	C	1.124926	-0.434286	0.993194
C56	C	1.124931	-0.434258	1.076524
C57	C	1.124906	-0.434360	0.756150
H58	H	0.709738	-0.539256	0.516042
H59	H	1.195577	-0.329643	0.971294
F60	F	0.562741	-0.553699	0.529848
H61	H	1.054267	-0.538925	1.000812
H62	H	1.195570	-0.329689	0.831873
F63	F	1.074534	-0.766207	0.365626
F64	F	0.529058	-0.315261	0.302172
F65	F	0.687714	-0.315241	0.302153
F66	F	0.980971	-1.102196	0.271857
F67	F	1.036561	-0.810352	0.327995
F68	F	1.269175	-1.101643	0.560473
H69	H	1.258600	-0.777633	0.549950
H70	H	1.054244	-0.538972	0.861377
H71	H	1.182533	-1.175500	0.473662
F72	F	1.296216	-0.960280	0.587562
F73	F	0.953442	-0.907760	0.244342
