data_functionalizedCrystal
_audit_creation_method	'MofGen! by Chris Wilmer'
_symmetry_space_group_name_H-M	'P1'
_symmetry_Int_Tables_number	1
_symmetry_cell_setting	triclinic
loop_
_symmetry_equiv_pos_as_xyz
  x,y,z
_cell_length_a	18.101398
_cell_length_b	18.101397
_cell_length_c	18.101390
_cell_angle_alpha	89.964458
_cell_angle_beta	89.975319
_cell_angle_gamma	90.015732
loop_
_atom_site_label
_atom_site_type_symbol
_atom_site_fract_x
_atom_site_fract_y
_atom_site_fract_z
Zn1	Zn	1.132178	-0.294895	-0.418825
Zn2	Zn	1.632178	0.205105	0.081175
Zn3	Zn	1.132096	-0.418752	-0.294978
Zn4	Zn	1.632096	0.081248	0.205022
Zn5	Zn	1.008337	-0.294918	-0.294986
Zn6	Zn	1.508337	0.205082	0.205014
Zn7	Zn	1.008311	-0.418689	-0.418767
Zn8	Zn	1.508311	0.081311	0.081233
O9	O	1.070231	-0.356813	-0.356889
O10	O	1.570231	0.143187	0.143111
O11	O	1.235800	-0.311341	-0.402418
O12	O	1.735800	0.188659	0.097582
O13	O	1.115656	-0.402361	-0.191346
O14	O	1.615656	0.097639	0.308654
O15	O	1.024809	-0.191282	-0.311442
O16	O	1.524809	0.308718	0.188558
O17	O	1.235740	-0.402338	-0.311428
O18	O	1.735740	0.097662	0.188572
O19	O	1.115795	-0.191265	-0.402426
O20	O	1.615795	0.308735	0.097574
O21	O	1.024730	-0.311381	-0.191352
O22	O	1.524730	0.188619	0.308648
O23	O	0.904700	-0.311320	-0.311385
O24	O	1.404700	0.188680	0.188615
O25	O	1.024766	-0.402231	-0.522407
O26	O	1.524766	0.097769	-0.022407
O27	O	0.904682	-0.402254	-0.402326
O28	O	1.404682	0.097746	0.097674
O29	O	1.115771	-0.311280	-0.522450
O30	O	1.615771	0.188720	-0.022450
O31	O	1.115631	-0.522376	-0.311371
O32	O	1.615631	-0.022376	0.188629
O33	O	1.024686	-0.522330	-0.402318
O34	O	1.524686	-0.022330	0.097682
C35	C	0.877820	-0.356783	-0.356850
C36	C	1.377820	0.143217	0.143150
C37	C	0.795506	-0.356788	-0.356851
C38	C	1.295506	0.143212	0.143149
C39	C	1.070167	-0.549224	-0.356853
C40	C	1.570167	-0.049224	0.143147
C41	C	1.070208	-0.631538	-0.356863
C42	C	1.570208	-0.131538	0.143137
C43	C	1.070302	-0.930629	-0.356930
C44	C	1.570302	-0.430629	0.143070
C45	C	1.127363	-0.899302	-0.299555
C46	C	1.627363	-0.399302	0.200445
C47	C	1.127560	-0.813684	-0.299704
C48	C	1.627560	-0.313684	0.200296
C49	C	1.070256	-0.782246	-0.356896
C50	C	1.570256	-0.282246	0.143104
C51	C	1.091412	-0.813249	-0.434959
C52	C	1.591412	-0.313249	0.065041
C53	C	1.091854	-0.898894	-0.434646
C54	C	1.591854	-0.398894	0.065354
C55	C	0.991933	-0.899133	-0.336918
C56	C	1.491933	-0.399133	0.163082
C57	C	0.992321	-0.813484	-0.335175
C58	C	1.492321	-0.313484	0.164825
C59	C	1.070228	-0.698387	-0.356881
C60	C	1.570228	-0.198387	0.143119
C61	C	1.070332	-1.014488	-0.356950
C62	C	1.570332	-0.514488	0.143050
C63	C	0.496415	-0.356835	-0.356914
C64	C	0.996415	0.143165	0.143086
C65	C	0.527727	-0.299336	-0.299975
C66	C	1.027727	0.200664	0.200025
C67	C	0.613345	-0.299490	-0.299732
C68	C	1.113345	0.200510	0.200268
C69	C	0.644798	-0.356811	-0.356883
C70	C	1.144798	0.143189	0.143117
C71	C	0.613694	-0.434824	-0.335555
C72	C	1.113694	0.065176	0.164445
C73	C	0.528049	-0.434505	-0.335159
C74	C	1.028049	0.065495	0.164841
C75	C	0.528026	-0.336998	-0.435314
C76	C	1.028026	0.163002	0.064686
C77	C	0.613677	-0.335261	-0.434886
C78	C	1.113677	0.164739	0.065114
C79	C	0.728657	-0.356802	-0.356867
C80	C	1.228657	0.143198	0.143133
C81	C	0.412556	-0.356848	-0.356928
C82	C	0.912556	0.143152	0.143072
C83	C	1.263392	-0.356844	-0.356928
C84	C	1.763392	0.143156	0.143072
C85	C	1.345707	-0.356857	-0.356945
C86	C	1.845707	0.143143	0.143055
C87	C	1.070275	-0.356746	-0.550051
C88	C	1.570275	0.143254	-0.050051
C89	C	1.070293	-0.356717	-0.632365
C90	C	1.570293	0.143283	-0.132365
C91	C	1.070314	-0.163652	-0.356941
C92	C	1.570314	0.336348	0.143059
C93	C	1.070350	-0.081337	-0.356964
C94	C	1.570350	0.418663	0.143036
C95	C	1.070333	-0.356671	-0.931456
C96	C	1.570333	0.143329	-0.431456
C97	C	1.127780	-0.299648	-0.900158
C98	C	1.627780	0.200352	-0.400158
C99	C	1.127600	-0.299437	-0.814540
C100	C	1.627600	0.200563	-0.314540
C101	C	1.070314	-0.356694	-0.783074
C102	C	1.570314	0.143306	-0.283074
C103	C	0.992293	-0.335484	-0.814141
C104	C	1.492293	0.164516	-0.314141
C105	C	0.992637	-0.335057	-0.899787
C106	C	1.492637	0.164943	-0.399787
C107	C	1.090221	-0.435050	-0.899867
C108	C	1.590221	0.064950	-0.399867
C109	C	1.091933	-0.434650	-0.814217
C110	C	1.591933	0.065350	-0.314217
C111	C	1.070299	-0.356708	-0.699214
C112	C	1.570299	0.143292	-0.199214
C113	C	1.070344	-0.356655	-1.015316
C114	C	1.570344	0.143345	-0.515316
C115	C	1.070229	-0.356827	-0.164479
C116	C	1.570229	0.143173	0.335521
C117	C	1.070354	-0.356648	-0.082165
C118	C	1.570354	0.143352	0.417835
H119	H	1.114324	-0.792726	-0.241822
H120	H	1.614324	-0.292726	0.258178
H121	H	1.048383	-0.477538	-0.920111
H122	H	1.548383	0.022462	-0.420111
C123	C	1.038159	-0.926889	-0.494372
C124	C	1.538159	-0.426889	0.005628
H125	H	1.016177	-0.885917	-0.518723
H126	H	1.516177	-0.385917	-0.018723
H127	H	1.000732	-0.956095	-0.471960
H128	H	1.500732	-0.456095	0.028040
H129	H	1.064454	-0.955914	-0.529295
H130	H	1.564454	-0.455914	-0.029295
C131	C	1.205978	-0.785927	-0.317599
C132	C	1.705978	-0.285927	0.182401
H133	H	1.206368	-0.733444	-0.317745
H134	H	1.706368	-0.233444	0.182255
H135	H	1.220473	-0.803629	-0.364821
H136	H	1.720473	-0.303629	0.135179
H137	H	1.239472	-0.803575	-0.281261
H138	H	1.739472	-0.303575	0.218739
C139	C	0.969851	-0.257665	-0.926802
C140	C	1.469851	0.242335	-0.426802
H141	H	0.969851	-0.256724	-0.979278
H142	H	1.469851	0.243276	-0.479278
H143	H	1.003897	-0.222076	-0.908702
H144	H	1.503897	0.277924	-0.408702
H145	H	0.921731	-0.246455	-0.909099
H146	H	1.421731	0.253545	-0.409099
H147	H	0.972687	-0.920797	-0.280981
H148	H	1.472687	-0.420797	0.219019
C149	C	0.498625	-0.316848	-0.221951
C150	C	0.998625	0.183152	0.278049
H151	H	0.467476	-0.359050	-0.223924
H152	H	0.967476	0.140950	0.276076
H153	H	0.471369	-0.275836	-0.203841
H154	H	0.971369	0.224164	0.296159
H155	H	0.539082	-0.326481	-0.189953
H156	H	1.039082	0.173519	0.310047
H157	H	0.976368	-0.793229	-0.277727
H158	H	1.476368	-0.293229	0.222273
C159	C	0.931795	-0.784587	-0.387491
C160	C	1.431795	-0.284587	0.112509
H161	H	0.953360	-0.752957	-0.423428
H162	H	1.453360	-0.252957	0.076572
H163	H	0.896064	-0.757886	-0.359854
H164	H	1.396064	-0.257886	0.140146
H165	H	0.908629	-0.825097	-0.411481
H166	H	1.408629	-0.325097	0.088519
H167	H	0.634010	-0.277852	-0.450968
H168	H	1.134010	0.222148	0.049032
H169	H	1.114287	-0.919949	-0.241500
H170	H	1.614287	-0.419949	0.258500
C171	C	0.500671	-0.393569	-0.492628
C172	C	1.000671	0.106431	0.007372
H173	H	0.470133	-0.429105	-0.468934
H174	H	0.970133	0.070895	0.031066
H175	H	0.541859	-0.417655	-0.514466
H176	H	1.041859	0.082345	-0.014466
H177	H	0.473127	-0.368844	-0.529834
H178	H	0.973127	0.131156	-0.029834
C179	C	1.205359	-0.928297	-0.317240
C180	C	1.705359	-0.428297	0.182760
H181	H	1.203300	-0.959409	-0.359438
H182	H	1.703300	-0.459409	0.140562
H183	H	1.223577	-0.955570	-0.276267
H184	H	1.723577	-0.455570	0.223733
H185	H	1.237316	-0.887794	-0.326940
H186	H	1.737316	-0.387794	0.173060
H187	H	0.506444	-0.281101	-0.454705
H188	H	1.006444	0.218899	0.045295
H189	H	1.185454	-0.312720	-0.793536
H190	H	1.685454	0.187280	-0.293536
C191	C	1.036993	-0.785733	-0.494266
C192	C	1.536993	-0.285733	0.005734
H193	H	1.000802	-0.755017	-0.471893
H194	H	1.500802	-0.255017	0.028107
H195	H	1.013483	-0.826851	-0.516840
H196	H	1.513483	-0.326851	-0.016840
H197	H	1.063123	-0.758341	-0.530649
H198	H	1.563123	-0.258341	-0.030649
C199	C	1.165760	-0.461114	-0.929054
C200	C	1.665760	0.038886	-0.429054
H201	H	1.176707	-0.508510	-0.909329
H202	H	1.676707	-0.008510	-0.409329
H203	H	1.202890	-0.427051	-0.914404
H204	H	1.702890	0.072949	-0.414404
H205	H	1.164280	-0.463868	-0.981440
H206	H	1.664280	0.036132	-0.481440
C207	C	0.934523	-0.926393	-0.393441
C208	C	1.434523	-0.426393	0.106559
H209	H	0.958155	-0.956835	-0.429056
H210	H	1.458155	-0.456835	0.070944
H211	H	0.912682	-0.885142	-0.417432
H212	H	1.412682	-0.385142	0.082568
H213	H	0.897328	-0.954006	-0.368728
H214	H	1.397328	-0.454006	0.131272
C215	C	0.932897	-0.389855	-0.786601
C216	C	1.432897	0.110145	-0.286601
H217	H	0.955207	-0.426057	-0.755834
H218	H	1.455207	0.073943	-0.255834
H219	H	0.910304	-0.413354	-0.827706
H220	H	1.410304	0.086646	-0.327706
H221	H	0.896542	-0.363693	-0.759257
H222	H	1.396542	0.136307	-0.259257
H223	H	1.148055	-0.791744	-0.452196
H224	H	1.648055	-0.291744	0.047804
C225	C	0.641759	-0.221338	-0.317776
C226	C	1.141759	0.278662	0.182224
H227	H	0.600959	-0.189208	-0.325318
H228	H	1.100959	0.310792	0.174682
H229	H	0.671041	-0.222938	-0.361307
H230	H	1.171041	0.277062	0.138693
H231	H	0.670796	-0.203645	-0.277818
H232	H	1.170796	0.296355	0.222182
H233	H	1.149349	-0.450643	-0.793911
H234	H	1.649349	0.049357	-0.293911
H235	H	0.507146	-0.241309	-0.313197
H236	H	1.007146	0.258691	0.186803
C237	C	1.039511	-0.495132	-0.785301
C238	C	1.539511	0.004868	-0.285301
H239	H	1.053868	-0.541600	-0.804996
H240	H	1.553868	-0.041600	-0.304996
H241	H	0.990378	-0.484254	-0.800163
H242	H	1.490378	0.015746	-0.300163
H243	H	1.041949	-0.496861	-0.732904
H244	H	1.541949	0.003139	-0.232904
C245	C	0.640985	-0.317198	-0.221253
C246	C	1.140985	0.182802	0.278747
H247	H	0.599870	-0.324334	-0.189398
H248	H	1.099870	0.175666	0.310602
H249	H	0.670117	-0.277294	-0.203580
H250	H	1.170117	0.222706	0.296420
H251	H	0.670011	-0.360900	-0.222362
H252	H	1.170011	0.139100	0.277638
C253	C	0.501014	-0.457221	-0.257732
C254	C	1.001014	0.042779	0.242268
H255	H	0.542374	-0.466553	-0.226815
H256	H	1.042374	0.033447	0.273185
H257	H	0.471781	-0.500652	-0.261409
H258	H	0.971781	-0.000652	0.238591
H259	H	0.472219	-0.418458	-0.237198
H260	H	0.972219	0.081542	0.262802
H261	H	1.149138	-0.918816	-0.451597
H262	H	1.649138	-0.418816	0.048403
H263	H	0.507335	-0.478797	-0.374821
H264	H	1.007335	0.021203	0.125179
C265	C	1.206190	-0.317358	-0.928005
C266	C	1.706190	0.182642	-0.428005
H267	H	1.204598	-0.359683	-0.958972
H268	H	1.704598	0.140317	-0.458972
H269	H	1.237572	-0.326841	-0.887036
H270	H	1.737572	0.173159	-0.387036
H271	H	1.224771	-0.276474	-0.955206
H272	H	1.724771	0.223526	-0.455206
H273	H	0.635090	-0.374088	-0.479583
H274	H	1.135090	0.125912	0.020417
C275	C	0.641219	-0.494254	-0.389816
C276	C	1.141219	0.005746	0.110184
H277	H	0.672001	-0.471964	-0.426045
H278	H	1.172001	0.028036	0.073955
H279	H	0.600109	-0.516878	-0.413293
H280	H	1.100109	-0.016878	0.086707
H281	H	0.668544	-0.530581	-0.363584
H282	H	1.168544	-0.030581	0.136416
C283	C	0.642616	-0.457943	-0.258961
C284	C	1.142616	0.042057	0.241039
H285	H	0.673637	-0.420162	-0.239879
H286	H	1.173637	0.079838	0.260121
H287	H	0.669969	-0.502509	-0.263294
H288	H	1.169969	-0.002509	0.236706
H289	H	0.602077	-0.465402	-0.226450
H290	H	1.102077	0.034598	0.273550
H291	H	1.114781	-0.241908	-0.921697
H292	H	1.614781	0.258092	-0.421697
H293	H	1.114435	-0.241372	-0.794069
H294	H	1.614435	0.258628	-0.294069
H295	H	0.948379	-0.374782	-0.920488
H296	H	1.448379	0.125218	-0.420488
C297	C	0.969108	-0.258940	-0.785196
C298	C	1.469108	0.241060	-0.285196
H299	H	1.006865	-0.239806	-0.754187
H300	H	1.506865	0.260194	-0.254187
H301	H	0.924537	-0.263357	-0.757825
H302	H	1.424537	0.236643	-0.257825
H303	H	0.961635	-0.226426	-0.825726
H304	H	1.461635	0.273574	-0.325726
