data_functionalizedCrystal
_audit_creation_method	'MofGen! by Chris Wilmer'
_symmetry_space_group_name_H-M	'P1'
_symmetry_Int_Tables_number	1
_symmetry_cell_setting	triclinic
loop_
_symmetry_equiv_pos_as_xyz
  x,y,z
_cell_length_a	14.853569
_cell_length_b	13.930277
_cell_length_c	14.853569
_cell_angle_alpha	89.994278
_cell_angle_beta	83.635693
_cell_angle_gamma	89.995143
loop_
_atom_site_label
_atom_site_type_symbol
_atom_site_fract_x
_atom_site_fract_y
_atom_site_fract_z
O1	O	-1.196368	0.079781	-0.117713
O2	O	-0.696368	0.579781	0.382287
O3	O	-0.933909	0.079795	-0.131732
O4	O	-0.433909	0.579795	0.368268
O5	O	-1.072148	0.079778	0.006507
O6	O	-0.572148	0.579778	0.506507
O7	O	-1.058128	0.079797	-0.255952
O8	O	-0.558128	0.579797	0.244048
O9	O	-1.072129	-0.079884	0.006510
O10	O	-0.572129	0.420116	0.506510
O11	O	-0.933889	-0.079867	-0.131729
O12	O	-0.433889	0.420133	0.368271
O13	O	-1.196349	-0.079881	-0.117710
O14	O	-0.696349	0.420119	0.382290
Zn15	Zn	-1.065116	-0.105224	-0.124719
Zn16	Zn	-0.565116	0.394776	0.375281
Zn17	Zn	-1.065141	0.105138	-0.124723
Zn18	Zn	-0.565141	0.605138	0.375277
O19	O	-1.058109	-0.079865	-0.255949
O20	O	-0.558109	0.420135	0.244051
C21	C	-0.900310	-0.000035	-0.131095
C22	C	-0.400310	0.499965	0.368905
C23	C	-0.800227	-0.000030	-0.129190
C24	C	-0.300227	0.499970	0.370810
N25	N	-1.065105	-0.248790	-0.124716
N26	N	-0.565105	0.251210	0.375284
C27	C	-0.763850	-0.000032	-0.046180
C28	C	-0.263850	0.499968	0.453820
C29	C	-0.742561	-0.000031	-0.210412
C30	C	-0.242561	0.499969	0.289588
C31	C	-0.648527	-0.000031	-0.208625
C32	C	-0.148527	0.499969	0.291375
C33	C	-0.612150	-0.000034	-0.125615
C34	C	-0.112150	0.499966	0.374385
C35	C	-0.669807	-0.000035	-0.044390
C36	C	-0.169807	0.499965	0.455610
C37	C	-0.590863	-0.000039	-0.289848
C38	C	-0.090863	0.499961	0.210152
C39	C	-0.496823	-0.000041	-0.288065
C40	C	0.003177	0.499959	0.211935
C41	C	-0.460444	-0.000036	-0.205053
C42	C	0.039556	0.499964	0.294947
C43	C	-0.518108	-0.000037	-0.123825
C44	C	-0.018108	0.499963	0.376175
C45	C	-0.481730	-0.000039	-0.040814
C46	C	0.018270	0.499961	0.459186
C47	C	-0.539392	-0.000033	0.040414
C48	C	-0.039392	0.499967	0.540414
C49	C	-0.633429	-0.000031	0.038622
C50	C	-0.133429	0.499969	0.538622
C51	C	-0.366408	-0.000039	-0.203260
C52	C	0.133592	0.499961	0.296740
C53	C	-0.387688	-0.000043	-0.039025
C54	C	0.112312	0.499957	0.460975
C55	C	-1.003926	-0.701052	-0.185911
C56	C	-0.503926	-0.201052	0.314089
C57	C	-1.126381	-0.701036	-0.063528
C58	C	-0.626381	-0.201036	0.436472
C59	C	-1.126370	-0.600540	-0.063525
C60	C	-0.626370	-0.100540	0.436475
C61	C	-1.065138	-0.550296	-0.124717
C62	C	-0.565138	-0.050296	0.375283
C63	C	-1.003916	-0.600547	-0.185912
C64	C	-0.503916	-0.100547	0.314088
C65	C	-1.187597	-0.550281	-0.002337
C66	C	-0.687597	-0.050281	0.497663
C67	C	-1.187590	-0.449780	-0.002332
C68	C	-0.687590	0.050220	0.497668
C69	C	-1.126352	-0.399533	-0.063521
C70	C	-0.626352	0.100467	0.436479
C71	C	-1.065127	-0.449791	-0.124718
C72	C	-0.565127	0.050209	0.375282
C73	C	-1.003894	-0.399546	-0.185910
C74	C	-0.503894	0.100454	0.314090
C75	C	-0.942664	-0.449802	-0.247103
C76	C	-0.442664	0.050198	0.252897
C77	C	-0.942678	-0.550301	-0.247101
C78	C	-0.442678	-0.050301	0.252899
C79	C	-1.126338	-0.299034	-0.063524
C80	C	-0.626338	0.200966	0.436476
C81	C	-1.003883	-0.299041	-0.185911
C82	C	-0.503883	0.200959	0.314089
C83	C	-0.229947	-0.000048	-0.118346
C84	C	0.270053	0.499952	0.381654
C85	C	-0.330031	-0.000041	-0.120249
C86	C	0.169969	0.499959	0.379751
C87	C	-1.071503	-0.000053	0.040097
C88	C	-0.571503	0.499947	0.540097
C89	C	-1.069599	-0.000054	0.140181
C90	C	-0.569599	0.499946	0.640181
N91	N	-1.065159	0.248704	-0.124719
N92	N	-0.565159	0.748704	0.375281
C93	C	-1.058754	-0.000031	-0.289539
C94	C	-0.558754	0.499969	0.210461
C95	C	-1.060659	-0.000024	-0.389623
C96	C	-0.560659	0.499976	0.110377
C97	C	-0.986588	-0.000051	0.176558
C98	C	-0.486588	0.499949	0.676558
C99	C	-1.150820	-0.000049	0.197846
C100	C	-0.650820	0.499951	0.697846
C101	C	-1.149034	-0.000045	0.291881
C102	C	-0.649034	0.499955	0.791881
C103	C	-1.066023	-0.000042	0.328258
C104	C	-0.566023	0.499958	0.828258
C105	C	-0.984799	-0.000044	0.270601
C106	C	-0.484799	0.499956	0.770601
C107	C	-1.230257	-0.000034	0.349544
C108	C	-0.730257	0.499966	0.849544
C109	C	-1.228473	-0.000029	0.443585
C110	C	-0.728473	0.499971	0.943585
C111	C	-1.145462	-0.000033	0.479964
C112	C	-0.645462	0.499967	0.979964
C113	C	-1.064234	-0.000035	0.422300
C114	C	-0.564234	0.499965	0.922300
C115	C	-0.981223	-0.000033	0.458678
C116	C	-0.481223	0.499967	0.958678
C117	C	-0.899995	-0.000042	0.401016
C118	C	-0.399995	0.499958	0.901016
C119	C	-0.901787	-0.000048	0.306980
C120	C	-0.401787	0.499952	0.806980
C121	C	-1.143669	-0.000027	0.574000
C122	C	-0.643669	0.499973	1.074000
C123	C	-0.979434	-0.000026	0.552720
C124	C	-0.479434	0.499974	1.052720
H125	H	-0.358078	-0.000040	0.028573
H126	H	0.141922	0.499960	0.528573
Cl127	Cl	-0.836335	-0.000023	0.055931
Cl128	Cl	-0.336335	0.499977	0.555931
H129	H	-0.911836	-0.000032	0.582330
H130	H	-0.411836	0.499968	1.082330
H131	H	-0.772186	-0.000035	-0.277996
H132	H	-0.272186	0.499965	0.222004
Cl133	Cl	-1.264559	-0.386608	0.074597
Cl134	Cl	-0.764559	0.113392	0.574597
Cl135	Cl	-0.293924	-0.000058	-0.305367
Cl136	Cl	0.206076	0.499942	0.194633
H137	H	-0.620489	-0.000043	-0.357431
H138	H	-0.120489	0.499957	0.142569
H139	H	-0.832407	-0.000034	0.430647
H140	H	-0.332407	0.499966	0.930647
Cl141	Cl	-0.424343	-0.000041	-0.390178
Cl142	Cl	0.075657	0.499959	0.109822
Cl143	Cl	-0.799681	-0.000052	0.234487
Cl144	Cl	-0.299681	0.499948	0.734487
H145	H	-0.954017	-0.258138	-0.235738
H146	H	-0.454017	0.241862	0.264262
Cl147	Cl	-0.493650	-0.000045	0.144767
Cl148	Cl	0.006350	0.499955	0.644767
H149	H	-1.294615	-0.000023	0.490526
H150	H	-0.794615	0.499977	0.990526
H151	H	-0.892827	-0.591225	-0.296923
H152	H	-0.392827	-0.091225	0.203077
H153	H	-0.892812	-0.408881	-0.296930
H154	H	-0.392812	0.091119	0.203070
H155	H	-1.209804	-0.000010	0.620944
H156	H	-0.709804	0.499990	1.120944
H157	H	-0.680385	-0.000028	0.104753
H158	H	-0.180385	0.499972	0.604753
Cl159	Cl	-1.334606	-0.000026	0.303809
Cl160	Cl	-0.834606	0.499974	0.803809
Cl161	Cl	-0.926951	-0.764225	-0.262833
Cl162	Cl	-0.426951	-0.264225	0.237167
Cl163	Cl	-1.255171	-0.000042	0.152113
Cl164	Cl	-0.755171	0.499958	0.652113
H165	H	-1.176239	-0.741948	-0.013711
H166	H	-0.676239	-0.241948	0.486289
H167	H	-1.237456	-0.591194	0.047480
H168	H	-0.737456	-0.091194	0.547480
H169	H	-1.176195	-0.258121	-0.013705
H170	H	-0.676195	0.241879	0.486295
H171	H	-0.920454	-0.000063	0.129606
H172	H	-0.420454	0.499937	0.629606
