data_functionalizedCrystal
_audit_creation_method	'MofGen! by Chris Wilmer'
_symmetry_space_group_name_H-M	'P1'
_symmetry_Int_Tables_number	1
_symmetry_cell_setting	triclinic
loop_
_symmetry_equiv_pos_as_xyz
  x,y,z
_cell_length_a	15.944493
_cell_length_b	15.944499
_cell_length_c	17.766277
_cell_angle_alpha	89.988049
_cell_angle_beta	90.011842
_cell_angle_gamma	96.523674
loop_
_atom_site_label
_atom_site_type_symbol
_atom_site_fract_x
_atom_site_fract_y
_atom_site_fract_z
O1	O	-0.108129	1.114534	-0.062649
O2	O	-0.121531	0.869976	-0.062641
O3	O	0.007449	0.998959	-0.062630
O4	O	-0.237110	0.985552	-0.062660
O5	O	0.007456	0.998936	0.062559
O6	O	-0.121525	0.869953	0.062547
O7	O	-0.108123	1.114512	0.062540
Cu8	Cu	-0.114823	0.992231	0.073974
Cu9	Cu	-0.114831	0.992257	-0.074076
O10	O	-0.237103	0.985529	0.062528
C11	C	-0.120979	0.838670	-0.000046
C12	C	-0.119334	0.745422	-0.000043
C13	C	-0.194269	0.453871	-0.000063
C14	C	-0.155319	0.514919	-0.061784
C15	C	-0.113358	0.409787	-0.000059
C16	C	-0.155291	0.514883	0.061642
C17	C	-0.116299	0.574695	-0.000050
C18	C	-0.074386	0.469607	-0.061831
C19	C	-0.074369	0.469564	0.061650
C20	C	-0.035361	0.530595	-0.000086
C21	C	-0.111666	0.314787	-0.000065
C22	C	-0.117984	0.669694	-0.000049
C23	C	-0.268401	0.986088	-0.000070
C24	C	-0.361650	0.987731	-0.000082
C25	C	-0.597424	0.911809	-0.000055
C26	C	-0.647997	0.952762	-0.061777
C27	C	-0.532370	0.990775	-0.000065
C28	C	-0.647947	0.952758	0.061649
C29	C	-0.697279	0.993710	-0.000044
C30	C	-0.581715	1.031707	-0.061838
C31	C	-0.581662	1.031692	0.061644
C32	C	-0.632203	1.072703	-0.000094
C33	C	-0.437370	0.989082	-0.000077
C34	C	-0.792276	0.995409	-0.000038
C35	C	0.038747	0.998400	-0.000033
C36	C	0.131995	0.996757	-0.000026
C37	C	-0.108675	1.145818	-0.000057
C38	C	-0.110320	1.239066	-0.000066
N39	N	-0.114817	0.992218	0.178105
N40	N	-0.114830	0.992277	-0.178206
C41	C	-0.057733	1.049350	0.217497
C42	C	-0.057729	1.049355	0.296298
C43	C	-0.114824	0.992236	0.335705
C44	C	-0.171913	0.935093	0.296304
C45	C	-0.171909	0.935084	0.217503
C46	C	-0.191326	0.981218	0.460534
C47	C	-0.191331	0.981233	0.539333
C48	C	-0.114834	0.992258	0.578751
C49	C	-0.038330	1.003286	0.539362
C50	C	-0.038326	1.003278	0.460561
C51	C	-0.114834	0.992238	0.421151
C52	C	-0.057741	1.049399	0.703589
C53	C	-0.057736	1.049398	0.782393
C54	C	-0.171927	0.935139	0.782396
C55	C	-0.171925	0.935136	0.703595
C56	C	-0.114832	0.992270	0.664196
H57	H	-0.261416	0.420527	-0.000131
H58	H	0.031847	0.563787	-0.000110
C59	C	-0.542791	1.076737	-0.132419
N60	N	-0.513472	1.110649	-0.185582
H61	H	-0.253625	0.972258	0.571398
C62	C	-0.687126	0.907723	-0.132272
N63	N	-0.716596	0.873795	-0.185367
H64	H	-0.647656	1.140775	-0.000128
C65	C	-0.542508	1.076687	0.132143
N66	N	-0.513015	1.110570	0.185250
H67	H	-0.040173	0.449445	0.113841
C68	C	-0.201536	0.541979	0.132134
N69	N	-0.236373	0.562383	0.185226
H70	H	-0.676870	0.919384	0.113832
H71	H	-0.040199	0.449645	-0.114070
H72	H	-0.189547	0.535020	-0.113969
C73	C	0.045824	1.015413	0.582716
N74	N	0.109206	1.024547	0.615375
H75	H	-0.011243	1.095870	0.185420
H76	H	-0.581809	0.843789	-0.000116
H77	H	-0.011242	1.095880	0.328377
C78	C	0.045827	1.015397	0.417236
N79	N	0.109213	1.024521	0.384603
C80	C	0.005069	1.112239	0.660248
N81	N	0.052379	1.159569	0.627606
C82	C	0.005079	1.112237	0.825724
N83	N	0.052397	1.159565	0.858361
C84	C	-0.234733	0.872308	0.825739
N85	N	-0.282040	0.824981	0.858389
C86	C	-0.234784	0.872346	0.660262
N87	N	-0.282151	0.825069	0.627624
H88	H	-0.253623	0.972225	0.428446
C89	C	-0.234714	0.872258	0.339653
N90	N	-0.282015	0.824925	0.372303
H91	H	-0.218395	0.888559	0.185430
