data_functionalizedCrystal
_audit_creation_method	'MofGen! by Chris Wilmer'
_symmetry_space_group_name_H-M	'P1'
_symmetry_Int_Tables_number	1
_symmetry_cell_setting	triclinic
loop_
_symmetry_equiv_pos_as_xyz
  x,y,z
_cell_length_a	12.645331
_cell_length_b	12.645330
_cell_length_c	12.645323
_cell_angle_alpha	90.027006
_cell_angle_beta	90.018010
_cell_angle_gamma	90.013057
loop_
_atom_site_label
_atom_site_type_symbol
_atom_site_fract_x
_atom_site_fract_y
_atom_site_fract_z
Zn1	Zn	1.620768	-0.422019	0.599299
Zn2	Zn	1.620666	-0.599307	0.422032
Zn3	Zn	1.443483	-0.422060	0.422057
Zn4	Zn	1.443480	-0.599243	0.599262
O5	O	1.532099	-0.510657	0.510662
O6	O	1.769102	-0.445547	0.575789
O7	O	1.597120	-0.575839	0.273688
O8	O	1.467044	-0.273707	0.445595
O9	O	1.769026	-0.575800	0.445552
O10	O	1.597295	-0.273677	0.575813
O11	O	1.466945	-0.445616	0.273707
O12	O	1.295135	-0.445553	0.445559
O13	O	1.467040	-0.575690	0.747614
O14	O	1.295133	-0.575729	0.575751
O15	O	1.597293	-0.445484	0.747641
O16	O	1.597118	-0.747646	0.445516
O17	O	1.466940	-0.747598	0.575726
C18	C	1.256670	-0.510639	0.510654
C19	C	1.138840	-0.510657	0.510676
C20	C	1.093992	-0.592690	0.592459
C21	C	0.971432	-0.593027	0.592217
C22	C	0.970889	-0.540495	0.398818
C23	C	1.093487	-0.541074	0.399292
C24	C	1.093684	-0.398611	0.539772
C25	C	0.971078	-0.399230	0.542236
C26	C	1.532046	-0.786087	0.510637
C27	C	1.532120	-0.903917	0.510662
C28	C	1.613884	-1.071467	0.428581
C29	C	1.614150	-0.948906	0.428782
C30	C	1.562421	-0.948299	0.622405
C31	C	1.563069	-1.070897	0.621969
C32	C	1.420025	-1.071245	0.482102
C33	C	1.420562	-0.948641	0.479596
C34	C	1.808605	-0.510676	0.510671
C35	C	1.926435	-0.510685	0.510675
C36	C	1.532177	-0.510575	0.787168
C37	C	1.532211	-0.510540	0.904998
C38	C	1.532182	-0.234152	0.510711
C39	C	1.532217	-0.116322	0.510731
C40	C	1.532083	-0.510662	0.235233
C41	C	1.532255	-0.510399	0.117403
C42	C	1.450016	-0.592066	1.072545
C43	C	1.450231	-0.592470	0.949985
C44	C	1.643913	-0.540858	0.949508
C45	C	1.643462	-0.541369	1.072106
C46	C	1.503759	-0.398241	1.072202
C47	C	1.501267	-0.398914	0.949596
H48	H	1.122058	-0.622964	0.374699
H49	H	1.668479	-0.621988	0.918814
O50	O	1.132797	-0.465347	0.315784
H51	H	1.064238	-0.428481	0.275236
H52	H	1.563658	-0.337395	1.101213
H53	H	1.556789	-0.334850	0.918973
O54	O	1.487698	-1.110190	0.705811
H55	H	1.425131	-1.159017	0.668256
H56	H	1.706815	-0.484469	1.101781
H57	H	0.940166	-0.621494	0.373807
O58	O	1.339422	-1.109673	0.561354
H59	H	1.260435	-1.077508	0.540613
H60	H	1.696534	-1.102196	0.447304
O61	O	1.340524	-0.567307	0.910107
H62	H	1.286835	-0.554748	0.978390
O63	O	1.134762	-0.702048	0.567210
H64	H	1.067012	-0.755413	0.550782
O65	O	1.392390	-0.368615	0.911043
H66	H	1.334033	-0.428085	0.938634
O67	O	1.727269	-0.464580	0.910901
H68	H	1.689877	-0.404109	0.859454
H69	H	1.356432	-0.918027	0.535044
O70	O	1.132111	-0.317639	0.460904
H71	H	1.104803	-0.339974	0.380510
H72	H	0.942081	-0.676061	0.572912
O73	O	1.339962	-0.567181	1.111577
H74	H	1.342698	-0.496345	1.163373
H75	H	1.468644	-0.674694	1.103360
O76	O	1.486044	-0.909690	0.705668
H77	H	1.425536	-0.858332	0.668199
H78	H	0.941378	-0.574431	0.675143
O79	O	1.475012	-0.702635	0.911133
H80	H	1.486922	-0.755823	0.979912
H81	H	0.941741	-0.482580	0.336209
H82	H	1.643501	-0.917510	0.647060
H83	H	1.124637	-0.371372	0.619964
H84	H	1.123509	-0.574308	0.675644
H85	H	1.667614	-0.623359	1.100712
O86	O	1.397732	-0.361643	1.113127
H87	H	1.400288	-0.357006	1.200745
H88	H	0.942028	-0.376742	0.624556
O89	O	0.930536	-0.313993	0.469137
H90	H	0.877702	-0.349898	0.408897
H91	H	1.595192	-0.918904	0.345926
H92	H	1.595163	-1.101020	0.345483
O93	O	1.383530	-1.112297	0.376040
H94	H	1.378985	-1.199917	0.378603
O95	O	1.724216	-0.909935	0.453864
H96	H	1.777459	-0.978657	0.465909
O97	O	1.671695	-1.108679	0.654078
H98	H	1.723270	-1.039385	0.669766
O99	O	1.390281	-0.910228	0.370675
H100	H	1.454406	-0.859489	0.338790
