data_functionalizedCrystal
_audit_creation_method	'MofGen! by Chris Wilmer'
_symmetry_space_group_name_H-M	'P1'
_symmetry_Int_Tables_number	1
_symmetry_cell_setting	triclinic
loop_
_symmetry_equiv_pos_as_xyz
  x,y,z
_cell_length_a	17.038272
_cell_length_b	17.019294
_cell_length_c	9.730223
_cell_angle_alpha	86.116633
_cell_angle_beta	90.002388
_cell_angle_gamma	87.244363
loop_
_atom_site_label
_atom_site_type_symbol
_atom_site_fract_x
_atom_site_fract_y
_atom_site_fract_z
O1	O	1.037219	0.171286	-0.134386
O2	O	1.537219	0.671286	0.365614
O3	O	0.809590	0.168566	-0.134105
O4	O	1.309590	0.668566	0.365895
O5	O	0.929755	0.055520	-0.120698
O6	O	1.429755	0.555520	0.379302
O7	O	0.917054	0.284333	-0.147793
O8	O	1.417054	0.784333	0.352207
O9	O	0.929747	0.055516	0.107882
O10	O	1.429747	0.555516	0.607882
O11	O	0.809583	0.168563	0.094476
O12	O	1.309583	0.668563	0.594476
O13	O	1.037211	0.171283	0.094194
O14	O	1.537211	0.671283	0.594194
Zn15	Zn	0.923396	0.169922	0.130627
Zn16	Zn	1.423396	0.669922	0.630627
Zn17	Zn	0.923406	0.169927	-0.170537
Zn18	Zn	1.423406	0.669927	0.329463
O19	O	0.917047	0.284329	0.080788
O20	O	1.417047	0.784329	0.580788
C21	C	0.780460	0.166091	-0.019527
C22	C	1.280460	0.666091	0.480473
C23	C	0.693674	0.158711	-0.018669
C24	C	1.193674	0.658711	0.481331
C25	C	0.643502	0.226471	-0.026692
C26	C	1.143502	0.726471	0.473308
C27	C	0.561957	0.219531	-0.025851
C28	C	1.061957	0.719531	0.474149
C29	C	0.530586	0.144831	-0.016997
C30	C	1.030586	0.644831	0.483003
C31	C	0.580765	0.077066	-0.008970
C32	C	1.080765	0.577066	0.491030
C33	C	0.662308	0.084006	-0.009801
C34	C	1.162308	0.584006	0.490199
C35	C	0.284849	0.120313	-0.014057
C36	C	0.784849	0.620313	0.485943
C37	C	0.203300	0.113378	-0.013231
C38	C	0.703300	0.613378	0.486769
C39	C	0.184498	0.255845	-0.030110
C40	C	0.684498	0.755845	0.469890
C41	C	0.266043	0.262778	-0.030948
C42	C	0.766043	0.762778	0.469052
C43	C	0.316215	0.195013	-0.022913
C44	C	0.816215	0.695013	0.477087
C45	C	0.447235	0.137736	-0.016142
C46	C	0.947235	0.637736	0.483858
C47	C	0.399564	0.202108	-0.023759
C48	C	0.899564	0.702108	0.476241
C49	C	0.929269	0.026096	-0.002927
C50	C	1.429269	0.526096	0.497073
C51	C	0.927825	-0.061571	0.007444
C52	C	1.427825	0.438429	0.507444
C53	C	0.927152	-0.102751	-0.112282
C54	C	1.427152	0.397249	0.387718
C55	C	0.925790	-0.185123	-0.102532
C56	C	1.425790	0.314877	0.397468
C57	C	0.925106	-0.226315	0.026944
C58	C	1.425106	0.273685	0.526944
C59	C	0.925776	-0.185129	0.146679
C60	C	1.425776	0.314871	0.646679
C61	C	0.927133	-0.102758	0.136928
C62	C	1.427133	0.397242	0.636928
C63	C	0.921004	-0.475023	0.062618
C64	C	1.421004	0.024977	0.562618
C65	C	0.919649	-0.557400	0.072359
C66	C	1.419649	-0.057400	0.572359
C67	C	0.919662	-0.557388	-0.176853
C68	C	1.419662	-0.057388	0.323147
C69	C	0.921023	-0.475016	-0.186592
C70	C	1.421023	0.024984	0.313408
C71	C	0.921689	-0.433837	-0.066857
C72	C	1.421689	0.066163	0.433143
C73	C	0.923716	-0.310513	0.036912
C74	C	1.423716	0.189487	0.536912
C75	C	0.923074	-0.349640	-0.076827
C76	C	1.423074	0.150360	0.423173
C77	C	1.066341	0.173758	-0.020387
C78	C	1.566341	0.673758	0.479613
C79	C	1.153128	0.181139	-0.021254
C80	C	1.653128	0.681139	0.478746
C81	C	0.917532	0.313753	-0.036986
C82	C	1.417532	0.813753	0.463014
C83	C	0.918977	0.401420	-0.047367
C84	C	1.418977	0.901420	0.452633
N85	N	0.923395	0.169919	0.336164
N86	N	1.423395	0.669919	0.836164
N87	N	0.923413	0.169925	-0.376074
N88	N	1.423413	0.669925	0.123926
C89	C	0.976621	0.119885	0.414023
C90	C	1.476621	0.619885	0.914023
C91	C	0.976629	0.119886	0.557906
C92	C	1.476629	0.619886	1.057906
C93	C	0.870181	0.219960	0.546056
C94	C	1.370181	0.719960	1.046056
C95	C	0.870170	0.219955	0.402177
C96	C	1.370170	0.719955	0.902177
H97	H	0.521110	0.274709	-0.032385
H98	H	1.021110	0.774709	0.467615
Br99	Br	1.048853	0.051977	0.324440
Br100	Br	1.548853	0.551977	0.824440
Br101	Br	0.924835	-0.241030	0.322399
Br102	Br	1.424835	0.258970	0.822399
H103	H	0.325690	0.065133	-0.007513
H104	H	0.825690	0.565133	0.492487
Br105	Br	1.048864	0.051977	0.663571
Br106	Br	1.548864	0.551977	1.163571
H107	H	0.923161	-0.344061	0.142332
H108	H	1.423161	0.155939	0.642332
H109	H	0.927670	-0.069230	0.234422
H110	H	1.427670	0.430770	0.734422
H111	H	0.826823	0.260698	0.338779
H112	H	1.326823	0.760698	0.838779
H113	H	0.826848	0.260700	0.599819
H114	H	1.326848	0.760700	1.099819
H115	H	0.669037	0.287300	-0.033902
H116	H	1.169037	0.787300	0.466098
H117	H	0.923625	-0.316098	-0.182246
H118	H	1.423625	0.183902	0.317754
H119	H	0.291579	0.323607	-0.038174
H120	H	0.791579	0.823607	0.461826
H121	H	0.143640	0.311015	-0.036648
H122	H	0.643640	0.811015	0.463352
H123	H	0.555216	0.016243	-0.001741
H124	H	1.055216	0.516243	0.498259
Br125	Br	0.160726	0.011992	-0.001185
Br126	Br	0.660726	0.511992	0.498815
H127	H	0.703158	0.028828	-0.003268
H128	H	1.203158	0.528828	0.496732
H129	H	0.425110	0.262929	-0.030960
H130	H	0.925110	0.762929	0.469040
H131	H	0.421684	0.076915	-0.008894
H132	H	0.921684	0.576915	0.491106
H133	H	0.925245	-0.218648	-0.200026
H134	H	1.425245	0.281352	0.299974
Br135	Br	0.928089	-0.046856	-0.288008
Br136	Br	1.428089	0.453144	0.211992
Br137	Br	0.921957	-0.419119	-0.362317
Br138	Br	1.421957	0.080881	0.137683
H139	H	0.919118	-0.590925	-0.274334
H140	H	1.419118	-0.090925	0.225666
Br141	Br	0.918729	-0.613304	0.248089
Br142	Br	1.418729	-0.113304	0.748089
Br143	Br	0.921892	-0.419147	0.225116
Br144	Br	1.421892	0.080853	0.725116
