data_functionalizedCrystal
_audit_creation_method	'MofGen! by Chris Wilmer'
_symmetry_space_group_name_H-M	'P1'
_symmetry_Int_Tables_number	1
_symmetry_cell_setting	triclinic
loop_
_symmetry_equiv_pos_as_xyz
  x,y,z
_cell_length_a	16.109302
_cell_length_b	11.792254
_cell_length_c	15.186229
_cell_angle_alpha	89.996078
_cell_angle_beta	89.994701
_cell_angle_gamma	83.830189
loop_
_atom_site_label
_atom_site_type_symbol
_atom_site_fract_x
_atom_site_fract_y
_atom_site_fract_z
O1	O	1.103822	0.145888	-0.073269
O2	O	1.603822	0.645888	0.426731
O3	O	0.861846	0.164042	-0.073262
O4	O	1.361846	0.664042	0.426738
O5	O	0.988700	-0.010256	-0.073259
O6	O	1.488700	0.489744	0.426741
O7	O	0.976967	0.320186	-0.073271
O8	O	1.476967	0.820186	0.426729
O9	O	0.988692	-0.010258	0.073198
O10	O	1.488692	0.489742	0.573198
O11	O	0.861837	0.164040	0.073196
O12	O	1.361837	0.664040	0.573196
O13	O	1.103813	0.145886	0.073189
O14	O	1.603813	0.645886	0.573189
Zn15	Zn	0.982824	0.154963	0.096445
Zn16	Zn	1.482824	0.654963	0.596445
Zn17	Zn	0.982835	0.154966	-0.096518
Zn18	Zn	1.482835	0.654966	0.403482
O19	O	0.976959	0.320184	0.073186
O20	O	1.476959	0.820184	0.573186
C21	C	0.830863	0.163306	-0.000032
C22	C	1.330863	0.663306	0.499968
C23	C	0.738557	0.161101	-0.000029
C24	C	1.238557	0.661101	0.499971
C25	C	0.526188	0.156000	0.079796
C26	C	1.026188	0.656000	0.579796
C27	C	0.439458	0.153916	0.079793
C28	C	0.939458	0.653916	0.579793
C29	C	0.439478	0.153925	-0.079883
C30	C	0.939478	0.653925	0.420117
C31	C	0.526207	0.156001	-0.079879
C32	C	1.026207	0.656001	0.420121
C33	C	0.569559	0.157044	-0.000037
C34	C	1.069559	0.657044	0.499963
C35	C	0.396100	0.152884	-0.000044
C36	C	0.896100	0.652884	0.499956
C37	C	0.302064	0.150624	-0.000048
C38	C	0.802064	0.650624	0.499952
C39	C	0.663602	0.159302	-0.000033
C40	C	1.163602	0.659302	0.499967
C41	C	0.987957	-0.052541	-0.000031
C42	C	1.487957	0.447459	0.499969
C43	C	0.985745	-0.178535	-0.000031
C44	C	1.485745	0.321465	0.499969
C45	C	0.983947	-0.280856	-0.000034
C46	C	1.483947	0.219144	0.499966
C47	C	0.981700	-0.409222	-0.000043
C48	C	1.481700	0.090778	0.499957
C49	C	1.134796	0.146623	-0.000043
C50	C	1.634796	0.646623	0.499957
C51	C	1.227102	0.148828	-0.000051
C52	C	1.727102	0.648828	0.499949
C53	C	0.977702	0.362469	-0.000044
C54	C	1.477702	0.862469	0.499956
C55	C	0.979914	0.488463	-0.000049
C56	C	1.479914	0.988463	0.499951
N57	N	0.982822	0.154960	0.228138
N58	N	1.482822	0.654960	0.728138
N59	N	0.982843	0.154960	-0.228211
N60	N	1.482843	0.654960	0.271789
C61	C	1.039013	0.077806	0.453862
C62	C	1.539013	0.577806	0.953862
C63	C	1.039015	0.077804	0.546052
C64	C	1.539015	0.577804	1.046052
C65	C	0.926647	0.232117	0.546059
C66	C	1.426647	0.732117	1.046059
C67	C	0.926641	0.232113	0.453871
C68	C	1.426641	0.732113	0.953871
C69	C	0.982828	0.154959	0.407775
C70	C	1.482828	0.654959	0.907775
C71	C	0.982837	0.154960	0.592152
C72	C	1.482837	0.654960	1.092152
C73	C	0.982839	0.154958	0.692108
C74	C	1.482839	0.654958	1.192108
C75	C	0.982825	0.154960	0.307812
C76	C	1.482825	0.654960	0.807812
H77	H	0.404169	0.153076	-0.144887
H78	H	0.904169	0.653076	0.355113
H79	H	1.084763	0.014982	0.416333
H80	H	1.584763	0.514982	0.916333
C81	C	1.100816	-0.007080	0.596744
C82	C	1.600816	0.492920	1.096744
N83	N	1.147364	-0.071022	0.634924
N84	N	1.647364	0.428978	1.134924
H85	H	0.561521	0.156848	-0.144892
H86	H	1.061521	0.656848	0.355108
H87	H	0.880901	0.294935	0.583599
H88	H	1.380901	0.794935	1.083599
H89	H	0.561483	0.156850	0.144808
H90	H	1.061483	0.656850	0.644808
C91	C	0.864868	0.317043	0.403171
C92	C	1.364868	0.817043	0.903171
N93	N	0.818356	0.381026	0.364985
N94	N	1.318356	0.881026	0.864985
H95	H	0.404149	0.153066	0.144801
H96	H	0.904149	0.653066	0.644801
