data_functionalizedCrystal
_audit_creation_method	'MofGen! by Chris Wilmer'
_symmetry_space_group_name_H-M	'P1'
_symmetry_Int_Tables_number	1
_symmetry_cell_setting	triclinic
loop_
_symmetry_equiv_pos_as_xyz
  x,y,z
_cell_length_a	13.897449
_cell_length_b	18.101396
_cell_length_c	18.101389
_cell_angle_alpha	89.983791
_cell_angle_beta	90.017847
_cell_angle_gamma	89.961697
loop_
_atom_site_label
_atom_site_type_symbol
_atom_site_fract_x
_atom_site_fract_y
_atom_site_fract_z
Zn1	Zn	1.474546	0.294882	0.418722
Zn2	Zn	1.974546	0.794882	0.918722
Zn3	Zn	1.474393	0.418708	0.294885
Zn4	Zn	1.974393	0.918708	0.794885
Zn5	Zn	1.313243	0.294887	0.294897
Zn6	Zn	1.813243	0.794887	0.794897
Zn7	Zn	1.313162	0.418689	0.418688
Zn8	Zn	1.813162	0.918689	0.918688
O9	O	1.393836	0.356792	0.356798
O10	O	1.893836	0.856792	0.856798
O11	O	1.609507	0.311313	0.402304
O12	O	2.109507	0.811313	0.902304
O13	O	1.452986	0.402293	0.191254
O14	O	1.952986	0.902293	0.691254
O15	O	1.334737	0.191254	0.311342
O16	O	1.834737	0.691254	0.811342
O17	O	1.609395	0.402288	0.311322
O18	O	2.109395	0.902288	0.811322
O19	O	1.453246	0.191250	0.402316
O20	O	1.953246	0.691250	0.902316
O21	O	1.334590	0.311322	0.191263
O22	O	1.834590	0.811322	0.691263
O23	O	1.178250	0.311304	0.311309
O24	O	1.678250	0.811304	0.811309
O25	O	1.334600	0.402256	0.522325
O26	O	1.834600	0.902256	1.022325
O27	O	1.178191	0.402261	0.402257
O28	O	1.678191	0.902261	0.902257
O29	O	1.453168	0.311295	0.522350
O30	O	1.953168	0.811295	1.022350
O31	O	1.452908	0.522338	0.311289
O32	O	1.952908	1.022338	0.811289
O33	O	1.334452	0.522324	0.402246
O34	O	1.834452	1.022324	0.902246
C35	C	1.143222	0.356782	0.356781
C36	C	1.643222	0.856782	0.856781
C37	C	1.036008	0.356795	0.356792
C38	C	1.536008	0.856795	0.856792
C39	C	0.839712	0.356798	0.356811
C40	C	1.339712	0.856798	0.856811
C41	C	0.948945	0.356794	0.356798
C42	C	1.448945	0.856794	0.856798
C43	C	1.393681	0.549202	0.356778
C44	C	1.893681	1.049202	0.856778
C45	C	1.393703	0.631516	0.356795
C46	C	1.893703	1.131516	0.856795
C47	C	1.393874	0.930607	0.356838
C48	C	1.893874	1.430607	0.856838
C49	C	1.319522	0.899304	0.414208
C50	C	1.819522	1.399304	0.914208
C51	C	1.319180	0.813686	0.414027
C52	C	1.819180	1.313686	0.914027
C53	C	1.393789	0.782225	0.356817
C54	C	1.893789	1.282225	0.856817
C55	C	1.366264	0.813362	0.278768
C56	C	1.866264	1.313362	0.778768
C57	C	1.365773	0.899007	0.279113
C58	C	1.865773	1.399007	0.779113
C59	C	1.495918	0.898953	0.376830
C60	C	1.995918	1.398953	0.876830
C61	C	1.495330	0.813302	0.378541
C62	C	1.995330	1.313302	0.878541
C63	C	1.393743	0.698365	0.356801
C64	C	1.893743	1.198365	0.856801
C65	C	1.393918	1.014467	0.356849
C66	C	1.893918	1.514467	0.856849
C67	C	1.645429	0.356802	0.356816
C68	C	2.145429	0.856802	0.856816
C69	C	1.752643	0.356806	0.356823
C70	C	2.252643	0.856806	0.856823
C71	C	1.393892	0.356773	0.549960
C72	C	1.893892	0.856773	1.049960
C73	C	1.393915	0.356765	0.632274
C74	C	1.893915	0.856765	1.132274
C75	C	1.393984	1.163630	0.356837
C76	C	1.893984	1.663630	0.856837
C77	C	1.393961	1.081315	0.356860
C78	C	1.893961	1.581315	0.856860
C79	C	1.393836	0.356757	0.164388
C80	C	1.893836	0.856757	0.664388
C81	C	1.393999	0.356556	0.082074
C82	C	1.893999	0.856556	0.582074
C83	C	1.393972	0.356626	0.931365
C84	C	1.893972	0.856626	1.431365
C85	C	1.319115	0.413674	0.900024
C86	C	1.819115	0.913674	1.400024
C87	C	1.319317	0.413938	0.814406
C88	C	1.819317	0.913938	1.314406
C89	C	1.393943	0.356695	0.782983
C90	C	1.893943	0.856695	1.282983
C91	C	1.495568	0.377877	0.814080
C92	C	1.995568	0.877877	1.314080
C93	C	1.495151	0.378252	0.899726
C94	C	1.995151	0.878252	1.399726
C95	C	1.368087	0.278269	0.899789
C96	C	1.868087	0.778269	1.399789
C97	C	1.365825	0.278722	0.814138
C98	C	1.865825	0.778722	1.314138
C99	C	1.393933	0.356733	0.699123
C100	C	1.893933	0.856733	1.199123
C101	C	1.393988	0.356590	1.015225
C102	C	1.893988	0.856590	1.515225
H103	H	1.336567	0.919862	0.472268
H104	H	1.836567	1.419862	0.972268
H105	H	1.244345	0.920890	0.401132
H106	H	1.744345	1.420890	0.901132
H107	H	1.418721	0.792983	0.234858
H108	H	1.918721	1.292983	0.734858
H109	H	1.552814	0.338504	0.920459
H110	H	2.052814	0.838504	1.420459
O111	O	1.219502	0.396378	0.786540
O112	O	1.719502	0.896378	1.286540
H113	H	1.221999	0.345512	0.752364
H114	H	1.721999	0.845512	1.252364
O115	O	1.525145	0.452943	0.785678
O116	O	2.025145	0.952943	1.285678
H117	H	1.597114	0.467304	0.808042
H118	H	2.097114	0.967304	1.308042
O119	O	1.524203	0.454126	0.926206
O120	O	2.024203	0.954126	1.426206
H121	H	1.538413	0.490206	0.877840
H122	H	2.038413	0.990206	1.377840
H123	H	1.292467	0.791975	0.261529
H124	H	1.792467	1.291975	0.761529
O125	O	1.218984	0.396298	0.927288
O126	O	1.718984	0.896298	1.427288
H127	H	1.221496	0.346820	0.963472
H128	H	1.721496	0.846820	1.463472
O129	O	1.266762	0.257559	0.787214
O130	O	1.766762	0.757559	1.287214
H131	H	1.247421	0.202393	0.809475
H132	H	1.747421	0.702393	1.309475
H133	H	1.243549	0.793262	0.400784
H134	H	1.743549	1.293262	0.900784
H135	H	1.552839	0.337632	0.793728
H136	H	2.052839	0.837632	1.293728
H137	H	1.291180	0.919049	0.262177
H138	H	1.791180	1.419049	0.762177
O139	O	1.271623	0.252712	0.928374
O140	O	1.771623	0.752712	1.428374
H141	H	1.273946	0.249484	0.989583
H142	H	1.773946	0.749484	1.489583
H143	H	1.416370	0.233962	0.792748
H144	H	1.916370	0.733962	1.292748
O145	O	1.440299	0.221961	0.926634
O146	O	1.940299	0.721961	1.426634
H147	H	1.439001	0.219952	0.987911
H148	H	1.939001	0.719952	1.487911
O149	O	1.341916	0.785788	0.490696
O150	O	1.841916	1.285788	0.990696
H151	H	1.353259	0.833469	0.528236
H152	H	1.853259	1.333469	1.028236
O153	O	1.572586	0.784949	0.327202
O154	O	2.072586	1.284949	0.827202
H155	H	1.575104	0.723726	0.330072
H156	H	2.075104	1.223726	0.830072
H157	H	1.417579	0.919716	0.234910
H158	H	1.917579	1.419716	0.734910
O159	O	1.529155	0.927496	0.450937
O160	O	2.029155	1.427496	0.950937
H161	H	1.473305	0.964566	0.474349
H162	H	1.973305	1.464566	0.974349
O163	O	1.522846	0.786333	0.454618
O164	O	2.022846	1.286333	0.954618
H165	H	1.464455	0.750939	0.476871
H166	H	1.964455	1.250939	0.976871
O167	O	1.341483	0.490136	0.928566
O168	O	1.841483	0.990136	1.428566
H169	H	1.405689	0.487686	0.964970
H170	H	1.905689	0.987686	1.464970
H171	H	1.336406	0.472019	0.793924
H172	H	1.836406	0.972019	1.293924
H173	H	1.551314	0.919194	0.335045
H174	H	2.051314	1.419194	0.835045
