data_functionalizedCrystal
_audit_creation_method	'MofGen! by Chris Wilmer'
_symmetry_space_group_name_H-M	'P1'
_symmetry_Int_Tables_number	1
_symmetry_cell_setting	triclinic
loop_
_symmetry_equiv_pos_as_xyz
  x,y,z
_cell_length_a	9.065215
_cell_length_b	8.559648
_cell_length_c	8.140239
_cell_angle_alpha	89.991711
_cell_angle_beta	89.997810
_cell_angle_gamma	102.603319
loop_
_atom_site_label
_atom_site_type_symbol
_atom_site_fract_x
_atom_site_fract_y
_atom_site_fract_z
O1	O	1.931011	-0.233881	-0.136543
O2	O	1.499314	-0.253072	-0.136546
O3	O	1.753195	-0.011424	-0.136585
O4	O	1.677130	-0.475528	-0.136505
O5	O	1.753183	-0.011421	0.136642
O6	O	1.499302	-0.253069	0.136681
O7	O	1.930999	-0.233878	0.136684
Zn8	Zn	1.715148	-0.243473	0.180063
Zn9	Zn	1.715164	-0.243477	-0.179925
O10	O	1.677118	-0.475525	0.136722
C11	C	1.444553	-0.251227	0.000066
C12	C	1.281402	-0.245715	0.000062
C13	C	1.758954	0.048024	0.000015
C14	C	1.776112	0.225156	-0.000026
C15	C	1.985760	-0.235723	0.000068
C16	C	2.148910	-0.241234	0.000061
N17	N	1.715148	-0.243469	0.425746
C18	C	1.671359	0.465027	0.000073
C19	C	1.654200	0.287895	-0.000033
N20	N	1.715178	-0.243468	-0.425608
H21	H	1.536699	0.206097	-0.000015
O22	O	1.916193	0.322966	-0.000110
C23	C	1.902725	0.483983	-0.000082
H24	H	1.787721	0.491888	-0.051807
H25	H	1.913705	0.532015	0.130995
C26	C	2.169785	0.574601	-0.043714
C27	C	2.028539	0.584311	-0.107257
H28	H	2.247395	0.636491	-0.109818
H29	H	2.178861	0.466121	-0.043727
H30	H	2.178913	0.614625	0.065515
H31	H	2.019405	0.544269	-0.216476
H32	H	2.019464	0.692787	-0.107265
