data_functionalizedCrystal
_audit_creation_method	'MofGen! by Chris Wilmer'
_symmetry_space_group_name_H-M	'P1'
_symmetry_Int_Tables_number	1
_symmetry_cell_setting	triclinic
loop_
_symmetry_equiv_pos_as_xyz
  x,y,z
_cell_length_a	19.288840
_cell_length_b	16.109298
_cell_length_c	18.366186
_cell_angle_alpha	89.999156
_cell_angle_beta	89.983729
_cell_angle_gamma	83.293103
loop_
_atom_site_label
_atom_site_type_symbol
_atom_site_fract_x
_atom_site_fract_y
_atom_site_fract_z
O1	O	0.921610	0.103617	-0.060663
O2	O	1.421610	0.603617	0.439337
O3	O	0.719380	0.117630	-0.060636
O4	O	1.219380	0.617630	0.439364
O5	O	0.826052	-0.010428	-0.060655
O6	O	1.326052	0.489572	0.439345
O7	O	0.814939	0.231674	-0.060644
O8	O	1.314939	0.731674	0.439356
O9	O	0.826034	-0.010434	0.060444
O10	O	1.326034	0.489566	0.560444
O11	O	0.719362	0.117623	0.060463
O12	O	1.219362	0.617623	0.560463
O13	O	0.921592	0.103611	0.060437
O14	O	1.421592	0.603611	0.560437
Zn15	Zn	0.820474	0.110616	0.079677
Zn16	Zn	1.320474	0.610616	0.579677
Zn17	Zn	0.820498	0.110624	-0.079877
Zn18	Zn	1.320498	0.610624	0.420123
O19	O	0.814921	0.231668	0.060456
O20	O	1.314921	0.731668	0.560456
C21	C	0.693494	0.117179	-0.000083
C22	C	1.193494	0.617179	0.499917
C23	C	0.616386	0.115836	-0.000074
C24	C	1.116386	0.615836	0.499926
C25	C	0.580191	0.115194	-0.066087
C26	C	1.080191	0.615194	0.433913
C27	C	0.507741	0.113923	-0.066096
C28	C	1.007741	0.613923	0.433904
C29	C	0.471491	0.113277	-0.000088
C30	C	0.971491	0.613277	0.499912
C31	C	0.507694	0.113924	0.065934
C32	C	1.007694	0.613924	0.565934
C33	C	0.580142	0.115203	0.065941
C34	C	1.080142	0.615203	0.565941
C35	C	0.362035	0.062549	0.050471
C36	C	0.862035	0.562549	0.550471
C37	C	0.289589	0.061265	0.050461
C38	C	0.789589	0.561265	0.550461
C39	C	0.248038	0.109334	-0.000107
C40	C	0.748038	0.609334	0.499893
C41	C	0.278942	0.158677	-0.050678
C42	C	0.778942	0.658677	0.449322
C43	C	0.351390	0.159957	-0.050671
C44	C	0.851390	0.659957	0.449329
C45	C	0.392933	0.111890	-0.000088
C46	C	0.892933	0.611890	0.499912
C47	C	0.133284	0.107315	-0.066135
C48	C	0.633284	0.607315	0.433865
C49	C	0.060832	0.106049	-0.066141
C50	C	0.560832	0.606049	0.433859
C51	C	0.060788	0.106041	0.065891
C52	C	0.560788	0.606041	0.565891
C53	C	0.133237	0.107315	0.065895
C54	C	0.633237	0.607315	0.565895
C55	C	0.169481	0.107948	-0.000120
C56	C	0.669481	0.607948	0.499880
C57	C	0.825593	-0.041404	-0.000109
C58	C	1.325593	0.458596	0.499891
C59	C	0.824245	-0.133695	-0.000117
C60	C	1.324245	0.366305	0.499883
C61	C	0.819854	-0.432745	-0.066112
C62	C	1.319854	0.067255	0.433888
C63	C	0.821130	-0.346029	-0.066118
C64	C	1.321130	0.153971	0.433882
C65	C	0.821121	-0.346022	0.065911
C66	C	1.321121	0.153978	0.565911
C67	C	0.819849	-0.432736	0.065916
C68	C	1.319849	0.067264	0.565916
C69	C	0.819212	-0.476095	-0.000098
C70	C	1.319212	0.023905	0.499902
C71	C	0.821760	-0.302665	-0.000108
C72	C	1.321760	0.197335	0.499892
C73	C	0.823144	-0.208644	-0.000113
C74	C	1.323144	0.291356	0.499887
C75	C	0.817830	-0.570122	-0.000093
C76	C	1.317830	-0.070122	0.499907
C77	C	0.947479	0.104061	-0.000118
C78	C	1.447479	0.604061	0.499882
C79	C	1.024587	0.105404	-0.000132
C80	C	1.524587	0.605404	0.499868
C81	C	0.815379	0.262644	-0.000093
C82	C	1.315379	0.762644	0.499907
C83	C	0.816728	0.354935	-0.000089
C84	C	1.316728	0.854935	0.499911
N85	N	0.820463	0.110610	0.188568
N86	N	1.320463	0.610610	0.688568
N87	N	0.820515	0.110624	-0.188768
N88	N	1.320515	0.610624	0.311232
C89	C	0.867713	0.053934	0.226660
C90	C	1.367713	0.553934	0.726660
C91	C	0.867717	0.053930	0.302888
C92	C	1.367717	0.553930	0.802888
C93	C	0.820479	0.110617	0.341021
C94	C	1.320479	0.610617	0.841021
C95	C	0.773220	0.167297	0.302920
C96	C	1.273220	0.667297	0.802920
C97	C	0.773212	0.167294	0.226693
C98	C	1.273212	0.667294	0.726693
C99	C	0.811360	0.186371	0.461786
C100	C	1.311360	0.686371	0.961786
C101	C	0.811373	0.186376	0.538011
C102	C	1.311373	0.686376	1.038011
C103	C	0.820498	0.110627	0.576128
C104	C	1.320498	0.610627	1.076128
C105	C	0.829626	0.034870	0.538012
C106	C	1.329626	0.534870	1.038012
C107	C	0.829618	0.034867	0.461786
C108	C	1.329618	0.534867	0.961786
C109	C	0.820481	0.110626	0.423676
C110	C	1.320481	0.610626	0.923676
C111	C	0.867755	0.053942	0.696875
C112	C	1.367755	0.553942	1.196875
C113	C	0.867755	0.053938	0.773104
C114	C	1.367755	0.553938	1.273104
C115	C	0.773261	0.167312	0.773135
C116	C	1.273261	0.667312	1.273135
C117	C	0.773258	0.167309	0.696907
C118	C	1.273258	0.667309	1.196907
C119	C	0.820509	0.110626	0.658782
C120	C	1.320509	0.610626	1.158782
H121	H	0.376549	0.200136	-0.091845
H122	H	0.876549	0.700136	0.408155
H123	H	0.803917	0.248059	0.430756
H124	H	1.303917	0.748059	0.930756
Br125	Br	0.818986	-0.491576	0.155514
Br126	Br	1.318986	0.008424	0.655514
Br127	Br	0.182476	0.108180	-0.155723
Br128	Br	0.682476	0.608180	0.344277
Br129	Br	0.821982	-0.287172	0.155498
Br130	Br	1.321982	0.212828	0.655498
H131	H	0.906185	0.007777	0.195621
H132	H	1.406185	0.507777	0.695621
H133	H	0.906195	0.007776	0.333908
H134	H	1.406195	0.507776	0.833908
H135	H	0.837056	-0.026812	0.569046
H136	H	1.337056	0.473188	1.069046
H137	H	0.821654	-0.310737	-0.119873
H138	H	1.321654	0.189263	0.380127
Br139	Br	0.841998	-0.067940	0.410058
Br140	Br	1.341998	0.432060	0.910058
H141	H	0.906228	0.007784	0.665832
H142	H	1.406228	0.507784	1.165832
H143	H	0.609611	0.115727	0.119698
H144	H	1.109611	0.615727	0.619698
Br145	Br	0.931878	-0.022993	0.824805
Br146	Br	1.431878	0.477007	1.324805
H147	H	0.734796	0.213464	0.804182
H148	H	1.234796	0.713464	1.304182
Br149	Br	0.709133	0.244233	0.645205
Br150	Br	1.209133	0.744233	1.145205
Br151	Br	0.798994	0.289187	0.589732
Br152	Br	1.298994	0.789187	1.089732
H153	H	0.245112	0.197824	-0.091853
H154	H	0.745112	0.697824	0.408147
Br155	Br	0.709082	0.244216	0.174993
Br156	Br	1.209082	0.744216	0.674993
H157	H	0.031363	0.105531	-0.119899
H158	H	0.531363	0.605531	0.380101
H159	H	0.734756	0.213451	0.333971
H160	H	1.234756	0.713451	0.833971
H161	H	0.609696	0.115710	-0.119841
H162	H	1.109696	0.615710	0.380159
H163	H	0.478265	0.113402	-0.119853
H164	H	0.978265	0.613402	0.380147
Br165	Br	0.418419	-0.002690	0.119108
Br166	Br	0.918419	0.497310	0.619108
H167	H	0.031273	0.105520	0.119636
H168	H	0.531273	0.605520	0.619636
Br169	Br	0.818991	-0.491586	-0.155702
Br170	Br	1.318991	0.008414	0.344298
H171	H	0.162708	0.107833	0.119650
H172	H	0.662708	0.607833	0.619650
H173	H	0.478174	0.113399	0.119678
H174	H	0.978174	0.613399	0.619678
Br175	Br	0.247652	-0.005680	0.119106
Br176	Br	0.747652	0.494320	0.619106
