data_functionalizedCrystal
_audit_creation_method	'MofGen! by Chris Wilmer'
_symmetry_space_group_name_H-M	'P1'
_symmetry_Int_Tables_number	1
_symmetry_cell_setting	triclinic
loop_
_symmetry_equiv_pos_as_xyz
  x,y,z
_cell_length_a	21.395362
_cell_length_b	12.759394
_cell_length_c	21.395356
_cell_angle_alpha	90.024246
_cell_angle_beta	90.035878
_cell_angle_gamma	90.030716
loop_
_atom_site_label
_atom_site_type_symbol
_atom_site_fract_x
_atom_site_fract_y
_atom_site_fract_z
Zn1	Zn	0.957879	-0.417843	0.354603
Zn2	Zn	0.957825	-0.593537	0.249832
Zn3	Zn	0.853108	-0.417921	0.249804
Zn4	Zn	0.853092	-0.593529	0.354537
O5	O	0.905476	-0.505707	0.302194
O6	O	1.045549	-0.441119	0.340744
O7	O	0.943918	-0.570277	0.162151
O8	O	0.867036	-0.270890	0.263721
O9	O	1.045510	-0.570201	0.263770
O10	O	0.944010	-0.270832	0.340717
O11	O	0.866984	-0.441253	0.162130
O12	O	0.765428	-0.441245	0.263658
O13	O	0.867008	-0.570187	0.442224
O14	O	0.765416	-0.570264	0.340605
O15	O	0.943994	-0.441112	0.442272
O16	O	0.943902	-0.740557	0.263706
O17	O	0.866955	-0.740551	0.340632
C18	C	0.742688	-0.505763	0.302121
C19	C	0.673047	-0.505812	0.302105
C20	C	0.640344	-0.573081	0.342112
C21	C	0.574909	-0.573055	0.342139
C22	C	0.542179	-0.505772	0.302150
C23	C	0.574890	-0.438490	0.262141
C24	C	0.640324	-0.438510	0.262118
C25	C	0.438461	-0.497324	0.245744
C26	C	0.373028	-0.497311	0.245766
C27	C	0.340358	-0.505703	0.302219
C28	C	0.373129	-0.514130	0.358653
C29	C	0.438564	-0.514150	0.358631
C30	C	0.471226	-0.505742	0.302170
C31	C	0.236702	-0.572947	0.342259
C32	C	0.171266	-0.572914	0.342288
C33	C	0.171248	-0.438354	0.262284
C34	C	0.236684	-0.438382	0.262260
C35	C	0.269407	-0.505684	0.302247
C36	C	0.905438	-0.778675	0.302179
C37	C	0.905480	-0.895452	0.302193
C38	C	0.985665	-0.895404	0.222150
C39	C	1.025773	-0.950241	0.182136
C40	C	1.025810	-1.059963	0.182153
C41	C	0.985735	-1.114850	0.222190
C42	C	0.945626	-1.060013	0.262204
C43	C	0.945593	-0.950289	0.262182
C44	C	0.865445	-1.060060	0.342250
C45	C	0.865404	-0.950338	0.342230
C46	C	0.825370	-1.114947	0.382286
C47	C	0.785257	-1.060110	0.422298
C48	C	0.785222	-0.950382	0.422279
C49	C	0.825296	-0.895501	0.382244
C50	C	1.068899	-0.505652	0.302267
C51	C	1.138541	-0.505629	0.302299
C52	C	0.905505	-0.505640	0.465617
C53	C	0.905517	-0.505611	0.535259
C54	C	0.905531	-0.231674	0.302223
C55	C	0.905554	-0.114897	0.302235
C56	C	0.905483	-0.505699	0.139407
C57	C	0.905592	-0.505432	0.069766
C58	C	0.945663	-0.438234	1.037081
C59	C	0.945658	-0.438259	0.971646
C60	C	0.905571	-0.505471	0.938897
C61	C	0.865497	-0.572682	0.971590
C62	C	0.865508	-0.572662	1.037024
C63	C	0.849103	-0.513818	0.835203
C64	C	0.849092	-0.513830	0.769770
C65	C	0.905539	-0.505538	0.737076
C66	C	0.961999	-0.497212	0.769824
C67	C	0.962010	-0.497192	0.835259
C68	C	0.905555	-0.505501	0.867945
C69	C	0.945608	-0.438364	0.633439
C70	C	0.945604	-0.438397	0.568003
C71	C	0.865438	-0.572814	0.567948
C72	C	0.865447	-0.572787	0.633383
C73	C	0.905531	-0.505557	0.666125
H74	H	0.465055	-0.490485	0.199770
F75	F	1.068425	-0.891820	0.139531
F76	F	0.985766	-0.778629	0.222267
H77	H	0.346531	-0.520962	0.404623
F78	F	0.825404	-0.778726	0.382363
F79	F	0.985569	-1.231625	0.221998
F80	F	0.825203	-1.231722	0.382096
F81	F	0.988309	-0.366735	0.936853
H82	H	0.548237	-0.383705	0.229582
H83	H	0.752563	-0.905739	0.454866
H84	H	0.803119	-0.520609	0.743111
F85	F	1.068501	-1.118326	0.139569
H86	H	0.548277	-0.627833	0.374720
F87	F	0.822796	-0.644307	0.668170
F88	F	1.022098	-0.488343	0.870109
F89	F	0.988344	-0.366713	1.071924
F90	F	0.742615	-1.118530	0.464907
H91	H	0.666950	-0.383728	0.229540
F92	F	0.675167	-0.644707	0.384671
F93	F	1.022080	-0.488402	0.735036
H94	H	0.978247	-0.383621	0.660099
F95	F	0.988259	-0.366878	0.533218
H96	H	0.803134	-0.520571	0.861816
H97	H	0.832800	-0.627544	0.541285
F98	F	0.822835	-0.644216	0.936736
H99	H	0.832876	-0.627384	1.063635
H100	H	0.263347	-0.627744	0.374822
F101	F	0.136461	-0.644510	0.384874
F102	F	0.136419	-0.366740	0.219727
F103	F	0.473439	-0.523114	0.418690
H104	H	0.263311	-0.383610	0.229680
H105	H	0.346350	-0.490456	0.199814
