data_functionalizedCrystal
_audit_creation_method	'MofGen! by Chris Wilmer'
_symmetry_space_group_name_H-M	'P1'
_symmetry_Int_Tables_number	1
_symmetry_cell_setting	triclinic
loop_
_symmetry_equiv_pos_as_xyz
  x,y,z
_cell_length_a	17.038272
_cell_length_b	26.809956
_cell_length_c	17.038272
_cell_angle_alpha	90.004459
_cell_angle_beta	88.888444
_cell_angle_gamma	90.003765
loop_
_atom_site_label
_atom_site_type_symbol
_atom_site_fract_x
_atom_site_fract_y
_atom_site_fract_z
O1	O	1.048760	0.041418	-0.170526
O2	O	0.820948	0.041432	-0.167818
O3	O	0.933500	0.041421	-0.055266
O4	O	0.936208	0.041429	-0.283078
O5	O	0.933479	-0.041538	-0.055283
O6	O	0.820927	-0.041527	-0.167835
O7	O	1.048738	-0.041542	-0.170543
Zn8	Zn	0.934829	-0.054706	-0.169192
Zn9	Zn	0.934858	0.054597	-0.169170
O10	O	0.936187	-0.041530	-0.283095
C11	C	0.791645	-0.000045	-0.165364
C12	C	0.704361	-0.000040	-0.158016
N13	N	0.934816	-0.129302	-0.169207
C14	C	0.658752	-0.000038	-0.225479
C15	C	0.576740	-0.000045	-0.218570
C16	C	0.540339	-0.000051	-0.144197
C17	C	0.585954	-0.000054	-0.076728
C18	C	0.667965	-0.000050	-0.083638
C19	C	0.292951	-0.000065	-0.119787
C20	C	0.210935	-0.000067	-0.112882
C21	C	0.201726	-0.000059	-0.254725
C22	C	0.283739	-0.000052	-0.261628
C23	C	0.329347	-0.000058	-0.194159
C24	C	0.456510	-0.000056	-0.137133
C25	C	0.413174	-0.000056	-0.201224
C26	C	0.984690	-0.473933	-0.119344
C27	C	0.984707	-0.682811	-0.119334
O28	O	1.027081	-0.709819	-0.076941
N29	N	0.934861	-0.708929	-0.169153
C30	C	0.885002	-0.682825	-0.218974
O31	O	0.842599	-0.709833	-0.261342
C32	C	0.884981	-0.473948	-0.218980
C33	C	0.934837	-0.447832	-0.169164
C34	C	1.034541	-0.447817	-0.069531
C35	C	1.034539	-0.395601	-0.069537
C36	C	0.984686	-0.369500	-0.119357
C37	C	0.934835	-0.395616	-0.169170
C38	C	0.835119	-0.447845	-0.268797
C39	C	0.835117	-0.395622	-0.268793
C40	C	0.884973	-0.369507	-0.218976
C41	C	0.884980	-0.317299	-0.218995
N42	N	0.934827	-0.291181	-0.169176
C43	C	0.984680	-0.317281	-0.119357
C44	C	0.885018	-0.792488	-0.218968
C45	C	0.885024	-0.844707	-0.218968
C46	C	0.984729	-0.844689	-0.119326
C47	C	0.984726	-0.792469	-0.119331
C48	C	0.934865	-0.766370	-0.169149
C49	C	0.984672	-0.207623	-0.119375
C50	C	0.984668	-0.155402	-0.119387
C51	C	0.884962	-0.155425	-0.219026
C52	C	0.884968	-0.207641	-0.219016
C53	C	0.934826	-0.233739	-0.169184
O54	O	0.842623	-0.290259	-0.261359
O55	O	1.027064	-0.290264	-0.076983
C56	C	0.984692	-0.526149	-0.119338
C57	C	0.934841	-0.552265	-0.169151
C58	C	0.884988	-0.526164	-0.218970
C59	C	0.934847	-0.604484	-0.169151
C60	C	0.984700	-0.630584	-0.119331
C61	C	1.034546	-0.604466	-0.069513
C62	C	1.034544	-0.552250	-0.069519
C63	C	0.835141	-0.552283	-0.268789
C64	C	0.835148	-0.604499	-0.268780
C65	C	0.885000	-0.630600	-0.218960
C66	C	1.078042	-0.000063	-0.172997
C67	C	1.165326	-0.000065	-0.180346
C68	C	0.931027	-0.000058	-0.025982
C69	C	0.923679	-0.000058	0.061301
N70	N	0.934877	0.129193	-0.169149
C71	C	0.938660	-0.000050	-0.312379
C72	C	0.946008	-0.000047	-0.399663
C73	C	0.991142	-0.000063	0.106911
C74	C	0.984233	-0.000057	0.188923
C75	C	0.909860	-0.000051	0.225324
C76	C	0.842391	-0.000045	0.179708
C77	C	0.849301	-0.000046	0.097698
C78	C	0.885449	-0.000043	0.472712
C79	C	0.878545	-0.000042	0.554728
C80	C	1.020387	-0.000054	0.563937
C81	C	1.027291	-0.000059	0.481924
C82	C	0.959822	-0.000050	0.436316
C83	C	0.902796	-0.000047	0.309153
C84	C	0.966886	-0.000050	0.352488
H85	H	0.688384	-0.000033	-0.286042
H86	H	1.025270	-0.134141	-0.078821
H87	H	1.087853	-0.000064	0.452293
F88	F	0.799383	-0.000038	0.593467
H89	H	0.844379	-0.228905	-0.259589
F90	F	0.823644	-0.000038	0.347901
F91	F	1.046037	-0.000054	0.313746
F92	F	0.813642	-0.000032	0.424182
F93	F	0.831908	-0.127639	-0.272047
F94	F	0.322473	-0.000044	-0.340786
H95	H	0.164583	-0.000055	-0.309653
F96	F	1.087606	-0.632253	-0.016494
F97	F	0.716505	-0.000054	-0.011834
H98	H	0.781835	-0.000036	0.209353
F99	F	0.777497	-0.000039	0.049157
F100	F	1.037737	-0.235391	-0.066338
H101	H	0.539608	-0.000043	-0.273507
H102	H	0.844436	-0.865967	-0.259542
F103	F	0.782078	-0.524510	-0.321816
F104	F	0.341480	-0.000071	-0.047979
F105	F	0.172196	-0.000081	-0.033720
F106	F	0.547212	-0.000063	0.002426
F107	F	0.451917	-0.000053	-0.280375
F108	F	1.092187	-0.000063	0.612481
H109	H	1.075133	-0.374340	-0.028970
F110	F	0.417762	-0.000060	-0.057982
F111	F	1.087604	-0.475588	-0.016501
F112	F	0.782055	-0.475630	-0.321817
F113	F	1.037786	-0.872477	-0.066305
F114	F	1.037787	-0.764680	-0.066309
F115	F	0.831948	-0.764716	-0.271996
H116	H	0.794512	-0.374374	-0.309360
H117	H	1.075141	-0.530990	-0.028953
H118	H	1.051705	-0.000071	0.077279
F119	F	0.782085	-0.632288	-0.321809
H120	H	1.039170	-0.000062	0.226054
