data_functionalizedCrystal
_audit_creation_method	'MofGen! by Chris Wilmer'
_symmetry_space_group_name_H-M	'P1'
_symmetry_Int_Tables_number	1
_symmetry_cell_setting	triclinic
loop_
_symmetry_equiv_pos_as_xyz
  x,y,z
_cell_length_a	19.288840
_cell_length_b	10.654550
_cell_length_c	17.766277
_cell_angle_alpha	89.994852
_cell_angle_beta	89.983415
_cell_angle_gamma	83.805459
loop_
_atom_site_label
_atom_site_type_symbol
_atom_site_fract_x
_atom_site_fract_y
_atom_site_fract_z
O1	O	0.922389	0.156507	-0.062718
O2	O	0.720264	0.177672	-0.062692
O3	O	0.825974	-0.015750	-0.062703
O4	O	0.816679	0.349929	-0.062707
O5	O	0.825955	-0.015760	0.062486
O6	O	0.720246	0.177663	0.062497
O7	O	0.922370	0.156497	0.062470
Cu8	Cu	0.821306	0.167079	0.073914
Cu9	Cu	0.821328	0.167090	-0.074136
O10	O	0.816661	0.349919	0.062481
C11	C	0.694374	0.176992	-0.000094
C12	C	0.617256	0.174963	-0.000084
C13	C	0.581056	0.173994	-0.068326
C14	C	0.508597	0.172074	-0.068336
C15	C	0.472342	0.171098	-0.000099
C16	C	0.508549	0.172074	0.068152
C17	C	0.581007	0.174007	0.068160
C18	C	0.362504	0.094477	0.052171
C19	C	0.290049	0.092536	0.052161
C20	C	0.248859	0.165142	-0.000118
C21	C	0.280134	0.239672	-0.052400
C22	C	0.352592	0.241605	-0.052393
C23	C	0.393774	0.169003	-0.000099
C24	C	0.134090	0.162093	-0.068375
C25	C	0.061629	0.160180	-0.068382
C26	C	0.061584	0.160168	0.068108
C27	C	0.134043	0.162093	0.068113
C28	C	0.170292	0.163049	-0.000131
C29	C	0.825282	-0.062538	-0.000109
C30	C	0.823240	-0.201937	-0.000112
C31	C	0.885480	-0.282765	-0.000118
C32	C	0.883558	-0.413745	-0.000123
C33	C	0.757149	-0.383055	-0.000113
C34	C	0.759073	-0.252078	-0.000113
C35	C	0.958461	-0.300485	-0.000120
C36	C	0.956539	-0.431464	-0.000125
C37	C	0.948261	0.157178	-0.000129
C38	C	1.025378	0.159206	-0.000144
C39	C	0.817352	0.396707	-0.000114
C40	C	0.819394	0.536107	-0.000116
N41	N	0.821296	0.167070	0.178044
N42	N	0.821344	0.167089	-0.178266
C43	C	0.868119	0.081464	0.217427
C44	C	0.868123	0.081459	0.296228
C45	C	0.821310	0.167080	0.335645
C46	C	0.774478	0.252692	0.296253
C47	C	0.774470	0.252687	0.217453
C48	C	0.812761	0.281502	0.460482
C49	C	0.812773	0.281509	0.539281
C50	C	0.821329	0.167095	0.578691
C51	C	0.829888	0.052669	0.539293
C52	C	0.829880	0.052664	0.460493
C53	C	0.821313	0.167094	0.421091
C54	C	0.868159	0.081476	0.703519
C55	C	0.868159	0.081469	0.782323
C56	C	0.774517	0.252713	0.782346
C57	C	0.774514	0.252709	0.703545
C58	C	0.821339	0.167092	0.664136
H59	H	0.479117	0.171286	-0.123908
Cl60	Cl	0.994317	-0.246247	0.083334
Cl61	Cl	0.414279	0.003193	0.117900
Cl62	Cl	0.391907	0.335302	-0.118111
H63	H	0.836847	-0.040505	0.428418
Cl64	Cl	0.626517	0.175224	0.153957
H65	H	0.264591	0.031843	0.094728
H66	H	0.163605	0.162885	-0.123943
H67	H	0.163518	0.162874	0.123683
Cl68	Cl	0.927021	-0.026163	0.653976
Cl69	Cl	0.676486	-0.446099	-0.000116
H70	H	0.479026	0.171282	0.123711
Cl71	Cl	0.228360	0.330961	-0.118124
H72	H	0.032065	0.159381	0.123668
Cl73	Cl	0.990602	-0.502672	-0.083580
H74	H	0.708391	-0.186271	-0.000119
H75	H	0.032156	0.159399	-0.123955
Cl76	Cl	1.002543	-0.256092	-0.081006
Cl77	Cl	0.998977	-0.496870	0.080754
Cl78	Cl	0.715602	0.360315	0.167941
H79	H	0.906245	0.011747	0.185342
Cl80	Cl	0.926993	-0.026169	0.345746
H81	H	0.836854	-0.040498	0.571379
Cl82	Cl	0.927023	-0.026166	0.831835
H83	H	0.736398	0.322423	0.814439
H84	H	0.736389	0.322423	0.671477
Cl85	Cl	0.802018	0.425356	0.588802
Cl86	Cl	0.802068	0.425355	0.410947
H87	H	0.736361	0.322404	0.328351
H88	H	0.610566	0.174773	-0.123896
