data_functionalizedCrystal
_audit_creation_method	'MofGen! by Chris Wilmer'
_symmetry_space_group_name_H-M	'P1'
_symmetry_Int_Tables_number	1
_symmetry_cell_setting	triclinic
loop_
_symmetry_equiv_pos_as_xyz
  x,y,z
_cell_length_a	27.732048
_cell_length_b	16.109301
_cell_length_c	14.586319
_cell_angle_alpha	90.005214
_cell_angle_beta	89.998001
_cell_angle_gamma	83.052068
loop_
_atom_site_label
_atom_site_type_symbol
_atom_site_fract_x
_atom_site_fract_y
_atom_site_fract_z
O1	O	-0.641341	-0.098925	-0.076125
O2	O	-0.500610	-0.113967	-0.076153
O3	O	-0.574841	0.014633	-0.076129
O4	O	-0.567109	-0.227525	-0.076149
O5	O	-0.574836	0.014634	0.076352
O6	O	-0.500605	-0.113965	0.076327
O7	O	-0.641335	-0.098923	0.076356
Cu8	Cu	-0.570970	-0.106444	0.090264
Cu9	Cu	-0.570976	-0.106446	-0.090062
O10	O	-0.567104	-0.227523	0.076331
C11	C	-0.482599	-0.113650	0.000084
C12	C	-0.428940	-0.112700	0.000073
C13	C	-0.659346	-0.099240	0.000117
C14	C	-0.713005	-0.100191	0.000121
C15	C	-0.574526	0.045605	0.000112
C16	C	-0.573586	0.137888	0.000113
C17	C	-0.090418	-0.182708	0.000107
C18	C	0.111256	-0.179181	0.000115
O19	O	0.142244	-0.243198	0.000150
N20	N	0.130699	-0.102926	0.000120
C21	C	0.099720	-0.027548	0.000129
O22	O	0.120885	0.037392	0.000143
C23	C	-0.101954	-0.031077	0.000127
C24	C	-0.121393	-0.107336	0.000113
C25	C	-0.109859	-0.258961	0.000094
C26	C	-0.160274	-0.259842	0.000087
C27	C	-0.191250	-0.184470	0.000093
C28	C	-0.171809	-0.108217	0.000106
C29	C	-0.132932	0.044300	0.000142
C30	C	-0.183353	0.043411	0.000144
C31	C	-0.202793	-0.032848	0.000130
C32	C	-0.253200	-0.033726	0.000105
N33	N	-0.272643	-0.109981	0.000100
C34	C	-0.241668	-0.185353	0.000094
C35	C	0.205602	-0.025701	0.000128
C36	C	0.256020	-0.024819	0.000127
C37	C	0.267553	-0.176451	0.000115
C38	C	0.217134	-0.177333	0.000110
C39	C	0.186159	-0.101956	0.000123
C40	C	-0.347545	-0.187197	0.000078
C41	C	-0.397965	-0.188072	0.000067
C42	C	-0.409494	-0.036440	0.000084
C43	C	-0.359077	-0.035565	0.000090
C44	C	-0.328104	-0.110950	0.000090
O45	O	-0.284216	0.030257	0.000081
O46	O	-0.262842	-0.250283	0.000101
C47	C	-0.040003	-0.181827	0.000114
C48	C	-0.020562	-0.105574	0.000127
C49	C	-0.051537	-0.030202	0.000133
C50	C	0.029856	-0.104692	0.000126
C51	C	0.060831	-0.180064	0.000120
C52	C	0.041388	-0.256318	0.000115
C53	C	-0.009027	-0.257199	0.000108
C54	C	-0.032095	0.046052	0.000138
C55	C	0.018322	0.046927	0.000144
C56	C	0.049297	-0.028445	0.000138
C57	C	-0.567420	-0.258495	0.000089
C58	C	-0.568359	-0.350779	0.000081
N59	N	-0.570969	-0.106442	0.217096
C60	C	-0.615450	0.360679	0.000107
C61	C	-0.614564	0.447388	0.000099
C62	C	-0.526492	0.426424	0.000085
C63	C	-0.527378	0.339716	0.000086
C64	C	-0.571859	0.306846	0.000102
C65	C	-0.570086	0.480263	0.000093
C66	C	-0.569125	0.574277	0.000084
C67	C	-0.572820	0.212826	0.000108
N68	N	-0.570980	-0.106442	-0.216894
C69	C	-0.603849	-0.049517	0.452113
C70	C	-0.603851	-0.049515	0.548094
C71	C	-0.538096	-0.163370	0.548082
C72	C	-0.538093	-0.163367	0.452103
C73	C	-0.570972	-0.106442	0.404121
C74	C	-0.570977	-0.106442	0.596081
C75	C	-0.570978	-0.106440	0.700149
C76	C	-0.570971	-0.106442	0.300047
H77	H	-0.413790	-0.250174	0.000055
H78	H	-0.630621	-0.003164	0.413048
H79	H	-0.490277	0.453197	0.000074
N80	N	-0.482843	0.284732	0.000071
N81	N	-0.443132	0.314088	0.000062
H82	H	-0.411681	0.275257	0.000048
N83	N	-0.441146	0.040540	0.000082
N84	N	-0.486160	0.039732	0.000078
H85	H	-0.508517	0.094099	0.000081
N86	N	-0.504520	-0.221529	0.597094
N87	N	-0.505169	-0.298370	0.586362
H88	H	-0.481455	-0.339448	0.620974
N89	N	-0.637435	0.008642	0.597103
N90	N	-0.666785	0.059464	0.554247
H91	H	-0.690505	0.100542	0.588858
H92	H	-0.084643	-0.320342	0.000093
N93	N	-0.504508	-0.221531	0.403089
N94	N	-0.505157	-0.298372	0.413797
H95	H	-0.481438	-0.339448	0.379182
N96	N	-0.315917	-0.264208	0.000083
N97	N	-0.333290	-0.332280	0.000073
H98	H	-0.310954	-0.386670	0.000072
H99	H	-0.176097	-0.321940	0.000075
N100	N	-0.028873	-0.335104	0.000091
N101	N	-0.001203	-0.402389	0.000084
H102	H	-0.015215	-0.457414	0.000072
N103	N	0.197287	-0.255237	0.000114
N104	N	0.206786	-0.305897	0.064385
H105	H	0.192772	-0.360921	0.064391
H106	H	0.292781	-0.237822	0.000111
H107	H	-0.651670	0.333920	0.000117
N108	N	-0.113093	0.122208	0.000174
N109	N	-0.122599	0.172860	0.064462
H110	H	-0.108591	0.227889	0.064488
H111	H	0.271843	0.037279	0.000124
N112	N	-0.659088	0.502389	0.000121
N113	N	-0.658292	0.579805	0.000121
H114	H	-0.689738	0.618650	0.000137
N115	N	0.038174	0.124832	0.000180
N116	N	0.065011	0.142238	0.064471
H117	H	0.079031	0.197257	0.064506
N118	N	0.173966	0.051301	0.000152
N119	N	0.175738	0.102164	0.064431
H120	H	0.153397	0.156548	0.064446
N121	N	-0.214985	0.120418	0.000167
N122	N	-0.197617	0.188494	0.000184
H123	H	-0.219956	0.242880	0.000201
N124	N	-0.339225	0.042337	0.000089
N125	N	-0.366890	0.109628	0.000089
H126	H	-0.352872	0.164648	0.000096
H127	H	0.066617	-0.317688	0.000107
H128	H	-0.057310	0.107431	0.000145
