data_functionalizedCrystal
_audit_creation_method	'MofGen! by Chris Wilmer'
_symmetry_space_group_name_H-M	'P1'
_symmetry_Int_Tables_number	1
_symmetry_cell_setting	triclinic
loop_
_symmetry_equiv_pos_as_xyz
  x,y,z
_cell_length_a	14.519709
_cell_length_b	9.065215
_cell_length_c	12.996460
_cell_angle_alpha	90.005021
_cell_angle_beta	90.000052
_cell_angle_gamma	95.652579
loop_
_atom_site_label
_atom_site_type_symbol
_atom_site_fract_x
_atom_site_fract_y
_atom_site_fract_z
O1	O	-0.135216	1.957872	0.085539
O2	O	0.198118	2.291205	0.418872
O3	O	0.531451	2.624539	0.752205
O4	O	-0.146310	1.528379	0.085542
O5	O	0.187023	1.861712	0.418875
O6	O	0.520356	2.195045	0.752209
O7	O	-0.006608	1.754513	0.085550
O8	O	0.326726	2.087846	0.418883
O9	O	0.660059	2.421179	0.752216
O10	O	-0.274918	1.731738	0.085531
O11	O	0.058415	2.065071	0.418864
O12	O	0.391749	2.398405	0.752198
O13	O	-0.006600	1.754489	-0.085584
O14	O	0.326734	2.087822	0.247749
O15	O	0.660067	2.421156	0.581083
O16	O	-0.146302	1.528355	-0.085592
O17	O	0.187031	1.861688	0.247742
O18	O	0.520364	2.195022	0.581075
O19	O	-0.135208	1.957848	-0.085595
O20	O	0.198126	2.291182	0.247738
O21	O	0.531459	2.624515	0.581072
Cu22	Cu	-0.140754	1.743100	-0.101219
Cu23	Cu	0.192579	2.076433	0.232114
Cu24	Cu	0.525912	2.409766	0.565447
Cu25	Cu	-0.140764	1.743127	0.101166
Cu26	Cu	0.192570	2.076461	0.434500
Cu27	Cu	0.525903	2.409794	0.767833
O28	O	-0.274910	1.731714	-0.085603
O29	O	0.058423	2.065048	0.247731
O30	O	0.391757	2.398381	0.581064
C31	C	-0.145241	1.473400	-0.000024
C32	C	0.188093	1.806734	0.333309
C33	C	0.521426	2.140067	0.666642
C34	C	-0.142054	1.309617	-0.000022
C35	C	0.191279	1.642950	0.333311
C36	C	0.524612	1.976283	0.666645
C37	C	-0.309282	1.732788	-0.000038
C38	C	0.024052	2.066121	0.333295
C39	C	0.357385	2.399454	0.666629
C40	C	-0.411686	1.735968	-0.000045
C41	C	-0.078353	2.069301	0.333288
C42	C	0.254981	2.402635	0.666622
C43	C	-0.786668	1.747677	-0.000004
C44	C	-0.453334	2.081011	0.333329
C45	C	-0.120001	2.414344	0.666662
C46	C	-0.682336	1.744426	-0.000016
C47	C	-0.349003	2.077759	0.333317
C48	C	-0.015669	2.411092	0.666651
C49	C	-0.599180	1.741823	-0.000026
C50	C	-0.265847	2.075156	0.333308
C51	C	0.067486	2.408490	0.666641
C52	C	-0.494842	1.738571	-0.000035
C53	C	-0.161509	2.071904	0.333298
C54	C	0.171825	2.405237	0.666631
C55	C	0.027764	1.753439	-0.000013
C56	C	0.361097	2.086773	0.333321
C57	C	0.694430	2.420106	0.666654
C58	C	0.130168	1.750259	0.000001
C59	C	0.463502	2.083592	0.333334
C60	C	0.796835	2.416926	0.666668
C61	C	-0.136277	2.012827	-0.000027
C62	C	0.197056	2.346160	0.333307
C63	C	0.530389	2.679494	0.666640
C64	C	-0.139464	2.176610	-0.000022
C65	C	0.193870	2.509944	0.333311
C66	C	0.527203	2.843277	0.666645
N67	N	-0.140747	1.743091	-0.243566
N68	N	0.192586	2.076424	0.089767
N69	N	0.525920	2.409757	0.423100
C70	C	-0.140765	1.743125	-0.663381
C71	C	0.192569	2.076459	-0.330047
C72	C	0.525902	2.409792	0.003286
C73	C	-0.140763	1.743111	-0.546576
C74	C	0.192571	2.076445	-0.213242
C75	C	0.525904	2.409778	0.120091
C76	C	-0.140757	1.743109	-0.453477
C77	C	0.192577	2.076442	-0.120144
C78	C	0.525910	2.409775	0.213189
C79	C	-0.140753	1.743093	-0.336665
C80	C	0.192580	2.076427	-0.003331
C81	C	0.525913	2.409760	0.330002
N82	N	-0.140764	1.743148	0.243513
N83	N	0.192570	2.076481	0.576847
N84	N	0.525903	2.409815	0.910180
