data_functionalizedCrystal
_audit_creation_method	'MofGen! by Chris Wilmer'
_symmetry_space_group_name_H-M	'P1'
_symmetry_Int_Tables_number	1
_symmetry_cell_setting	triclinic
loop_
_symmetry_equiv_pos_as_xyz
  x,y,z
_cell_length_a	8.559649
_cell_length_b	13.101050
_cell_length_c	8.597278
_cell_angle_alpha	94.263826
_cell_angle_beta	102.374898
_cell_angle_gamma	87.117163
loop_
_atom_site_label
_atom_site_type_symbol
_atom_site_fract_x
_atom_site_fract_y
_atom_site_fract_z
O1	O	2.127377	-0.079705	0.062220
O2	O	2.627377	0.420295	0.562220
O3	O	1.664156	-0.086781	-0.017875
O4	O	2.164156	0.413219	0.482125
O5	O	1.902860	-0.063174	0.249455
O6	O	2.402860	0.436826	0.749455
O7	O	1.888673	-0.103312	-0.205110
O8	O	2.388673	0.396688	0.294890
O9	O	1.885733	0.105559	0.230244
O10	O	2.385733	0.605559	0.730244
O11	O	1.647029	0.081953	-0.037086
O12	O	2.147029	0.581953	0.462914
O13	O	2.110250	0.089028	0.043008
O14	O	2.610250	0.589028	0.543008
Zn15	Zn	1.875920	0.112280	-0.000089
Zn16	Zn	2.375920	0.612280	0.499911
Zn17	Zn	1.898486	-0.110033	0.025223
Zn18	Zn	2.398486	0.389967	0.525223
O19	O	1.871547	0.065422	-0.224321
O20	O	2.371547	0.565422	0.275679
C21	C	1.596213	-0.002951	-0.033550
C22	C	2.096213	0.497049	0.466450
C23	C	1.419280	-0.004547	-0.051618
C24	C	1.919280	0.495453	0.448382
N25	N	1.860532	0.264004	-0.017362
N26	N	2.360532	0.764004	0.482638
C27	C	1.839595	0.470970	-0.040876
C28	C	2.339595	0.970970	0.459124
C29	C	1.934813	0.531283	0.066001
C30	C	2.434813	1.031283	0.566001
C31	C	1.923164	0.646447	0.052918
C32	C	2.423164	1.146447	0.552918
C33	C	1.851242	0.355796	-0.027795
C34	C	2.351242	0.855796	0.472205
C35	C	2.178194	0.005196	0.058684
C36	C	2.678194	0.505196	0.558684
C37	C	2.355127	0.006786	0.076753
C38	C	2.855127	0.506786	0.576753
C39	C	1.891818	0.026281	0.297505
C40	C	2.391818	0.526281	0.797505
C41	C	1.884416	0.041444	0.469299
C42	C	2.384416	0.541444	0.969299
N43	N	1.913882	0.738243	0.042493
N44	N	2.413882	1.238243	0.542493
C45	C	1.882588	-0.024036	-0.272371
C46	C	2.382588	0.475964	0.227629
C47	C	1.889991	-0.039205	-0.444164
C48	C	2.389991	0.460795	0.055836
H49	H	1.338836	-0.015479	-0.175351
H50	H	1.838836	0.484521	0.324649
H51	H	1.900411	-0.119862	0.498485
H52	H	2.400411	0.380138	0.998485
H53	H	1.435563	0.017706	0.200479
H54	H	1.935563	0.517706	0.700479
C55	C	2.056781	0.484198	0.202875
C56	C	2.556781	0.984198	0.702875
N57	N	2.148651	0.448727	0.305957
N58	N	2.648651	0.948727	0.805957
H59	H	1.749334	0.505820	-0.142197
H60	H	2.249334	1.005820	0.357803
H61	H	1.873974	0.122095	0.526637
H62	H	2.373974	0.622095	1.026637
