data_functionalizedCrystal
_audit_creation_method	'MofGen! by Chris Wilmer'
_symmetry_space_group_name_H-M	'P1'
_symmetry_Int_Tables_number	1
_symmetry_cell_setting	triclinic
loop_
_symmetry_equiv_pos_as_xyz
  x,y,z
_cell_length_a	12.759401
_cell_length_b	12.645330
_cell_length_c	12.759393
_cell_angle_alpha	89.971026
_cell_angle_beta	89.979062
_cell_angle_gamma	90.019217
loop_
_atom_site_label
_atom_site_type_symbol
_atom_site_fract_x
_atom_site_fract_y
_atom_site_fract_z
Zn1	Zn	1.606245	-0.421945	-0.594031
Zn2	Zn	1.606126	-0.599246	-0.418356
Zn3	Zn	1.430543	-0.422001	-0.418366
Zn4	Zn	1.430526	-0.599172	-0.593993
O5	O	1.518360	-0.510591	-0.506187
O6	O	1.753250	-0.445472	-0.570739
O7	O	1.582793	-0.575788	-0.271336
O8	O	1.453907	-0.273647	-0.441689
O9	O	1.753163	-0.575734	-0.441671
O10	O	1.582994	-0.273605	-0.570749
O11	O	1.453793	-0.445568	-0.271344
O12	O	1.283520	-0.445496	-0.441652
O13	O	1.453878	-0.575607	-0.741019
O14	O	1.283507	-0.575662	-0.570684
O15	O	1.582977	-0.445400	-0.741047
O16	O	1.582776	-0.747583	-0.441634
O17	O	1.453763	-0.747529	-0.570674
C18	C	1.245393	-0.510578	-0.506166
C19	C	1.128616	-0.510598	-0.506182
C20	C	1.073775	-0.578479	-0.573263
C21	C	0.964051	-0.578483	-0.573284
C22	C	0.964019	-0.442722	-0.439133
C23	C	1.073741	-0.442714	-0.439118
C24	C	1.518283	-0.786021	-0.506172
C25	C	1.518347	-0.903851	-0.506201
C26	C	1.437519	-1.071424	-0.587630
C27	C	1.437106	-0.948865	-0.587368
C28	C	1.488371	-0.948453	-0.395479
C29	C	1.487878	-1.071052	-0.395973
C30	C	1.629644	-1.070935	-0.534596
C31	C	1.628962	-0.948328	-0.537017
C32	C	1.792393	-0.510605	-0.506208
C33	C	1.909170	-0.510610	-0.506217
C34	C	1.518439	-0.510489	-0.780220
C35	C	1.518472	-0.510446	-0.896997
C36	C	1.518466	-0.234086	-0.506224
C37	C	1.518511	-0.116255	-0.506241
C38	C	1.585699	-0.442636	-0.951875
C39	C	1.585717	-0.442590	-1.061599
C40	C	1.451278	-0.578173	-1.061557
C41	C	1.451255	-0.578213	-0.951835
C42	C	1.518342	-0.510616	-0.233219
C43	C	1.518512	-0.510360	-0.116443
H44	H	0.919326	-0.387455	-0.384531
C45	C	1.565522	-0.909068	-0.311309
H46	H	1.545951	-0.936976	-0.244983
H47	H	1.563846	-0.834014	-0.308692
H48	H	1.634370	-0.931934	-0.328319
C49	C	1.134135	-0.653137	-0.647039
H50	H	1.085754	-0.693557	-0.687000
H51	H	1.176907	-0.699277	-0.606771
H52	H	1.176968	-0.612628	-0.692882
C53	C	1.659515	-0.908927	-0.647087
H54	H	1.605096	-0.865547	-0.674155
H55	H	1.669779	-0.967802	-0.692144
H56	H	1.722514	-0.869098	-0.642860
H57	H	1.354717	-0.919634	-0.568583
H58	H	1.692482	-0.917680	-0.482054
C59	C	1.711137	-1.109992	-0.454447
H60	H	1.677658	-1.153720	-0.403955
H61	H	1.742090	-1.050972	-0.420362
H62	H	1.763922	-1.149374	-0.489556
H63	H	0.919404	-0.633756	-0.627910
C64	C	1.377303	-0.652805	-0.891460
H65	H	1.386910	-0.643113	-0.818260
H66	H	1.392649	-0.724029	-0.909429
H67	H	1.306719	-0.637269	-0.909432
H68	H	1.407979	-0.917846	-0.371023
C69	C	1.326912	-1.113170	-0.562591
H70	H	1.278464	-1.085712	-0.612138
H71	H	1.307201	-1.091351	-0.494138
H72	H	1.326835	-1.188213	-0.566070
H73	H	1.640459	-0.387371	-1.106276
C74	C	1.134070	-0.368043	-0.365324
H75	H	1.085676	-0.327625	-0.325375
H76	H	1.176905	-0.321901	-0.405587
H77	H	1.176838	-0.408544	-0.319470
C78	C	1.462609	-1.111146	-0.698908
H79	H	1.412838	-1.083196	-0.746847
H80	H	1.459562	-1.186194	-0.700156
H81	H	1.530908	-1.088538	-0.718381
H82	H	1.455861	-0.918705	-0.669468
H83	H	1.656988	-1.101772	-0.613962
C84	C	1.378132	-1.109823	-0.363534
H85	H	1.334267	-1.050646	-0.350183
H86	H	1.383513	-1.151702	-0.301944
H87	H	1.348897	-1.151023	-0.418479
C88	C	1.564089	-1.111127	-0.311246
H89	H	1.595207	-1.052477	-0.276672
H90	H	1.617233	-1.152794	-0.343052
H91	H	1.526826	-1.152817	-0.261726
C92	C	1.659621	-0.368082	-0.891556
H93	H	1.699653	-0.327683	-0.939959
H94	H	1.705376	-0.408644	-0.848751
H95	H	1.619429	-0.321903	-0.848759
C96	C	1.377355	-0.652720	-1.121883
H97	H	1.387003	-0.642994	-1.195089
H98	H	1.306766	-0.637211	-1.103894
H99	H	1.392708	-0.723958	-1.103890
