data_functionalizedCrystal
_audit_creation_method	'MofGen! by Chris Wilmer'
_symmetry_space_group_name_H-M	'P1'
_symmetry_Int_Tables_number	1
_symmetry_cell_setting	triclinic
loop_
_symmetry_equiv_pos_as_xyz
  x,y,z
_cell_length_a	10.489741
_cell_length_b	13.596369
_cell_length_c	14.519709
_cell_angle_alpha	89.994278
_cell_angle_beta	84.109659
_cell_angle_gamma	90.009173
loop_
_atom_site_label
_atom_site_type_symbol
_atom_site_fract_x
_atom_site_fract_y
_atom_site_fract_z
O1	O	1.692677	-0.081733	0.130116
O2	O	2.192677	0.418267	0.630116
O3	O	1.321354	-0.081748	0.142329
O4	O	1.821354	0.418252	0.642329
O5	O	1.516861	-0.081731	0.002038
O6	O	2.016861	0.418269	0.502038
O7	O	1.497170	-0.081750	0.270407
O8	O	1.997170	0.418250	0.770407
O9	O	1.516885	0.081851	0.002030
O10	O	2.016885	0.581851	0.502030
O11	O	1.321378	0.081834	0.142322
O12	O	1.821378	0.581834	0.642322
O13	O	1.692701	0.081850	0.130108
O14	O	2.192701	0.581850	0.630108
Zn15	Zn	1.507043	0.107814	0.136214
Zn16	Zn	2.007043	0.607814	0.636214
Zn17	Zn	1.507012	-0.107713	0.136224
Zn18	Zn	2.007012	0.392287	0.636224
O19	O	1.497194	0.081833	0.270400
O20	O	1.997194	0.581833	0.770400
C21	C	1.273844	0.000041	0.141403
C22	C	1.773844	0.500041	0.641403
C23	C	1.132243	0.000035	0.138643
C24	C	1.632243	0.500035	0.638643
C25	C	1.065034	0.000051	0.049380
C26	C	1.565034	0.500051	0.549380
C27	C	0.972455	-0.080605	0.091551
C28	C	1.472455	0.419395	0.591551
C29	C	0.972513	0.080675	0.091565
C30	C	1.472513	0.580675	0.591565
C31	C	1.041530	-0.080687	0.180851
C32	C	1.541530	0.419313	0.680851
C33	C	1.041597	0.080665	0.180852
C34	C	1.541597	0.580665	0.680852
C35	C	0.949046	-0.000010	0.223088
C36	C	1.449046	0.499990	0.723088
C37	C	1.515955	0.000060	-0.032331
C38	C	2.015955	0.500060	0.467669
C39	C	1.513205	0.000061	-0.134727
C40	C	2.013205	0.500061	0.365273
C41	C	1.740211	0.000058	0.131035
C42	C	2.240211	0.500058	0.631035
C43	C	1.881812	0.000057	0.133794
C44	C	2.381812	0.500057	0.633794
N45	N	1.506991	-0.254805	0.136224
N46	N	2.006991	0.245195	0.636224
C47	C	1.506995	-0.343803	0.136225
C48	C	2.006995	0.156197	0.636225
C49	C	1.507014	-0.455454	0.136223
C50	C	2.007014	0.044546	0.636223
C51	C	1.507035	-0.544445	0.136216
C52	C	2.007035	-0.044445	0.636216
C53	C	1.507052	-0.656103	0.136213
C54	C	2.007052	-0.156103	0.636213
N55	N	1.507074	0.254906	0.136206
N56	N	2.007074	0.754906	0.636206
C57	C	1.503082	0.000035	-0.509678
C58	C	2.003082	0.500035	-0.009678
C59	C	1.505893	0.000042	-0.405355
C60	C	2.005893	0.500042	0.094645
C61	C	1.508143	0.000048	-0.322206
C62	C	2.008143	0.500048	0.177794
C63	C	1.510955	0.000054	-0.217876
C64	C	2.010955	0.500054	0.282124
C65	C	1.498100	0.000039	0.304768
C66	C	1.998100	0.500039	0.804768
C67	C	1.500850	0.000032	0.407165
C68	C	2.000850	0.500032	0.907165
H69	H	1.072260	0.148853	0.218587
H70	H	1.572260	0.648853	0.718587
H71	H	0.941939	0.148864	0.053776
H72	H	1.441939	0.648864	0.553776
H73	H	0.898856	-0.000059	0.296546
H74	H	1.398856	0.499941	0.796546
H75	H	1.115488	-0.000045	-0.024000
H76	H	1.615488	0.499955	0.476000
C77	C	0.990211	-0.172499	-0.050385
C78	C	1.490211	0.327501	0.449615
C79	C	0.931089	-0.172648	0.040571
C80	C	1.431089	0.327352	0.540571
H81	H	0.964669	-0.229317	-0.081861
H82	H	1.464669	0.270683	0.418139
H83	H	1.080621	-0.172867	-0.049486
H84	H	1.580621	0.327133	0.450514
H85	H	0.965420	-0.115216	-0.081498
H86	H	1.465420	0.384784	0.418502
H87	H	0.955888	-0.229928	0.071686
H88	H	1.455888	0.270072	0.571686
H89	H	0.840659	-0.172290	0.039676
H90	H	1.340659	0.327710	0.539676
C91	C	0.974334	-0.229538	0.260601
C92	C	1.474334	0.270462	0.760601
C93	C	1.082589	-0.172849	0.231798
C94	C	1.582589	0.327151	0.731798
H95	H	0.999687	-0.286431	0.292056
H96	H	1.499687	0.213569	0.792056
H97	H	0.933227	-0.248804	0.208141
H98	H	1.433227	0.251196	0.708141
H99	H	0.916682	-0.191828	0.301154
H100	H	1.416682	0.308172	0.801154
H101	H	1.140237	-0.210557	0.191239
H102	H	1.640237	0.289443	0.691239
H103	H	1.123716	-0.153585	0.284265
H104	H	1.623716	0.346415	0.784265
