data_functionalizedCrystal
_audit_creation_method	'MofGen! by Chris Wilmer'
_symmetry_space_group_name_H-M	'P1'
_symmetry_Int_Tables_number	1
_symmetry_cell_setting	triclinic
loop_
_symmetry_equiv_pos_as_xyz
  x,y,z
_cell_length_a	10.654549
_cell_length_b	19.288865
_cell_length_c	17.766277
_cell_angle_alpha	90.011603
_cell_angle_beta	89.991091
_cell_angle_gamma	96.188417
loop_
_atom_site_label
_atom_site_type_symbol
_atom_site_fract_x
_atom_site_fract_y
_atom_site_fract_z
O1	O	1.665759	-0.097572	-0.062597
O2	O	2.165759	0.402428	0.437403
O3	O	1.300082	-0.106863	-0.062601
O4	O	1.800082	0.393137	0.437399
O5	O	1.493487	-0.001156	-0.062584
O6	O	1.993487	0.498844	0.437416
O7	O	1.472354	-0.203278	-0.062614
O8	O	1.972354	0.296722	0.437386
O9	O	1.493453	-0.001151	0.062605
O10	O	1.993453	0.498849	0.562605
O11	O	1.300048	-0.106857	0.062588
O12	O	1.800048	0.393143	0.562588
O13	O	1.665725	-0.097566	0.062592
O14	O	2.165725	0.402434	0.562592
Cu15	Cu	1.482883	-0.102211	0.074021
Cu16	Cu	1.982883	0.397789	0.574021
Cu17	Cu	1.482923	-0.102218	-0.074029
Cu18	Cu	1.982923	0.397782	0.425971
O19	O	1.472320	-0.203273	0.062575
O20	O	1.972320	0.296727	0.562575
C21	C	1.253282	-0.106177	-0.000007
C22	C	1.753282	0.393823	0.499993
C23	C	1.113882	-0.104134	-0.000008
C24	C	1.613882	0.395866	0.499992
C25	C	1.492790	0.024727	0.000013
C26	C	1.992790	0.524727	0.500013
C27	C	1.490748	0.101844	0.000019
C28	C	1.990748	0.601844	0.500019
C29	C	1.712525	-0.098252	-0.000004
C30	C	2.212525	0.401748	0.499996
C31	C	1.851924	-0.100295	-0.000008
C32	C	2.351924	0.399705	0.499992
C33	C	2.144532	0.022270	0.000002
C34	C	2.644532	0.522270	0.500002
C35	C	2.094369	0.086432	0.000011
C36	C	2.594369	0.586432	0.500011
C37	C	1.963392	0.088354	0.000015
C38	C	2.463392	0.588354	0.500015
C39	C	1.882574	0.026107	0.000007
C40	C	2.382574	0.526107	0.500007
C41	C	1.932738	-0.038055	-0.000002
C42	C	2.432738	0.461945	0.499998
C43	C	2.063719	-0.039970	-0.000004
C44	C	2.563719	0.460030	0.499996
C45	C	1.902088	-0.164457	-0.000017
C46	C	2.402088	0.335543	0.499983
C47	C	2.033064	-0.166381	-0.000016
C48	C	2.533064	0.333619	0.499984
C49	C	1.821270	-0.226704	-0.000025
C50	C	2.321270	0.273296	0.499975
C51	C	1.871433	-0.290868	-0.000029
C52	C	2.371433	0.209132	0.499971
C53	C	2.002419	-0.292788	-0.000032
C54	C	2.502419	0.207212	0.499968
C55	C	2.083228	-0.230543	-0.000025
C56	C	2.583228	0.269457	0.499975
C57	C	1.473017	-0.229156	-0.000023
C58	C	1.973017	0.270844	0.499977
C59	C	1.475058	-0.306273	-0.000035
C60	C	1.975058	0.193727	0.499965
N61	N	1.482864	-0.102206	0.178151
N62	N	1.982864	0.397794	0.678151
C63	C	1.604230	0.145796	0.000024
C64	C	2.104230	0.645796	0.500024
C65	C	1.602312	0.218256	0.000012
C66	C	2.102312	0.718256	0.500012
C67	C	1.486907	0.246760	0.000011
C68	C	1.986907	0.746760	0.500011
C69	C	1.373411	0.202799	0.000002
C70	C	1.873411	0.702799	0.500002
C71	C	1.375332	0.130341	0.000006
C72	C	1.875332	0.630341	0.500006
C73	C	1.396173	0.355645	0.043861
C74	C	1.896173	0.855645	0.543861
C75	C	1.394257	0.428102	0.043861
C76	C	1.894257	0.928102	0.543861
C77	C	1.480977	0.470245	-0.000006
C78	C	1.980977	0.970245	0.499994
C79	C	1.569635	0.439924	-0.043864
C80	C	2.069635	0.939924	0.456136
C81	C	1.571556	0.367465	-0.043859
C82	C	2.071556	0.867465	0.456141
C83	C	1.484811	0.325328	0.000005
C84	C	1.984811	0.825328	0.500005
C85	C	1.592387	0.592767	-0.000015
C86	C	2.092387	1.092767	0.499985
C87	C	1.590464	0.665227	-0.000032
C88	C	2.090464	1.165227	0.499968
C89	C	1.361560	0.649768	-0.000035
C90	C	1.861560	1.149768	0.499965
C91	C	1.363486	0.577309	-0.000026
C92	C	1.863486	1.077309	0.499974
C93	C	1.478903	0.548813	-0.000013
C94	C	1.978903	1.048813	0.499987
N95	N	1.482952	-0.102217	-0.178160
N96	N	1.982952	0.397783	0.321840
C97	C	1.568531	-0.055423	0.217545
C98	C	2.068531	0.444577	0.717545
C99	C	1.568539	-0.055419	0.296347
C100	C	2.068539	0.444581	0.796347
C101	C	1.482891	-0.102212	0.335751
C102	C	1.982891	0.397788	0.835751
C103	C	1.397208	-0.148999	0.296347
C104	C	1.897208	0.351001	0.796347
C105	C	1.397194	-0.148996	0.217547
C106	C	1.897194	0.351004	0.717547
C107	C	1.466079	-0.165389	0.460580
C108	C	1.966079	0.334611	0.960580
C109	C	1.466101	-0.165393	0.539379
C110	C	1.966101	0.334607	1.039379
C111	C	1.482924	-0.102220	0.578798
C112	C	1.982924	0.397780	1.078798
C113	C	1.499752	-0.039041	0.539408
C114	C	1.999752	0.460959	1.039408
C115	C	1.499739	-0.039039	0.460608
C116	C	1.999739	0.460961	0.960608
C117	C	1.482895	-0.102220	0.421197
C118	C	1.982895	0.397780	0.921197
C119	C	1.568604	-0.055430	0.703638
C120	C	2.068604	0.444570	1.203638
C121	C	1.568603	-0.055425	0.782441
C122	C	2.068603	0.444575	1.282441
C123	C	1.397277	-0.149011	0.782440
C124	C	1.897277	0.350989	1.282440
C125	C	1.397273	-0.149009	0.703638
C126	C	1.897273	0.350991	1.203638
C127	C	1.482943	-0.102219	0.664242
C128	C	1.982943	0.397781	1.164242
H129	H	2.251182	0.020711	0.000008
H130	H	2.751182	0.520711	0.500008
Br131	Br	2.260986	-0.233143	-0.000007
Br132	Br	2.760986	0.266857	0.499993
Br133	Br	1.761750	-0.375337	-0.000051
Br134	Br	2.261750	0.124663	0.499949
H135	H	2.160185	0.137112	0.000016
H136	H	2.660185	0.637112	0.500016
H137	H	1.327519	-0.187107	0.671561
H138	H	1.827519	0.312893	1.171561
Br139	Br	1.684810	0.008079	0.349821
Br140	Br	2.184810	0.508079	0.849821
Br141	Br	1.756333	0.277917	0.000016
Br142	Br	2.256333	0.777917	0.500016
Br143	Br	1.522564	0.046700	0.407152
Br144	Br	2.022564	0.546700	0.907152
H145	H	1.267595	0.672975	-0.000040
H146	H	1.767595	1.172975	0.499960
Br147	Br	1.684865	0.008072	0.650170
Br148	Br	2.184865	0.508072	1.150170
H149	H	2.043252	-0.345037	-0.000040
H150	H	2.543252	0.154963	0.499960
Br151	Br	1.443372	-0.251134	0.407091
Br152	Br	1.943372	0.248866	0.907091
Br153	Br	1.760866	0.107126	0.000022
Br154	Br	2.260866	0.607126	0.500022
Br155	Br	1.221309	0.070687	-0.000003
Br156	Br	1.721309	0.570687	0.499997
Br157	Br	1.443278	-0.251135	0.592828
Br158	Br	1.943278	0.248865	1.092828
Br159	Br	1.895307	0.175432	0.000024
Br160	Br	2.395307	0.675432	0.500024
Br161	Br	1.687338	0.497109	-0.103401
Br162	Br	2.187338	0.997109	0.396599
H163	H	1.327432	-0.187093	0.185471
H164	H	1.827432	0.312907	0.685471
H165	H	1.327470	-0.187097	0.328434
H166	H	1.827470	0.312903	0.828434
H167	H	1.513451	0.012400	0.571501
H168	H	2.013451	0.512400	1.071501
Br169	Br	1.704819	0.028717	-0.000009
Br170	Br	2.204819	0.528717	0.499991
H171	H	1.686366	0.569564	-0.000008
H172	H	2.186366	1.069564	0.499992
Br173	Br	1.643514	-0.224097	-0.000032
Br174	Br	2.143514	0.275903	0.499968
H175	H	1.279447	0.226011	-0.000002
H176	H	1.779447	0.726011	0.499998
Br177	Br	1.691865	0.326316	-0.103381
Br178	Br	2.191865	0.826316	0.396619
Br179	Br	1.744489	0.724879	-0.000033
Br180	Br	2.244489	1.224879	0.499967
H181	H	1.325551	0.321337	0.079586
H182	H	1.825551	0.821337	0.579586
Br183	Br	1.209467	0.517655	-0.000032
Br184	Br	1.709467	1.017655	0.499968
H185	H	1.322061	0.452783	0.079568
H186	H	1.822061	0.952783	0.579568
H187	H	1.638286	-0.017322	0.185471
H188	H	2.138286	0.482678	0.685471
Br189	Br	1.684863	0.008077	0.835910
Br190	Br	2.184863	0.508077	1.335910
Br191	Br	1.281026	-0.212508	0.835911
Br192	Br	1.781026	0.287492	1.335911
