data_functionalizedCrystal
_audit_creation_method	'MofGen! by Chris Wilmer'
_symmetry_space_group_name_H-M	'P1'
_symmetry_Int_Tables_number	1
_symmetry_cell_setting	triclinic
loop_
_symmetry_equiv_pos_as_xyz
  x,y,z
_cell_length_a	19.121102
_cell_length_b	19.120786
_cell_length_c	16.120297
_cell_angle_alpha	90.306305
_cell_angle_beta	90.563713
_cell_angle_gamma	89.915559
loop_
_atom_site_label
_atom_site_type_symbol
_atom_site_fract_x
_atom_site_fract_y
_atom_site_fract_z
Zn1	Zn	1.037352	-0.345607	-0.506327
Zn2	Zn	1.537352	0.154393	-0.006327
Zn3	Zn	1.038708	-0.456929	-0.361340
Zn4	Zn	1.538708	0.043071	0.138660
Zn5	Zn	0.926536	-0.334719	-0.361878
Zn6	Zn	1.426536	0.165281	0.138122
Zn7	Zn	0.915608	-0.457319	-0.494460
Zn8	Zn	1.415608	0.042681	0.005540
O9	O	0.979551	-0.398644	-0.431001
O10	O	1.479551	0.101356	0.068999
O11	O	1.135426	-0.364767	-0.491835
O12	O	1.635426	0.135233	0.008165
O13	O	1.028969	-0.435998	-0.245248
O14	O	1.528969	0.064002	0.254752
O15	O	0.945241	-0.238266	-0.386230
O16	O	1.445241	0.261734	0.113770
O17	O	1.136422	-0.446556	-0.385314
O18	O	1.636422	0.053444	0.114686
O19	O	1.026657	-0.246265	-0.492356
O20	O	1.526657	0.253735	0.007644
O21	O	0.946556	-0.346211	-0.245643
O22	O	1.446556	0.153789	0.254357
O23	O	0.827192	-0.346589	-0.374724
O24	O	1.327192	0.153411	0.125276
O25	O	0.926617	-0.447220	-0.612198
O26	O	1.426617	0.052780	-0.112198
O27	O	0.819163	-0.436663	-0.472132
O28	O	1.319163	0.063337	0.027868
O29	O	1.016061	-0.365145	-0.620916
O30	O	1.516061	0.134855	-0.120916
O31	O	1.018373	-0.554878	-0.373808
O32	O	1.518373	-0.054878	0.126192
O33	O	0.927932	-0.555165	-0.471611
O34	O	1.427932	-0.055165	0.028389
C35	C	0.797794	-0.390487	-0.422199
C36	C	1.297794	0.109513	0.077801
C37	C	0.720037	-0.387016	-0.418452
C38	C	1.220037	0.112984	0.081548
C39	C	0.972132	-0.580407	-0.421382
C40	C	1.472132	-0.080407	0.078618
C41	C	0.969021	-0.658170	-0.417298
C42	C	1.469021	-0.158170	0.082702
C43	C	0.679345	-0.432345	-0.467320
C44	C	1.179345	0.067655	0.032680
C45	C	0.606284	-0.429074	-0.463804
C46	C	1.106284	0.070926	0.036196
C47	C	0.573915	-0.380476	-0.411415
C48	C	1.073915	0.119524	0.088585
C49	C	0.614612	-0.335142	-0.362546
C50	C	1.114612	0.164858	0.137454
C51	C	0.687672	-0.338410	-0.366067
C52	C	1.187672	0.161590	0.133933
C53	C	0.353530	-0.368256	-0.398255
C54	C	0.853530	0.131744	0.101745
C55	C	0.280464	-0.364992	-0.394736
C56	C	0.780464	0.135008	0.105264
C57	C	0.272141	-0.458924	-0.495996
C58	C	0.772141	0.041076	0.004004
C59	C	0.345203	-0.462191	-0.499509
C60	C	0.845203	0.037809	0.000491
C61	C	0.385893	-0.416854	-0.450643
C62	C	0.885893	0.083146	0.049357
C63	C	0.499235	-0.377133	-0.407818
C64	C	0.999235	0.122867	0.092182
C65	C	0.460572	-0.420194	-0.454245
C66	C	0.960572	0.079806	0.045755
C67	C	1.009913	-0.698807	-0.470675
C68	C	1.509913	-0.198807	0.029325
C69	C	1.006987	-0.771874	-0.466839
C70	C	1.506987	-0.271874	0.033161
C71	C	0.963172	-0.804301	-0.409621
C72	C	1.463172	-0.304301	0.090379
C73	C	0.922275	-0.763658	-0.356242
C74	C	1.422275	-0.263658	0.143758
C75	C	0.925198	-0.690593	-0.360083
C76	C	1.425198	-0.190593	0.139917
C77	C	0.952225	-1.024706	-0.395262
C78	C	1.452225	-0.524706	0.104738
C79	C	0.949306	-1.097776	-0.391423
C80	C	1.449306	-0.597776	0.108577
C81	C	1.034017	-1.105987	-0.502021
C82	C	1.534017	-0.605987	-0.002021
C83	C	1.036939	-1.032920	-0.505854
C84	C	1.536939	-0.532920	-0.005854
C85	C	0.996040	-0.992283	-0.452478
C86	C	1.496040	-0.492283	0.047522
C87	C	0.960182	-0.878987	-0.405697
C88	C	1.460182	-0.378987	0.094303
C89	C	0.999027	-0.917599	-0.456407
C90	C	1.499027	-0.417599	0.043593
C91	C	1.162017	-0.406832	-0.439838
C92	C	1.662017	0.093168	0.060162
C93	C	1.239773	-0.410322	-0.443604
C94	C	1.739773	0.089678	0.056396
C95	C	0.969969	-0.407440	-0.647519
C96	C	1.469969	0.092560	-0.147519
C97	C	0.965886	-0.411189	-0.739786
C98	C	1.465886	0.088811	-0.239786
C99	C	0.987017	-0.216172	-0.440677
C100	C	1.487017	0.283828	0.059323
C101	C	0.990199	-0.138414	-0.444800
C102	C	1.490199	0.361586	0.055200
C103	C	0.958406	-0.418016	-0.908719
C104	C	1.458406	0.081984	-0.408719
C105	C	1.000842	-0.379068	-0.954153
C106	C	1.500842	0.120932	-0.454153
C107	C	0.996680	-0.382866	-1.048153
C108	C	1.496680	0.117134	-0.548153
C109	C	0.962567	-0.414218	-0.814710
C110	C	1.462567	0.085782	-0.314710
C111	C	0.989138	-0.389833	-0.215330
C112	C	1.489138	0.110167	0.284670
C113	C	0.993364	-0.385893	-0.123081
C114	C	1.493364	0.114107	0.376919
H115	H	0.705694	-0.471921	-0.509978
H116	H	1.205694	0.028079	-0.009978
H117	H	0.720802	-0.301495	-0.326278
H118	H	1.220802	0.198505	0.173722
H119	H	0.371552	-0.501766	-0.542167
H120	H	0.871552	-0.001766	-0.042167
H121	H	0.918953	-0.454212	-0.940417
H122	H	1.418953	0.045788	-0.440417
H123	H	1.040298	-0.342869	-0.922453
H124	H	1.540298	0.157131	-0.422453
C125	C	0.561527	-0.478977	-0.517506
C126	C	1.061527	0.021023	-0.017506
H127	H	0.591269	-0.508406	-0.549187
H128	H	1.091269	-0.008406	-0.049187
H129	H	0.532496	-0.452502	-0.553783
H130	H	1.032496	0.047498	-0.053783
H131	H	0.533211	-0.506835	-0.482657
H132	H	1.033211	-0.006835	0.017343
H133	H	0.588252	-0.295570	-0.319893
H134	H	1.088252	0.204430	0.180107
H135	H	0.239003	-0.495834	-0.535782
H136	H	0.739003	0.004166	-0.035782
H137	H	0.254112	-0.325410	-0.352080
H138	H	0.754112	0.174590	0.147920
C139	C	0.874082	-0.799327	-0.293302
C140	C	1.374082	-0.299327	0.206698
H141	H	0.878203	-0.848662	-0.298652
H142	H	1.378203	-0.348662	0.201348
H143	H	0.827011	-0.785777	-0.303752
H144	H	1.327011	-0.285777	0.196248
H145	H	0.887311	-0.785552	-0.238662
H146	H	1.387311	-0.285552	0.261338
C147	C	0.901111	-1.133449	-0.328480
C148	C	1.401111	-0.633449	0.171520
H149	H	0.905237	-1.182784	-0.333832
H150	H	1.405237	-0.682784	0.166168
H151	H	0.854039	-1.119903	-0.338931
H152	H	1.354039	-0.619903	0.161069
H153	H	0.914339	-1.119674	-0.273840
H154	H	1.414339	-0.619674	0.226160
H155	H	0.386651	-0.331344	-0.358458
H156	H	0.886651	0.168656	0.141542
C157	C	1.058110	-0.663140	-0.533613
C158	C	1.558110	-0.163140	-0.033613
H159	H	1.054000	-0.613805	-0.528252
H160	H	1.554000	-0.113805	-0.028252
H161	H	1.044888	-0.676912	-0.588250
H162	H	1.544888	-0.176912	-0.088250
H163	H	1.105181	-0.676694	-0.523153
H164	H	1.605181	-0.176694	-0.023153
H165	H	0.486930	-0.459760	-0.496903
H166	H	0.986930	0.040240	0.003097
H167	H	1.034699	-0.891195	-0.502996
H168	H	1.534699	-0.391195	-0.002996
C169	C	0.463630	-0.323680	-0.350188
C170	C	0.963630	0.176320	0.149812
H171	H	0.498326	-0.297147	-0.321587
H172	H	0.998326	0.202853	0.178413
H173	H	0.435633	-0.347649	-0.311185
H174	H	0.935633	0.152351	0.188815
H175	H	0.434971	-0.293256	-0.382248
H176	H	0.934971	0.206744	0.117752
H177	H	1.040291	-0.804958	-0.510298
H178	H	1.540291	-0.304958	-0.010298
C179	C	1.085148	-0.997255	-0.568780
C180	C	1.585148	-0.497255	-0.068780
H181	H	1.109083	-1.031923	-0.600021
H182	H	1.609083	-0.531923	-0.100021
H183	H	1.118190	-0.968819	-0.540016
H184	H	1.618190	-0.468819	-0.040016
H185	H	1.057911	-0.969027	-0.605133
H186	H	1.557911	-0.469027	-0.105133
H187	H	1.067314	-1.139081	-0.545478
H188	H	1.567314	-0.639081	-0.045478
C189	C	0.907247	-0.980015	-0.336540
C190	C	1.407247	-0.480015	0.163460
H191	H	0.880743	-1.009794	-0.301907
H192	H	1.380743	-0.509794	0.198093
H193	H	0.876476	-0.951449	-0.368276
H194	H	1.376476	-0.451449	0.131724
H195	H	0.936780	-0.951234	-0.303191
H196	H	1.436780	-0.451234	0.196809
H197	H	0.891898	-0.657506	-0.316619
H198	H	1.391898	-0.157506	0.183381
H199	H	0.924509	-0.905398	-0.359108
H200	H	1.424509	-0.405398	0.140892
