data_functionalizedCrystal
_audit_creation_method	'MofGen! by Chris Wilmer'
_symmetry_space_group_name_H-M	'P1'
_symmetry_Int_Tables_number	1
_symmetry_cell_setting	triclinic
loop_
_symmetry_equiv_pos_as_xyz
  x,y,z
_cell_length_a	19.077105
_cell_length_b	10.686285
_cell_length_c	19.076919
_cell_angle_alpha	88.081200
_cell_angle_beta	90.076224
_cell_angle_gamma	83.162422
loop_
_atom_site_label
_atom_site_type_symbol
_atom_site_fract_x
_atom_site_fract_y
_atom_site_fract_z
Zn1	Zn	1.085506	-0.610610	-0.415453
Zn2	Zn	1.099198	-0.813548	-0.289649
Zn3	Zn	0.971970	-0.593702	-0.293938
Zn4	Zn	0.976985	-0.812786	-0.402433
O5	O	1.033415	-0.707661	-0.350368
O6	O	1.185984	-0.644924	-0.402419
O7	O	1.085952	-0.777627	-0.192163
O8	O	0.979201	-0.419327	-0.317301
O9	O	1.196043	-0.794022	-0.309992
O10	O	1.062616	-0.431749	-0.406578
O11	O	0.992478	-0.616107	-0.195314
O12	O	0.873973	-0.615369	-0.304676
O13	O	0.987750	-0.792725	-0.502215
O14	O	0.877659	-0.776330	-0.384387
O15	O	1.067480	-0.644186	-0.511781
O16	O	1.090815	-0.990065	-0.297367
O17	O	1.001026	-0.989505	-0.380228
C18	C	0.850234	-0.693933	-0.343584
C19	C	0.771869	-0.688092	-0.340697
C20	C	0.736999	-0.769268	-0.380767
C21	C	0.663366	-0.763763	-0.378058
C22	C	0.624605	-0.677087	-0.335276
C23	C	0.659481	-0.595902	-0.295205
C24	C	0.733112	-0.601402	-0.297918
C25	C	0.404183	-0.651633	-0.322724
C26	C	0.330547	-0.646142	-0.320013
C27	C	0.334437	-0.814001	-0.402867
C28	C	0.408069	-0.819499	-0.405573
C29	C	0.442938	-0.738310	-0.365505
N30	N	0.549341	-0.671460	-0.332505
N31	N	0.518201	-0.743931	-0.368280
C32	C	1.047969	-1.035583	-0.336935
C33	C	1.054260	-1.175875	-0.331214
C34	C	1.217311	-0.721444	-0.357180
C35	C	1.295676	-0.727318	-0.360082
C36	C	1.026647	-0.720257	-0.533134
C37	C	1.023763	-0.725624	-0.611017
C38	C	1.018822	-0.378462	-0.363870
C39	C	1.012603	-0.238177	-0.369624
C40	C	1.063917	-0.650813	-0.652589
C41	C	1.061198	-0.655851	-0.725768
C42	C	1.018329	-0.735707	-0.757375
C43	C	0.978171	-0.810521	-0.715799
C44	C	0.980886	-0.805476	-0.642621
C45	C	1.005754	-0.759083	-0.975701
C46	C	1.003043	-0.764125	-1.048885
C47	C	1.086070	-0.609453	-1.058849
C48	C	1.088785	-0.604420	-0.985669
C49	C	1.048624	-0.679229	-0.944099
N50	N	1.015551	-0.740861	-0.832177
N51	N	1.051398	-0.674067	-0.869299
C52	C	1.040193	-0.695027	-0.168319
C53	C	1.043197	-0.689314	-0.090456
H54	H	0.634977	-0.829866	-0.410686
H55	H	0.768552	-0.839853	-0.415602
O56	O	0.964261	-1.173972	-0.414095
C57	C	0.926807	-1.260062	-0.448672
H58	H	0.929613	-1.351929	-0.416087
H59	H	0.869289	-1.218305	-0.455585
H60	H	0.951230	-1.279567	-0.502303
H61	H	1.123696	-0.539397	-0.959940
O62	O	1.102641	-1.240329	-0.286868
C63	C	1.150026	-1.322651	-0.325428
H64	H	1.150495	-1.286934	-0.382388
H65	H	1.205320	-1.326492	-0.302102
H66	H	1.132582	-1.421093	-0.322974
H67	H	0.943263	-0.875537	-0.741539
O68	O	1.105574	-0.573130	-0.622003
C69	C	1.140444	-0.508203	-0.674390
H70	H	1.109435	-0.505268	-0.725661
H71	H	1.144341	-0.407867	-0.657606
H72	H	1.195750	-0.558971	-0.682265
H73	H	1.093898	-0.594935	-0.759613
O74	O	0.445609	-0.903732	-0.447193
C75	C	0.399043	-0.974225	-0.481965
H76	H	0.344170	-0.918786	-0.484626
H77	H	0.418892	-0.993243	-0.537386
H78	H	0.396411	-1.067648	-0.452003
O79	O	1.125007	-0.536823	-1.099335
C80	C	1.113434	-0.558417	-1.170701
H81	H	1.060486	-0.596367	-1.176983
H82	H	1.112991	-0.466152	-1.202567
H83	H	1.157464	-0.630190	-1.190264
O84	O	0.438074	-0.572655	-0.283907
C85	C	0.475592	-0.497202	-0.328776
H86	H	0.451030	-0.491704	-0.383466
H87	H	0.473041	-0.398324	-0.307532
H88	H	0.533041	-0.540564	-0.331613
O89	O	0.961336	-0.841727	-1.079476
C90	C	0.926483	-0.906698	-1.027094
H91	H	0.923681	-0.851223	-0.976960
H92	H	0.870748	-0.917451	-1.045630
H93	H	0.956837	-1.003954	-1.016335
O94	O	0.966666	-0.831559	-0.935292
C95	C	0.919529	-0.753361	-0.894212
H96	H	0.909950	-0.655155	-0.920187
H97	H	0.867324	-0.794881	-0.889491
H98	H	0.943194	-0.746814	-0.839740
O99	O	0.300450	-0.892727	-0.441770
C100	C	0.227152	-0.869314	-0.430191
H101	H	0.213607	-0.769522	-0.410951
H102	H	0.197624	-0.879546	-0.481283
H103	H	0.210952	-0.939939	-0.388978
O104	O	0.292968	-0.561995	-0.278364
C105	C	0.314722	-0.585899	-0.208034
H106	H	0.370398	-0.638281	-0.206504
H107	H	0.314327	-0.492738	-0.180533
H108	H	0.277034	-0.646005	-0.180195
O109	O	0.621727	-0.511810	-0.253663
C110	C	0.549258	-0.524338	-0.259874
H111	H	0.542687	-0.622633	-0.278366
H112	H	0.522819	-0.509913	-0.206722
H113	H	0.523669	-0.450601	-0.299553
O114	O	0.766880	-0.522502	-0.258921
C115	C	0.716881	-0.444801	-0.220589
H116	H	0.666780	-0.492398	-0.214067
H117	H	0.739583	-0.428972	-0.166734
H118	H	0.703850	-0.350204	-0.249970
H119	H	0.948181	-0.866381	-0.608774
