data_functionalizedCrystal
_audit_creation_method	'MofGen! by Chris Wilmer'
_symmetry_space_group_name_H-M	'P1'
_symmetry_Int_Tables_number	1
_symmetry_cell_setting	triclinic
loop_
_symmetry_equiv_pos_as_xyz
  x,y,z
_cell_length_a	19.188923
_cell_length_b	19.188925
_cell_length_c	9.798715
_cell_angle_alpha	89.997209
_cell_angle_beta	90.005757
_cell_angle_gamma	96.857936
loop_
_atom_site_label
_atom_site_type_symbol
_atom_site_fract_x
_atom_site_fract_y
_atom_site_fract_z
O1	O	-0.926146	0.087140	-0.113555
O2	O	-0.426146	0.587140	0.386445
O3	O	-0.722834	0.098880	-0.113543
O4	O	-0.222834	0.598880	0.386457
O5	O	-0.830359	-0.008646	-0.113542
O6	O	-0.330359	0.491354	0.386458
O7	O	-0.818621	0.194666	-0.113557
O8	O	-0.318621	0.694666	0.386443
O9	O	-0.830351	-0.008646	0.113440
O10	O	-0.330351	0.491354	0.613440
O11	O	-0.722826	0.098880	0.113439
O12	O	-0.222826	0.598880	0.613439
O13	O	-0.926138	0.087140	0.113427
O14	O	-0.426138	0.587140	0.613427
Zn15	Zn	-0.824481	0.093010	0.149471
Zn16	Zn	-0.324481	0.593010	0.649471
Zn17	Zn	-0.824491	0.093010	-0.149587
Zn18	Zn	-0.324491	0.593010	0.350413
O19	O	-0.818613	0.194666	0.113426
O20	O	-0.318613	0.694666	0.613426
C21	C	-0.696819	0.098501	-0.000051
C22	C	-0.196819	0.598501	0.499949
C23	C	-0.619314	0.097362	-0.000046
C24	C	-0.119314	0.597362	0.499954
C25	C	-0.057542	0.152831	-0.000032
C26	C	0.442458	0.652831	0.499968
C27	C	-0.130365	0.153907	-0.000042
C28	C	0.369635	0.653907	0.499958
C29	C	-0.175301	0.090814	-0.000037
C30	C	0.324699	0.590814	0.499963
C31	C	-0.147408	0.026641	-0.000056
C32	C	0.352592	0.526641	0.499944
C33	C	-0.074586	0.025567	-0.000059
C34	C	0.425414	0.525567	0.499941
N35	N	-0.295976	0.045137	0.077228
N36	N	0.204024	0.545137	0.577228
N37	N	-0.365154	0.046162	0.077235
N38	N	0.134846	0.546162	0.577235
C39	C	-0.394710	0.094047	-0.000029
C40	C	0.105290	0.594047	0.499971
N41	N	-0.352475	0.140879	-0.077282
N42	N	0.147525	0.640879	0.422718
N43	N	-0.283291	0.139856	-0.077282
N44	N	0.216709	0.639856	0.422718
C45	C	-0.254265	0.091972	-0.000034
C46	C	0.245735	0.591972	0.499966
C47	C	-0.501558	0.159382	-0.000031
C48	C	-0.001558	0.659382	0.499969
C49	C	-0.574383	0.160456	-0.000049
C50	C	-0.074383	0.660456	0.499951
C51	C	-0.591425	0.033188	-0.000049
C52	C	-0.091425	0.533188	0.499951
C53	C	-0.518601	0.032116	-0.000045
C54	C	-0.018601	0.532116	0.499955
C55	C	-0.473672	0.095216	-0.000029
C56	C	0.026328	0.595216	0.499971
C57	C	-0.829975	-0.034657	-0.000052
C58	C	-0.329975	0.465343	0.499948
C59	C	-0.828836	-0.112162	-0.000054
C60	C	-0.328836	0.387838	0.499946
C61	C	-0.884300	-0.673933	-0.000092
C62	C	-0.384300	-0.173933	0.499908
C63	C	-0.885377	-0.601110	-0.000080
C64	C	-0.385377	-0.101110	0.499920
C65	C	-0.822285	-0.556174	-0.000077
C66	C	-0.322285	-0.056174	0.499923
C67	C	-0.758111	-0.584066	-0.000051
C68	C	-0.258111	-0.084066	0.499949
C69	C	-0.757036	-0.656888	-0.000049
C70	C	-0.257036	-0.156888	0.499951
N71	N	-0.776611	-0.435492	-0.077333
N72	N	-0.276611	0.064508	0.422667
N73	N	-0.777636	-0.366315	-0.077337
N74	N	-0.277636	0.133685	0.422663
C75	C	-0.825519	-0.336765	-0.000078
C76	C	-0.325519	0.163235	0.499922
N77	N	-0.872348	-0.379007	0.077169
N78	N	-0.372348	0.120993	0.577169
N79	N	-0.871325	-0.448191	0.077167
N80	N	-0.371325	0.051809	0.577167
C81	C	-0.823443	-0.477210	-0.000077
C82	C	-0.323443	0.022790	0.499923
C83	C	-0.890855	-0.229918	-0.000081
C84	C	-0.390855	0.270082	0.499919
C85	C	-0.891929	-0.157093	-0.000060
C86	C	-0.391929	0.342907	0.499940
C87	C	-0.764661	-0.140050	-0.000044
C88	C	-0.264661	0.359950	0.499956
C89	C	-0.763589	-0.212874	-0.000051
C90	C	-0.263589	0.287126	0.499949
C91	C	-0.826688	-0.257804	-0.000076
C92	C	-0.326688	0.242196	0.499924
C93	C	0.047847	0.087522	-0.000059
C94	C	0.547847	0.587522	0.499941
C95	C	-0.029657	0.088666	-0.000043
C96	C	0.470343	0.588666	0.499957
C97	C	-0.818996	0.220677	-0.000068
C98	C	-0.318996	0.720677	0.499932
C99	C	-0.820135	0.298182	-0.000074
C100	C	-0.320135	0.798182	0.499926
N101	N	-0.824478	0.093009	0.353571
N102	N	-0.324478	0.593009	0.853571
N103	N	-0.824499	0.093005	-0.353687
N104	N	-0.324499	0.593005	0.146313
C105	C	-0.869628	0.047666	0.421349
C106	C	-0.369628	0.547666	0.921349
C107	C	-0.869639	0.047663	0.578511
C108	C	-0.369639	0.547663	1.078511
H109	H	-0.495897	-0.020134	-0.000046
H110	H	0.004103	0.479866	0.499954
O111	O	-0.958907	-0.278386	-0.000081
O112	O	-0.458907	0.221614	0.499919
H113	H	-1.003708	-0.246758	-0.000066
H114	H	-0.503708	0.253242	0.499934
H115	H	-0.944182	-0.134392	-0.000066
H116	H	-0.444182	0.365608	0.499934
H117	H	-0.153074	0.206159	-0.000020
H118	H	0.346926	0.706159	0.499980
O119	O	-0.773297	0.144438	0.430829
O120	O	-0.273297	0.644438	0.930829
H121	H	-0.782171	0.198813	0.403464
H122	H	-0.282171	0.698813	0.903464
H123	H	-0.713290	-0.103464	-0.000030
H124	H	-0.213290	0.396536	0.499970
H125	H	-0.908271	0.008844	0.363026
H126	H	-0.408271	0.508844	0.863026
H127	H	-0.628011	-0.018183	-0.000056
H128	H	-0.128011	0.481817	0.499944
H129	H	-0.935681	-0.710511	-0.000105
H130	H	-0.435681	-0.210511	0.499895
O131	O	-0.920844	-0.003765	0.655701
O132	O	-0.420844	0.496235	1.155701
H133	H	-0.912814	0.004299	0.767029
H134	H	-0.412814	0.504299	1.267029
H135	H	-0.937630	-0.578402	-0.000094
H136	H	-0.437630	-0.078402	0.499906
H137	H	-0.597085	0.212708	-0.000051
H138	H	-0.097085	0.712708	0.499949
O139	O	-0.773285	0.144422	0.569116
O140	O	-0.273285	0.644422	1.069116
H141	H	-0.802695	0.178156	0.503983
H142	H	-0.302695	0.678156	1.003983
H143	H	-0.051883	-0.026685	-0.000069
H144	H	0.448117	0.473315	0.499931
O145	O	-0.009082	0.220886	-0.000020
O146	O	0.490918	0.720886	0.499980
H147	H	-0.018975	0.251606	-0.092535
H148	H	0.481025	0.751606	0.407465
O149	O	-0.195868	-0.041411	-0.000036
O150	O	0.304132	0.458589	0.499964
H151	H	-0.251192	-0.029886	-0.000013
H152	H	0.248808	0.470114	0.499987
H153	H	-0.704784	-0.679590	-0.000031
H154	H	-0.204784	-0.179590	0.499969
O155	O	-0.453091	0.227434	-0.000036
O156	O	0.046909	0.727434	0.499964
H157	H	-0.484719	0.272235	-0.000055
H158	H	0.015281	0.772235	0.499945
H159	H	-0.711339	-0.235577	-0.000047
H160	H	-0.211339	0.264423	0.499953
O161	O	-0.690059	-0.535606	-0.000049
O162	O	-0.190059	-0.035606	0.499951
H163	H	-0.701585	-0.480282	-0.000067
H164	H	-0.201585	0.019718	0.499933
