data_functionalizedCrystal
_audit_creation_method	'MofGen! by Chris Wilmer'
_symmetry_space_group_name_H-M	'P1'
_symmetry_Int_Tables_number	1
_symmetry_cell_setting	triclinic
loop_
_symmetry_equiv_pos_as_xyz
  x,y,z
_cell_length_a	19.805407
_cell_length_b	19.805405
_cell_length_c	17.077396
_cell_angle_alpha	89.968350
_cell_angle_beta	89.974830
_cell_angle_gamma	90.025657
loop_
_atom_site_label
_atom_site_type_symbol
_atom_site_fract_x
_atom_site_fract_y
_atom_site_fract_z
Zn1	Zn	1.034742	-0.269477	-0.443944
Zn2	Zn	1.368076	0.063857	-0.110611
Zn3	Zn	1.701409	0.397190	0.222723
Zn4	Zn	1.034655	-0.382670	-0.312671
Zn5	Zn	1.367988	-0.049336	0.020662
Zn6	Zn	1.701322	0.283997	0.353996
Zn7	Zn	0.921555	-0.269499	-0.312679
Zn8	Zn	1.254888	0.063835	0.020654
Zn9	Zn	1.588222	0.397168	0.353988
Zn10	Zn	0.921520	-0.382628	-0.443881
Zn11	Zn	1.254854	-0.049294	-0.110548
Zn12	Zn	1.588187	0.284039	0.222785
O13	O	0.978118	-0.326068	-0.378294
O14	O	1.311451	0.007265	-0.044961
O15	O	1.644785	0.340598	0.288373
O16	O	1.129447	-0.284501	-0.426553
O17	O	1.462781	0.048833	-0.093220
O18	O	1.796114	0.382166	0.240113
O19	O	1.019630	-0.367684	-0.202825
O20	O	1.352963	-0.034351	0.130508
O21	O	1.686297	0.298983	0.463842
O22	O	0.936620	-0.174779	-0.330121
O23	O	1.269954	0.158554	0.003212
O24	O	1.603287	0.491888	0.336545
O25	O	1.129383	-0.367663	-0.330107
O26	O	1.462717	-0.034330	0.003226
O27	O	1.796050	0.299004	0.336559
O28	O	1.019779	-0.174763	-0.426561
O29	O	1.353112	0.158570	-0.093228
O30	O	1.686445	0.491904	0.240105
O31	O	0.936536	-0.284538	-0.202831
O32	O	1.269869	0.048796	0.130502
O33	O	1.603203	0.382129	0.463836
O34	O	0.826834	-0.284497	-0.330061
O35	O	1.160167	0.048836	0.003273
O36	O	1.493500	0.382170	0.336606
O37	O	0.936561	-0.367591	-0.553737
O38	O	1.269895	-0.034258	-0.220403
O39	O	1.603228	0.299075	0.112930
O40	O	0.826808	-0.367612	-0.426454
O41	O	1.160142	-0.034279	-0.093121
O42	O	1.493475	0.299054	0.240212
O43	O	1.019745	-0.284460	-0.553783
O44	O	1.353078	0.048874	-0.220449
O45	O	1.686412	0.382207	0.112884
O46	O	1.019597	-0.477381	-0.330047
O47	O	1.352930	-0.144047	0.003287
O48	O	1.686263	0.189286	0.336620
O49	O	0.936477	-0.477350	-0.426446
O50	O	1.269810	-0.144016	-0.093113
O51	O	1.603144	0.189317	0.240220
C52	C	0.802262	-0.326053	-0.378252
C53	C	1.135595	0.007280	-0.044919
C54	C	1.468929	0.340614	0.288415
C55	C	0.727030	-0.326063	-0.378253
C56	C	1.060363	0.007271	-0.044919
C57	C	1.393697	0.340604	0.288414
C58	C	0.265244	-0.369428	-0.428458
C59	C	0.598577	-0.036094	-0.095124
C60	C	0.931910	0.297239	0.238209
C61	C	0.335932	-0.369427	-0.428441
C62	C	0.669265	-0.036093	-0.095108
C63	C	1.002599	0.297240	0.238226
C64	C	0.371268	-0.326085	-0.378325
C65	C	0.704602	0.007249	-0.044991
C66	C	1.037935	0.340582	0.288342
C67	C	0.335913	-0.282746	-0.328216
C68	C	0.669246	0.050588	0.005117
C69	C	1.002579	0.383921	0.338451
C70	C	0.265226	-0.282751	-0.328229
C71	C	0.598559	0.050583	0.005104
C72	C	0.931892	0.383916	0.338438
C73	C	0.620986	-0.282725	-0.328161
C74	C	0.954319	0.050608	0.005173
C75	C	1.287653	0.383942	0.338506
C76	C	0.691678	-0.282722	-0.328153
C77	C	1.025011	0.050612	0.005180
C78	C	1.358345	0.383945	0.338514
C79	C	0.691692	-0.369401	-0.428373
C80	C	1.025026	-0.036068	-0.095039
C81	C	1.358359	0.297266	0.238294
C82	C	0.621005	-0.369406	-0.428386
C83	C	0.954339	-0.036073	-0.095052
C84	C	1.287672	0.297261	0.238281
C85	C	0.585656	-0.326070	-0.378275
C86	C	0.918989	0.007264	-0.044941
C87	C	1.252322	0.340597	0.288392
C88	C	0.509007	-0.326072	-0.378292
C89	C	0.842341	0.007261	-0.044959
C90	C	1.175674	0.340594	0.288375
C91	C	0.447916	-0.326078	-0.378310
C92	C	0.781249	0.007255	-0.044977
C93	C	1.114582	0.340589	0.288356
C94	C	0.978042	-0.501924	-0.378256
C95	C	1.311375	-0.168591	-0.044923
C96	C	1.644709	0.164742	0.288411
C97	C	0.978071	-0.577156	-0.378266
C98	C	1.311405	-0.243823	-0.044933
C99	C	1.644738	0.089510	0.288401
C100	C	1.021394	-0.612494	-0.328123
C101	C	1.354727	-0.279161	0.005210
C102	C	1.688060	0.054173	0.338544
C103	C	1.021422	-0.683182	-0.328140
C104	C	1.354756	-0.349849	0.005193
C105	C	1.688089	-0.016516	0.338526
C106	C	0.978125	-0.718532	-0.378297
C107	C	1.311458	-0.385198	-0.044964
C108	C	1.644792	-0.051865	0.288369
C109	C	0.934801	-0.683189	-0.428446
C110	C	1.268134	-0.349856	-0.095112
C111	C	1.601467	-0.016522	0.238221
C112	C	0.934776	-0.612502	-0.428432
C113	C	1.268109	-0.279169	-0.095098
C114	C	1.601442	0.054165	0.238235
C115	C	0.934900	-0.968262	-0.428504
C116	C	1.268234	-0.634929	-0.095170
C117	C	1.601567	-0.301596	0.238163
C118	C	0.934927	-1.038954	-0.428512
C119	C	1.268260	-0.705621	-0.095179
C120	C	1.601594	-0.372288	0.238154
C121	C	1.021547	-1.038943	-0.328213
C122	C	1.354880	-0.705609	0.005121
C123	C	1.688214	-0.372276	0.338454
C124	C	1.021522	-0.968256	-0.328199
C125	C	1.354856	-0.634922	0.005135
C126	C	1.688189	-0.301589	0.338468
C127	C	0.978201	-0.932919	-0.378350
C128	C	1.311534	-0.599586	-0.045016
C129	C	1.644867	-0.266252	0.288317
C130	C	0.978171	-0.856271	-0.378331
C131	C	1.311504	-0.522937	-0.044998
C132	C	1.644838	-0.189604	0.288335
C133	C	0.978151	-0.795179	-0.378312
C134	C	1.311484	-0.461846	-0.044979
C135	C	1.644817	-0.128512	0.288354
C136	C	1.154661	-0.326084	-0.378336
C137	C	1.487994	0.007249	-0.045003
C138	C	1.821328	0.340583	0.288330
C139	C	1.229893	-0.326091	-0.378354
C140	C	1.563226	0.007243	-0.045021
C141	C	1.896559	0.340576	0.288312
C142	C	0.978159	-0.326018	-0.583038
C143	C	1.311492	0.007315	-0.249705
C144	C	1.644826	0.340648	0.083628
C145	C	0.978177	-0.325997	-0.670288
C146	C	1.311510	0.007336	-0.336955
C147	C	1.644843	0.340670	-0.003621
C148	C	0.978213	-0.149525	-0.378349
C149	C	1.311546	0.183808	-0.045016
C150	C	1.644880	0.517141	0.288317
C151	C	0.978253	-0.074293	-0.378373
C152	C	1.311587	0.259040	-0.045039
C153	C	1.644920	0.592373	0.288294
C154	C	1.021492	-0.282707	-0.711304
C155	C	1.354825	0.050626	-0.377970
C156	C	1.688158	0.383960	-0.044637
C157	C	1.021500	-0.282684	-0.793284
C158	C	1.354833	0.050649	-0.459951
C159	C	1.688167	0.383982	-0.126617
C160	C	0.978196	-0.325956	-0.834248
C161	C	1.311529	0.007377	-0.500914
C162	C	1.644862	0.340711	-0.167581
C163	C	0.934876	-0.369248	-0.793226
C164	C	1.268209	-0.035915	-0.459893
C165	C	1.601542	0.297419	-0.126560
C166	C	0.934865	-0.369267	-0.711247
C167	C	1.268198	-0.035933	-0.377914
C168	C	1.601531	0.297400	-0.044581
C169	C	0.934903	-0.369207	-0.964097
C170	C	1.268236	-0.035874	-0.630763
C171	C	1.601570	0.297459	-0.297430
C172	C	0.934915	-0.369190	-1.046081
C173	C	1.268248	-0.035856	-0.712748
C174	C	1.601581	0.297477	-0.379415
C175	C	1.021538	-0.282625	-1.046133
C176	C	1.354872	0.050708	-0.712800
C177	C	1.688205	0.384042	-0.379467
C178	C	1.021527	-0.282644	-0.964154
C179	C	1.354861	0.050690	-0.630821
C180	C	1.688194	0.384023	-0.297488
C181	C	0.978208	-0.325937	-0.923139
C182	C	1.311541	0.007397	-0.589805
C183	C	1.644875	0.340730	-0.256472
C184	C	0.978116	-0.326069	-0.174346
C185	C	1.311450	0.007264	0.158987
C186	C	1.644783	0.340598	0.492321
C187	C	0.978230	-0.325900	-0.087097
C188	C	1.311563	0.007434	0.246237
C189	C	1.644897	0.340767	0.579570
H190	H	0.592213	-0.247440	-0.287354
H191	H	0.925546	0.085893	0.045979
H192	H	1.258879	0.419226	0.379313
C193	C	0.887247	-0.929398	-0.483663
C194	C	1.220581	-0.596064	-0.150329
C195	C	1.553914	-0.262731	0.183004
H196	H	0.893436	-0.882236	-0.476481
H197	H	1.226769	-0.548903	-0.143148
H198	H	1.560103	-0.215569	0.190186
H199	H	0.841780	-0.941025	-0.472124
H200	H	1.175113	-0.607692	-0.138791
H201	H	1.508447	-0.274359	0.194542
H202	H	0.897137	-0.940946	-0.536420
H203	H	1.230470	-0.607612	-0.203086
H204	H	1.563804	-0.274279	0.130247
C205	C	0.374815	-0.417093	-0.483559
C206	C	0.708148	-0.083760	-0.150226
C207	C	1.041482	0.249573	0.183107
H208	H	0.343646	-0.442900	-0.513416
H209	H	0.676979	-0.109567	-0.180083
H210	H	1.010313	0.223767	0.153251
H211	H	0.402364	-0.446553	-0.453470
H212	H	0.735697	-0.113220	-0.120136
H213	H	1.069030	0.220113	0.213197
H214	H	0.402417	-0.391230	-0.517811
H215	H	0.735750	-0.057897	-0.184478
H216	H	1.069083	0.275437	0.148856
C217	C	0.887173	-0.722071	-0.483615
C218	C	1.220506	-0.388738	-0.150282
C219	C	1.553839	-0.055405	0.183051
H220	H	0.893386	-0.769232	-0.476437
H221	H	1.226719	-0.435898	-0.143103
H222	H	1.560053	-0.102565	0.190230
H223	H	0.897045	-0.710448	-0.536367
H224	H	1.230379	-0.377115	-0.203034
H225	H	1.563712	-0.043782	0.130299
H226	H	0.841696	-0.710528	-0.472064
H227	H	1.175029	-0.377195	-0.138731
H228	H	1.508362	-0.043861	0.194603
C229	C	1.069150	-0.235068	-0.838398
C230	C	1.402483	0.098265	-0.505064
C231	C	1.735817	0.431598	-0.171731
H232	H	1.094945	-0.209307	-0.802260
H233	H	1.428278	0.124026	-0.468927
H234	H	1.761612	0.457360	-0.135593
H235	H	1.043283	-0.205564	-0.870379
H236	H	1.376616	0.127769	-0.537046
H237	H	1.709949	0.461102	-0.203712
H238	H	1.098632	-0.260962	-0.870378
H239	H	1.431965	0.072371	-0.537045
H240	H	1.765299	0.405705	-0.203712
H241	H	1.056793	-0.247412	-0.930804
H242	H	1.390126	0.085921	-0.597470
H243	H	1.723460	0.419255	-0.264137
C244	C	1.069137	-0.929372	-0.273015
C245	C	1.402471	-0.596038	0.060318
C246	C	1.735804	-0.262705	0.393651
H247	H	1.062910	-0.882212	-0.280181
H248	H	1.396243	-0.548879	0.053153
H249	H	1.729577	-0.215545	0.386486
H250	H	1.114616	-0.940906	-0.284546
H251	H	1.447950	-0.607573	0.048787
H252	H	1.781283	-0.274240	0.382120
H253	H	1.059248	-0.941002	-0.220265
H254	H	1.392581	-0.607669	0.113068
H255	H	1.725914	-0.274335	0.446402
H256	H	0.720447	-0.247424	-0.287341
H257	H	1.053780	0.085909	0.045993
H258	H	1.387114	0.419242	0.379326
H259	H	0.236444	-0.247459	-0.287432
H260	H	0.569777	0.085874	0.045901
H261	H	0.903110	0.419207	0.379235
H262	H	0.899651	-0.404424	-1.079432
H263	H	1.232984	-0.071090	-0.746098
H264	H	1.566318	0.262243	-0.412765
C265	C	0.887275	-0.416851	-0.918981
C266	C	1.220608	-0.083518	-0.585648
C267	C	1.553942	0.249816	-0.252314
H268	H	0.861497	-0.442631	-0.955117
H269	H	1.194831	-0.109298	-0.621784
H270	H	1.528164	0.224035	-0.288451
H271	H	0.857786	-0.390986	-0.886985
H272	H	1.191119	-0.057653	-0.553652
H273	H	1.524453	0.275680	-0.220319
H274	H	0.913173	-0.446347	-0.887015
H275	H	1.246506	-0.113013	-0.553682
H276	H	1.579839	0.220320	-0.220348
H277	H	0.899614	-0.404478	-0.826586
H278	H	1.232948	-0.071145	-0.493252
H279	H	1.566281	0.262189	-0.159919
H280	H	1.056649	-0.583717	-0.287276
H281	H	1.389982	-0.250384	0.046057
H282	H	1.723315	0.082949	0.379390
C283	C	1.069206	-1.077812	-0.273050
C284	C	1.402540	-0.744478	0.060283
C285	C	1.735873	-0.411145	0.393616
H286	H	1.094983	-1.046634	-0.243171
H287	H	1.428316	-0.713300	0.090162
H288	H	1.761649	-0.379967	0.423496
H289	H	1.098695	-1.105344	-0.303114
H290	H	1.432029	-0.772011	0.030220
H291	H	1.765362	-0.438678	0.363553
H292	H	1.043336	-1.105428	-0.238821
H293	H	1.376670	-0.772094	0.094512
H294	H	1.710003	-0.438761	0.427846
H295	H	0.720483	-0.404689	-0.469173
H296	H	1.053816	-0.071356	-0.135840
H297	H	1.387149	0.261978	0.197493
H298	H	1.056699	-0.711951	-0.287309
H299	H	1.390033	-0.378618	0.046025
H300	H	1.723366	-0.045285	0.379358
H301	H	0.899499	-0.583731	-0.469264
H302	H	1.232832	-0.250397	-0.135931
H303	H	1.566166	0.082936	0.197403
C304	C	0.887235	-0.416902	-0.666131
C305	C	1.220568	-0.083569	-0.332797
C306	C	1.553901	0.249764	0.000536
H307	H	0.861454	-0.442680	-0.702267
H308	H	1.194788	-0.109347	-0.368933
H309	H	1.528121	0.223987	-0.035600
H310	H	0.857749	-0.391029	-0.634140
H311	H	1.191082	-0.057696	-0.300807
H312	H	1.524415	0.275637	0.032526
H313	H	0.913124	-0.446401	-0.634159
H314	H	1.246457	-0.113068	-0.300826
H315	H	1.579791	0.220266	0.032508
C316	C	0.887303	-1.077838	-0.483694
C317	C	1.220637	-0.744504	-0.150361
C318	C	1.553970	-0.411171	0.182973
H319	H	0.861504	-1.046669	-0.513567
H320	H	1.194837	-0.713336	-0.180233
H321	H	1.528171	-0.380002	0.153100
H322	H	0.857835	-1.105456	-0.453641
H323	H	1.191168	-0.772122	-0.120307
H324	H	1.524502	-0.438789	0.213026
H325	H	0.913198	-1.105370	-0.517929
H326	H	1.246531	-0.772037	-0.184595
H327	H	1.579865	-0.438703	0.148738
H328	H	1.056757	-0.247472	-0.677957
H329	H	1.390091	0.085861	-0.344624
H330	H	1.723424	0.419194	-0.011290
C331	C	1.069196	-0.235011	-1.091246
C332	C	1.402530	0.098322	-0.757913
C333	C	1.735863	0.431655	-0.424580
H334	H	1.063000	-0.241193	-1.145937
H335	H	1.396333	0.092140	-0.812604
H336	H	1.729667	0.425473	-0.479270
H337	H	1.114662	-0.244936	-1.077818
H338	H	1.447996	0.088397	-0.744485
H339	H	1.781329	0.421731	-0.411151
H340	H	1.059321	-0.189530	-1.077827
H341	H	1.392655	0.143803	-0.744493
H342	H	1.725988	0.477136	-0.411160
H343	H	0.236478	-0.404718	-0.469273
H344	H	0.569811	-0.071385	-0.135939
H345	H	0.903144	0.261948	0.197394
C346	C	0.582139	-0.417082	-0.483513
C347	C	0.915472	-0.083749	-0.150180
C348	C	1.248806	0.249585	0.183153
H349	H	0.613317	-0.442897	-0.513347
H350	H	0.946651	-0.109564	-0.180013
H351	H	1.279984	0.223770	0.153320
H352	H	0.554590	-0.391231	-0.517774
H353	H	0.887923	-0.057897	-0.184441
H354	H	1.221257	0.275436	0.148892
H355	H	0.554539	-0.446544	-0.453422
H356	H	0.887872	-0.113211	-0.120089
H357	H	1.221205	0.220122	0.213245
H358	H	0.364689	-0.247459	-0.287407
H359	H	0.698022	0.085875	0.045927
H360	H	1.031356	0.419208	0.379260
