data_functionalizedCrystal
_audit_creation_method	'MofGen! by Chris Wilmer'
_symmetry_space_group_name_H-M	'P1'
_symmetry_Int_Tables_number	1
_symmetry_cell_setting	triclinic
loop_
_symmetry_equiv_pos_as_xyz
  x,y,z
_cell_length_a	13.185408
_cell_length_b	13.339070
_cell_length_c	9.130313
_cell_angle_alpha	89.997998
_cell_angle_beta	89.998667
_cell_angle_gamma	83.801397
loop_
_atom_site_label
_atom_site_type_symbol
_atom_site_fract_x
_atom_site_fract_y
_atom_site_fract_z
O1	O	1.373293	-0.243486	-0.121698
O2	O	1.084461	-0.148749	-0.121721
O3	O	1.195729	-0.334356	-0.121708
O4	O	1.262026	-0.057878	-0.121711
O5	O	1.195717	-0.334357	0.121891
O6	O	1.084449	-0.148750	0.121878
O7	O	1.373281	-0.243487	0.121901
Cu8	Cu	1.228864	-0.196119	0.144132
Cu9	Cu	1.228878	-0.196117	-0.143952
O10	O	1.262014	-0.057880	0.121888
C11	C	1.046733	-0.139145	0.000076
C12	C	0.934328	-0.110538	0.000067
C13	C	0.895277	-0.008684	0.000062
C14	C	0.789668	0.018197	0.000075
C15	C	0.723099	-0.056774	0.000081
C16	C	0.762150	-0.158631	0.000075
C17	C	0.867770	-0.185514	0.000074
C18	C	0.695592	-0.233605	0.000092
C19	C	0.734643	-0.335461	0.000086
C20	C	0.840253	-0.362340	0.000084
C21	C	0.906821	-0.287369	0.000078
C22	C	0.589973	-0.206722	0.000093
C23	C	0.562466	-0.383552	0.000104
C24	C	0.668075	-0.410432	0.000092
C25	C	1.184524	-0.368997	0.000089
C26	C	1.151143	-0.472211	0.000080
C27	C	1.410697	-0.907668	0.000101
C28	C	1.442064	-0.810695	0.000118
C29	C	1.369336	-0.726069	0.000108
C30	C	1.265237	-0.738426	0.000083
C31	C	1.233867	-0.835408	0.000078
C32	C	1.192506	-0.653810	0.000084
C33	C	1.088406	-0.666166	0.000059
C34	C	1.057042	-0.763140	0.000053
C35	C	1.129770	-0.847766	0.000063
C36	C	1.223876	-0.556827	0.000089
C37	C	1.047045	-0.484568	0.000066
C38	C	1.015679	-0.581541	0.000049
C39	C	1.411010	-0.253091	0.000101
C40	C	1.523415	-0.281698	0.000100
C41	C	1.273219	-0.023239	0.000088
C42	C	1.306600	0.079975	0.000087
N43	N	1.228862	-0.196122	0.346754
N44	N	1.228887	-0.196123	-0.346575
C45	C	1.278162	-0.278289	0.423412
C46	C	1.278172	-0.278291	0.576749
C47	C	1.179580	-0.113951	0.576757
C48	C	1.179565	-0.113953	0.423423
H49	H	0.558188	-0.123789	0.000101
H50	H	0.508265	-0.444600	0.000042
H51	H	1.394881	-0.647111	0.000121
H52	H	1.139414	-0.047041	0.361004
H53	H	1.318315	-0.345200	0.639159
N54	N	0.944762	-0.776456	0.000037
H55	H	0.927810	-0.815079	-0.090266
H56	H	0.927871	-0.815049	0.090399
N57	N	1.126413	-0.025330	0.659449
H58	H	1.133904	-0.037794	0.768219
H59	H	1.158105	0.037815	0.632632
H60	H	0.757880	0.101128	0.000080
N61	N	1.336147	-0.543508	0.000119
H62	H	1.369349	-0.576179	-0.090178
H63	H	1.344902	-0.469218	0.000180
N64	N	0.882362	-0.472200	0.000085
H65	H	0.925569	-0.487296	-0.090216
H66	H	0.925517	-0.487226	0.090448
H67	H	1.526821	-0.800642	0.000140
H68	H	0.987824	-0.415664	0.000065
N69	N	0.903403	-0.594874	0.000023
H70	H	0.894572	-0.669149	0.000021
H71	H	0.870267	-0.562150	0.090325
H72	H	0.699886	-0.493365	0.000087
H73	H	1.469901	-0.976575	0.000121
H74	H	0.637108	-0.034882	0.000093
H75	H	0.949485	0.052346	0.000069
N76	N	1.095936	-0.952360	0.000042
H77	H	1.157806	-1.004090	0.000045
H78	H	1.053641	-0.961448	0.090344
H79	H	0.992818	-0.309250	0.000072
N80	N	1.331327	-0.366910	0.340716
H81	H	1.362558	-0.418963	0.412552
H82	H	1.280246	-0.397752	0.277111
