data_functionalizedCrystal
_audit_creation_method	'MofGen! by Chris Wilmer'
_symmetry_space_group_name_H-M	'P1'
_symmetry_Int_Tables_number	1
_symmetry_cell_setting	triclinic
loop_
_symmetry_equiv_pos_as_xyz
  x,y,z
_cell_length_a	17.038272
_cell_length_b	14.853567
_cell_length_c	16.098538
_cell_angle_alpha	87.275308
_cell_angle_beta	92.930266
_cell_angle_gamma	87.373244
loop_
_atom_site_label
_atom_site_type_symbol
_atom_site_fract_x
_atom_site_fract_y
_atom_site_fract_z
O1	O	1.041116	0.192033	0.069158
O2	O	1.541116	0.692033	0.569158
O3	O	0.813482	0.188923	0.069183
O4	O	1.313482	0.688923	0.569183
O5	O	0.933379	0.059707	0.069160
O6	O	1.433379	0.559707	0.569160
O7	O	0.921219	0.321250	0.069181
O8	O	1.421219	0.821250	0.569181
O9	O	0.926375	0.067223	-0.069352
O10	O	1.426375	0.567223	0.430648
O11	O	0.806478	0.196440	-0.069329
O12	O	1.306478	0.696440	0.430671
O13	O	1.034112	0.199550	-0.069353
O14	O	1.534112	0.699550	0.430647
Zn15	Zn	0.919183	0.199188	-0.091333
Zn16	Zn	1.419183	0.699188	0.408667
Zn17	Zn	0.928411	0.189285	0.091162
Zn18	Zn	1.428411	0.689285	0.591162
O19	O	0.914215	0.328766	-0.069331
O20	O	1.414215	0.828766	0.430669
C21	C	0.780848	0.189854	-0.000070
C22	C	1.280848	0.689854	0.499930
C23	C	0.694045	0.181417	-0.000061
C24	C	1.194045	0.681417	0.499939
C25	C	0.644033	0.258870	-0.000056
C26	C	1.144033	0.758870	0.499944
C27	C	0.562471	0.250939	-0.000068
C28	C	1.062471	0.750939	0.499932
C29	C	0.530924	0.165553	-0.000080
C30	C	1.030924	0.665553	0.499920
C31	C	0.580942	0.088095	-0.000088
C32	C	1.080942	0.588095	0.499912
C33	C	0.662502	0.096027	-0.000081
C34	C	1.162502	0.596027	0.499919
C35	C	0.285128	0.137529	-0.000104
C36	C	0.785128	0.637529	0.499896
C37	C	0.203562	0.129603	-0.000108
C38	C	0.703562	0.629603	0.499892
C39	C	0.185096	0.292447	-0.000090
C40	C	0.685096	0.792447	0.499910
C41	C	0.266659	0.300372	-0.000078
C42	C	0.766659	0.800372	0.499922
C43	C	0.316670	0.222914	-0.000091
C44	C	0.816670	0.722914	0.499909
C45	C	0.447555	0.157444	-0.000089
C46	C	0.947555	0.657444	0.499911
C47	C	0.400036	0.231024	-0.000087
C48	C	0.900036	0.731024	0.499913
C49	C	0.929326	0.029835	-0.000096
C50	C	1.429326	0.529835	0.499904
C51	C	0.927675	-0.070373	-0.000098
C52	C	1.427675	0.429627	0.499902
C53	C	1.066746	0.198619	-0.000099
C54	C	1.566746	0.698619	0.499901
C55	C	1.153550	0.207055	-0.000102
C56	C	1.653550	0.707055	0.499898
C57	C	0.918268	0.358638	-0.000073
C58	C	1.418268	0.858638	0.499927
C59	C	0.919920	0.458846	-0.000065
C60	C	1.419920	0.958846	0.499935
N61	N	0.912891	0.205947	-0.215881
N62	N	1.412891	0.705947	0.284119
C63	C	0.998120	0.877266	-0.000104
C64	C	1.498120	1.377266	0.499896
C65	C	0.855679	0.887827	-0.000088
C66	C	1.355679	1.387827	0.499912
C67	C	0.854127	0.793676	-0.000079
C68	C	1.354127	1.293676	0.499921
C69	C	0.924572	0.741316	-0.000085
C70	C	1.424572	1.241316	0.499915
C71	C	0.996570	0.783107	-0.000098
C72	C	1.496570	1.283107	0.499902
C73	C	0.782131	0.751879	-0.000075
C74	C	1.282131	1.251879	0.499925
C75	C	0.780575	0.657723	-0.000067
C76	C	1.280575	1.157723	0.499933
C77	C	0.851022	0.605360	-0.000067
C78	C	1.351022	1.105360	0.499933
C79	C	0.923022	0.647156	-0.000079
C80	C	1.423022	1.147156	0.499921
C81	C	0.993467	0.594796	-0.000084
C82	C	1.493467	1.094796	0.499916
C83	C	1.065469	0.636590	-0.000091
C84	C	1.565469	1.136590	0.499909
C85	C	1.067016	0.730744	-0.000097
C86	C	1.567016	1.230744	0.499903
C87	C	0.849475	0.511206	-0.000060
C88	C	1.349475	1.011206	0.499940
C89	C	0.991917	0.500636	-0.000078
C90	C	1.491917	1.000636	0.499922
C91	C	0.963799	0.151124	-0.259476
C92	C	1.463799	0.651124	0.240524
C93	C	0.959404	0.155861	-0.346664
C94	C	1.459404	0.655861	0.153336
C95	C	0.904106	0.215426	-0.390256
C96	C	1.404106	0.715426	0.109744
C97	C	0.853193	0.270251	-0.346655
C98	C	1.353193	0.770251	0.153345
C99	C	0.857584	0.265508	-0.259468
C100	C	1.357584	0.765508	0.240532
C101	C	0.888187	0.232602	-0.653503
C102	C	1.388187	0.732602	-0.153503
C103	C	0.883802	0.237342	-0.740695
C104	C	1.383802	0.737342	-0.240695
C105	C	0.990013	0.122951	-0.740698
C106	C	1.490013	0.622951	-0.240698
C107	C	0.994402	0.118218	-0.653510
C108	C	1.494402	0.618218	-0.153510
C109	C	0.943487	0.173039	-0.609917
C110	C	1.443487	0.673039	-0.109917
C111	C	0.899614	0.220272	-0.479376
C112	C	1.399614	0.720272	0.020624
C113	C	0.947975	0.168188	-0.520798
C114	C	1.447975	0.668188	-0.020798
N115	N	0.934709	0.182519	0.215710
N116	N	1.434709	0.682519	0.715710
H117	H	0.521754	0.314009	-0.000063
H118	H	1.021754	0.814009	0.499937
H119	H	0.325837	0.074457	-0.000115
H120	H	0.825837	0.574457	0.499885
H121	H	0.724778	0.794518	-0.000074
H122	H	1.224778	1.294518	0.499926
C123	C	1.126328	0.487563	-0.000092
C124	C	1.626328	0.987563	0.499908
C125	C	1.142901	0.579029	-0.000095
C126	C	1.642901	1.079029	0.499905
H127	H	1.174131	0.452027	-0.000089
H128	H	1.674131	0.952027	0.499911
H129	H	1.094375	0.476930	-0.048389
H130	H	1.594375	0.976930	0.451611
H131	H	1.099249	0.471700	0.048215
H132	H	1.599249	0.971700	0.548215
H133	H	1.169976	0.594894	-0.048405
H134	H	1.669976	1.094894	0.451595
H135	H	1.174867	0.589667	0.048208
H136	H	1.674867	1.089667	0.548208
C137	C	0.575169	-0.057012	0.071100
C138	C	1.075169	0.442988	0.571100
C139	C	0.546268	-0.005764	-0.000099
C140	C	1.046268	0.494236	0.499901
H141	H	0.553766	-0.114959	0.071091
H142	H	1.053766	0.385041	0.571091
H143	H	0.560440	-0.027479	0.119395
H144	H	1.060440	0.472521	0.619395
H145	H	0.630900	-0.063365	0.071091
H146	H	1.130900	0.436635	0.571091
H147	H	0.490537	0.000594	-0.000087
H148	H	0.990537	0.500594	0.499913
H149	H	0.560992	-0.035304	-0.048406
H150	H	1.060992	0.464696	0.451594
C151	C	0.756131	0.271508	-0.161436
C152	C	1.256131	0.771508	0.338564
C153	C	0.801625	0.325772	-0.211547
C154	C	1.301625	0.825772	0.288453
H155	H	0.721579	0.308714	-0.131857
H156	H	1.221579	0.808714	0.368143
H157	H	0.789692	0.235364	-0.123002
H158	H	1.289692	0.735364	0.376998
H159	H	0.726257	0.233655	-0.195470
H160	H	1.226257	0.733655	0.304530
H161	H	0.831503	0.363621	-0.177512
H162	H	1.331503	0.863621	0.322488
H163	H	0.768059	0.361932	-0.249986
H164	H	1.268059	0.861932	0.250014
H165	H	0.790852	0.477182	-0.000067
H166	H	1.290852	0.977182	0.499933
H167	H	0.703222	0.032956	-0.000085
H168	H	1.203222	0.532956	0.499915
H169	H	0.721948	0.623702	-0.000060
H170	H	1.221948	1.123702	0.499940
H171	H	1.008832	0.102624	-0.223989
H172	H	1.508832	0.602624	0.276011
H173	H	1.056742	0.911299	-0.000106
H174	H	1.556742	1.411299	0.499894
H175	H	0.177880	0.060068	-0.000116
H176	H	0.677880	0.560068	0.499884
C177	C	1.132635	0.870386	-0.000130
C178	C	1.632635	1.370386	0.499870
C179	C	1.146154	0.776687	-0.000116
C180	C	1.646154	1.276687	0.499884
H181	H	1.181491	0.898750	-0.000149
H182	H	1.681491	1.398750	0.499851
H183	H	1.106077	0.885370	0.048173
H184	H	1.606077	1.385370	0.548173
H185	H	1.101178	0.890585	-0.048431
H186	H	1.601178	1.390585	0.451569
H187	H	1.177606	0.756487	0.048189
H188	H	1.677606	1.256487	0.548189
H189	H	1.172724	0.761696	-0.048424
H190	H	1.672724	1.261696	0.451576
H191	H	0.798326	0.930465	-0.000088
H192	H	1.298326	1.430465	0.499912
C193	C	0.862011	0.364076	-0.838716
C194	C	1.362011	0.864076	-0.338716
C195	C	0.823008	0.302819	-0.788608
C196	C	1.323008	0.802819	-0.288608
H197	H	0.824481	0.404501	-0.868289
H198	H	1.324481	0.904501	-0.368289
H199	H	0.891696	0.332108	-0.877156
H200	H	1.391696	0.832108	-0.377156
H201	H	0.896298	0.397174	-0.804681
H202	H	1.396298	0.897174	-0.304681
H203	H	0.788725	0.269716	-0.822644
H204	H	1.288725	0.769716	-0.322644
H205	H	0.793309	0.334791	-0.750164
H206	H	1.293309	0.834791	-0.250164
C207	C	1.098939	0.005613	-0.662274
C208	C	1.598939	0.505613	-0.162274
C209	C	1.055184	0.052737	-0.605596
C210	C	1.555184	0.552737	-0.105596
H211	H	1.136461	-0.034814	-0.632692
H212	H	1.636461	0.465186	-0.132692
H213	H	1.125391	0.047168	-0.696266
H214	H	1.625391	0.547168	-0.196266
H215	H	1.064638	-0.027485	-0.696293
H216	H	1.564638	0.472515	-0.196293
H217	H	1.089485	0.085840	-0.571581
H218	H	1.589485	0.585840	-0.071581
H219	H	1.028731	0.011176	-0.571590
H220	H	1.528731	0.511176	-0.071590
C221	C	1.001908	0.006890	-0.838761
C222	C	1.501908	0.506890	-0.338761
C223	C	1.045968	0.062684	-0.788619
C224	C	1.545968	0.562684	-0.288619
H225	H	1.036453	-0.030323	-0.868341
H226	H	1.536453	0.469677	-0.368341
H227	H	0.968355	0.043046	-0.877195
H228	H	1.468355	0.543046	-0.377195
H229	H	0.971042	-0.029904	-0.804748
H230	H	1.471042	0.470096	-0.304748
H231	H	1.076830	0.099483	-0.822632
H232	H	1.576830	0.599483	-0.322632
H233	H	1.079534	0.026525	-0.750180
H234	H	1.579534	0.526525	-0.250180
H235	H	1.000857	0.111220	-0.382158
H236	H	1.500857	0.611220	0.117842
H237	H	0.846731	0.277241	-0.618016
H238	H	1.346731	0.777241	-0.118016
C239	C	0.484628	0.330534	0.071142
C240	C	0.984628	0.830534	0.571142
C241	C	0.434709	0.324880	-0.000068
C242	C	0.934709	0.824880	0.499932
H243	H	0.506033	0.388479	0.071157
H244	H	1.006033	0.888479	0.571157
H245	H	0.526080	0.285543	0.071128
H246	H	1.026080	0.785543	0.571128
H247	H	0.455620	0.321428	0.119434
H248	H	0.955620	0.821428	0.619434
H249	H	0.463718	0.333979	-0.048361
H250	H	0.963718	0.833979	0.451639
H251	H	0.393251	0.369884	-0.000063
H252	H	0.893251	0.869884	0.499937
H253	H	0.808163	0.318746	-0.382152
H254	H	1.308163	0.818746	0.117848
C255	C	0.969709	0.041436	-0.422809
C256	C	1.469709	0.541436	0.077191
C257	C	1.008741	0.102679	-0.472902
C258	C	1.508741	0.602679	0.027098
H259	H	1.007222	0.000989	-0.393238
H260	H	1.507222	0.500989	0.106762
H261	H	0.935411	0.008369	-0.456847
H262	H	1.435411	0.508369	0.043153
H263	H	0.940033	0.073418	-0.384360
H264	H	1.440033	0.573418	0.115640
H265	H	1.038413	0.070698	-0.511356
H266	H	1.538413	0.570698	-0.011356
H267	H	1.043053	0.135749	-0.438861
H268	H	1.543053	0.635749	0.061139
C269	C	0.728619	0.358401	0.071172
C270	C	1.228619	0.858401	0.571172
C271	C	0.678703	0.352730	-0.000038
C272	C	1.178703	0.852730	0.499962
H273	H	0.750016	0.416351	0.071182
H274	H	1.250016	0.916351	0.571182
H275	H	0.770077	0.313417	0.071164
H276	H	1.270077	0.813417	0.571164
H277	H	0.699611	0.349295	0.119464
H278	H	1.199611	0.849295	0.619464
H279	H	0.707713	0.361830	-0.048331
H280	H	1.207713	0.861830	0.451669
H281	H	0.637240	0.397727	-0.000038
H282	H	1.137240	0.897727	0.499962
H283	H	0.854590	0.268772	-0.514876
H284	H	1.354590	0.768772	-0.014876
H285	H	0.292339	0.369901	-0.000059
H286	H	0.792339	0.869901	0.499941
H287	H	1.049284	0.458010	-0.000077
H288	H	1.549284	0.958010	0.499923
H289	H	0.144369	0.355509	-0.000081
H290	H	0.644369	0.855509	0.499919
H291	H	0.421859	0.087924	-0.000122
H292	H	0.921859	0.587924	0.499878
