data_functionalizedCrystal
_audit_creation_method	'MofGen! by Chris Wilmer'
_symmetry_space_group_name_H-M	'P1'
_symmetry_Int_Tables_number	1
_symmetry_cell_setting	triclinic
loop_
_symmetry_equiv_pos_as_xyz
  x,y,z
_cell_length_a	16.959455
_cell_length_b	25.639240
_cell_length_c	16.959447
_cell_angle_alpha	89.961015
_cell_angle_beta	89.975979
_cell_angle_gamma	90.029777
loop_
_atom_site_label
_atom_site_type_symbol
_atom_site_fract_x
_atom_site_fract_y
_atom_site_fract_z
Zn1	Zn	1.208343	-0.208189	-0.446982
Zn2	Zn	1.208227	-0.295627	-0.314780
Zn3	Zn	1.076163	-0.208203	-0.314805
Zn4	Zn	1.076106	-0.295590	-0.446905
O5	O	1.142210	-0.251902	-0.380868
O6	O	1.318938	-0.219797	-0.429467
O7	O	1.190684	-0.284052	-0.204173
O8	O	1.093768	-0.135036	-0.332381
O9	O	1.318854	-0.284038	-0.332339
O10	O	1.190880	-0.135025	-0.429491
O11	O	1.093657	-0.219822	-0.204191
O12	O	0.965544	-0.219786	-0.332307
O13	O	1.093673	-0.283975	-0.557526
O14	O	0.965503	-0.283989	-0.429360
O15	O	1.190826	-0.219761	-0.557582
O16	O	1.190630	-0.368788	-0.332264
O17	O	1.093561	-0.368760	-0.429336
C18	C	0.936843	-0.251885	-0.380828
C19	C	0.848987	-0.251891	-0.380830
C20	C	1.142098	-0.387745	-0.380806
C21	C	1.142123	-0.445859	-0.380806
C22	C	0.477457	-0.285319	-0.330268
C23	C	0.477566	-0.218529	-0.431564
C24	C	0.560112	-0.218520	-0.431545
C25	C	0.601334	-0.251912	-0.380887
C26	C	0.560010	-0.285313	-0.330249
C27	C	0.601442	-0.185124	-0.482189
C28	C	0.683993	-0.185114	-0.482172
C29	C	0.725216	-0.218504	-0.431510
C30	C	0.683887	-0.251906	-0.380868
C31	C	0.725110	-0.285298	-0.330210
C32	C	0.683782	-0.318697	-0.279564
C33	C	0.601234	-0.318703	-0.279586
C34	C	0.807765	-0.218498	-0.431488
C35	C	0.807663	-0.285291	-0.330191
C36	C	1.192801	-0.806178	-0.431524
C37	C	1.192824	-0.860782	-0.431540
O38	O	1.235780	-0.888982	-0.474599
N39	N	1.142319	-0.888141	-0.380944
C40	C	1.091782	-0.860893	-0.330335
O41	O	1.048825	-0.889178	-0.287301
C42	C	1.091755	-0.806290	-0.330323
C43	C	1.142269	-0.778934	-0.380917
C44	C	1.243310	-0.778822	-0.482114
C45	C	1.243288	-0.724221	-0.482097
C46	C	1.192756	-0.696977	-0.431490
C47	C	1.142247	-0.724333	-0.380900
C48	C	1.041215	-0.779043	-0.279719
C49	C	1.041192	-0.724436	-0.279712
C50	C	1.091706	-0.697080	-0.330305
C51	C	1.091693	-0.642488	-0.330275
N52	N	1.142198	-0.615129	-0.380871
C53	C	1.192729	-0.642374	-0.431478
C54	C	1.091841	-0.975564	-0.330364
C55	C	1.091871	-1.030166	-0.330371
C56	C	1.192913	-1.030051	-0.431577
C57	C	1.192886	-0.975448	-0.431566
C58	C	1.142346	-0.948205	-0.380960
C59	C	1.192679	-0.527708	-0.431437
C60	C	1.192654	-0.473103	-0.431413
C61	C	1.091610	-0.473223	-0.330210
C62	C	1.091638	-0.527823	-0.330231
C63	C	1.142174	-0.555065	-0.380851
O64	O	1.048757	-0.614255	-0.287241
O65	O	1.235672	-0.614082	-0.474512
C66	C	1.348378	-0.251920	-0.380908
C67	C	1.436235	-0.251927	-0.380926
C68	C	1.142256	-0.251862	-0.587036
C69	C	1.142275	-0.251845	-0.674893
C70	C	1.142343	-0.115529	-0.380947
C71	C	1.142400	-0.057415	-0.380981
C72	C	1.192803	-0.285278	-0.716159
C73	C	1.091761	-0.218399	-0.716181
C74	C	1.091775	-0.218383	-0.798726
C75	C	1.142302	-0.251816	-0.839993
C76	C	1.192817	-0.285265	-0.798713
C77	C	1.041256	-0.184940	-0.840013
C78	C	1.041267	-0.184923	-0.922564
C79	C	1.091799	-0.218354	-0.963831
C80	C	1.142316	-0.251803	-0.922546
C81	C	1.192844	-0.285236	-0.963812
C82	C	1.243365	-0.318683	-0.922529
C83	C	1.243349	-0.318695	-0.839980
C84	C	1.091815	-0.218342	-1.046380
C85	C	1.192857	-0.285223	-1.046366
C86	C	1.142209	-0.251905	-0.175502
C87	C	1.142343	-0.251775	-0.087646
H88	H	0.841220	-0.312482	-0.288936
H89	H	1.050619	-0.191182	-0.682577
C90	C	0.432219	-0.181791	-0.487273
N91	N	0.398060	-0.154115	-0.529228
C92	C	0.555768	-0.355442	-0.223885
N93	N	0.521519	-0.383115	-0.181933
H94	H	0.717356	-0.345888	-0.238323
H95	H	0.443804	-0.312511	-0.289031
H96	H	0.567873	-0.157941	-0.523437
H97	H	1.284502	-0.345906	-0.956138
C98	C	1.298912	-0.355487	-0.794562
N99	N	1.340758	-0.383201	-0.760350
H100	H	1.000129	-0.157688	-0.956170
H101	H	1.233939	-0.312508	-0.682542
H102	H	1.234007	-0.312446	-1.079959
H103	H	0.717635	-0.157918	-0.523411
H104	H	1.050511	-0.550098	-0.289027
H105	H	1.284418	-0.701951	-0.523296
C106	C	0.853221	-0.181762	-0.487195
N107	N	0.887458	-0.154089	-0.529156
C108	C	0.985691	-0.148158	-0.794615
N109	N	0.943844	-0.120449	-0.760418
C110	C	1.248493	-1.060030	-0.487253
N111	N	1.290353	-1.082612	-0.529185
H112	H	1.233792	-0.450831	-0.472612
C113	C	1.036025	-0.443244	-0.274548
N114	N	0.994152	-0.420662	-0.232628
C115	C	1.248277	-0.557666	-0.487117
N116	N	1.290159	-0.580230	-0.529050
C117	C	1.036244	-0.181553	-1.091787
N118	N	0.994387	-0.153840	-1.125988
H119	H	1.284459	-0.800998	-0.523329
C120	C	1.036308	-1.060252	-0.274708
N121	N	0.994452	-1.082911	-0.232784
H122	H	1.234018	-0.953178	-0.472764
C123	C	1.036243	-0.945601	-0.274686
N124	N	0.994364	-0.923036	-0.232752
H125	H	1.000081	-0.801307	-0.238520
C126	C	0.985594	-0.694472	-0.224038
N127	N	0.943719	-0.671904	-0.182103
