data_functionalizedCrystal
_audit_creation_method	'MofGen! by Chris Wilmer'
_symmetry_space_group_name_H-M	'P1'
_symmetry_Int_Tables_number	1
_symmetry_cell_setting	triclinic
loop_
_symmetry_equiv_pos_as_xyz
  x,y,z
_cell_length_a	12.827893
_cell_length_b	21.295417
_cell_length_c	12.827885
_cell_angle_alpha	89.961900
_cell_angle_beta	89.980728
_cell_angle_gamma	90.030477
loop_
_atom_site_label
_atom_site_type_symbol
_atom_site_fract_x
_atom_site_fract_y
_atom_site_fract_z
Zn1	Zn	1.597560	-0.250579	-0.590788
Zn2	Zn	1.597408	-0.355861	-0.416023
Zn3	Zn	1.422801	-0.250610	-0.416062
Zn4	Zn	1.422740	-0.355814	-0.590723
O5	O	1.510127	-0.303216	-0.503399
O6	O	1.743776	-0.264552	-0.567616
O7	O	1.574208	-0.341932	-0.269792
O8	O	1.446072	-0.162516	-0.439283
O9	O	1.743664	-0.341902	-0.439217
O10	O	1.574467	-0.162494	-0.567654
O11	O	1.445925	-0.264604	-0.269821
O12	O	1.276557	-0.264559	-0.439220
O13	O	1.445969	-0.341822	-0.736968
O14	O	1.276512	-0.341852	-0.567543
O15	O	1.574408	-0.264506	-0.737016
O16	O	1.574149	-0.443944	-0.439154
O17	O	1.445821	-0.443910	-0.567505
C18	C	1.238617	-0.303204	-0.503379
C19	C	1.122464	-0.303214	-0.503396
C20	C	1.509990	-0.466768	-0.503341
C21	C	1.510027	-0.536736	-0.503351
C22	C	1.070685	-0.341521	-0.566796
C23	C	0.950635	-0.341532	-0.566814
C24	C	1.576907	-0.569600	-0.436587
C25	C	1.576956	-0.635342	-0.436611
C26	C	1.510107	-0.668218	-0.503387
C27	C	1.443222	-0.635347	-0.570165
C28	C	1.443183	-0.569606	-0.570147
N29	N	1.418690	-0.771484	-0.511347
N30	N	1.418731	-0.833935	-0.511358
C31	C	1.510224	-0.866293	-0.503447
N32	N	1.601676	-0.833840	-0.495504
N33	N	1.601635	-0.771383	-0.495488
C34	C	1.510143	-0.739504	-0.503415
C35	C	1.577162	-0.970442	-0.436705
C36	C	1.577213	-1.036186	-0.436736
C37	C	1.443470	-1.036189	-0.570284
C38	C	1.443429	-0.970447	-0.570259
C39	C	1.510273	-0.937577	-0.503464
C40	C	1.782697	-0.303229	-0.503420
C41	C	1.898851	-0.303234	-0.503428
C42	C	1.510198	-0.303156	-0.775969
C43	C	1.510229	-0.303130	-0.892123
C44	C	1.510293	-0.139026	-0.503480
C45	C	1.510364	-0.069058	-0.503515
C46	C	1.573791	-0.264864	-0.943931
C47	C	1.573824	-0.264837	-1.063982
C48	C	1.510117	-0.303231	-0.231889
C49	C	1.510289	-0.303079	-0.115737
H50	H	0.906106	-0.374330	-0.621090
O51	O	0.952073	-0.264193	-0.438615
C52	C	1.015132	-0.300015	-0.371040
H53	H	1.031362	-0.347753	-0.407762
H54	H	0.973088	-0.306856	-0.293545
C55	C	1.098949	-0.206781	-0.307199
C56	C	1.118891	-0.265413	-0.352306
H57	H	1.162951	-0.185437	-0.295638
H58	H	1.056463	-0.182647	-0.352722
H59	H	1.063910	-0.212491	-0.242625
H60	H	1.153917	-0.259703	-0.416884
H61	H	1.161385	-0.289546	-0.306792
H62	H	1.077918	-0.270424	-0.449134
H63	H	1.631421	-0.662105	-0.382244
O64	O	1.641946	-0.537769	-0.371682
C65	C	1.700971	-0.580878	-0.312743
H66	H	1.704586	-0.627718	-0.355560
H67	H	1.662753	-0.587927	-0.233342
C68	C	1.807747	-0.497643	-0.245189
C69	C	1.812195	-0.555171	-0.297783
H70	H	1.876354	-0.481785	-0.235957
H71	H	1.767979	-0.468599	-0.284895
H72	H	1.775895	-0.503525	-0.179028
H73	H	1.844035	-0.549287	-0.363948
H74	H	1.851971	-0.584214	-0.258088
O75	O	1.378429	-0.667349	-0.635081
C76	C	1.437913	-0.705301	-0.702654
H77	H	1.517132	-0.715125	-0.665868
H78	H	1.449339	-0.679921	-0.780100
C79	C	1.283143	-0.755703	-0.766720
C80	C	1.380439	-0.767774	-0.721535
H81	H	1.247690	-0.794239	-0.778372
H82	H	1.243067	-0.730133	-0.721199
H83	H	1.292679	-0.734552	-0.831254
H84	H	1.370901	-0.788918	-0.656997
H85	H	1.420512	-0.793349	-0.767046
H86	H	1.628182	-0.232122	-0.899409
O87	O	1.638847	-0.225730	-1.116963
C88	C	1.697894	-0.190166	-1.045524
H89	H	1.701536	-0.215925	-0.967680
H90	H	1.659679	-0.142352	-1.033976
C91	C	1.804624	-0.149473	-1.183852
C92	C	1.809104	-0.181113	-1.088245
H93	H	1.873222	-0.143885	-1.210205
H94	H	1.764840	-0.173431	-1.231983
H95	H	1.772773	-0.109631	-1.174215
H96	H	1.840942	-0.220956	-1.097885
H97	H	1.848895	-0.157161	-1.040116
H98	H	1.455871	-0.335844	-1.071189
O99	O	1.445235	-0.342212	-0.945065
C100	C	1.386149	-0.377809	-0.873585
H101	H	1.382464	-0.352086	-0.795765
H102	H	1.424357	-0.425628	-0.861997
C103	C	1.279495	-0.418439	-1.011861
C104	C	1.274962	-0.386843	-0.916283
H105	H	1.210911	-0.424014	-1.038200
H106	H	1.319305	-0.394458	-1.060020
H107	H	1.311340	-0.458285	-1.002191
H108	H	1.243130	-0.346995	-0.925957
H109	H	1.235144	-0.410817	-0.868127
O110	O	1.123774	-0.380571	-0.631689
C111	C	1.097217	-0.366915	-0.735910
H112	H	1.067176	-0.316650	-0.741372
H113	H	1.033939	-0.400726	-0.763190
C114	C	1.231168	-0.435962	-0.798821
C115	C	1.194278	-0.374224	-0.805530
H116	H	1.291037	-0.440473	-0.841767
H117	H	1.249057	-0.445164	-0.728605
H118	H	1.178426	-0.464131	-0.821552
H119	H	1.247015	-0.346057	-0.782787
H120	H	1.176400	-0.365017	-0.875744
H121	H	1.388721	-0.542847	-0.624515
H122	H	1.631594	-0.943679	-0.382320
H123	H	1.631680	-1.062942	-0.382371
H124	H	1.389045	-1.062957	-0.624660
O125	O	1.378501	-0.938590	-0.635250
C126	C	1.401305	-0.954576	-0.739430
H127	H	1.441507	-1.002285	-0.741648
H128	H	1.454986	-0.917528	-0.774667
C129	C	1.250016	-0.899042	-0.799912
C130	C	1.299385	-0.957641	-0.802636
H131	H	1.187149	-0.900930	-0.838903
H132	H	1.234655	-0.888269	-0.729724
H133	H	1.294762	-0.868175	-0.829274
H134	H	1.254646	-0.988506	-0.773263
H135	H	1.314737	-0.968420	-0.872821
