data_functionalizedCrystal
_audit_creation_method	'MofGen! by Chris Wilmer'
_symmetry_space_group_name_H-M	'P1'
_symmetry_Int_Tables_number	1
_symmetry_cell_setting	triclinic
loop_
_symmetry_equiv_pos_as_xyz
  x,y,z
_cell_length_a	6.817900
_cell_length_b	14.125369
_cell_length_c	16.255661
_cell_angle_alpha	95.868413
_cell_angle_beta	103.488922
_cell_angle_gamma	100.397648
loop_
_atom_site_label
_atom_site_type_symbol
_atom_site_fract_x
_atom_site_fract_y
_atom_site_fract_z
V1	V	-4.010926	-0.133890	-0.263536
O2	O	-4.014855	0.005634	-0.258862
O3	O	-3.947054	-0.264711	-0.261405
O4	O	-3.962690	-0.132181	-0.378624
O5	O	-3.999111	-0.127814	-0.140831
V6	V	-4.496538	-0.117159	-0.248900
O7	O	-4.267603	-0.170588	-0.295643
O8	O	-4.690058	-0.080461	-0.216794
O9	O	-4.337204	0.013662	-0.251032
O10	O	-4.610006	-0.256683	-0.253574
O11	O	-4.625750	-0.123235	-0.371605
O12	O	-4.321568	-0.118868	-0.133812
C13	C	-3.788285	-0.296592	-0.257162
C14	C	-3.817350	-0.403543	-0.256187
C15	C	-4.056172	-0.651689	-0.258007
C16	C	-3.870671	-0.599360	-0.254432
C17	C	-3.841004	-0.490397	-0.255409
C18	C	-4.085847	-0.760662	-0.257031
C19	C	-3.808229	-0.127535	-0.406686
C20	C	-3.849972	-0.127004	-0.500769
C21	C	-3.761277	-0.120657	-0.723603
C22	C	-3.908035	-0.202573	-0.792875
C23	C	-3.926474	-0.126008	-0.673020
C24	C	-3.854117	-0.043154	-0.771388
C25	C	-4.000356	-0.125041	-0.839406
C26	C	-4.072705	-0.207997	-0.741061
C27	C	-4.018734	-0.048505	-0.719559
C28	C	-4.165625	-0.130445	-0.788811
C29	C	-3.883907	-0.126565	-0.577169
C30	C	-4.042939	-0.124490	-0.935256
C31	C	-4.159313	0.045538	-0.255272
C32	C	-4.109487	0.152488	-0.256253
C33	C	-4.139370	-0.123517	-0.105746
C34	C	-4.076866	-0.124044	-0.011663
H35	H	-3.861682	-0.267710	-0.824798
O36	O	-3.707760	-0.643547	-0.249746
C37	C	-3.491736	-0.738258	-0.170229
C38	C	-3.676226	-0.688237	-0.175426
H39	H	-3.466209	-0.774420	-0.110156
H40	H	-3.347284	-0.681698	-0.167630
H41	H	-3.525230	-0.795749	-0.229100
H42	H	-3.642932	-0.630752	-0.116570
H43	H	-3.820619	-0.744855	-0.178068
O44	O	-4.182240	-0.291169	-0.724646
C45	C	-4.265603	-0.384969	-0.617005
C46	C	-4.141420	-0.290747	-0.635476
H47	H	-4.232678	-0.384650	-0.544911
H48	H	-4.218792	-0.450596	-0.647894
H49	H	-4.437409	-0.389387	-0.644543
H50	H	-3.969586	-0.286235	-0.607938
H51	H	-4.188403	-0.225165	-0.604603
O52	O	-4.219188	-0.607589	-0.262673
C53	C	-4.557716	-0.598276	-0.343718
C54	C	-4.373237	-0.648299	-0.338560
H55	H	-4.682330	-0.631184	-0.405060
H56	H	-4.504535	-0.516995	-0.343763
H57	H	-4.622912	-0.609663	-0.286108
H58	H	-4.307958	-0.636989	-0.396157
H59	H	-4.426533	-0.729562	-0.338475
O60	O	-3.556907	-0.115674	-0.689564
C61	C	-3.242831	-0.025503	-0.589930
C62	C	-3.474237	-0.031008	-0.628423
H63	H	-3.175932	0.042933	-0.540477
H64	H	-3.158903	-0.022986	-0.642925
H65	H	-3.222380	-0.092432	-0.557849
H66	H	-3.494879	0.035905	-0.660497
H67	H	-3.558052	-0.033573	-0.575394
H68	H	-4.337007	-0.134605	-0.817147
O69	O	-4.073633	0.029311	-0.681459
C70	C	-4.020016	0.204136	-0.653259
C71	C	-3.957640	0.116087	-0.696434
H72	H	-3.926298	0.274315	-0.665366
H73	H	-3.988712	0.202619	-0.581435
H74	H	-4.191351	0.200648	-0.681065
H75	H	-3.786309	0.119517	-0.668698
H76	H	-3.989094	0.117634	-0.768256
H77	H	-3.762094	0.026494	-0.785172
