data_functionalizedCrystal
_audit_creation_method	'MofGen! by Chris Wilmer'
_symmetry_space_group_name_H-M	'P1'
_symmetry_Int_Tables_number	1
_symmetry_cell_setting	triclinic
loop_
_symmetry_equiv_pos_as_xyz
  x,y,z
_cell_length_a	14.560432
_cell_length_b	14.560432
_cell_length_c	20.875641
_cell_angle_alpha	62.435720
_cell_angle_beta	90.002442
_cell_angle_gamma	60.000923
loop_
_atom_site_label
_atom_site_type_symbol
_atom_site_fract_x
_atom_site_fract_y
_atom_site_fract_z
Zr1	Zr	0.889019	0.996791	-0.081250
O2	O	0.747555	1.178023	-0.180061
O3	O	0.932386	0.808360	-0.050950
O4	O	0.939162	0.986408	-0.180045
O5	O	0.735433	1.010676	0.050856
O6	O	1.090302	0.986406	-0.180042
O7	O	0.740780	0.999976	-0.050966
O8	O	1.078182	0.667911	0.050885
O9	O	0.747553	1.329171	-0.180071
O10	O	1.063675	0.888529	-0.038036
O11	O	0.946890	0.896516	0.037950
O12	O	0.954867	1.106144	-0.114042
O13	O	0.838083	1.114131	-0.038056
Zr14	Zr	1.121544	1.013853	0.081149
Zr15	Zr	1.130071	0.996787	-0.081246
Zr16	Zr	0.880492	1.013856	0.081145
Zr17	Zr	0.889016	1.237853	-0.081266
Zr18	Zr	1.121547	0.772790	0.081165
O19	O	1.078176	1.202283	0.050849
O20	O	1.090300	1.178018	-0.180055
O21	O	0.735431	1.202288	0.050843
O22	O	1.263007	0.832620	0.179960
O23	O	1.275131	0.808355	-0.050944
O24	O	0.920262	0.832625	0.179954
O25	O	1.275129	0.999968	-0.050957
O26	O	1.071401	1.024236	0.179944
O27	O	0.920260	1.024238	0.179941
O28	O	1.269783	1.010668	0.050865
O29	O	0.939158	1.329168	-0.180068
O30	O	1.071405	0.681476	0.179967
O31	O	1.263009	0.681473	0.179970
O32	O	1.269787	0.667908	0.050888
O33	O	0.740776	1.342735	-0.050989
O34	O	0.932380	1.342733	-0.050986
O35	O	1.055695	0.904500	0.113941
O36	O	1.172479	0.896512	0.037954
O37	O	1.063672	1.114128	-0.038052
O38	O	0.946888	1.122115	0.037935
C39	C	1.005285	0.703789	-0.000030
C40	C	1.005286	0.601452	-0.000023
C41	C	0.844621	0.563999	-0.112281
C42	C	0.764299	0.689468	-0.168371
C43	C	0.764304	0.785601	-0.168349
C44	C	0.844637	0.756258	-0.112228
C45	C	0.924959	0.630789	-0.056137
C46	C	0.924948	0.534663	-0.056167
C47	C	1.085608	0.475983	0.056068
C48	C	1.085610	0.379849	0.056043
C49	C	1.165941	0.446640	0.112189
C50	C	1.246270	0.321169	0.168278
C51	C	1.246263	0.225034	0.168252
C52	C	1.165932	0.254380	0.112134
C53	C	0.703762	1.005326	-0.000056
C54	C	0.601429	1.005328	-0.000058
C55	C	0.607296	0.993553	-0.112257
C56	C	0.562152	0.987670	-0.168356
C57	C	0.466002	0.987670	-0.168354
C58	C	0.414996	0.993550	-0.112244
C59	C	0.460139	0.999433	-0.056145
C60	C	0.556290	0.999436	-0.056155
C61	C	0.454277	1.011199	0.056056
C62	C	0.550422	1.011208	0.056051
C63	C	0.403270	1.017079	0.112165
C64	C	0.448410	1.022971	0.168262
C65	C	0.544565	1.022972	0.168257
C66	C	0.595566	1.017091	0.112151
C67	C	1.306800	1.005317	-0.000045
C68	C	1.409133	1.005316	-0.000044
C69	C	1.015947	0.983975	-0.203181
C70	C	1.019567	0.976731	-0.272122
C71	C	1.005278	1.306854	-0.000071
C72	C	1.005276	1.409191	-0.000078
C73	C	0.964473	1.086917	-0.344185
C74	C	0.967889	1.080102	-0.408959
C75	C	1.026392	0.963100	-0.401670
C76	C	1.081493	0.852905	-0.329599
C77	C	1.078083	0.859721	-0.264826
C78	C	1.042687	0.930534	-0.591136
C79	C	1.046089	0.923727	-0.655916
C80	C	0.932486	1.150925	-0.735272
C81	C	0.929076	1.157730	-0.670494
C82	C	0.984182	1.047536	-0.598430
N83	N	1.029882	0.956131	-0.467879
N84	N	0.980698	1.054505	-0.532223
C85	C	0.994615	1.026668	0.203080
C86	C	0.990996	1.033913	0.272021
C87	C	1.306804	0.703785	-0.000025
C88	C	1.409138	0.601446	-0.000016
C89	C	0.994619	0.725136	0.203101
C90	C	0.991000	0.630043	0.272048
C91	C	1.296138	0.725131	0.203106
C92	C	1.394853	0.630037	0.272055
C93	C	0.714424	1.285512	-0.203207
C94	C	0.615710	1.380606	-0.272156
C95	C	0.703758	1.306859	-0.000076
C96	C	0.601424	1.409198	-0.000085
C97	C	1.015943	1.285508	-0.203202
C98	C	1.019562	1.380600	-0.272149
C99	C	1.046095	0.589555	0.344100
C100	C	1.042691	0.500220	0.408890
C101	C	0.984197	0.451367	0.401626
C102	C	0.929095	0.491864	0.329567
C103	C	0.932494	0.581205	0.264779
C104	C	1.502180	0.581211	0.264770
C105	C	1.594942	0.491873	0.329550
C106	C	1.580374	0.451356	0.401613
C107	C	1.473035	0.500192	0.408896
C108	C	1.380276	0.589535	0.344118
C109	C	0.508382	1.429444	-0.264872
C110	C	0.415620	1.518812	-0.329651
C111	C	0.430188	1.559334	-0.401714
C112	C	0.537527	1.510492	-0.408997
C113	C	0.630287	1.421132	-0.344219
C114	C	1.078066	1.429424	-0.264862
C115	C	1.081488	1.518762	-0.329639
C116	C	1.026398	1.559280	-0.401704
C117	C	0.967892	1.510446	-0.408990
C118	C	0.964478	1.421104	-0.344213
C119	C	1.295562	0.593083	-0.079344
C120	C	1.286852	0.540821	-0.119000
C121	C	1.383007	0.444666	-0.118989
C122	C	1.487881	0.400774	-0.079320
C123	C	1.496591	0.453036	-0.039664
C124	C	1.400427	0.549190	-0.039677
C125	C	1.610166	0.461404	0.039658
C126	C	1.514012	0.557554	0.039653
C127	C	1.715040	0.417512	0.079327
C128	C	1.723751	0.469768	0.118988
C129	C	1.627587	0.565928	0.118976
C130	C	1.522722	0.609816	0.079308
H131	H	0.844626	0.834541	-0.112209
Br132	Br	0.304287	1.680611	-0.489621
H133	H	0.698886	0.887765	-0.214014
H134	H	0.981438	0.378622	0.454387
Br135	Br	0.857704	1.300466	-0.833074
H136	H	0.923040	1.543450	-0.467673
Br137	Br	0.557279	1.565497	-0.506804
H138	H	0.881440	1.253006	-0.676439
H139	H	1.087566	0.467258	0.467557
H140	H	1.311666	0.297292	0.213970
H141	H	0.336713	0.993534	-0.112241
Br142	Br	0.272787	1.017065	0.112176
Br143	Br	0.379193	1.030933	0.244408
Br144	Br	1.152874	0.710177	-0.167024
Br145	Br	0.885067	1.245714	-0.354088
H146	H	1.311667	0.122874	0.213931
Br147	Br	0.775943	1.354856	-0.354120
Br148	Br	0.885062	1.354863	-0.354118
Br149	Br	0.269960	1.585077	-0.319748
Br150	Br	1.125491	0.764927	-0.646019
H151	H	0.881470	0.452076	0.323664
H152	H	1.093728	0.629321	0.350029
Br153	Br	0.857718	0.636137	0.166997
Br154	Br	1.639421	0.636858	0.172790
Br155	Br	1.165922	0.123924	0.112090
Br156	Br	1.618379	0.270296	-0.079321
Br157	Br	1.152840	1.374457	-0.167068
Br158	Br	1.117422	0.780984	-0.493342
H159	H	1.165936	0.524922	0.112206
H160	H	0.581319	1.027755	0.213942
Br161	Br	1.031042	1.680535	-0.489608
Br162	Br	1.521982	0.636185	0.166978
H163	H	1.217260	0.671348	-0.079335
Br164	Br	0.737771	0.993582	-0.112276
H165	H	0.603692	0.982879	-0.214038
Br166	Br	0.404741	0.979671	-0.244483
H167	H	1.682334	0.452119	0.323606
Br168	Br	0.726050	1.017103	0.112134
Br169	Br	0.844627	0.433537	-0.112327
H170	H	0.923028	1.169828	-0.467634
H171	H	1.655915	0.378606	0.454353
Br172	Br	1.160897	0.694114	-0.319704
Br173	Br	1.845539	0.287023	0.079336
H174	H	1.461190	0.467190	0.467579
Br175	Br	1.234619	0.655783	0.354018
H176	H	1.809142	0.434028	0.151279
H177	H	1.444419	0.688092	0.079308
H178	H	0.496499	1.396456	-0.206200
H179	H	1.201454	0.576571	-0.151299
Br180	Br	1.160888	1.585022	-0.319733
H181	H	1.375911	0.402121	-0.151285
H182	H	0.698891	0.713347	-0.214062
