data_functionalizedCrystal
_audit_creation_method	'MofGen! by Chris Wilmer'
_symmetry_space_group_name_H-M	'P1'
_symmetry_Int_Tables_number	1
_symmetry_cell_setting	triclinic
loop_
_symmetry_equiv_pos_as_xyz
  x,y,z
_cell_length_a	18.050590
_cell_length_b	21.295418
_cell_length_c	18.050582
_cell_angle_alpha	90.022598
_cell_angle_beta	89.999233
_cell_angle_gamma	90.017553
loop_
_atom_site_label
_atom_site_type_symbol
_atom_site_fract_x
_atom_site_fract_y
_atom_site_fract_z
Zn1	Zn	1.135292	-0.250831	0.419601
Zn2	Zn	1.468625	0.082502	0.752935
Zn3	Zn	1.801958	0.415835	1.086268
Zn4	Zn	1.135202	-0.356092	0.295411
Zn5	Zn	1.468535	-0.022759	0.628745
Zn6	Zn	1.801869	0.310574	0.962078
Zn7	Zn	1.011111	-0.250821	0.295460
Zn8	Zn	1.344444	0.082512	0.628793
Zn9	Zn	1.677777	0.415845	0.962126
Zn10	Zn	1.011058	-0.356047	0.419594
Zn11	Zn	1.344392	-0.022713	0.752927
Zn12	Zn	1.677725	0.310620	1.086261
O13	O	1.073166	-0.303448	0.357517
O14	O	1.406499	0.029885	0.690850
O15	O	1.739832	0.363219	1.024183
O16	O	1.239204	-0.264818	0.403110
O17	O	1.572538	0.068516	0.736444
O18	O	1.905871	0.401849	1.069777
O19	O	1.118725	-0.342143	0.191493
O20	O	1.452059	-0.008810	0.524826
O21	O	1.785392	0.324524	0.858160
O22	O	1.027643	-0.162733	0.311951
O23	O	1.360976	0.170600	0.645284
O24	O	1.694310	0.503934	0.978617
O25	O	1.239138	-0.342153	0.311868
O26	O	1.572472	-0.008819	0.645202
O27	O	1.905805	0.324514	0.978535
O28	O	1.118878	-0.162741	0.403157
O29	O	1.452211	0.170593	0.736490
O30	O	1.785545	0.503926	1.069824
O31	O	1.027556	-0.264801	0.191529
O32	O	1.360889	0.068533	0.524862
O33	O	1.694223	0.401866	0.858195
O34	O	0.907179	-0.264756	0.311943
O35	O	1.240513	0.068577	0.645277
O36	O	1.573846	0.401911	0.978610
O37	O	1.027554	-0.342075	0.523520
O38	O	1.360887	-0.008741	0.856853
O39	O	1.694220	0.324592	1.190186
O40	O	0.907141	-0.342065	0.403144
O41	O	1.240474	-0.008731	0.736478
O42	O	1.573807	0.324602	1.069811
O43	O	1.118827	-0.264773	0.523525
O44	O	1.452161	0.068560	0.856858
O45	O	1.785494	0.401893	1.190192
O46	O	1.118675	-0.444176	0.311861
O47	O	1.452008	-0.110842	0.645195
O48	O	1.785341	0.222491	0.978528
O49	O	1.027467	-0.444142	0.403098
O50	O	1.360800	-0.110809	0.736431
O51	O	1.694134	0.222525	1.069764
C52	C	0.880214	-0.303405	0.357549
C53	C	1.213547	0.029928	0.690882
C54	C	1.546880	0.363262	1.024215
C55	C	0.797668	-0.303402	0.357580
C56	C	1.131001	0.029932	0.690913
C57	C	1.464334	0.363265	1.024247
C58	C	1.073075	-0.466999	0.357489
C59	C	1.406409	-0.133666	0.690823
C60	C	1.739742	0.199667	1.024156
C61	C	1.073105	-0.536968	0.357503
C62	C	1.406438	-0.203634	0.690836
C63	C	1.739771	0.129699	1.024169
C64	C	0.598218	-0.345562	0.407057
C65	C	0.931551	-0.012229	0.740390
C66	C	1.264884	0.321104	1.073724
C67	C	0.548825	-0.288165	0.425332
C68	C	0.882158	0.045168	0.758666
C69	C	1.215491	0.378501	1.091999
C70	C	0.646537	-0.303437	0.357544
C71	C	0.979871	0.029897	0.690877
C72	C	1.313204	0.363230	1.024210
C73	C	0.548849	-0.360867	0.339268
C74	C	0.882182	-0.027533	0.672601
C75	C	1.215515	0.305800	1.005934
C76	C	0.500552	-0.303476	0.357510
C77	C	0.833886	0.029857	0.690843
C78	C	1.167219	0.363191	1.024177
C79	C	0.598232	-0.246009	0.375854
C80	C	0.931565	0.087324	0.709188
C81	C	1.264898	0.420657	1.042521
C82	C	0.598260	-0.318749	0.289758
C83	C	0.931593	0.014584	0.623091
C84	C	1.264927	0.347917	0.956425
C85	C	0.548889	-0.261313	0.308007
C86	C	0.882223	0.072021	0.641341
C87	C	1.215556	0.405354	0.974674
C88	C	0.730636	-0.303415	0.357565
C89	C	1.063969	0.029918	0.690898
C90	C	1.397302	0.363251	1.024232
C91	C	0.416456	-0.303491	0.357489
C92	C	0.749789	0.029842	0.690822
C93	C	1.083122	0.363176	1.024155
C94	C	1.120764	-1.036376	0.405103
C95	C	1.454098	-0.703043	0.738436
C96	C	1.787431	-0.369709	1.071770
C97	C	1.120743	-0.970634	0.405091
C98	C	1.454076	-0.637300	0.738425
C99	C	1.787409	-0.303967	1.071758
C100	C	1.073267	-0.937807	0.357563
C101	C	1.406600	-0.604474	0.690896
C102	C	1.739934	-0.271140	1.024230
C103	C	1.025823	-0.970728	0.310029
C104	C	1.359156	-0.637395	0.643362
C105	C	1.692490	-0.304062	0.976696
C106	C	1.025851	-1.036470	0.310037
C107	C	1.359185	-0.703136	0.643370
C108	C	1.692518	-0.369803	0.976704
N109	N	1.008219	-0.834627	0.351811
N110	N	1.341552	-0.501293	0.685144
N111	N	1.674885	-0.167960	1.018477
N112	N	1.008194	-0.772175	0.351808
N113	N	1.341527	-0.438842	0.685141
N114	N	1.674861	-0.105508	1.018474
C115	C	1.073180	-0.739732	0.357535
C116	C	1.406513	-0.406399	0.690869
C117	C	1.739846	-0.073066	1.024202
N118	N	1.138192	-0.772100	0.363280
N119	N	1.471526	-0.438767	0.696614
N120	N	1.804859	-0.105433	1.029947
N121	N	1.138216	-0.834557	0.363287
N122	N	1.471550	-0.501224	0.696621
N123	N	1.804883	-0.167891	1.029954
C124	C	1.073231	-0.866522	0.357549
C125	C	1.406564	-0.533188	0.690882
C126	C	1.739898	-0.199855	1.024215
C127	C	1.120601	-0.635533	0.405049
C128	C	1.453934	-0.302200	0.738383
C129	C	1.787267	0.031133	1.071716
C130	C	1.120580	-0.569790	0.405032
C131	C	1.453913	-0.236456	0.738366
C132	C	1.787247	0.096877	1.071699
C133	C	1.025654	-0.569886	0.309974
C134	C	1.358987	-0.236552	0.643308
C135	C	1.692321	0.096781	0.976641
C136	C	1.025681	-0.635628	0.309987
C137	C	1.359014	-0.302295	0.643321
C138	C	1.692348	0.031039	0.976654
C139	C	1.073153	-0.668448	0.357529
C140	C	1.406487	-0.335115	0.690862
C141	C	1.739820	-0.001781	1.024196
C142	C	1.266871	-0.303491	0.357485
C143	C	1.600205	0.029842	0.690818
C144	C	1.933538	0.363175	1.024152
C145	C	1.349417	-0.303510	0.357471
C146	C	1.682750	0.029823	0.690805
C147	C	2.016084	0.363157	1.024138
C148	C	1.073195	-0.303420	0.551222
C149	C	1.406528	0.029913	0.884556
C150	C	1.739861	0.363247	1.217889
C151	C	1.073207	-0.303408	0.633768
C152	C	1.406540	0.029925	0.967101
C153	C	1.739874	0.363259	1.300435
C154	C	1.073276	-0.139258	0.357560
C155	C	1.406610	0.194076	0.690893
C156	C	1.739943	0.527409	1.024227
C157	C	1.073324	-0.069289	0.357579
C158	C	1.406657	0.264044	0.690912
C159	C	1.739990	0.597377	1.024245
C160	C	1.073179	-0.303430	0.164564
C161	C	1.406513	0.029903	0.497898
C162	C	1.739846	0.363236	0.831231
C163	C	1.073311	-0.303265	0.082019
C164	C	1.406644	0.030068	0.415352
C165	C	1.739978	0.363402	0.748686
C166	C	1.023611	-0.345387	0.833216
C167	C	1.356944	-0.012054	1.166549
C168	C	1.690277	0.321280	1.499882
C169	C	1.091366	-0.360785	0.882589
C170	C	1.424699	-0.027452	1.215922
C171	C	1.758032	0.305881	1.549255
C172	C	1.073244	-0.303360	0.784899
C173	C	1.406577	0.029973	1.118232
C174	C	1.739910	0.363307	1.451565
C175	C	1.005526	-0.287944	0.882608
C176	C	1.338859	0.045389	1.215941
C177	C	1.672192	0.378722	1.549274
C178	C	1.073273	-0.303315	0.930884
C179	C	1.406607	0.030019	1.264217
C180	C	1.739940	0.363352	1.597550
C181	C	1.141035	-0.318788	0.833184
C182	C	1.474368	0.014545	1.166517
C183	C	1.807701	0.347878	1.499851
C184	C	1.055149	-0.245921	0.833199
C185	C	1.388482	0.087413	1.166532
C186	C	1.721816	0.420746	1.499865
C187	C	1.122951	-0.261297	0.882549
C188	C	1.456284	0.072036	1.215882
C189	C	1.789618	0.405370	1.549216
C190	C	1.073226	-0.303388	0.700800
C191	C	1.406559	0.029946	1.034134
C192	C	1.739893	0.363279	1.367467
C193	C	1.073299	-0.303287	1.014980
C194	C	1.406632	0.030046	1.348314
C195	C	1.739965	0.363380	1.681647
H196	H	0.619879	-0.381124	0.448976
H197	H	0.953213	-0.047791	0.782309
H198	H	1.286546	0.285542	1.115643
H199	H	1.159216	-0.542991	0.443730
H200	H	1.492549	-0.209658	0.777063
H201	H	1.825883	0.123676	1.110397
Cl202	Cl	0.515357	-0.435825	0.315422
Cl203	Cl	0.848690	-0.102492	0.648755
Cl204	Cl	1.182023	0.230841	0.982089
H205	H	1.159426	-1.063094	0.443809
H206	H	1.492759	-0.729761	0.777143
H207	H	1.826093	-0.396427	1.110476
Cl208	Cl	1.180287	-0.676796	0.464806
Cl209	Cl	1.513621	-0.343462	0.798139
Cl210	Cl	1.846954	-0.010129	1.131472
Cl211	Cl	0.631577	-0.171027	0.399800
Cl212	Cl	0.964911	0.162306	0.733134
Cl213	Cl	1.298244	0.495640	1.066467
H214	H	0.987169	-0.943998	0.271330
H215	H	1.320502	-0.610664	0.604663
H216	H	1.653835	-0.277331	0.937996
Cl217	Cl	1.180387	-0.929248	0.464841
Cl218	Cl	1.513720	-0.595915	0.798174
Cl219	Cl	1.847053	-0.262581	1.131508
Cl220	Cl	0.515298	-0.268187	0.513814
Cl221	Cl	0.848632	0.065146	0.847147
Cl222	Cl	1.181965	0.398479	1.180481
H223	H	0.527366	-0.225664	0.266121
H224	H	0.860700	0.107669	0.599455
H225	H	1.194033	0.441003	0.932788
H226	H	1.198332	-0.331863	0.811566
H227	H	1.531665	0.001470	1.144899
H228	H	1.864998	0.334803	1.478233
Cl229	Cl	0.965976	-0.528624	0.250217
Cl230	Cl	1.299309	-0.195291	0.583550
Cl231	Cl	1.632642	0.138043	0.916884
H232	H	0.981677	-0.380974	0.811555
H233	H	1.315010	-0.047641	1.144888
H234	H	1.648343	0.285692	1.478221
Cl235	Cl	0.966205	-1.077849	0.250288
Cl236	Cl	1.299539	-0.744515	0.583621
Cl237	Cl	1.632872	-0.411182	0.916955
Cl238	Cl	0.917091	-0.267841	0.916126
Cl239	Cl	1.250424	0.065492	1.249459
Cl240	Cl	1.583757	0.398825	1.582793
Cl241	Cl	0.966033	-0.677007	0.250243
Cl242	Cl	1.299366	-0.343674	0.583577
Cl243	Cl	1.632700	-0.010341	0.916910
H244	H	1.106688	-0.409341	0.904283
H245	H	1.440022	-0.076008	1.237617
H246	H	1.773355	0.257325	1.570950
H247	H	0.619990	-0.331705	0.232464
H248	H	0.953324	0.001628	0.565797
H249	H	1.286657	0.334961	0.899131
Cl250	Cl	1.187845	-0.206396	0.915788
Cl251	Cl	1.521179	0.126938	1.249122
Cl252	Cl	1.854512	0.460271	1.582455
H253	H	1.039806	-0.197379	0.811487
H254	H	1.373140	0.135955	1.144821
H255	H	1.706473	0.469288	1.478154
