data_functionalizedCrystal
_audit_creation_method	'MofGen! by Chris Wilmer'
_symmetry_space_group_name_H-M	'P1'
_symmetry_Int_Tables_number	1
_symmetry_cell_setting	triclinic
loop_
_symmetry_equiv_pos_as_xyz
  x,y,z
_cell_length_a	19.288840
_cell_length_b	10.723022
_cell_length_c	18.366186
_cell_angle_alpha	89.994974
_cell_angle_beta	89.983729
_cell_angle_gamma	83.796621
loop_
_atom_site_label
_atom_site_type_symbol
_atom_site_fract_x
_atom_site_fract_y
_atom_site_fract_z
O1	O	0.922375	0.155510	-0.060670
O2	O	0.720249	0.176541	-0.060644
O3	O	0.825975	-0.015650	-0.060655
O4	O	0.816649	0.347700	-0.060659
O5	O	0.825957	-0.015659	0.060445
O6	O	0.720231	0.176531	0.060455
O7	O	0.922357	0.155500	0.060430
Zn8	Zn	0.821291	0.166014	0.079670
Zn9	Zn	0.821315	0.166027	-0.079884
O10	O	0.816631	0.347691	0.060440
C11	C	0.694359	0.175864	-0.000091
C12	C	0.617241	0.173849	-0.000081
C13	C	0.581041	0.172885	-0.066095
C14	C	0.508582	0.170978	-0.066104
C15	C	0.472327	0.170008	-0.000096
C16	C	0.508535	0.170978	0.065926
C17	C	0.580992	0.172899	0.065933
C18	C	0.362497	0.093875	0.050467
C19	C	0.290041	0.091947	0.050457
C20	C	0.248845	0.164090	-0.000114
C21	C	0.280113	0.238146	-0.050688
C22	C	0.352571	0.240066	-0.050681
C23	C	0.393759	0.167926	-0.000096
C24	C	0.134076	0.161060	-0.066142
C25	C	0.061615	0.159160	-0.066148
C26	C	0.061570	0.159148	0.065884
C27	C	0.134029	0.161061	0.065888
C28	C	0.170278	0.162011	-0.000127
C29	C	0.825287	-0.062140	-0.000106
C30	C	0.823258	-0.200651	-0.000108
C31	C	0.762289	-0.247922	-0.000102
C32	C	0.760190	-0.391080	-0.000104
C33	C	0.948247	0.156177	-0.000125
C34	C	1.025365	0.158192	-0.000139
C35	C	0.817318	0.394181	-0.000110
C36	C	0.819348	0.532692	-0.000113
N37	N	0.821280	0.166005	0.188561
N38	N	0.821332	0.166026	-0.188775
C39	C	0.868111	0.080945	0.226656
C40	C	0.868115	0.080939	0.302884
C41	C	0.821295	0.166015	0.341014
C42	C	0.774455	0.251082	0.302909
C43	C	0.774447	0.251077	0.226682
C44	C	0.812736	0.279709	0.461773
C45	C	0.812749	0.279716	0.537998
C46	C	0.821315	0.166031	0.576121
C47	C	0.829883	0.052334	0.538010
C48	C	0.829876	0.052329	0.461783
C49	C	0.821298	0.166030	0.423668
C50	C	0.868153	0.080958	0.696872
C51	C	0.868153	0.080950	0.773101
C52	C	0.774496	0.251104	0.773124
C53	C	0.774493	0.251101	0.696896
C54	C	0.821326	0.166029	0.658775
H55	H	0.479102	0.170195	-0.119861
H56	H	0.906286	0.011677	0.804119
H57	H	0.836850	-0.040247	0.430756
N58	N	0.695209	-0.161136	-0.000090
H59	H	0.667232	-0.177036	-0.044978
H60	H	0.667277	-0.177098	0.044835
H61	H	0.736362	0.320370	0.665876
N62	N	0.888503	-0.413414	-0.000117
H63	H	0.892083	-0.360071	-0.045006
H64	H	0.892021	-0.360153	0.044806
H65	H	0.707989	-0.431788	-0.000102
N66	N	0.918660	-0.010795	0.655748
H67	H	0.948325	-0.064691	0.691452
H68	H	0.891807	-0.065833	0.624133
H69	H	0.479011	0.170192	0.119670
N70	N	0.723991	0.342856	0.814240
H71	H	0.732402	0.431383	0.800966
H72	H	0.674654	0.328595	0.800974
H73	H	0.873901	-0.266165	-0.000112
H74	H	0.610551	0.173659	-0.119849
N75	N	0.386298	0.319931	-0.105224
H76	H	0.349211	0.365343	-0.137265
H77	H	0.412098	0.383151	-0.078567
H78	H	0.836858	-0.040239	0.569047
N79	N	0.235690	0.315962	-0.105239
H80	H	0.250176	0.289004	-0.156199
H81	H	0.185059	0.303482	-0.097504
N82	N	0.803504	0.402338	0.579101
H83	H	0.798064	0.474356	0.543386
H84	H	0.760532	0.405136	0.610743
H85	H	0.805749	0.372292	0.430740
N86	N	0.723952	0.342838	0.344028
H87	H	0.731064	0.329936	0.398099
H88	H	0.732389	0.431321	0.330693
H89	H	0.163504	0.161837	0.119643
N90	N	0.723932	0.342820	0.185588
H91	H	0.694269	0.396713	0.221306
H92	H	0.750778	0.397860	0.153946
H93	H	0.906243	0.011672	0.195620
H94	H	0.163591	0.161847	-0.119895
H95	H	0.032142	0.158383	-0.119906
H96	H	0.906252	0.011670	0.333908
H97	H	0.264589	0.031640	0.091634
N98	N	0.022478	0.158092	0.137080
H99	H	-0.012858	0.234625	0.140023
H100	H	-0.002269	0.079907	0.139971
N101	N	0.406924	0.016061	0.105018
H102	H	0.400534	-0.075472	0.098269
H103	H	0.457550	0.028619	0.097322
N104	N	0.620041	0.173943	0.137136
H105	H	0.586082	0.173045	0.178952
H106	H	0.655373	0.097402	0.140017
