data_functionalizedCrystal
_audit_creation_method	'MofGen! by Chris Wilmer'
_symmetry_space_group_name_H-M	'P1'
_symmetry_Int_Tables_number	1
_symmetry_cell_setting	triclinic
loop_
_symmetry_equiv_pos_as_xyz
  x,y,z
_cell_length_a	15.995300
_cell_length_b	15.995292
_cell_length_c	13.101039
_cell_angle_alpha	93.364742
_cell_angle_beta	86.641414
_cell_angle_gamma	83.470212
loop_
_atom_site_label
_atom_site_type_symbol
_atom_site_fract_x
_atom_site_fract_y
_atom_site_fract_z
O1	O	1.115598	0.103105	-0.085245
O2	O	1.365598	0.353105	0.164755
O3	O	1.615598	0.603105	0.414755
O4	O	1.865598	0.853105	0.664755
O5	O	0.871814	0.116477	-0.085238
O6	O	1.121814	0.366477	0.164762
O7	O	1.371814	0.616477	0.414762
O8	O	1.621814	0.866477	0.664762
O9	O	1.000396	-0.012101	-0.085243
O10	O	1.250396	0.237899	0.164757
O11	O	1.500396	0.487899	0.414757
O12	O	1.750396	0.737899	0.664757
O13	O	0.987017	0.231683	-0.085240
O14	O	1.237017	0.481683	0.164760
O15	O	1.487017	0.731683	0.414760
O16	O	1.737017	0.981683	0.664760
O17	O	0.991170	-0.002861	0.085187
O18	O	1.241170	0.247139	0.335187
O19	O	1.491170	0.497139	0.585187
O20	O	1.741170	0.747139	0.835187
O21	O	0.862588	0.125718	0.085192
O22	O	1.112588	0.375718	0.335192
O23	O	1.362588	0.625718	0.585192
O24	O	1.612588	0.875718	0.835192
O25	O	1.106373	0.112346	0.085185
O26	O	1.356373	0.362346	0.335185
O27	O	1.606373	0.612346	0.585185
O28	O	1.856373	0.862346	0.835185
Zn29	Zn	0.983016	0.120499	0.112248
Zn30	Zn	1.233016	0.370499	0.362248
Zn31	Zn	1.483016	0.620499	0.612248
Zn32	Zn	1.733016	0.870499	0.862248
Zn33	Zn	0.995171	0.108324	-0.112301
Zn34	Zn	1.245171	0.358324	0.137699
Zn35	Zn	1.495171	0.608324	0.387699
Zn36	Zn	1.745171	0.858324	0.637699
O37	O	0.977791	0.240924	0.085190
O38	O	1.227791	0.490924	0.335190
O39	O	1.477791	0.740924	0.585190
O40	O	1.727791	0.990924	0.835190
C41	C	0.995238	-0.038677	-0.000031
C42	C	1.245238	0.211323	0.249969
C43	C	1.495238	0.461323	0.499969
C44	C	1.745238	0.711323	0.749969
C45	C	0.993606	-0.131630	-0.000039
C46	C	1.243606	0.118370	0.249961
C47	C	1.493606	0.368370	0.499961
C48	C	1.743606	0.618370	0.749961
C49	C	0.836006	0.120552	-0.000022
C50	C	1.086006	0.370552	0.249978
C51	C	1.336006	0.620552	0.499978
C52	C	1.586006	0.870552	0.749978
C53	C	0.743053	0.118917	-0.000020
C54	C	0.993053	0.368917	0.249980
C55	C	1.243053	0.618917	0.499980
C56	C	1.493053	0.868917	0.749980
C57	C	0.987604	-0.469366	-0.000029
C58	C	1.237604	-0.219366	0.249971
C59	C	1.487604	0.030634	0.499971
C60	C	1.737604	0.280634	0.749971
C61	C	1.080391	-0.446050	0.000349
C62	C	1.330391	-0.196050	0.250349
C63	C	1.580391	0.053950	0.500349
C64	C	1.830391	0.303950	0.750349
C65	C	1.082175	-0.349396	-0.000039
C66	C	1.332175	-0.099396	0.249961
C67	C	1.582175	0.150604	0.499961
C68	C	1.832175	0.400604	0.749961
C69	C	0.990583	-0.301811	-0.000033
C70	C	1.240583	-0.051811	0.249967
C71	C	1.490583	0.198189	0.499967
C72	C	1.740583	0.448189	0.749967
C73	C	0.949452	-0.336181	-0.097353
C74	C	1.199452	-0.086181	0.152647
C75	C	1.449452	0.163819	0.402647
C76	C	1.699452	0.413819	0.652647
C77	C	0.948339	-0.432975	-0.097430
C78	C	1.198339	-0.182975	0.152570
C79	C	1.448339	0.067025	0.402570
C80	C	1.698339	0.317025	0.652570
C81	C	0.935952	-0.422324	0.096381
C82	C	1.185952	-0.172324	0.346381
C83	C	1.435952	0.077676	0.596381
C84	C	1.685952	0.327676	0.846381
C85	C	0.939322	-0.325762	0.097663
C86	C	1.189322	-0.075762	0.347663
C87	C	1.439322	0.174238	0.597663
C88	C	1.689322	0.424238	0.847663
C89	C	0.992261	-0.207116	-0.000039
C90	C	1.242261	0.042884	0.249961
C91	C	1.492261	0.292884	0.499961
C92	C	1.742261	0.542884	0.749961
C93	C	0.985924	-0.564062	-0.000030
C94	C	1.235924	-0.314062	0.249970
C95	C	1.485924	-0.064062	0.499970
C96	C	1.735924	0.185938	0.749970
C97	C	0.572871	0.115897	-0.000028
C98	C	0.822871	0.365897	0.249972
C99	C	1.072871	0.615897	0.499972
C100	C	1.322871	0.865897	0.749972
C101	C	0.525386	0.207448	-0.000024
C102	C	0.775386	0.457448	0.249976
C103	C	1.025386	0.707448	0.499976
C104	C	1.275386	0.957448	0.749976
C105	C	0.428720	0.205757	-0.000414
C106	C	0.678720	0.455757	0.249586
C107	C	0.928720	0.705757	0.499586
C108	C	1.178720	0.955757	0.749586
C109	C	0.405316	0.112925	-0.000034
C110	C	0.655316	0.362925	0.249966
C111	C	0.905316	0.612925	0.499966
C112	C	1.155316	0.862925	0.749966
C113	C	0.451716	0.062237	-0.097167
C114	C	0.701716	0.312237	0.152833
C115	C	0.951716	0.562237	0.402833
C116	C	1.201716	0.812237	0.652833
C117	C	0.548353	0.064550	-0.097246
C118	C	0.798353	0.314550	0.152754
C119	C	1.048353	0.564550	0.402754
C120	C	1.298353	0.814550	0.652754
C121	C	0.538141	0.073703	0.096572
C122	C	0.788141	0.323703	0.346572
C123	C	1.038141	0.573703	0.596572
C124	C	1.288141	0.823703	0.846572
C125	C	0.441128	0.073780	0.097846
C126	C	0.691128	0.323780	0.347846
C127	C	0.941128	0.573780	0.597846
C128	C	1.191128	0.823780	0.847846
C129	C	0.310621	0.111240	-0.000042
C130	C	0.560621	0.361240	0.249958
C131	C	0.810621	0.611240	0.499958
C132	C	1.060621	0.861240	0.749958
C133	C	0.667567	0.117579	-0.000027
C134	C	0.917567	0.367579	0.249973
C135	C	1.167567	0.617579	0.499973
C136	C	1.417567	0.867579	0.749973
C137	C	1.142181	0.108270	-0.000033
C138	C	1.392181	0.358270	0.249967
C139	C	1.642181	0.608270	0.499967
C140	C	1.892181	0.858270	0.749967
C141	C	1.235134	0.109905	-0.000042
C142	C	1.485134	0.359905	0.249958
C143	C	1.735134	0.609905	0.499958
C144	C	1.985134	0.859905	0.749958
C145	C	0.982948	0.267499	-0.000025
C146	C	1.232948	0.517499	0.249975
C147	C	1.482948	0.767499	0.499975
C148	C	1.732948	1.017499	0.749975
C149	C	0.984581	0.360452	-0.000024
C150	C	1.234581	0.610452	0.249976
C151	C	1.484581	0.860452	0.499976
C152	C	1.734581	1.110452	0.749976
N153	N	0.974726	0.128807	0.265497
N154	N	1.224726	0.378807	0.515497
N155	N	1.474726	0.628807	0.765497
N156	N	1.724726	0.878807	1.015497
N157	N	1.003467	0.100009	-0.265550
N158	N	1.253467	0.350009	-0.015550
N159	N	1.503467	0.600009	0.234450
N160	N	1.753467	0.850009	0.484450
C161	C	0.963448	0.140119	0.474540
C162	C	1.213448	0.390119	0.724540
C163	C	1.463448	0.640119	0.974540
C164	C	1.713448	0.890119	1.224540
C165	C	1.014742	0.088700	0.525413
C166	C	1.264742	0.338700	0.775413
C167	C	1.514742	0.588700	1.025413
C168	C	1.764742	0.838700	1.275413
C169	C	1.008467	0.094994	0.641732
C170	C	1.258467	0.344994	0.891732
C171	C	1.508467	0.594994	1.141732
C172	C	1.758467	0.844994	1.391732
C173	C	0.969722	0.133826	0.358211
C174	C	1.219722	0.383826	0.608211
C175	C	1.469722	0.633826	0.858211
C176	C	1.719722	0.883826	1.108211
H177	H	1.114737	-0.326595	0.069722
H178	H	1.364737	-0.076595	0.319722
H179	H	1.614737	0.173405	0.569722
H180	H	1.864737	0.423405	0.819722
H181	H	0.914825	0.188865	0.518339
H182	H	1.164825	0.438865	0.768339
H183	H	1.414825	0.688865	1.018339
H184	H	1.664825	0.938865	1.268339
H185	H	1.122511	-0.334787	-0.069925
H186	H	1.372511	-0.084787	0.180075
H187	H	1.622511	0.165213	0.430075
H188	H	1.872511	0.415213	0.680075
H189	H	1.112385	-0.470270	0.070141
H190	H	1.362385	-0.220270	0.320141
H191	H	1.612385	0.029730	0.570141
H192	H	1.862385	0.279730	0.820141
Cl193	Cl	0.548652	0.270287	0.107049
Cl194	Cl	0.798652	0.520287	0.357049
Cl195	Cl	1.048652	0.770287	0.607049
Cl196	Cl	1.298652	1.020287	0.857049
Cl197	Cl	1.005252	-0.311288	-0.209180
Cl198	Cl	1.255252	-0.061288	0.040820
Cl199	Cl	1.505252	0.188712	0.290820
Cl200	Cl	1.755252	0.438712	0.540820
H201	H	0.570610	0.093333	-0.170128
H202	H	0.820610	0.343333	0.079872
H203	H	1.070610	0.593333	0.329872
H204	H	1.320610	0.843333	0.579872
H205	H	1.119721	-0.478837	-0.069053
H206	H	1.369721	-0.228837	0.180947
H207	H	1.619721	0.021163	0.430947
H208	H	1.869721	0.271163	0.680947
Cl209	Cl	0.598552	-0.039587	-0.103650
Cl210	Cl	0.848552	0.210413	0.146350
Cl211	Cl	1.098552	0.460413	0.396350
Cl212	Cl	1.348552	0.710413	0.646350
H213	H	0.437811	-0.006169	-0.100507
H214	H	0.687811	0.243831	0.149493
H215	H	0.937811	0.493831	0.399493
H216	H	1.187811	0.743831	0.649493
Cl217	Cl	1.004038	-0.480481	-0.209749
Cl218	Cl	1.254038	-0.230481	0.040251
Cl219	Cl	1.504038	0.019519	0.290251
Cl220	Cl	1.754038	0.269519	0.540251
Cl221	Cl	0.563625	0.126403	0.210275
Cl222	Cl	0.813625	0.376403	0.460275
Cl223	Cl	1.063625	0.626403	0.710275
Cl224	Cl	1.313625	0.876403	0.960275
H225	H	0.867604	-0.436266	0.097040
H226	H	1.117604	-0.186266	0.347040
H227	H	1.367604	0.063734	0.597040
H228	H	1.617604	0.313734	0.847040
Cl229	Cl	0.414029	0.104309	-0.209194
Cl230	Cl	0.664029	0.354309	0.040806
Cl231	Cl	0.914029	0.604309	0.290806
Cl232	Cl	1.164029	0.854309	0.540806
Cl233	Cl	1.090139	0.013756	0.457789
Cl234	Cl	1.340139	0.263756	0.707789
Cl235	Cl	1.590139	0.513756	0.957789
Cl236	Cl	1.840139	0.763756	1.207789
H237	H	0.880531	-0.447752	-0.101836
H238	H	1.130531	-0.197752	0.148164
H239	H	1.380531	0.052248	0.398164
H240	H	1.630531	0.302248	0.648164
H241	H	0.882247	-0.304497	-0.100967
H242	H	1.132247	-0.054497	0.149033
H243	H	1.382247	0.195503	0.399033
H244	H	1.632247	0.445503	0.649033
Cl245	Cl	0.561455	0.257586	-0.107403
Cl246	Cl	0.811455	0.507586	0.142597
Cl247	Cl	1.061455	0.757586	0.392597
Cl248	Cl	1.311455	1.007586	0.642597
Cl249	Cl	0.378941	0.266695	0.107057
Cl250	Cl	0.628941	0.516695	0.357057
Cl251	Cl	0.878941	0.766695	0.607057
Cl252	Cl	1.128941	1.016695	0.857057
Cl253	Cl	0.416950	-0.030222	0.107351
Cl254	Cl	0.666950	0.219778	0.357351
Cl255	Cl	0.916950	0.469778	0.607351
Cl256	Cl	1.166950	0.719778	0.857351
Cl257	Cl	0.974615	-0.459846	0.210267
Cl258	Cl	1.224615	-0.209846	0.460267
Cl259	Cl	1.474615	0.040154	0.710267
Cl260	Cl	1.724615	0.290154	0.960267
Cl261	Cl	0.587167	-0.030424	0.098029
Cl262	Cl	0.837167	0.219576	0.348029
Cl263	Cl	1.087167	0.469576	0.598029
Cl264	Cl	1.337167	0.719576	0.848029
H265	H	0.404656	0.237496	-0.070447
H266	H	0.654656	0.487496	0.179553
H267	H	0.904656	0.737496	0.429553
H268	H	1.154656	0.987496	0.679553
Cl269	Cl	0.835610	-0.274353	0.106746
Cl270	Cl	1.085610	-0.024353	0.356746
Cl271	Cl	1.335610	0.225647	0.606746
Cl272	Cl	1.585610	0.475647	0.856746
H273	H	0.969210	-0.303299	0.169659
H274	H	1.219210	-0.053299	0.419659
H275	H	1.469210	0.196701	0.669659
H276	H	1.719210	0.446701	0.919659
H277	H	0.409891	0.110846	0.169706
H278	H	0.659891	0.360846	0.419706
H279	H	0.909891	0.610846	0.669706
H280	H	1.159891	0.860846	0.919706
