data_functionalizedCrystal
_audit_creation_method	'MofGen! by Chris Wilmer'
_symmetry_space_group_name_H-M	'P1'
_symmetry_Int_Tables_number	1
_symmetry_cell_setting	triclinic
loop_
_symmetry_equiv_pos_as_xyz
  x,y,z
_cell_length_a	6.817900
_cell_length_b	11.102188
_cell_length_c	11.168136
_cell_angle_alpha	91.984111
_cell_angle_beta	108.508683
_cell_angle_gamma	108.603875
loop_
_atom_site_label
_atom_site_type_symbol
_atom_site_fract_x
_atom_site_fract_y
_atom_site_fract_z
V1	V	-4.110378	-0.175858	-0.393699
O2	O	-4.069443	0.008431	-0.386205
O3	O	-4.087154	-0.348678	-0.391007
O4	O	-4.086661	-0.173161	-0.565405
O5	O	-4.069939	-0.168300	-0.210599
V6	V	-4.587546	-0.153814	-0.371799
O7	O	-4.385578	-0.224213	-0.441739
O8	O	-4.762543	-0.105458	-0.323759
O9	O	-4.387564	0.019006	-0.374492
O10	O	-4.745878	-0.338103	-0.379294
O11	O	-4.745382	-0.161371	-0.554899
O12	O	-4.388056	-0.156510	-0.200093
C13	C	-3.937480	-0.390807	-0.384796
C14	C	-3.999943	-0.532090	-0.383739
C15	C	-3.969455	-0.580310	-0.267609
C16	C	-4.028169	-0.713061	-0.266621
C17	C	-4.147851	-0.749362	-0.497903
C18	C	-4.089152	-0.616614	-0.498890
C19	C	-4.154759	-0.876832	-0.130393
C20	C	-4.124235	-0.925054	-0.014256
C21	C	-3.934075	-0.861787	0.091571
C22	C	-3.774388	-0.750298	0.081267
C23	C	-3.804898	-0.702082	-0.034872
C24	C	-3.995102	-0.765348	-0.140696
C25	C	-3.962540	-0.452839	-0.635109
C26	C	-3.993035	-0.404620	-0.751249
C27	C	-4.183187	-0.467885	-0.857086
C28	C	-4.342852	-0.579380	-0.846793
C29	C	-4.312357	-0.627599	-0.730654
C30	C	-4.122204	-0.564324	-0.624817
C31	C	-3.936851	-0.166917	-0.607257
C32	C	-3.998909	-0.165856	-0.747627
C33	C	-4.201433	-0.171411	-0.816319
C34	C	-4.265578	-0.170314	-0.961399
C35	C	-4.200580	0.061129	-0.380699
C36	C	-4.117357	0.202410	-0.381764
C37	C	-4.201209	-0.162759	-0.158235
C38	C	-4.118387	-0.163813	-0.017863
H39	H	-3.619536	-0.698801	0.167441
C40	C	-4.216741	-0.414836	-0.984833
H41	H	-4.094427	-0.339370	-0.975811
H42	H	-4.228498	-0.477697	-1.049143
H43	H	-4.348006	-0.394689	-1.008342
H44	H	-4.439077	-0.175076	-1.020451
C45	C	-4.245954	-0.842334	-0.624561
H46	H	-4.255721	-0.794601	-0.693866
H47	H	-4.153633	-0.890736	-0.624954
H48	H	-4.389060	-0.899012	-0.633013
H49	H	-3.896818	-0.511493	-0.173846
H50	H	-4.327328	-0.176970	-0.767720
C51	C	-3.828875	-0.158464	-0.813280
H52	H	-3.693511	-0.155152	-0.751374
H53	H	-3.882670	-0.232314	-0.875976
H54	H	-3.805530	-0.083381	-0.852978
H55	H	-3.674879	-0.611313	-0.043263
H56	H	-3.909227	-0.901060	0.186132
H57	H	-4.497684	-0.630898	-0.932976
H58	H	-4.309627	-0.928345	-0.216554
C59	C	-4.299879	-1.047680	-0.002914
H60	H	-4.254451	-1.067343	0.081405
H61	H	-4.436499	-1.034170	-0.021172
H62	H	-4.317003	-1.117189	-0.061967
H63	H	-3.863002	-0.313842	-0.759627
C64	C	-4.487954	-0.750263	-0.719341
H65	H	-4.605571	-0.781044	-0.799008
H66	H	-4.423511	-0.814185	-0.696408
H67	H	-4.543129	-0.731231	-0.655640
C68	C	-3.753346	-0.383263	-0.518692
H69	H	-3.758056	-0.427945	-0.448049
H70	H	-3.626735	-0.380980	-0.538498
H71	H	-3.746203	-0.297945	-0.497698
H72	H	-3.944892	-0.159066	-0.958822
