data_functionalizedCrystal
_audit_creation_method	'MofGen! by Chris Wilmer'
_symmetry_space_group_name_H-M	'P1'
_symmetry_Int_Tables_number	1
_symmetry_cell_setting	triclinic
loop_
_symmetry_equiv_pos_as_xyz
  x,y,z
_cell_length_a	11.792241
_cell_length_b	14.971486
_cell_length_c	10.868271
_cell_angle_alpha	90.001624
_cell_angle_beta	90.000156
_cell_angle_gamma	83.903772
loop_
_atom_site_label
_atom_site_type_symbol
_atom_site_fract_x
_atom_site_fract_y
_atom_site_fract_z
O1	O	-1.506118	-0.122593	-0.102203
O2	O	-1.175696	-0.135228	-0.102232
O3	O	-1.349763	0.001254	-0.102208
O4	O	-1.332051	-0.259075	-0.102227
O5	O	-1.349747	0.001250	0.102436
O6	O	-1.175680	-0.135232	0.102412
O7	O	-1.506102	-0.122597	0.102441
Zn8	Zn	-1.340889	-0.128915	0.134919
Zn9	Zn	-1.340909	-0.128909	-0.134710
O10	O	-1.332035	-0.259079	0.102417
C11	C	-1.348963	0.034580	0.000114
C12	C	-1.346589	0.133887	0.000112
C13	C	-1.133402	-0.134436	0.000087
C14	C	-1.007404	-0.132061	0.000076
C15	C	-1.548396	-0.123389	0.000120
C16	C	-1.674395	-0.125764	0.000122
C17	C	-0.776720	-0.127692	0.000111
C18	C	-0.905089	-0.130120	0.000092
C19	C	-1.332835	-0.292405	0.000093
C20	C	-1.335209	-0.391711	0.000086
N21	N	-1.340883	-0.128919	0.318933
C22	C	-1.448849	0.190702	0.000122
C23	C	-1.446612	0.284011	0.000109
C24	C	-1.342114	0.320502	0.000096
C25	C	-1.239846	0.263679	0.000082
C26	C	-1.242084	0.170372	0.000086
C27	C	-1.235188	0.458160	0.000078
C28	C	-1.232949	0.551473	0.000076
C29	C	-1.439715	0.571798	0.000101
C30	C	-1.441954	0.478492	0.000105
C31	C	-1.339685	0.421675	0.000093
N32	N	-1.340924	-0.128899	-0.318724
C33	C	-1.340892	-0.128919	0.430270
C34	C	-1.340906	-0.128911	0.569948
H35	H	-1.533944	0.160999	0.000141
H36	H	-1.529883	0.330267	0.000120
C37	C	-1.129599	0.107875	0.000079
H38	H	-1.067042	0.142970	0.000081
H39	H	-1.126181	0.071052	-0.071285
H40	H	-1.126168	0.071056	0.071452
H41	H	-1.527045	0.448784	0.000125
H42	H	-1.151910	0.411902	0.000065
H43	H	-1.154761	0.293397	0.000064
H44	H	-1.522986	0.618063	0.000106
C45	C	-1.118004	0.591612	0.000033
H46	H	-1.057417	0.544413	0.000003
H47	H	-1.112811	0.627594	0.071389
H48	H	-1.112863	0.627584	-0.071348
