data_functionalizedCrystal
_audit_creation_method	'MofGen! by Chris Wilmer'
_symmetry_space_group_name_H-M	'P1'
_symmetry_Int_Tables_number	1
_symmetry_cell_setting	triclinic
loop_
_symmetry_equiv_pos_as_xyz
  x,y,z
_cell_length_a	21.295418
_cell_length_b	21.295417
_cell_length_c	21.295411
_cell_angle_alpha	89.978356
_cell_angle_beta	90.043738
_cell_angle_gamma	89.953681
loop_
_atom_site_label
_atom_site_type_symbol
_atom_site_fract_x
_atom_site_fract_y
_atom_site_fract_z
Zn1	Zn	0.962356	0.250415	0.356234
Zn2	Zn	1.295689	0.583749	0.689567
Zn3	Zn	1.629022	0.917082	1.022900
Zn4	Zn	0.962258	0.355667	0.250959
Zn5	Zn	1.295592	0.689000	0.584292
Zn6	Zn	1.628925	1.022334	0.917626
Zn7	Zn	0.857079	0.250445	0.250943
Zn8	Zn	1.190412	0.583778	0.584277
Zn9	Zn	1.523746	0.917111	0.917610
Zn10	Zn	0.857048	0.355680	0.356155
Zn11	Zn	1.190382	0.689013	0.689489
Zn12	Zn	1.523715	1.022346	1.022822
O13	O	0.909685	0.303052	0.303573
O14	O	1.243019	0.636385	0.636906
O15	O	1.576352	0.969718	0.970240
O16	O	1.050432	0.264360	0.342308
O17	O	1.383766	0.597693	0.675641
O18	O	1.717099	0.931026	1.008975
O19	O	0.948278	0.341716	0.162867
O20	O	1.281611	0.675050	0.496201
O21	O	1.614945	1.008383	0.829534
O22	O	0.871098	0.162351	0.264937
O23	O	1.204431	0.495685	0.598270
O24	O	1.537764	0.829018	0.931603
O25	O	1.050361	0.341688	0.264963
O26	O	1.383694	0.675021	0.598296
O27	O	1.717027	1.008354	0.931630
O28	O	0.948444	0.162330	0.342293
O29	O	1.281778	0.495663	0.675626
O30	O	1.615111	0.828996	1.008960
O31	O	0.871003	0.264410	0.162856
O32	O	1.204337	0.597743	0.496189
O33	O	1.537670	0.931077	0.829523
O34	O	0.768985	0.264422	0.264861
O35	O	1.102319	0.597755	0.598194
O36	O	1.435652	0.931089	0.931527
O37	O	0.871046	0.341709	0.444255
O38	O	1.204379	0.675042	0.777589
O39	O	1.537712	1.008376	1.110922
O40	O	0.768963	0.341738	0.342160
O41	O	1.102296	0.675071	0.675493
O42	O	1.435630	1.008404	1.008826
O43	O	0.948415	0.264372	0.444313
O44	O	1.281748	0.597705	0.777646
O45	O	1.615081	0.931038	1.110979
O46	O	0.948248	0.443758	0.264887
O47	O	1.281582	0.777091	0.598221
O48	O	1.614915	1.110425	0.931554
O49	O	0.870951	0.443767	0.342175
O50	O	1.204284	0.777101	0.675508
O51	O	1.537618	1.110434	1.008841
C52	C	0.746134	0.303085	0.303500
C53	C	1.079467	0.636418	0.636834
C54	C	1.412800	0.969751	0.970167
C55	C	0.676166	0.303114	0.303484
C56	C	1.009499	0.636447	0.636818
C57	C	1.342832	0.969781	0.970151
C58	C	0.909603	0.466603	0.303538
C59	C	1.242936	0.799937	0.636871
C60	C	1.576269	1.133270	0.970205
C61	C	0.909625	0.536571	0.303544
C62	C	1.242958	0.869905	0.636877
C63	C	1.576292	1.203238	0.970211
C64	C	0.643304	0.343426	0.343674
C65	C	0.976637	0.676759	0.677007
C66	C	1.309970	1.010092	1.010340
C67	C	0.577561	0.343410	0.343702
C68	C	0.910894	0.676743	0.677035
C69	C	1.244228	1.010077	1.010369
C70	C	0.544683	0.303090	0.303530
C71	C	0.878016	0.636423	0.636863
C72	C	1.211350	0.969756	0.970196
C73	C	0.577553	0.262770	0.263337
C74	C	0.910886	0.596104	0.596671
C75	C	1.244220	0.929437	0.930004
C76	C	0.643294	0.262783	0.263315
C77	C	0.976627	0.596116	0.596648
C78	C	1.309961	0.929449	0.929982
N79	N	0.441407	0.298163	0.248472
N80	N	0.774740	0.631496	0.581805
N81	N	1.108074	0.964829	0.915139
N82	N	0.378956	0.298155	0.248495
N83	N	0.712289	0.631488	0.581829
N84	N	1.045622	0.964821	0.915162
C85	C	0.346608	0.303050	0.303596
C86	C	0.679942	0.636383	0.636930
C87	C	1.013275	0.969716	0.970263
N88	N	0.379072	0.307965	0.358675
N89	N	0.712405	0.641298	0.692008
N90	N	1.045739	0.974632	1.025341
N91	N	0.441529	0.307976	0.358650
N92	N	0.774862	0.641309	0.691984
N93	N	1.108196	0.974643	1.025317
C94	C	0.473398	0.303072	0.303550
C95	C	0.806731	0.636405	0.636883
C96	C	1.140064	0.969738	0.970217
C97	C	0.242461	0.343346	0.343820
C98	C	0.575794	0.676680	0.677153
C99	C	0.909128	1.010013	1.010486
C100	C	0.176717	0.343326	0.343849
C101	C	0.510051	0.676660	0.677182
C102	C	0.843384	1.009993	1.010516
C103	C	0.176710	0.262690	0.263479
C104	C	0.510044	0.596023	0.596812
C105	C	0.843377	0.929357	0.930146
C106	C	0.242453	0.262707	0.263455
C107	C	0.575786	0.596040	0.596789
C108	C	0.909119	0.929373	0.930122
C109	C	0.275324	0.303038	0.303625
C110	C	0.608657	0.636372	0.636958
C111	C	0.941991	0.969705	0.970291
C112	C	0.909738	0.303038	0.467763
C113	C	1.243071	0.636372	0.801097
C114	C	1.576404	0.969705	1.134430
C115	C	0.909760	0.303033	0.537731
C116	C	1.243093	0.636366	0.871065
C117	C	1.576427	0.969699	1.204398
C118	C	1.073876	0.303019	0.303646
C119	C	1.407209	0.636352	0.636979
C120	C	1.740542	0.969686	0.970313
C121	C	1.143844	0.303005	0.303677
C122	C	1.477177	0.636338	0.637010
C123	C	1.810510	0.969672	0.970344
C124	C	0.909785	0.138861	0.303622
C125	C	1.243119	0.472195	0.636955
C126	C	1.576452	0.805528	0.970288
C127	C	0.909828	0.068893	0.303642
C128	C	1.243161	0.402227	0.636976
C129	C	1.576495	0.735560	0.970309
C130	C	0.949910	0.569412	0.263342
C131	C	1.283243	0.902746	0.596675
C132	C	1.616576	1.236079	0.930009
C133	C	0.949939	0.635155	0.263356
C134	C	1.283272	0.968488	0.596689
C135	C	1.616606	1.301822	0.930023
C136	C	0.909673	0.668054	0.303566
C137	C	1.243006	1.001387	0.636899
C138	C	1.576340	1.334721	0.970233
C139	C	0.869386	0.635205	0.343776
C140	C	1.202719	0.968538	0.677109
C141	C	1.536052	1.301872	1.010443
C142	C	0.869362	0.569464	0.343765
C143	C	1.202695	0.902797	0.677098
C144	C	1.536028	1.236130	1.010432
N145	N	0.854606	0.771336	0.308340
N146	N	1.187939	1.104669	0.641674
N147	N	1.521272	1.438002	0.975007
N148	N	0.854630	0.833787	0.308347
N149	N	1.187964	1.167120	0.641680
N150	N	1.521297	1.500454	0.975014
C151	C	0.909743	0.866129	0.303602
C152	C	1.243077	1.199462	0.636935
C153	C	1.576410	1.532795	0.970269
N154	N	0.964832	0.833659	0.298838
N155	N	1.298166	1.166993	0.632171
N156	N	1.631499	1.500326	0.965504
N157	N	0.964807	0.771202	0.298828
N158	N	1.298140	1.104535	0.632161
N159	N	1.631474	1.437869	0.965494
C160	C	0.909695	0.739339	0.303582
C161	C	1.243028	1.072673	0.636916
C162	C	1.576361	1.406006	0.970249
C163	C	0.950063	0.970255	0.263413
C164	C	1.283397	1.303588	0.596746
C165	C	1.616730	1.636922	0.930080
C166	C	0.950094	1.035999	0.263431
C167	C	1.283427	1.369332	0.596765
C168	C	1.616760	1.702665	0.930098
C169	C	0.869535	1.036048	0.343848
C170	C	1.202868	1.369381	0.677181
C171	C	1.536201	1.702714	1.010515
C172	C	0.869510	0.970305	0.343833
C173	C	1.202843	1.303638	0.677166
C174	C	1.536176	1.636972	1.010500
C175	C	0.909773	0.937413	0.303612
C176	C	1.243106	1.270746	0.636945
C177	C	1.576440	1.604079	0.970279
C178	C	0.909670	0.303019	0.140021
C179	C	1.243003	0.636353	0.473355
C180	C	1.576336	0.969686	0.806688
C181	C	0.909769	0.302848	0.070054
C182	C	1.243103	0.636181	0.403387
C183	C	1.576436	0.969514	0.736720
C184	C	0.950044	0.262761	0.570629
C185	C	1.283377	0.596095	0.903962
C186	C	1.616711	0.929428	1.237296
C187	C	0.950043	0.262734	0.636371
C188	C	1.283377	0.596067	0.969705
C189	C	1.616710	0.929401	1.303038
C190	C	0.909765	0.302989	0.669214
C191	C	1.243098	0.636323	1.002547
C192	C	1.576431	0.969656	1.335881
C193	C	0.869473	0.343263	0.636308
C194	C	1.202806	0.676597	0.969642
C195	C	1.536139	1.009930	1.302975
C196	C	0.869470	0.343285	0.570567
C197	C	1.202804	0.676618	0.903900
C198	C	1.536137	1.009952	1.237234
N199	N	0.904908	0.358058	0.772428
N200	N	1.238241	0.691392	1.105761
N201	N	1.571575	1.024725	1.439094
N202	N	0.904914	0.358036	0.834879
N203	N	1.238247	0.691369	1.168213
N204	N	1.571581	1.024703	1.501546
C205	C	0.909769	0.302926	0.867289
C206	C	1.243102	0.636259	1.200622
C207	C	1.576435	0.969592	1.533955
N208	N	0.914629	0.247837	0.834888
N209	N	1.247963	0.581170	1.168221
N210	N	1.581296	0.914504	1.501554
N211	N	0.914627	0.247860	0.772430
N212	N	1.247960	0.581193	1.105764
N213	N	1.581293	0.914527	1.439097
C214	C	0.909763	0.302970	0.740499
C215	C	1.243096	0.636303	1.073833
C216	C	1.576429	0.969637	1.407166
C217	C	0.950054	0.262621	0.971472
C218	C	1.283388	0.595955	1.304805
C219	C	1.616721	0.929288	1.638139
C220	C	0.950049	0.262593	1.037216
C221	C	1.283382	0.595926	1.370549
C222	C	1.616716	0.929260	1.703882
C223	C	0.869482	0.343128	1.037151
C224	C	1.202815	0.676461	1.370485
C225	C	1.536148	1.009795	1.703818
C226	C	0.869484	0.343151	0.971409
C227	C	1.202817	0.676484	1.304742
C228	C	1.536150	1.009817	1.638076
C229	C	0.909773	0.302898	0.938573
C230	C	1.243107	0.636231	1.271906
C231	C	1.576440	0.969565	1.605240
H232	H	0.670063	0.376266	0.376384
H233	H	1.003397	0.709599	0.709717
H234	H	1.336730	1.042932	1.043050
H235	H	0.982846	0.229937	0.663162
H236	H	1.316180	0.563270	0.996495
H237	H	1.649513	0.896604	1.329829
N238	N	0.543975	0.384584	0.384754
N239	N	0.877308	0.717917	0.718087
N240	N	1.210642	1.051250	1.051421
N241	N	0.507354	0.362492	0.424920
N242	N	0.840687	0.695825	0.758253
N243	N	1.174020	1.029158	1.091586
H244	H	0.483634	0.391570	0.453913
H245	H	0.816967	0.724904	0.787246
H246	H	1.150301	1.058237	1.120579
H247	H	0.982696	0.542633	0.230593
H248	H	1.316029	0.875967	0.563927
H249	H	1.649363	1.209300	0.897260
N250	N	0.991090	0.668701	0.222280
N251	N	1.324424	1.002034	0.555614
N252	N	1.657757	1.335367	0.888947
N253	N	1.027033	0.639325	0.186371
N254	N	1.360366	0.972658	0.519705
N255	N	1.693700	1.305992	0.853038
H256	H	1.056094	0.663015	0.157359
H257	H	1.389427	0.996348	0.490692
H258	H	1.722761	1.329681	0.824025
N259	N	0.828253	0.668797	0.384856
N260	N	1.161586	1.002130	0.718190
N261	N	1.494920	1.335463	1.051523
N262	N	0.832397	0.661418	0.442946
N263	N	1.165730	0.994751	0.776280
N264	N	1.499064	1.328084	1.109613
H265	H	0.803347	0.685141	0.471963
H266	H	1.136680	1.018474	0.805297
H267	H	1.470014	1.351807	1.138630
N268	N	0.828208	0.535924	0.384839
N269	N	1.161541	0.869257	0.718172
N270	N	1.494875	1.202591	1.051505
N271	N	0.792262	0.565302	0.420743
N272	N	1.125596	0.898635	0.754076
N273	N	1.458929	1.231968	1.087410
H274	H	0.763196	0.541614	0.449752
H275	H	1.096529	0.874947	0.783085
H276	H	1.429863	1.208280	1.116419
N277	N	0.991257	1.069538	0.222367
N278	N	1.324591	1.402871	0.555700
N279	N	1.657924	1.736204	0.889034
N280	N	1.027204	1.040158	0.186464
N281	N	1.360537	1.373492	0.519798
N282	N	1.693870	1.706825	0.853131
H283	H	1.056278	1.063845	0.157462
H284	H	1.389611	1.397178	0.490796
H285	H	1.722944	1.730512	0.824129
H286	H	0.836704	0.943564	0.376567
H287	H	1.170037	1.276898	0.709900
H288	H	1.503370	1.610231	1.043233
H289	H	0.982850	0.943473	0.230664
H290	H	1.316184	1.276806	0.563998
H291	H	1.649517	1.610140	0.897331
N292	N	0.991191	0.221649	0.537077
N293	N	1.324524	0.554982	0.870410
N294	N	1.657857	0.888315	1.203744
N295	N	1.031286	0.243800	0.500417
N296	N	1.364619	0.577133	0.833751
N297	N	1.697953	0.910467	1.167084
H298	H	1.060345	0.214764	0.476718
H299	H	1.393678	0.548097	0.810051
H300	H	1.727011	0.881431	1.143385
H301	H	0.550779	0.229940	0.230630
H302	H	0.884113	0.563273	0.563963
H303	H	1.217446	0.896607	0.897297
H304	H	0.836680	0.375898	1.063891
H305	H	1.170013	0.709231	1.397224
H306	H	1.503346	1.042565	1.730558
H307	H	0.836676	0.376038	0.663053
H308	H	1.170009	0.709371	0.996386
H309	H	1.503342	1.042704	1.329720
N310	N	0.991202	0.221509	0.937917
N311	N	1.324535	0.554842	1.271251
N312	N	1.657868	0.888175	1.604584
N313	N	1.031302	0.243661	0.901263
N314	N	1.364635	0.576994	1.234597
N315	N	1.697968	0.910328	1.567930
H316	H	1.060362	0.214625	0.877566
H317	H	1.393696	0.547958	1.210899
H318	H	1.727029	0.881292	1.544233
H319	H	0.982852	0.229795	1.064000
H320	H	1.316186	0.563129	1.397333
H321	H	1.649519	0.896462	1.730666
H322	H	0.836663	0.376078	0.543782
H323	H	1.169996	0.709411	0.877116
H324	H	1.503330	1.042745	1.210449
N325	N	0.828331	0.384292	0.937811
N326	N	1.161664	0.717626	1.271144
N327	N	1.494997	1.050959	1.604477
N328	N	0.792368	0.420230	0.967139
N329	N	1.125701	0.753564	1.300472
N330	N	1.459034	1.086897	1.633806
H331	H	0.763299	0.449288	0.943411
H332	H	1.096633	0.782621	1.276744
H333	H	1.429966	1.115954	1.610078
N334	N	0.143133	0.221512	0.222435
N335	N	0.476466	0.554845	0.555769
N336	N	0.809800	0.888179	0.889102
N337	N	0.150404	0.225605	0.164339
N338	N	0.483737	0.558939	0.497672
N339	N	0.817070	0.892272	0.831005
H340	H	0.126687	0.196522	0.135351
H341	H	0.460020	0.529855	0.468684
H342	H	0.793353	0.863188	0.802018
N343	N	0.676855	0.221597	0.222259
N344	N	1.010189	0.554930	0.555592
N345	N	1.343522	0.888264	0.888925
N346	N	0.647496	0.185594	0.186397
N347	N	0.980830	0.518927	0.519730
N348	N	1.314163	0.852260	0.853064
H349	H	0.671199	0.156505	0.157400
H350	H	1.004533	0.489839	0.490733
H351	H	1.337866	0.823172	0.824067
N352	N	0.828395	1.069635	0.384922
N353	N	1.161728	1.402968	0.718255
N354	N	1.495062	1.736302	1.051589
N355	N	0.792424	1.040301	0.420811
N356	N	1.125757	1.373634	0.754145
N357	N	1.459091	1.706967	1.087478
H358	H	0.763369	1.064024	0.449823
H359	H	1.096702	1.397357	0.783156
H360	H	1.430035	1.730690	1.116489
H361	H	0.269226	0.376183	0.376531
H362	H	0.602560	0.709517	0.709865
H363	H	0.935893	1.042850	1.043198
H364	H	0.149962	0.376152	0.376580
H365	H	0.483296	0.709485	0.709913
H366	H	0.816629	1.042818	1.043247
N367	N	0.276014	0.221526	0.222397
N368	N	0.609348	0.554860	0.555730
N369	N	0.942681	0.888193	0.889063
N370	N	0.246654	0.185527	0.186532
N371	N	0.579988	0.518860	0.519866
N372	N	0.913321	0.852193	0.853199
H373	H	0.270357	0.156439	0.157533
H374	H	0.603690	0.489773	0.490867
H375	H	0.937023	0.823106	0.824200
