data_functionalizedCrystal
_audit_creation_method	'MofGen! by Chris Wilmer'
_symmetry_space_group_name_H-M	'P1'
_symmetry_Int_Tables_number	1
_symmetry_cell_setting	triclinic
loop_
_symmetry_equiv_pos_as_xyz
  x,y,z
_cell_length_a	19.377372
_cell_length_b	20.016444
_cell_length_c	19.377372
_cell_angle_alpha	48.621738
_cell_angle_beta	93.588494
_cell_angle_gamma	72.112645
loop_
_atom_site_label
_atom_site_type_symbol
_atom_site_fract_x
_atom_site_fract_y
_atom_site_fract_z
Zr1	Zr	0.544090	0.998534	-0.236081
O2	O	0.430280	1.137905	-0.349886
O3	O	0.578977	0.859163	-0.201200
O4	O	0.551806	1.049480	-0.377072
O5	O	0.478887	0.907400	-0.035277
O6	O	0.647668	1.089667	-0.398509
O7	O	0.457452	0.947588	-0.174015
O8	O	0.696274	0.749225	-0.083906
O9	O	0.430281	1.247843	-0.349880
O10	O	0.665399	0.946479	-0.202314
O11	O	0.609855	0.886496	-0.082777
O12	O	0.577863	1.110570	-0.289844
O13	O	0.522319	1.050588	-0.170307
Zr14	Zr	0.731166	0.998532	-0.049000
Zr15	Zr	0.696980	1.062627	-0.270271
Zr16	Zr	0.578276	0.934439	-0.014810
Zr17	Zr	0.544092	1.173872	-0.236070
Zr18	Zr	0.731164	0.823194	-0.049011
O19	O	0.696278	1.137903	-0.083882
O20	O	0.647670	1.229037	-0.398500
O21	O	0.478888	1.046771	-0.035268
O22	O	0.844976	0.859161	0.064805
O23	O	0.796367	0.950295	-0.249813
O24	O	0.627586	0.768029	0.113419
O25	O	0.796369	1.089666	-0.249804
O26	O	0.723450	0.947586	0.091990
O27	O	0.627587	0.907399	0.113428
O28	O	0.817804	1.049478	-0.111067
O29	O	0.551809	1.298788	-0.377056
O30	O	0.723447	0.698278	0.091975
O31	O	0.844975	0.749223	0.064798
O32	O	0.817801	0.800170	-0.111082
O33	O	0.457455	1.196896	-0.173999
O34	O	0.578982	1.247841	-0.201175
O35	O	0.697393	0.886496	0.004763
O36	O	0.752937	0.946478	-0.114774
O37	O	0.665401	1.110569	-0.202304
O38	O	0.609857	1.050587	-0.082767
C39	C	0.637625	0.779212	-0.142554
C40	C	0.637624	0.704776	-0.142559
C41	C	0.666623	0.564813	-0.204939
C42	C	0.666627	0.494864	-0.204932
C43	C	0.608633	0.432254	-0.080135
C44	C	0.608635	0.502197	-0.080138
C45	C	0.637627	0.568479	-0.142546
C46	C	0.637629	0.428587	-0.142535
C47	C	0.637632	0.352745	-0.142527
C48	C	0.637625	0.644325	-0.142554
C49	C	0.446386	0.918362	-0.099774
C50	C	0.381480	0.891153	-0.085260
C51	C	-0.060447	1.229927	-0.265973
C52	C	-0.121424	1.204337	-0.252322
C53	C	-0.030034	1.033038	-0.160947
C54	C	0.030953	1.058613	-0.174587
C55	C	0.015739	1.157059	-0.227102
C56	C	0.107139	0.985745	-0.135716
C57	C	0.168119	1.011319	-0.149359
C58	C	0.152913	1.109761	-0.201874
C59	C	0.076719	1.182633	-0.240745
C60	C	0.122350	0.887301	-0.083207
C61	C	0.198537	0.814433	-0.044336
C62	C	0.259519	0.840005	-0.057973
C63	C	0.244313	0.938447	-0.110488
C64	C	0.335713	0.767133	-0.019102
C65	C	0.396694	0.792707	-0.032745
C66	C	0.305293	0.964021	-0.124131
C67	C	0.828870	1.078704	-0.185307
C68	C	0.893776	1.105913	-0.199821
C69	C	0.594866	1.078706	-0.419316
C70	C	0.580353	1.105915	-0.513252
C71	C	0.637631	1.217854	-0.142527
C72	C	0.637631	1.292289	-0.142522
C73	C	0.761063	0.767138	-0.593746
C74	C	0.747410	0.792727	-0.682023
C75	C	0.656029	0.964026	-0.773388
C76	C	0.669677	0.938452	-0.685117
C77	C	0.722194	0.840006	-0.595301
C78	C	0.630808	1.011321	-0.686673
C79	C	0.644452	0.985748	-0.598408
C80	C	0.696964	0.887306	-0.508589
C81	C	0.735837	0.814433	-0.507037
C82	C	0.578287	1.109764	-0.776489
C83	C	0.539418	1.182633	-0.778045
C84	C	0.553066	1.157062	-0.689780
C85	C	0.605579	1.058620	-0.599961
C86	C	0.514193	1.229934	-0.691332
C87	C	0.527836	1.204361	-0.603068
C88	C	0.619222	1.033047	-0.511696
C89	C	0.680390	0.918360	0.134235
C90	C	0.694903	0.891150	0.228170
C91	C	0.828868	0.859383	-0.185321
C92	C	0.893773	0.812156	-0.199840
C93	C	0.680387	0.699039	0.134221
C94	C	0.694899	0.597394	0.228152
C95	C	0.871629	0.779210	0.091455
C96	C	0.951047	0.704774	0.170871
C97	C	0.403627	1.217856	-0.376536
C98	C	0.324209	1.292292	-0.455952
C99	C	0.446388	1.137683	-0.099761
C100	C	0.381483	1.184910	-0.085241
C101	C	0.594869	1.298027	-0.419303
C102	C	0.580357	1.399672	-0.513233
C103	C	0.878557	0.789981	-0.252362
C104	C	0.939533	0.745620	-0.266024
C105	C	1.015725	0.723429	-0.227156
C106	C	1.030939	0.745610	-0.174632
C107	C	0.969963	0.789976	-0.160977
C108	C	0.747409	0.549657	0.317967
C109	C	0.761044	0.454157	0.406234
C110	C	0.722171	0.406392	0.404682
C111	C	0.669654	0.454136	0.314858
C112	C	0.656017	0.549638	0.226594
C113	C	1.017343	0.701131	0.145768
C114	C	1.091969	0.631205	0.220378
C115	C	1.100298	0.564918	0.320091
C116	C	1.033995	0.568565	0.345194
C117	C	0.959370	0.638495	0.270585
C118	C	0.257913	1.295944	-0.430849
C119	C	0.183287	1.365891	-0.505459
C120	C	0.174958	1.432182	-0.605172
C121	C	0.241261	1.428530	-0.630275
C122	C	0.315886	1.358588	-0.555666
C123	C	0.396697	1.207094	-0.032728
C124	C	0.335717	1.251482	-0.019091
C125	C	0.259525	1.273677	-0.057962
C126	C	0.244312	1.251492	-0.110482
C127	C	0.305290	1.207112	-0.124125
C128	C	0.619242	1.447408	-0.511650
C129	C	0.605622	1.542909	-0.599903
C130	C	0.553112	1.590675	-0.689736
C131	C	0.514226	1.542931	-0.691316
C132	C	0.527850	1.447429	-0.603066
H133	H	0.585023	0.505176	-0.029325
C134	C	0.485061	1.394934	-0.604811
H135	H	0.500691	1.331214	-0.539392
H136	H	0.430268	1.435191	-0.630502
H137	H	0.497836	1.386001	-0.645611
H138	H	0.129309	1.368849	-0.485000
C139	C	0.059990	1.290922	-0.298507
H140	H	0.005881	1.330662	-0.319708
H141	H	0.089438	1.290292	-0.256832
H142	H	0.074322	1.318621	-0.354632
C143	C	0.267059	1.223044	-0.321173
H144	H	0.216881	1.235257	-0.316922
H145	H	0.294957	1.155707	-0.289461
H146	H	0.294966	1.233217	-0.289477
H147	H	1.161066	0.507981	0.380833
H148	H	1.145947	0.628246	0.199920
C149	C	1.043166	0.495638	0.454879
H150	H	1.097107	0.453465	0.495709
H151	H	1.019028	0.532961	0.468313
H152	H	1.019032	0.455475	0.468287
C153	C	0.886451	0.642483	0.298211
H154	H	0.902106	0.592980	0.368282
H155	H	0.856123	0.707205	0.271706
H156	H	0.856143	0.629699	0.271704
C157	C	0.456417	1.595514	-0.790123
H158	H	0.435194	1.553420	-0.778434
H159	H	0.415437	1.657339	-0.818832
H160	H	0.482948	1.608221	-0.834053
H161	H	0.708068	0.866485	-0.436720
C162	C	0.598269	1.072310	-0.872187
H163	H	0.595713	1.077107	-0.924533
H164	H	0.547943	1.089158	-0.868940
H165	H	0.615529	1.117471	-0.884047
H166	H	0.638007	0.415232	0.313610
C167	C	0.698526	0.637708	-0.273572
H168	H	0.715803	0.625496	-0.310722
H169	H	0.658397	0.705044	-0.317512
H170	H	0.741077	0.627535	-0.234815
C171	C	0.288551	1.072341	-0.182005
H172	H	0.335777	1.077139	-0.184591
H173	H	0.252233	1.117428	-0.247424
H174	H	0.267321	1.089280	-0.149721
C175	C	0.480501	1.182686	0.010038
H176	H	0.480817	1.202270	0.043256
H177	H	0.513746	1.112465	0.055515
H178	H	0.498637	1.218290	-0.042284
C179	C	0.055276	0.859164	-0.068199
H180	H	0.075245	0.790102	-0.031369
H181	H	0.032158	0.870845	-0.033087
H182	H	0.017048	0.899181	-0.130891
C183	C	0.232090	1.501445	-0.739960
H184	H	0.178149	1.543609	-0.780790
H185	H	0.256231	1.541603	-0.753387
H186	H	0.256222	1.464097	-0.753376
C187	C	-0.077176	1.338215	-0.323735
H188	H	-0.131286	1.377955	-0.344936
H189	H	-0.047729	1.337586	-0.282060
H190	H	-0.062845	1.365915	-0.379859
C191	C	1.008197	0.774039	0.036092
H192	H	1.058375	0.761851	0.031840
H193	H	0.980297	0.763879	0.004381
H194	H	0.980292	0.841374	0.004395
C195	C	0.538127	1.695726	-0.786806
H196	H	0.501289	1.717341	-0.840540
H197	H	0.518140	1.741908	-0.782328
H198	H	0.585714	1.692732	-0.797440
H199	H	0.348120	1.269536	0.023679
C200	C	0.698518	0.490838	-0.273569
H201	H	0.715778	0.540336	-0.310740
H202	H	0.741064	0.426110	-0.234825
H203	H	0.658376	0.503605	-0.317505
H204	H	1.092982	0.727535	-0.142990
H205	H	0.778606	0.734270	-0.433901
H206	H	0.209880	1.309814	-0.046846
C207	C	0.388805	1.354569	-0.583292
H208	H	0.373150	1.404061	-0.653363
H209	H	0.419135	1.367328	-0.556782
H210	H	0.419110	1.289840	-0.556791
H211	H	0.471428	1.310086	-0.764470
H212	H	0.114190	1.489128	-0.665914
C213	C	0.160501	1.275901	-0.153226
H214	H	0.126371	1.305498	-0.137564
H215	H	0.144151	1.321539	-0.223133
H216	H	0.159272	1.215711	-0.125327
H217	H	0.292892	1.189047	-0.166882
H218	H	0.585027	0.378280	-0.029326
H219	H	0.661999	1.408531	-0.438512
H220	H	0.779064	0.733380	-0.680745
H221	H	0.567180	1.130582	-0.848357
C222	C	0.648391	1.595417	-0.598144
H223	H	0.681602	1.553295	-0.531999
H224	H	0.678770	1.608088	-0.638217
H225	H	0.611181	1.657259	-0.623115
C226	C	-0.205229	1.284496	-0.295073
H227	H	-0.205551	1.346784	-0.328294
H228	H	-0.238477	1.292246	-0.340546
H229	H	-0.223356	1.263911	-0.242743
C230	C	0.794752	0.814390	-0.295125
H231	H	0.760608	0.843983	-0.279470
H232	H	0.778418	0.860033	-0.365032
H233	H	0.793526	0.754203	-0.267241
C234	C	0.922787	0.721216	-0.323788
H235	H	0.868679	0.740772	-0.344961
H236	H	0.937109	0.756819	-0.379916
H237	H	0.952233	0.650989	-0.282109
H238	H	0.661990	0.952884	-0.438561
C239	C	0.818833	0.658850	-0.494944
H240	H	0.840028	0.619109	-0.506655
H241	H	0.859838	0.659480	-0.466170
H242	H	0.792261	0.631150	-0.451059
H243	H	0.202569	1.130582	-0.212983
H244	H	-0.017658	0.952884	-0.118192
C245	C	0.598259	0.602135	0.127803
H246	H	0.577071	0.560000	0.139528
H247	H	0.557249	0.663978	0.099017
H248	H	0.624832	0.614794	0.083920
C249	C	0.215268	0.706147	0.013431
H250	H	0.269377	0.666414	0.034623
H251	H	0.200931	0.678451	0.069546
H252	H	0.185828	0.706771	-0.028249
C253	C	0.352442	0.658850	0.038656
H254	H	0.406550	0.619115	0.059848
H255	H	0.338104	0.631149	0.094772
H256	H	0.323000	0.659483	-0.003031
H257	H	0.496658	1.262786	-0.851183
C258	C	1.082793	0.674616	-0.242173
H259	H	1.062814	0.664580	-0.279012
H260	H	1.105919	0.717478	-0.277278
H261	H	1.121018	0.611656	-0.179483
C262	C	0.790171	0.602188	0.319689
H263	H	0.774539	0.665901	0.254262
H264	H	0.777389	0.611121	0.360483
H265	H	0.844970	0.561947	0.345376
C266	C	0.480501	0.712559	0.010010
H267	H	0.514637	0.741894	-0.005646
H268	H	0.496843	0.659009	0.079917
H269	H	0.481728	0.687340	-0.017885
C270	C	0.818819	0.401649	0.505025
H271	H	0.840024	0.443772	0.493298
H272	H	0.792261	0.388981	0.548918
H273	H	0.859826	0.339806	0.533796
H274	H	0.496183	1.263697	-0.604337
C275	C	0.737179	0.301340	0.501774
H276	H	0.706505	0.279725	0.487994
H277	H	0.790927	0.255158	0.531057
H278	H	0.723349	0.304332	0.546167
H279	H	0.982363	0.808023	-0.118203
