data_functionalizedCrystal
_audit_creation_method	'MofGen! by Chris Wilmer'
_symmetry_space_group_name_H-M	'P1'
_symmetry_Int_Tables_number	1
_symmetry_cell_setting	triclinic
loop_
_symmetry_equiv_pos_as_xyz
  x,y,z
_cell_length_a	21.295420
_cell_length_b	21.295416
_cell_length_c	21.295420
_cell_angle_alpha	89.995528
_cell_angle_beta	90.017013
_cell_angle_gamma	89.973887
loop_
_atom_site_label
_atom_site_type_symbol
_atom_site_fract_x
_atom_site_fract_y
_atom_site_fract_z
Zn1	Zn	0.962309	0.250843	0.355923
Zn2	Zn	1.462309	0.750843	0.855923
Zn3	Zn	0.962226	0.356068	0.250653
Zn4	Zn	1.462226	0.856068	0.750653
Zn5	Zn	0.857046	0.250809	0.250668
Zn6	Zn	1.357046	0.750809	0.750668
Zn7	Zn	0.857002	0.356071	0.355884
Zn8	Zn	1.357002	0.856071	0.855884
O9	O	0.909646	0.303448	0.303282
O10	O	1.409646	0.803448	0.803282
O11	O	1.050387	0.264815	0.341968
O12	O	1.550387	0.764815	0.841968
O13	O	0.948257	0.342090	0.162565
O14	O	1.448257	0.842090	0.662565
O15	O	0.871063	0.162724	0.264652
O16	O	1.371063	0.662724	0.764652
O17	O	1.050326	0.342123	0.264627
O18	O	1.550326	0.842123	0.764627
O19	O	0.948399	0.162749	0.341983
O20	O	1.448399	0.662749	0.841983
O21	O	0.870982	0.264756	0.162576
O22	O	1.370982	0.764756	0.662576
O23	O	0.768951	0.264759	0.264615
O24	O	1.268951	0.764759	0.764615
O25	O	0.870987	0.342127	0.443979
O26	O	1.370987	0.842127	0.943979
O27	O	0.768918	0.342094	0.341917
O28	O	1.268918	0.842094	0.841917
O29	O	0.948356	0.264817	0.444007
O30	O	1.448356	0.764817	0.944007
O31	O	0.948214	0.444158	0.264589
O32	O	1.448214	0.944158	0.764589
O33	O	0.870907	0.444160	0.341903
O34	O	1.370907	0.944160	0.841903
C35	C	0.746094	0.303424	0.303264
C36	C	1.246094	0.803424	0.803264
C37	C	0.676126	0.303428	0.303271
C38	C	1.176126	0.803428	0.803271
C39	C	0.176699	0.263288	0.343628
C40	C	0.676699	0.763288	0.843628
C41	C	0.242442	0.263283	0.343628
C42	C	0.742442	0.763283	0.843628
C43	C	0.275286	0.303467	0.303296
C44	C	0.775286	0.803467	0.803296
C45	C	0.242383	0.343669	0.262973
C46	C	0.742383	0.843669	0.762973
C47	C	0.176642	0.343677	0.262979
C48	C	0.676642	0.843677	0.762979
N49	N	0.378484	0.308188	0.248177
N50	N	0.878484	0.808188	0.748177
N51	N	0.440935	0.308177	0.248173
N52	N	0.940935	0.808177	0.748173
C53	C	0.473361	0.303446	0.303278
C54	C	0.973361	0.803446	0.803278
N55	N	0.440977	0.298714	0.358387
N56	N	0.940977	0.798714	0.858387
N57	N	0.378519	0.298723	0.358390
N58	N	0.878519	0.798723	0.858390
C59	C	0.346572	0.303463	0.303286
C60	C	0.846572	0.803463	0.803286
C61	C	0.577542	0.263244	0.343602
C62	C	1.077542	0.763244	0.843602
C63	C	0.643286	0.263244	0.343603
C64	C	1.143286	0.763244	0.843603
C65	C	0.643226	0.343626	0.262942
C66	C	1.143226	0.843626	0.762942
C67	C	0.577484	0.343630	0.262947
C68	C	1.077484	0.843630	0.762947
C69	C	0.544646	0.303436	0.303276
C70	C	1.044646	0.803436	0.803276
C71	C	0.909564	0.466999	0.303254
C72	C	1.409564	0.966999	0.803254
C73	C	0.909586	0.536967	0.303263
C74	C	1.409586	1.036967	0.803263
C75	C	0.949876	0.569812	0.263049
C76	C	1.449876	1.069812	0.763049
C77	C	0.949906	0.635555	0.263066
C78	C	1.449906	1.135555	0.763066
C79	C	0.909634	0.668450	0.303290
C80	C	1.409634	1.168450	0.803290
C81	C	0.869342	0.635597	0.343513
C82	C	1.369342	1.135597	0.843513
C83	C	0.869318	0.569856	0.343499
C84	C	1.369318	1.069856	0.843499
N85	N	0.854567	0.771714	0.308088
N86	N	1.354567	1.271714	0.808088
N87	N	0.854592	0.834165	0.308097
N88	N	1.354592	1.334165	0.808097
C89	C	0.909705	0.866525	0.303335
C90	C	1.409705	1.366525	0.803335
N91	N	0.964795	0.834073	0.298551
N92	N	1.464795	1.334073	0.798551
N93	N	0.964769	0.771616	0.298538
N94	N	1.464769	1.271616	0.798538
C95	C	0.909656	0.739735	0.303310
C96	C	1.409656	1.239735	0.803310
C97	C	0.950031	0.970655	0.263137
C98	C	1.450031	1.470655	0.763137
C99	C	0.950062	1.036399	0.263158
C100	C	1.450062	1.536399	0.763158
C101	C	0.869492	1.036440	0.343602
C102	C	1.369492	1.536440	0.843602
C103	C	0.869467	0.970697	0.343584
C104	C	1.369467	1.470697	0.843584
C105	C	0.909735	0.937809	0.303348
C106	C	1.409735	1.437809	0.803348
C107	C	1.073836	0.303472	0.303300
C108	C	1.573836	0.803472	0.803300
C109	C	1.143804	0.303483	0.303308
C110	C	1.643804	0.803483	0.803308
C111	C	0.909676	0.303476	0.467472
C112	C	1.409676	0.803476	0.967472
C113	C	0.909689	0.303489	0.537440
C114	C	1.409689	0.803489	1.037440
C115	C	0.909746	1.139257	0.303334
C116	C	1.409746	1.639257	0.803334
C117	C	0.909791	1.069289	0.303384
C118	C	1.409791	1.569289	0.803384
C119	C	0.949969	0.263240	0.570322
C120	C	1.449969	0.763240	1.070322
C121	C	0.949959	0.263230	0.636065
C122	C	1.449959	0.763230	1.136065
C123	C	0.909677	0.303479	0.668923
C124	C	1.409677	0.803479	1.168923
C125	C	0.869389	0.343731	0.636032
C126	C	1.369389	0.843731	1.136032
C127	C	0.869395	0.343736	0.570291
C128	C	1.369395	0.843736	1.070291
N129	N	0.904806	0.358573	0.772140
N130	N	1.404806	0.858573	1.272140
N131	N	0.904804	0.358567	0.834592
N132	N	1.404804	0.858567	1.334592
C133	C	0.909654	0.303466	0.866997
C134	C	1.409654	0.803466	1.366997
N135	N	0.914519	0.248371	0.834592
N136	N	1.414519	0.748371	1.334592
N137	N	0.914525	0.248378	0.772135
N138	N	1.414525	0.748378	1.272135
C139	C	0.909665	0.303478	0.740208
C140	C	1.409665	0.803478	1.240208
C141	C	0.949926	0.263203	0.971165
C142	C	1.449926	0.763203	1.471165
C143	C	0.949912	0.263191	1.036909
C144	C	1.449912	0.763191	1.536909
C145	C	0.869345	0.343698	1.036875
C146	C	1.369345	0.843698	1.536875
C147	C	0.869356	0.343704	0.971133
C148	C	1.369356	0.843704	1.471133
C149	C	0.909649	0.303457	0.938282
C150	C	1.409649	0.803457	1.438282
C151	C	0.909618	0.303438	1.139730
C152	C	1.409618	0.803438	1.639730
C153	C	0.909628	0.303440	1.069762
C154	C	1.409628	0.803440	1.569762
H155	H	0.550700	0.376358	0.230110
H156	H	1.050700	0.876358	0.730110
C157	C	0.825082	0.388007	0.672173
C158	C	1.325082	0.888007	1.172173
H159	H	0.830852	0.382245	0.716036
H160	H	1.330852	0.882245	1.216036
H161	H	0.782793	0.378791	0.661385
H162	H	1.282793	0.878791	1.161385
H163	H	0.834276	0.430306	0.661400
H164	H	1.334276	0.930306	1.161400
H165	H	0.982717	0.662302	0.230319
H166	H	1.482717	1.162302	0.730319
H167	H	0.836540	0.376464	1.063627
H168	H	1.336540	0.876464	1.563627
C169	C	0.824996	0.533722	0.387733
C170	C	1.324996	1.033722	0.887733
H171	H	0.830752	0.489859	0.381965
H172	H	1.330752	0.989859	0.881965
H173	H	0.782710	0.544535	0.378487
H174	H	1.282710	1.044535	0.878487
H175	H	0.834192	0.544474	0.430042
H176	H	1.334192	1.044474	0.930042
H177	H	0.982874	1.063140	0.230412
H178	H	1.482874	1.563140	0.730412
C179	C	0.541415	0.219039	0.387964
C180	C	1.041415	0.719039	0.887964
H181	H	0.497550	0.224794	0.382187
H182	H	0.997550	0.724794	0.882187
H183	H	0.552199	0.228321	0.430243
H184	H	1.052199	0.728321	0.930243
H185	H	0.552202	0.176725	0.378822
H186	H	1.052202	0.676725	0.878822
H187	H	0.836656	0.943953	0.376328
H188	H	1.336656	1.443953	0.876328
H189	H	0.982822	0.943876	0.230376
H190	H	1.482822	1.443876	0.730376
H191	H	0.669968	0.376349	0.230108
H192	H	1.169968	0.876349	0.730108
H193	H	0.670068	0.230515	0.376441
H194	H	1.170068	0.730515	0.876441
C195	C	0.994285	0.218965	0.534190
C196	C	1.494285	0.718965	1.034190
H197	H	1.018270	0.194989	0.563193
H198	H	1.518270	0.694989	1.063193
H199	H	1.021700	0.243050	0.508553
H200	H	1.521700	0.743050	1.008553
H201	H	0.970221	0.191532	0.508537
H202	H	1.470221	0.691532	1.008537
H203	H	0.982759	0.230451	0.662843
H204	H	1.482759	0.730451	1.162843
C205	C	0.994177	0.533638	0.218798
C206	C	1.494177	1.033638	0.718798
H207	H	1.018180	0.562619	0.194855
H208	H	1.518180	1.062619	0.694855
H209	H	0.970108	0.508017	0.191343
H210	H	1.470108	1.008017	0.691343
H211	H	1.021583	0.507967	0.242904
H212	H	1.521583	1.007967	0.742904
C213	C	0.825043	0.671779	0.387757
C214	C	1.325043	1.171779	0.887757
H215	H	0.830823	0.715637	0.382002
H216	H	1.330823	1.215637	0.882002
H217	H	0.834225	0.660987	0.430059
H218	H	1.334225	1.160987	0.930059
H219	H	0.782748	0.661041	0.378500
H220	H	1.282748	1.161041	0.878500
C221	C	0.278634	0.219065	0.387980
C222	C	0.778634	0.719065	0.887980
H223	H	0.249661	0.195126	0.411996
H224	H	0.749661	0.695126	0.911996
H225	H	0.304285	0.243185	0.415364
H226	H	0.804285	0.743185	0.915364
H227	H	0.304277	0.191595	0.363937
H228	H	0.804277	0.691595	0.863937
H229	H	0.269130	0.376388	0.230136
H230	H	0.769130	0.876388	0.730136
H231	H	0.836705	1.063223	0.376357
H232	H	1.336705	1.563223	0.876357
H233	H	0.982732	0.230428	0.944416
H234	H	1.482732	0.730428	1.444416
C235	C	0.140581	0.219082	0.387994
C236	C	0.640581	0.719082	0.887994
H237	H	0.169592	0.195146	0.412011
H238	H	0.669592	0.695146	0.912011
H239	H	0.114933	0.191617	0.363966
H240	H	0.614933	0.691617	0.863966
H241	H	0.114940	0.243215	0.415385
H242	H	0.614940	0.743215	0.915385
C243	C	0.825095	0.388020	0.534119
C244	C	1.325095	0.888020	1.034119
H245	H	0.801105	0.411994	0.563101
H246	H	1.301105	0.911994	1.063101
H247	H	0.797684	0.363944	0.508457
H248	H	1.297684	0.863944	1.008457
H249	H	0.849171	0.415455	0.508489
H250	H	1.349171	0.915455	1.008489
C251	C	0.994223	0.218916	1.073080
C252	C	1.494223	0.718916	1.573080
H253	H	1.018223	0.194953	1.044097
H254	H	1.518223	0.694953	1.544097
H255	H	0.970160	0.191479	1.098715
H256	H	1.470160	0.691479	1.598715
H257	H	1.021632	0.243005	1.098736
H258	H	1.521632	0.743005	1.598736
C259	C	0.140456	0.387889	0.218620
C260	C	0.640456	0.887889	0.718620
H261	H	0.169430	0.411819	0.194596
H262	H	0.669430	0.911819	0.694596
H263	H	0.114807	0.415358	0.242652
H264	H	0.614807	0.915358	0.742652
H265	H	0.114812	0.363759	0.191234
H266	H	0.614812	0.863759	0.691234
H267	H	0.836559	0.376483	0.944359
H268	H	1.336559	0.876483	1.444359
