data_functionalizedCrystal
_audit_creation_method	'MofGen! by Chris Wilmer'
_symmetry_space_group_name_H-M	'P1'
_symmetry_Int_Tables_number	1
_symmetry_cell_setting	triclinic
loop_
_symmetry_equiv_pos_as_xyz
  x,y,z
_cell_length_a	13.262390
_cell_length_b	13.185408
_cell_length_c	9.730223
_cell_angle_alpha	89.994646
_cell_angle_beta	74.079418
_cell_angle_gamma	68.866222
loop_
_atom_site_label
_atom_site_type_symbol
_atom_site_fract_x
_atom_site_fract_y
_atom_site_fract_z
O1	O	1.351253	0.146699	-0.619396
O2	O	1.041159	0.162650	-0.503484
O3	O	1.249334	-0.003833	-0.581289
O4	O	1.143078	0.313182	-0.541591
O5	O	1.249325	-0.003838	-0.352706
O6	O	1.041150	0.162645	-0.274901
O7	O	1.351244	0.146695	-0.390813
Zn8	Zn	1.196195	0.154669	-0.296564
Zn9	Zn	1.196207	0.154675	-0.597733
O10	O	1.143069	0.313177	-0.313008
C11	C	1.002302	0.161753	-0.374670
C12	C	0.886539	0.159076	-0.331398
C13	C	1.260101	-0.044415	-0.471025
C14	C	1.292186	-0.165330	-0.483019
C15	C	1.406425	-0.234681	-0.525718
C16	C	1.436574	-0.348287	-0.537000
C17	C	1.352487	-0.392552	-0.505573
C18	C	1.238246	-0.323201	-0.462863
C19	C	1.208094	-0.209584	-0.451591
C20	C	1.154156	-0.367455	-0.431446
C21	C	1.039915	-0.298103	-0.388736
C22	C	1.009769	-0.184498	-0.377465
C23	C	1.093855	-0.140232	-0.408892
C24	C	1.184308	-0.481072	-0.442718
C25	C	0.985977	-0.455975	-0.368591
C26	C	0.955829	-0.342369	-0.357309
C27	C	0.560254	0.151526	-0.707847
C28	C	0.669021	0.154036	-0.748506
C29	C	0.723406	0.155296	-0.644233
C30	C	0.669012	0.154046	-0.499293
C31	C	0.560238	0.151528	-0.458631
C32	C	0.723390	0.155298	-0.395016
C33	C	0.668997	0.154048	-0.250077
C34	C	0.560232	0.151530	-0.209422
C35	C	0.505848	0.150270	-0.313695
C36	C	0.832165	0.157817	-0.435678
C37	C	0.832149	0.157819	-0.186462
C38	C	0.723381	0.155309	-0.145803
C39	C	1.390100	0.147591	-0.519630
C40	C	1.505864	0.150268	-0.562911
C41	C	1.132301	0.353759	-0.423276
C42	C	1.100216	0.474674	-0.411290
N43	N	1.196195	0.154664	-0.091028
N44	N	1.196218	0.154671	-0.803273
C45	C	1.288390	0.080977	-0.053560
C46	C	1.288400	0.080977	0.090319
C47	C	1.104014	0.228362	0.159252
C48	C	1.104001	0.228356	0.015376
H49	H	1.377041	-0.485056	-0.514761
N50	N	1.559780	-0.423084	-0.583054
H51	H	1.608474	-0.377806	-0.601246
H52	H	1.576600	-0.470772	-0.504603
N53	N	1.004588	0.307839	0.274024
H54	H	1.031017	0.356273	0.323818
H55	H	0.946215	0.354444	0.228357
H56	H	0.811969	0.157341	-0.677346
H57	H	0.862812	-0.285887	-0.322535
N58	N	1.004552	0.307828	-0.025045
H59	H	0.946152	0.354515	0.064190
H60	H	1.031059	0.356182	-0.094676
N61	N	0.895273	-0.503702	-0.334700
H62	H	0.931708	-0.586197	-0.348317
H63	H	0.846692	-0.478371	-0.231807
H64	H	1.277324	-0.537527	-0.477496
H65	H	0.679079	0.154290	-0.027791
N66	N	0.388535	0.147552	-0.269844
H67	H	0.362329	0.146944	-0.162206
H68	H	0.334863	0.214386	-0.298771
N69	N	0.890818	0.159163	-0.591998
H70	H	0.844331	0.226157	-0.629103
H71	H	0.967974	0.160906	-0.601833
H72	H	0.876429	0.158844	-0.101554
N73	N	1.497107	-0.186937	-0.559596
H74	H	1.489021	-0.140348	-0.641303
H75	H	1.488951	-0.140421	-0.471751
N76	N	1.061334	-0.017697	-0.396731
H77	H	1.131940	-0.000184	-0.423118
H78	H	1.015120	0.014516	-0.464200
N79	N	1.387821	0.001499	-0.168325
H80	H	1.446226	-0.045183	-0.122750
H81	H	1.361298	-0.046861	-0.218089
N82	N	1.387849	0.001516	0.130730
H83	H	1.446251	-0.045159	0.041487
H84	H	1.422389	0.043474	0.177486
N85	N	0.886556	-0.109691	-0.331416
H86	H	0.848455	-0.123973	-0.401910
H87	H	0.848538	-0.124015	-0.232416
N88	N	0.727677	0.155377	-0.904826
H89	H	0.681194	0.222370	-0.941936
H90	H	0.804835	0.157115	-0.914661
H91	H	0.515968	0.150489	-0.792732
H92	H	0.515956	0.150493	-0.091405
