data_functionalizedCrystal
_audit_creation_method	'MofGen! by Chris Wilmer'
_symmetry_space_group_name_H-M	'P1'
_symmetry_Int_Tables_number	1
_symmetry_cell_setting	triclinic
loop_
_symmetry_equiv_pos_as_xyz
  x,y,z
_cell_length_a	13.897448
_cell_length_b	13.033293
_cell_length_c	13.897441
_cell_angle_alpha	82.791234
_cell_angle_beta	89.970373
_cell_angle_gamma	97.187372
loop_
_atom_site_label
_atom_site_type_symbol
_atom_site_fract_x
_atom_site_fract_y
_atom_site_fract_z
Zn1	Zn	-0.196879	1.597757	-0.733027
Zn2	Zn	-0.358211	1.597649	-0.571716
Zn3	Zn	-0.217386	1.422990	-0.551220
Zn4	Zn	-0.378604	1.422964	-0.712453
O5	O	-0.287770	1.510340	-0.642104
O6	O	-0.201163	1.743990	-0.728817
O7	O	-0.339578	1.574446	-0.434011
O8	O	-0.079677	1.446230	-0.575370
O9	O	-0.319693	1.743910	-0.610302
O10	O	-0.064611	1.574630	-0.708943
O11	O	-0.236114	1.446125	-0.418953
O12	O	-0.255888	1.276740	-0.555420
O13	O	-0.354450	1.446185	-0.850168
O14	O	-0.374335	1.276720	-0.673877
O15	O	-0.220938	1.574605	-0.865284
O16	O	-0.495904	1.574420	-0.590352
O17	O	-0.510887	1.446080	-0.693751
C18	C	-0.319551	1.238810	-0.610193
C19	C	-0.333170	1.122648	-0.596564
C20	C	-0.280686	1.070899	-0.649217
C21	C	-0.294761	0.950839	-0.635132
C22	C	-0.538393	1.510264	-0.642067
C23	C	-0.645600	1.510327	-0.642095
C24	C	-0.841882	1.510436	-0.642168
C25	C	-0.732657	1.510373	-0.642130
C26	C	-0.036165	1.510445	-0.642165
C27	C	0.071055	1.510490	-0.642192
C28	C	-0.287681	1.510404	-0.893705
C29	C	-0.287644	1.510431	-1.000922
C30	C	-0.255866	1.782931	-0.674141
C31	C	-0.242270	1.899092	-0.687793
C32	C	-0.287614	1.510453	-1.087994
C33	C	-0.287567	1.510483	-1.197230
C34	C	-0.287781	1.510336	-0.391489
C35	C	-0.287524	1.510512	-0.284296
H36	H	-0.225330	1.115477	-0.704719
C37	C	-0.168541	0.958704	-0.761798
C38	C	-0.169260	1.065934	-0.761082
C39	C	-0.101365	1.120879	-0.829251
H40	H	-0.105735	0.940997	-0.745796
H41	H	-0.184816	0.940956	-0.824536
H42	H	-0.152979	1.083675	-0.698358
H43	H	-0.232049	1.083672	-0.777095
H44	H	-0.117640	1.103131	-0.891989
H45	H	-0.038564	1.103164	-0.813243
H46	H	-0.101850	1.193640	-0.828781
C47	C	-0.368702	0.891359	-0.561269
C48	C	-0.437899	0.828727	-0.608485
C49	C	-0.506034	0.773930	-0.540478
H50	H	-0.336834	0.848678	-0.514313
H51	H	-0.399866	0.939362	-0.530075
H52	H	-0.406739	0.780730	-0.639663
H53	H	-0.469792	0.871383	-0.655435
H54	H	-0.537198	0.821933	-0.509284
H55	H	-0.474157	0.731255	-0.493526
H56	H	-0.552997	0.731436	-0.572505
H57	H	-0.388520	1.078069	-0.541056
