data_functionalizedCrystal
_audit_creation_method	'MofGen! by Chris Wilmer'
_symmetry_space_group_name_H-M	'P1'
_symmetry_Int_Tables_number	1
_symmetry_cell_setting	triclinic
loop_
_symmetry_equiv_pos_as_xyz
  x,y,z
_cell_length_a	11.792241
_cell_length_b	10.967819
_cell_length_c	10.065918
_cell_angle_alpha	111.758108
_cell_angle_beta	80.243066
_cell_angle_gamma	95.541128
loop_
_atom_site_label
_atom_site_type_symbol
_atom_site_fract_x
_atom_site_fract_y
_atom_site_fract_z
O1	O	-0.227793	1.732422	0.520931
O2	O	0.272207	2.232422	1.020931
O3	O	-0.231383	1.356383	0.432491
O4	O	0.268617	1.856383	0.932491
O5	O	-0.064720	1.553529	0.478866
O6	O	0.435280	2.053529	0.978866
O7	O	-0.394455	1.535276	0.474556
O8	O	0.105545	2.035276	0.974556
O9	O	-0.033781	1.519396	0.243851
O10	O	0.466219	2.019396	0.743851
O11	O	-0.200444	1.322250	0.197476
O12	O	0.299556	1.822250	0.697476
O13	O	-0.196853	1.698289	0.285917
O14	O	0.303147	2.198289	0.785917
Zn15	Zn	-0.193736	1.504850	0.204383
Zn16	Zn	0.306264	2.004850	0.704383
Zn17	Zn	-0.234500	1.549822	0.514024
Zn18	Zn	0.265500	2.049822	1.014024
O19	O	-0.363516	1.501143	0.239542
O20	O	0.136484	2.001143	0.739542
C21	C	-0.213313	1.291176	0.303661
C22	C	0.286687	1.791176	0.803661
C23	C	-0.205552	1.147730	0.269925
C24	C	0.294448	1.647730	0.769925
C25	C	-0.210114	0.953211	0.341788
C26	C	0.289886	1.453211	0.841788
C27	C	-0.218126	1.101469	0.376647
C28	C	0.281874	1.601469	0.876647
C29	C	-0.421314	1.519356	0.357316
C30	C	0.078686	2.019356	0.857316
C31	C	-0.547441	1.522786	0.358117
C32	C	-0.047441	2.022786	0.858117
C33	C	-0.778366	1.529101	0.359637
C34	C	-0.278366	2.029101	0.859637
C35	C	-0.649863	1.525592	0.358793
C36	C	-0.149863	2.025592	0.858793
C37	C	-0.006923	1.535317	0.361094
C38	C	0.493077	2.035317	0.861094
C39	C	0.119203	1.531888	0.360302
C40	C	0.619203	2.031888	0.860302
C41	C	-0.214923	1.763497	0.414749
C42	C	0.285077	2.263497	0.914749
C43	C	-0.222686	1.906944	0.448495
C44	C	0.277314	2.406944	0.948495
N45	N	-0.165915	1.474168	-0.006937
N46	N	0.334085	1.974168	0.493063
C47	C	-0.224821	1.539138	-0.059440
C48	C	0.275179	2.039138	0.440560
C49	C	-0.203399	1.515535	-0.222157
C50	C	0.296601	2.015535	0.277843
N51	N	-0.262312	1.580514	0.725347
N52	N	0.237688	2.080514	1.225347
H53	H	-0.234828	1.171614	0.493819
H54	H	0.265172	1.671614	0.993819
H55	H	-0.193426	0.883060	0.224624
H56	H	0.306574	1.383060	0.724624
F57	F	-0.183737	1.056051	0.116771
F58	F	0.316263	1.556051	0.616771
H59	H	-0.239387	0.977092	0.565658
H60	H	0.260613	1.477092	1.065658
H61	H	-0.328604	1.653620	-0.199143
H62	H	0.171396	2.153620	0.300857
H63	H	-0.099623	1.401074	-0.082452
H64	H	0.400377	1.901074	0.417548
H65	H	-0.291106	1.612240	0.016077
H66	H	0.208894	2.112240	0.516077
H67	H	-0.137101	1.442437	-0.297667
H68	H	0.362899	1.942437	0.202333
