data_functionalizedCrystal
_audit_creation_method	'MofGen! by Chris Wilmer'
_symmetry_space_group_name_H-M	'P1'
_symmetry_Int_Tables_number	1
_symmetry_cell_setting	triclinic
loop_
_symmetry_equiv_pos_as_xyz
  x,y,z
_cell_length_a	12.784890
_cell_length_b	12.837942
_cell_length_c	16.176319
_cell_angle_alpha	89.999659
_cell_angle_beta	90.006060
_cell_angle_gamma	83.967749
loop_
_atom_site_label
_atom_site_type_symbol
_atom_site_fract_x
_atom_site_fract_y
_atom_site_fract_z
O1	O	1.410974	0.006419	0.068721
O2	O	1.105974	0.050414	0.068728
O3	O	1.251711	-0.121877	0.068720
O4	O	1.265237	0.178710	0.068730
O5	O	1.251687	-0.121866	-0.068773
O6	O	1.105951	0.050424	-0.068765
O7	O	1.410950	0.006430	-0.068772
Cu8	Cu	1.258448	0.028428	-0.081323
Cu9	Cu	1.258476	0.028416	0.081279
O10	O	1.265213	0.178720	-0.068764
C11	C	1.066653	0.053280	-0.000018
C12	C	0.949521	0.061794	-0.000015
C13	C	0.781351	0.168495	-0.000010
C14	C	0.891407	0.160502	-0.000011
C15	C	0.897572	-0.028928	-0.000017
C16	C	0.787516	-0.020935	-0.000016
C17	C	0.729410	0.077780	-0.000014
C18	C	0.619353	0.085771	-0.000020
C19	C	0.625519	-0.103657	-0.000020
C20	C	0.735575	-0.111650	-0.000020
C21	C	1.247130	-0.160080	-0.000026
C22	C	1.233502	-0.273929	-0.000025
C23	C	1.397334	-0.529655	-0.000011
C24	C	1.384534	-0.636627	-0.000009
C25	C	1.195104	-0.594847	-0.000014
C26	C	1.207904	-0.487875	-0.000015
C27	C	1.309022	-0.455284	-0.000015
C28	C	1.321820	-0.348309	-0.000023
C29	C	1.132391	-0.306531	-0.000021
C30	C	1.119592	-0.413503	-0.000020
C31	C	1.450272	0.003563	-0.000025
C32	C	1.567404	-0.004950	-0.000022
C33	C	1.269795	0.216924	-0.000016
C34	C	1.283422	0.330772	-0.000012
N35	N	1.258436	0.028436	-0.195688
C36	C	1.323039	-0.047867	-0.761074
C37	C	1.323036	-0.047859	-0.674527
C38	C	1.258482	0.028410	-0.631263
C39	C	1.193935	0.104684	-0.674551
C40	C	1.193945	0.104680	-0.761097
C41	C	1.193894	0.104702	-0.325523
C42	C	1.193886	0.104698	-0.238971
C43	C	1.322984	-0.047837	-0.238953
C44	C	1.322994	-0.047841	-0.325499
C45	C	1.258452	0.028435	-0.368779
C46	C	1.258459	0.028427	-0.462623
C47	C	1.258469	0.028415	-0.537421
N48	N	1.258496	0.028399	0.195644
H49	H	0.944901	-0.109296	-0.000012
F50	F	1.038397	-0.227370	-0.000034
H51	H	0.933693	0.234372	-0.000009
F52	F	1.011980	-0.448201	-0.000013
H53	H	1.375556	-0.109950	-0.360722
F54	F	1.391680	-0.129016	-0.192885
F55	F	1.391743	-0.129050	-0.807111
H56	H	0.734040	0.248872	-0.000019
H57	H	0.572044	0.166150	-0.000023
H58	H	1.375593	-0.109960	-0.639288
H59	H	0.583217	-0.177525	0.000042
F60	F	1.125201	0.185877	-0.371578
F61	F	1.478528	-0.715777	-0.000003
F62	F	1.125236	0.185861	-0.628506
H63	H	0.782900	-0.192020	-0.000019
H64	H	1.404156	-0.321777	-0.000026
F65	F	1.125177	0.185880	-0.192928
F66	F	1.504949	-0.494967	-0.000028
H67	H	1.112778	-0.621402	-0.000005
H68	H	1.141389	0.166784	-0.796336
