data_functionalizedCrystal
_audit_creation_method	'MofGen! by Chris Wilmer'
_symmetry_space_group_name_H-M	'P1'
_symmetry_Int_Tables_number	1
_symmetry_cell_setting	triclinic
loop_
_symmetry_equiv_pos_as_xyz
  x,y,z
_cell_length_a	12.759401
_cell_length_b	12.759400
_cell_length_c	12.759393
_cell_angle_alpha	89.968436
_cell_angle_beta	90.018496
_cell_angle_gamma	89.985155
loop_
_atom_site_label
_atom_site_type_symbol
_atom_site_fract_x
_atom_site_fract_y
_atom_site_fract_z
Zn1	Zn	1.606255	0.418200	0.593981
Zn2	Zn	2.106255	0.918200	1.093981
Zn3	Zn	1.606150	0.593919	0.418301
Zn4	Zn	2.106150	1.093919	0.918301
Zn5	Zn	1.430557	0.418255	0.418321
Zn6	Zn	1.930557	0.918255	0.918321
Zn7	Zn	1.430546	0.593838	0.593943
Zn8	Zn	1.930546	1.093838	1.093943
O9	O	1.518377	0.506053	0.506137
O10	O	2.018377	1.006053	1.006137
O11	O	1.753262	0.441520	0.570685
O12	O	2.253262	0.941520	1.070685
O13	O	1.582818	0.570673	0.271283
O14	O	2.082818	1.070673	0.771283
O15	O	1.453913	0.271226	0.441647
O16	O	1.953913	0.771226	0.941647
O17	O	1.753185	0.570620	0.441614
O18	O	2.253185	1.070620	0.941614
O19	O	1.582998	0.271186	0.570704
O20	O	2.082998	0.771186	1.070704
O21	O	1.453811	0.441614	0.271297
O22	O	1.953811	0.941614	0.771297
O23	O	1.283535	0.441535	0.441609
O24	O	1.783535	0.941535	0.941609
O25	O	1.453894	0.570482	0.740969
O26	O	1.953894	1.070482	1.240969
O27	O	1.283527	0.570536	0.570638
O28	O	1.783527	1.070536	1.070638
O29	O	1.582987	0.441442	0.740997
O30	O	2.082987	0.941442	1.240997
O31	O	1.582807	0.740929	0.441577
O32	O	2.082807	1.240929	0.941577
O33	O	1.453791	0.740870	0.570620
O34	O	1.953791	1.240870	1.070620
C35	C	1.245410	0.506033	0.506122
C36	C	1.745410	1.006033	1.006122
C37	C	1.128633	0.506050	0.506141
C38	C	1.628633	1.006050	1.006141
C39	C	1.518315	0.779020	0.506115
C40	C	2.018315	1.279020	1.006115
C41	C	1.518384	0.895797	0.506140
C42	C	2.018384	1.395797	1.006140
C43	C	1.073794	0.573328	0.573215
C44	C	1.573794	1.073328	1.073215
C45	C	0.964070	0.573342	0.573227
C46	C	1.464070	1.073342	1.073227
C47	C	0.964034	0.438796	0.439081
C48	C	1.464034	0.938796	0.939081
C49	C	1.073756	0.438778	0.439075
C50	C	1.573756	0.938778	0.939075
C51	C	1.128672	0.640600	0.640281
C52	C	1.628672	1.140600	1.140281
C53	C	1.073833	0.707885	0.707360
C54	C	1.573833	1.207885	1.207360
C55	C	0.964109	0.707898	0.707371
C56	C	1.464109	1.207898	1.207371
C57	C	0.909224	0.640627	0.640304
C58	C	1.409224	1.140627	1.140304
C59	C	1.518451	0.505947	0.780170
C60	C	2.018451	1.005947	1.280170
C61	C	1.518482	0.505902	0.896947
C62	C	2.018482	1.005902	1.396947
C63	C	1.792410	0.506073	0.506152
C64	C	2.292410	1.006073	1.006152
C65	C	1.909187	0.506082	0.506158
C66	C	2.409187	1.006082	1.006158
C67	C	1.518468	0.232019	0.506182
C68	C	2.018468	0.732019	1.006182
C69	C	1.518507	0.115243	0.506201
C70	C	2.018507	0.615243	1.006201
C71	C	1.585637	0.950655	0.439022
C72	C	2.085637	1.450655	0.939022
C73	C	1.585702	1.060379	0.439054
C74	C	2.085702	1.560379	0.939054
C75	C	1.451252	1.060377	0.573327
C76	C	1.951252	1.560377	1.073327
C77	C	1.451193	0.950655	0.573299
C78	C	1.951193	1.450655	1.073299
C79	C	1.652828	0.895797	0.371864
C80	C	2.152828	1.395797	0.871864
C81	C	1.720086	0.950655	0.304739
C82	C	2.220086	1.450655	0.804739
C83	C	1.720150	1.060379	0.304771
C84	C	2.220150	1.560379	0.804771
C85	C	1.652957	1.115245	0.371929
C86	C	2.152957	1.615245	0.871929
C87	C	1.518364	0.506083	0.233169
C88	C	2.018364	1.006083	0.733169
C89	C	1.518537	0.505832	0.116393
C90	C	2.018537	1.005832	0.616393
C91	C	1.585710	0.438704	0.951825
C92	C	2.085710	0.938704	1.451825
C93	C	1.585735	0.438666	1.061549
C94	C	2.085735	0.938666	1.561549
C95	C	1.451301	0.573033	1.061507
C96	C	1.951301	1.073033	1.561507
C97	C	1.451272	0.573064	0.951785
C98	C	1.951272	1.073064	1.451785
C99	C	1.652920	0.371541	0.896987
C100	C	2.152920	0.871541	1.396987
C101	C	1.720155	0.304339	0.951866
C102	C	2.220155	0.804339	1.451866
C103	C	1.720180	0.304301	1.061590
C104	C	2.220180	0.804301	1.561590
C105	C	1.652970	0.371465	1.116436
C106	C	2.152970	0.871465	1.616436
H107	H	1.218015	0.640599	0.640277
H108	H	1.718015	1.140599	1.140277
Cl109	Cl	1.142701	0.354199	0.354752
Cl110	Cl	1.642701	0.854199	0.854752
Cl111	Cl	1.804562	0.881683	0.220328
Cl112	Cl	2.304562	1.381683	0.720328
H113	H	1.653024	1.204589	0.371958
H114	H	2.153024	1.704589	0.871958
Cl115	Cl	1.652990	0.371400	1.254376
Cl116	Cl	2.152990	0.871400	1.754376
Cl117	Cl	1.804710	1.129341	0.220397
Cl118	Cl	2.304710	1.629341	0.720397
H119	H	0.919462	0.762676	0.761998
H120	H	1.419462	1.262676	1.261998
H121	H	1.652780	0.806454	0.371827
H122	H	2.152780	1.306454	0.871827
Cl123	Cl	1.804704	0.219823	1.130577
Cl124	Cl	2.304704	0.719823	1.630577
H125	H	1.118528	0.762647	0.761970
H126	H	1.618528	1.262647	1.261970
H127	H	1.396545	1.105058	0.628002
H128	H	1.896545	1.605058	1.128002
H129	H	1.396431	0.905989	0.627954
H130	H	1.896431	1.405989	1.127954
Cl131	Cl	1.366820	0.657466	1.130457
Cl132	Cl	1.866820	1.157466	1.630457
Cl133	Cl	1.804625	0.219892	0.882919
Cl134	Cl	2.304625	0.719892	1.382919
H135	H	1.396513	0.627767	0.907102
H136	H	1.896513	1.127767	1.407102
H137	H	0.819879	0.640634	0.640328
H138	H	1.319879	1.140634	1.140328
Cl139	Cl	0.895034	0.354237	0.354771
Cl140	Cl	1.395034	0.854237	0.854771
H141	H	1.652910	0.371567	0.807644
H142	H	2.152910	0.871567	1.307644
