data_functionalizedCrystal
_audit_creation_method	'MofGen! by Chris Wilmer'
_symmetry_space_group_name_H-M	'P1'
_symmetry_Int_Tables_number	1
_symmetry_cell_setting	triclinic
loop_
_symmetry_equiv_pos_as_xyz
  x,y,z
_cell_length_a	11.026607
_cell_length_b	17.699083
_cell_length_c	16.776229
_cell_angle_alpha	90.001114
_cell_angle_beta	89.996140
_cell_angle_gamma	84.065484
loop_
_atom_site_label
_atom_site_type_symbol
_atom_site_fract_x
_atom_site_fract_y
_atom_site_fract_z
O1	O	0.153399	-1.025155	-0.066172
O2	O	0.653399	-0.525155	0.433828
O3	O	0.173356	-0.807518	-0.066197
O4	O	0.673356	-0.307518	0.433803
O5	O	-0.013222	-0.898299	-0.066184
O6	O	0.486778	-0.398299	0.433816
O7	O	0.339978	-0.934374	-0.066186
O8	O	0.839978	-0.434374	0.433814
O9	O	-0.013234	-0.898282	0.066393
O10	O	0.486766	-0.398282	0.566393
O11	O	0.173345	-0.807501	0.066379
O12	O	0.673345	-0.307501	0.566379
O13	O	0.153387	-1.025138	0.066405
O14	O	0.653387	-0.525138	0.566405
Zn15	Zn	0.163364	-0.916317	0.087441
Zn16	Zn	0.663364	-0.416317	0.587441
Zn17	Zn	0.163379	-0.916339	-0.087234
Zn18	Zn	0.663379	-0.416339	0.412766
O19	O	0.339966	-0.934357	0.066391
O20	O	0.839966	-0.434357	0.566391
C21	C	0.172636	-0.779214	0.000087
C22	C	0.672636	-0.279214	0.500087
C23	C	0.170490	-0.694902	0.000078
C24	C	0.670490	-0.194902	0.500078
C25	C	-0.058419	-0.891635	0.000103
C26	C	0.441581	-0.391635	0.500103
C27	C	-0.193075	-0.871796	0.000097
C28	C	0.306925	-0.371796	0.500097
C29	C	0.154108	-1.053441	0.000118
C30	C	0.654108	-0.553441	0.500118
C31	C	0.156254	-1.137754	0.000123
C32	C	0.656254	-0.637754	0.500123
C33	C	-0.267042	-0.926576	0.000103
C34	C	0.232958	-0.426576	0.500103
C35	C	-0.406216	-0.906072	0.000097
C36	C	0.093784	-0.406072	0.500097
C37	C	0.385163	-0.941021	0.000103
C38	C	0.885163	-0.441021	0.500103
C39	C	0.519819	-0.960860	0.000103
C40	C	1.019819	-0.460860	0.500103
N41	N	0.163353	-0.916307	0.206652
N42	N	0.663353	-0.416307	0.706652
C43	C	0.280008	-0.661328	0.000077
C44	C	0.780008	-0.161328	0.500077
C45	C	0.277985	-0.582106	0.000088
C46	C	0.777985	-0.082106	0.500088
C47	C	0.166443	-0.536460	0.000092
C48	C	0.666443	-0.036460	0.500092
C49	C	0.056917	-0.570039	0.000095
C50	C	0.556917	-0.070039	0.500095
C51	C	0.058941	-0.649259	0.000090
C52	C	0.558941	-0.149259	0.500090
C53	C	0.048751	-0.250554	0.000115
C54	C	0.548751	0.249446	0.500115
C55	C	0.046735	-0.171329	0.000117
C56	C	0.546735	0.328671	0.500117
C57	C	0.267794	-0.183402	0.000112
C58	C	0.767794	0.316598	0.500112
C59	C	0.269819	-0.262621	0.000107
C60	C	0.769819	0.237379	0.500107
C61	C	0.160293	-0.296194	0.000114
C62	C	0.660293	0.203806	0.500114
C63	C	0.162488	-0.382094	0.000104
C64	C	0.662488	0.117906	0.500104
C65	C	0.164247	-0.450561	0.000096
C66	C	0.664247	0.049439	0.500096
N67	N	0.163381	-0.916354	-0.206445
N68	N	0.663381	-0.416354	0.293555
C69	C	0.080770	-0.956525	0.248375
C70	C	0.580770	-0.456525	0.748375
C71	C	0.080769	-0.956529	0.331828
C72	C	0.580769	-0.456529	0.831828
C73	C	0.163358	-0.916319	0.373555
C74	C	0.663358	-0.416319	0.873555
C75	C	0.245945	-0.876096	0.331826
C76	C	0.745945	-0.376096	0.831826
C77	C	0.245939	-0.876088	0.248376
C78	C	0.745939	-0.376088	0.748376
C79	C	0.245969	-0.876127	0.668374
C80	C	0.745969	-0.376127	1.168374
C81	C	0.245971	-0.876140	0.751830
C82	C	0.745971	-0.376140	1.251830
C83	C	0.080799	-0.956568	0.751826
C84	C	0.580799	-0.456568	1.251826
C85	C	0.080793	-0.956560	0.668375
C86	C	0.580793	-0.456560	1.168375
C87	C	0.163375	-0.916334	0.626653
C88	C	0.663375	-0.416334	1.126653
C89	C	0.163374	-0.916329	0.536165
C90	C	0.663374	-0.416329	1.036165
C91	C	0.163366	-0.916328	0.464042
C92	C	0.663366	-0.416328	0.964042
H93	H	-0.445918	-0.843990	0.000085
H94	H	0.054082	-0.343990	0.500085
N95	N	-0.245649	-0.789562	0.000094
N96	N	0.254351	-0.289562	0.500094
H97	H	-0.217270	-0.763513	-0.049053
H98	H	0.282730	-0.263513	0.450947
H99	H	-0.337609	-0.786632	0.000124
H100	H	0.162391	-0.286632	0.500124
N101	N	-0.008299	-0.999920	0.623371
N102	N	0.491701	-0.499920	1.123371
H103	H	0.004228	-0.993811	0.564175
H104	H	0.504228	-0.493811	1.064175
H105	H	0.005598	-1.055506	0.637947
H106	H	0.505598	-0.555506	1.137947
H107	H	-0.044102	-0.134166	0.000122
H108	H	0.455898	0.365834	0.500122
H109	H	0.367165	-0.554775	0.000086
H110	H	0.867165	-0.054775	0.500086
H111	H	-0.440480	-1.022943	0.000050
H112	H	0.059520	-0.522943	0.500050
N113	N	0.335022	-0.832730	0.376836
N114	N	0.835022	-0.332730	0.876836
H115	H	0.421097	-0.853168	0.362303
H116	H	0.921097	-0.353168	0.862303
H117	H	0.321053	-0.777135	0.362307
H118	H	0.821053	-0.277135	0.862307
N119	N	-0.008320	-0.999879	0.203364
N120	N	0.491680	-0.499879	0.703364
H121	H	0.037955	-1.039691	0.168727
H122	H	0.537955	-0.539691	0.668727
H123	H	-0.060627	-1.025307	0.242505
H124	H	0.439373	-0.525307	0.742505
N125	N	-0.214457	-1.008808	0.000120
N126	N	0.285543	-0.508808	0.500120
H127	H	-0.242841	-1.034849	0.049270
H128	H	0.257159	-0.534849	0.549270
H129	H	-0.242834	-1.034807	-0.049054
H130	H	0.257166	-0.534807	0.450946
N131	N	0.400315	-0.710558	0.000063
N132	N	0.900315	-0.210558	0.500063
H133	H	0.469386	-0.677264	0.000065
H134	H	0.969386	-0.177264	0.500065
H135	H	0.405971	-0.743693	0.049207
H136	H	0.905971	-0.243693	0.549207
N137	N	0.390123	-0.311854	0.000091
N138	N	0.890123	0.188146	0.500091
H139	H	0.459198	-0.278563	0.000092
H140	H	0.959198	0.221437	0.500092
H141	H	0.395778	-0.344989	0.049235
H142	H	0.895778	0.155011	0.549235
H143	H	-0.040432	-0.277879	0.000121
H144	H	0.459568	0.222121	0.500121
H145	H	0.013552	-0.989319	0.785804
H146	H	0.513552	-0.489319	1.285804
H147	H	-0.033903	-0.532868	0.000110
H148	H	0.466097	-0.032868	0.500110
H149	H	0.013523	-0.989277	0.365798
H150	H	0.513523	-0.489277	0.865798
H151	H	0.356975	-0.156058	0.000111
H152	H	0.856975	0.343942	0.500111
H153	H	-0.030240	-0.676594	0.000090
H154	H	0.469760	-0.176594	0.500090
H155	H	0.313227	-0.843393	0.785803
H156	H	0.813227	-0.343393	1.285803
N157	N	0.335029	-0.832738	0.623380
N158	N	0.835029	-0.332738	1.123380
H159	H	0.387348	-0.807268	0.662479
H160	H	0.887348	-0.307268	1.162479
H161	H	0.388601	-0.868998	0.588743
H162	H	0.888601	-0.368998	1.088743
N163	N	0.335004	-0.832706	0.203370
N164	N	0.835004	-0.332706	0.703370
H165	H	0.387326	-0.807234	0.242466
H166	H	0.887326	-0.307234	0.742466
H167	H	0.388573	-0.868969	0.168735
H168	H	0.888573	-0.368969	0.668735
