data_functionalizedCrystal
_audit_creation_method	'MofGen! by Chris Wilmer'
_symmetry_space_group_name_H-M	'P1'
_symmetry_Int_Tables_number	1
_symmetry_cell_setting	triclinic
loop_
_symmetry_equiv_pos_as_xyz
  x,y,z
_cell_length_a	10.654559
_cell_length_b	14.519731
_cell_length_c	13.596369
_cell_angle_alpha	90.001373
_cell_angle_beta	90.006431
_cell_angle_gamma	84.088755
loop_
_atom_site_label
_atom_site_type_symbol
_atom_site_fract_x
_atom_site_fract_y
_atom_site_fract_z
O1	O	1.666606	0.129565	0.081805
O2	O	1.301011	0.141897	0.081805
O3	O	1.493488	0.001544	0.081796
O4	O	1.474129	0.269918	0.081814
O5	O	1.493464	0.001552	-0.081787
O6	O	1.300988	0.141905	-0.081778
O7	O	1.666582	0.129573	-0.081778
Zn8	Zn	1.483781	0.135740	-0.107750
Zn9	Zn	1.483812	0.135730	0.107777
O10	O	1.474106	0.269926	-0.081769
C11	C	1.254210	0.140994	0.000013
C12	C	1.114793	0.138279	0.000013
C13	C	1.064064	0.053091	0.000006
C14	C	0.933066	0.050546	0.000015
C15	C	0.903537	0.218386	0.000032
C16	C	1.034533	0.220930	0.000031
C17	C	0.771790	-0.053754	0.057320
C18	C	0.721057	-0.138947	0.057296
C19	C	0.776598	-0.212210	-0.000033
C20	C	0.882870	-0.200282	-0.057363
C21	C	0.933596	-0.115088	-0.057348
C22	C	0.878058	-0.041829	0.000004
C23	C	1.195812	0.325224	-0.057282
C24	C	1.246541	0.410419	-0.057274
C25	C	1.191001	0.483690	0.000049
C26	C	1.084723	0.471772	0.057364
C27	C	1.033995	0.386576	0.057356
C28	C	1.089543	0.313305	0.000035
C29	C	1.492569	-0.032816	0.000004
C30	C	1.489851	-0.135210	0.000004
C31	C	1.487642	-0.218366	0.000006
C32	C	1.484882	-0.322689	0.000014
C33	C	1.482692	-0.405839	0.000020
C34	C	1.479933	-0.510169	0.000026
C35	C	1.713383	0.130476	0.000016
C36	C	1.852800	0.133191	0.000023
C37	C	1.475025	0.304286	0.000025
C38	C	1.477743	0.406680	0.000032
N39	N	1.483769	0.135747	-0.254842
C40	C	1.483775	0.135749	-0.343840
C41	C	1.483787	0.135742	-0.455491
C42	C	1.483804	0.135732	-0.544482
C43	C	1.483818	0.135727	-0.656140
N44	N	1.483834	0.135716	0.254869
H45	H	0.634528	-0.148652	0.103980
H46	H	1.232308	0.553063	0.000041
H47	H	1.129409	-0.014209	-0.000004
H48	H	1.241052	0.265561	-0.103957
C49	C	0.815248	0.309294	0.000038
H50	H	0.729966	0.295579	0.000027
H51	H	0.830656	0.344191	0.057084
H52	H	0.830645	0.344190	-0.057013
H53	H	0.928077	-0.259941	-0.104052
C54	C	0.720800	-0.305922	-0.000052
H55	H	0.649563	-0.302534	0.042305
H56	H	0.695759	-0.320051	-0.064920
H57	H	0.782657	-0.352994	0.022475
H58	H	0.726568	0.005893	0.104016
C59	C	1.050483	-0.101963	-0.120401
H60	H	1.076300	-0.157798	-0.154549
H61	H	1.030193	-0.053523	-0.166467
H62	H	1.117085	-0.086487	-0.079075
H63	H	1.333074	0.420121	-0.103953
H64	H	0.947452	0.376878	0.104025
C65	C	1.023630	0.552364	0.120428
H66	H	1.069071	0.604806	0.112233
H67	H	0.938630	0.567481	0.100286
H68	H	1.025524	0.534527	0.187680
