data_functionalizedCrystal
_audit_creation_method	'MofGen! by Chris Wilmer'
_symmetry_space_group_name_H-M	'P1'
_symmetry_Int_Tables_number	1
_symmetry_cell_setting	triclinic
loop_
_symmetry_equiv_pos_as_xyz
  x,y,z
_cell_length_a	19.805407
_cell_length_b	29.839131
_cell_length_c	19.805399
_cell_angle_alpha	89.970435
_cell_angle_beta	89.980427
_cell_angle_gamma	90.041420
loop_
_atom_site_label
_atom_site_type_symbol
_atom_site_fract_x
_atom_site_fract_y
_atom_site_fract_z
Zn1	Zn	1.034665	-0.178864	-0.382710
Zn2	Zn	1.367998	0.154470	-0.049377
Zn3	Zn	1.701332	0.487803	0.283956
Zn4	Zn	1.034550	-0.253991	-0.269518
Zn5	Zn	1.367884	0.079342	0.063815
Zn6	Zn	1.701217	0.412675	0.397149
Zn7	Zn	0.921480	-0.178876	-0.269535
Zn8	Zn	1.254813	0.154457	0.063798
Zn9	Zn	1.588146	0.487791	0.397132
Zn10	Zn	0.921414	-0.253967	-0.382665
Zn11	Zn	1.254747	0.079366	-0.049332
Zn12	Zn	1.588080	0.412699	0.284002
O13	O	0.978027	-0.216425	-0.326107
O14	O	1.311360	0.116909	0.007226
O15	O	1.644694	0.450242	0.340560
O16	O	1.129366	-0.188834	-0.367707
O17	O	1.462700	0.144499	-0.034374
O18	O	1.796033	0.477832	0.298960
O19	O	1.019531	-0.244042	-0.174804
O20	O	1.352864	0.089291	0.158530
O21	O	1.686197	0.422624	0.491863
O22	O	0.936570	-0.116007	-0.284574
O23	O	1.269903	0.217326	0.048759
O24	O	1.603236	0.550659	0.382093
O25	O	1.129282	-0.244030	-0.284545
O26	O	1.462615	0.089303	0.048788
O27	O	1.795949	0.422636	0.382121
O28	O	1.019727	-0.115998	-0.367723
O29	O	1.353060	0.217335	-0.034390
O30	O	1.686393	0.550668	0.298943
O31	O	0.936458	-0.188856	-0.174816
O32	O	1.269792	0.144478	0.158517
O33	O	1.603125	0.477811	0.491851
O34	O	0.826754	-0.188832	-0.284530
O35	O	1.160088	0.144501	0.048804
O36	O	1.493421	0.477834	0.382137
O37	O	0.936457	-0.243990	-0.477388
O38	O	1.269790	0.089344	-0.144054
O39	O	1.603124	0.422677	0.189279
O40	O	0.826706	-0.244002	-0.367646
O41	O	1.160039	0.089332	-0.034313
O42	O	1.493372	0.422665	0.299021
O43	O	1.019662	-0.188811	-0.477421
O44	O	1.352996	0.144522	-0.144088
O45	O	1.686329	0.477855	0.189246
O46	O	1.019467	-0.316855	-0.284501
O47	O	1.352800	0.016478	0.048832
O48	O	1.686133	0.349811	0.382165
O49	O	0.936346	-0.316838	-0.367630
O50	O	1.269679	0.016496	-0.034296
O51	O	1.603012	0.349829	0.299037
C52	C	0.802171	-0.216416	-0.326085
C53	C	1.135504	0.116917	0.007248
C54	C	1.468838	0.450251	0.340582
C55	C	0.726939	-0.216423	-0.326092
C56	C	1.060272	0.116910	0.007241
C57	C	1.393606	0.450243	0.340575
C58	C	0.691587	-0.245193	-0.369300
C59	C	1.024921	0.088140	-0.035967
C60	C	1.358254	0.421474	0.297366
C61	C	0.620899	-0.245194	-0.369310
C62	C	0.954232	0.088139	-0.035977
C63	C	1.287566	0.421473	0.297357
C64	C	0.585564	-0.216427	-0.326107
C65	C	0.918897	0.116907	0.007226
C66	C	1.252230	0.450240	0.340560
C67	C	0.620920	-0.187654	-0.282897
C68	C	0.954254	0.145680	0.050437
C69	C	1.287587	0.479013	0.383770
C70	C	0.691607	-0.187651	-0.282891
C71	C	1.024941	0.145682	0.050442
C72	C	1.358274	0.479016	0.383776
C73	C	0.335847	-0.187664	-0.282919
C74	C	0.669180	0.145670	0.050414
C75	C	1.002514	0.479003	0.383748
C76	C	0.265155	-0.187669	-0.282927
C77	C	0.598488	0.145664	0.050407
C78	C	0.931822	0.478997	0.383740
C79	C	0.265139	-0.245207	-0.369338
C80	C	0.598472	0.088127	-0.036005
C81	C	0.931805	0.421460	0.297329
C82	C	0.335826	-0.245204	-0.369332
C83	C	0.669159	0.088130	-0.035999
C84	C	1.002492	0.421463	0.297334
C85	C	0.371176	-0.216429	-0.326125
C86	C	0.704510	0.116904	0.007209
C87	C	1.037843	0.450237	0.340542
C88	C	0.447825	-0.216428	-0.326116
C89	C	0.781158	0.116905	0.007218
C90	C	1.114491	0.450238	0.340551
C91	C	0.508916	-0.216430	-0.326112
C92	C	0.842250	0.116904	0.007221
C93	C	1.175583	0.450237	0.340555
C94	C	0.977905	-0.333147	-0.326073
C95	C	1.311238	0.000186	0.007260
C96	C	1.644572	0.333519	0.340593
C97	C	0.977915	-0.383082	-0.326082
C98	C	1.311248	-0.049748	0.007252
C99	C	1.644581	0.283585	0.340585
C100	C	1.021387	-0.692722	-0.282885
C101	C	1.354720	-0.359388	0.050448
C102	C	1.688054	-0.026055	0.383781
C103	C	1.021471	-0.880395	-0.282912
C104	C	1.354804	-0.547061	0.050422
C105	C	1.688137	-0.213728	0.383755
O106	O	1.058335	-0.904656	-0.246159
O107	O	1.391669	-0.571323	0.087175
O108	O	1.725002	-0.237990	0.420508
N109	N	0.978168	-0.903867	-0.326158
N110	N	1.311501	-0.570533	0.007175
N111	N	1.644834	-0.237200	0.340509
C112	C	0.934844	-0.880418	-0.369404
C113	C	1.268177	-0.547084	-0.036071
C114	C	1.601510	-0.213751	0.297262
O115	O	0.898019	-0.904688	-0.406194
O116	O	1.231352	-0.571355	-0.072860
O117	O	1.564685	-0.238022	0.260473
C118	C	0.934764	-0.692746	-0.369381
C119	C	1.268097	-0.359412	-0.036048
C120	C	1.601431	-0.026079	0.297286
C121	C	0.978065	-0.669276	-0.326127
C122	C	1.311398	-0.335942	0.007207
C123	C	1.644732	-0.002609	0.340540
C124	C	1.064685	-0.669252	-0.239635
C125	C	1.398018	-0.335918	0.093698
C126	C	1.731352	-0.002585	0.427031
C127	C	1.064661	-0.622336	-0.239626
C128	C	1.397994	-0.289003	0.093707
C129	C	1.731328	0.044330	0.427040
C130	C	1.021339	-0.598891	-0.282868
C131	C	1.354672	-0.265557	0.050465
C132	C	1.688006	0.067776	0.383799
C133	C	0.978041	-0.622360	-0.326118
C134	C	1.311374	-0.289027	0.007215
C135	C	1.644708	0.044306	0.340549
C136	C	0.891444	-0.669297	-0.412630
C137	C	1.224777	-0.335964	-0.079297
C138	C	1.558111	-0.002631	0.254037
C139	C	0.891429	-0.622376	-0.412621
C140	C	1.224763	-0.289043	-0.079288
C141	C	1.558096	0.044290	0.254045
C142	C	0.934730	-0.598907	-0.369367
C143	C	1.268064	-0.265573	-0.036034
C144	C	1.601397	0.067760	0.297299
C145	C	0.934695	-0.551999	-0.369351
C146	C	1.268029	-0.218666	-0.036017
C147	C	1.601362	0.114667	0.297316
N148	N	0.977998	-0.528527	-0.326104
N149	N	1.311332	-0.195194	0.007229
N150	N	1.644665	0.138140	0.340563
C151	C	1.021320	-0.551973	-0.282863
C152	C	1.354654	-0.218639	0.050471
C153	C	1.687987	0.114694	0.383804
C154	C	0.934888	-0.978948	-0.369412
C155	C	1.268221	-0.645615	-0.036079
C156	C	1.601554	-0.312282	0.297254
C157	C	0.934907	-1.025866	-0.369418
C158	C	1.268240	-0.692533	-0.036084
C159	C	1.601573	-0.359199	0.297249
C160	C	1.021534	-1.025840	-0.282926
C161	C	1.354868	-0.692506	0.050408
C162	C	1.688201	-0.359173	0.383741
C163	C	1.021512	-0.978921	-0.282918
C164	C	1.354845	-0.645588	0.050416
C165	C	1.688178	-0.312254	0.383749
C166	C	0.978191	-0.955476	-0.326166
C167	C	1.311524	-0.622143	0.007167
C168	C	1.644857	-0.288810	0.340501
C169	C	1.021266	-0.453447	-0.282847
C170	C	1.354600	-0.120114	0.050486
C171	C	1.687933	0.213220	0.383819
C172	C	1.021237	-0.406527	-0.282840
C173	C	1.354570	-0.073194	0.050493
C174	C	1.687903	0.260139	0.383826
C175	C	0.934611	-0.406558	-0.369334
C176	C	1.267945	-0.073225	-0.036001
C177	C	1.601278	0.260109	0.297332
C178	C	0.934638	-0.453473	-0.369339
C179	C	1.267972	-0.120140	-0.036006
C180	C	1.601305	0.213193	0.297328
C181	C	0.977971	-0.476917	-0.326093
C182	C	1.311305	-0.143583	0.007240
C183	C	1.644638	0.189750	0.340573
O184	O	0.897855	-0.527708	-0.406090
O185	O	1.231188	-0.194375	-0.072756
O186	O	1.564522	0.138958	0.260577
O187	O	1.058150	-0.527694	-0.246090
O188	O	1.391484	-0.194361	0.087244
O189	O	1.724817	0.138973	0.420577
C190	C	1.021411	-0.739637	-0.282894
C191	C	1.354744	-0.406304	0.050439
C192	C	1.688078	-0.072970	0.383773
C193	C	0.978113	-0.763107	-0.326144
C194	C	1.311446	-0.429773	0.007189
C195	C	1.644780	-0.096440	0.340522
C196	C	0.934791	-0.739661	-0.369386
C197	C	1.268124	-0.406328	-0.036052
C198	C	1.601458	-0.072994	0.297281
C199	C	0.978132	-0.810025	-0.326149
C200	C	1.311465	-0.476691	0.007184
C201	C	1.644798	-0.143358	0.340517
C202	C	1.021454	-0.833470	-0.282908
C203	C	1.354787	-0.500137	0.050425
C204	C	1.688120	-0.166804	0.383759
C205	C	1.064757	-0.809998	-0.239661
C206	C	1.398090	-0.476665	0.093672
C207	C	1.731423	-0.143331	0.427005
C208	C	1.064733	-0.763083	-0.239653
C209	C	1.398066	-0.429749	0.093681
C210	C	1.731399	-0.096416	0.427014
C211	C	0.891488	-0.763133	-0.412632
C212	C	1.224821	-0.429800	-0.079299
C213	C	1.558155	-0.096466	0.254035
C214	C	0.891515	-0.810049	-0.412637
C215	C	1.224848	-0.476715	-0.079303
C216	C	1.558182	-0.143382	0.254030
C217	C	0.934837	-0.833494	-0.369395
C218	C	1.268170	-0.500161	-0.036062
C219	C	1.601503	-0.166828	0.297271
C220	C	1.154570	-0.216434	-0.326129
C221	C	1.487903	0.116900	0.007204
C222	C	1.821237	0.450233	0.340537
C223	C	1.229802	-0.216437	-0.326139
C224	C	1.563135	0.116896	0.007194
C225	C	1.896468	0.450229	0.340528
C226	C	0.978065	-0.216396	-0.502650
C227	C	1.311398	0.116937	-0.169317
C228	C	1.644732	0.450270	0.164017
C229	C	0.978081	-0.216384	-0.577882
C230	C	1.311415	0.116949	-0.244549
C231	C	1.644748	0.450282	0.088785
C232	C	0.978168	-0.099246	-0.326156
C233	C	1.311502	0.234087	0.007178
C234	C	1.644835	0.567420	0.340511
C235	C	0.978228	-0.049312	-0.326176
C236	C	1.311562	0.284022	0.007157
C237	C	1.644895	0.617355	0.340490
C238	C	1.021407	-0.187652	-0.613244
C239	C	1.354741	0.145682	-0.279911
C240	C	1.688074	0.479015	0.053422
C241	C	1.021414	-0.187638	-0.683933
C242	C	1.354748	0.145695	-0.350600
C243	C	1.688081	0.479028	-0.017266
C244	C	0.978098	-0.216361	-0.719258
C245	C	1.311431	0.116972	-0.385924
C246	C	1.644765	0.450306	-0.052591
C247	C	0.934767	-0.245095	-0.683890
C248	C	1.268101	0.088238	-0.350557
C249	C	1.601434	0.421572	-0.017223
C250	C	0.934757	-0.245105	-0.613203
C251	C	1.268091	0.088228	-0.279869
C252	C	1.601424	0.421561	0.053464
C253	C	0.934806	-0.245053	-0.968963
C254	C	1.268139	0.088280	-0.635630
C255	C	1.601472	0.421614	-0.302297
C256	C	0.934820	-0.245041	-1.039656
C257	C	1.268154	0.088292	-0.706322
C258	C	1.601487	0.421625	-0.372989
C259	C	1.021462	-0.187586	-1.039694
C260	C	1.354796	0.145747	-0.706360
C261	C	1.688129	0.479081	-0.373027
C262	C	1.021453	-0.187597	-0.969006
C263	C	1.354786	0.145737	-0.635673
C264	C	1.688119	0.479070	-0.302340
C265	C	0.978120	-0.216329	-0.933645
C266	C	1.311453	0.117005	-0.600312
C267	C	1.644786	0.450338	-0.266978
C268	C	0.978112	-0.216342	-0.856997
C269	C	1.311445	0.116991	-0.523663
C270	C	1.644778	0.450325	-0.190330
C271	C	0.978109	-0.216350	-0.795905
C272	C	1.311442	0.116983	-0.462571
C273	C	1.644776	0.450316	-0.129238
C274	C	0.978028	-0.216420	-0.150251
C275	C	1.311362	0.116913	0.183082
C276	C	1.644695	0.450246	0.516416
C277	C	0.978143	-0.216306	-0.075019
C278	C	1.311477	0.117027	0.258314
C279	C	1.644810	0.450361	0.591647
H280	H	0.592119	-0.268622	-0.404494
H281	H	0.925452	0.064712	-0.071161
H282	H	1.258785	0.398045	0.262173
Cl283	Cl	0.736050	-0.151480	-0.228571
Cl284	Cl	1.069383	0.181853	0.104762
Cl285	Cl	1.402717	0.515186	0.438096
Cl286	Cl	1.075869	-0.151543	-0.568843
Cl287	Cl	1.409202	0.181790	-0.235510
Cl288	Cl	1.742535	0.515123	0.097823
H289	H	0.856153	-0.603290	-0.447842
H290	H	1.189486	-0.269956	-0.114508
H291	H	1.522819	0.063377	0.218825
Cl292	Cl	0.880330	-0.281174	-0.924518
Cl293	Cl	1.213663	0.052159	-0.591185
Cl294	Cl	1.546997	0.385493	-0.257852
Cl295	Cl	1.075676	-0.377026	-0.228460
Cl296	Cl	1.409010	-0.043692	0.104874
Cl297	Cl	1.742343	0.289641	0.438207
H298	H	1.056744	-0.164189	-1.068493
H299	H	1.390077	0.169144	-0.735160
H300	H	1.723411	0.502477	-0.401827
H301	H	0.236387	-0.164241	-0.247745
H302	H	0.569720	0.169092	0.085588
H303	H	0.903053	0.502426	0.418921
H304	H	0.899544	-0.268431	-1.068415
H305	H	1.232877	0.064902	-0.735082
H306	H	1.566211	0.398235	-0.401748
Cl307	Cl	0.576498	-0.151486	-0.228588
Cl308	Cl	0.909832	0.181847	0.104745
Cl309	Cl	1.243165	0.515181	0.438078
Cl310	Cl	1.075914	-0.151535	-0.728386
Cl311	Cl	1.409247	0.181798	-0.395053
Cl312	Cl	1.742580	0.515131	-0.061719
H313	H	0.899381	-0.472583	-0.404562
H314	H	1.232715	-0.139250	-0.071229
H315	H	1.566048	0.194083	0.262104
Cl316	Cl	0.380278	-0.151489	-0.228603
Cl317	Cl	0.713612	0.181845	0.104731
Cl318	Cl	1.046945	0.515178	0.438064
H319	H	0.856248	-0.829154	-0.447859
H320	H	1.189581	-0.495820	-0.114526
H321	H	1.522915	-0.162487	0.218808
H322	H	0.899337	-0.387461	-0.404539
H323	H	1.232670	-0.054128	-0.071206
H324	H	1.566004	0.279206	0.262127
H325	H	1.056554	-0.472529	-0.247634
H326	H	1.389887	-0.139196	0.085699
H327	H	1.723220	0.194138	0.419033
Cl328	Cl	1.075950	-0.949421	-0.228540
Cl329	Cl	1.409283	-0.616088	0.104793
Cl330	Cl	1.742617	-0.282755	0.438127
H331	H	1.056727	-0.164209	-0.940249
H332	H	1.390061	0.169124	-0.606915
H333	H	1.723394	0.502457	-0.273582
Cl334	Cl	0.880461	-1.055365	-0.423789
Cl335	Cl	1.213794	-0.722032	-0.090455
Cl336	Cl	1.547127	-0.388698	0.242878
Cl337	Cl	0.837020	-0.733666	-0.466998
Cl338	Cl	1.170353	-0.400332	-0.133665
Cl339	Cl	1.503687	-0.066999	0.199668
Cl340	Cl	0.880310	-0.281202	-0.728298
Cl341	Cl	1.213643	0.052132	-0.394965
Cl342	Cl	1.546977	0.385465	-0.061631
Cl343	Cl	0.736002	-0.281362	-0.423613
Cl344	Cl	1.069335	0.051971	-0.090279
Cl345	Cl	1.402669	0.385305	0.243054
Cl346	Cl	0.880286	-0.281227	-0.568747
Cl347	Cl	1.213619	0.052107	-0.235413
Cl348	Cl	1.546953	0.385440	0.097920
Cl349	Cl	1.119175	-0.733585	-0.185276
Cl350	Cl	1.452508	-0.400252	0.148057
Cl351	Cl	1.785841	-0.066918	0.481391
H352	H	1.099922	-0.603230	-0.204407
H353	H	1.433256	-0.269897	0.128926
H354	H	1.766589	0.063437	0.462259
Cl355	Cl	1.119155	-0.698718	-0.185267
Cl356	Cl	1.452488	-0.365385	0.148066
Cl357	Cl	1.785821	-0.032051	0.481400
Cl358	Cl	0.380243	-0.281371	-0.423644
Cl359	Cl	0.713577	0.051962	-0.090311
Cl360	Cl	1.046910	0.385295	0.243023
Cl361	Cl	0.220694	-0.281381	-0.423658
Cl362	Cl	0.554027	0.051953	-0.090324
Cl363	Cl	0.887360	0.385286	0.243009
H364	H	0.899609	-0.959863	-0.404631
H365	H	1.232942	-0.626529	-0.071298
H366	H	1.566275	-0.293196	0.262035
Cl367	Cl	1.075995	-1.055323	-0.228564
Cl368	Cl	1.409329	-0.721990	0.104769
Cl369	Cl	1.742662	-0.388656	0.438102
H370	H	0.856180	-0.688398	-0.447849
H371	H	1.189514	-0.355065	-0.114516
H372	H	1.522847	-0.021732	0.218818
Cl373	Cl	1.119217	-0.839482	-0.185300
Cl374	Cl	1.452550	-0.506148	0.148033
Cl375	Cl	1.785883	-0.172815	0.481367
