data_functionalizedCrystal
_audit_creation_method	'MofGen! by Chris Wilmer'
_symmetry_space_group_name_H-M	'P1'
_symmetry_Int_Tables_number	1
_symmetry_cell_setting	triclinic
loop_
_symmetry_equiv_pos_as_xyz
  x,y,z
_cell_length_a	10.540539
_cell_length_b	15.944551
_cell_length_c	9.016244
_cell_angle_alpha	89.996810
_cell_angle_beta	89.994699
_cell_angle_gamma	84.012115
loop_
_atom_site_label
_atom_site_type_symbol
_atom_site_fract_x
_atom_site_fract_y
_atom_site_fract_z
O1	O	1.684281	0.118370	-0.123274
O2	O	1.314716	0.129523	-0.123293
O3	O	1.509591	0.001731	-0.123269
O4	O	1.489407	0.246161	-0.123297
O5	O	1.509562	0.001734	0.123411
O6	O	1.314688	0.129525	0.123388
O7	O	1.684253	0.118372	0.123407
Cu8	Cu	1.499468	0.123949	0.145921
Cu9	Cu	1.499502	0.123946	-0.145807
O10	O	1.489378	0.246164	0.123384
C11	C	1.267411	0.128688	0.000046
C12	C	1.126497	0.126185	0.000039
C13	C	1.508739	-0.029566	0.000071
C14	C	1.506227	-0.122827	0.000072
C15	C	0.944375	0.030298	0.000626
C16	C	1.090959	0.032835	0.000054
C17	C	1.064229	0.171108	-0.140828
C18	C	0.917728	0.167922	-0.140930
C19	C	0.917181	0.169824	0.139592
C20	C	1.064151	0.170684	0.141438
C21	C	1.379430	-0.338440	0.000045
C22	C	1.438296	-0.399105	0.121677
C23	C	1.501682	-0.293580	0.000060
C24	C	1.438353	-0.399091	-0.121531
C25	C	1.497283	-0.458519	0.000043
C26	C	1.560582	-0.353017	0.121792
C27	C	1.560622	-0.352996	-0.121525
C28	C	1.619577	-0.413643	0.000136
C29	C	1.504213	-0.198563	0.000072
C30	C	1.494762	-0.553535	0.000042
C31	C	1.731559	0.119207	0.000065
C32	C	1.872473	0.121710	0.000062
C33	C	1.490231	0.277461	0.000040
C34	C	1.492743	0.370722	0.000029
N35	N	1.499453	0.123951	0.351108
N36	N	1.499526	0.123937	-0.350993
C37	C	1.394894	0.192082	0.586128
C38	C	1.395120	0.192337	0.414237
C39	C	1.631905	0.143889	0.413450
C40	C	1.631333	0.144372	0.585395
C41	C	1.472882	0.035659	0.585659
C42	C	1.469829	0.036231	0.413705
H43	H	1.134043	-0.002512	0.101034
H44	H	1.277955	-0.305737	0.000161
H45	H	1.105548	0.137866	0.245651
H46	H	1.386641	-0.419477	-0.224368
H47	H	1.721141	-0.446196	0.000210
H48	H	1.711623	0.096739	0.626986
C49	C	1.181657	0.166145	0.478123
C50	C	1.262208	0.176158	0.357327
H51	H	1.099596	0.156165	0.442992
H52	H	1.216024	0.119610	0.536442
H53	H	1.174707	0.215878	0.536845
H54	H	1.269165	0.126422	0.298611
H55	H	1.227832	0.222697	0.298983
H56	H	1.296130	0.180269	0.627518
H57	H	1.087450	0.238743	0.149936
H58	H	1.386576	-0.419520	0.224501
H59	H	1.411675	0.257205	0.629315
C60	C	1.431715	0.333692	0.480266
C61	C	1.418095	0.280748	0.358667
H62	H	1.445912	0.388273	0.445956
H63	H	1.356275	0.337429	0.538560
H64	H	1.502213	0.311284	0.538735
H65	H	1.347591	0.303153	0.300203
H66	H	1.493544	0.277014	0.300348
C67	C	1.631968	-0.237925	0.259551
C68	C	1.630305	-0.325620	0.260770
H69	H	1.675001	-0.221012	0.345356
H70	H	1.675114	-0.221780	0.173302
H71	H	1.546911	-0.211511	0.259195
H72	H	1.715362	-0.352035	0.261115
H73	H	1.587161	-0.341774	0.347042
H74	H	1.711617	0.095612	0.372555
H75	H	1.654810	0.208777	0.625478
C76	C	1.678718	0.283867	0.475211
C77	C	1.664357	0.229854	0.355309
H78	H	1.698755	0.336937	0.439317
H79	H	1.601471	0.291319	0.530146
H80	H	1.745686	0.259982	0.537473
H81	H	1.597382	0.253736	0.293053
H82	H	1.741613	0.222404	0.300350
C83	C	1.566190	-0.348401	-0.387588
C84	C	1.630379	-0.325395	-0.260337
H85	H	1.609246	-0.331354	-0.473291
H86	H	1.564436	-0.407833	-0.389080
H87	H	1.481361	-0.321606	-0.386703
H88	H	1.715207	-0.352195	-0.261217
H89	H	1.632148	-0.265952	-0.258846
C90	C	1.518321	-0.093288	0.722146
C91	C	1.575874	-0.032817	0.640557
H92	H	1.581907	-0.135558	0.756034
H93	H	1.474708	-0.067028	0.804826
H94	H	1.459331	-0.118297	0.660899
H95	H	1.634858	-0.007803	0.701807
H96	H	1.619508	-0.059080	0.557866
C97	C	1.263733	-0.000716	0.524752
C98	C	1.345313	0.010051	0.644247
H99	H	1.184978	-0.016523	0.560924
H100	H	1.248895	0.050676	0.471213
H101	H	1.301995	-0.043614	0.461090
H102	H	1.307055	0.052954	0.707903
H103	H	1.360148	-0.041347	0.697810
H104	H	0.869036	0.237251	0.140536
H105	H	1.372396	0.021118	0.372960
H106	H	1.107254	0.139899	-0.245656
H107	H	1.541079	-0.016915	0.370738
C108	C	0.916322	0.173236	0.405835
C109	C	0.875147	0.129043	0.283742
H110	H	0.890365	0.148055	0.494818
H111	H	1.006668	0.171390	0.404008
H112	H	0.879838	0.230233	0.401490
H113	H	0.911639	0.072048	0.288081
H114	H	0.784783	0.130880	0.285570
H115	H	0.914680	-0.006426	-0.099827
C116	C	0.851838	-0.091397	0.090287
C117	C	0.906430	-0.019491	0.136993
H118	H	0.828411	-0.122135	0.174479
H119	H	0.778207	-0.074945	0.032293
H120	H	0.911886	-0.125882	0.032433
H121	H	0.846379	0.014998	0.194838
H122	H	0.980071	-0.035942	0.195012
C123	C	1.050100	-0.046394	-0.218115
C124	C	1.147995	-0.015213	-0.136497
H125	H	1.085313	-0.076052	-0.302424
H126	H	1.007573	-0.083497	-0.157772
H127	H	0.991033	-0.000776	-0.249521
H128	H	1.207057	-0.060832	-0.105081
H129	H	1.190542	0.021892	-0.196851
H130	H	0.889981	0.134718	-0.246221
H131	H	1.085649	0.239662	-0.146076
C132	C	0.944210	0.315471	-0.154693
C133	C	0.851728	0.258548	-0.149607
H134	H	0.903466	0.371417	-0.160070
H135	H	0.995334	0.309424	-0.067839
H136	H	0.996536	0.304183	-0.239638
H137	H	0.799408	0.269833	-0.064656
H138	H	0.800582	0.264599	-0.236470
