data_functionalizedCrystal
_audit_creation_method	'MofGen! by Chris Wilmer'
_symmetry_space_group_name_H-M	'P1'
_symmetry_Int_Tables_number	1
_symmetry_cell_setting	triclinic
loop_
_symmetry_equiv_pos_as_xyz
  x,y,z
_cell_length_a	14.044191
_cell_length_b	14.044220
_cell_length_c	14.185569
_cell_angle_alpha	75.620253
_cell_angle_beta	104.380485
_cell_angle_gamma	93.190327
loop_
_atom_site_label
_atom_site_type_symbol
_atom_site_fract_x
_atom_site_fract_y
_atom_site_fract_z
O1	O	1.257356	0.250004	-0.083376
O2	O	1.757356	0.750004	0.416624
O3	O	0.980681	0.241694	-0.083388
O4	O	1.480681	0.741694	0.416612
O5	O	1.114868	0.107511	-0.083372
O6	O	1.614868	0.607511	0.416628
O7	O	1.123169	0.384187	-0.083392
O8	O	1.623169	0.884187	0.416608
O9	O	1.154508	0.067876	0.083467
O10	O	1.654508	0.567876	0.583467
O11	O	1.020321	0.202060	0.083451
O12	O	1.520321	0.702060	0.583451
O13	O	1.296997	0.210369	0.083464
O14	O	1.796997	0.710369	0.583464
Cu15	Cu	1.162278	0.202596	0.098691
Cu16	Cu	1.662278	0.702596	0.598691
Cu17	Cu	1.115399	0.249468	-0.098616
Cu18	Cu	1.615399	0.749468	0.401384
O19	O	1.162809	0.344553	0.083448
O20	O	1.662809	0.844553	0.583448
C21	C	0.964879	0.218241	0.000030
C22	C	1.464879	0.718241	0.500030
C23	C	0.858735	0.207394	0.000026
C24	C	1.358735	0.707394	0.500026
C25	C	0.613277	0.264493	0.000032
C26	C	1.113277	0.764493	0.500032
C27	C	0.664404	0.187576	0.000035
C28	C	1.164404	0.687576	0.500035
C29	C	0.772539	0.198606	0.000030
C30	C	1.272539	0.698606	0.500030
C31	C	0.505132	0.253465	0.000037
C32	C	1.005132	0.753465	0.500037
C33	C	1.131053	0.052072	0.000048
C34	C	1.631053	0.552072	0.500048
C35	C	1.120208	-0.054072	0.000049
C36	C	1.620208	0.445928	0.500049
C37	C	1.100378	-0.248406	0.000033
C38	C	1.600378	0.251594	0.500033
C39	C	1.177293	-0.299534	0.000034
C40	C	1.677293	0.200466	0.500034
C41	C	1.166259	-0.407669	0.000025
C42	C	1.666259	0.092331	0.500025
C43	C	1.111410	-0.140262	0.000042
C44	C	1.611410	0.359738	0.500042
C45	C	1.312798	0.233823	0.000043
C46	C	1.812798	0.733823	0.500043
C47	C	1.418941	0.244671	0.000041
C48	C	1.918941	0.744671	0.500041
C49	C	1.146624	0.399992	0.000026
C50	C	1.646624	0.899992	0.500026
C51	C	1.157467	0.506137	0.000018
C52	C	1.657467	1.006137	0.500018
N53	N	1.195258	0.169628	0.237466
N54	N	1.695258	0.669628	0.737466
N55	N	1.082427	0.282428	-0.237391
N56	N	1.582427	0.782428	0.262609
C57	C	0.985530	0.379245	0.605091
C58	C	1.485530	0.879245	1.105091
C59	C	1.010518	0.354279	0.710116
C60	C	1.510518	0.854279	1.210116
C61	C	1.129371	0.235510	0.710091
C62	C	1.629371	0.735510	1.210091
C63	C	1.104389	0.260462	0.605064
C64	C	1.604389	0.760462	1.105064
C65	C	1.032469	0.332331	0.552573
C66	C	1.532469	0.832331	1.052573
C67	C	1.151328	0.213549	0.552546
C68	C	1.651328	0.713549	1.052546
C69	C	1.126351	0.238503	0.447528
C70	C	1.626351	0.738503	0.947528
C71	C	1.054436	0.310370	0.395029
C72	C	1.554436	0.810370	0.895029
C73	C	1.007492	0.357285	0.447555
C74	C	1.507492	0.857285	0.947555
C75	C	1.223253	0.141685	0.605039
C76	C	1.723253	0.641685	1.105039
C77	C	1.270193	0.094772	0.552521
C78	C	1.770193	0.594772	1.052521
C79	C	1.245211	0.119721	0.447501
C80	C	1.745211	0.619721	0.947501
C81	C	1.173295	0.191588	0.395002
C82	C	1.673295	0.691588	0.895002
C83	C	1.292155	0.072806	0.394975
C84	C	1.792155	0.572806	0.894975
C85	C	1.267178	0.097760	0.289958
C86	C	1.767178	0.597760	0.789958
C87	C	1.148319	0.216542	0.289985
C88	C	1.648319	0.716542	0.789985
H89	H	0.650717	0.338622	0.000023
H90	H	1.150717	0.838622	0.500023
H91	H	1.026249	-0.285844	0.000027
H92	H	1.526249	0.214156	0.500027
F93	F	1.274195	-0.250602	0.000046
F94	F	1.774195	0.249398	0.500046
F95	F	1.071762	0.293024	0.234117
F96	F	1.571762	0.793024	0.734117
F97	F	1.027858	0.336932	0.283259
F98	F	1.527858	0.836932	0.783259
H99	H	0.948920	0.415800	0.404814
H100	H	1.448920	0.915800	0.904814
H101	H	0.926957	0.437760	0.562350
H102	H	1.426957	0.937760	1.062350
F103	F	1.368705	-0.003670	0.450852
F104	F	1.868705	0.496330	0.950852
F105	F	0.960553	0.404222	0.766003
F106	F	1.460553	0.904222	1.266003
F107	F	0.615467	0.090677	0.000043
F108	F	1.115467	0.590677	0.500043
F109	F	1.205915	0.159027	0.765965
F110	F	1.705915	0.659027	1.265965
F111	F	1.249837	0.115135	0.716810
F112	F	1.749837	0.615135	1.216810
H113	H	1.328754	0.036258	0.595271
H114	H	1.828754	0.536258	1.095271
H115	H	1.305402	0.059558	0.247197
H116	H	1.805402	0.559558	0.747197
