data_functionalizedCrystal
_audit_creation_method	'MofGen! by Chris Wilmer'
_symmetry_space_group_name_H-M	'P1'
_symmetry_Int_Tables_number	1
_symmetry_cell_setting	triclinic
loop_
_symmetry_equiv_pos_as_xyz
  x,y,z
_cell_length_a	16.120490
_cell_length_b	16.120256
_cell_length_c	16.120484
_cell_angle_alpha	95.616173
_cell_angle_beta	90.164100
_cell_angle_gamma	90.129807
loop_
_atom_site_label
_atom_site_type_symbol
_atom_site_fract_x
_atom_site_fract_y
_atom_site_fract_z
Zn1	Zn	1.224989	-0.554790	-0.422348
Zn2	Zn	1.558322	-0.221457	-0.089014
Zn3	Zn	1.891656	0.111877	0.244319
Zn4	Zn	1.224885	-0.422094	-0.555028
Zn5	Zn	1.558218	-0.088761	-0.221694
Zn6	Zn	1.891551	0.244573	0.111639
Zn7	Zn	1.093728	-0.408035	-0.408252
Zn8	Zn	1.427061	-0.074701	-0.074918
Zn9	Zn	1.760395	0.258632	0.258415
Zn10	Zn	1.078881	-0.554030	-0.554256
Zn11	Zn	1.412215	-0.220697	-0.220923
Zn12	Zn	1.745548	0.112636	0.112410
O13	O	1.155621	-0.484737	-0.484971
O14	O	1.488954	-0.151404	-0.151638
O15	O	1.822287	0.181929	0.181696
O16	O	1.341011	-0.543389	-0.446170
O17	O	1.674344	-0.210056	-0.112837
O18	O	2.007678	0.123277	0.220497
O19	O	1.213656	-0.303596	-0.529981
O20	O	1.546990	0.029738	-0.196648
O21	O	1.880323	0.363071	0.136685
O22	O	1.117397	-0.421936	-0.293491
O23	O	1.450731	-0.088602	0.039842
O24	O	1.784064	0.244731	0.373175
O25	O	1.340935	-0.445898	-0.543649
O26	O	1.674268	-0.112565	-0.210316
O27	O	2.007601	0.220768	0.123017
O28	O	1.213834	-0.529756	-0.303847
O29	O	1.547167	-0.196423	0.029486
O30	O	1.880501	0.136910	0.362819
O31	O	1.117296	-0.293266	-0.422146
O32	O	1.450630	0.040067	-0.088812
O33	O	1.783963	0.373401	0.244521
O34	O	0.975723	-0.421199	-0.421398
O35	O	1.309056	-0.087866	-0.088064
O36	O	1.642389	0.245467	0.245269
O37	O	1.092093	-0.670765	-0.542335
O38	O	1.425426	-0.337431	-0.209001
O39	O	1.758760	-0.004098	0.124332
O40	O	0.964815	-0.528462	-0.528666
O41	O	1.298148	-0.195129	-0.195333
O42	O	1.631481	0.138205	0.138000
O43	O	1.199438	-0.671323	-0.445422
O44	O	1.532771	-0.337989	-0.112089
O45	O	1.866104	-0.004656	0.221245
O46	O	1.199260	-0.445162	-0.671556
O47	O	1.532593	-0.111829	-0.338222
O48	O	1.865927	0.221505	-0.004889
O49	O	1.091992	-0.542095	-0.670989
O50	O	1.425325	-0.208762	-0.337656
O51	O	1.758658	0.124572	-0.004322
C52	C	0.940182	-0.473223	-0.473419
C53	C	1.273515	-0.139890	-0.140086
C54	C	1.606848	0.193444	0.193247
C55	C	0.848014	-0.468318	-0.468499
C56	C	1.181347	-0.134985	-0.135165
C57	C	1.514681	0.198349	0.198168
C58	C	0.632819	-0.510182	-0.510489
C59	C	0.966152	-0.176848	-0.177156
C60	C	1.299486	0.156485	0.156177
C61	C	0.679266	-0.459362	-0.459522
C62	C	1.012600	-0.126029	-0.126189
C63	C	1.345933	0.207305	0.207145
C64	C	0.773166	-0.464347	-0.464518
C65	C	1.106499	-0.131013	-0.131185
C66	C	1.439833	0.202320	0.202149
C67	C	0.538911	-0.505198	-0.505494
C68	C	0.872244	-0.171865	-0.172161
C69	C	1.205577	0.161469	0.161172
C70	C	1.144121	-0.702131	-0.495365
C71	C	1.477454	-0.368798	-0.162031
C72	C	1.810787	-0.035464	0.171302
C73	C	1.139220	-0.794771	-0.499794
C74	C	1.472553	-0.461438	-0.166460
C75	C	1.805887	-0.128105	0.166873
C76	C	1.181177	-1.005935	-0.461852
C77	C	1.514510	-0.672601	-0.128518
C78	C	1.847843	-0.339268	0.204815
C79	C	1.130247	-0.964378	-0.507844
C80	C	1.463580	-0.631044	-0.174511
C81	C	1.796913	-0.297711	0.158822
C82	C	1.135241	-0.870000	-0.503364
C83	C	1.468574	-0.536667	-0.170030
C84	C	1.801908	-0.203333	0.163303
C85	C	1.176183	-1.100321	-0.466331
C86	C	1.509517	-0.766988	-0.132998
C87	C	1.842850	-0.433654	0.200335
C88	C	1.371901	-0.496297	-0.496568
C89	C	1.705234	-0.162963	-0.163235
C90	C	2.038568	0.170370	0.170099
C91	C	1.464067	-0.501223	-0.501510
C92	C	1.797400	-0.167889	-0.168177
C93	C	2.130733	0.165444	0.165156
C94	C	1.144025	-0.495091	-0.701515
C95	C	1.477358	-0.161758	-0.368182
C96	C	1.810692	0.171576	-0.034849
C97	C	1.139139	-0.499552	-0.794160
C98	C	1.472472	-0.166219	-0.460826
C99	C	1.805805	0.167114	-0.127493
C100	C	1.167127	-0.268189	-0.474560
C101	C	1.500460	0.065144	-0.141227
C102	C	1.833794	0.398478	0.192107
C103	C	1.172201	-0.175546	-0.469905
C104	C	1.505534	0.157787	-0.136571
C105	C	1.838867	0.491120	0.196762
C106	C	1.130221	-0.507715	-0.963782
C107	C	1.463555	-0.174382	-0.630449
C108	C	1.796888	0.158952	-0.297116
C109	C	1.181168	-0.461781	-1.005327
C110	C	1.514501	-0.128448	-0.671994
C111	C	1.847834	0.204885	-0.338661
C112	C	1.176206	-0.466323	-1.099711
C113	C	1.509540	-0.132990	-0.766378
C114	C	1.842873	0.200344	-0.433045
C115	C	1.135182	-0.503174	-0.869390
C116	C	1.468515	-0.169841	-0.536057
C117	C	1.801849	0.163492	-0.202723
C118	C	1.167283	-0.474362	-0.267583
C119	C	1.500617	-0.141029	0.065751
C120	C	1.833950	0.192304	0.399084
C121	C	1.172253	-0.469941	-0.174945
C122	C	1.505587	-0.136608	0.158388
C123	C	1.838920	0.196725	0.491722
H124	H	0.663573	-0.557429	-0.557873
H125	H	0.996907	-0.224096	-0.224539
H126	H	1.330240	0.109238	0.108794
H127	H	0.648510	-0.412110	-0.412135
H128	H	0.981844	-0.078777	-0.078802
H129	H	1.315177	0.254556	0.254531
O130	O	1.243877	-0.405170	-0.958549
O131	O	1.577211	-0.071836	-0.625216
O132	O	1.910544	0.261497	-0.291883
H133	H	1.280437	-0.372224	-1.003546
H134	H	1.613770	-0.038890	-0.670212
H135	H	1.947103	0.294443	-0.336879
O136	O	1.067498	-0.564307	-1.010551
O137	O	1.400831	-0.230973	-0.677218
O138	O	1.734164	0.102360	-0.343885
H139	H	1.073388	-0.559022	-1.078417
H140	H	1.406721	-0.225689	-0.745084
H141	H	1.740055	0.107644	-0.411750
O142	O	1.067521	-1.011127	-0.564466
O143	O	1.400854	-0.677794	-0.231132
O144	O	1.734188	-0.344461	0.102201
H145	H	1.100305	-1.054805	-0.610709
H146	H	1.433639	-0.721471	-0.277375
H147	H	1.766972	-0.388138	0.055958
O148	O	1.243911	-0.959186	-0.405250
O149	O	1.577244	-0.625852	-0.071917
O150	O	1.910577	-0.292519	0.261417
H151	H	1.238043	-0.891321	-0.410583
H152	H	1.571376	-0.557988	-0.077249
H153	H	1.904710	-0.224655	0.256084
