data_functionalizedCrystal
_audit_creation_method	'MofGen! by Chris Wilmer'
_symmetry_space_group_name_H-M	'P1'
_symmetry_Int_Tables_number	1
_symmetry_cell_setting	triclinic
loop_
_symmetry_equiv_pos_as_xyz
  x,y,z
_cell_length_a	18.101398
_cell_length_b	18.101395
_cell_length_c	17.077396
_cell_angle_alpha	89.972533
_cell_angle_beta	89.989660
_cell_angle_gamma	90.026661
loop_
_atom_site_label
_atom_site_type_symbol
_atom_site_fract_x
_atom_site_fract_y
_atom_site_fract_z
Zn1	Zn	1.132125	-0.294917	-0.443656
Zn2	Zn	1.632125	0.205083	0.056344
Zn3	Zn	1.132020	-0.418766	-0.312393
Zn4	Zn	1.632020	0.081234	0.187607
Zn5	Zn	1.008283	-0.294933	-0.312425
Zn6	Zn	1.508283	0.205067	0.187575
Zn7	Zn	1.008235	-0.418712	-0.443637
Zn8	Zn	1.508235	0.081288	0.056363
O9	O	1.070166	-0.356832	-0.378028
O10	O	1.570166	0.143168	0.121972
O11	O	1.235744	-0.311362	-0.426238
O12	O	1.735744	0.188638	0.073762
O13	O	1.115582	-0.402369	-0.202550
O14	O	1.615582	0.097631	0.297450
O15	O	1.024775	-0.191298	-0.329855
O16	O	1.524775	0.308702	0.170145
O17	O	1.235667	-0.402353	-0.329799
O18	O	1.735667	0.097647	0.170201
O19	O	1.115762	-0.191287	-0.426270
O20	O	1.615762	0.308713	0.073730
O21	O	1.024673	-0.311389	-0.202574
O22	O	1.524673	0.188611	0.297426
O23	O	0.904644	-0.311337	-0.329836
O24	O	1.404644	0.188663	0.170164
O25	O	1.024693	-0.402261	-0.553487
O26	O	1.524693	0.097739	-0.053487
O27	O	0.904608	-0.402277	-0.426237
O28	O	1.404608	0.097723	0.073763
O29	O	1.115715	-0.311310	-0.553501
O30	O	1.615715	0.188690	-0.053501
O31	O	1.115535	-0.522392	-0.329781
O32	O	1.615535	-0.022392	0.170219
O33	O	1.024591	-0.522352	-0.426206
O34	O	1.524591	-0.022352	0.073794
C35	C	0.877755	-0.356803	-0.378039
C36	C	1.377755	0.143197	0.121961
C37	C	0.795441	-0.356809	-0.378062
C38	C	1.295441	0.143191	0.121938
C39	C	0.496350	-0.356852	-0.378029
C40	C	0.996350	0.143148	0.121971
C41	C	0.527678	-0.414346	-0.438383
C42	C	1.027678	0.085654	0.061617
C43	C	0.613296	-0.414166	-0.438631
C44	C	1.113296	0.085834	0.061369
C45	C	0.644733	-0.356831	-0.378046
C46	C	1.144733	0.143169	0.121954
C47	C	0.613678	-0.278829	-0.400650
C48	C	1.113678	0.221171	0.099350
C49	C	0.528033	-0.279174	-0.401079
C50	C	1.028033	0.220826	0.098921
C51	C	0.527897	-0.376674	-0.294926
C52	C	1.027897	0.123326	0.205074
C53	C	0.613547	-0.378385	-0.295370
C54	C	1.113547	0.121615	0.204630
C55	C	0.728592	-0.356815	-0.378053
C56	C	1.228592	0.143185	0.121947
C57	C	0.412491	-0.356864	-0.378023
C58	C	0.912491	0.143136	0.121977
C59	C	1.070067	-0.549243	-0.378005
C60	C	1.570067	-0.049243	0.121995
C61	C	1.070092	-0.631557	-0.378021
C62	C	1.570092	-0.131557	0.121979
C63	C	1.070255	-0.930648	-0.378063
C64	C	1.570255	-0.430648	0.121937
C65	C	1.013168	-0.899329	-0.438882
C66	C	1.513168	-0.399329	0.061118
C67	C	1.012896	-0.813711	-0.438692
C68	C	1.512896	-0.313711	0.061308
C69	C	1.070174	-0.782265	-0.378043
C70	C	1.570174	-0.282265	0.121957
C71	C	1.049044	-0.813415	-0.295317
C72	C	1.549044	-0.313415	0.204683
C73	C	1.048676	-0.899060	-0.295681
C74	C	1.548676	-0.399060	0.204319
C75	C	1.148596	-0.898998	-0.399243
C76	C	1.648596	-0.398998	0.100757
C77	C	1.148136	-0.813346	-0.401057
C78	C	1.648136	-0.313346	0.098943
C79	C	1.070130	-0.698406	-0.378027
C80	C	1.570130	-0.198406	0.121973
C81	C	1.070297	-1.014507	-0.378074
C82	C	1.570297	-0.514507	0.121926
C83	C	1.263328	-0.356862	-0.378017
C84	C	1.763328	0.143138	0.121983
C85	C	1.345642	-0.356875	-0.378013
C86	C	1.845642	0.143125	0.121987
C87	C	1.070211	-0.356778	-0.582772
C88	C	1.570211	0.143222	-0.082772
C89	C	1.070230	-0.356754	-0.670022
C90	C	1.570230	0.143246	-0.170022
C91	C	1.070285	-0.163670	-0.378068
C92	C	1.570285	0.336330	0.121932
C93	C	1.070336	-0.081356	-0.378085
C94	C	1.570336	0.418644	0.121915
C95	C	1.117626	-0.309392	-0.711021
C96	C	1.617626	0.190608	-0.211021
C97	C	1.117635	-0.309368	-0.793001
C98	C	1.617635	0.190632	-0.293001
C99	C	1.070251	-0.356709	-0.833982
C100	C	1.570251	0.143291	-0.333982
C101	C	1.022849	-0.404074	-0.792977
C102	C	1.522849	0.095926	-0.292977
C103	C	1.022837	-0.404094	-0.710998
C104	C	1.522837	0.095906	-0.210998
C105	C	1.022879	-0.404029	-0.963847
C106	C	1.522879	0.095971	-0.463847
C107	C	1.022891	-0.404010	-1.045832
C108	C	1.522891	0.095990	-0.545832
C109	C	1.117677	-0.309303	-1.045850
C110	C	1.617677	0.190697	-0.545850
C111	C	1.117665	-0.309323	-0.963871
C112	C	1.617665	0.190677	-0.463871
C113	C	1.070264	-0.356689	-0.922873
C114	C	1.570264	0.143311	-0.422873
C115	C	1.070164	-0.356833	-0.174080
C116	C	1.570164	0.143167	0.325920
C117	C	1.070288	-0.356648	-0.086831
C118	C	1.570288	0.143352	0.413169
H119	H	0.506283	-0.432580	-0.274383
H120	H	1.006283	0.067420	0.225617
H121	H	1.192919	-0.791938	-0.359988
H122	H	1.692919	-0.291938	0.140012
F123	F	0.936995	-0.787007	-0.420360
F124	F	1.436995	-0.287007	0.079640
H125	H	1.167861	-0.920547	-0.458538
H126	H	1.667861	-0.420547	0.041462
F127	F	0.640074	-0.453415	-0.273090
F128	F	1.140074	0.046585	0.226910
H129	H	0.634291	-0.472009	-0.424464
H130	H	1.134291	0.027991	0.075536
F131	F	0.937730	-0.927551	-0.420791
F132	F	1.437730	-0.427551	0.079209
H133	H	0.634946	-0.339550	-0.247987
H134	H	1.134946	0.160450	0.252013
H135	H	0.984268	-0.442588	-0.930469
H136	H	1.484268	0.057412	-0.430469
F137	F	1.168107	-0.258983	-0.836632
F138	F	1.668107	0.241017	-0.336632
H139	H	0.507638	-0.334796	-0.249957
H140	H	1.007638	0.165204	0.250043
H141	H	0.508073	-0.262362	-0.461831
H142	H	1.008073	0.237638	0.038169
F143	F	0.641733	-0.256456	-0.479195
F144	F	1.141733	0.243544	0.020805
F145	F	1.030272	-0.926188	-0.519320
F146	F	1.530272	-0.426188	-0.019320
H147	H	1.156272	-0.270735	-1.079236
H148	H	1.656272	0.229265	-0.579236
H149	H	0.984234	-0.442654	-0.677618
H150	H	1.484234	0.057346	-0.177618
H151	H	0.984265	-0.442618	-0.826350
H152	H	1.484265	0.057382	-0.326350
H153	H	1.156254	-0.270777	-0.930507
H154	H	1.656254	0.229223	-0.430507
F155	F	1.100659	-0.926146	-0.234429
F156	F	1.600659	-0.426146	0.265571
F157	F	1.204192	-0.925481	-0.341354
F158	F	1.704192	-0.425481	0.158646
F159	F	1.168965	-0.786733	-0.480634
F160	F	1.668965	-0.286733	0.019366
H161	H	1.089315	-0.793048	-0.248768
H162	H	1.589315	-0.293048	0.251232
H163	H	0.992383	-0.792026	-0.277053
H164	H	1.492383	-0.292026	0.222947
H165	H	0.984305	-0.442559	-1.079196
H166	H	1.484305	0.057441	-0.579196
F167	F	1.168064	-0.259007	-0.667414
F168	F	1.668064	0.240993	-0.167414
H169	H	0.991408	-0.919099	-0.277739
H170	H	1.491408	-0.419099	0.222261
H171	H	0.634042	-0.234831	-0.358063
H172	H	1.134042	0.265169	0.141937
H173	H	0.506168	-0.401397	-0.499601
H174	H	1.006168	0.098603	0.000399
F175	F	0.640099	-0.397023	-0.519113
F176	F	1.140099	0.102977	-0.019113
F177	F	0.500728	-0.490199	-0.420078
F178	F	1.000728	0.009801	0.079922
H179	H	1.026116	-0.792647	-0.500033
H180	H	1.526116	-0.292647	-0.000033
F181	F	0.500945	-0.221286	-0.346130
F182	F	1.000945	0.278714	0.153870
