data_functionalizedCrystal
_audit_creation_method	'MofGen! by Chris Wilmer'
_symmetry_space_group_name_H-M	'P1'
_symmetry_Int_Tables_number	1
_symmetry_cell_setting	triclinic
loop_
_symmetry_equiv_pos_as_xyz
  x,y,z
_cell_length_a	17.699104
_cell_length_b	16.776229
_cell_length_c	10.654560
_cell_angle_alpha	89.995170
_cell_angle_beta	83.890402
_cell_angle_gamma	89.993530
loop_
_atom_site_label
_atom_site_type_symbol
_atom_site_fract_x
_atom_site_fract_y
_atom_site_fract_z
O1	O	1.005083	-0.066272	0.158932
O2	O	0.784838	-0.066276	0.179566
O3	O	0.900020	-0.066273	-0.013577
O4	O	0.889901	-0.066276	0.352076
O5	O	0.900004	0.066304	-0.013589
O6	O	0.784823	0.066300	0.179555
O7	O	1.005067	0.066304	0.158921
Zn8	Zn	0.894942	0.087351	0.169236
Zn9	Zn	0.894963	-0.087324	0.169251
O10	O	0.889885	0.066300	0.352064
C11	C	0.756629	0.000011	0.178817
C12	C	0.672597	0.000010	0.176585
C13	C	0.899268	0.000014	-0.060368
C14	C	0.897039	0.000011	-0.199771
N15	N	0.894934	0.206563	0.169224
C16	C	1.033276	0.000015	0.159670
C17	C	1.117308	0.000011	0.161902
C18	C	1.641536	0.000013	0.061115
C19	C	1.562579	0.000010	0.059026
C20	C	1.514685	0.000008	0.172408
C21	C	1.545751	0.000002	0.287888
C22	C	1.624707	-0.000000	0.289975
C23	C	1.227331	0.000009	0.279470
C24	C	1.148371	0.000013	0.277373
C25	C	1.165203	0.000018	0.048521
C26	C	1.244159	0.000016	0.050609
C27	C	1.275219	0.000006	0.166087
C28	C	1.360833	0.000009	0.168351
C29	C	1.429072	0.000011	0.170146
N30	N	0.894977	-0.206535	0.169253
C31	C	0.945952	0.248281	0.083735
C32	C	0.945957	0.331734	0.083734
C33	C	0.894945	0.373466	0.169229
C34	C	0.843922	0.331741	0.254722
C35	C	0.843914	0.248290	0.254716
C36	C	0.843949	0.668288	0.254747
C37	C	0.843962	0.751745	0.254749
C38	C	0.945991	0.751732	0.083765
C39	C	0.945984	0.668281	0.083759
C40	C	0.894958	0.626564	0.169247
C41	C	0.894953	0.536075	0.169245
C42	C	0.894953	0.463952	0.169238
C43	C	0.893903	0.072278	-0.396262
C44	C	0.895987	0.072279	-0.265276
C45	C	0.896000	-0.072263	-0.265259
C46	C	0.893910	-0.072263	-0.396243
C47	C	0.892858	0.144552	-0.461761
C48	C	0.893896	0.216826	-0.396282
C49	C	0.895981	0.216826	-0.265295
C50	C	0.897027	0.144553	-0.199788
C51	C	0.890638	0.000012	0.398855
C52	C	0.892866	0.000010	0.538259
H53	H	1.680526	0.000018	-0.031215
C54	C	1.528414	0.000022	-0.067991
H55	H	1.568246	0.000035	-0.135218
H56	H	1.497967	-0.046208	-0.073572
H57	H	1.497960	0.046262	-0.073556
H58	H	1.139905	0.000009	-0.045507
H59	H	0.893038	0.275668	-0.449626
C60	C	0.892770	-0.151754	-0.468280
H61	H	0.891368	-0.141401	-0.555668
H62	H	0.937171	-0.181452	-0.456517
H63	H	0.849052	-0.181446	-0.437109
C64	C	0.787833	0.797649	0.348774
H65	H	0.757434	0.760852	0.399675
H66	H	0.815322	0.830197	0.401010
H67	H	0.756103	0.830209	0.303630
H68	H	0.802403	0.634329	0.324356
C69	C	1.002064	0.202384	-0.010312
H70	H	1.032444	0.239185	-0.061234
H71	H	1.033803	0.169817	0.034794
H72	H	0.974557	0.169842	-0.062542
H73	H	0.987499	0.365701	0.014122
C74	C	0.897121	0.296322	-0.193271
H75	H	0.896205	0.339362	-0.251045
H76	H	0.853879	0.299331	-0.132474
H77	H	0.941998	0.299323	-0.151878
C78	C	1.493073	-0.000006	0.412609
H79	H	1.522883	-0.000017	0.481679
H80	H	1.461917	0.046226	0.416555
H81	H	1.461929	-0.046244	0.416549
H82	H	1.109376	0.000011	0.369709
C83	C	0.899317	0.144554	-0.055705
H84	H	0.899788	0.197946	-0.026087
H85	H	0.855737	0.117861	-0.016370
H86	H	0.943856	0.117866	-0.035773
H87	H	0.896852	-0.131105	-0.211913
H88	H	1.283151	0.000022	-0.041719
C89	C	1.002094	0.622380	-0.010288
H90	H	1.032475	0.659179	-0.061213
H91	H	1.033831	0.589812	0.034818
H92	H	0.974584	0.589840	-0.062516
C93	C	0.787812	0.377644	0.348767
H94	H	0.795128	0.433319	0.336537
H95	H	0.737229	0.363982	0.335229
H96	H	0.796475	0.363956	0.432565
C97	C	1.002115	0.797619	-0.010286
H98	H	1.032498	0.760812	-0.061193
H99	H	0.974621	0.830182	-0.062512
H100	H	1.033860	0.830162	0.034836
C101	C	1.261488	0.000013	0.406490
H102	H	1.221654	0.000023	0.473713
H103	H	1.291943	-0.046218	0.412080
H104	H	1.291932	0.046252	0.412051
H105	H	0.802369	0.214324	0.324328
H106	H	0.891163	0.144559	-0.568418
H107	H	1.649995	0.000001	0.384003
