data_functionalizedCrystal
_audit_creation_method	'MofGen! by Chris Wilmer'
_symmetry_space_group_name_H-M	'P1'
_symmetry_Int_Tables_number	1
_symmetry_cell_setting	triclinic
loop_
_symmetry_equiv_pos_as_xyz
  x,y,z
_cell_length_a	8.497366
_cell_length_b	11.169417
_cell_length_c	11.169416
_cell_angle_alpha	89.988781
_cell_angle_beta	90.046879
_cell_angle_gamma	89.968914
loop_
_atom_site_label
_atom_site_type_symbol
_atom_site_fract_x
_atom_site_fract_y
_atom_site_fract_z
Zn1	Zn	-0.891931	1.835096	0.477492
Zn2	Zn	-0.628148	1.834946	0.678289
Zn3	Zn	-0.628164	1.634342	0.477621
Zn4	Zn	-0.891887	1.634389	0.678135
O5	O	-0.760033	1.734693	0.577884
O6	O	-0.856951	2.003025	0.504139
O7	O	-0.407388	1.808253	0.651788
O8	O	-0.663179	1.661016	0.309655
O9	O	-0.663151	2.002915	0.651663
O10	O	-0.856966	1.808508	0.309560
O11	O	-0.407400	1.660870	0.504359
O12	O	-0.663136	1.466399	0.504210
O13	O	-1.112655	1.661096	0.651401
O14	O	-0.856892	1.466433	0.651526
O15	O	-1.112687	1.808554	0.503990
O16	O	-0.663109	1.808298	0.846218
O17	O	-0.856877	1.660950	0.846105
C18	C	-0.760012	1.422868	0.577866
C19	C	-0.760041	1.289468	0.577887
C20	C	-0.760021	1.734646	0.889709
C21	C	-0.760068	1.734735	1.023109
C22	C	-0.171513	1.734763	0.577775
C23	C	-0.350157	1.734604	0.578026
C24	C	-0.760054	2.047735	0.577904
C25	C	-0.760063	2.181135	0.577912
C26	C	-0.760079	1.734774	0.264842
C27	C	-0.760099	1.734808	0.131442
