data_functionalizedCrystal
_audit_creation_method	'MofGen! by Chris Wilmer'
_symmetry_space_group_name_H-M	'P1'
_symmetry_Int_Tables_number	1
_symmetry_cell_setting	triclinic
loop_
_symmetry_equiv_pos_as_xyz
  x,y,z
_cell_length_a	15.944493
_cell_length_b	15.944551
_cell_length_c	15.186229
_cell_angle_alpha	90.001234
_cell_angle_beta	90.005046
_cell_angle_gamma	83.486891
loop_
_atom_site_label
_atom_site_type_symbol
_atom_site_fract_x
_atom_site_fract_y
_atom_site_fract_z
O1	O	1.114556	0.108094	0.073219
O2	O	1.447890	0.441428	0.406552
O3	O	1.781223	0.774761	0.739885
O4	O	0.870000	0.121502	0.073223
O5	O	1.203334	0.454835	0.406557
O6	O	1.536667	0.788168	0.739890
O7	O	0.998957	-0.007478	0.073213
O8	O	1.332290	0.325855	0.406546
O9	O	1.665623	0.659188	0.739880
O10	O	0.985600	0.237074	0.073229
O11	O	1.318933	0.570408	0.406562
O12	O	1.652267	0.903741	0.739896
O13	O	0.998942	-0.007471	-0.073244
O14	O	1.332275	0.325862	0.260089
O15	O	1.665608	0.659196	0.593422
O16	O	0.869985	0.121509	-0.073234
O17	O	1.203318	0.454842	0.260099
O18	O	1.536652	0.788176	0.593433
O19	O	1.114541	0.108102	-0.073238
O20	O	1.447875	0.441435	0.260095
O21	O	1.781208	0.774768	0.593428
Zn22	Zn	0.992261	0.114807	-0.096489
Zn23	Zn	1.325594	0.448140	0.236844
Zn24	Zn	1.658927	0.781473	0.570177
Zn25	Zn	0.992281	0.114797	0.096474
Zn26	Zn	1.325614	0.448130	0.429808
Zn27	Zn	1.658947	0.781463	0.763141
O28	O	0.985585	0.237082	-0.073228
O29	O	1.318918	0.570415	0.260105
O30	O	1.652252	0.903748	0.593439
C31	C	0.838698	0.120957	-0.000005
C32	C	1.172031	0.454291	0.333329
C33	C	1.505364	0.787624	0.666662
C34	C	0.745449	0.119314	-0.000003
C35	C	1.078783	0.452648	0.333330
C36	C	1.412116	0.785981	0.666663
C37	C	0.998395	-0.038768	-0.000016
C38	C	1.331728	0.294565	0.333318
C39	C	1.665061	0.627898	0.666651
C40	C	0.996732	-0.132014	-0.000016
C41	C	1.330066	0.201319	0.333317
C42	C	1.663399	0.534653	0.666650
C43	C	0.509689	0.195235	0.000002
C44	C	0.843023	0.528568	0.333336
C45	C	1.176356	0.861902	0.666669
C46	C	0.459124	0.154298	-0.072215
C47	C	0.792457	0.487631	0.261118
C48	C	1.125790	0.820964	0.594451
C49	C	0.574728	0.116270	-0.000005
C50	C	0.908062	0.449604	0.333328
C51	C	1.241395	0.782937	0.666661
C52	C	0.459143	0.154272	0.072180
C53	C	0.792476	0.487605	0.405513
C54	C	1.125810	0.820938	0.738847
C55	C	0.409819	0.113336	-0.000003
C56	C	0.743152	0.446669	0.333330
C57	C	1.076485	0.780002	0.666663
C58	C	0.525391	0.075354	-0.072282
C59	C	0.858724	0.408688	0.261051
C60	C	1.192057	0.742021	0.594384
C61	C	0.525413	0.075340	0.072178
C62	C	0.858747	0.408673	0.405511
C63	C	1.192080	0.742007	0.738845
C64	C	0.474880	0.034345	-0.000057
C65	C	0.808214	0.367678	0.333276
C66	C	1.141547	0.701011	0.666609
C67	C	0.669728	0.117963	-0.000007
C68	C	1.003061	0.451296	0.333326
C69	C	1.336395	0.784630	0.666660
C70	C	0.314821	0.111637	-0.000008
C71	C	0.648155	0.444970	0.333326
C72	C	0.981488	0.778303	0.666659
C73	C	0.912826	-0.346853	-0.000003
C74	C	1.246159	-0.013520	0.333331
C75	C	1.579492	0.319813	0.666664
C76	C	0.951782	-0.407875	-0.072216
C77	C	1.285115	-0.074542	0.261118
C78	C	1.618448	0.258792	0.594451
C79	C	0.993725	-0.302739	-0.000009
C80	C	1.327058	0.030594	0.333324
C81	C	1.660392	0.363927	0.666657
C82	C	0.951816	-0.407866	0.072180
C83	C	1.285149	-0.074532	0.405513
C84	C	1.618482	0.258801	0.738846
C85	C	0.990814	-0.467651	0.000001
C86	C	1.324147	-0.134318	0.333334
C87	C	1.657481	0.199015	0.666668
C88	C	1.032703	-0.362533	-0.072282
C89	C	1.366036	-0.029200	0.261051
C90	C	1.699370	0.304134	0.594385
C91	C	1.032726	-0.362517	0.072178
C92	C	1.366059	-0.029184	0.405512
C93	C	1.699392	0.304149	0.738845
C94	C	1.071741	-0.423521	-0.000052
C95	C	1.405074	-0.090188	0.333281
C96	C	1.738407	0.243145	0.666614
C97	C	0.995399	-0.207737	-0.000016
C98	C	1.328733	0.125596	0.333317
C99	C	1.662066	0.458929	0.666651
C100	C	0.989146	-0.562652	0.000001
C101	C	1.322479	-0.229319	0.333335
C102	C	1.655812	0.104014	0.666668
C103	C	1.145844	0.108646	-0.000008
C104	C	1.479177	0.441979	0.333325
C105	C	1.812510	0.775313	0.666658
C106	C	1.239092	0.110289	-0.000004
C107	C	1.572426	0.443622	0.333329
C108	C	1.905759	0.776956	0.666663
C109	C	0.986147	0.268372	0.000003
C110	C	1.319480	0.601705	0.333336
C111	C	1.652814	0.935038	0.666669
C112	C	0.987809	0.361617	0.000009
C113	C	1.321143	0.694951	0.333342
C114	C	1.654476	1.028284	0.666675
N115	N	0.992253	0.114813	-0.228182
N116	N	1.325587	0.448146	0.105151
N117	N	1.658920	0.781479	0.438485
C118	C	1.043214	0.165766	-0.453902
C119	C	1.376548	0.499099	-0.120569
C120	C	1.709881	0.832433	0.212764
C121	C	1.043223	0.165760	-0.546092
C122	C	1.376557	0.499093	-0.212759
C123	C	1.709890	0.832427	0.120575
C124	C	0.941332	0.063825	-0.546106
C125	C	1.274665	0.397158	-0.212773
C126	C	1.607999	0.730492	0.120560
C127	C	0.941328	0.063827	-0.453918
C128	C	1.274661	0.397160	-0.120585
C129	C	1.607994	0.730494	0.212748
C130	C	0.992267	0.114802	-0.407819
C131	C	1.325601	0.448136	-0.074485
C132	C	1.658934	0.781469	0.258848
C133	C	0.992281	0.114794	-0.592196
C134	C	1.325614	0.448128	-0.258863
C135	C	1.658947	0.781461	0.074470
C136	C	0.992290	0.114787	-0.692153
C137	C	1.325624	0.448121	-0.358819
C138	C	1.658957	0.781454	-0.025486
C139	C	0.992259	0.114808	-0.307856
C140	C	1.325593	0.448142	0.025477
C141	C	1.658926	0.781475	0.358810
N142	N	0.992295	0.114784	0.228167
N143	N	1.325628	0.448117	0.561500
N144	N	1.658962	0.781451	0.894834
H145	H	0.525313	0.263254	-0.000061
H146	H	0.858646	0.596588	0.333273
H147	H	1.191980	0.929921	0.666606
H148	H	0.459415	-0.033726	-0.000103
H149	H	0.792748	0.299607	0.333230
H150	H	1.126081	0.632941	0.666563
H151	H	0.430211	0.187633	0.133226
H152	H	0.763544	0.520966	0.466559
H153	H	1.096877	0.854299	0.799892
H154	H	0.917558	-0.427973	-0.133265
H155	H	1.250891	-0.094640	0.200069
H156	H	1.584225	0.238693	0.533402
H157	H	0.899858	0.022324	-0.583652
H158	H	1.233191	0.355657	-0.250318
H159	H	1.566524	0.688990	0.083015
C160	C	0.420014	0.199345	-0.154684
C161	C	0.753347	0.532678	0.178650
C162	C	1.086680	0.866012	0.511983
H163	H	0.392286	0.160745	-0.188687
H164	H	0.725619	0.494078	0.144647
H165	H	1.058953	0.827411	0.477980
H166	H	0.380362	0.245363	-0.137325
H167	H	0.713695	0.578697	0.196009
H168	H	1.047028	0.912030	0.529342
H169	H	0.463274	0.219710	-0.188926
H170	H	0.796608	0.553043	0.144408
H171	H	1.129941	0.886376	0.477741
C172	C	1.099256	0.221825	-0.403195
C173	C	1.432590	0.555158	-0.069862
C174	C	1.765923	0.888491	0.263471
H175	H	1.129607	0.252168	-0.443848
H176	H	1.462940	0.585502	-0.110515
H177	H	1.796273	0.918835	0.222818
H178	H	1.064843	0.260472	-0.367235
H179	H	1.398177	0.593806	-0.033901
H180	H	1.731510	0.927139	0.299432
H181	H	1.137912	0.187409	-0.367232
H182	H	1.471245	0.520742	-0.033898
H183	H	1.804579	0.854076	0.299435
C184	C	0.885281	0.007767	-0.403223
C185	C	1.218615	0.341100	-0.069889
C186	C	1.551948	0.674433	0.263444
H187	H	0.854935	-0.022583	-0.443880
H188	H	1.188268	0.310750	-0.110547
H189	H	1.521602	0.644083	0.222787
H190	H	0.919698	-0.030875	-0.367255
H191	H	1.253032	0.302458	-0.033921
H192	H	1.586365	0.635792	0.299412
H193	H	0.846623	0.042181	-0.367267
H194	H	1.179956	0.375514	-0.033933
H195	H	1.513289	0.708848	0.299400
C196	C	0.564544	0.030330	0.154651
C197	C	0.897878	0.363663	0.487984
C198	C	1.231211	0.696997	0.821317
H199	H	0.541749	0.058478	0.205912
H200	H	0.875083	0.391811	0.539246
H201	H	1.208416	0.725144	0.872579
H202	H	0.552026	-0.026512	0.155167
H203	H	0.885359	0.306821	0.488501
H204	H	1.218693	0.640154	0.821834
H205	H	0.624005	0.031278	0.153764
H206	H	0.957338	0.364611	0.487097
H207	H	1.290672	0.697944	0.820431
H208	H	1.066885	-0.342546	-0.133399
H209	H	1.400218	-0.009213	0.199934
H210	H	1.733552	0.324120	0.533267
H211	H	1.138950	-0.456694	-0.000094
H212	H	1.472283	-0.123361	0.333239
H213	H	1.805616	0.209973	0.666572
C214	C	1.099259	0.221823	-0.596784
C215	C	1.432592	0.555156	-0.263451
C216	C	1.765926	0.888489	0.069882
H217	H	1.091974	0.214517	-0.658291
H218	H	1.425307	0.547850	-0.324958
H219	H	1.758641	0.881184	0.008375
H220	H	1.083651	0.279288	-0.581679
H221	H	1.416984	0.612622	-0.248345
H222	H	1.750318	0.945955	0.084988
H223	H	1.156732	0.206237	-0.581666
H224	H	1.490065	0.539570	-0.248333
H225	H	1.823398	0.872904	0.085001
C226	C	0.822113	-0.301842	-0.000084
C227	C	1.155446	0.031492	0.333250
C228	C	1.488780	0.364825	0.666583
H229	H	0.813425	-0.267916	0.051252
H230	H	1.146758	0.065417	0.384585
H231	H	1.480092	0.398751	0.717919
H232	H	0.813812	-0.267151	-0.050899
H233	H	1.147146	0.066183	0.282435
H234	H	1.480479	0.399516	0.615768
H235	H	0.783136	-0.342698	-0.000639
H236	H	1.116470	-0.009365	0.332695
H237	H	1.449803	0.323968	0.666028
C238	C	0.564318	0.030346	-0.154850
C239	C	0.897651	0.363679	0.178484
C240	C	1.230984	0.697012	0.511817
H241	H	0.623730	0.031708	-0.154362
H242	H	0.957063	0.365041	0.178971
H243	H	1.290397	0.698375	0.512304
H244	H	0.552200	-0.026627	-0.155064
H245	H	0.885533	0.306706	0.178269
H246	H	1.218866	0.640039	0.511603
H247	H	0.541047	0.058206	-0.206065
H248	H	0.874380	0.391539	0.127268
H249	H	1.207714	0.724873	0.460601
H250	H	1.066920	-0.342397	0.133230
H251	H	1.400253	-0.009064	0.466564
H252	H	1.733587	0.324270	0.799897
H253	H	0.917594	-0.427939	0.133235
H254	H	1.250927	-0.094605	0.466568
H255	H	1.584261	0.238728	0.799901
