data_functionalizedCrystal
_audit_creation_method	'MofGen! by Chris Wilmer'
_symmetry_space_group_name_H-M	'P1'
_symmetry_Int_Tables_number	1
_symmetry_cell_setting	triclinic
loop_
_symmetry_equiv_pos_as_xyz
  x,y,z
_cell_length_a	19.288864
_cell_length_b	14.044220
_cell_length_c	18.366186
_cell_angle_alpha	89.993222
_cell_angle_beta	89.977106
_cell_angle_gamma	88.162561
loop_
_atom_site_label
_atom_site_type_symbol
_atom_site_fract_x
_atom_site_fract_y
_atom_site_fract_z
O1	O	0.928948	0.118214	-0.060787
O2	O	0.727712	0.134161	-0.060738
O3	O	0.825310	-0.011784	-0.060755
O4	O	0.831351	0.264160	-0.060770
O5	O	0.825291	-0.011791	0.060345
O6	O	0.727694	0.134154	0.060362
O7	O	0.928930	0.118207	0.060312
Zn8	Zn	0.828309	0.126180	0.079564
Zn9	Zn	0.828333	0.126189	-0.079990
O10	O	0.831332	0.264152	0.060329
C11	C	0.701794	0.133645	-0.000182
C12	C	0.624591	0.132104	-0.000163
C13	C	0.585397	0.217738	-0.000179
C14	C	0.512857	0.216291	-0.000187
C15	C	0.479514	0.129205	-0.000193
C16	C	0.518717	0.043560	-0.000173
C17	C	0.591256	0.045010	-0.000157
C18	C	0.366860	0.060749	-0.042640
C19	C	0.294322	0.059303	-0.042660
C20	C	0.255781	0.124731	-0.000237
C21	C	0.289785	0.191621	0.042196
C22	C	0.362323	0.193071	0.042212
C23	C	0.400858	0.127624	-0.000209
C24	C	0.137930	0.208802	-0.000261
C25	C	0.065389	0.207351	-0.000264
C26	C	0.071251	0.034617	-0.000257
C27	C	0.143790	0.036071	-0.000247
C28	C	0.177126	0.123165	-0.000252
C29	C	0.822656	-0.047091	-0.000204
C30	C	0.814768	-0.152283	-0.000201
C31	C	0.800348	-0.344882	-0.000208
C32	C	0.856291	-0.402755	-0.000224
C33	C	0.848267	-0.509924	-0.000228
C34	C	0.808370	-0.237703	-0.000204
C35	C	0.954848	0.118724	-0.000245
C36	C	1.032051	0.120264	-0.000269
C37	C	0.833986	0.299459	-0.000223
C38	C	0.841874	0.404651	-0.000231
N39	N	0.828297	0.126173	0.188455
N40	N	0.828350	0.126188	-0.188881
C41	C	0.871531	0.061580	0.226548
C42	C	0.871535	0.061575	0.302776
C43	C	0.828313	0.126180	0.340908
C44	C	0.785071	0.190778	0.302806
C45	C	0.785063	0.190774	0.226579
C46	C	0.824562	0.212524	0.461665
C47	C	0.824575	0.212529	0.537890
C48	C	0.828333	0.126192	0.576015
C49	C	0.832093	0.039847	0.537907
C50	C	0.832085	0.039843	0.461681
C51	C	0.828316	0.126191	0.423563
C52	C	0.871574	0.061589	0.696763
C53	C	0.871573	0.061584	0.772993
C54	C	0.785113	0.190795	0.773021
C55	C	0.785110	0.190792	0.696793
C56	C	0.828344	0.126190	0.658669
H57	H	0.480939	0.286027	-0.000198
N58	N	0.186067	-0.056295	-0.000246
H59	H	0.237079	-0.042163	-0.000236
H60	H	0.174643	-0.094268	0.044645
N61	N	0.408424	-0.009824	-0.088403
H62	H	0.459536	0.001241	-0.081953
H63	H	0.397996	-0.076720	-0.072542
H64	H	0.910212	-0.371814	-0.000286
H65	H	0.746431	-0.375822	-0.000197
N66	N	0.918157	-0.008098	0.185429
H67	H	0.945546	-0.049019	0.221132
H68	H	0.888976	-0.049904	0.153824
N69	N	0.918165	-0.008097	0.343875
H70	H	0.945551	-0.049023	0.308156
H71	H	0.951109	0.028085	0.375479
H72	H	0.906776	0.008984	0.665721
N73	N	0.023135	0.299738	-0.000271
H74	H	-0.007073	0.303012	-0.045163
H75	H	-0.007067	0.302943	0.044650
N76	N	0.836138	-0.053278	0.420576
H77	H	0.838521	-0.107975	0.456290
H78	H	0.793606	-0.058663	0.388973
H79	H	0.749878	0.243379	0.333857
H80	H	0.390007	0.247532	0.076765
H81	H	0.491565	-0.027346	-0.000188
H82	H	0.258406	0.244899	0.076742
H83	H	0.835153	-0.030457	0.568947
H84	H	0.749908	0.243394	0.665776
N85	N	0.918218	-0.008072	0.814083
H86	H	0.945610	-0.048986	0.778362
H87	H	0.951157	0.028130	0.845681
N88	N	0.738488	0.260471	0.814137
H89	H	0.745051	0.250671	0.868208
H90	H	0.750669	0.327670	0.800801
N91	N	0.820516	0.305652	0.578989
H92	H	0.818122	0.360345	0.543272
H93	H	0.777663	0.307772	0.610637
H94	H	0.165073	0.279719	-0.000254
H95	H	0.044104	-0.036290	-0.000308
N96	N	0.257649	-0.012836	-0.088426
H97	H	0.293070	-0.054074	-0.115291
H98	H	0.228911	-0.054067	-0.055884
H99	H	0.821490	0.282834	0.430629
H100	H	0.749856	0.243374	0.195563
H101	H	0.623168	-0.024726	-0.000144
N102	N	0.621351	0.311672	-0.000190
H103	H	0.585510	0.365702	-0.000203
H104	H	0.651297	0.316043	0.044707
