data_functionalizedCrystal
_audit_creation_method	'MofGen! by Chris Wilmer'
_symmetry_space_group_name_H-M	'P1'
_symmetry_Int_Tables_number	1
_symmetry_cell_setting	triclinic
loop_
_symmetry_equiv_pos_as_xyz
  x,y,z
_cell_length_a	16.992694
_cell_length_b	15.944551
_cell_length_c	15.455313
_cell_angle_alpha	92.664316
_cell_angle_beta	87.142206
_cell_angle_gamma	87.083481
loop_
_atom_site_label
_atom_site_type_symbol
_atom_site_fract_x
_atom_site_fract_y
_atom_site_fract_z
O1	O	1.043832	0.174669	-0.072025
O2	O	0.815548	0.172714	-0.072051
O3	O	0.935924	0.051836	-0.072029
O4	O	0.923457	0.295548	-0.072046
O5	O	0.929040	0.058718	0.072232
O6	O	0.808664	0.179596	0.072210
O7	O	1.036949	0.181551	0.072236
Cu8	Cu	0.922178	0.181202	0.085395
Cu9	Cu	0.930319	0.173063	-0.085210
O10	O	0.916573	0.302430	0.072215
C11	C	0.782894	0.173641	0.000077
C12	C	0.695850	0.166141	0.000067
C13	C	0.931964	0.023948	0.000101
C14	C	0.930413	-0.069402	0.000102
C15	C	0.645613	0.238506	0.000063
C16	C	0.563826	0.231454	0.000075
C17	C	0.532276	0.152037	0.000086
C18	C	0.582519	0.079667	0.000093
C19	C	0.664305	0.086719	0.000087
C20	C	0.288676	0.122807	0.000111
C21	C	0.206884	0.115760	0.000115
C22	C	0.188196	0.267548	0.000099
C23	C	0.269984	0.274593	0.000087
C24	C	0.320220	0.202223	0.000099
N25	N	0.448677	0.144827	0.000096
N26	N	0.403817	0.209434	0.000095
C27	C	0.852089	-0.289513	0.000081
C28	C	0.885066	-0.344697	0.071214
C29	C	0.927606	-0.240317	0.000095
C30	C	0.891871	-0.351465	-0.071016
C31	C	0.924889	-0.405412	0.000084
C32	C	0.960600	-0.294269	0.071287
C33	C	0.967397	-0.301034	-0.071007
C34	C	1.000428	-0.356196	0.000144
C35	C	0.929168	-0.145209	0.000101
C36	C	0.923332	-0.500518	0.000084
C37	C	1.069603	0.180624	0.000107
C38	C	1.156647	0.188124	0.000110
C39	C	0.920532	0.330318	0.000082
C40	C	0.922084	0.423668	0.000076
N41	N	0.916458	0.186926	0.205390
N42	N	0.936045	0.167333	-0.205204
C43	C	0.967616	0.135594	0.250793
C44	C	0.963297	0.139932	0.341600
C45	C	0.907824	0.195606	0.387002
C46	C	0.856661	0.246940	0.341593
C47	C	0.860976	0.242598	0.250787
C48	C	0.889197	0.214325	0.658581
C49	C	0.884887	0.218665	0.749392
C50	C	0.991523	0.111655	0.749393
C51	C	0.995836	0.107321	0.658586
C52	C	0.944671	0.158653	0.613185
N53	N	0.903410	0.200042	0.479822
N54	N	0.949081	0.154211	0.520367
H55	H	0.671294	0.303176	0.000054
N56	N	0.841412	-0.369034	0.146646
N57	N	0.874328	-0.413929	0.199893
H58	H	0.843494	-0.431116	0.253165
N59	N	0.302202	0.355720	0.000102
N60	N	0.342857	0.379490	0.060912
H61	H	0.365609	0.436789	0.060923
N62	N	0.512505	0.305371	0.000092
N63	N	0.461902	0.321270	0.060917
H64	H	0.425658	0.373479	0.060937
H65	H	1.002180	-0.281632	-0.131141
H66	H	0.556825	0.015004	0.000114
N67	N	0.339986	0.048886	0.000098
N68	N	0.390601	0.032986	-0.060715
H69	H	0.426844	-0.019223	-0.060726
H70	H	0.989641	-0.269266	0.131491
N71	N	1.043767	0.059206	0.795771
N72	N	1.043167	-0.018990	0.785642
H73	H	1.080065	-0.056038	0.818396
N74	N	0.715611	0.012793	0.000101
N75	N	0.687435	-0.058111	0.000114
H76	H	0.723669	-0.110325	0.000130
H77	H	1.063164	-0.385145	0.000191
N78	N	0.136871	0.341458	0.000086
N79	N	0.063849	0.335155	0.000091
H80	H	0.027599	0.387358	0.000084
N81	N	0.855376	-0.382953	-0.146447
N82	N	0.785505	-0.360510	-0.159108
H83	H	0.759724	-0.382746	-0.212377
N84	N	0.828210	0.275537	0.795758
N85	N	0.782527	0.321359	0.755212
H86	H	0.742499	0.361521	0.787957
N87	N	0.799995	0.303799	0.387981
N88	N	0.796148	0.307670	0.469056
H89	H	0.756128	0.347829	0.501818
N90	N	1.024244	0.078671	0.204433
N91	N	1.069883	0.032807	0.244987
H92	H	1.109860	-0.007418	0.212249
N93	N	0.174669	0.034626	0.000124
N94	N	0.219529	-0.029983	0.000134
H95	H	0.196778	-0.087282	0.000138
H96	H	0.847537	0.256123	0.621622
N97	N	1.015556	0.087487	0.387964
N98	N	1.065084	0.037784	0.347417
H99	H	1.101994	0.000741	0.380160
N100	N	0.773449	-0.253006	0.000163
N101	N	0.724837	-0.265019	0.061139
H102	H	0.669298	-0.239235	0.061201
N103	N	1.052639	0.050599	0.612225
N104	N	1.098401	0.004871	0.652775
H105	H	1.138571	-0.035132	0.620034
N106	N	0.808711	0.295035	0.204420
N107	N	0.759184	0.344740	0.244965
H108	H	0.722267	0.381774	0.212219
