data_functionalizedCrystal
_audit_creation_method	'MofGen! by Chris Wilmer'
_symmetry_space_group_name_H-M	'P1'
_symmetry_Int_Tables_number	1
_symmetry_cell_setting	triclinic
loop_
_symmetry_equiv_pos_as_xyz
  x,y,z
_cell_length_a	15.995292
_cell_length_b	15.995350
_cell_length_c	13.101039
_cell_angle_alpha	93.364563
_cell_angle_beta	86.641931
_cell_angle_gamma	83.480495
loop_
_atom_site_label
_atom_site_type_symbol
_atom_site_fract_x
_atom_site_fract_y
_atom_site_fract_z
O1	O	1.115623	0.103071	-0.085238
O2	O	1.615623	0.603071	0.414762
O3	O	0.871841	0.116450	-0.085233
O4	O	1.371841	0.616450	0.414767
O5	O	1.000396	-0.012128	-0.085234
O6	O	1.500396	0.487872	0.414766
O7	O	0.987068	0.231650	-0.085236
O8	O	1.487068	0.731650	0.414764
O9	O	0.991173	-0.002888	0.085196
O10	O	1.491173	0.497112	0.585196
O11	O	0.862618	0.125690	0.085197
O12	O	1.362618	0.625690	0.585197
O13	O	1.106400	0.112312	0.085192
O14	O	1.606400	0.612312	0.585192
Zn15	Zn	0.983044	0.120468	0.112254
Zn16	Zn	1.483044	0.620468	0.612254
Zn17	Zn	0.995197	0.108293	-0.112295
Zn18	Zn	1.495197	0.608293	0.387705
O19	O	0.977845	0.240890	0.085194
O20	O	1.477845	0.740890	0.585194
C21	C	0.836034	0.120526	-0.000017
C22	C	1.336034	0.620526	0.499983
C23	C	0.743081	0.118893	-0.000016
C24	C	1.243081	0.618893	0.499984
C25	C	0.995233	-0.038703	-0.000021
C26	C	1.495233	0.461297	0.499979
C27	C	0.993582	-0.131653	-0.000027
C28	C	1.493582	0.368347	0.499973
C29	C	0.405343	0.112892	-0.000027
C30	C	0.905343	0.612892	0.499973
C31	C	0.428676	0.205675	-0.000408
C32	C	0.928676	0.705675	0.499592
C33	C	0.525330	0.207460	-0.000020
C34	C	1.025330	0.707460	0.499980
C35	C	0.572899	0.115870	-0.000022
C36	C	1.072899	0.615870	0.499978
C37	C	0.538530	0.074749	0.097299
C38	C	1.038530	0.574749	0.597299
C39	C	0.441735	0.073636	0.097376
C40	C	0.941735	0.573636	0.597376
C41	C	0.452369	0.061232	-0.096435
C42	C	0.952369	0.561232	0.403565
C43	C	0.548931	0.064602	-0.097717
C44	C	1.048931	0.564602	0.402283
C45	C	0.667594	0.117548	-0.000016
C46	C	1.167594	0.617548	0.499984
C47	C	0.310647	0.111211	-0.000027
C48	C	0.810647	0.611211	0.499973
C49	C	0.987649	-0.469399	-0.000024
C50	C	1.487649	0.030601	0.499976
C51	C	0.896115	-0.421967	-0.000404
C52	C	1.396115	0.078033	0.499596
C53	C	0.897747	-0.325256	-0.000020
C54	C	1.397747	0.174744	0.499980
C55	C	0.990592	-0.301839	-0.000026
C56	C	1.490592	0.198161	0.499974
C57	C	1.030483	-0.337650	0.097295
C58	C	1.530483	0.162350	0.597295
C59	C	1.028179	-0.434281	0.097377
C60	C	1.528179	0.065719	0.597377
C61	C	1.040559	-0.445147	-0.096434
C62	C	1.540559	0.054853	0.403566
C63	C	1.040607	-0.348272	-0.097720
C64	C	1.540607	0.151728	0.402280
C65	C	0.992260	-0.207142	-0.000024
C66	C	1.492260	0.292858	0.499976
C67	C	0.985984	-0.564096	-0.000019
C68	C	1.485984	-0.064096	0.499981
C69	C	1.142207	0.108236	-0.000025
C70	C	1.642207	0.608236	0.499975
C71	C	1.235161	0.109868	-0.000034
C72	C	1.735161	0.609868	0.499966
C73	C	0.983008	0.267464	-0.000021
C74	C	1.483008	0.767464	0.499979
C75	C	0.984660	0.360414	-0.000022
C76	C	1.484660	0.860414	0.499978
N77	N	0.974756	0.128777	0.265503
N78	N	1.474756	0.628777	0.765503
N79	N	1.003491	0.099978	-0.265543
N80	N	1.503491	0.599978	0.234457
C81	C	0.963481	0.140089	0.474546
C82	C	1.463481	0.640089	0.974546
C83	C	1.014764	0.088669	0.525421
C84	C	1.514764	0.588669	1.025421
C85	C	1.008490	0.094963	0.641739
C86	C	1.508490	0.594963	1.141739
C87	C	0.969754	0.133796	0.358217
C88	C	1.469754	0.633796	0.858217
H89	H	0.548133	0.240010	-0.069786
H90	H	1.048133	0.740010	0.430214
H91	H	0.914867	0.188834	0.518343
H92	H	1.414867	0.688834	1.018343
Cl93	Cl	0.563443	0.130556	0.209124
Cl94	Cl	1.063443	0.630556	0.709124
H95	H	1.063382	0.039922	0.481618
H96	H	1.563382	0.539922	0.981618
Cl97	Cl	0.583655	0.110703	-0.208880
Cl98	Cl	1.083655	0.610703	0.291120
H99	H	0.404457	0.237662	-0.070202
H100	H	0.904457	0.737662	0.429798
H101	H	1.011487	-0.324920	-0.169716
H102	H	1.511487	0.175080	0.330284
Cl103	Cl	0.378075	0.266411	0.106738
Cl104	Cl	0.878075	0.766411	0.606738
H105	H	0.410981	0.109713	0.170127
H106	H	0.910981	0.609713	0.670127
Cl107	Cl	0.547912	0.269743	0.107878
Cl108	Cl	1.047912	0.769743	0.607878
H109	H	1.098498	-0.323342	0.100910
H110	H	1.598498	0.176658	0.600910
Cl111	Cl	0.418893	-0.031041	0.104260
Cl112	Cl	0.918893	0.468959	0.604260
H113	H	0.570202	0.007546	0.100916
H114	H	1.070202	0.507546	0.600916
H115	H	0.582219	-0.002569	-0.103597
H116	H	1.082219	0.497431	0.396403
H117	H	0.855928	-0.437790	0.068999
H118	H	1.355928	0.062210	0.568999
Cl119	Cl	0.414810	0.099853	-0.210322
Cl120	Cl	0.914810	0.599853	0.289678
H121	H	0.438411	-0.007114	-0.097095
H122	H	0.938411	0.492886	0.402905
H123	H	0.863299	-0.444275	-0.070195
H124	H	1.363299	0.055725	0.429805
Cl125	Cl	0.848770	-0.287199	-0.107728
Cl126	Cl	1.348770	0.212801	0.392272
H127	H	0.858229	-0.293595	0.069864
H128	H	1.358229	0.206405	0.569864
H129	H	0.991312	-0.448630	0.170130
H130	H	1.491312	0.051370	0.670130
Cl131	Cl	1.131585	-0.483724	0.104203
Cl132	Cl	1.631585	0.016276	0.604203
Cl133	Cl	0.976008	-0.287763	0.209121
Cl134	Cl	1.476008	0.212237	0.709121
Cl135	Cl	1.000499	-0.483011	-0.210321
Cl136	Cl	1.500499	0.016989	0.289679
Cl137	Cl	1.144831	-0.494262	-0.097454
Cl138	Cl	1.644831	0.005738	0.402546
Cl139	Cl	1.145633	-0.325066	-0.106807
Cl140	Cl	1.645633	0.174934	0.393193
