data_functionalizedCrystal
_audit_creation_method	'MofGen! by Chris Wilmer'
_symmetry_space_group_name_H-M	'P1'
_symmetry_Int_Tables_number	1
_symmetry_cell_setting	triclinic
loop_
_symmetry_equiv_pos_as_xyz
  x,y,z
_cell_length_a	6.817900
_cell_length_b	14.125469
_cell_length_c	14.125465
_cell_angle_alpha	96.223606
_cell_angle_beta	100.398878
_cell_angle_gamma	100.398878
loop_
_atom_site_label
_atom_site_type_symbol
_atom_site_fract_x
_atom_site_fract_y
_atom_site_fract_z
V1	V	-3.975811	-0.132289	-0.299607
O2	O	-3.980353	0.007207	-0.294286
O3	O	-3.912231	-0.263124	-0.297190
O4	O	-3.912235	-0.129880	-0.430444
O5	O	-3.980349	-0.126958	-0.160110
V6	V	-4.463372	-0.115647	-0.282967
O7	O	-4.228211	-0.168792	-0.336109
O8	O	-4.661169	-0.079143	-0.246465
O9	O	-4.303745	0.015188	-0.285384
O10	O	-4.576227	-0.255143	-0.288288
O11	O	-4.576231	-0.120977	-0.422464
O12	O	-4.303741	-0.118055	-0.152130
C13	C	-3.754030	-0.295030	-0.292369
C14	C	-3.783232	-0.401987	-0.291265
C15	C	-3.754035	-0.125064	-0.462346
C16	C	-3.783238	-0.123961	-0.569303
C17	C	-3.836763	-0.597818	-0.289258
C18	C	-4.021786	-0.650129	-0.293319
C19	C	-4.051573	-0.759096	-0.292203
C20	C	-3.806968	-0.488841	-0.290375
C21	C	-3.836765	-0.121938	-0.765132
C22	C	-4.021787	-0.125996	-0.817442
C23	C	-4.051572	-0.124870	-0.926408
C24	C	-3.806972	-0.123063	-0.656156
C25	C	-4.125288	0.047089	-0.290202
C26	C	-4.075323	0.154046	-0.291313
C27	C	-4.125284	-0.122875	-0.120223
C28	C	-4.075320	-0.123973	-0.013265
H29	H	-4.157817	-0.613077	-0.297633
O30	O	-3.674367	-0.116917	-0.809235
C31	C	-3.584393	-0.197948	-0.794634
H32	H	-3.624626	-0.227952	-0.727285
H33	H	-3.643917	-0.256626	-0.860837
C34	C	-3.301940	-0.129816	-0.862954
C35	C	-3.351341	-0.166662	-0.780229
H36	H	-3.158183	-0.110520	-0.854072
H37	H	-3.362560	-0.075226	-0.872794
H38	H	-3.351560	-0.178721	-0.918114
H39	H	-3.301744	-0.117754	-0.725073
H40	H	-3.290707	-0.221244	-0.770379
H41	H	-3.700742	-0.634868	-0.284941
O42	O	-4.183881	-0.131202	-0.773102
C43	C	-4.117596	-0.131175	-0.672598
H44	H	-3.968098	-0.157774	-0.659477
H45	H	-4.093456	-0.054187	-0.632417
C46	C	-4.463365	-0.166545	-0.650928
C47	C	-4.279757	-0.199222	-0.634814
H48	H	-4.563395	-0.208515	-0.627619
H49	H	-4.508023	-0.166559	-0.718639
H50	H	-4.443220	-0.102388	-0.617444
H51	H	-4.299898	-0.263372	-0.668308
H52	H	-4.235105	-0.199220	-0.567107
