data_functionalizedCrystal
_audit_creation_method	'MofGen! by Chris Wilmer'
_symmetry_space_group_name_H-M	'P1'
_symmetry_Int_Tables_number	1
_symmetry_cell_setting	triclinic
loop_
_symmetry_equiv_pos_as_xyz
  x,y,z
_cell_length_a	10.540539
_cell_length_b	15.944551
_cell_length_c	9.616153
_cell_angle_alpha	89.996788
_cell_angle_beta	89.995174
_cell_angle_gamma	84.012115
loop_
_atom_site_label
_atom_site_type_symbol
_atom_site_fract_x
_atom_site_fract_y
_atom_site_fract_z
O1	O	1.684280	0.118370	-0.115583
O2	O	1.314716	0.129523	-0.115601
O3	O	1.509590	0.001731	-0.115579
O4	O	1.489406	0.246161	-0.115605
O5	O	1.509563	0.001734	0.115712
O6	O	1.314689	0.129525	0.115690
O7	O	1.684254	0.118372	0.115708
Zn8	Zn	1.499467	0.123949	0.152422
Zn9	Zn	1.499502	0.123946	-0.152315
O10	O	1.489379	0.246163	0.115686
C11	C	1.267411	0.128688	0.000043
C12	C	1.126497	0.126185	0.000036
C13	C	1.508739	-0.029566	0.000067
C14	C	1.506227	-0.122827	0.000067
C15	C	0.944375	0.030298	0.000587
C16	C	1.090959	0.032835	0.000051
C17	C	1.064228	0.171108	-0.132042
C18	C	0.917727	0.167922	-0.132138
C19	C	0.917182	0.169824	0.130883
C20	C	1.064152	0.170684	0.132615
C21	C	1.379430	-0.338440	0.000042
C22	C	1.438297	-0.399105	0.114086
C23	C	1.501682	-0.293580	0.000056
C24	C	1.438352	-0.399091	-0.113950
C25	C	1.497283	-0.458519	0.000040
C26	C	1.560583	-0.353017	0.114194
C27	C	1.560621	-0.352996	-0.113944
C28	C	1.619577	-0.413643	0.000128
C29	C	1.504213	-0.198563	0.000067
C30	C	1.494762	-0.553535	0.000039
C31	C	1.731559	0.119207	0.000061
C32	C	1.872473	0.121710	0.000058
C33	C	1.490231	0.277461	0.000037
C34	C	1.492743	0.370722	0.000027
N35	N	1.499452	0.123951	0.360396
N36	N	1.499527	0.123937	-0.360289
C37	C	1.394895	0.192081	0.580755
C38	C	1.395120	0.192337	0.419587
C39	C	1.631904	0.143890	0.418850
C40	C	1.631333	0.144372	0.580067
C41	C	1.472882	0.035659	0.580316
C42	C	1.469828	0.036231	0.419089
H43	H	0.916281	-0.006580	0.095308
O44	O	1.369855	-0.426120	-0.241654
H45	H	1.419705	-0.406766	-0.336220
H46	H	1.411676	0.257205	0.621247
H47	H	1.612295	-0.332559	-0.210358
H48	H	0.869037	0.237250	0.131769
O49	O	1.264704	0.176463	0.367222
H50	H	1.200905	0.168538	0.457051
O51	O	1.663734	0.228244	0.365366
H52	H	1.667918	0.226710	0.250050
H53	H	1.296131	0.180269	0.619562
O54	O	1.369806	-0.426149	0.241800
H55	H	1.270154	-0.395755	0.241566
H56	H	1.612236	-0.332717	0.210715
H57	H	1.133200	-0.002764	-0.094786
H58	H	1.134043	-0.002512	0.094731
O59	O	0.880959	0.123923	-0.262887
H60	H	0.967777	0.105115	-0.325450
H61	H	1.412127	0.257832	0.381001
O62	O	1.121198	0.129763	-0.262241
H63	H	1.166779	0.176949	-0.324618
O64	O	0.852960	0.256845	-0.140117
H65	H	0.926320	0.301930	-0.143901
O66	O	1.754100	-0.456778	0.000210
H67	H	1.804515	-0.438323	0.094966
H68	H	1.654811	0.208777	0.617650
H69	H	0.886035	0.139615	0.230998
O70	O	1.737567	0.081193	0.631742
H71	H	1.789128	0.050436	0.541578
O72	O	1.118980	0.127222	0.262056
H73	H	1.190340	0.074150	0.232108
H74	H	1.378404	0.016683	0.621050
O75	O	1.564197	-0.034178	0.365741
H76	H	1.615167	-0.066529	0.454899
O77	O	1.245027	-0.295103	0.000178
H78	H	1.176250	-0.343283	0.001226
O79	O	1.573884	-0.031539	0.630920
H80	H	1.554397	-0.093672	0.588576
O81	O	1.737505	0.079947	0.368068
H82	H	1.696608	0.033169	0.300460
O83	O	1.340760	0.016208	0.368512
H84	H	1.297882	0.068505	0.301840
O85	O	1.095019	0.260835	0.143182
H86	H	1.058124	0.296359	0.049829
O87	O	0.905037	-0.018361	-0.124156
H88	H	0.834500	0.022279	-0.186533
O89	O	1.092589	0.261917	-0.138587
H90	H	1.197357	0.264361	-0.143234
