data_functionalizedCrystal
_audit_creation_method	'MofGen! by Chris Wilmer'
_symmetry_space_group_name_H-M	'P1'
_symmetry_Int_Tables_number	1
_symmetry_cell_setting	triclinic
loop_
_symmetry_equiv_pos_as_xyz
  x,y,z
_cell_length_a	19.805407
_cell_length_b	19.077692
_cell_length_c	19.805399
_cell_angle_alpha	87.728486
_cell_angle_beta	90.019573
_cell_angle_gamma	87.730708
loop_
_atom_site_label
_atom_site_type_symbol
_atom_site_fract_x
_atom_site_fract_y
_atom_site_fract_z
Zn1	Zn	1.045551	-0.280198	0.393551
Zn2	Zn	1.378884	0.053135	0.726884
Zn3	Zn	1.712217	0.386468	1.060217
Zn4	Zn	1.050008	-0.397889	0.284912
Zn5	Zn	1.383342	-0.064556	0.618245
Zn6	Zn	1.716675	0.268778	0.951578
Zn7	Zn	0.932366	-0.280218	0.280376
Zn8	Zn	1.265699	0.053116	0.613709
Zn9	Zn	1.599033	0.386449	0.947043
Zn10	Zn	0.936870	-0.397852	0.398057
Zn11	Zn	1.270203	-0.064518	0.731390
Zn12	Zn	1.603537	0.268815	1.064724
O13	O	0.991199	-0.339039	0.339224
O14	O	1.324532	-0.005706	0.672557
O15	O	1.657865	0.327628	1.005891
O16	O	1.140859	-0.295818	0.379152
O17	O	1.474192	0.037516	0.712485
O18	O	1.807526	0.370849	1.045818
O19	O	1.034383	-0.382303	0.189594
O20	O	1.367717	-0.048970	0.522928
O21	O	1.701050	0.284363	0.856261
O22	O	0.943630	-0.181731	0.291605
O23	O	1.276963	0.151603	0.624938
O24	O	1.610297	0.484936	0.958271
O25	O	1.144134	-0.382285	0.299335
O26	O	1.477467	-0.048951	0.632669
O27	O	1.810800	0.284382	0.966002
O28	O	1.026786	-0.181717	0.374754
O29	O	1.360120	0.151617	0.708087
O30	O	1.693453	0.484950	1.041420
O31	O	0.947952	-0.295851	0.186262
O32	O	1.281285	0.037483	0.519595
O33	O	1.614619	0.370816	0.852929
O34	O	0.838247	-0.295814	0.295974
O35	O	1.171580	0.037519	0.629308
O36	O	1.504913	0.370852	0.962641
O37	O	0.951306	-0.382221	0.492175
O38	O	1.284640	-0.048888	0.825508
O39	O	1.617973	0.284446	1.158842
O40	O	0.841556	-0.382240	0.382434
O41	O	1.174889	-0.048906	0.715767
O42	O	1.508222	0.284427	1.049101
O43	O	1.031153	-0.295781	0.488864
O44	O	1.364487	0.037552	0.822197
O45	O	1.697820	0.370885	1.155531
O46	O	1.038751	-0.496368	0.303705
O47	O	1.372084	-0.163035	0.637038
O48	O	1.705417	0.170298	0.970372
O49	O	0.955628	-0.496341	0.386832
O50	O	1.288962	-0.163007	0.720166
O51	O	1.622295	0.170326	1.053499
C52	C	0.815342	-0.339026	0.339201
C53	C	1.148676	-0.005692	0.672535
C54	C	1.482009	0.327641	1.005868
C55	C	0.740111	-0.339037	0.339209
C56	C	1.073444	-0.005703	0.672542
C57	C	1.406777	0.327630	1.005875
C58	C	0.706510	-0.384106	0.384161
C59	C	1.039843	-0.050773	0.717494
C60	C	1.373177	0.282561	1.050827
C61	C	0.635821	-0.384107	0.384170
C62	C	0.969155	-0.050774	0.717504
C63	C	1.302488	0.282559	1.050837
C64	C	0.598735	-0.339042	0.339224
C65	C	0.932069	-0.005709	0.672557
C66	C	1.265402	0.327624	1.005891
C67	C	0.632341	-0.293968	0.294270
C68	C	0.965674	0.039365	0.627603
C69	C	1.299008	0.372699	0.960936
C70	C	0.703028	-0.293964	0.294264
C71	C	1.036361	0.039370	0.627597
C72	C	1.369695	0.372703	0.960931
C73	C	0.347268	-0.293984	0.294293
C74	C	0.680602	0.039350	0.627626
C75	C	1.013935	0.372683	0.960959
C76	C	0.276576	-0.293993	0.294301
C77	C	0.609910	0.039341	0.627634
C78	C	0.943243	0.372674	0.960967
C79	C	0.280062	-0.384127	0.384199
C80	C	0.613395	-0.050794	0.717532
C81	C	0.946728	0.282539	1.050866
C82	C	0.350749	-0.384123	0.384193
C83	C	0.684082	-0.050790	0.717527
C84	C	1.017415	0.282544	1.050860
C85	C	0.384348	-0.339046	0.339242
C86	C	0.717681	-0.005713	0.672575
C87	C	1.051015	0.327620	1.005908
C88	C	0.460996	-0.339045	0.339233
C89	C	0.794330	-0.005711	0.672566
C90	C	1.127663	0.327622	1.005899
C91	C	0.522088	-0.339047	0.339229
C92	C	0.855422	-0.005714	0.672562
C93	C	1.188755	0.327620	1.005896
C94	C	0.998180	-0.521890	0.346264
C95	C	1.331514	-0.188557	0.679598
C96	C	1.664847	0.144776	1.012931
C97	C	1.001229	-0.600115	0.349299
C98	C	1.334562	-0.266782	0.682632
C99	C	1.667896	0.066552	1.015966
C100	C	0.959405	-0.636935	0.307405
C101	C	1.292739	-0.303602	0.640739
C102	C	1.626072	0.029731	0.974072
C103	C	0.962277	-0.710435	0.310260
C104	C	1.295610	-0.377102	0.643593
C105	C	1.628943	-0.043769	0.976926
C106	C	1.006969	-0.747114	0.355012
C107	C	1.340302	-0.413781	0.688345
C108	C	1.673635	-0.080447	1.021678
C109	C	1.048797	-0.710289	0.396907
C110	C	1.382130	-0.376955	0.730240
C111	C	1.715464	-0.043622	1.063574
C112	C	1.045928	-0.636790	0.394049
C113	C	1.379262	-0.303456	0.727382
C114	C	1.712595	0.029877	1.060716
C115	C	1.020189	-0.966925	0.368202
C116	C	1.353523	-0.633592	0.701535
C117	C	1.686856	-0.300258	1.034869
C118	C	1.023053	-1.040429	0.371059
C119	C	1.356386	-0.707096	0.704392
C120	C	1.689720	-0.373762	1.037725
C121	C	0.936534	-1.040571	0.284410
C122	C	1.269867	-0.707237	0.617743
C123	C	1.603200	-0.373904	0.951077
C124	C	0.933666	-0.967070	0.281559
C125	C	1.267000	-0.633737	0.614892
C126	C	1.600333	-0.300404	0.948225
C127	C	0.975497	-0.930251	0.323452
C128	C	1.308830	-0.596918	0.656785
C129	C	1.642163	-0.263585	0.990118
N130	N	1.009903	-0.822243	0.357932
N131	N	1.343237	-0.488910	0.691265
N132	N	1.676570	-0.155577	1.024598
N133	N	0.972565	-0.855124	0.320528
N134	N	1.305899	-0.521790	0.653861
N135	N	1.639232	-0.188457	0.987194
C136	C	1.167742	-0.339053	0.339247
C137	C	1.501075	-0.005720	0.672580
C138	C	1.834409	0.327614	1.005913
C139	C	1.242974	-0.339059	0.339257
C140	C	1.576308	-0.005726	0.672590
C141	C	1.909641	0.327608	1.005923
C142	C	0.991235	-0.338995	0.515765
C143	C	1.324568	-0.005661	0.849098
C144	C	1.657902	0.327672	1.182432
C145	C	0.991250	-0.338976	0.590996
C146	C	1.324584	-0.005643	0.924330
C147	C	1.657917	0.327691	1.257663
C148	C	0.984208	-0.155474	0.332171
C149	C	1.317542	0.177860	0.665504
C150	C	1.650875	0.511193	0.998837
C151	C	0.981230	-0.077249	0.329165
C152	C	1.314563	0.256084	0.662498
C153	C	1.647896	0.589417	0.995832
C154	C	0.991200	-0.339032	0.163368
C155	C	1.324533	-0.005699	0.496701
C156	C	1.657866	0.327634	0.830034
C157	C	0.991308	-0.338853	0.088129
C158	C	1.324641	-0.005520	0.421462
C159	C	1.657974	0.327814	0.754796
C160	C	1.032828	-0.293965	0.624617
C161	C	1.366161	0.039369	0.957951
C162	C	1.699494	0.372702	1.291284
C163	C	1.032834	-0.293944	0.695305
C164	C	1.366167	0.039389	1.028638
C165	C	1.699501	0.372722	1.361972
C166	C	0.991266	-0.338939	0.732370
C167	C	1.324599	-0.005606	1.065704
C168	C	1.657933	0.327728	1.399037
C169	C	0.949684	-0.383952	0.698744
C170	C	1.283017	-0.050619	1.032078
C171	C	1.616351	0.282714	1.365411
C172	C	0.949675	-0.383969	0.628058
C173	C	1.283008	-0.050635	0.961391
C174	C	1.616341	0.282698	1.294724
C175	C	0.949720	-0.383887	0.983815
C176	C	1.283053	-0.050553	1.317149
C177	C	1.616386	0.282780	1.650482
C178	C	0.949733	-0.383868	1.054507
C179	C	1.283067	-0.050535	1.387840
C180	C	1.616400	0.282798	1.721173
C181	C	1.032879	-0.293862	1.051063
C182	C	1.366212	0.039471	1.384396
C183	C	1.699546	0.372804	1.717729
C184	C	1.032870	-0.293879	0.980376
C185	C	1.366203	0.039455	1.313709
C186	C	1.699536	0.372788	1.647043
C187	C	0.991285	-0.338889	0.946756
C188	C	1.324619	-0.005556	1.280089
C189	C	1.657952	0.327778	1.613423
C190	C	0.991278	-0.338910	0.870108
C191	C	1.324612	-0.005576	1.203442
C192	C	1.657945	0.327757	1.536775
C193	C	0.991276	-0.338923	0.809017
C194	C	1.324609	-0.005589	1.142350
C195	C	1.657943	0.327744	1.475684
H196	H	0.736701	-0.420806	0.420759
H197	H	1.070034	-0.087472	0.754093
H198	H	1.403367	0.245861	1.087426
Cl199	Cl	1.085131	-0.237314	0.933784
Cl200	Cl	1.418464	0.096020	1.267117
Cl201	Cl	1.751797	0.429353	1.600450
H202	H	0.923010	-0.607076	0.270967
H203	H	1.256343	-0.273743	0.604300
H204	H	1.589676	0.059590	0.937633
H205	H	0.380941	-0.420822	0.420791
H206	H	0.714274	-0.087489	0.754124
H207	H	1.047608	0.245845	1.087458
H208	H	0.915811	-0.420614	0.600684
H209	H	1.249144	-0.087281	0.934018
H210	H	1.582478	0.246052	1.267351
H211	H	0.602140	-0.257272	0.257676
H212	H	0.935473	0.076061	0.591010
H213	H	1.268806	0.409394	0.924343
H214	H	0.915881	-0.420510	1.084684
H215	H	1.249214	-0.087177	1.418017
H216	H	1.582547	0.246157	1.751350
Cl217	Cl	1.085155	-0.237274	1.093332
Cl218	Cl	1.418488	0.096059	1.426665
Cl219	Cl	1.751821	0.429393	1.759999
H220	H	0.897275	-0.937208	0.245118
H221	H	1.230608	-0.603875	0.578451
H222	H	1.563941	-0.270541	0.911785
Cl223	Cl	1.072772	-0.920648	0.420872
Cl224	Cl	1.406106	-0.587314	0.754206
Cl225	Cl	1.739439	-0.253981	1.087539
Cl226	Cl	1.104984	-0.756399	0.453164
Cl227	Cl	1.438318	-0.423066	0.786498
Cl228	Cl	1.771651	-0.089733	1.119831
H229	H	0.928221	-0.740411	0.276144
H230	H	1.261554	-0.407078	0.609477
H231	H	1.594888	-0.073745	0.942811
H232	H	0.902478	-1.070557	0.250303
H233	H	1.235811	-0.737223	0.583636
H234	H	1.569145	-0.403890	0.916969
Cl235	Cl	1.079248	-1.086538	0.427316
Cl236	Cl	1.412581	-0.753205	0.760649
Cl237	Cl	1.745915	-0.419872	1.093983
H238	H	0.915869	-0.420547	0.956451
H239	H	1.249203	-0.087214	1.289784
H240	H	1.582536	0.246119	1.623118
H241	H	0.252697	-0.420828	0.420803
H242	H	0.586030	-0.087495	0.754137
H243	H	0.919363	0.245838	1.087470
H244	H	1.079986	-0.606811	0.428162
H245	H	1.413320	-0.273478	0.761496
H246	H	1.746653	0.059855	1.094829
H247	H	0.374616	-0.257285	0.257685
H248	H	0.707950	0.076049	0.591019
H249	H	1.041283	0.409382	0.924352
H250	H	0.730384	-0.257260	0.257663
H251	H	1.063718	0.076073	0.590996
H252	H	1.397051	0.409407	0.924329
Cl253	Cl	1.085092	-0.237400	0.578028
Cl254	Cl	1.418425	0.095934	0.911361
Cl255	Cl	1.751758	0.429267	1.244695
H256	H	0.608467	-0.420808	0.420774
H257	H	0.941800	-0.087475	0.754108
H258	H	1.275134	0.245859	1.087441
Cl259	Cl	1.085136	-0.237387	0.737570
Cl260	Cl	1.418470	0.095946	1.070903
Cl261	Cl	1.751803	0.429280	1.404237
H262	H	0.246382	-0.257291	0.257700
H263	H	0.579716	0.076042	0.591033
H264	H	0.913049	0.409376	0.924366
Cl265	Cl	0.897424	-0.440515	0.745341
Cl266	Cl	1.230757	-0.107182	1.078674
Cl267	Cl	1.564091	0.226151	1.412008
