data_functionalizedCrystal
_audit_creation_method	'MofGen! by Chris Wilmer'
_symmetry_space_group_name_H-M	'P1'
_symmetry_Int_Tables_number	1
_symmetry_cell_setting	triclinic
loop_
_symmetry_equiv_pos_as_xyz
  x,y,z
_cell_length_a	8.497374
_cell_length_b	18.215407
_cell_length_c	18.215405
_cell_angle_alpha	89.974667
_cell_angle_beta	89.985971
_cell_angle_gamma	90.003703
loop_
_atom_site_label
_atom_site_type_symbol
_atom_site_fract_x
_atom_site_fract_y
_atom_site_fract_z
Zn1	Zn	0.891978	1.124955	0.293103
Zn2	Zn	0.628155	1.124898	0.416139
Zn3	Zn	0.628196	1.001922	0.293092
Zn4	Zn	0.891878	1.001853	0.416133
O5	O	0.760052	1.063407	0.354617
O6	O	0.857006	1.227931	0.309431
O7	O	0.407398	1.108590	0.399814
O8	O	0.663247	1.018295	0.190109
O9	O	0.663177	1.227890	0.399825
O10	O	0.857046	1.108687	0.190117
O11	O	0.407429	1.018240	0.309412
O12	O	0.663149	0.898929	0.309406
O13	O	1.112653	1.018178	0.399816
O14	O	0.856875	0.898878	0.399805
O15	O	1.112727	1.108620	0.309426
O16	O	0.663079	1.108523	0.519122
O17	O	0.856835	1.018123	0.519118
C18	C	0.760007	0.872201	0.354604
C19	C	0.760025	0.790402	0.354616
C20	C	0.759976	1.063329	0.545823
C21	C	0.759996	1.063363	0.627622
C22	C	0.860771	0.602201	0.401761
C23	C	0.860791	0.525342	0.401763
C24	C	0.659367	0.525365	0.307486
C25	C	0.659357	0.602222	0.307481
C26	C	0.760056	0.640638	0.354622
C27	C	0.760086	0.486922	0.354630
C28	C	0.760107	0.403589	0.354632
C29	C	0.760038	0.723977	0.354619
C30	C	1.171532	1.063401	0.354618
C31	C	1.350176	1.063403	0.354626
C32	C	0.760098	1.255360	0.354630
C33	C	0.760118	1.337159	0.354636
C34	C	0.760163	1.063505	0.162664
C35	C	0.760210	1.063547	0.080865
C36	C	0.659293	1.110545	0.815793
C37	C	0.659332	1.110578	0.892652
C38	C	0.860924	1.016363	0.892688
C39	C	0.860892	1.016334	0.815831
C40	C	0.760068	1.063424	0.777385
C41	C	0.760138	1.063486	0.931101
C42	C	0.760180	1.063521	1.014435
C43	C	0.760028	1.063390	0.694046
H44	H	0.942805	0.494050	0.440147
C45	C	0.637541	1.209511	0.729282
C46	C	0.548481	1.162310	0.773532
H47	H	0.569127	1.241467	0.703191
H48	H	0.706333	1.237641	0.759228
H49	H	0.697545	1.181435	0.695408
H50	H	0.488486	1.190386	0.807410
H51	H	0.479661	1.134178	0.743584
C52	C	1.127765	0.625869	0.437790
C53	C	0.971473	0.644430	0.453569
H54	H	1.196111	0.651943	0.469772
H55	H	1.142174	0.574601	0.444542
H56	H	1.151013	0.638489	0.388357
H57	H	0.948222	0.631806	0.503001
H58	H	0.957057	0.695710	0.446823
C59	C	0.460050	1.203694	0.884892
C60	C	0.548548	1.162372	0.934870
H61	H	0.391649	1.235667	0.910957
H62	H	0.528826	1.231803	0.854878
H63	H	0.399634	1.171633	0.854953
H64	H	0.608973	1.194432	0.964806
H65	H	0.479764	1.134260	0.964896
C66	C	0.950470	0.974566	1.010521
C67	C	0.971729	0.964595	0.934950
H68	H	1.018870	0.942601	1.036609
H69	H	0.973674	1.024001	1.023070
H70	H	0.844449	0.963845	1.023138
H71	H	1.077748	0.975321	0.922333
H72	H	0.948536	0.915149	0.922396
H73	H	0.942963	0.977962	0.784557
C74	C	0.569947	0.407558	0.265633
C75	C	0.548676	0.483135	0.255673
H76	H	0.501600	0.381490	0.233647
H77	H	0.675975	0.394977	0.254940
H78	H	0.546664	0.394950	0.315065
H79	H	0.571971	0.495745	0.206241
H80	H	0.442624	0.495721	0.266360
H81	H	0.577343	0.633519	0.269090
