data_functionalizedCrystal
_audit_creation_method	'MofGen! by Chris Wilmer'
_symmetry_space_group_name_H-M	'P1'
_symmetry_Int_Tables_number	1
_symmetry_cell_setting	triclinic
loop_
_symmetry_equiv_pos_as_xyz
  x,y,z
_cell_length_a	11.169417
_cell_length_b	18.215405
_cell_length_c	18.215387
_cell_angle_alpha	89.908406
_cell_angle_beta	89.942747
_cell_angle_gamma	90.025764
loop_
_atom_site_label
_atom_site_type_symbol
_atom_site_fract_x
_atom_site_fract_y
_atom_site_fract_z
Zn1	Zn	1.835285	-0.292531	-0.416035
Zn2	Zn	2.085285	-0.042531	-0.166035
Zn3	Zn	2.335285	0.207469	0.083965
Zn4	Zn	2.585285	0.457469	0.333965
Zn5	Zn	1.834992	-0.415734	-0.292963
Zn6	Zn	2.084992	-0.165734	-0.042963
Zn7	Zn	2.334992	0.084266	0.207037
Zn8	Zn	2.584992	0.334266	0.457037
Zn9	Zn	1.634439	-0.292687	-0.292990
Zn10	Zn	1.884439	-0.042687	-0.042990
Zn11	Zn	2.134439	0.207313	0.207010
Zn12	Zn	2.384439	0.457313	0.457010
Zn13	Zn	1.634527	-0.415562	-0.415995
Zn14	Zn	1.884527	-0.165562	-0.165995
Zn15	Zn	2.134527	0.084438	0.084005
Zn16	Zn	2.384527	0.334438	0.334005
O17	O	1.734811	-0.354129	-0.354496
O18	O	1.984811	-0.104129	-0.104496
O19	O	2.234811	0.145871	0.145504
O20	O	2.484811	0.395871	0.395504
O21	O	2.003195	-0.308881	-0.399714
O22	O	2.253195	-0.058881	-0.149714
O23	O	2.503195	0.191119	0.100286
O24	O	2.753195	0.441119	0.350286
O25	O	1.808229	-0.399548	-0.189982
O26	O	2.058229	-0.149548	0.060018
O27	O	2.308229	0.100452	0.310018
O28	O	2.558229	0.350452	0.560018
O29	O	1.661168	-0.189682	-0.309339
O30	O	1.911168	0.060318	-0.059339
O31	O	2.161168	0.310318	0.190661
O32	O	2.411168	0.560318	0.440661
O33	O	2.002980	-0.399397	-0.309294
O34	O	2.252980	-0.149397	-0.059294
O35	O	2.502980	0.100603	0.190706
O36	O	2.752980	0.350603	0.440706
O37	O	1.808728	-0.189568	-0.399740
O38	O	2.058728	0.060432	-0.149740
O39	O	2.308728	0.310432	0.100260
O40	O	2.558728	0.560432	0.350260
O41	O	1.660884	-0.309147	-0.190001
O42	O	1.910884	-0.059147	0.059999
O43	O	2.160884	0.190853	0.309999
O44	O	2.410884	0.440853	0.559999
O45	O	1.466501	-0.308981	-0.309301
O46	O	1.716501	-0.058981	-0.059301
O47	O	1.966501	0.191019	0.190699
O48	O	2.216501	0.441019	0.440699
O49	O	1.661317	-0.399105	-0.518985
O50	O	1.911317	-0.149105	-0.268985
O51	O	2.161317	0.100895	-0.018985
O52	O	2.411317	0.350895	0.231015
O53	O	1.466566	-0.399257	-0.399673
O54	O	1.716566	-0.149257	-0.149673
O55	O	1.966566	0.100743	0.100327
O56	O	2.216566	0.350743	0.350327
O57	O	1.808813	-0.308715	-0.519014
O58	O	2.058813	-0.058715	-0.269014
O59	O	2.308813	0.191285	-0.019014
O60	O	2.558813	0.441285	0.230986
O61	O	1.808314	-0.518695	-0.309256
O62	O	2.058314	-0.268695	-0.059256
O63	O	2.308314	-0.018695	0.190744
O64	O	2.558314	0.231305	0.440744
O65	O	1.661033	-0.518570	-0.399647
O66	O	1.911033	-0.268570	-0.149647
O67	O	2.161033	-0.018570	0.100353
O68	O	2.411033	0.231430	0.350353
C69	C	1.422986	-0.354118	-0.354486
C70	C	1.672986	-0.104118	-0.104486
C71	C	1.922986	0.145882	0.145514
C72	C	2.172986	0.395882	0.395514
C73	C	1.289586	-0.354130	-0.354500
C74	C	1.539586	-0.104130	-0.104500
C75	C	1.789586	0.145870	0.145500
C76	C	2.039586	0.395870	0.395500
C77	C	1.734684	-0.545335	-0.354460
C78	C	1.984684	-0.295335	-0.104460
C79	C	2.234684	-0.045335	0.145540
C80	C	2.484684	0.204665	0.395540
C81	C	1.734739	-0.627134	-0.354470
C82	C	1.984739	-0.377134	-0.104470
C83	C	2.234739	-0.127134	0.145530
C84	C	2.484739	0.122866	0.395530
C85	C	1.811609	-0.815369	-0.307489
C86	C	2.061609	-0.565369	-0.057489
C87	C	2.311609	-0.315369	0.192511
C88	C	2.561609	-0.065369	0.442511
C89	C	1.811662	-0.892227	-0.307507
C90	C	2.061662	-0.642227	-0.057507
C91	C	2.311662	-0.392227	0.192493
C92	C	2.561662	-0.142227	0.442493
C93	C	1.658166	-0.892137	-0.401555
C94	C	1.908166	-0.642137	-0.151555
C95	C	2.158166	-0.392137	0.098445
C96	C	2.408166	-0.142137	0.348445
C97	C	1.658119	-0.815279	-0.401540
C98	C	1.908119	-0.565279	-0.151540
C99	C	2.158119	-0.315279	0.098460
C100	C	2.408119	-0.065279	0.348460
C101	C	1.734839	-0.776897	-0.354503
C102	C	1.984839	-0.526897	-0.104503
C103	C	2.234839	-0.276897	0.145497
C104	C	2.484839	-0.026897	0.395497
C105	C	1.734939	-0.930613	-0.354536
C106	C	1.984939	-0.680613	-0.104536
C107	C	2.234939	-0.430613	0.145464
C108	C	2.484939	-0.180613	0.395464
C109	C	1.734997	-1.013947	-0.354555
C110	C	1.984997	-0.763947	-0.104555
C111	C	2.234997	-0.513947	0.145445
C112	C	2.484997	-0.263947	0.395445
C113	C	1.734783	-0.693558	-0.354484
C114	C	1.984783	-0.443558	-0.104484
C115	C	2.234783	-0.193558	0.145516
C116	C	2.484783	0.056442	0.395516
C117	C	2.047853	-0.354140	-0.354506
C118	C	2.297853	-0.104140	-0.104506
C119	C	2.547853	0.145860	0.145494
C120	C	2.797853	0.395860	0.395494
C121	C	2.181253	-0.354145	-0.354510
C122	C	2.431253	-0.104145	-0.104510
C123	C	2.681253	0.145855	0.145490
C124	C	2.931253	0.395855	0.395490
C125	C	1.735107	-0.353873	-0.546449
C126	C	1.985107	-0.103873	-0.296449
C127	C	2.235107	0.146127	-0.046449
C128	C	2.485107	0.396127	0.203551
C129	C	1.735234	-0.353765	-0.628248
C130	C	1.985234	-0.103765	-0.378248
C131	C	2.235234	0.146235	-0.128248
C132	C	2.485234	0.396235	0.121752
C133	C	1.734971	-0.162176	-0.354547
C134	C	1.984971	0.087824	-0.104547
C135	C	2.234971	0.337824	0.145453
C136	C	2.484971	0.587824	0.395453
C137	C	1.735039	-0.080377	-0.354569
C138	C	1.985039	0.169623	-0.104569
C139	C	2.235039	0.419623	0.145431
C140	C	2.485039	0.669623	0.395431
C141	C	1.734584	-0.354330	-0.163289
C142	C	1.984584	-0.104330	0.086711
C143	C	2.234584	0.145670	0.336711
C144	C	2.484584	0.395670	0.586711
C145	C	1.734690	-0.354231	-0.081490
C146	C	1.984690	-0.104231	0.168510
C147	C	2.234690	0.145769	0.418510
C148	C	2.484690	0.395769	0.668510
C149	C	1.657745	-0.307231	0.183522
C150	C	1.907745	-0.057231	0.433522
C151	C	2.157745	0.192769	0.683522
C152	C	2.407745	0.442769	0.933522
C153	C	1.657649	-0.307311	0.106663
C154	C	1.907649	-0.057311	0.356663
C155	C	2.157649	0.192689	0.606663
C156	C	2.407649	0.442689	0.856663
C157	C	1.812183	-0.400770	0.106745
C158	C	2.062183	-0.150770	0.356745
C159	C	2.312183	0.099230	0.606745
C160	C	2.562183	0.349230	0.856745
C161	C	1.812271	-0.400693	0.183602
C162	C	2.062271	-0.150693	0.433602
C163	C	2.312271	0.099307	0.683602
C164	C	2.562271	0.349307	0.933602
C165	C	1.735054	-0.353919	0.221989
C166	C	1.985054	-0.103919	0.471989
C167	C	2.235054	0.146081	0.721989
C168	C	2.485054	0.396081	0.971989
C169	C	1.734870	-0.354076	0.068273
C170	C	1.984870	-0.104076	0.318273
C171	C	2.234870	0.145924	0.568273
C172	C	2.484870	0.395924	0.818273
C173	C	1.734768	-0.354164	-0.015061
C174	C	1.984768	-0.104164	0.234939
C175	C	2.234768	0.145836	0.484939
C176	C	2.484768	0.395836	0.734939
C177	C	1.735154	-0.353833	0.305327
C178	C	1.985154	-0.103833	0.555327
C179	C	2.235154	0.146167	0.805327
C180	C	2.485154	0.396167	1.055327
H181	H	1.874178	-0.923547	-0.269225
H182	H	2.124178	-0.673547	-0.019225
H183	H	2.374178	-0.423547	0.230775
H184	H	2.624178	-0.173547	0.480775
H185	H	1.595604	-0.783954	-0.439828
H186	H	1.845604	-0.533954	-0.189828
H187	H	2.095604	-0.283954	0.060172
H188	H	2.345604	-0.033954	0.310172
H189	H	1.874080	-0.784120	-0.269190
H190	H	2.124080	-0.534120	-0.019190
H191	H	2.374080	-0.284120	0.230810
H192	H	2.624080	-0.034120	0.480810
H193	H	1.594869	-0.269145	0.214774
H194	H	1.844869	-0.019145	0.464774
H195	H	2.094869	0.230855	0.714774
H196	H	2.344869	0.480855	0.964774
N197	N	1.574262	-0.256958	0.065173
N198	N	1.824262	-0.006958	0.315173
N199	N	2.074262	0.243042	0.565173
N200	N	2.324262	0.493042	0.815173
H201	H	1.525361	-0.227318	0.101156
H202	H	1.775361	0.022682	0.351156
H203	H	2.025361	0.272682	0.601156
H204	H	2.275361	0.522682	0.851156
H205	H	1.622704	-0.222721	0.033142
H206	H	1.872704	0.027279	0.283142
H207	H	2.122704	0.277279	0.533142
H208	H	2.372704	0.527279	0.783142
H209	H	1.875051	-0.438851	0.075481
H210	H	2.125051	-0.188851	0.325481
H211	H	2.375051	0.061149	0.575481
H212	H	2.625051	0.311149	0.825481
H213	H	1.875228	-0.438715	0.214923
H214	H	2.125228	-0.188715	0.464923
H215	H	2.375228	0.061285	0.714923
H216	H	2.625228	0.311285	0.964923
H217	H	1.595702	-0.923396	-0.439849
H218	H	1.845702	-0.673396	-0.189849
H219	H	2.095702	-0.423396	0.060151
H220	H	2.345702	-0.173396	0.310151
