data_functionalizedCrystal
_audit_creation_method	'MofGen! by Chris Wilmer'
_symmetry_space_group_name_H-M	'P1'
_symmetry_Int_Tables_number	1
_symmetry_cell_setting	triclinic
loop_
_symmetry_equiv_pos_as_xyz
  x,y,z
_cell_length_a	19.188930
_cell_length_b	19.288865
_cell_length_c	18.366186
_cell_angle_alpha	90.011479
_cell_angle_beta	89.977072
_cell_angle_gamma	96.859488
loop_
_atom_site_label
_atom_site_type_symbol
_atom_site_fract_x
_atom_site_fract_y
_atom_site_fract_z
O1	O	0.926143	-0.086718	-0.060792
O2	O	1.426143	0.413282	0.439208
O3	O	0.722831	-0.098391	-0.060743
O4	O	1.222831	0.401609	0.439257
O5	O	0.830361	0.008575	-0.060755
O6	O	1.330361	0.508575	0.439245
O7	O	0.818612	-0.193684	-0.060781
O8	O	1.318612	0.306316	0.439219
O9	O	0.830343	0.008581	0.060345
O10	O	1.330343	0.508581	0.560345
O11	O	0.722812	-0.098386	0.060356
O12	O	1.222812	0.401614	0.560356
O13	O	0.926125	-0.086713	0.060307
O14	O	1.426125	0.413287	0.560307
Zn15	Zn	0.824466	-0.092548	0.079559
Zn16	Zn	1.324466	0.407452	0.579559
Zn17	Zn	0.824490	-0.092555	-0.079995
Zn18	Zn	1.324490	0.407445	0.420005
O19	O	0.818594	-0.193679	0.060319
O20	O	1.318594	0.306321	0.560319
C21	C	0.696811	-0.098011	-0.000187
C22	C	1.196811	0.401989	0.499813
C23	C	0.619306	-0.096876	-0.000168
C24	C	1.119306	0.403124	0.499832
C25	C	0.829974	0.034454	-0.000203
C26	C	1.329974	0.534454	0.499797
C27	C	0.828839	0.111558	-0.000196
C28	C	1.328839	0.611558	0.499804
N29	N	0.824454	-0.092543	0.188450
N30	N	1.324454	0.407457	0.688450
C31	C	0.574377	-0.159640	-0.000187
C32	C	1.074377	0.340360	0.499813
C33	C	0.501554	-0.158574	-0.000195
C34	C	1.001554	0.341426	0.499805
C35	C	0.473662	-0.094740	-0.000198
C36	C	0.973662	0.405260	0.499802
C37	C	0.518600	-0.031967	-0.000175
C38	C	1.018600	0.468033	0.499825
C39	C	0.591423	-0.033035	-0.000159
C40	C	1.091423	0.466965	0.499841
N41	N	0.365692	-0.045949	-0.041437
N42	N	0.865692	0.454051	0.458563
N43	N	0.296513	-0.044938	-0.041453
N44	N	0.796513	0.455062	0.458547
C45	C	0.254254	-0.091519	-0.000242
C46	C	0.754254	0.408481	0.499758
N47	N	0.283784	-0.139158	0.040975
N48	N	0.783784	0.360842	0.540975
N49	N	0.352969	-0.140170	0.040988
N50	N	0.852969	0.359830	0.540988
C51	C	0.394700	-0.093575	-0.000214
C52	C	0.894700	0.406425	0.499786
C53	C	0.130361	-0.153132	-0.000269
C54	C	0.630361	0.346868	0.499731
C55	C	0.057536	-0.152063	-0.000273
C56	C	0.557536	0.347937	0.499727
C57	C	0.074584	-0.025454	-0.000259
C58	C	0.574584	0.474546	0.499741
C59	C	0.147407	-0.026525	-0.000249
C60	C	0.647407	0.473475	0.499751
C61	C	0.175291	-0.090365	-0.000257
C62	C	0.675291	0.409635	0.499743
C63	C	0.952145	-0.087093	-0.000250
C64	C	1.452145	0.412907	0.499750
C65	C	1.029649	-0.088228	-0.000274
C66	C	1.529649	0.411772	0.499726
C67	C	0.818981	-0.219558	-0.000235
C68	C	1.318981	0.280442	0.499765
C69	C	0.820116	-0.296662	-0.000246
C70	C	1.320116	0.203338	0.499754
C71	C	0.891934	0.156250	-0.000208
C72	C	1.391934	0.656250	0.499792
C73	C	0.890867	0.228697	-0.000219
C74	C	1.390867	0.728697	0.499781
C75	C	0.826703	0.256449	-0.000204
C76	C	1.326703	0.756449	0.499796
C77	C	0.763601	0.211748	-0.000196
C78	C	1.263601	0.711748	0.499804
C79	C	0.764669	0.139302	-0.000192
C80	C	1.264669	0.639302	0.499808
C81	C	0.776257	0.364742	0.042227
C82	C	1.276257	0.864742	0.542227
C83	C	0.775191	0.437187	0.042227
C84	C	1.275191	0.937187	0.542227
C85	C	0.823407	0.479895	-0.000219
C86	C	1.323407	0.979895	0.499781
C87	C	0.872699	0.450151	-0.042657
C88	C	1.372699	0.950151	0.457343
C89	C	0.873767	0.377706	-0.042653
C90	C	1.373767	0.877706	0.457347
C91	C	0.825538	0.335003	-0.000209
C92	C	1.325538	0.835003	0.499791
C93	C	0.885349	0.603143	-0.000244
C94	C	1.385349	1.103143	0.499756
C95	C	0.884280	0.675591	-0.000260
C96	C	1.384280	1.175591	0.499740
C97	C	0.757012	0.658640	-0.000230
C98	C	1.257012	1.158640	0.499770
C99	C	0.758083	0.586194	-0.000222
C100	C	1.258083	1.086194	0.499778
C101	C	0.822253	0.558449	-0.000225
C102	C	1.322253	1.058449	0.499775
N103	N	0.824506	-0.092555	-0.188886
N104	N	1.324506	0.407445	0.311114
C105	C	0.872084	-0.045202	0.226545
C106	C	1.372084	0.454798	0.726545
C107	C	0.872089	-0.045199	0.302773
C108	C	1.372089	0.454801	0.802773
C109	C	0.824470	-0.092549	0.340903
C110	C	1.324470	0.407451	0.840903
C111	C	0.776831	-0.139894	0.302798
C112	C	1.276831	0.360106	0.802798
C113	C	0.776823	-0.139891	0.226572
C114	C	1.276823	0.360109	0.726572
C115	C	0.815123	-0.155836	0.461656
C116	C	1.315123	0.344164	0.961656
C117	C	0.815136	-0.155840	0.537881
C118	C	1.315136	0.344160	1.037881
C119	C	0.824490	-0.092558	0.576010
C120	C	1.324490	0.407442	1.076010
C121	C	0.833846	-0.029269	0.537905
C122	C	1.333846	0.470731	1.037905
C123	C	0.833838	-0.029266	0.461679
C124	C	1.333838	0.470734	0.961679
C125	C	0.824473	-0.092557	0.423558
C126	C	1.324473	0.407443	0.923558
C127	C	0.872127	-0.045209	0.696761
C128	C	1.372127	0.454791	1.196761
C129	C	0.872127	-0.045205	0.772990
C130	C	1.372127	0.454795	1.272990
C131	C	0.776872	-0.139907	0.773013
C132	C	1.276872	0.360093	1.273013
C133	C	0.776869	-0.139905	0.696786
C134	C	1.276869	0.360095	1.196786
C135	C	0.824500	-0.092556	0.658664
C136	C	1.324500	0.407444	1.158664
H137	H	0.597075	-0.211624	-0.000196
H138	H	1.097075	0.288376	0.499804
O139	O	0.843776	0.038956	0.420511
O140	O	1.343776	0.538956	0.920511
H141	H	0.891246	0.040732	0.385692
H142	H	1.391246	0.540732	0.885692
O143	O	0.160441	-0.221985	-0.000270
O144	O	0.660441	0.278015	0.499730
H145	H	0.193190	-0.225492	0.049090
H146	H	0.693190	0.274508	0.549090
H147	H	0.841462	0.022262	0.568948
H148	H	1.341462	0.522262	1.068948
H149	H	0.020955	-0.203175	-0.000284
H150	H	0.520955	0.296825	0.499716
H151	H	0.910910	-0.006653	0.665721
H152	H	1.410910	0.493347	1.165721
H153	H	0.704768	0.681235	-0.000222
H154	H	1.204768	1.181235	0.499778
O155	O	0.725444	-0.190959	0.185486
O156	O	1.225444	0.309041	0.685486
H157	H	0.691600	-0.161798	0.150789
H158	H	1.191600	0.338202	0.650789
O159	O	0.044507	0.043396	-0.000254
O160	O	0.544507	0.543396	0.499746
H161	H	0.087988	0.086862	-0.000233
H162	H	0.587988	0.586862	0.499767
O163	O	0.453081	-0.226272	-0.000224
O164	O	0.953081	0.273728	0.499776
H165	H	0.484704	-0.270843	-0.000232
H166	H	0.984704	0.229157	0.499768
H167	H	0.183989	0.024585	-0.000237
H168	H	0.683989	0.524585	0.499763
O169	O	0.690031	0.537983	-0.000191
O170	O	1.190031	1.037983	0.499809
H171	H	0.645233	0.569449	-0.000174
H172	H	1.145233	1.069449	0.499826
H173	H	0.910876	-0.006646	0.333796
H174	H	1.410876	0.493354	0.833796
H175	H	0.738057	-0.178447	0.333847
H176	H	1.238057	0.321553	0.833847
O177	O	0.952335	0.723800	-0.000266
O178	O	1.452335	1.223800	0.499734
H179	H	0.997133	0.692333	-0.000259
H180	H	1.497133	1.192333	0.499741
O181	O	0.724253	0.318679	0.088015
O182	O	1.224253	0.818679	0.588015
H183	H	0.689807	0.351532	0.117533
H184	H	1.189807	0.851532	0.617533
O185	O	0.961143	0.126323	-0.000232
O186	O	1.461143	0.626323	0.499768
H187	H	1.004837	0.169577	-0.000252
H188	H	1.504837	0.669577	0.499748
H189	H	0.910911	-0.006650	0.804008
H190	H	1.410911	0.493350	1.304008
O191	O	0.725510	-0.190982	0.814126
O192	O	1.225510	0.309018	1.314126
H193	H	0.733519	-0.183034	0.873532
H194	H	1.233519	0.316966	1.373532
O195	O	0.694394	0.241676	-0.000180
O196	O	1.194394	0.741676	0.499820
H197	H	0.664077	0.223711	0.049182
H198	H	1.164077	0.723711	0.549182
O199	O	0.696615	0.091092	-0.000167
O200	O	1.196615	0.591092	0.499833
H201	H	0.651816	0.122557	-0.000154
H202	H	1.151816	0.622557	0.499846
O203	O	0.958921	0.276914	-0.000221
O204	O	1.458921	0.776914	0.499779
H205	H	1.003721	0.245451	-0.000217
H206	H	1.503721	0.745451	0.499783
H207	H	0.913902	0.353492	-0.077209
H208	H	1.413902	0.853492	0.422791
O209	O	0.923453	0.005867	0.185428
O210	O	1.423453	0.505867	0.685428
H211	H	0.894169	0.039553	0.150720
H212	H	1.394169	0.539553	0.650720
H213	H	0.738087	-0.178457	0.665766
H214	H	1.238087	0.321543	1.165766
O215	O	0.805059	-0.224097	0.578980
O216	O	1.305059	0.275903	1.078980
H217	H	0.798545	-0.268100	0.539662
H218	H	1.298545	0.231900	1.039662
O219	O	0.924706	0.496202	-0.088449
O220	O	1.424706	0.996202	0.411551
H221	H	0.915678	0.551574	-0.081333
H222	H	1.415678	1.051574	0.418667
O223	O	0.954557	0.573209	-0.000263
O224	O	1.454557	1.073209	0.499737
H225	H	0.998253	0.616461	-0.000287
H226	H	1.498253	1.116461	0.499713
O227	O	0.722031	0.469267	0.087998
O228	O	1.222031	0.969267	0.587998
H229	H	0.688674	0.427399	0.117504
H230	H	1.188674	0.927399	0.617504
H231	H	0.807494	-0.207372	0.430618
H232	H	1.307494	0.292628	0.930618
H233	H	0.495886	0.020007	-0.000187
H234	H	0.995886	0.520007	0.499813
H235	H	0.628004	0.018077	-0.000144
H236	H	1.128004	0.518077	0.499856
