data_functionalizedCrystal
_audit_creation_method	'MofGen! by Chris Wilmer'
_symmetry_space_group_name_H-M	'P1'
_symmetry_Int_Tables_number	1
_symmetry_cell_setting	triclinic
loop_
_symmetry_equiv_pos_as_xyz
  x,y,z
_cell_length_a	18.215407
_cell_length_b	19.077442
_cell_length_c	18.215399
_cell_angle_alpha	87.675289
_cell_angle_beta	89.980167
_cell_angle_gamma	87.726626
loop_
_atom_site_label
_atom_site_type_symbol
_atom_site_fract_x
_atom_site_fract_y
_atom_site_fract_z
Zn1	Zn	1.136838	-0.280195	-0.404360
Zn2	Zn	1.141689	-0.397895	-0.276355
Zn3	Zn	1.013772	-0.280218	-0.281306
Zn4	Zn	1.018677	-0.397856	-0.399381
O5	O	1.077744	-0.339041	-0.340350
O6	O	1.240466	-0.295815	-0.387391
O7	O	1.124697	-0.382311	-0.174026
O8	O	1.026013	-0.181726	-0.301785
O9	O	1.244030	-0.382289	-0.293346
O10	O	1.116430	-0.181709	-0.392192
O11	O	1.030717	-0.295854	-0.177664
O12	O	0.911438	-0.295816	-0.296958
O13	O	1.034375	-0.382222	-0.503027
O14	O	0.915042	-0.382244	-0.383707
O15	O	1.121187	-0.295777	-0.506685
O16	O	1.129454	-0.496379	-0.288519
O17	O	1.039078	-0.496350	-0.378906
C18	C	0.886537	-0.339029	-0.340330
C19	C	0.804739	-0.339041	-0.340338
C20	C	0.618444	-0.384115	-0.385446
C21	C	0.541585	-0.384117	-0.385455
C22	C	0.537797	-0.293980	-0.295270
C23	C	0.614654	-0.293975	-0.295265
C24	C	0.654976	-0.339046	-0.340352
C25	C	0.501260	-0.339054	-0.340366
C26	C	0.417926	-0.339056	-0.340375
C27	C	0.738314	-0.339043	-0.340344
C28	C	1.085345	-0.521902	-0.332651
C29	C	1.088664	-0.600131	-0.329382
C30	C	1.112418	-1.040474	-0.305913
C31	C	1.109293	-0.966970	-0.308986
C32	C	1.060643	-0.930231	-0.357547
C33	C	1.015110	-0.967000	-0.403032
C34	C	1.018232	-1.040502	-0.399954
C35	C	1.046253	-0.710402	-0.371790
C36	C	1.043136	-0.636894	-0.374865
C37	C	1.137318	-0.636870	-0.280818
C38	C	1.140439	-0.710374	-0.277748
C39	C	1.094904	-0.747136	-0.323230
N40	N	1.057449	-0.855098	-0.360691
N41	N	1.098094	-0.822268	-0.320082
C42	C	1.269697	-0.339054	-0.340371
C43	C	1.351497	-0.339059	-0.340380
C44	C	1.077787	-0.338993	-0.532305
C45	C	1.077805	-0.338972	-0.614105
C46	C	1.070133	-0.155466	-0.348096
C47	C	1.066890	-0.077238	-0.351396
C48	C	1.123023	-0.293918	-0.804207
C49	C	1.123031	-0.293898	-0.881066
C50	C	1.032634	-0.383917	-0.877246
C51	C	1.032623	-0.383933	-0.800388
C52	C	1.077822	-0.338935	-0.763870
C53	C	1.077841	-0.338898	-0.917588
C54	C	1.077849	-0.338876	-1.000923
C55	C	1.077813	-0.338956	-0.680530
C56	C	1.077742	-0.339039	-0.149144
C57	C	1.077858	-0.338861	-0.067353
H58	H	0.644398	-0.257271	-0.258545
C59	C	0.968155	-1.080942	-0.449989
H60	H	0.938739	-1.048536	-0.479357
H61	H	0.937324	-1.109660	-0.420609
H62	H	0.997512	-1.109572	-0.480883
C63	C	1.172730	-0.244414	-0.764039
H64	H	1.199645	-0.217595	-0.799073
H65	H	1.205910	-0.271338	-0.732924
H66	H	1.143292	-0.213752	-0.735350
C67	C	0.493441	-0.244414	-0.245671
H68	H	0.442435	-0.250877	-0.252125
H69	H	0.504071	-0.197136	-0.258505
H70	H	0.506446	-0.254663	-0.195773
C71	C	0.996172	-0.750832	-0.421824
H72	H	0.966759	-0.718422	-0.451190
H73	H	0.965338	-0.779548	-0.392445
H74	H	1.025527	-0.779463	-0.452718
C75	C	1.159378	-0.926533	-0.258959
H76	H	1.188806	-0.958940	-0.229606
H77	H	1.130032	-0.897901	-0.228065
H78	H	1.190209	-0.897817	-0.288349
H79	H	0.975495	-0.937082	-0.442568
C80	C	1.172756	-0.244382	-0.925433
H81	H	1.199675	-0.217591	-0.892674
H82	H	1.143340	-0.213707	-0.956705
H83	H	1.205945	-0.271306	-0.954284
H84	H	1.174390	-0.606931	-0.243788
H85	H	0.511845	-0.420815	-0.422176
H86	H	0.995837	-0.420554	-0.906989
H87	H	0.995809	-0.420591	-0.767545
H88	H	1.152038	-1.070382	-0.266374
H89	H	1.180053	-0.740282	-0.238204
C90	C	0.662795	-0.433684	-0.435046
H91	H	0.630027	-0.460520	-0.461909
H92	H	0.694041	-0.464316	-0.405556
H93	H	0.691669	-0.406790	-0.468289
H94	H	1.003518	-0.606985	-0.414412
