data_functionalizedCrystal
_audit_creation_method	'MofGen! by Chris Wilmer'
_symmetry_space_group_name_H-M	'P1'
_symmetry_Int_Tables_number	1
_symmetry_cell_setting	triclinic
loop_
_symmetry_equiv_pos_as_xyz
  x,y,z
_cell_length_a	21.295419
_cell_length_b	21.295417
_cell_length_c	21.295411
_cell_angle_alpha	89.978356
_cell_angle_beta	89.975461
_cell_angle_gamma	90.045308
loop_
_atom_site_label
_atom_site_type_symbol
_atom_site_fract_x
_atom_site_fract_y
_atom_site_fract_z
Zn1	Zn	0.962356	-0.250432	-0.355911
Zn2	Zn	1.462356	0.249568	0.144089
Zn3	Zn	0.962258	-0.355684	-0.250637
Zn4	Zn	1.462258	0.144316	0.249363
Zn5	Zn	0.857079	-0.250460	-0.250656
Zn6	Zn	1.357079	0.249540	0.249344
Zn7	Zn	0.857048	-0.355695	-0.355868
Zn8	Zn	1.357048	0.144305	0.144132
O9	O	0.909685	-0.303068	-0.303268
O10	O	1.409685	0.196932	0.196732
O11	O	1.050432	-0.264378	-0.341956
O12	O	1.550432	0.235622	0.158044
O13	O	0.948278	-0.341733	-0.162550
O14	O	1.448278	0.158267	0.337450
O15	O	0.871098	-0.162367	-0.264645
O16	O	1.371098	0.337633	0.235355
O17	O	1.050360	-0.341706	-0.264611
O18	O	1.550360	0.158294	0.235389
O19	O	0.948444	-0.162347	-0.341975
O20	O	1.448444	0.337653	0.158025
O21	O	0.871003	-0.264425	-0.162564
O22	O	1.371003	0.235575	0.337436
O23	O	0.768985	-0.264436	-0.264603
O24	O	1.268985	0.235564	0.235397
O25	O	0.871045	-0.341724	-0.443963
O26	O	1.371045	0.158276	0.056037
O27	O	0.768963	-0.341751	-0.341902
O28	O	1.268963	0.158249	0.158098
O29	O	0.948414	-0.264388	-0.443995
O30	O	1.448414	0.235612	0.056005
O31	O	0.948248	-0.443775	-0.264570
O32	O	1.448248	0.056225	0.235430
O33	O	0.870951	-0.443783	-0.341883
O34	O	1.370951	0.056217	0.158117
C35	C	0.746133	-0.303098	-0.303250
C36	C	1.246133	0.196902	0.196750
C37	C	0.676165	-0.303126	-0.303258
C38	C	1.176165	0.196874	0.196742
C39	C	0.643358	-0.262927	-0.343593
C40	C	1.143358	0.237073	0.156407
C41	C	0.577616	-0.262910	-0.343596
C42	C	1.077616	0.237090	0.156404
C43	C	0.544683	-0.303104	-0.303269
C44	C	1.044683	0.196896	0.196731
C45	C	0.577498	-0.343305	-0.262926
C46	C	1.077498	0.156695	0.237074
C47	C	0.643239	-0.343317	-0.262920
C48	C	1.143239	0.156683	0.237080
N49	N	0.441407	-0.358181	-0.298349
N50	N	0.941407	0.141819	0.201651
N51	N	0.378956	-0.358168	-0.298359
N52	N	0.878956	0.141832	0.201641
C53	C	0.346608	-0.303071	-0.303283
C54	C	0.846608	0.196929	0.196717
N55	N	0.379071	-0.247985	-0.308210
N56	N	0.879071	0.252015	0.191790
N57	N	0.441528	-0.247999	-0.308205
N58	N	0.941528	0.252001	0.191795
C59	C	0.473397	-0.303095	-0.303271
C60	C	0.973397	0.196905	0.196729
C61	C	0.242516	-0.262850	-0.343624
C62	C	0.742516	0.237150	0.156376
C63	C	0.176772	-0.262832	-0.343622
C64	C	0.676772	0.237168	0.156378
C65	C	0.176655	-0.343233	-0.262955
C66	C	0.676655	0.156767	0.237045
C67	C	0.242397	-0.343245	-0.262953
C68	C	0.742397	0.156755	0.237047
C69	C	0.275324	-0.303055	-0.303291
C70	C	0.775324	0.196945	0.196709
C71	C	0.909603	-0.466619	-0.303233
C72	C	1.409603	0.033381	0.196767
C73	C	0.909625	-0.536588	-0.303239
C74	C	1.409625	-0.036588	0.196761
C75	C	0.949909	-0.569429	-0.263024
C76	C	1.449909	-0.069429	0.236976
C77	C	0.949939	-0.635172	-0.263038
C78	C	1.449939	-0.135172	0.236962
C79	C	0.909673	-0.668070	-0.303261
C80	C	1.409673	-0.168070	0.196739
C81	C	0.869385	-0.635220	-0.343485
C82	C	1.369385	-0.135220	0.156515
C83	C	0.869361	-0.569479	-0.343474
C84	C	1.369361	-0.069479	0.156526
N85	N	0.854606	-0.771351	-0.308054
N86	N	1.354606	-0.271351	0.191946
N87	N	0.854630	-0.833802	-0.308061
N88	N	1.354630	-0.333802	0.191939
C89	C	0.909743	-0.866145	-0.303297
C90	C	1.409743	-0.366145	0.196703
N91	N	0.964832	-0.833676	-0.298514
N92	N	1.464832	-0.333676	0.201486
N93	N	0.964807	-0.771219	-0.298504
N94	N	1.464807	-0.271219	0.201496
C95	C	0.909694	-0.739355	-0.303278
C96	C	1.409694	-0.239355	0.196722
C97	C	0.950063	-0.970272	-0.263095
C98	C	1.450063	-0.470272	0.236905
C99	C	0.950093	-1.036016	-0.263113
C100	C	1.450093	-0.536016	0.236887
C101	C	0.869534	-1.036063	-0.343557
C102	C	1.369534	-0.536063	0.156443
C103	C	0.869510	-0.970321	-0.343541
C104	C	1.369510	-0.470321	0.156459
C105	C	0.909773	-0.937429	-0.303307
C106	C	1.409773	-0.437429	0.196693
C107	C	1.073875	-0.303038	-0.303286
C108	C	1.573875	0.196962	0.196714
C109	C	1.143843	-0.303025	-0.303294
C110	C	1.643843	0.196975	0.196706
C111	C	0.909737	-0.303055	-0.467458
C112	C	1.409737	0.196945	0.032542
C113	C	0.909760	-0.303049	-0.537426
C114	C	1.409760	0.196951	-0.037426
C115	C	0.909785	-0.138878	-0.303317
C116	C	1.409785	0.361122	0.196683
C117	C	0.909828	-0.068909	-0.303338
C118	C	1.409828	0.431091	0.196662
C119	C	0.950044	-0.262778	-0.570311
C120	C	1.450044	0.237222	-0.070311
C121	C	0.950043	-0.262751	-0.636053
C122	C	1.450043	0.237249	-0.136053
C123	C	0.909764	-0.303006	-0.668909
C124	C	1.409764	0.196994	-0.168909
C125	C	0.869472	-0.343279	-0.636017
C126	C	1.369472	0.156721	-0.136017
C127	C	0.869470	-0.343301	-0.570276
C128	C	1.369470	0.156699	-0.070276
N129	N	0.904908	-0.358075	-0.772124
N130	N	1.404908	0.141925	-0.272124
N131	N	0.904914	-0.358052	-0.834576
N132	N	1.404914	0.141948	-0.334576
C133	C	0.909768	-0.302942	-0.866984
C134	C	1.409768	0.197058	-0.366984
N135	N	0.914629	-0.247853	-0.834581
N136	N	1.414629	0.252147	-0.334581
N137	N	0.914626	-0.247876	-0.772124
N138	N	1.414626	0.252124	-0.272124
C139	C	0.909762	-0.302986	-0.740194
C140	C	1.409762	0.197014	-0.240194
C141	C	0.950054	-0.262638	-0.971154
C142	C	1.450054	0.237362	-0.471154
C143	C	0.950049	-0.262610	-1.036897
C144	C	1.450049	0.237390	-0.536897
C145	C	0.869481	-0.343143	-1.036860
C146	C	1.369481	0.156857	-0.536860
C147	C	0.869483	-0.343166	-0.971118
C148	C	1.369483	0.156834	-0.471118
C149	C	0.909773	-0.302914	-0.938268
C150	C	1.409773	0.197086	-0.438268
C151	C	0.909669	-0.303036	-0.139716
C152	C	1.409669	0.196964	0.360284
C153	C	0.909769	-0.302864	-0.069749
C154	C	1.409769	0.197136	0.430251
H155	H	0.269326	-0.230121	-0.376465
H156	H	0.769326	0.269879	0.123535
Cl157	Cl	0.818840	-0.393798	-0.929775
Cl158	Cl	1.318840	0.106202	-0.429775
Cl159	Cl	1.000535	-0.528083	-0.212452
Cl160	Cl	1.500535	-0.028083	0.287548
H161	H	0.836752	-1.062848	-0.376310
H162	H	1.336752	-0.562848	0.123690
Cl163	Cl	0.684484	-0.393855	-0.212206
Cl164	Cl	1.184484	0.106145	0.287794
H165	H	0.836556	-0.542739	-0.376223
H166	H	1.336556	-0.042739	0.123777
H167	H	0.982857	-0.229859	-0.944406
H168	H	1.482857	0.270141	-0.444406
H169	H	0.982850	-0.943490	-0.230335
H170	H	1.482850	-0.443490	0.269665
H171	H	0.836675	-0.376052	-0.662773
H172	H	1.336675	0.123948	-0.162773
H173	H	0.836663	-0.376093	-0.543502
H174	H	1.336663	0.123907	-0.043502
H175	H	0.982902	-1.062754	-0.230366
H176	H	1.482902	-0.562754	0.269634
H177	H	0.982850	-0.230001	-0.543569
H178	H	1.482850	0.269999	-0.043569
H179	H	0.982852	-0.229813	-1.063670
H180	H	1.482852	0.270187	-0.563670
Cl181	Cl	0.818860	-0.929032	-0.394099
Cl182	Cl	1.318860	-0.429032	0.105901
Cl183	Cl	1.000677	-0.212108	-0.677402
Cl184	Cl	1.500677	0.287892	-0.177402
H185	H	0.836679	-0.375913	-1.063611
H186	H	1.336679	0.124087	-0.563611
H187	H	0.150062	-0.230094	-0.376467
H188	H	0.650062	0.269906	0.123533
H189	H	0.670163	-0.230200	-0.376439
H190	H	1.170163	0.269800	0.123561
H191	H	0.550899	-0.230172	-0.376441
H192	H	1.050899	0.269828	0.123559
H193	H	0.982745	-0.661917	-0.230289
H194	H	1.482745	-0.161917	0.269711
H195	H	0.550679	-0.376030	-0.230091
H196	H	1.050679	0.123970	0.269909
Cl197	Cl	0.283643	-0.393781	-0.212240
Cl198	Cl	0.783643	0.106219	0.287760
Cl199	Cl	0.135259	-0.393758	-0.212253
Cl200	Cl	0.635259	0.106242	0.287747
Cl201	Cl	0.818768	-0.676577	-0.394054
Cl202	Cl	1.318768	-0.176577	0.105946
