data_functionalizedCrystal
_audit_creation_method	'MofGen! by Chris Wilmer'
_symmetry_space_group_name_H-M	'P1'
_symmetry_Int_Tables_number	1
_symmetry_cell_setting	triclinic
loop_
_symmetry_equiv_pos_as_xyz
  x,y,z
_cell_length_a	14.519731
_cell_length_b	10.654550
_cell_length_c	9.730223
_cell_angle_alpha	90.003749
_cell_angle_beta	89.997677
_cell_angle_gamma	95.913122
loop_
_atom_site_label
_atom_site_type_symbol
_atom_site_fract_x
_atom_site_fract_y
_atom_site_fract_z
O1	O	0.129527	-1.666602	-0.114406
O2	O	0.141868	-1.301006	-0.114385
O3	O	0.001510	-1.493483	-0.114384
O4	O	0.269884	-1.474125	-0.114407
O5	O	0.001514	-1.493481	0.114196
O6	O	0.141871	-1.301004	0.114195
O7	O	0.129531	-1.666600	0.114174
Zn8	Zn	0.135702	-1.483802	0.150476
Zn9	Zn	0.135697	-1.483804	-0.150687
O10	O	0.269888	-1.474123	0.114173
C11	C	0.140964	-1.254216	-0.000092
C12	C	0.138253	-1.114798	-0.000083
C13	C	-0.032852	-1.492575	-0.000093
C14	C	-0.135246	-1.489857	-0.000092
C15	C	0.130435	-1.713390	-0.000122
C16	C	0.133146	-1.852808	-0.000140
C17	C	-0.218402	-1.487649	-0.000095
C18	C	-0.322725	-1.484889	-0.000106
C19	C	-0.405875	-1.482699	-0.000114
C20	C	-0.510205	-1.479939	-0.000122
C21	C	0.304250	-1.475031	-0.000121
C22	C	0.406645	-1.477749	-0.000131
N23	N	0.135704	-1.483809	0.356013
C24	C	0.220893	-1.034527	-0.000110
C25	C	0.218340	-0.903530	-0.000134
C26	C	0.050499	-0.933090	-0.000108
C27	C	0.053053	-1.064084	-0.000075
C28	C	0.306092	-1.085241	-0.000118
C29	C	0.388739	-1.004968	-0.000147
C30	C	0.386186	-0.873971	-0.000171
C31	C	0.300986	-0.823248	-0.000165
N32	N	0.135687	-1.483807	-0.356224
C33	C	0.073575	-1.569059	0.427939
C34	C	0.073564	-1.569056	0.571822
C35	C	0.197819	-1.398547	0.571840
C36	C	0.197825	-1.398546	0.427959
C37	C	0.011454	-1.654322	0.355993
C38	C	-0.050679	-1.739581	0.427920
C39	C	-0.050690	-1.739578	0.571803
C40	C	0.011432	-1.654316	0.643759
H41	H	0.308180	-1.191903	-0.000105
F42	F	-0.116823	-1.830305	0.648350
F43	F	0.011408	-1.654309	0.796894
H44	H	-0.101262	-1.808992	0.369325
H45	H	0.248397	-1.329132	0.630436
H46	H	0.458106	-1.046276	-0.000140
F47	F	0.474144	-0.788543	-0.000188
H48	H	-0.018866	-0.891780	-0.000127
F49	F	0.298274	-0.683827	-0.000172
H50	H	0.248415	-1.329126	0.369396
H51	H	-0.014240	-1.129444	-0.000056
H52	H	0.011460	-1.654335	0.238836
