data_functionalizedCrystal
_audit_creation_method	'MofGen! by Chris Wilmer'
_symmetry_space_group_name_H-M	'P1'
_symmetry_Int_Tables_number	1
_symmetry_cell_setting	triclinic
loop_
_symmetry_equiv_pos_as_xyz
  x,y,z
_cell_length_a	16.625547
_cell_length_b	21.295417
_cell_length_c	16.625539
_cell_angle_alpha	89.967674
_cell_angle_beta	89.975178
_cell_angle_gamma	90.029639
loop_
_atom_site_label
_atom_site_type_symbol
_atom_site_fract_x
_atom_site_fract_y
_atom_site_fract_z
Zn1	Zn	1.232640	-0.250609	-0.455978
Zn2	Zn	1.732640	0.249391	0.044022
Zn3	Zn	1.232526	-0.355882	-0.321136
Zn4	Zn	1.732526	0.144118	0.178864
Zn5	Zn	1.097802	-0.250631	-0.321149
Zn6	Zn	1.597802	0.249369	0.178851
Zn7	Zn	1.097755	-0.355844	-0.455916
Zn8	Zn	1.597755	0.144156	0.044084
O9	O	1.165181	-0.303242	-0.388545
O10	O	1.665181	0.196758	0.111455
O11	O	1.345457	-0.264581	-0.438112
O12	O	1.845457	0.235419	0.061888
O13	O	1.214627	-0.341946	-0.208305
O14	O	1.714627	0.158054	0.291695
O15	O	1.115755	-0.162539	-0.339066
O16	O	1.615755	0.337461	0.160934
O17	O	1.345374	-0.341925	-0.339044
O18	O	1.845374	0.158075	0.160956
O19	O	1.214821	-0.162523	-0.438124
O20	O	1.714821	0.337477	0.061876
O21	O	1.115645	-0.264618	-0.208315
O22	O	1.615645	0.235382	0.291685
O23	O	0.984963	-0.264581	-0.339005
O24	O	1.484963	0.235419	0.160995
O25	O	1.115676	-0.341859	-0.568757
O26	O	1.615676	0.158141	-0.068757
O27	O	0.984929	-0.341881	-0.438018
O28	O	1.484929	0.158119	0.061982
O29	O	1.214775	-0.264544	-0.568802
O30	O	1.714775	0.235456	-0.068802
O31	O	1.214581	-0.443967	-0.338983
O32	O	1.714581	0.056033	0.161017
O33	O	1.115566	-0.443939	-0.438006
O34	O	1.615566	0.056061	0.061994
C35	C	0.955690	-0.303229	-0.388507
C36	C	1.455690	0.196771	0.111493
C37	C	0.866069	-0.303239	-0.388510
C38	C	1.366069	0.196761	0.111490
C39	C	0.793286	-0.303241	-0.388519
C40	C	1.293286	0.196759	0.111481
C41	C	0.701978	-0.303244	-0.388540
C42	C	1.201978	0.196756	0.111460
C43	C	0.629201	-0.303250	-0.388560
C44	C	1.129201	0.196750	0.111440
C45	C	0.537887	-0.303254	-0.388579
C46	C	1.037887	0.196746	0.111421
C47	C	1.165078	-0.466793	-0.388504
C48	C	1.665078	0.033207	0.111496
C49	C	1.165108	-0.536761	-0.388513
C50	C	1.665108	-0.036761	0.111487
C51	C	1.216661	-0.569563	-0.440130
C52	C	1.716661	-0.069563	0.059870
C53	C	1.216690	-0.635305	-0.440150
C54	C	1.716690	-0.135305	0.059850
C55	C	1.165173	-0.668244	-0.388539
C56	C	1.665173	-0.168244	0.111461
C57	C	1.113610	-0.635435	-0.336919
C58	C	1.613610	-0.135435	0.163081
C59	C	1.113577	-0.569694	-0.336906
C60	C	1.613577	-0.069694	0.163094
N61	N	1.159082	-0.771508	-0.317973
N62	N	1.659082	-0.271508	0.182027
N63	N	1.159117	-0.833959	-0.317987
N64	N	1.659117	-0.333959	0.182013
C65	C	1.165267	-0.866319	-0.388575
C66	C	1.665267	-0.366319	0.111425
N67	N	1.171396	-0.833868	-0.459150
N68	N	1.671396	-0.333868	0.040850
N69	N	1.171364	-0.771410	-0.459134
N70	N	1.671364	-0.271410	0.040866
C71	C	1.165203	-0.739529	-0.388547
C72	C	1.665203	-0.239529	0.111453
C73	C	1.216855	-0.970405	-0.440218
C74	C	1.716855	-0.470405	0.059782
C75	C	1.216877	-1.036149	-0.440239
C76	C	1.716877	-0.536149	0.059761
C77	C	1.113801	-1.036278	-0.337000
C78	C	1.613801	-0.536278	0.163000
C79	C	1.113774	-0.970535	-0.336986
C80	C	1.613774	-0.470535	0.163014
C81	C	1.165305	-0.937603	-0.388594
C82	C	1.665305	-0.437603	0.111406
C83	C	1.375490	-0.303254	-0.388583
C84	C	1.875490	0.196746	0.111417
C85	C	1.465111	-0.303260	-0.388600
C86	C	1.965111	0.196740	0.111400
C87	C	1.165233	-0.303195	-0.598854
C88	C	1.665233	0.196805	-0.098854
C89	C	1.165256	-0.303175	-0.688475
C90	C	1.665256	0.196825	-0.188475
C91	C	1.165306	-0.139051	-0.388603
C92	C	1.665306	0.360949	0.111397
C93	C	1.165359	-0.069083	-0.388628
C94	C	1.665359	0.430917	0.111372
C95	C	1.165293	-0.303104	-1.016651
C96	C	1.665293	0.196896	-0.516651
C97	C	1.165280	-0.303126	-0.925342
C98	C	1.665280	0.196874	-0.425342
C99	C	1.165275	-0.303140	-0.852566
C100	C	1.665275	0.196860	-0.352566
C101	C	1.165261	-0.303161	-0.761251
C102	C	1.665261	0.196839	-0.261251
C103	C	1.165175	-0.303243	-0.179054
C104	C	1.665175	0.196757	0.320946
C105	C	1.165309	-0.303086	-0.089433
C106	C	1.665309	0.196914	0.410567
H107	H	1.258619	-0.542751	-0.482154
H108	H	1.758619	-0.042751	0.017846
H109	H	1.071662	-0.662258	-0.294898
H110	H	1.571662	-0.162258	0.205102
C111	C	1.056858	-0.533611	-0.280124
C112	C	1.556858	-0.033611	0.219876
N113	N	1.014136	-0.506433	-0.237355
N114	N	1.514136	-0.006433	0.262645
H115	H	1.258812	-0.943591	-0.482243
H116	H	1.758812	-0.443591	0.017757
H117	H	1.258858	-1.062854	-0.482275
H118	H	1.758858	-0.562854	0.017725
H119	H	1.071850	-1.063096	-0.294983
H120	H	1.571850	-0.563096	0.205017
H121	H	1.258664	-0.662017	-0.482192
H122	H	1.758664	-0.162017	0.017808
C123	C	1.057056	-0.934452	-0.280208
C124	C	1.557056	-0.434452	0.219792
N125	N	1.014327	-0.907275	-0.237445
N126	N	1.514327	-0.407275	0.262555
