data_functionalizedCrystal
_audit_creation_method	'MofGen! by Chris Wilmer'
_symmetry_space_group_name_H-M	'P1'
_symmetry_Int_Tables_number	1
_symmetry_cell_setting	triclinic
loop_
_symmetry_equiv_pos_as_xyz
  x,y,z
_cell_length_a	15.500227
_cell_length_b	19.288864
_cell_length_c	19.288865
_cell_angle_alpha	83.136245
_cell_angle_beta	92.813035
_cell_angle_gamma	87.151552
loop_
_atom_site_label
_atom_site_type_symbol
_atom_site_fract_x
_atom_site_fract_y
_atom_site_fract_z
O1	O	0.072232	-0.924602	-0.083400
O2	O	0.572232	-0.424602	0.416600
O3	O	0.072174	-0.722339	-0.095091
O4	O	0.572174	-0.222339	0.404909
O5	O	0.072188	-0.829314	0.011884
O6	O	0.572188	-0.329314	0.511884
O7	O	0.072219	-0.817627	-0.190375
O8	O	0.572219	-0.317627	0.309625
O9	O	-0.071702	-0.822823	0.005418
O10	O	0.428298	-0.322823	0.505418
O11	O	-0.071715	-0.715848	-0.101558
O12	O	0.428285	-0.215848	0.398442
O13	O	-0.071658	-0.918111	-0.089866
O14	O	0.428342	-0.418111	0.410134
Cu15	Cu	-0.084825	-0.816387	-0.096302
Cu16	Cu	0.415175	-0.316387	0.403698
Cu17	Cu	0.085341	-0.824063	-0.088655
Cu18	Cu	0.585341	-0.324063	0.411345
O19	O	-0.071671	-0.811136	-0.196841
O20	O	0.428329	-0.311136	0.303159
C21	C	0.000222	-0.693217	-0.097949
C22	C	0.500222	-0.193217	0.402051
C23	C	0.000199	-0.616112	-0.096821
C24	C	0.500199	-0.116112	0.403179
C25	C	0.000240	-0.825692	0.034527
C26	C	0.500240	-0.325692	0.534527
C27	C	0.000232	-0.824563	0.111630
C28	C	0.500232	-0.324563	0.611630
N29	N	-0.204510	-0.810992	-0.101680
N30	N	0.295490	-0.310992	0.398320
C31	C	-0.249781	-0.856337	-0.056368
C32	C	0.250219	-0.356337	0.443632
C33	C	-0.340355	-0.852264	-0.060441
C34	C	0.159645	-0.352264	0.439559
C35	C	-0.385655	-0.802848	-0.109832
C36	C	0.114345	-0.302848	0.390168
C37	C	-0.340378	-0.757499	-0.155146
C38	C	0.159622	-0.257499	0.344854
C39	C	-0.249806	-0.761569	-0.151069
C40	C	0.250194	-0.261569	0.348931
C41	C	-0.659124	-0.788184	-0.124509
C42	C	-0.159124	-0.288184	0.375491
C43	C	-0.749702	-0.784119	-0.128584
C44	C	-0.249702	-0.284119	0.371416
C45	C	-0.749672	-0.878883	-0.033878
C46	C	-0.249672	-0.378883	0.466122
C47	C	-0.659099	-0.882952	-0.029808
C48	C	-0.159099	-0.382952	0.470192
C49	C	-0.613830	-0.837600	-0.075120
C50	C	-0.113830	-0.337600	0.424880
C51	C	-0.478236	-0.798685	-0.113998
C52	C	0.021764	-0.298685	0.386002
C53	C	-0.521251	-0.841761	-0.070950
C54	C	-0.021251	-0.341761	0.429050
N55	N	0.205027	-0.829463	-0.083272
N56	N	0.705027	-0.329463	0.416728
C57	C	0.000297	-0.947234	-0.087009
C58	C	0.500297	-0.447234	0.412991
C59	C	0.000325	-1.024338	-0.088137
C60	C	0.500325	-0.524338	0.411863
C61	C	0.000222	-0.571417	-0.159588
C62	C	0.500222	-0.071417	0.340412
C63	C	0.000232	-0.498970	-0.158526
C64	C	0.500232	0.001030	0.341474
C65	C	0.000235	-0.471223	-0.094694
C66	C	0.500235	0.028777	0.405306
C67	C	0.000207	-0.515928	-0.031919
C68	C	0.500207	-0.015928	0.468081
C69	C	0.000189	-0.588372	-0.032983
C70	C	0.500189	-0.088372	0.467017
C71	C	0.050667	-0.365236	-0.042249
C72	C	0.550667	0.134764	0.457751
C73	C	0.050691	-0.292792	-0.041188
C74	C	0.550691	0.207208	0.458812
C75	C	0.000287	-0.247779	-0.091412
C76	C	0.500287	0.252221	0.408588
C77	C	-0.050129	-0.275218	-0.142709
C78	C	0.449871	0.224782	0.357291
C79	C	-0.050147	-0.347662	-0.143772
C80	C	0.449853	0.152338	0.356228
C81	C	0.000254	-0.392670	-0.093534
C82	C	0.500254	0.107330	0.406466
C83	C	0.000319	-0.124529	-0.153033
C84	C	0.500319	0.375471	0.346967
C85	C	0.000323	-0.052081	-0.151969
C86	C	0.500323	0.447919	0.348031
C87	C	0.000307	-0.069040	-0.025360
C88	C	0.500307	0.430960	0.474640
C89	C	0.000295	-0.141486	-0.026426
C90	C	0.500295	0.358514	0.473574
C91	C	0.000305	-0.169226	-0.090264
C92	C	0.500305	0.330774	0.409736
C93	C	0.000278	-0.814758	-0.219485
C94	C	0.500278	-0.314758	0.280515
C95	C	0.000292	-0.815887	-0.296588
C96	C	0.500292	-0.315887	0.203412
C97	C	0.000246	-0.887332	0.156327
C98	C	0.500246	-0.387332	0.656327
C99	C	0.000259	-0.886272	0.228775
C100	C	0.500259	-0.386272	0.728775
C101	C	0.000242	-0.822439	0.256522
C102	C	0.500242	-0.322439	0.756522
C103	C	0.000233	-0.759662	0.211815
C104	C	0.500233	-0.259662	0.711815
C105	C	0.000228	-0.760724	0.139370
C106	C	0.500228	-0.260724	0.639370
C107	C	-0.050174	-0.769985	0.362544
C108	C	0.449826	-0.269985	0.862544
C109	C	-0.050175	-0.768925	0.434988
C110	C	0.449825	-0.268925	0.934988
C111	C	0.000260	-0.819160	0.479968
C112	C	0.500260	-0.319160	0.979968
C113	C	0.050684	-0.870466	0.452496
C114	C	0.550684	-0.370466	0.952496
C115	C	0.050680	-0.871528	0.380050
C116	C	0.550680	-0.371528	0.880050
C117	C	0.000247	-0.821280	0.335076
C118	C	0.500247	-0.321280	0.835076
C119	C	0.000290	-0.880783	0.603222
C120	C	0.500290	-0.380783	1.103222
C121	C	0.000308	-0.879721	0.675671
C122	C	0.500308	-0.379721	1.175671
C123	C	0.000273	-0.753109	0.658709
C124	C	0.500273	-0.253109	1.158709
C125	C	0.000263	-0.754174	0.586262
C126	C	0.500263	-0.254174	1.086262
C127	C	0.000267	-0.818013	0.558523
C128	C	0.500267	-0.318013	1.058523
H129	H	-0.212903	-0.896579	-0.016152
H130	H	0.287097	-0.396579	0.483848
Cl131	Cl	0.000271	-0.197678	0.052486
Cl132	Cl	0.500271	0.302322	0.552486
Cl133	Cl	-0.602220	-0.731175	-0.181474
Cl134	Cl	-0.102220	-0.231175	0.318526
Cl135	Cl	0.000348	0.004110	-0.230884
Cl136	Cl	0.500348	0.504110	0.269116
H137	H	0.000315	-0.147115	-0.205014
H138	H	0.500315	0.352885	0.294986
Cl139	Cl	-0.806586	-0.935891	0.023085
Cl140	Cl	-0.306586	-0.435891	0.523085
H141	H	-0.091173	-0.238569	-0.183606
H142	H	0.408827	0.261431	0.316394
Cl143	Cl	0.000161	-0.644564	0.045931
Cl144	Cl	0.500161	-0.144564	0.545931
Cl145	Cl	0.000206	-0.481046	0.048327
Cl146	Cl	0.500206	0.018954	0.548327
H147	H	-0.622217	-0.923190	0.010409
H148	H	-0.122217	-0.423190	0.510409
Cl149	Cl	-0.464301	-0.903879	-0.008859
Cl150	Cl	0.035699	-0.403879	0.491141
H151	H	-0.377267	-0.717260	-0.195358
H152	H	0.122733	-0.217260	0.304642
H153	H	-0.091200	-0.369999	-0.185538
H154	H	0.408800	0.130001	0.314462
Cl155	Cl	0.114094	-0.933623	0.509035
Cl156	Cl	0.614094	-0.433623	1.009035
Cl157	Cl	0.114079	-0.258306	0.023292
Cl158	Cl	0.614079	0.241694	0.523292
H159	H	-0.377214	-0.889186	-0.023544
H160	H	0.122786	-0.389186	0.476456
H161	H	-0.212948	-0.724644	-0.187966
H162	H	0.287052	-0.224644	0.312034
Cl163	Cl	0.114038	-0.421817	0.020897
Cl164	Cl	0.614038	0.078183	0.520897
Cl165	Cl	0.000276	-0.967587	0.121460
Cl166	Cl	0.500276	-0.467587	0.621460
H167	H	0.000297	-0.932765	0.580636
H168	H	0.500297	-0.432765	1.080636
Cl169	Cl	-0.535189	-0.736565	-0.176089
Cl170	Cl	-0.035189	-0.236565	0.323911
H171	H	0.000274	-0.937387	0.265174
H172	H	0.500274	-0.437387	0.765174
H173	H	0.091738	-0.913302	0.357686
H174	H	0.591738	-0.413302	0.857686
Cl175	Cl	0.000231	-0.606286	-0.239841
Cl176	Cl	0.500231	-0.106286	0.260159
H177	H	0.000324	-0.930837	0.712063
H178	H	0.500324	-0.430837	1.212063
Cl179	Cl	0.000256	-0.672861	0.693584
Cl180	Cl	0.500256	-0.172861	1.193584
H181	H	0.000247	-0.703060	0.549868
H182	H	0.500247	-0.203060	1.049868
Cl183	Cl	-0.113568	-0.704429	0.469517
Cl184	Cl	0.386432	-0.204429	0.969517
Cl185	Cl	-0.113587	-0.706827	0.306004
Cl186	Cl	0.386413	-0.206827	0.806004
Cl187	Cl	0.000302	-0.034164	0.054887
Cl188	Cl	0.500302	0.465836	0.554887
Cl189	Cl	0.000259	-0.442771	-0.237439
Cl190	Cl	0.500259	0.057229	0.262561
H191	H	0.000220	-0.707689	0.234411
H192	H	0.500220	-0.207689	0.734411
H193	H	-0.786582	-0.743877	-0.168807
H194	H	-0.286582	-0.243877	0.331193
H195	H	0.000217	-0.709609	0.102976
H196	H	0.500217	-0.209609	0.602976
