data_functionalizedCrystal
_audit_creation_method	'MofGen! by Chris Wilmer'
_symmetry_space_group_name_H-M	'P1'
_symmetry_Int_Tables_number	1
_symmetry_cell_setting	triclinic
loop_
_symmetry_equiv_pos_as_xyz
  x,y,z
_cell_length_a	29.019771
_cell_length_b	29.019011
_cell_length_c	29.015668
_cell_angle_alpha	60.004890
_cell_angle_beta	60.009825
_cell_angle_gamma	59.993818
loop_
_atom_site_label
_atom_site_type_symbol
_atom_site_fract_x
_atom_site_fract_y
_atom_site_fract_z
O1	O	0.063866	-0.673289	0.563007
O2	O	0.024059	-0.524205	0.453633
O3	O	0.118464	-0.618532	0.453552
O4	O	-0.030540	-0.578962	0.563088
O5	O	0.149785	-0.587215	0.484789
O6	O	0.055379	-0.492888	0.484869
O7	O	0.095186	-0.641972	0.594244
Cu8	Cu	0.078143	-0.564571	0.542409
Cu9	Cu	0.041102	-0.601606	0.505468
O10	O	0.000781	-0.547645	0.594325
N11	N	0.104196	-0.538525	0.568394
N12	N	0.015054	-0.627656	0.479483
C13	C	0.143783	-0.499167	0.850823
C14	C	0.386758	-0.499111	0.607645
C15	C	0.143618	-0.499136	0.607763
C16	C	0.143598	-0.256029	0.607770
C17	C	0.182748	-0.373362	0.646852
C18	C	0.182758	-0.460025	0.646847
C19	C	0.204440	-0.438361	0.668500
C20	C	0.298958	-0.422064	0.618723
C21	C	0.358043	-0.441753	0.599006
C22	C	0.358069	-0.537354	0.635461
C23	C	0.298985	-0.517664	0.655180
C24	C	0.196983	-0.343808	0.588767
C25	C	0.177262	-0.284720	0.569090
C26	C	0.129075	-0.284743	0.665586
C27	C	0.148797	-0.343831	0.685263
C28	C	0.124666	-0.445760	0.661149
C29	C	0.104961	-0.465454	0.641458
C30	C	0.201435	-0.513678	0.593176
C31	C	0.221143	-0.493984	0.612860
C32	C	0.124738	-0.445777	0.763064
C33	C	0.105085	-0.465488	0.822151
C34	C	0.201594	-0.513722	0.822097
C35	C	0.221247	-0.494012	0.763009
C36	C	0.182817	-0.460038	0.733494
C37	C	0.269432	-0.460018	0.646809
C38	C	0.121399	-0.520450	0.915812
C39	C	0.451745	-0.520012	0.585655
C40	C	0.121177	-0.520429	0.586502
C41	C	0.121544	-0.191035	0.586883
C42	C	-0.110592	-0.666601	0.440035
C43	C	-0.023978	-0.666709	0.440231
C44	C	-0.045598	-0.688342	0.418486
C45	C	-0.061967	-0.782825	0.468184
C46	C	-0.042323	-0.841914	0.487907
C47	C	0.053280	-0.842025	0.451623
C48	C	0.033634	-0.782937	0.431899
C49	C	-0.140218	-0.680832	0.498102
C50	C	-0.199302	-0.661065	0.517690
C51	C	-0.199129	-0.612843	0.421140
C52	C	-0.140045	-0.632610	0.401552
C53	C	-0.038209	-0.608622	0.425941
C54	C	-0.018555	-0.588961	0.445716
C55	C	0.029562	-0.685470	0.494059
C56	C	0.009908	-0.705133	0.474291
C57	C	-0.038037	-0.608631	0.323917
C58	C	-0.018247	-0.588973	0.264830
C59	C	0.029955	-0.685489	0.264893
C60	C	0.010165	-0.705145	0.323981
C61	C	-0.023833	-0.666715	0.353492
C62	C	-0.023990	-0.753339	0.440182
N63	N	0.504925	-0.538487	0.568205
O64	O	0.685342	-0.543679	0.433426
O65	O	0.685533	-0.653395	0.582361
O66	O	0.685457	-0.653145	0.487904
O67	O	0.685418	-0.543929	0.527882
O68	O	0.591592	-0.621921	0.519268
O69	O	0.591667	-0.622171	0.613725
O70	O	0.591477	-0.512455	0.464790
Cu71	Cu	0.583001	-0.564462	0.542121
Cu72	Cu	0.694008	-0.601388	0.505029
O73	O	0.591553	-0.512705	0.559246
N74	N	0.772084	-0.627363	0.478939
N75	N	0.104168	-0.137853	0.568408
O76	O	-0.030538	0.042663	0.563097
O77	O	0.118403	0.042683	0.453379
O78	O	0.023918	0.042657	0.453664
O79	O	0.063947	0.042689	0.562813
O80	O	0.055242	-0.051215	0.484950
O81	O	0.149727	-0.051189	0.484666
O82	O	0.000787	-0.051210	0.594384
Cu83	Cu	0.078117	-0.059771	0.542381
Cu84	Cu	0.041072	0.051244	0.505382
O85	O	0.095272	-0.051184	0.594099
N86	N	0.015015	0.129326	0.479356
N87	N	0.104469	-0.538576	0.968995
O88	O	0.099171	-0.673268	1.149499
O89	O	-0.010519	-0.524279	1.149527
O90	O	-0.010265	-0.618748	1.149494
O91	O	0.098916	-0.578799	1.149533
O92	O	0.021008	-0.587443	1.055625
O93	O	0.020753	-0.492974	1.055659
O94	O	0.130444	-0.641963	1.055630
Cu95	Cu	0.078454	-0.564610	1.047074
Cu96	Cu	0.041470	-0.601632	1.158084
O97	O	0.130189	-0.547494	1.055664
N98	N	0.015455	-0.627672	1.236163
C99	C	0.035988	-0.489761	0.454182
C100	C	0.152897	-0.606574	0.454082
C101	C	0.083257	-0.676417	0.593694
C102	C	-0.033653	-0.559604	0.593794
C103	C	0.638623	-0.652892	0.616806
C104	C	0.638531	-0.652583	0.499833
C105	C	0.638384	-0.512957	0.430345
C106	C	0.638480	-0.513267	0.547317
C107	C	0.152789	-0.004135	0.453875
C108	C	0.035820	-0.004282	0.454266
C109	C	-0.033639	-0.004275	0.593849
C110	C	0.083370	-0.004245	0.593498
C111	C	-0.009989	-0.489856	1.102597
C112	C	-0.009667	-0.606839	1.102536
C113	C	0.129914	-0.676386	1.102561
C114	C	0.129599	-0.559396	1.102601
H115	H	0.093440	-0.418108	0.739036
H116	H	-0.029822	-0.541673	0.240758
C117	C	0.209910	-0.617822	0.408154
C118	C	0.202484	-0.611544	0.360969
C119	C	0.254991	-0.621909	0.318652
H120	H	0.226874	-0.591752	0.397797
H121	H	0.233600	-0.655189	0.421811
H122	H	0.178803	-0.574182	0.347314
H123	H	0.185529	-0.637612	0.371307
H124	H	0.278681	-0.659276	0.332310
H125	H	0.271951	-0.595837	0.308301
H126	H	0.249960	-0.617656	0.286635
H127	H	0.091941	-0.004235	0.627787
H128	H	0.163899	-0.550848	1.102605
H129	H	-0.044426	-0.447066	1.102605
H130	H	0.638471	-0.478960	0.555871
H131	H	0.195476	-0.003868	0.419344
C132	C	0.025444	-0.768222	0.489838
C133	C	0.059339	-0.797666	0.523884
C134	C	0.073670	-0.855783	0.538209
H135	H	-0.007936	-0.777941	0.509849
H136	H	0.045565	-0.777954	0.456444
H137	H	0.039219	-0.787938	0.557272
H138	H	0.092727	-0.787964	0.503884
H139	H	0.093791	-0.865515	0.504815
H140	H	0.040287	-0.865496	0.558218
H141	H	0.096674	-0.875768	0.561306
H142	H	0.027247	-0.004286	0.419974
C143	C	-0.090722	-0.004242	0.639695
C144	C	-0.125582	-0.004236	0.619480
C145	C	-0.178175	-0.004192	0.661693
H146	H	-0.085847	-0.036962	0.671797
H147	H	-0.107631	0.028514	0.649933
H148	H	-0.108676	-0.036988	0.609250
H149	H	-0.130473	0.028482	0.587383
H150	H	-0.195084	0.028563	0.671931
H151	H	-0.173294	-0.036913	0.693793
H152	H	-0.201835	-0.004183	0.647981
H153	H	0.091761	-0.719242	0.628046
H154	H	0.638671	-0.687334	0.659583
C155	C	-0.090742	-0.548244	0.639600
C156	C	-0.125526	-0.493158	0.619295
C157	C	-0.178118	-0.482671	0.661478
H158	H	-0.107732	-0.574278	0.649916
H159	H	-0.085832	-0.552455	0.671670
H160	H	-0.130438	-0.488953	0.587235
H161	H	-0.108555	-0.467113	0.608982
H162	H	-0.173207	-0.486881	0.693548
H163	H	-0.195101	-0.508708	0.671792
H164	H	-0.201723	-0.445293	0.647709
C165	C	0.638520	-0.698252	0.488331
C166	C	0.638449	-0.677778	0.433245
C167	C	0.638431	-0.719829	0.422633
H168	H	0.671269	-0.730360	0.492466
H169	H	0.605799	-0.708550	0.514362
H170	H	0.671167	-0.667488	0.407222
H171	H	0.605702	-0.645675	0.429097
H172	H	0.605709	-0.730127	0.448663
H173	H	0.671180	-0.751935	0.426770
H174	H	0.638377	-0.705942	0.385258
H175	H	0.021738	-0.752445	0.348058
H176	H	0.638322	-0.478510	0.387573
H177	H	-0.043953	-0.615372	1.102487
H178	H	0.027485	-0.446933	0.419832
H179	H	0.164353	-0.719173	1.102545
H180	H	0.057789	-0.453866	0.846219
H181	H	0.268542	-0.505632	0.738936
C182	C	0.243409	-0.550614	0.854036
C183	C	0.298478	-0.558890	0.815490
C184	C	0.337013	-0.592878	0.844890
H185	H	0.237818	-0.532620	0.877087
H186	H	0.237789	-0.586056	0.877071
H187	H	0.304095	-0.523454	0.792464
H188	H	0.304086	-0.576890	0.792437
H189	H	0.331394	-0.628320	0.867926
H190	H	0.331418	-0.574881	0.867940
H191	H	0.374382	-0.598502	0.818742
H192	H	0.093408	-0.418110	0.688821
H193	H	0.232695	-0.541333	0.565509
C194	C	0.041868	-0.449937	0.657073
C195	C	0.012468	-0.415999	0.691067
C196	C	-0.045653	-0.401702	0.705471
H197	H	0.032073	-0.429855	0.623723
H198	H	0.032179	-0.483347	0.677146
H199	H	0.022153	-0.382594	0.670994
H200	H	0.022246	-0.436069	0.724425
H201	H	-0.055342	-0.435112	0.725543
H202	H	-0.055442	-0.381622	0.672117
H203	H	-0.065608	-0.378678	0.728541
H204	H	0.268446	-0.505593	0.601208
H205	H	0.274946	-0.548573	0.678050
C206	C	-0.083643	-0.873824	0.518280
C207	C	-0.111081	-0.859425	0.482303
C208	C	-0.149172	-0.888791	0.510290
H209	H	-0.063790	-0.913269	0.528877
H210	H	-0.110732	-0.864057	0.551070
H211	H	-0.083996	-0.869196	0.449522
H212	H	-0.130945	-0.819986	0.471704
H213	H	-0.176261	-0.879024	0.543081
H214	H	-0.129315	-0.928234	0.520886
H215	H	-0.167797	-0.879022	0.485886
C216	C	0.390058	-0.599966	0.644621
C217	C	0.351554	-0.628994	0.673449
C218	C	0.381000	-0.686673	0.681903
H219	H	0.413089	-0.605517	0.609151
H220	H	0.413115	-0.613854	0.666282
H221	H	0.328506	-0.615112	0.651789
H222	H	0.328521	-0.623461	0.708924
H223	H	0.404058	-0.700560	0.703564
H224	H	0.404030	-0.692218	0.646431
H225	H	0.354880	-0.706376	0.701468
H226	H	0.382082	-0.410845	0.576135
H227	H	0.224626	-0.367851	0.557490
C228	C	0.266976	-0.359459	0.609604
C229	C	0.305485	-0.330439	0.580798
C230	C	0.276043	-0.272767	0.572394
H231	H	0.243906	-0.345526	0.587949
H232	H	0.243958	-0.353956	0.645104
H233	H	0.328493	-0.335938	0.545305
H234	H	0.328556	-0.344355	0.602444
H235	H	0.253025	-0.267264	0.607893
H236	H	0.252974	-0.258840	0.550740
H237	H	0.302166	-0.253071	0.552853
H238	H	0.101438	-0.260698	0.696864
C239	C	0.192798	-0.252730	0.506001
C240	C	0.226763	-0.291239	0.476574
C241	C	0.241092	-0.261793	0.418457
H242	H	0.159419	-0.229681	0.496256
H243	H	0.212867	-0.229688	0.496282
H244	H	0.206694	-0.314272	0.486289
H245	H	0.260149	-0.314290	0.486302
H246	H	0.261162	-0.238750	0.408738
H247	H	0.207711	-0.238744	0.408718
H248	H	0.264144	-0.287916	0.398484
H249	H	-0.065723	-0.577332	0.347941
C250	C	0.133420	-0.375893	0.748337
C251	C	0.153535	-0.361534	0.772642
C252	C	0.139387	-0.391064	0.830742
H253	H	0.093566	-0.366244	0.765020
H254	H	0.150043	-0.415319	0.754579
H255	H	0.136911	-0.322118	0.766405
H256	H	0.193389	-0.371186	0.755976
H257	H	0.156010	-0.430489	0.836984
H258	H	0.099532	-0.381412	0.847419
H259	H	0.153037	-0.381329	0.847239
C260	C	0.066780	-0.727279	0.232931
C261	C	0.037093	-0.761130	0.247249
C262	C	0.071002	-0.799640	0.217823
H263	H	0.076550	-0.707330	0.193497
H264	H	0.100147	-0.750397	0.242702
H265	H	0.003736	-0.738015	0.237474
H266	H	0.027323	-0.781092	0.286678
H267	H	0.104369	-0.822759	0.227593
H268	H	0.080770	-0.779687	0.178390
H269	H	0.050867	-0.822617	0.227537
C270	C	-0.034025	-0.525872	0.430102
C271	C	-0.067886	-0.496428	0.396022
C272	C	-0.082134	-0.438312	0.381615
H273	H	-0.054145	-0.516070	0.463448
H274	H	-0.000597	-0.516223	0.410091
H275	H	-0.101308	-0.506073	0.416034
H276	H	-0.047777	-0.506214	0.362669
H277	H	-0.048706	-0.428663	0.361603
H278	H	-0.102252	-0.428515	0.414964
H279	H	-0.105106	-0.418327	0.358486
H280	H	-0.065797	-0.577331	0.398207
H281	H	0.064563	-0.758931	0.409098
C282	C	0.066452	-0.727164	0.530939
C283	C	0.118624	-0.718756	0.504318
C284	C	0.152624	-0.757161	0.538273
H285	H	0.048436	-0.721505	0.566359
H286	H	0.072151	-0.764583	0.536602
H287	H	0.112924	-0.681346	0.498662
H288	H	0.136656	-0.724420	0.468900
H289	H	0.158322	-0.794580	0.543936
H290	H	0.134602	-0.751498	0.573692
H291	H	0.188028	-0.751464	0.520213
H292	H	0.100203	-0.866125	0.444882
H293	H	-0.108889	-0.758731	0.474933
H294	H	-0.116238	-0.708516	0.529438
H295	H	-0.223112	-0.585171	0.389803
C296	C	-0.231370	-0.676604	0.580761
C297	C	-0.192930	-0.710617	0.610269
C298	C	-0.222449	-0.724952	0.668370
H299	H	-0.254423	-0.643226	0.590506
H300	H	-0.254412	-0.696644	0.590412
H301	H	-0.169898	-0.690578	0.600622
H302	H	-0.169875	-0.744002	0.600542
H303	H	-0.245491	-0.744992	0.678021
H304	H	-0.245501	-0.691572	0.678109
H305	H	-0.196372	-0.748036	0.688399
H306	H	-0.115923	-0.621016	0.354266
