data_functionalizedCrystal
_audit_creation_method	'MofGen! by Chris Wilmer'
_symmetry_space_group_name_H-M	'P1'
_symmetry_Int_Tables_number	1
_symmetry_cell_setting	triclinic
loop_
_symmetry_equiv_pos_as_xyz
  x,y,z
_cell_length_a	12.827893
_cell_length_b	12.645330
_cell_length_c	12.827885
_cell_angle_alpha	89.971022
_cell_angle_beta	89.980728
_cell_angle_gamma	90.017662
loop_
_atom_site_label
_atom_site_type_symbol
_atom_site_fract_x
_atom_site_fract_y
_atom_site_fract_z
Zn1	Zn	1.597653	-0.421989	-0.590855
Zn2	Zn	1.597540	-0.599290	-0.416117
Zn3	Zn	1.422894	-0.422040	-0.416128
Zn4	Zn	1.422873	-0.599211	-0.590817
O5	O	1.510240	-0.510632	-0.503479
O6	O	1.743874	-0.445520	-0.567686
O7	O	1.574335	-0.575832	-0.269883
O8	O	1.446133	-0.273686	-0.439326
O9	O	1.743791	-0.575782	-0.439308
O10	O	1.574527	-0.273648	-0.567697
O11	O	1.446023	-0.445608	-0.269891
O12	O	1.276655	-0.445531	-0.439290
O13	O	1.446096	-0.575647	-0.737058
O14	O	1.276639	-0.575697	-0.567633
O15	O	1.574506	-0.445443	-0.737086
O16	O	1.574314	-0.747626	-0.439271
O17	O	1.445986	-0.747568	-0.567623
C18	C	1.238730	-0.510612	-0.503459
C19	C	1.122577	-0.510629	-0.503476
C20	C	1.510164	-0.786062	-0.503465
C21	C	1.510227	-0.903892	-0.503493
C22	C	1.070812	-0.575140	-0.566886
C23	C	0.950762	-0.575159	-0.566904
C24	C	1.429829	-1.071464	-0.584488
C25	C	1.429418	-0.948904	-0.584228
C26	C	1.480414	-0.948494	-0.393362
C27	C	1.479923	-1.071093	-0.393854
C28	C	1.620929	-1.070979	-0.531736
C29	C	1.620251	-0.948372	-0.534144
C30	C	1.782810	-0.510654	-0.503500
C31	C	1.898963	-0.510663	-0.503509
C32	C	1.510311	-0.510531	-0.776050
C33	C	1.510341	-0.510487	-0.892203
C34	C	1.510345	-0.234127	-0.503517
C35	C	1.510390	-0.116297	-0.503533
C36	C	1.573890	-0.446045	-0.944001
C37	C	1.573923	-0.445999	-1.064052
C38	C	1.510229	-0.510657	-0.231969
C39	C	1.510401	-0.510402	-0.115817
H40	H	1.115371	-0.630352	-0.621164
H41	H	1.347469	-0.919671	-0.565543
N42	N	1.063564	-0.437490	-0.431574
H43	H	1.082470	-0.453850	-0.356863
H44	H	1.082547	-0.361774	-0.447994
N45	N	1.645981	-0.372903	-1.123049
H46	H	1.688364	-0.329928	-1.072004
H47	H	1.694301	-0.416076	-1.168336
N48	N	1.454292	-1.110422	-0.693015
H49	H	1.468438	-1.048035	-0.740140
H50	H	1.517814	-1.157528	-0.690667
N51	N	1.656962	-1.111824	-0.636301
H52	H	1.601988	-1.160125	-0.666451
H53	H	1.668850	-1.050284	-0.685097
N54	N	1.438323	-0.583474	-1.056815
H55	H	1.363653	-0.567006	-1.075753
H56	H	1.454590	-0.659205	-1.075760
N57	N	1.454112	-0.908941	-0.692395
H58	H	1.525142	-0.935291	-0.714270
H59	H	1.399788	-0.935704	-0.742885
H60	H	0.906245	-0.630392	-0.621189
N61	N	1.374490	-0.907959	-0.361149
H62	H	1.325742	-0.969650	-0.349859
H63	H	1.381179	-0.866338	-0.294309
N64	N	0.957903	-0.437493	-0.431586
H65	H	1.003159	-0.480547	-0.383119
H66	H	1.003157	-0.388463	-0.474242
N67	N	1.321953	-1.112388	-0.560063
H68	H	1.325040	-1.159843	-0.496786
H69	H	1.273963	-1.050827	-0.545547
N70	N	1.554253	-1.110411	-0.311229
H71	H	1.626815	-1.083632	-0.326700
H72	H	1.531147	-1.083654	-0.240746
H73	H	1.537231	-0.919340	-0.331396
H74	H	1.628268	-0.390905	-0.899471
N75	N	1.703953	-0.907777	-0.461739
H76	H	1.671593	-0.859767	-0.407797
H77	H	1.738780	-0.969450	-0.425825
N78	N	1.438295	-0.583510	-0.951187
H79	H	1.480793	-0.632581	-0.996475
H80	H	1.395889	-0.626453	-0.900068
H81	H	1.680949	-1.099972	-0.472773
N82	N	1.372890	-1.109102	-0.362205
H83	H	1.319422	-1.081548	-0.413206
H84	H	1.371593	-1.188960	-0.362194
H85	H	1.642733	-0.919216	-0.615195
