data_functionalizedCrystal
_audit_creation_method	'MofGen! by Chris Wilmer'
_symmetry_space_group_name_H-M	'P1'
_symmetry_Int_Tables_number	1
_symmetry_cell_setting	triclinic
loop_
_symmetry_equiv_pos_as_xyz
  x,y,z
_cell_length_a	12.759395
_cell_length_b	12.759394
_cell_length_c	19.076919
_cell_angle_alpha	92.274121
_cell_angle_beta	92.282406
_cell_angle_gamma	90.015525
loop_
_atom_site_label
_atom_site_type_symbol
_atom_site_fract_x
_atom_site_fract_y
_atom_site_fract_z
Zn1	Zn	1.582345	-0.442135	-0.397936
Zn2	Zn	1.589310	-0.610771	-0.280247
Zn3	Zn	1.413717	-0.435109	-0.280258
Zn4	Zn	1.406637	-0.617773	-0.397905
O5	O	1.498002	-0.526447	-0.339087
O6	O	1.730289	-0.464515	-0.382333
O7	O	1.571896	-0.581598	-0.181759
O8	O	1.436134	-0.289021	-0.295886
O9	O	1.735407	-0.588411	-0.295867
O10	O	1.560024	-0.294183	-0.382343
O11	O	1.442889	-0.452540	-0.181767
O12	O	1.265757	-0.459330	-0.295856
O13	O	1.424066	-0.600345	-0.496399
O14	O	1.260555	-0.593532	-0.382291
O15	O	1.553158	-0.471304	-0.496421
O16	O	1.565030	-0.758720	-0.295837
O17	O	1.430820	-0.763864	-0.382280
C18	C	1.225036	-0.526429	-0.339072
C19	C	1.108258	-0.526448	-0.339082
C20	C	1.497940	-0.799413	-0.339070
C21	C	1.498008	-0.916191	-0.339086
C22	C	0.883463	-0.666427	-0.428968
C23	C	0.935651	-0.736394	-0.473894
C24	C	1.045373	-0.736380	-0.473885
C25	C	1.102911	-0.666395	-0.428944
C26	C	1.050723	-0.596428	-0.384017
C27	C	0.940998	-0.596447	-0.384033
C28	C	1.056071	-0.456481	-0.294155
C29	C	0.946349	-0.456488	-0.294167
C30	C	1.113609	-0.386496	-0.249214
C31	C	1.061421	-0.316522	-0.204290
C32	C	0.951693	-0.316538	-0.204301
C33	C	0.894162	-0.386521	-0.249241
C34	C	1.637857	-0.910785	-0.249140
C35	C	1.707809	-0.962943	-0.204175
C36	C	1.707869	-1.072666	-0.204194
C37	C	1.637973	-1.130233	-0.249185
C38	C	1.568021	-1.078075	-0.294149
C39	C	1.567966	-0.968350	-0.294124
C40	C	1.428179	-1.083481	-0.384098
C41	C	1.428112	-0.973759	-0.384076
C42	C	1.358283	-1.141049	-0.429088
C43	C	1.288325	-1.088890	-0.474050
C44	C	1.288266	-0.979161	-0.474028
C45	C	1.358161	-0.921600	-0.429041
C46	C	1.772035	-0.526466	-0.339102
C47	C	1.888811	-0.526473	-0.339109
C48	C	1.487045	-0.537389	-0.522661
C49	C	1.482376	-0.542052	-0.600890
C50	C	1.498092	-0.252415	-0.339119
C51	C	1.498130	-0.135640	-0.339133
C52	C	1.547390	-0.477062	-0.637655
C53	C	1.542991	-0.481439	-0.711159
C54	C	1.473581	-0.550813	-0.747897
C55	C	1.408560	-0.615807	-0.711127
C56	C	1.412955	-0.611423	-0.637624
C57	C	1.453223	-0.571122	-0.967725
C58	C	1.448835	-0.575503	-1.041233
C59	C	1.583265	-0.441134	-1.041260
C60	C	1.587659	-0.436761	-0.967756
C61	C	1.522634	-0.501750	-0.930992
N62	N	1.469084	-0.555292	-0.823030
N63	N	1.527126	-0.497266	-0.855861
C64	C	1.508977	-0.515471	-0.156226
C65	C	1.513849	-0.510512	-0.077998
H66	H	0.888791	-0.793377	-0.510483
O67	O	1.646524	-0.377959	-1.076864
C68	C	1.780268	-0.244166	-1.069132
C69	C	1.708705	-0.315677	-1.028725
H70	H	1.830544	-0.193777	-1.030230
H71	H	1.833205	-0.294400	-1.103526
H72	H	1.729972	-0.191326	-1.103564
H73	H	1.758918	-0.368529	-0.994255
H74	H	1.655763	-0.265380	-0.994376
H75	H	1.231425	-1.135770	-0.510680
O76	O	1.654917	-0.369273	-0.932008
C77	C	1.673980	-0.222378	-0.849117
C78	C	1.597707	-0.298776	-0.889536
H79	H	1.627754	-0.165349	-0.814780
H80	H	1.730971	-0.268452	-0.814643
H81	H	1.719686	-0.176730	-0.888050
H82	H	1.551929	-0.344444	-0.850653
H83	H	1.540784	-0.252644	-0.924020
H84	H	0.909209	-0.259563	-0.167716
O85	O	1.117431	-0.248693	-0.160603
C86	C	1.246905	-0.228672	-0.065555
C87	C	1.183554	-0.305605	-0.114997
H88	H	1.300364	-0.274656	-0.028661
H89	H	1.296442	-0.175758	-0.097889
H90	H	1.190743	-0.178638	-0.033481
H91	H	1.239639	-0.355708	-0.147083
H92	H	1.134003	-0.358448	-0.082623
H93	H	0.794121	-0.666435	-0.428987
O94	O	1.606255	-0.418271	-0.746763
C95	C	1.740020	-0.284498	-0.739033
C96	C	1.668446	-0.355998	-0.698625
H97	H	1.790303	-0.234116	-0.700131
H98	H	1.792948	-0.334741	-0.773427
H99	H	1.689732	-0.231652	-0.773465
H100	H	1.718651	-0.408857	-0.664155
H101	H	1.615512	-0.305692	-0.664276
H102	H	1.087863	-0.793356	-0.510467
O103	O	1.381312	-0.642922	-1.076813
C104	C	1.248480	-0.775777	-1.069034
C105	C	1.324875	-0.699459	-1.028652
H106	H	1.202846	-0.821524	-1.030114
H107	H	1.191441	-0.729637	-1.103431
H108	H	1.294659	-0.832725	-1.103460
H109	H	1.278783	-0.642494	-0.994188
H110	H	1.381913	-0.745667	-0.994300
H111	H	0.804819	-0.386536	-0.249258
H112	H	1.400291	-0.624057	-0.937801
O113	O	1.220218	-0.928662	-0.517733
C114	C	1.081572	-0.945620	-0.606994
C115	C	1.158563	-1.002936	-0.557520
H116	H	1.031719	-1.005647	-0.639185
H117	H	1.028494	-0.892421	-0.574682
H118	H	1.127566	-0.896351	-0.643779
H119	H	1.112654	-1.052262	-0.520726
H120	H	1.211641	-1.056072	-0.589877
H121	H	1.603915	-0.420573	-0.607748
H122	H	1.352041	-0.672289	-0.741045
O123	O	1.349924	-0.674715	-0.601936
C124	C	1.300193	-0.852085	-0.579441
C125	C	1.371654	-0.780528	-0.619890
H126	H	1.317721	-0.937649	-0.593954
H127	H	1.315269	-0.837122	-0.520589
H128	H	1.214622	-0.834447	-0.593872
H129	H	1.457250	-0.798124	-0.605519
H130	H	1.356488	-0.795504	-0.678732
H131	H	1.638037	-1.219575	-0.249202
O132	O	1.775602	-0.906861	-0.160495
C133	C	1.837534	-0.735432	-0.120625
C134	C	1.760686	-0.798810	-0.170114
H135	H	1.825517	-0.648062	-0.128394
H136	H	1.822543	-0.753599	-0.063853
H137	H	1.921498	-0.757731	-0.133025
H138	H	1.676694	-0.776548	-0.157776
H139	H	1.775769	-0.780637	-0.226871
H140	H	1.764835	-1.115133	-0.167584
O141	O	1.358431	-1.247639	-0.429222
C142	C	1.381348	-1.409050	-0.496754
C143	C	1.381240	-1.288343	-0.496694
H144	H	1.399766	-1.441996	-0.551303
H145	H	1.443380	-1.436502	-0.456930
H146	H	1.300895	-1.438017	-0.482079
H147	H	1.461648	-1.259288	-0.511387
H148	H	1.319153	-1.260962	-0.536504
H149	H	1.192252	-0.666399	-0.428934
H150	H	1.637802	-0.821442	-0.249111
H151	H	1.202950	-0.386494	-0.249206
H152	H	1.358113	-0.832258	-0.429014
