data_functionalizedCrystal
_audit_creation_method	'MofGen! by Chris Wilmer'
_symmetry_space_group_name_H-M	'P1'
_symmetry_Int_Tables_number	1
_symmetry_cell_setting	triclinic
loop_
_symmetry_equiv_pos_as_xyz
  x,y,z
_cell_length_a	15.297979
_cell_length_b	16.625546
_cell_length_c	16.625539
_cell_angle_alpha	89.971468
_cell_angle_beta	80.292161
_cell_angle_gamma	99.682367
loop_
_atom_site_label
_atom_site_type_symbol
_atom_site_fract_x
_atom_site_fract_y
_atom_site_fract_z
Zn1	Zn	1.379332	-0.107932	-0.669653
Zn2	Zn	1.379233	-0.242786	-0.534800
Zn3	Zn	1.228458	-0.131263	-0.511453
Zn4	Zn	1.228416	-0.266040	-0.646218
O5	O	1.303860	-0.187005	-0.590531
O6	O	1.505578	-0.106324	-0.671343
O7	O	1.359209	-0.228024	-0.418867
O8	O	1.248531	-0.015327	-0.532475
O9	O	1.505505	-0.205401	-0.572268
O10	O	1.359378	0.001815	-0.648704
O11	O	1.248435	-0.146089	-0.401714
O12	O	1.102194	-0.168638	-0.509751
O13	O	1.248459	-0.245034	-0.762163
O14	O	1.102163	-0.267658	-0.608762
O15	O	1.359336	-0.128873	-0.779381
O16	O	1.359168	-0.358712	-0.549543
O17	O	1.248363	-0.375797	-0.631401
C18	C	1.069441	-0.223204	-0.554180
C19	C	0.969155	-0.238709	-0.538649
C20	C	0.922002	-0.297495	-0.479686
C21	C	0.827778	-0.312065	-0.465097
C22	C	0.780699	-0.267845	-0.509465
C23	C	0.827852	-0.209053	-0.568425
C24	C	0.922085	-0.194486	-0.583020
C25	C	0.780782	-0.164836	-0.612799
C26	C	0.827936	-0.106044	-0.671759
C27	C	0.922159	-0.091480	-0.686351
C28	C	0.969238	-0.135700	-0.641983
C29	C	0.686550	-0.179403	-0.598204
C30	C	0.686633	-0.076394	-0.701538
C31	C	0.780857	-0.061824	-0.716127
C32	C	1.303774	-0.396509	-0.590484
C33	C	1.303820	-0.486123	-0.590504
C34	C	1.303978	-0.814274	-0.590612
C35	C	1.303931	-0.722973	-0.590584
C36	C	1.303898	-0.650202	-0.590557
C37	C	1.303853	-0.558895	-0.590530
C38	C	1.539194	-0.150666	-0.627024
C39	C	1.639480	-0.135181	-0.642575
C40	C	1.303904	-0.186945	-0.800847
C41	C	1.303923	-0.186920	-0.890471
C42	C	1.303970	0.023321	-0.590600
C43	C	1.304017	0.112949	-0.590629
C44	C	1.303938	-0.186899	-0.963256
C45	C	1.303959	-0.186866	-1.054568
C46	C	1.303980	-0.186835	-1.127347
C47	C	1.304002	-0.186802	-1.218665
C48	C	1.303868	-0.186999	-0.381041
C49	C	1.304024	-0.186770	-0.291445
H50	H	0.789393	-0.359934	-0.417092
H51	H	0.960342	-0.333496	-0.443571
H52	H	0.703978	-0.279711	-0.497583
H53	H	0.648167	-0.227273	-0.550199
H54	H	0.648302	-0.040387	-0.737667
N55	N	1.065488	-0.120807	-0.656873
N56	N	1.107513	-0.097368	-0.600512
H57	H	1.175491	-0.086851	-0.611025
N58	N	0.970312	-0.031436	-0.746591
N59	N	0.928272	0.008038	-0.786204
H60	H	0.962278	0.050443	-0.828752
N61	N	0.829028	-0.001763	-0.776342
N62	N	0.881609	0.057781	-0.756203
H63	H	0.915631	0.100201	-0.798729
