data_functionalizedCrystal
_audit_creation_method	'MofGen! by Chris Wilmer'
_symmetry_space_group_name_H-M	'P1'
_symmetry_Int_Tables_number	1
_symmetry_cell_setting	triclinic
loop_
_symmetry_equiv_pos_as_xyz
  x,y,z
_cell_length_a	13.339070
_cell_length_b	15.944551
_cell_length_c	11.804365
_cell_angle_alpha	101.830656
_cell_angle_beta	74.875130
_cell_angle_gamma	99.564016
loop_
_atom_site_label
_atom_site_type_symbol
_atom_site_fract_x
_atom_site_fract_y
_atom_site_fract_z
O1	O	1.362759	0.408901	-0.099080
O2	O	1.068226	0.353629	-0.099072
O3	O	1.223533	0.260866	-0.099066
O4	O	1.207452	0.501664	-0.099087
O5	O	1.182647	0.285253	0.098989
O6	O	1.027340	0.378016	0.098982
O7	O	1.321872	0.433288	0.098974
Cu8	Cu	1.170873	0.407879	0.117062
Cu9	Cu	1.219226	0.379038	-0.117160
O10	O	1.166565	0.526051	0.098968
C11	C	1.010093	0.356486	-0.000044
C12	C	0.897788	0.328657	-0.000040
C13	C	0.533018	0.545045	-0.000078
C14	C	0.638534	0.571194	-0.000085
C15	C	0.703352	0.510562	-0.000073
C16	C	0.662645	0.423776	-0.000055
C17	C	0.557121	0.397622	-0.000058
C18	C	0.727455	0.363140	-0.000053
C19	C	0.686748	0.276354	-0.000035
C20	C	0.581234	0.250205	-0.000037
C21	C	0.516415	0.310837	-0.000048
C22	C	0.832980	0.389293	-0.000051
C23	C	0.857083	0.241871	-0.000031
C24	C	0.751567	0.215721	-0.000024
C25	C	1.202422	0.241610	-0.000038
C26	C	1.200420	0.147897	-0.000038
C27	C	1.099370	-0.090508	-0.000051
C28	C	1.126136	-0.128567	0.097600
C29	C	1.196800	-0.023674	-0.000047
C30	C	1.166470	-0.152588	-0.097666
C31	C	1.193297	-0.189405	-0.000060
C32	C	1.223576	-0.060489	0.097685
C33	C	1.263915	-0.084518	-0.097668
C34	C	1.290747	-0.122540	0.000007
C35	C	1.198815	0.071799	-0.000038
C36	C	1.191288	-0.284874	-0.000061
C37	C	1.380006	0.430430	-0.000057
C38	C	1.492312	0.458259	-0.000068
C39	C	1.187677	0.545307	-0.000062
C40	C	1.189681	0.639019	-0.000071
N41	N	1.136871	0.428165	0.281801
N42	N	1.253235	0.358748	-0.281899
C43	C	1.334885	0.310017	0.655758
C44	C	1.360606	0.294667	0.531097
C45	C	1.304674	0.328040	0.468767
C46	C	1.223018	0.376766	0.531110
C47	C	1.197300	0.392123	0.655783
C48	C	1.167089	0.410146	0.468792
C49	C	1.085432	0.458872	0.531135
C50	C	1.059718	0.474226	0.655795
C51	C	1.115650	0.440854	0.718126
C52	C	1.192807	0.394789	0.344119
C53	C	1.055221	0.476895	0.344144
C54	C	1.029500	0.492245	0.468805
H55	H	0.548096	0.179536	-0.000035
H56	H	1.142292	-0.192437	-0.180228
N57	N	1.336967	-0.059974	-0.201227
N58	N	1.431223	-0.069882	-0.219598
H59	H	1.482814	-0.052550	-0.292746
H60	H	1.259292	0.355116	0.293371
N61	N	0.811126	0.537276	-0.000043
N62	N	0.846355	0.526328	0.083460
H63	H	0.922473	0.545199	0.083490
H64	H	0.671672	0.641854	-0.000109
H65	H	1.371679	-0.136831	0.000060
N66	N	0.946085	0.542012	0.532476
N67	N	0.855452	0.517307	0.518577
H68	H	0.796537	0.552453	0.563545
H69	H	1.009678	0.504072	0.293396
H70	H	0.480236	0.594401	-0.000097
H71	H	0.430494	0.289550	-0.000042
H72	H	1.325620	0.315540	0.367263
N73	N	0.709961	0.127078	-0.000000
N74	N	0.615746	0.103745	0.000004
H75	H	0.586359	0.041140	0.000022
H76	H	1.018477	-0.076032	0.000049
H77	H	0.909859	0.192498	-0.000026
H78	H	1.067883	-0.148112	0.180159
N79	N	1.089382	0.456519	0.845467
N80	N	1.139324	0.426708	0.901097
H81	H	1.120775	0.437769	0.991034
H82	H	1.380423	0.282855	0.706515
N83	N	0.976323	0.524017	0.719460
N84	N	0.926395	0.553815	0.663801
H85	H	0.867498	0.588983	0.708762
N86	N	1.253833	-0.010629	0.201371
N87	N	1.340815	-0.015612	0.219258
H88	H	1.362182	0.019602	0.292486
N89	N	0.874566	0.477936	-0.000046
N90	N	0.968778	0.501282	-0.000038
H91	H	0.998149	0.563892	-0.000031
N92	N	1.444114	0.245006	0.467438
N93	N	1.494112	0.215285	0.523099
H94	H	1.553132	0.180248	0.478140
