data_functionalizedCrystal
_audit_creation_method	'MofGen! by Chris Wilmer'
_symmetry_space_group_name_H-M	'P1'
_symmetry_Int_Tables_number	1
_symmetry_cell_setting	triclinic
loop_
_symmetry_equiv_pos_as_xyz
  x,y,z
_cell_length_a	12.759399
_cell_length_b	19.805407
_cell_length_c	19.805399
_cell_angle_alpha	90.021064
_cell_angle_beta	89.978119
_cell_angle_gamma	89.985578
loop_
_atom_site_label
_atom_site_type_symbol
_atom_site_fract_x
_atom_site_fract_y
_atom_site_fract_z
Zn1	Zn	-0.418319	-1.034787	-0.382773
Zn2	Zn	-0.594012	-1.034724	-0.269596
Zn3	Zn	-0.418345	-0.921602	-0.269595
Zn4	Zn	-0.593953	-0.921587	-0.382740
O5	O	-0.506157	-0.978175	-0.326176
O6	O	-0.441639	-1.129495	-0.367775
O7	O	-0.570745	-1.019698	-0.174880
O8	O	-0.271320	-0.936649	-0.284622
O9	O	-0.570720	-1.129449	-0.284624
O10	O	-0.271301	-1.019806	-0.367773
O11	O	-0.441683	-0.936587	-0.174879
O12	O	-0.441626	-0.826883	-0.284590
O13	O	-0.570620	-0.936624	-0.477461
O14	O	-0.570645	-0.826873	-0.367717
O15	O	-0.441582	-1.019791	-0.477486
O16	O	-0.741026	-1.019683	-0.284592
O17	O	-0.740982	-0.936562	-0.367718
C18	C	-0.506133	-0.802319	-0.326150
C19	C	-0.506147	-0.727087	-0.326155
C20	C	-0.779125	-0.978133	-0.326166
C21	C	-0.895901	-0.978176	-0.326185
C22	C	-0.573427	-0.691755	-0.369368
C23	C	-0.573427	-0.621067	-0.369376
C24	C	-0.506151	-0.585711	-0.326166
C25	C	-0.438864	-0.621049	-0.282951
C26	C	-0.438859	-0.691736	-0.282947
C27	C	-0.438879	-0.335975	-0.282966
C28	C	-0.438891	-0.265283	-0.282971
C29	C	-0.573447	-0.265306	-0.369394
C30	C	-0.573443	-0.335993	-0.369391
C31	C	-0.506152	-0.371324	-0.326178
C32	C	-0.506151	-0.447973	-0.326171
C33	C	-0.506156	-0.509064	-0.326169
C34	C	-1.060586	-0.934983	-0.282876
C35	C	-0.950862	-0.934938	-0.282864
C36	C	-0.950671	-1.021458	-0.369525
C37	C	-1.060393	-1.021499	-0.369540
C38	C	-1.115541	-0.891746	-0.239548
C39	C	-1.060779	-0.848464	-0.196208
C40	C	-0.951055	-0.848419	-0.196196
C41	C	-0.896093	-0.891656	-0.239524
C42	C	-0.232124	-0.978236	-0.326201
C43	C	-0.115347	-0.978262	-0.326212
C44	C	-0.506091	-0.978213	-0.502719
C45	C	-0.506063	-0.978229	-0.577951
C46	C	-0.506176	-0.154718	-0.326197
C47	C	-0.506167	-0.229950	-0.326189
C48	C	-0.438870	-1.021536	-0.613309
C49	C	-0.438839	-1.021543	-0.683998
C50	C	-0.506008	-0.978246	-0.719327
C51	C	-0.573205	-0.934935	-0.683964
C52	C	-0.573229	-0.934925	-0.613277
C53	C	-0.573107	-0.934973	-0.969037
C54	C	-0.573079	-0.934988	-1.039729
C55	C	-0.438717	-1.021591	-1.039758
C56	C	-0.438741	-1.021581	-0.969071
C57	C	-0.505933	-0.978267	-0.933714
C58	C	-0.505964	-0.978259	-0.857066
C59	C	-0.505983	-0.978257	-0.795974
C60	C	-0.506148	-0.978176	-0.150320
C61	C	-0.505880	-0.978291	-0.075089
H62	H	-0.628215	-0.720536	-0.404552
H63	H	-0.628235	-0.236531	-0.404583
C64	C	-0.775399	-0.891604	-0.239512
H65	H	-0.750654	-0.859637	-0.207496
H66	H	-0.750555	-0.879865	-0.283176
H67	H	-0.750529	-0.935282	-0.227842
C68	C	-0.890215	-1.069020	-0.417174
H69	H	-0.817025	-1.062802	-0.410954
H70	H	-0.908163	-1.059098	-0.462646
H71	H	-0.908148	-1.114512	-0.407309
C72	C	-0.647091	-0.887308	-0.722821
H73	H	-0.687106	-0.861511	-0.691637
H74	H	-0.692863	-0.913193	-0.750397
H75	H	-0.606881	-0.857828	-0.750393
C76	C	-0.364875	-0.226390	-0.235447
H77	H	-0.374524	-0.179232	-0.241636
H78	H	-0.294306	-0.237987	-0.245436
H79	H	-0.380150	-0.237951	-0.189948
C80	C	-0.364932	-1.069183	-0.722888
H81	H	-0.324943	-1.094973	-0.691724
H82	H	-0.319137	-1.043309	-0.750462
H83	H	-0.405126	-1.098669	-0.750466
H84	H	-1.104981	-1.056733	-0.404835
H85	H	-0.384067	-0.720502	-0.247762
C86	C	-0.364869	-0.374834	-0.235433
H87	H	-0.374487	-0.421996	-0.241621
H88	H	-0.380151	-0.363228	-0.189939
H89	H	-0.294297	-0.363259	-0.245422
C90	C	-1.121232	-0.800905	-0.148554
H91	H	-1.194423	-0.807133	-0.154763
H92	H	-1.103304	-0.755414	-0.158412
H93	H	-1.103275	-0.810836	-0.103082
C94	C	-0.364797	-1.069232	-1.078649
H95	H	-0.324808	-1.095021	-1.047483
H96	H	-0.319002	-1.043359	-1.106223
H97	H	-0.404990	-1.098720	-1.106226
C98	C	-0.890820	-0.800810	-0.148527
H99	H	-0.939267	-0.775072	-0.122723
H100	H	-0.848032	-0.771285	-0.174381
H101	H	-0.848011	-0.826710	-0.119054
C102	C	-0.364865	-0.582160	-0.235419
H103	H	-0.374511	-0.535001	-0.241604
H104	H	-0.294293	-0.593756	-0.245398
H105	H	-0.380158	-0.593726	-0.189923
C106	C	-1.236233	-0.891791	-0.239561
H107	H	-1.261121	-0.859840	-0.207555
H108	H	-1.261007	-0.935487	-0.227907
H109	H	-1.261029	-0.880062	-0.283233
C110	C	-0.364978	-1.069159	-0.574453
H111	H	-0.324948	-1.094946	-0.605638
H112	H	-0.405174	-1.098639	-0.546878
H113	H	-0.319204	-1.043266	-0.546880
C114	C	-0.364852	-1.069204	-0.930212
H115	H	-0.324821	-1.094993	-0.961395
H116	H	-0.405051	-1.098683	-0.902637
H117	H	-0.319079	-1.043311	-0.902639
C118	C	-0.646961	-0.887354	-1.078591
H119	H	-0.686974	-0.861552	-1.047410
H120	H	-0.692735	-0.913237	-1.106167
H121	H	-0.606742	-0.857879	-1.106163
C122	C	-0.646993	-0.887317	-0.930154
H123	H	-0.686990	-0.861534	-0.961320
H124	H	-0.606785	-0.857835	-0.902586
H125	H	-0.692798	-0.913180	-0.902570
C126	C	-0.647442	-0.374880	-0.416923
H127	H	-0.687506	-0.343713	-0.442666
H128	H	-0.693165	-0.402440	-0.390983
H129	H	-0.607299	-0.402471	-0.446458
H130	H	-0.627934	-0.899654	-0.584489
H131	H	-0.628215	-0.592302	-0.404564
