data_functionalizedCrystal
_audit_creation_method	'MofGen! by Chris Wilmer'
_symmetry_space_group_name_H-M	'P1'
_symmetry_Int_Tables_number	1
_symmetry_cell_setting	triclinic
loop_
_symmetry_equiv_pos_as_xyz
  x,y,z
_cell_length_a	10.654549
_cell_length_b	10.654545
_cell_length_c	16.053811
_cell_angle_alpha	92.593095
_cell_angle_beta	87.392430
_cell_angle_gamma	84.486172
loop_
_atom_site_label
_atom_site_type_symbol
_atom_site_fract_x
_atom_site_fract_y
_atom_site_fract_z
O1	O	1.673094	0.171185	-0.069445
O2	O	1.307615	0.187985	-0.069442
O3	O	1.498757	-0.003154	-0.069443
O4	O	1.481952	0.362324	-0.069444
O5	O	1.488234	0.007324	0.069416
O6	O	1.297093	0.198463	0.069417
O7	O	1.662571	0.181663	0.069414
Zn8	Zn	1.478161	0.191727	0.091462
Zn9	Zn	1.492025	0.177921	-0.091490
O10	O	1.471430	0.372802	0.069415
C11	C	1.255556	0.191989	-0.000012
C12	C	1.116113	0.188295	-0.000011
C13	C	0.826131	0.409916	-0.000035
C14	C	0.877669	0.525935	-0.000032
C15	C	1.008686	0.529411	-0.000021
C16	C	1.088170	0.416856	-0.000016
C17	C	1.036633	0.300837	-0.000019
C18	C	0.905611	0.297373	-0.000027
C19	C	1.064576	0.072276	-0.000014
C20	C	0.933558	0.068797	-0.000019
C21	C	1.144060	-0.040279	-0.000009
C22	C	1.092523	-0.156300	-0.000006
C23	C	0.961497	-0.159772	-0.000016
C24	C	0.882021	-0.047221	-0.000022
C25	C	1.492261	-0.044713	-0.000015
C26	C	1.488569	-0.184157	-0.000020
C27	C	1.500056	-0.195589	-0.151408
C28	C	1.504070	-0.266815	-0.227102
C29	C	1.500601	-0.397834	-0.227103
C30	C	1.493114	-0.457629	-0.151402
C31	C	1.489100	-0.386403	-0.075708
C32	C	1.492574	-0.255382	-0.075715
C33	C	1.477604	-0.374970	0.075678
C34	C	1.481082	-0.243952	0.075681
C35	C	1.470117	-0.434765	0.151379
C36	C	1.466112	-0.363540	0.227075
C37	C	1.469583	-0.232513	0.227073
C38	C	1.477068	-0.172726	0.151375
C39	C	1.714630	0.177659	-0.000018
C40	C	1.854074	0.181352	-0.000024
C41	C	1.477925	0.414361	-0.000015
C42	C	1.481618	0.553804	-0.000015
N43	N	1.468708	0.201148	0.216323
C44	C	1.550069	0.119847	0.260016
C45	C	1.543468	0.126450	0.347423
C46	C	1.455512	0.214359	0.391135
C47	C	1.374143	0.295663	0.347435
C48	C	1.380739	0.289053	0.260030
C49	C	1.426704	0.243192	0.652545
C50	C	1.420117	0.249798	0.739956
C51	C	1.589441	0.080582	0.739938
C52	C	1.596034	0.073986	0.652531
C53	C	1.514660	0.155285	0.608839
N54	N	1.448766	0.221112	0.480479
N55	N	1.521402	0.148525	0.519497
N56	N	1.501478	0.168497	0.783649
H57	H	0.919545	-0.254249	-0.000023
H58	H	1.194851	0.419696	-0.000017
H59	H	1.467286	-0.541447	0.151373
C60	C	1.217472	0.307285	0.161766
C61	C	1.291305	0.378423	0.212000
H62	H	1.162251	0.362461	0.132120
H63	H	1.270798	0.253997	0.123229
H64	H	1.169277	0.257169	0.195886
H65	H	1.339507	0.428533	0.177879
H66	H	1.237973	0.431734	0.250541
C67	C	1.196054	0.328755	0.445764
C68	C	1.277461	0.392292	0.395485
H69	H	1.136374	0.388416	0.475431
H70	H	1.152999	0.273491	0.411679
H71	H	1.243584	0.281284	0.484291
H72	H	1.229932	0.439756	0.356954
H73	H	1.320519	0.447579	0.429574
H74	H	1.490275	-0.564310	-0.151409
C75	C	1.469793	-0.026595	0.294299
C76	C	1.465167	-0.154224	0.310279
H77	H	1.467058	0.021732	0.345669
H78	H	1.545830	-0.016416	0.263211
H79	H	1.399613	0.001458	0.263190
H80	H	1.535353	-0.182279	0.341383
H81	H	1.389122	-0.164410	0.341380
H82	H	1.667655	0.002403	0.616942
C83	C	1.757458	-0.087353	0.731139
C84	C	1.678869	-0.008795	0.787965
H85	H	1.812668	-0.142531	0.760790
H86	H	1.707357	-0.135581	0.697059
H87	H	1.805663	-0.037220	0.697037
H88	H	1.630656	-0.058927	0.822062
H89	H	1.728975	0.039437	0.822059
C90	C	1.377390	0.025013	0.110152
C91	C	1.480877	-0.028708	0.151373
H92	H	1.379736	0.113925	0.110154
H93	H	1.380865	-0.008849	0.054246
H94	H	1.301382	0.006410	0.138111
H95	H	1.556885	-0.010112	0.123410
H96	H	1.477412	0.005166	0.207289
H97	H	0.775338	-0.050037	-0.000023
C98	C	1.258686	0.411125	0.661354
C99	C	1.337269	0.332565	0.604526
H100	H	1.203477	0.466308	0.631705
H101	H	1.210490	0.361003	0.695456
H102	H	1.308800	0.459360	0.695434
H103	H	1.287154	0.284324	0.570450
H104	H	1.385468	0.382694	0.570410
H105	H	1.050646	0.623884	-0.000017
H106	H	1.157249	-0.247933	-0.000007
C107	C	1.394142	0.008389	-0.110200
C108	C	1.503882	-0.051572	-0.151405
H109	H	1.396511	0.097298	-0.110195
H110	H	1.322385	-0.014413	-0.138166
H111	H	1.389117	-0.017041	-0.054288
H112	H	1.508902	-0.026150	-0.207320
H113	H	1.575658	-0.028760	-0.123440
C114	C	1.728125	0.086665	0.161652
C115	C	1.646697	0.023181	0.211950
H116	H	1.787765	0.026972	0.131979
H117	H	1.680612	0.134159	0.123139
H118	H	1.771238	0.141904	0.195732
H119	H	1.603577	-0.032051	0.177870
H120	H	1.694216	-0.024334	0.250468
H121	H	1.348489	0.321389	0.775542
C122	C	1.711532	-0.041439	0.338626
C123	C	1.632923	0.037101	0.395451
H124	H	1.766767	-0.096592	0.368278
H125	H	1.661446	-0.089694	0.304553
H126	H	1.759710	0.008708	0.304517
H127	H	1.584737	-0.013046	0.429555
H128	H	1.683014	0.085361	0.429538
C129	C	1.514562	-0.071053	-0.294331
C130	C	1.512341	-0.201091	-0.310310
H131	H	1.519685	-0.030487	-0.345701
H132	H	1.439655	-0.038288	-0.263257
H133	H	1.585869	-0.056196	-0.263208
H134	H	1.441029	-0.215949	-0.341428
H135	H	1.587256	-0.233867	-0.341397
H136	H	1.503858	-0.455825	-0.288739
C137	C	0.664413	0.622110	-0.000037
C138	C	0.790297	0.649652	-0.000032
H139	H	0.610480	0.698490	-0.000033
H140	H	0.652365	0.570942	-0.048459
H141	H	0.645019	0.578236	0.048388
H142	H	0.809694	0.693518	-0.048460
H143	H	0.802352	0.700841	0.048395
C144	C	1.455676	-0.559306	0.294292
C145	C	1.457883	-0.429267	0.310278
H146	H	1.450604	-0.599884	0.345660
H147	H	1.384361	-0.574170	0.263193
H148	H	1.530579	-0.592055	0.263192
H149	H	1.382975	-0.396516	0.341373
H150	H	1.529205	-0.414394	0.341390
H151	H	1.250741	-0.037441	-0.000004
H152	H	0.719448	0.407098	-0.000029
