data_functionalizedCrystal
_audit_creation_method	'MofGen! by Chris Wilmer'
_symmetry_space_group_name_H-M	'P1'
_symmetry_Int_Tables_number	1
_symmetry_cell_setting	triclinic
loop_
_symmetry_equiv_pos_as_xyz
  x,y,z
_cell_length_a	18.101395
_cell_length_b	13.897449
_cell_length_c	13.897441
_cell_angle_alpha	89.978743
_cell_angle_beta	89.970274
_cell_angle_gamma	90.031931
loop_
_atom_site_label
_atom_site_type_symbol
_atom_site_fract_x
_atom_site_fract_y
_atom_site_fract_z
Zn1	Zn	-0.294797	1.474592	-0.545449
Zn2	Zn	0.205203	1.974592	-0.045449
Zn3	Zn	-0.418650	1.474455	-0.384150
Zn4	Zn	0.081350	1.974455	0.115850
Zn5	Zn	-0.294829	1.313288	-0.384160
Zn6	Zn	0.205171	1.813288	0.115840
Zn7	Zn	-0.418603	1.313226	-0.545395
Zn8	Zn	0.081397	1.813226	-0.045395
O9	O	-0.356720	1.393890	-0.464789
O10	O	0.143280	1.893890	0.035211
O11	O	-0.311233	1.609556	-0.524071
O12	O	0.188767	2.109556	-0.024071
O13	O	-0.402258	1.453044	-0.249170
O14	O	0.097742	1.953044	0.250830
O15	O	-0.191192	1.334769	-0.405582
O16	O	0.308808	1.834769	0.094418
O17	O	-0.402227	1.609455	-0.405565
O18	O	0.097773	2.109455	0.094435
O19	O	-0.191168	1.453279	-0.524080
O20	O	0.308832	1.953279	-0.024080
O21	O	-0.311287	1.334635	-0.249177
O22	O	0.188713	1.834635	0.250823
O23	O	-0.311241	1.178298	-0.405530
O24	O	0.188759	1.678298	0.094470
O25	O	-0.402146	1.334663	-0.680384
O26	O	0.097854	1.834663	-0.180384
O27	O	-0.402177	1.178252	-0.523989
O28	O	0.097823	1.678252	-0.023989
O29	O	-0.311187	1.453218	-0.680424
O30	O	0.188813	1.953218	-0.180424
O31	O	-0.522277	1.452984	-0.405513
O32	O	-0.022277	1.952984	0.094487
O33	O	-0.522242	1.334529	-0.523979
O34	O	-0.022242	1.834529	-0.023979
C35	C	-0.356708	1.143276	-0.464755
C36	C	0.143292	1.643276	0.035245
C37	C	-0.356721	1.036062	-0.464763
C38	C	0.143279	1.536062	0.035237
C39	C	-0.549130	1.393761	-0.464760
C40	C	-0.049130	1.893761	0.035240
C41	C	-0.631444	1.393794	-0.464780
C42	C	-0.131444	1.893794	0.035220
C43	C	-0.356724	0.948992	-0.464779
C44	C	0.143276	1.448992	0.035221
C45	C	-0.356729	0.839760	-0.464809
C46	C	0.143271	1.339760	0.035191
C47	C	-0.930535	1.394006	-0.464832
C48	C	-0.430535	1.894006	0.035168
C49	C	-0.899219	1.319650	-0.539553
C50	C	-0.399219	1.819650	-0.039553
C51	C	-0.813601	1.319297	-0.539319
C52	C	-0.313601	1.819297	-0.039319
C53	C	-0.782153	1.393901	-0.464807
C54	C	-0.282153	1.893901	0.035193
C55	C	-0.813308	1.366379	-0.363147
C56	C	-0.313308	1.866379	0.136853
C57	C	-0.898953	1.365899	-0.363594
C58	C	-0.398953	1.865899	0.136406
C59	C	-0.898877	1.496046	-0.490877
C60	C	-0.398877	1.996046	0.009123
C61	C	-0.813226	1.495446	-0.493106
C62	C	-0.313226	1.995446	0.006894
C63	C	-0.698293	1.393843	-0.464787
C64	C	-0.198293	1.893843	0.035213
C65	C	-1.014395	1.394061	-0.464846
C66	C	-0.514395	1.894061	0.035154
C67	C	-0.163558	1.394046	-0.464838
C68	C	0.336442	1.894046	0.035162
C69	C	-0.081244	1.394112	-0.464859
C70	C	0.418756	1.894112	0.035141
C71	C	-0.356658	1.393949	-0.716382
C72	C	0.143342	1.893949	-0.216382
C73	C	-0.356631	1.393974	-0.823596
C74	C	0.143369	1.893974	-0.323596
C75	C	-0.356732	1.645483	-0.464823
C76	C	0.143268	2.145483	0.035177
C77	C	-0.356737	1.752697	-0.464837
C78	C	0.143263	2.252697	0.035163
C79	C	-0.356610	1.393994	-0.910665
C80	C	0.143390	1.893994	-0.410665
C81	C	-0.356577	1.394022	-1.019898
C82	C	0.143423	1.894022	-0.519898
C83	C	-0.356728	1.393887	-0.214174
C84	C	0.143272	1.893887	0.285826
C85	C	-0.356546	1.394048	-0.106961
C86	C	0.143454	1.894048	0.393039
H87	H	-0.792534	1.336516	-0.614699
H88	H	-0.292534	1.836516	-0.114699
H89	H	-0.791924	1.292578	-0.340690
H90	H	-0.291924	1.792578	0.159310
N91	N	-0.786243	1.522939	-0.592205
N92	N	-0.286243	2.022939	-0.092205
H93	H	-0.730473	1.525211	-0.592460
H94	H	-0.230473	2.025211	-0.092460
H95	H	-0.806454	1.588296	-0.609957
H96	H	-0.306454	2.088296	-0.109957
H97	H	-0.919671	1.417707	-0.306023
H98	H	-0.419671	1.917707	0.193977
N99	N	-0.926434	1.342218	-0.639729
N100	N	-0.426434	1.842218	-0.139729
H101	H	-0.959330	1.400859	-0.637652
H102	H	-0.459330	1.900859	-0.137652
H103	H	-0.955327	1.285577	-0.665363
H104	H	-0.455327	1.785577	-0.165363
H105	H	-0.920807	1.244475	-0.522518
H106	H	-0.420807	1.744475	-0.022518
H107	H	-0.918997	1.291308	-0.341532
H108	H	-0.418997	1.791308	0.158468
H109	H	-0.793179	1.243662	-0.522067
H110	H	-0.293179	1.743662	-0.022067
H111	H	-0.792939	1.418832	-0.305956
H112	H	-0.292939	1.918832	0.194044
N113	N	-0.784862	1.572709	-0.426272
N114	N	-0.284862	2.072709	0.073728
H115	H	-0.800699	1.557749	-0.358192
H116	H	-0.300699	2.057749	0.141808
H117	H	-0.805741	1.637049	-0.446285
H118	H	-0.305741	2.137049	0.053715
N119	N	-0.925699	1.569427	-0.418791
N120	N	-0.425699	2.069427	0.081209
H121	H	-0.981456	1.571879	-0.419920
H122	H	-0.481456	2.071879	0.080080
H123	H	-0.905134	1.634798	-0.435927
H124	H	-0.405134	2.134798	0.064073
H125	H	-0.920422	1.521138	-0.563744
H126	H	-0.420422	2.021138	-0.063744
