data_functionalizedCrystal
_audit_creation_method	'MofGen! by Chris Wilmer'
_symmetry_space_group_name_H-M	'P1'
_symmetry_Int_Tables_number	1
_symmetry_cell_setting	triclinic
loop_
_symmetry_equiv_pos_as_xyz
  x,y,z
_cell_length_a	18.266241
_cell_length_b	17.699083
_cell_length_c	19.188940
_cell_angle_alpha	83.215864
_cell_angle_beta	90.008754
_cell_angle_gamma	89.989952
loop_
_atom_site_label
_atom_site_type_symbol
_atom_site_fract_x
_atom_site_fract_y
_atom_site_fract_z
O1	O	0.060853	1.003948	0.088298
O2	O	0.560853	1.503948	0.588298
O3	O	0.060861	0.783555	0.099785
O4	O	0.560861	1.283555	0.599785
O5	O	0.060851	0.900108	-0.007607
O6	O	0.560851	1.400108	0.492393
O7	O	0.060863	0.887395	0.195689
O8	O	0.560863	1.387395	0.695689
O9	O	-0.060911	0.900127	-0.007621
O10	O	0.439089	1.400127	0.492379
O11	O	-0.060901	0.783575	0.099771
O12	O	0.439099	1.283575	0.599771
O13	O	-0.060909	1.003968	0.088284
O14	O	0.439091	1.503968	0.588284
Zn15	Zn	-0.080237	0.893774	0.094025
Zn16	Zn	0.419763	1.393774	0.594025
Zn17	Zn	0.080189	0.893748	0.094043
Zn18	Zn	0.580189	1.393748	0.594043
O19	O	-0.060899	0.887415	0.195675
O20	O	0.439101	1.387415	0.695675
C21	C	-0.000019	0.755368	0.099366
C22	C	0.499981	1.255368	0.599366
C23	C	-0.000016	0.671352	0.098131
C24	C	0.499984	1.171352	0.598131
N25	N	-0.189724	0.893797	0.094012
N26	N	0.310276	1.393797	0.594012
N27	N	0.189676	0.893731	0.094051
N28	N	0.689676	1.393731	0.594051
C29	C	0.227990	0.939401	0.136425
C30	C	0.727990	1.439401	0.636425
C31	C	0.304635	0.939407	0.136425
C32	C	0.804635	1.439407	0.636425
C33	C	0.342963	0.893751	0.094038
C34	C	0.842963	1.393751	0.594038
C35	C	0.304640	0.848072	0.051661
C36	C	0.804640	1.348072	0.551661
C37	C	0.227997	0.848062	0.051667
C38	C	0.727997	1.348062	0.551667
N39	N	0.463287	0.892065	0.032849
N40	N	0.963287	1.392065	0.532849
N41	N	0.536095	0.892078	0.032845
N42	N	1.036095	1.392078	0.532845
C43	C	0.573885	0.893776	0.094019
C44	C	1.073885	1.393776	0.594019
N45	N	0.536118	0.895475	0.155197
N46	N	1.036118	1.395475	0.655197
N47	N	0.463303	0.895465	0.155200
N48	N	0.963303	1.395465	0.655200
C49	C	0.426070	0.893756	0.094027
C50	C	0.926070	1.393756	0.594027
C51	C	0.695306	0.939455	0.136397
C52	C	1.195306	1.439455	0.636397
C53	C	0.771953	0.939455	0.136399
C54	C	1.271953	1.439455	0.636399
C55	C	0.771956	0.848124	0.051628
C56	C	1.271956	1.348124	0.551628
C57	C	0.695312	0.848119	0.051633
C58	C	1.195312	1.348119	0.551633
C59	C	0.656991	0.893789	0.094016
C60	C	1.156991	1.393789	0.594016
C61	C	-0.000027	1.032154	0.088702
C62	C	0.499973	1.532154	0.588702
C63	C	-0.000025	1.116171	0.089937
C64	C	0.499975	1.616171	0.589937
C65	C	-0.000030	0.899705	-0.033625
C66	C	0.499970	1.399705	0.466375
C67	C	-0.000029	0.898465	-0.111131
C68	C	0.499971	1.398465	0.388869
C69	C	-0.000026	1.164872	0.026900
C70	C	0.499974	1.664872	0.526900
C71	C	-0.000029	1.243814	0.028065
C72	C	0.499971	1.743814	0.528065
C73	C	-0.000025	1.274053	0.092267
C74	C	0.499975	1.774053	0.592267
C75	C	-0.000026	1.225345	0.155308
C76	C	0.499974	1.725345	0.655308
C77	C	-0.000029	1.146405	0.154143
C78	C	0.499971	1.646405	0.654143
C79	C	-0.000015	1.543702	0.160008
C80	C	0.499985	2.043702	0.660008
C81	C	-0.000010	1.622649	0.161169
C82	C	0.499990	2.122649	0.661169
C83	C	-0.000015	1.641112	0.033930
C84	C	0.499985	2.141112	0.533930
C85	C	-0.000018	1.562171	0.032765
C86	C	0.499982	2.062171	0.532765
C87	C	-0.000023	1.513470	0.095806
C88	C	0.499977	2.013470	0.595806
C89	C	-0.000022	1.427873	0.094543
C90	C	0.499978	1.927873	0.594543
C91	C	-0.000021	1.359649	0.093531
C92	C	0.499979	1.859649	0.593531
C93	C	-0.066384	0.889658	-0.664407
C94	C	0.433616	1.389658	-0.164407
C95	C	-0.066388	0.890814	-0.591582
C96	C	0.433612	1.390814	-0.091582
C97	C	-0.000017	0.891385	-0.555154
C98	C	0.499983	1.391385	-0.055154
C99	C	0.066364	0.890780	-0.591556
C100	C	0.566364	1.390780	-0.091556
C101	C	0.066366	0.889616	-0.664379
C102	C	0.566366	1.389616	-0.164379
N103	N	0.049383	0.936273	-0.446074
N104	N	0.549383	1.436273	0.053926
N105	N	0.049377	0.937381	-0.376895
N106	N	0.549377	1.437381	0.123105
C107	C	-0.000019	0.894891	-0.335741
C108	C	0.499981	1.394891	0.164259
N109	N	-0.049420	0.851261	-0.366380
N110	N	0.450580	1.351261	0.133620
N111	N	-0.049416	0.850157	-0.435566
N112	N	0.450584	1.350157	0.064434
C113	C	-0.000012	0.892647	-0.476189
C114	C	0.499988	1.392647	0.023811
C115	C	-0.066400	0.896744	-0.220381
C116	C	0.433600	1.396744	0.279619
C117	C	-0.066402	0.897895	-0.147554
C118	C	0.433598	1.397895	0.352446
C119	C	0.066352	0.897869	-0.147530
C120	C	0.566352	1.397869	0.352470
C121	C	0.066352	0.896710	-0.220355
C122	C	0.566352	1.396710	0.279645
C123	C	-0.000027	0.896151	-0.256777
C124	C	0.499973	1.396151	0.243223
C125	C	-0.000017	0.887818	0.221694
C126	C	0.499983	1.387818	0.721694
C127	C	-0.000012	0.889057	0.299199
C128	C	0.499988	1.389057	0.799199
H129	H	0.196794	0.976588	0.170938
H130	H	0.696794	1.476588	0.670938
O131	O	-0.130887	0.888965	-0.699727
O132	O	0.369113	1.388965	-0.199727
C133	C	-0.171262	0.823731	-0.673892
C134	C	0.328738	1.323731	-0.173892
H135	H	-0.132415	0.778245	-0.648268
H136	H	0.367585	1.278245	-0.148268
H137	H	-0.212639	0.839232	-0.633432
H138	H	0.287361	1.339232	-0.133432
C139	C	-0.259661	0.848844	-0.766411
C140	C	0.240339	1.348844	-0.266411
C141	C	-0.211947	0.792975	-0.734945
C142	C	0.288053	1.292975	-0.234945
H143	H	-0.284761	0.829873	-0.804071
H144	H	0.215239	1.329873	-0.304071
H145	H	-0.232461	0.892795	-0.783816
H146	H	0.267539	1.392795	-0.283816
H147	H	-0.294135	0.861756	-0.732688
H148	H	0.205865	1.361756	-0.232688
H149	H	-0.177469	0.780071	-0.768666
H150	H	0.322531	1.280071	-0.268666
H151	H	-0.239142	0.749020	-0.717548
H152	H	0.260858	1.249020	-0.217548
H153	H	-0.000018	1.537556	-0.019514
H154	H	0.499982	2.037556	0.480486
H155	H	0.803147	0.976643	0.170910
H156	H	1.303147	1.476643	0.670910
H157	H	0.335836	0.976596	0.170935
H158	H	0.835836	1.476596	0.670935
H159	H	0.120399	0.896226	-0.249988
H160	H	0.620399	1.396226	0.250012
H161	H	0.335852	0.810897	0.017151
H162	H	0.835852	1.310897	0.517151
O163	O	0.658043	0.983896	0.177467
O164	O	1.158043	1.483896	0.677467
C165	C	0.613674	1.035740	0.134920
C166	C	1.113674	1.535740	0.634920
H167	H	0.636759	1.044169	0.079353
H168	H	1.136759	1.544169	0.579353
H169	H	0.555593	1.012358	0.133727
H170	H	1.055593	1.512358	0.633727
C171	C	0.584127	1.102215	0.233363
C172	C	1.084127	1.602215	0.733363
C173	C	0.612484	1.112573	0.165117
C174	C	1.112484	1.612573	0.665117
H175	H	0.583390	1.149609	0.251991
H176	H	1.083390	1.649609	0.751991
H177	H	0.614017	1.067285	0.262029
H178	H	1.114017	1.567285	0.762029
H179	H	0.535729	1.082728	0.232360
H180	H	1.035729	1.582728	0.732360
H181	H	0.660884	1.132050	0.166122
H182	H	1.160884	1.632050	0.666122
H183	H	0.582602	1.147508	0.136452
H184	H	1.082602	1.647508	0.636452
H185	H	0.196802	0.810870	0.017160
H186	H	0.696802	1.310870	0.517160
H187	H	-0.120450	0.896282	-0.250037
H188	H	0.379550	1.396282	0.249963
O189	O	0.000007	1.254842	0.217613
O190	O	0.500007	1.754842	0.717613
C191	C	-0.000008	1.334961	0.205127
C192	C	0.499992	1.834961	0.705127
H193	H	0.023044	1.353673	0.150613
H194	H	0.523044	1.853673	0.650613
H195	H	-0.058422	1.356939	0.208464
H196	H	0.441578	1.856939	0.708464
C197	C	0.019432	1.344528	0.327572
C198	C	0.519432	1.844528	0.827572
C199	C	0.047751	1.367511	0.260620
C200	C	0.547751	1.867511	0.760620
H201	H	0.048888	1.364608	0.361805
H202	H	0.548888	1.864608	0.861805
H203	H	0.019439	1.290551	0.335986
H204	H	0.519439	1.790551	0.835986
H205	H	-0.029247	1.362845	0.330343
H206	H	0.470753	1.862845	0.830343
H207	H	0.096424	1.349186	0.257847
H208	H	0.596424	1.849186	0.757847
H209	H	0.047753	1.421486	0.252207
H210	H	0.547753	1.921486	0.752207
O211	O	0.809292	0.803831	0.010482
O212	O	1.309292	1.303831	0.510482
C213	C	0.885157	0.813609	0.019584
C214	C	1.385157	1.313609	0.519584
H215	H	0.895618	0.870819	0.039512
H216	H	1.395618	1.370819	0.539512
H217	H	0.906918	0.765947	0.059353
H218	H	1.406918	1.265947	0.559353
C219	C	0.911650	0.741125	-0.075593
C220	C	1.411650	1.241125	0.424407
C221	C	0.924500	0.811394	-0.051123
C222	C	1.424500	1.311394	0.448877
H223	H	0.935920	0.739755	-0.119207
H224	H	1.435920	1.239755	0.380793
H225	H	0.860539	0.734535	-0.081724
H226	H	1.360539	1.234535	0.418276
H227	H	0.929785	0.701414	-0.042446
H228	H	1.429785	1.201414	0.457554
H229	H	0.906357	0.851103	-0.084266
H230	H	1.406357	1.351103	0.415734
H231	H	0.975609	0.817991	-0.045000
H232	H	1.475609	1.317991	0.455000
H233	H	0.664116	0.810933	0.017124
H234	H	1.164116	1.310933	0.517124
O235	O	-0.130843	0.891265	-0.556166
O236	O	0.369157	1.391265	-0.056166
C237	C	-0.134804	0.826415	-0.506012
C238	C	0.365196	1.326415	-0.006012
H239	H	-0.097146	0.780248	-0.522353
H240	H	0.402854	1.280248	-0.022353
H241	H	-0.116960	0.842110	-0.452633
H242	H	0.383040	1.342110	0.047367
C243	C	-0.260357	0.853444	-0.481187
C244	C	0.239643	1.353444	0.018813
C245	C	-0.214110	0.796738	-0.501261
C246	C	0.285890	1.296738	-0.001261
H247	H	-0.309277	0.835139	-0.478253
H248	H	0.190723	1.335139	0.021747
H249	H	-0.257688	0.897136	-0.514975
H250	H	0.242312	1.397136	-0.014975
H251	H	-0.245478	0.866517	-0.436707
H252	H	0.254522	1.366517	0.063293
H253	H	-0.228983	0.783673	-0.545744
H254	H	0.271017	1.283673	-0.045744
H255	H	-0.216783	0.753043	-0.467480
H256	H	0.283217	1.253043	0.032520
H257	H	-0.000031	1.106752	0.205474
H258	H	0.499969	1.606752	0.705474
H259	H	0.120416	0.889127	-0.694010
H260	H	0.620416	1.389127	-0.194010
O261	O	-0.000061	1.135628	-0.035527
O262	O	0.499939	1.635628	0.464473
C263	C	-0.000045	1.195545	-0.090915
C264	C	0.499955	1.695545	0.409085
H265	H	-0.023095	1.249114	-0.071434
H266	H	0.476905	1.749114	0.428566
H267	H	0.058370	1.206768	-0.110345
H268	H	0.558370	1.706768	0.389655
C269	C	-0.019489	1.107679	-0.175409
C270	C	0.480511	1.607679	0.324591
C271	C	-0.047805	1.173472	-0.151485
C272	C	0.452195	1.673472	0.348515
H273	H	-0.048946	1.094063	-0.212774
H274	H	0.451054	1.594063	0.287226
H275	H	-0.019497	1.067311	-0.138095
H276	H	0.480503	1.567311	0.361905
H277	H	0.029190	1.117040	-0.191597
H278	H	0.529190	1.617040	0.308403
H279	H	-0.096478	1.164107	-0.135290
H280	H	0.403522	1.664107	0.364710
H281	H	-0.047806	1.213838	-0.188798
H282	H	0.452194	1.713838	0.311202
O283	O	-0.130945	0.898514	-0.112311
O284	O	0.369055	1.398514	0.387689
C285	C	-0.189527	0.897755	-0.160076
C286	C	0.310473	1.397755	0.339924
H287	H	-0.170063	0.920875	-0.214913
H288	H	0.329937	1.420875	0.285087
H289	H	-0.209945	0.836933	-0.160399
H290	H	0.290055	1.336933	0.339601
C291	C	-0.276135	0.919460	-0.070386
C292	C	0.223865	1.419460	0.429614
C293	C	-0.252230	0.947862	-0.137737
C294	C	0.247770	1.447862	0.362263
H295	H	-0.314815	0.950365	-0.056605
H296	H	0.185185	1.450365	0.443395
H297	H	-0.236668	0.919968	-0.038204
H298	H	0.263332	1.419968	0.461796
H299	H	-0.293145	0.868775	-0.070664
H300	H	0.206855	1.368775	0.429336
H301	H	-0.235212	0.998542	-0.137456
H302	H	0.264788	1.498542	0.362544
H303	H	-0.291696	0.947363	-0.169918
H304	H	0.208304	1.447363	0.330082
H305	H	-0.000033	1.283465	-0.023266
H306	H	0.499967	1.783465	0.476734
H307	H	-0.000014	1.680774	-0.017401
H308	H	0.499986	2.180774	0.482599
H309	H	-0.000010	1.647265	0.213453
H310	H	0.499990	2.147265	0.713453
O311	O	0.130793	0.891227	-0.556088
O312	O	0.630793	1.391227	-0.056088
C313	C	0.134765	0.826352	-0.505961
C314	C	0.634765	1.326352	-0.005961
H315	H	0.077134	0.804700	-0.492386
H316	H	0.577134	1.304700	0.007614
H317	H	0.167510	0.780002	-0.528411
H318	H	0.667510	1.280002	-0.028411
C319	C	0.243508	0.873938	-0.455889
C320	C	0.743508	1.373938	0.044111
C321	C	0.172723	0.847349	-0.439211
C322	C	0.672723	1.347349	0.060789
H323	H	0.266924	0.886888	-0.414715
H324	H	0.766924	1.386888	0.085285
H325	H	0.240834	0.917645	-0.489662
H326	H	0.740834	1.417645	0.010338
H327	H	0.270785	0.835309	-0.474599
H328	H	0.770785	1.335309	0.025401
H329	H	0.145444	0.885981	-0.420510
H330	H	0.645444	1.385981	0.079490
H331	H	0.175393	0.803649	-0.405433
H332	H	0.675393	1.303649	0.094567
H333	H	0.120394	0.898325	-0.117870
H334	H	0.620394	1.398325	0.382130
H335	H	-0.000016	1.504059	0.211341
H336	H	0.499984	2.004059	0.711341
