data_functionalizedCrystal
_audit_creation_method	'MofGen! by Chris Wilmer'
_symmetry_space_group_name_H-M	'P1'
_symmetry_Int_Tables_number	1
_symmetry_cell_setting	triclinic
loop_
_symmetry_equiv_pos_as_xyz
  x,y,z
_cell_length_a	16.704494
_cell_length_b	14.560438
_cell_length_c	14.560438
_cell_angle_alpha	60.000905
_cell_angle_beta	90.001405
_cell_angle_gamma	56.631965
loop_
_atom_site_label
_atom_site_type_symbol
_atom_site_fract_x
_atom_site_fract_y
_atom_site_fract_z
Zr1	Zr	0.815198	0.909257	-0.072491
O2	O	0.680077	1.116775	-0.227094
O3	O	0.856620	0.712776	-0.025099
O4	O	0.856616	0.904381	-0.216700
O5	O	0.680085	0.925168	0.115648
O6	O	0.995873	0.887978	-0.208497
O7	O	0.680082	0.925171	-0.035493
O8	O	0.995880	0.545233	0.134242
O9	O	0.680078	1.267913	-0.227092
O10	O	0.978212	0.777262	0.001238
O11	O	0.874289	0.789501	0.107911
O12	O	0.874284	1.015090	-0.117674
O13	O	0.770361	1.027329	-0.011001
Zr14	Zr	1.037303	0.883091	0.181644
Zr15	Zr	1.037297	0.883096	-0.059409
Zr16	Zr	0.815204	0.909252	0.168562
Zr17	Zr	0.815199	1.150304	-0.072486
Zr18	Zr	1.037302	0.642044	0.181639
O19	O	0.995881	1.079572	0.134252
O20	O	0.995873	1.079579	-0.208493
O21	O	0.680086	1.116769	0.115651
O22	O	1.172423	0.675573	0.336248
O23	O	1.172415	0.675579	-0.006498
O24	O	0.856628	0.712770	0.317647
O25	O	1.172416	0.867180	-0.006494
O26	O	0.995885	0.887967	0.325853
O27	O	0.856628	0.904370	0.317651
O28	O	1.172419	0.867177	0.144647
O29	O	0.856616	1.247119	-0.216693
O30	O	0.995885	0.545229	0.325847
O31	O	1.172423	0.524435	0.336245
O32	O	1.172419	0.524439	0.144640
O33	O	0.680082	1.267910	-0.035487
O34	O	0.856621	1.247115	-0.025089
O35	O	0.978217	0.777258	0.226828
O36	O	1.082140	0.765019	0.120154
O37	O	0.978212	1.002847	0.001242
O38	O	0.874289	1.015086	0.107916
C39	C	0.926250	0.594660	0.054571
C40	C	0.926250	0.492329	0.054569
C41	C	0.980494	0.437865	-0.001114
C42	C	0.980498	0.341705	-0.001103
C43	C	0.872005	0.354487	0.110274
C44	C	0.872007	0.450638	0.110270
C45	C	0.648439	0.928897	0.038213
C46	C	0.554152	0.940003	0.032659
C47	C	0.485487	0.712556	0.146395
C48	C	0.396899	0.722985	0.141180
C49	C	0.288388	0.971287	0.017021
C50	C	0.376976	0.960858	0.022236
C51	C	0.475524	0.831489	0.086924
C52	C	0.564113	0.821061	0.092132
C53	C	0.455601	1.069362	-0.032019
C54	C	0.367013	1.079790	-0.037234
C55	C	1.204062	0.863451	0.070940
C56	C	1.298348	0.852346	0.076494
C57	C	0.926243	0.896180	-0.246943
C58	C	0.926241	0.896182	-0.349276
C59	C	0.926251	1.197688	0.054582
C60	C	0.926251	1.300019	0.054584
C61	C	0.871993	1.020324	-0.459423
C62	C	0.872005	1.020316	-0.555571
C63	C	0.980515	0.772015	-0.431412
C64	C	0.980508	0.772023	-0.335266
C65	C	0.926258	0.896168	0.356097
C66	C	0.926260	0.896166	0.458430
C67	C	1.204061	0.561938	0.070935
C68	C	1.298348	0.448501	0.076486
C69	C	0.926257	0.594654	0.356091
C70	C	0.926259	0.492321	0.458422
C71	C	1.204068	0.561932	0.372455
C72	C	1.298357	0.448493	0.480339
C73	C	0.648433	1.230416	-0.263301
C74	C	0.554144	1.343855	-0.371186
C75	C	0.648440	1.230410	0.038219
C76	C	0.554153	1.343847	0.032667
C77	C	0.926244	1.197694	-0.246937
C78	C	0.926242	1.300027	-0.349269
C79	C	1.288376	0.401621	0.017010
C80	C	1.376960	0.295049	0.022204
C81	C	1.475514	0.235353	0.086880
C82	C	1.485484	0.282243	0.146358
C83	C	1.396901	0.388819	0.141157
C84	C	1.396892	0.388831	0.475321
C85	C	1.485495	0.282256	0.576682
C86	C	1.475561	0.235338	0.683059
C87	C	1.377015	0.295010	0.688074
C88	C	1.288415	0.401590	0.586715
C89	C	0.455609	1.403529	-0.366168
C90	C	0.367006	1.510134	-0.467528
C91	C	0.376940	1.557057	-0.573906
C92	C	0.475486	1.497379	-0.578921
C93	C	0.564086	1.390782	-0.477562
C94	C	0.564125	1.390738	0.092133
C95	C	0.475541	1.497336	0.086913
C96	C	0.376987	1.557035	0.022233
C97	C	0.367017	1.510141	-0.037240
C98	C	0.455600	1.403551	-0.032026
C99	C	0.980509	0.437852	0.568570
C100	C	0.980499	0.341710	0.664717
C101	C	0.871989	0.354511	0.540553
C102	C	0.871993	0.450658	0.444408
H103	H	0.827842	0.320532	0.155622
Br104	Br	1.054119	0.267793	-0.076677
H105	H	1.565727	0.233681	0.572578
H106	H	0.827809	0.320575	0.529157
Br107	Br	0.154636	1.146844	-0.070738
H108	H	0.447500	1.365331	-0.279560
Br109	Br	1.619244	0.201208	0.234132
H110	H	1.405035	0.426975	0.189597
H111	H	1.405001	0.427015	0.388713
H112	H	0.827834	0.494983	0.155618
Br113	Br	0.233257	1.591173	-0.125012
H114	H	1.547714	0.148552	0.765584
H115	H	0.827805	1.121422	-0.470838
H116	H	0.644353	0.715722	0.144811
H117	H	1.024692	0.471776	0.579987
H118	H	0.447494	1.166206	-0.080449
Br119	Br	0.256685	1.701728	-0.711456
H120	H	1.024673	0.297367	0.754402
H121	H	0.565728	0.607219	0.199073
Br122	Br	0.410424	0.561570	0.221901
Br123	Br	0.798353	0.524600	0.294908
H124	H	0.286765	1.185119	-0.089897
H125	H	0.483562	1.535597	-0.665545
H126	H	1.024664	0.471805	-0.046466
Br127	Br	1.154635	0.482617	-0.070778
H128	H	1.368942	0.256793	0.774701
H129	H	0.827832	1.121405	-0.645255
H130	H	1.208186	0.450154	0.590817
Br131	Br	1.054153	0.603522	-0.412407
Br132	Br	0.489096	1.560952	0.167637
H133	H	0.286774	1.558707	-0.463423
H134	H	1.024689	0.670925	-0.245572
Br135	Br	1.363405	0.231433	-0.058520
Br136	Br	1.595724	0.090713	0.093926
Br137	Br	0.256777	1.701693	0.015169
Br138	Br	0.697810	1.309802	-0.484393
H139	H	0.644365	1.342138	0.144810
Br140	Br	0.442048	1.339922	-0.112733
