data_functionalizedCrystal
_audit_creation_method	'MofGen! by Chris Wilmer'
_symmetry_space_group_name_H-M	'P1'
_symmetry_Int_Tables_number	1
_symmetry_cell_setting	triclinic
loop_
_symmetry_equiv_pos_as_xyz
  x,y,z
_cell_length_a	12.759400
_cell_length_b	12.759401
_cell_length_c	12.759393
_cell_angle_alpha	89.982025
_cell_angle_beta	89.972057
_cell_angle_gamma	90.014205
loop_
_atom_site_label
_atom_site_type_symbol
_atom_site_fract_x
_atom_site_fract_y
_atom_site_fract_z
Zn1	Zn	-0.418217	1.606244	-0.594026
Zn2	Zn	-0.593933	1.606144	-0.418354
Zn3	Zn	-0.418268	1.430550	-0.418363
Zn4	Zn	-0.593854	1.430536	-0.593993
O5	O	-0.506068	1.518368	-0.506184
O6	O	-0.441537	1.753251	-0.570733
O7	O	-0.570685	1.582815	-0.271334
O8	O	-0.271240	1.453904	-0.441682
O9	O	-0.570635	1.753178	-0.441668
O10	O	-0.271202	1.582985	-0.570741
O11	O	-0.441625	1.453807	-0.271340
O12	O	-0.441548	1.283527	-0.441650
O13	O	-0.570501	1.453879	-0.741018
O14	O	-0.570551	1.283516	-0.570685
O15	O	-0.441461	1.582971	-0.741043
O16	O	-0.740943	1.582801	-0.441636
O17	O	-0.740885	1.453782	-0.570677
C18	C	-0.506047	1.245401	-0.506165
C19	C	-0.506064	1.128624	-0.506182
C20	C	-0.438824	0.964012	-0.439125
C21	C	-0.438804	1.073736	-0.439113
C22	C	-0.573341	1.073783	-0.573276
C23	C	-0.573355	0.964061	-0.573293
C24	C	-0.361153	0.963986	-0.361664
C25	C	-0.361133	1.073710	-0.361652
C26	C	-0.779035	1.518308	-0.506175
C27	C	-0.895812	1.518378	-0.506206
C28	C	-0.950682	1.451184	-0.573344
C29	C	-1.060406	1.451239	-0.573354
C30	C	-1.060380	1.585693	-0.439084
C31	C	-0.950658	1.585631	-0.439070
C32	C	-0.950698	1.373561	-0.650867
C33	C	-1.060422	1.373617	-0.650877
C34	C	-0.232035	1.518457	-0.506216
C35	C	-0.115258	1.518496	-0.506230
C36	C	-0.505967	1.518435	-0.780217
C37	C	-0.505923	1.518463	-0.896994
C38	C	-0.506089	1.792401	-0.506203
C39	C	-0.506098	1.909178	-0.506211
C40	C	-0.573053	1.585688	-1.061574
C41	C	-0.573097	1.585649	-0.951850
C42	C	-0.438708	1.451305	-0.951868
C43	C	-0.438669	1.451340	-1.061591
C44	C	-0.650638	1.663253	-1.061562
C45	C	-0.650683	1.663214	-0.951838
C46	C	-0.506093	1.518362	-0.233217
C47	C	-0.505840	1.518537	-0.116440
H48	H	-0.628098	1.118481	-0.627892
H49	H	-0.916594	1.402647	-0.728181
H50	H	-1.090133	1.395324	-0.732286
C51	C	-0.947204	1.190546	-0.694458
C52	C	-0.910599	1.263713	-0.621346
H53	H	-0.922452	1.122733	-0.676227
H54	H	-0.922333	1.208673	-0.762258
H55	H	-1.021654	1.190600	-0.694456
H56	H	-0.836148	1.263665	-0.621353
H57	H	-0.935465	1.245581	-0.553528
C58	C	-0.387491	1.273457	-1.095353
C59	C	-0.364794	1.377512	-1.121891
H60	H	-0.341876	1.227877	-1.132574
H61	H	-0.458066	1.258082	-1.113334
H62	H	-0.377904	1.263843	-1.022153
H63	H	-0.374388	1.387128	-1.195091
H64	H	-0.294202	1.392893	-1.103917
C65	C	-0.184743	1.009181	-0.409230
C66	C	-0.251353	0.923806	-0.391279
H67	H	-0.116962	0.984373	-0.427519
H68	H	-0.180239	1.050505	-0.347491
H69	H	-0.211848	1.050557	-0.464869
H70	H	-0.224252	0.882434	-0.335634
H71	H	-0.255854	0.882465	-0.453025
C72	C	-0.823509	1.597924	-0.987598
C73	C	-0.755023	1.623775	-0.905874
H74	H	-0.887916	1.573564	-0.959218
H75	H	-0.793053	1.544484	-1.029514
H76	H	-0.836018	1.658202	-1.029475
H77	H	-0.742508	1.563494	-0.864001
H78	H	-0.785485	1.677220	-0.863940
C79	C	-0.703399	1.812840	-0.850658
C80	C	-0.621275	1.773049	-0.911628
H81	H	-0.685243	1.880646	-0.825840
H82	H	-0.715526	1.767613	-0.792766
H83	H	-0.765119	1.817263	-0.892027
H84	H	-0.559556	1.768619	-0.870256
H85	H	-0.609135	1.818287	-0.969529
C86	C	-0.426119	0.999674	-0.188683
C87	C	-0.400374	0.917979	-0.257264
H88	H	-0.450327	0.971268	-0.124230
H89	H	-0.479646	1.041574	-0.218995
H90	H	-0.365835	1.041575	-0.176300
H91	H	-0.460659	0.876082	-0.269653
H92	H	-0.346842	0.876061	-0.226947
C93	C	-0.676262	1.849286	-1.073615
C94	C	-0.611286	1.767620	-1.107520
H95	H	-0.651967	1.913715	-1.101993
H96	H	-0.674943	1.852810	-0.999271
H97	H	-0.745943	1.836725	-1.096602
H98	H	-0.541606	1.780177	-1.084526
H99	H	-0.612594	1.764097	-1.181880
C100	C	-0.961658	1.718534	-0.306350
C101	C	-0.890344	1.659490	-0.365266
H102	H	-0.924420	1.764137	-0.260790
H103	H	-1.004512	1.672802	-0.266133
H104	H	-1.004396	1.758720	-0.352174
H105	H	-0.847610	1.619297	-0.319442
H106	H	-0.847472	1.705228	-0.405486
C107	C	-1.228566	1.645514	-0.379512
C108	C	-1.120671	1.659640	-0.365316
H109	H	-1.265783	1.691178	-0.333979
H110	H	-1.246615	1.574956	-0.364057
H111	H	-1.246473	1.660844	-0.450127
H112	H	-1.102762	1.644301	-0.294702
H113	H	-1.102614	1.730214	-0.380764
H114	H	-1.094532	1.296354	-0.621669
C115	C	-0.379097	1.391599	-0.783679
C116	C	-0.364870	1.377451	-0.891573
H117	H	-0.333505	1.346007	-0.746460
H118	H	-0.449684	1.376191	-0.765697
H119	H	-0.363731	1.462191	-0.765708
H120	H	-0.380243	1.306860	-0.909546
H121	H	-0.294266	1.392851	-0.909563
H122	H	-0.283865	1.107762	-0.390922
C123	C	-0.706338	0.975132	-0.705901
C124	C	-0.647305	0.903786	-0.647036
H125	H	-0.751998	0.937919	-0.751422
H126	H	-0.660602	1.017946	-0.746157
H127	H	-0.746463	1.017907	-0.660043
H128	H	-0.607174	0.861016	-0.692893
H129	H	-0.693046	0.860954	-0.606777
H130	H	-0.731997	1.641446	-1.091327
H131	H	-0.382830	1.103449	-0.280242
