data_functionalizedCrystal
_audit_creation_method	'MofGen! by Chris Wilmer'
_symmetry_space_group_name_H-M	'P1'
_symmetry_Int_Tables_number	1
_symmetry_cell_setting	triclinic
loop_
_symmetry_equiv_pos_as_xyz
  x,y,z
_cell_length_a	33.510554
_cell_length_b	33.509711
_cell_length_c	33.506470
_cell_angle_alpha	60.004186
_cell_angle_beta	60.008358
_cell_angle_gamma	59.994760
loop_
_atom_site_label
_atom_site_type_symbol
_atom_site_fract_x
_atom_site_fract_y
_atom_site_fract_z
O1	O	0.055430	-0.583081	0.487524
O2	O	0.555430	-0.083081	0.987524
O3	O	0.020931	-0.453975	0.392819
O4	O	0.520931	0.046025	0.892819
O5	O	0.102693	-0.535652	0.392731
O6	O	0.602693	-0.035652	0.892731
O7	O	-0.026332	-0.501404	0.487613
O8	O	0.473668	-0.001404	0.987613
O9	O	0.129823	-0.508526	0.419767
O10	O	0.629823	-0.008526	0.919767
O11	O	0.048062	-0.426850	0.419856
O12	O	0.548062	0.073150	0.919856
O13	O	0.082561	-0.555956	0.514561
O14	O	0.582561	-0.055956	1.014561
Cu15	Cu	0.067789	-0.488926	0.469677
Cu16	Cu	0.567789	0.011074	0.969677
Cu17	Cu	0.035703	-0.521005	0.437703
Cu18	Cu	0.535703	-0.021005	0.937703
O19	O	0.000799	-0.474279	0.514649
O20	O	0.500799	0.025721	1.014649
N21	N	0.090357	-0.466366	0.492168
N22	N	0.590357	0.033634	0.992168
N23	N	0.013139	-0.543569	0.415212
N24	N	0.513139	-0.043569	0.915212
C25	C	0.143028	-0.279707	0.544737
C26	C	0.643028	0.220293	1.044737
C27	C	0.143165	-0.413746	0.678712
C28	C	0.643165	0.086254	1.178712
C29	C	0.143043	-0.413725	0.544739
C30	C	0.643043	0.086275	1.044739
C31	C	0.277090	-0.413694	0.544637
C32	C	0.777090	0.086306	1.044637
C33	C	0.157791	-0.323929	0.559462
C34	C	0.657791	0.176071	1.059462
C35	C	0.157869	-0.398994	0.634489
C36	C	0.657869	0.101006	1.134489
C37	C	0.232865	-0.398963	0.559407
C38	C	0.732865	0.101037	1.059407
C39	C	0.157801	-0.398982	0.559463
C40	C	0.657801	0.101018	1.059463
C41	C	0.124237	-0.223419	0.525994
C42	C	0.624237	0.276581	1.025994
C43	C	0.124262	-0.432490	0.525997
C44	C	0.624262	0.067510	1.025997
C45	C	0.176583	-0.380217	0.578205
C46	C	0.676583	0.119783	1.078205
C47	C	0.358938	-0.399566	0.501510
C48	C	0.858938	0.100434	1.001510
C49	C	0.410104	-0.416609	0.484423
C50	C	0.910104	0.083391	0.984423
C51	C	0.410135	-0.499402	0.515995
C52	C	0.910135	0.000598	1.015995
C53	C	0.358969	-0.482358	0.533084
C54	C	0.858969	0.017642	1.033084
C55	C	0.136554	-0.197822	0.475693
C56	C	0.636554	0.302178	0.975693
C57	C	0.119469	-0.146653	0.458657
C58	C	0.619469	0.353347	0.958657
C59	C	0.077755	-0.146680	0.542223
C60	C	0.577755	0.353320	1.042223
C61	C	0.094840	-0.197850	0.559260
C62	C	0.594840	0.302150	1.059260
C63	C	0.073954	-0.420144	0.538396
C64	C	0.573954	0.079856	1.038396
C65	C	0.056884	-0.437203	0.521352
C66	C	0.556884	0.062797	1.021352
C67	C	0.140427	-0.478952	0.479524
C68	C	0.640427	0.021048	0.979524
C69	C	0.157498	-0.461894	0.496561
C70	C	0.657498	0.038106	0.996561
C71	C	0.074158	-0.420182	0.760618
C72	C	0.574158	0.079818	1.260618
C73	C	0.057149	-0.437256	0.811786
C74	C	0.557149	0.062744	1.311786
C75	C	0.140732	-0.479014	0.811717
C76	C	0.640732	0.020986	1.311717
C77	C	0.157740	-0.461942	0.760547
C78	C	0.657740	0.038058	1.260547
C79	C	0.124452	-0.432525	0.734999
C80	C	0.624452	0.067475	1.234999
C81	C	0.333372	-0.432439	0.525839
C82	C	0.833372	0.067561	1.025839
C83	C	-0.020612	-0.577650	0.170305
C84	C	0.479388	-0.077650	0.670305
C85	C	-0.020943	-0.788098	0.380897
C86	C	0.479057	-0.288098	0.880897
C87	C	-0.020912	-0.577638	0.380991
C88	C	0.479088	-0.077638	0.880991
C89	C	-0.231336	-0.577418	0.380585
C90	C	0.268664	-0.077418	0.880585
C91	C	-0.129735	-0.611383	0.346870
C92	C	0.370265	-0.111383	0.846870
C93	C	-0.054722	-0.611464	0.347017
C94	C	0.445278	-0.111464	0.847017
C95	C	-0.073450	-0.630202	0.328195
C96	C	0.426550	-0.130202	0.828195
C97	C	-0.087616	-0.712029	0.371239
C98	C	0.412384	-0.212029	0.871239
C99	C	-0.070599	-0.763199	0.388315
C100	C	0.429401	-0.263199	0.888315
C101	C	0.012191	-0.763282	0.356872
C102	C	0.512191	-0.263282	0.856872
C103	C	-0.004828	-0.712113	0.339795
C104	C	0.495172	-0.212113	0.839795
C105	C	-0.155381	-0.623711	0.397158
C106	C	0.344619	-0.123711	0.897158
C107	C	-0.206547	-0.606601	0.414133
C108	C	0.293453	-0.106601	0.914133
C109	C	-0.206417	-0.564839	0.330529
C110	C	0.293583	-0.064839	0.830529
C111	C	-0.155251	-0.581949	0.313554
C112	C	0.344749	-0.081949	0.813554
C113	C	-0.067051	-0.561160	0.334643
C114	C	0.432949	-0.061160	0.834643
C115	C	-0.050026	-0.544131	0.351759
C116	C	0.449974	-0.044131	0.851759
C117	C	-0.008343	-0.627704	0.393612
C118	C	0.491657	-0.127704	0.893612
C119	C	-0.025368	-0.644736	0.376502
C120	C	0.474632	-0.144736	0.876502
C121	C	-0.066922	-0.561168	0.246303
C122	C	0.433078	-0.061168	0.746303
C123	C	-0.049794	-0.544141	0.195134
C124	C	0.450206	-0.044141	0.695134
C125	C	-0.008048	-0.627719	0.195183
C126	C	0.491952	-0.127719	0.695183
C127	C	-0.025175	-0.644745	0.246352
C128	C	0.474825	-0.144745	0.746352
C129	C	-0.054614	-0.611468	0.271911
C130	C	0.445386	-0.111468	0.771911
C131	C	-0.054732	-0.686488	0.346980
C132	C	0.445268	-0.186488	0.846980
C133	C	-0.002117	-0.558258	0.114025
C134	C	0.497883	-0.058258	0.614025
C135	C	-0.002879	-0.844379	0.399940
C136	C	0.497121	-0.344379	0.899940
C137	C	-0.002504	-0.558243	0.399473
C138	C	0.497496	-0.058243	0.899473
C139	C	-0.287615	-0.558285	0.398601
C140	C	0.212385	-0.058285	0.898601
N141	N	0.434975	-0.466279	0.491900
N142	N	0.934975	0.033721	0.991900
O143	O	0.591199	-0.470749	0.375150
O144	O	1.091199	0.029251	0.875150
O145	O	0.591395	-0.565767	0.504116
O146	O	1.091395	-0.065767	1.004116
O147	O	0.591311	-0.565550	0.422329
O148	O	1.091311	-0.065550	0.922329
O149	O	0.591283	-0.470966	0.456937
O150	O	1.091283	0.029034	0.956937
O151	O	0.510024	-0.538522	0.449509
O152	O	1.010024	-0.038522	0.949509
O153	O	0.510108	-0.538739	0.531297
O154	O	1.010108	-0.038739	1.031297
O155	O	0.509913	-0.443721	0.402330
O156	O	1.009913	0.056279	0.902330
Cu157	Cu	0.502588	-0.488762	0.469295
Cu158	Cu	1.002588	0.011238	0.969295
Cu159	Cu	0.598719	-0.520726	0.437151
Cu160	Cu	1.098719	-0.020726	0.937151
O161	O	0.509997	-0.443938	0.484117
O162	O	1.009997	0.056062	0.984117
N163	N	0.666332	-0.543209	0.414541
N164	N	1.166332	-0.043209	0.914541
N165	N	0.090323	-0.121809	0.492157
N166	N	0.590323	0.378191	0.992157
O167	O	-0.026342	0.034503	0.487582
O168	O	0.473658	0.534503	0.987582
O169	O	0.102626	0.034543	0.392540
O170	O	0.602626	0.534543	0.892540
O171	O	0.020797	0.034507	0.392812
O172	O	0.520797	0.534507	0.892812
O173	O	0.055487	0.034539	0.487310
O174	O	0.555487	0.534539	0.987310
O175	O	0.047933	-0.046785	0.419900
O176	O	0.547933	0.453215	0.919900
O177	O	0.129763	-0.046749	0.419628
O178	O	0.629763	0.453251	0.919628
O179	O	0.000794	-0.046789	0.514670
O180	O	0.500794	0.453211	1.014670
Cu181	Cu	0.067756	-0.054192	0.469623
Cu182	Cu	0.567756	0.445808	0.969623
Cu183	Cu	0.035664	0.041946	0.437588
Cu184	Cu	0.535664	0.541946	0.937588
O185	O	0.082623	-0.046753	0.514399
O186	O	0.582623	0.453247	1.014399
N187	N	0.013091	0.109564	0.415054
N188	N	0.513091	0.609564	0.915054
N189	N	0.090671	-0.466416	0.836606
N190	N	0.590671	0.033584	1.336606
O191	O	0.086120	-0.583065	0.992910
O192	O	0.586120	-0.083065	1.492910
O193	O	-0.008880	-0.454051	0.992954
O194	O	0.491120	0.045949	1.492954
O195	O	-0.008658	-0.535864	0.992931
O196	O	0.491342	-0.035864	1.492931
O197	O	0.085897	-0.501252	0.992933
O198	O	0.585897	-0.001252	1.492933
O199	O	0.018407	-0.508749	0.911642
O200	O	0.518407	-0.008749	1.411642
O201	O	0.018185	-0.426936	0.911665
O202	O	0.518185	0.073064	1.411665
O203	O	0.113185	-0.555949	0.911621
O204	O	0.613185	-0.055949	1.411621
Cu205	Cu	0.068156	-0.488967	0.904221
Cu206	Cu	0.568156	0.011033	1.404221
Cu207	Cu	0.036148	-0.521034	1.000355
Cu208	Cu	0.536148	-0.021034	1.500355
O209	O	0.112963	-0.474136	0.911644
O210	O	0.612963	0.025864	1.411644
N211	N	0.013633	-0.543590	1.067970
N212	N	0.513633	-0.043590	1.567970
C213	C	0.031262	-0.424144	0.393290
C214	C	0.531262	0.075856	0.893290
C215	C	0.132513	-0.525291	0.393180
C216	C	0.632513	-0.025291	0.893180
C217	C	0.072229	-0.585787	0.514090
C218	C	0.572229	-0.085787	1.014090
C219	C	-0.029022	-0.484640	0.514200
C220	C	0.470978	0.015360	1.014200
C221	C	0.550775	-0.565338	0.533954
C222	C	1.050775	-0.065338	1.033954
C223	C	0.550672	-0.565070	0.432670
C224	C	1.050672	-0.065070	0.932670
C225	C	0.550530	-0.444149	0.372492
C226	C	1.050530	0.055851	0.872492
C227	C	0.550635	-0.444418	0.473776
C228	C	1.050635	0.055582	0.973776
C229	C	0.132408	-0.005998	0.392963
C230	C	0.632408	0.494002	0.892963
C231	C	0.031106	-0.006142	0.393333
C232	C	0.531106	0.493858	0.893333
C233	C	-0.029021	-0.006147	0.514213
C234	C	0.470979	0.493853	1.014213
C235	C	0.072314	-0.006104	0.513878
C236	C	0.572314	0.493896	1.013878
C237	C	-0.008430	-0.424240	0.952316
C238	C	0.491570	0.075760	1.452316
C239	C	-0.008150	-0.525550	0.952271
C240	C	0.491850	-0.025550	1.452271
C241	C	0.112735	-0.585760	0.952260
C242	C	0.612735	-0.085760	1.452260
C243	C	0.112461	-0.484444	0.952286
C244	C	0.612461	0.015556	1.452286
H245	H	0.047048	-0.396226	0.739820
H246	H	0.547048	0.103774	1.239820
C247	C	0.082277	-0.006203	0.553488
C248	C	0.582277	0.493797	1.053488
C249	C	0.121596	-0.048025	0.564588
C250	C	0.621596	0.451975	1.064588
C251	C	0.130782	-0.048138	0.601081
C252	C	0.630782	0.451862	1.101081
H253	H	0.090058	0.022117	0.542243
H254	H	0.590058	0.522117	1.042243
H255	H	0.054056	-0.006239	0.581963
H256	H	0.554056	0.493761	1.081963
H257	H	0.149811	-0.047984	0.536118
H258	H	0.649811	0.452016	1.036118
H259	H	0.113825	-0.076351	0.575841
H260	H	0.613825	0.423649	1.075841
H261	H	0.102561	-0.048174	0.629556
H262	H	0.602561	0.451826	1.129556
H263	H	0.138561	-0.019816	0.589832
H264	H	0.638561	0.480184	1.089832
H265	H	0.157458	-0.076516	0.608620
H266	H	0.657458	0.423484	1.108620
C267	C	0.212138	-0.475361	0.483060
C268	C	0.712138	0.024639	0.983060
C269	C	0.237591	-0.504769	0.453641
C270	C	0.737591	-0.004769	0.953641
C271	C	0.287925	-0.517187	0.441197
C272	C	0.787925	-0.017187	0.941197
H273	H	0.220568	-0.446456	0.465673
H274	H	0.720568	0.053544	0.965673
H275	H	0.220587	-0.492751	0.511966
H276	H	0.720587	0.007249	1.011966
H277	H	0.229146	-0.487379	0.424740
H278	H	0.729146	0.012621	0.924740
H279	H	0.229175	-0.533680	0.471018
H280	H	0.729175	-0.033680	0.971018
H281	H	0.296374	-0.534577	0.470103
H282	H	0.796374	-0.034577	0.970103
H283	H	0.296350	-0.488280	0.423811
H284	H	0.796350	0.011720	0.923811
H285	H	0.305201	-0.537145	0.421238
H286	H	0.805201	-0.037145	0.921238
H287	H	-0.015331	-0.685697	0.386578
H288	H	0.484669	-0.185697	0.886578
C289	C	0.550650	-0.404743	0.483542
C290	C	1.050650	0.095257	0.983542
C291	C	0.550593	-0.362872	0.441850
C292	C	1.050593	0.137128	0.941850
C293	C	0.550614	-0.326316	0.450825
C294	C	1.050614	0.173684	0.950825
H295	H	0.522332	-0.397099	0.510202
H296	H	1.022332	0.102901	1.010202
H297	H	0.579028	-0.415993	0.491244
H298	H	1.079028	0.084007	0.991244
H299	H	0.522217	-0.351624	0.434154
H300	H	1.022217	0.148376	0.934154
H301	H	0.578909	-0.370501	0.415184
H302	H	1.078909	0.129499	0.915184
H303	H	0.578993	-0.337566	0.458527
H304	H	1.078993	0.162434	0.958527
H305	H	0.522296	-0.318676	0.477486
H306	H	1.022296	0.181324	0.977486
H307	H	0.550580	-0.297904	0.422537
H308	H	1.050580	0.202096	0.922537
C309	C	0.181642	-0.005612	0.353007
C310	C	0.681642	0.494388	0.853007
C311	C	0.174932	0.036291	0.312264
C312	C	0.674932	0.536291	0.812264
C313	C	0.220275	0.036657	0.275444
C314	C	0.720275	0.536657	0.775444
H315	H	0.202216	-0.005515	0.364698
H316	H	0.702216	0.494485	0.864698
H317	H	0.196377	-0.033885	0.343970
H318	H	0.696377	0.466115	0.843970
H319	H	0.160205	0.064558	0.321300
H320	H	0.660205	0.564558	0.821300
H321	H	0.154367	0.036204	0.300558
H322	H	0.654367	0.536204	0.800558
H323	H	0.235010	0.008383	0.266407
H324	H	0.735010	0.508383	0.766407
H325	H	0.240845	0.036752	0.287140
H326	H	0.740845	0.536752	0.787140
H327	H	0.215728	0.065085	0.247794
H328	H	0.715728	0.565085	0.747794
C329	C	0.550711	-0.604762	0.422886
C330	C	1.050711	-0.104762	0.922886
C331	C	0.550793	-0.646642	0.464570
C332	C	1.050793	-0.146642	0.964570
C333	C	0.550835	-0.683219	0.455574
C334	C	1.050835	-0.183219	0.955574
H335	H	0.522354	-0.593559	0.415178
H336	H	1.022354	-0.093559	0.915178
H337	H	0.579050	-0.612375	0.396219
H338	H	1.079050	-0.112375	0.896219
H339	H	0.522457	-0.639030	0.491229
H340	H	1.022457	-0.139030	0.991229
H341	H	0.579149	-0.657860	0.472285
H342	H	1.079149	-0.157860	0.972285
H343	H	0.579174	-0.690831	0.428906
H344	H	1.079174	-0.190831	0.928906
H345	H	0.522477	-0.672011	0.447864
H346	H	1.022477	-0.172011	0.947864
H347	H	0.550895	-0.711640	0.483853
H348	H	1.050895	-0.211640	0.983853
C349	C	-0.048147	-0.374813	0.952358
C350	C	0.451853	0.125187	1.452358
C351	C	-0.030638	-0.344647	0.952376
C352	C	0.469362	0.155353	1.452376
C353	C	-0.067213	-0.299113	0.952422
C354	C	0.432787	0.200887	1.452422
H355	H	-0.057065	-0.360123	0.924022
H356	H	0.442935	0.139877	1.424022
H357	H	-0.075917	-0.379078	0.980720
H358	H	0.424083	0.120922	1.480720
H359	H	-0.002876	-0.340380	0.924017
H360	H	0.497124	0.159620	1.424017
H361	H	-0.021723	-0.359321	0.980710
H362	H	0.478277	0.140679	1.480710
H363	H	-0.094983	-0.303379	0.980784
H364	H	0.405017	0.196621	1.480784
H365	H	-0.076129	-0.284429	0.924085
H366	H	0.423871	0.215571	1.424085
H367	H	-0.055340	-0.278641	0.952439
H368	H	0.444660	0.221359	1.452439
C369	C	0.550349	-0.404316	0.323151
C370	C	1.050349	0.095684	0.823151
C371	C	0.508496	-0.363473	0.329643
C372	C	1.008496	0.136527	0.829643
C373	C	0.508309	-0.326772	0.284201
C374	C	1.008309	0.173228	0.784201
H375	H	0.578644	-0.395345	0.308463
H376	H	1.078644	0.104655	0.808463
H377	H	0.550308	-0.416097	0.302611
H378	H	1.050308	0.083903	0.802611
H379	H	0.508541	-0.351694	0.350175
H380	H	1.008541	0.148306	0.850175
H381	H	0.480194	-0.372429	0.344324
H382	H	0.980194	0.127571	0.844324
H383	H	0.508269	-0.338553	0.263661
H384	H	1.008269	0.161447	0.763661
H385	H	0.536606	-0.317805	0.269516
H386	H	1.036606	0.182195	0.769516
H387	H	0.479911	-0.299058	0.288599
H388	H	0.979911	0.200942	0.788599
H389	H	0.079602	-0.622875	0.543835
H390	H	0.579602	-0.122875	1.043835
C391	C	0.437864	-0.553602	0.523824
C392	C	0.937864	-0.053602	1.023824
C393	C	0.425387	-0.569080	0.501018
C394	C	0.925387	-0.069080	1.001018
C395	C	0.450919	-0.619007	0.508225
C396	C	0.950919	-0.119007	1.008225
H397	H	0.472006	-0.559108	0.510163
H398	H	0.972006	-0.059108	1.010163
H399	H	0.429498	-0.571468	0.557849
H400	H	0.929498	-0.071468	1.057849
H401	H	0.433756	-0.551220	0.467001
H402	H	0.933756	-0.051220	0.967001
H403	H	0.391249	-0.563587	0.514676
H404	H	0.891249	-0.063587	1.014676
H405	H	0.442552	-0.636873	0.542249
H406	H	0.942552	-0.136873	1.042249
H407	H	0.485059	-0.624508	0.494563
H408	H	0.985059	-0.124508	0.994563
H409	H	0.442453	-0.629516	0.492756
H410	H	0.942453	-0.129516	0.992756
H411	H	0.550826	-0.595166	0.570996
H412	H	1.050826	-0.095166	1.070996
C413	C	-0.047674	-0.535491	0.952199
C414	C	0.452326	-0.035491	1.452199
C415	C	-0.029940	-0.583202	0.952158
C416	C	0.470060	-0.083202	1.452158
C417	C	-0.066333	-0.592374	0.952086
C418	C	0.433667	-0.092374	1.452086
H419	H	-0.075498	-0.531890	0.980534
H420	H	0.424502	-0.031890	1.480534
H421	H	-0.056560	-0.512952	0.923836
H422	H	0.443440	-0.012952	1.423836
H423	H	-0.021060	-0.605734	0.980519
H424	H	0.478940	-0.105734	1.480519
H425	H	-0.002121	-0.586814	0.923826
H426	H	0.497879	-0.086814	1.423826
H427	H	-0.075219	-0.569836	0.923722
H428	H	0.424781	-0.069836	1.423722
H429	H	-0.094155	-0.588771	0.980421
H430	H	0.405845	-0.088771	1.480421
H431	H	-0.054304	-0.624744	0.952054
H432	H	0.445696	-0.124744	1.452054
H433	H	-0.066059	-0.006159	0.544050
H434	H	0.433941	0.493841	1.044050
H435	H	-0.066081	-0.477343	0.543993
H436	H	0.433919	0.022657	1.043993
H437	H	0.023675	-0.006147	0.363643
H438	H	0.523675	0.493853	0.863643
H439	H	0.142562	-0.622811	0.952240
H440	H	0.642562	-0.122811	1.452240
C441	C	0.152019	-0.474469	0.952254
C442	C	0.652019	0.025531	1.452254
C443	C	0.134299	-0.426745	0.952255
C444	C	0.634299	0.073255	1.452255
C445	C	0.170728	-0.417536	0.952218
C446	C	0.670728	0.082464	1.452218
H447	H	0.160961	-0.496975	0.980586
H448	H	0.660961	0.003025	1.480586
H449	H	0.179808	-0.478080	0.923888
H450	H	0.679808	0.021920	1.423888
H451	H	0.106518	-0.423138	0.980618
H452	H	0.606518	0.076862	1.480618
H453	H	0.125359	-0.404228	0.923925
H454	H	0.625359	0.095772	1.423925
H455	H	0.198517	-0.421147	0.923852
H456	H	0.698517	0.078853	1.423852
H457	H	0.179668	-0.440045	0.980551
H458	H	0.679668	0.059955	1.480551
H459	H	0.158711	-0.385153	0.952214
H460	H	0.658711	0.114847	1.452214
C461	C	0.066396	-0.791019	0.349004
C462	C	0.566396	-0.291019	0.849004
C463	C	0.091556	-0.757698	0.324092
C464	C	0.591556	-0.257698	0.824092
C465	C	0.141489	-0.783231	0.316828
C466	C	0.641489	-0.283231	0.816828
H467	H	0.071164	-0.810980	0.379738
H468	H	0.571164	-0.310980	0.879738
H469	H	0.078435	-0.810974	0.330232
H470	H	0.578435	-0.310974	0.830232
H471	H	0.079520	-0.737751	0.342864
H472	H	0.579520	-0.237751	0.842864
H473	H	0.086802	-0.737736	0.293354
H474	H	0.586802	-0.237736	0.793354
H475	H	0.153529	-0.803187	0.298056
H476	H	0.653529	-0.303187	0.798056
H477	H	0.146253	-0.803192	0.347564
H478	H	0.646253	-0.303192	0.847564
H479	H	0.158567	-0.760627	0.299921
H480	H	0.658567	-0.260627	0.799921
H481	H	0.015562	-0.654800	0.417614
H482	H	0.515562	-0.154800	0.917614
C483	C	0.002528	-0.423869	0.839533
C484	C	0.502528	0.076131	1.339533
C485	C	-0.018549	-0.441252	0.827096
C486	C	0.481451	0.058748	1.327096
C487	C	-0.068866	-0.428927	0.852641
C488	C	0.431134	0.071073	1.352641
H489	H	-0.002906	-0.438240	0.873674
H490	H	0.497094	0.061760	1.373674
H491	H	-0.011875	-0.389341	0.831150
H492	H	0.488125	0.110659	1.331150
H493	H	-0.004151	-0.475774	0.835482
H494	H	0.495849	0.024226	1.335482
H495	H	-0.013129	-0.426885	0.792959
H496	H	0.486871	0.073115	1.292959
H497	H	-0.083269	-0.394399	0.844258
H498	H	0.416731	0.105601	1.344258
H499	H	-0.074295	-0.443298	0.886781
H500	H	0.425705	0.056702	1.386781
H501	H	-0.083174	-0.440715	0.844202
H502	H	0.416826	0.059285	1.344202
C503	C	0.176951	-0.510966	0.839367
C504	C	0.676951	-0.010966	1.339367
C505	C	0.224638	-0.518131	0.805980
C506	C	0.724638	-0.018131	1.305980
C507	C	0.258014	-0.547573	0.831433
C508	C	0.758014	-0.047573	1.331433
H509	H	0.172117	-0.495391	0.859332
H510	H	0.672117	0.004609	1.359332
H511	H	0.172082	-0.541658	0.859312
H512	H	0.672082	-0.041658	1.359312
H513	H	0.229504	-0.487444	0.786044
H514	H	0.729504	0.012556	1.286044
H515	H	0.229487	-0.533711	0.786015
H516	H	0.729487	-0.033711	1.286015
H517	H	0.253146	-0.578265	0.851378
H518	H	0.753146	-0.078265	1.351378
H519	H	0.253176	-0.531995	0.851397
H520	H	0.753176	-0.031995	1.351397
H521	H	0.290373	-0.552442	0.808784
H522	H	0.790373	-0.052442	1.308784
H523	H	0.198696	-0.471996	0.739692
H524	H	0.698696	0.028004	1.239692
H525	H	0.015920	-0.427139	0.531437
H526	H	0.515920	0.072861	1.031437
C527	C	0.037790	-0.388202	0.570324
C528	C	0.537790	0.111798	1.070324
C529	C	-0.009920	-0.381029	0.577518
C530	C	0.490080	0.118971	1.077518
C531	C	-0.043247	-0.351600	0.606924
C532	C	0.456753	0.148400	1.106924
H533	H	0.042669	-0.403790	0.601009
H534	H	0.542669	0.096210	1.101009
H535	H	0.042664	-0.357511	0.554700
H536	H	0.542664	0.142489	1.054700
H537	H	-0.014792	-0.411714	0.593143
H538	H	0.485208	0.088286	1.093143
H539	H	-0.014815	-0.365435	0.546843
H540	H	0.485185	0.134565	1.046843
H541	H	-0.038374	-0.320909	0.591300
H542	H	0.461626	0.179091	1.091300
H543	H	-0.038364	-0.367192	0.637606
H544	H	0.461636	0.132808	1.137606
H545	H	-0.075622	-0.346726	0.611805
H546	H	0.424378	0.153274	1.111805
H547	H	-0.059824	-0.503179	0.174290
H548	H	0.440176	-0.003179	0.674290
C549	C	0.331156	-0.517991	0.559431
C550	C	0.831156	-0.017991	1.059431
C551	C	0.301746	-0.505261	0.533668
C552	C	0.801746	-0.005261	1.033668
C553	C	0.276116	-0.538074	0.557924
C554	C	0.776116	-0.038074	1.057924
H555	H	0.353680	-0.550175	0.561302
H556	H	0.853680	-0.050175	1.061302
H557	H	0.311188	-0.516693	0.591492
H558	H	0.811188	-0.016693	1.091492
H559	H	0.321713	-0.506564	0.501616
H560	H	0.821713	-0.006564	1.001616
H561	H	0.279214	-0.473083	0.531797
H562	H	0.779214	0.026917	1.031797
H563	H	0.256147	-0.536776	0.589985
H564	H	0.756147	-0.036776	1.089985
H565	H	0.298643	-0.570256	0.559793
H566	H	0.798643	-0.070256	1.059793
H567	H	0.256155	-0.529439	0.540450
H568	H	0.756155	-0.029439	1.040450
C569	C	0.176490	-0.510957	0.447640
C570	C	0.676490	-0.010957	0.947640
C571	C	0.169174	-0.556130	0.470773
C572	C	0.669174	-0.056130	0.970773
C573	C	0.202386	-0.585624	0.441416
C574	C	0.702386	-0.085624	0.941416
H575	H	0.171570	-0.495385	0.416978
H576	H	0.671570	0.004615	0.916978
H577	H	0.208906	-0.515901	0.442705
H578	H	0.708906	-0.015901	0.942705
H579	H	0.136766	-0.551186	0.475702
H580	H	0.636766	-0.051186	0.975702
H581	H	0.174099	-0.571717	0.501433
H582	H	0.674099	-0.071717	1.001433
H583	H	0.234802	-0.590567	0.436481
H584	H	0.734802	-0.090567	0.936481
H585	H	0.197463	-0.570047	0.410755
H586	H	0.697463	-0.070047	0.910755
H587	H	0.197430	-0.616278	0.457109
H588	H	0.697430	-0.116278	0.957109
H589	H	0.430920	-0.389838	0.464614
H590	H	0.930920	0.110162	0.964614
C591	C	-0.234461	-0.620008	0.468721
C592	C	0.265539	-0.120008	0.968721
C593	C	-0.263853	-0.645531	0.480886
C594	C	0.236147	-0.145531	0.980886
C595	C	-0.289578	-0.657885	0.531166
C596	C	0.210422	-0.157885	1.031166
H597	H	-0.211994	-0.640010	0.486191
H598	H	0.288006	-0.140010	0.986191
H599	H	-0.254449	-0.591069	0.477105
H600	H	0.245551	-0.091069	0.977105
H601	H	-0.243866	-0.674466	0.472507
H602	H	0.256134	-0.174466	0.972507
H603	H	-0.286329	-0.625538	0.463429
H604	H	0.213671	-0.125538	0.963429
H605	H	-0.309567	-0.628945	0.539550
H606	H	0.190433	-0.128945	1.039550
H607	H	-0.267108	-0.677885	0.548631
H608	H	0.232892	-0.177885	1.048631
H609	H	-0.309527	-0.675199	0.539425
H610	H	0.190473	-0.175199	1.039425
C611	C	0.331234	-0.345351	0.493620
C612	C	0.831234	0.154649	0.993620
C613	C	0.364578	-0.320214	0.468668
C614	C	0.864578	0.179786	0.968668
C615	C	0.339077	-0.270273	0.461395
C616	C	0.839077	0.229727	0.961395
H617	H	0.311251	-0.333287	0.474873
H618	H	0.811251	0.166713	0.974873
H619	H	0.311304	-0.340589	0.524364
H620	H	0.811304	0.159411	1.024364
H621	H	0.384499	-0.324973	0.437929
H622	H	0.884499	0.175027	0.937929
H623	H	0.384562	-0.332263	0.487407
H624	H	0.884562	0.167737	0.987407
H625	H	0.319148	-0.265510	0.492138
H626	H	0.819148	0.234490	0.992138
H627	H	0.319095	-0.258214	0.442648
H628	H	0.819095	0.241786	0.942648
H629	H	0.361697	-0.253211	0.444468
H630	H	0.861697	0.246789	0.944468
H631	H	0.160490	-0.218637	0.448603
H632	H	0.660490	0.281363	0.948603
H633	H	0.129496	-0.125810	0.417697
H634	H	0.629496	0.374190	0.917697
H635	H	0.084809	-0.218687	0.600218
H636	H	0.584809	0.281313	1.100218
C637	C	0.045829	-0.119004	0.578417
C638	C	0.545829	0.380996	1.078417
C639	C	0.038696	-0.152375	0.626116
C640	C	0.538696	0.347625	1.126116
C641	C	0.009282	-0.126900	0.659471
C642	C	0.509282	0.373100	1.159471
H643	H	0.061409	-0.099033	0.573551
H644	H	0.561409	0.400967	1.073551
H645	H	0.015127	-0.099063	0.573558
H646	H	0.515127	0.400937	1.073558
H647	H	0.069392	-0.172308	0.630973
H648	H	0.569392	0.327692	1.130973
H649	H	0.023110	-0.172347	0.630998
H650	H	0.523110	0.327653	1.130998
H651	H	-0.021420	-0.106958	0.654612
H652	H	0.478580	0.393042	1.154612
H653	H	0.024865	-0.106929	0.654600
H654	H	0.524865	0.393071	1.154600
H655	H	0.004435	-0.149538	0.691838
H656	H	0.504435	0.350462	1.191838
H657	H	-0.090896	-0.534066	0.267110
H658	H	0.409104	-0.034066	0.767110
C659	C	0.023919	-0.663927	0.167525
C660	C	0.523919	-0.163927	0.667525
C661	C	0.031038	-0.711622	0.200907
C662	C	0.531038	-0.211622	0.700907
C663	C	0.060491	-0.744990	0.175447
C664	C	0.560491	-0.244990	0.675447
H665	H	0.008372	-0.659061	0.147519
H666	H	0.508372	-0.159061	0.647519
H667	H	0.054623	-0.659079	0.147622
H668	H	0.554623	-0.159079	0.647622
H669	H	0.000341	-0.716468	0.220802
H670	H	0.500341	-0.216468	0.720802
H671	H	0.046591	-0.716503	0.220914
H672	H	0.546591	-0.216503	0.720914
H673	H	0.091194	-0.740142	0.155543
H674	H	0.591194	-0.240142	0.655543
H675	H	0.044940	-0.740120	0.155441
H676	H	0.544940	-0.240120	0.655441
H677	H	0.065328	-0.777355	0.198092
H678	H	0.565328	-0.277355	0.698092
H679	H	-0.015148	-0.685706	0.267200
H680	H	0.484852	-0.185706	0.767200
C681	C	-0.063428	-0.489497	0.338239
C682	C	0.436572	0.010503	0.838239
C683	C	-0.092760	-0.464002	0.308737
C684	C	0.407240	0.035998	0.808737
C685	C	-0.105104	-0.413673	0.296262
C686	C	0.394896	0.086327	0.796262
H687	H	-0.080846	-0.481010	0.367118
H688	H	0.419154	0.018990	0.867118
H689	H	-0.034481	-0.481135	0.320902
H690	H	0.465519	0.018865	0.820902
H691	H	-0.121702	-0.472359	0.326074
H692	H	0.378298	0.027641	0.826074
H693	H	-0.075351	-0.472473	0.279853
H694	H	0.424649	0.027527	0.779853
H695	H	-0.076157	-0.405312	0.278925
H696	H	0.423843	0.094688	0.778925
H697	H	-0.122520	-0.405192	0.325143
H698	H	0.377480	0.094808	0.825143
H699	H	-0.125003	-0.396369	0.276240
H700	H	0.374997	0.103631	0.776240
H701	H	-0.090949	-0.534065	0.310634
H702	H	0.409051	-0.034065	0.810634
H703	H	0.021953	-0.691318	0.320042
H704	H	0.521953	-0.191318	0.820042
H705	H	0.169570	-0.532590	0.363385
H706	H	0.669570	-0.032590	0.863385
C707	C	-0.106391	-0.790843	0.414732
C708	C	0.393609	-0.290843	0.914732
C709	C	-0.153745	-0.757449	0.417412
C710	C	0.346255	-0.257449	0.917412
C711	C	-0.186736	-0.782897	0.441780
C712	C	0.313264	-0.282897	0.941780
H713	H	-0.097921	-0.810837	0.397370
H714	H	0.402079	-0.310837	0.897370
H715	H	-0.105125	-0.810759	0.446812
H716	H	0.394875	-0.310759	0.946812
H717	H	-0.155009	-0.737541	0.385337
H718	H	0.344991	-0.237541	0.885337
H719	H	-0.162231	-0.737454	0.434777
H720	H	0.337769	-0.237454	0.934777
H721	H	-0.185469	-0.802814	0.473860
H722	H	0.314531	-0.302814	0.973860
H723	H	-0.178260	-0.802891	0.424415
H724	H	0.321740	-0.302891	0.924415
H725	H	-0.218869	-0.760244	0.443605
H726	H	0.281131	-0.260244	0.943605
H727	H	-0.128252	-0.691169	0.377093
H728	H	0.371748	-0.191169	0.877093
H729	H	-0.227194	-0.540877	0.303400
H730	H	0.272806	-0.040877	0.803400
C731	C	-0.127765	-0.655641	0.433405
C732	C	0.372235	-0.155641	0.933405
C733	C	-0.161178	-0.662760	0.481080
C734	C	0.338822	-0.162760	0.981080
C735	C	-0.135756	-0.692166	0.514485
C736	C	0.364244	-0.192166	1.014485
H737	H	-0.107811	-0.686349	0.428577
H738	H	0.392189	-0.186349	0.928577
H739	H	-0.107812	-0.640044	0.428557
H740	H	0.392188	-0.140044	0.928557
H741	H	-0.181121	-0.678357	0.485925
H742	H	0.318879	-0.178357	0.985925
H743	H	-0.181132	-0.632061	0.485924
H744	H	0.318868	-0.132061	0.985924
H745	H	-0.115804	-0.676569	0.509637
H746	H	0.384196	-0.176569	1.009637
H747	H	-0.115804	-0.722872	0.509652
H748	H	0.384196	-0.222872	1.009652
H749	H	-0.158423	-0.696996	0.546836
H750	H	0.341577	-0.196996	1.046836
H751	H	0.023891	-0.387055	0.363546
H752	H	0.523891	0.112945	0.863546
C753	C	-0.127491	-0.568536	0.258933
C754	C	0.372509	-0.068536	0.758933
C755	C	-0.160788	-0.539107	0.233390
C756	C	0.339212	-0.039107	0.733390
C757	C	-0.135234	-0.526747	0.183074
C758	C	0.364766	-0.026747	0.683074
H759	H	-0.107520	-0.551179	0.250516
H760	H	0.392480	-0.051179	0.750516
H761	H	-0.107545	-0.597474	0.250543
H762	H	0.392455	-0.097474	0.750543
H763	H	-0.180726	-0.510173	0.241776
H764	H	0.319274	-0.010173	0.741776
H765	H	-0.180760	-0.556454	0.241792
H766	H	0.319240	-0.056454	0.741792
H767	H	-0.115288	-0.555686	0.174684
H768	H	0.384712	-0.055686	0.674684
H769	H	-0.115265	-0.509392	0.174662
H770	H	0.384735	-0.009392	0.674662
H771	H	-0.157823	-0.506782	0.165736
H772	H	0.342177	-0.006782	0.665736
