data_functionalizedCrystal
_audit_creation_method	'MofGen! by Chris Wilmer'
_symmetry_space_group_name_H-M	'P1'
_symmetry_Int_Tables_number	1
_symmetry_cell_setting	triclinic
loop_
_symmetry_equiv_pos_as_xyz
  x,y,z
_cell_length_a	12.827893
_cell_length_b	16.625546
_cell_length_c	16.625539
_cell_angle_alpha	90.030397
_cell_angle_beta	90.018604
_cell_angle_gamma	90.022629
loop_
_atom_site_label
_atom_site_type_symbol
_atom_site_fract_x
_atom_site_fract_y
_atom_site_fract_z
Zn1	Zn	1.597611	-0.320997	0.455855
Zn2	Zn	2.097611	0.179003	0.955855
Zn3	Zn	1.597486	-0.455840	0.321018
Zn4	Zn	2.097486	0.044160	0.821018
Zn5	Zn	1.422855	-0.321025	0.321041
Zn6	Zn	1.922855	0.178975	0.821041
Zn7	Zn	1.422816	-0.455791	0.455812
Zn8	Zn	1.922816	0.044209	0.955812
O9	O	1.510192	-0.388413	0.388431
O10	O	2.010192	0.111587	0.888431
O11	O	1.743831	-0.338892	0.437977
O12	O	2.243831	0.161108	0.937977
O13	O	1.574284	-0.437989	0.208188
O14	O	2.074284	0.062011	0.708188
O15	O	1.446105	-0.208189	0.338952
O16	O	1.946105	0.291811	0.838952
O17	O	1.743739	-0.437961	0.338913
O18	O	2.243739	0.062039	0.838913
O19	O	1.574498	-0.208168	0.438000
O20	O	2.074498	0.291832	0.938000
O21	O	1.445983	-0.338941	0.208205
O22	O	1.945983	0.161059	0.708205
O23	O	1.276614	-0.338894	0.338910
O24	O	1.776614	0.161106	0.838910
O25	O	1.446040	-0.437878	0.568650
O26	O	1.946040	0.062122	1.068650
O27	O	1.276585	-0.437906	0.437926
O28	O	1.776585	0.062094	0.937926
O29	O	1.574461	-0.338845	0.568682
O30	O	2.074461	0.161155	1.068682
O31	O	1.574247	-0.568666	0.338871
O32	O	2.074247	-0.068666	0.838871
O33	O	1.445918	-0.568630	0.437904
O34	O	1.945918	-0.068630	0.937904
C35	C	1.238682	-0.388398	0.388416
C36	C	1.738682	0.111602	0.888416
C37	C	1.122529	-0.388412	0.388429
C38	C	1.622529	0.111588	0.888429
C39	C	1.070790	-0.339476	0.437525
C40	C	1.570790	0.160524	0.937525
C41	C	0.950739	-0.339489	0.437539
C42	C	1.450739	0.160511	0.937539
C43	C	1.510093	-0.597904	0.388398
C44	C	2.010093	-0.097904	0.888398
C45	C	1.510146	-0.687525	0.388410
C46	C	2.010146	-0.187525	0.888410
C47	C	1.510329	-1.015701	0.388494
C48	C	2.010329	-0.515701	0.888494
C49	C	1.510275	-0.924392	0.388473
C50	C	2.010275	-0.424392	0.888473
C51	C	1.510237	-0.851616	0.388452
C52	C	2.010237	-0.351616	0.888452
C53	C	1.510184	-0.760302	0.388431
C54	C	2.010184	-0.260302	0.888431
C55	C	1.782762	-0.388429	0.388447
C56	C	2.282762	0.111571	0.888447
C57	C	1.898915	-0.388435	0.388454
C58	C	2.398915	0.111565	0.888454
C59	C	1.510320	-0.178104	0.388483
C60	C	2.010320	0.321896	0.888483
C61	C	1.510374	-0.088483	0.388505
C62	C	2.010374	0.411517	0.888505
C63	C	1.510260	-0.388353	0.598740
C64	C	2.010260	0.111647	1.098740
C65	C	1.510289	-0.388328	0.688362
C66	C	2.010289	0.111672	1.188362
C67	C	1.510185	-0.388415	0.178941
C68	C	2.010185	0.111585	0.678941
C69	C	1.510358	-0.388213	0.089320
C70	C	2.010358	0.111787	0.589320
C71	C	1.510337	-0.388237	1.016537
C72	C	2.010337	0.111763	1.516537
C73	C	1.510321	-0.388265	0.925229
C74	C	2.010321	0.111735	1.425229
C75	C	1.510314	-0.388283	0.852452
C76	C	2.010314	0.111717	1.352452
C77	C	1.510296	-0.388310	0.761138
C78	C	2.010296	0.111690	1.261138
H79	H	1.077948	-0.430314	0.346404
H80	H	1.577948	0.069686	0.846404
H81	H	1.115371	-0.297569	0.479545
H82	H	1.615371	0.202431	0.979545
H83	H	0.943403	-0.430337	0.346423
H84	H	1.443403	0.069663	0.846423
H85	H	0.906245	-0.297596	0.479576
H86	H	1.406245	0.202404	0.979576
