data_functionalizedCrystal
_audit_creation_method	'MofGen! by Chris Wilmer'
_symmetry_space_group_name_H-M	'P1'
_symmetry_Int_Tables_number	1
_symmetry_cell_setting	triclinic
loop_
_symmetry_equiv_pos_as_xyz
  x,y,z
_cell_length_a	18.101395
_cell_length_b	18.101398
_cell_length_c	14.908308
_cell_angle_alpha	86.729425
_cell_angle_beta	93.266316
_cell_angle_gamma	89.976925
loop_
_atom_site_label
_atom_site_type_symbol
_atom_site_fract_x
_atom_site_fract_y
_atom_site_fract_z
Zn1	Zn	-0.319144	-1.107938	-0.510280
Zn2	Zn	-0.069144	-0.857938	-0.260280
Zn3	Zn	0.180856	-0.607938	-0.010280
Zn4	Zn	0.430856	-0.357938	0.239720
Zn5	Zn	-0.435852	-1.114983	-0.359427
Zn6	Zn	-0.185852	-0.864983	-0.109427
Zn7	Zn	0.064148	-0.614983	0.140573
Zn8	Zn	0.314148	-0.364983	0.390573
Zn9	Zn	-0.312011	-0.991246	-0.359419
Zn10	Zn	-0.062011	-0.741246	-0.109419
Zn11	Zn	0.187989	-0.491246	0.140581
Zn12	Zn	0.437989	-0.241246	0.390581
Zn13	Zn	-0.442928	-0.984051	-0.510213
Zn14	Zn	-0.192928	-0.734051	-0.260213
Zn15	Zn	0.057072	-0.484051	-0.010213
Zn16	Zn	0.307072	-0.234051	0.239787
O17	O	-0.377484	-1.049554	-0.434835
O18	O	-0.127484	-0.799554	-0.184835
O19	O	0.122516	-0.549554	0.065165
O20	O	0.372516	-0.299554	0.315165
O21	O	-0.334650	-1.212504	-0.490300
O22	O	-0.084650	-0.962504	-0.240300
O23	O	0.165350	-0.712504	0.009700
O24	O	0.415350	-0.462504	0.259700
O25	O	-0.413477	-1.104529	-0.233185
O26	O	-0.163477	-0.854529	0.016815
O27	O	0.086523	-0.604529	0.266815
O28	O	0.336523	-0.354529	0.516815
O29	O	-0.209325	-1.006789	-0.379456
O30	O	0.040675	-0.756789	-0.129456
O31	O	0.290675	-0.506789	0.120544
O32	O	0.540675	-0.256789	0.370544
O33	O	-0.420394	-1.217680	-0.379469
O34	O	-0.170394	-0.967680	-0.129469
O35	O	0.079606	-0.717680	0.120531
O36	O	0.329606	-0.467680	0.370531
O37	O	-0.214566	-1.092521	-0.490293
O38	O	0.035434	-0.842521	-0.240293
O39	O	0.285434	-0.592521	0.009707
O40	O	0.535434	-0.342521	0.259707
O41	O	-0.322492	-1.013620	-0.233180
O42	O	-0.072492	-0.763620	0.016820
O43	O	0.177508	-0.513620	0.266820
O44	O	0.427508	-0.263620	0.516820
O45	O	-0.329353	-0.886660	-0.379391
O46	O	-0.079353	-0.636660	-0.129391
O47	O	0.170647	-0.386660	0.120609
O48	O	0.420647	-0.136660	0.370609
O49	O	-0.432455	-0.994525	-0.636462
O50	O	-0.182455	-0.744525	-0.386462
O51	O	0.067545	-0.494525	-0.136462
O52	O	0.317545	-0.244525	0.113538
O53	O	-0.425538	-0.881374	-0.490178
O54	O	-0.175538	-0.631374	-0.240178
O55	O	0.074462	-0.381374	0.009822
O56	O	0.324462	-0.131374	0.259822
O57	O	-0.341511	-1.085544	-0.636511
O58	O	-0.091511	-0.835544	-0.386511
O59	O	0.158489	-0.585544	-0.136511
O60	O	0.408489	-0.335544	0.113489
O61	O	-0.540422	-1.097551	-0.379404
O62	O	-0.290422	-0.847551	-0.129404
O63	O	-0.040422	-0.597551	0.120596
O64	O	0.209578	-0.347551	0.370596
O65	O	-0.545621	-1.001356	-0.490186
O66	O	-0.295621	-0.751356	-0.240186
O67	O	-0.045621	-0.501356	0.009814
O68	O	0.204379	-0.251356	0.259814
C69	C	-0.377440	-0.857147	-0.434777
C70	C	-0.127440	-0.607147	-0.184777
C71	C	0.122560	-0.357147	0.065223
C72	C	0.372560	-0.107147	0.315223
C73	C	-0.377440	-0.774833	-0.434774
C74	C	-0.127440	-0.524833	-0.184774
C75	C	0.122560	-0.274833	0.065226
C76	C	0.372560	-0.024833	0.315226
C77	C	-0.377472	-0.475739	-0.434833
C78	C	-0.127472	-0.225739	-0.184833
C79	C	0.122528	0.024261	0.065167
C80	C	0.372528	0.274261	0.315167
C81	C	-0.316687	-0.510349	-0.365470
C82	C	-0.066687	-0.260349	-0.115470
C83	C	0.183313	-0.010349	0.134530
C84	C	0.433313	0.239651	0.384530
C85	C	-0.316833	-0.595981	-0.365179
C86	C	-0.066833	-0.345981	-0.115179
C87	C	0.183167	-0.095981	0.134821
C88	C	0.433167	0.154019	0.384821
C89	C	-0.377455	-0.624123	-0.434804
C90	C	-0.127455	-0.374123	-0.184804
C91	C	0.122545	-0.124123	0.065196
C92	C	0.372545	0.125877	0.315196
C93	C	-0.454236	-0.594236	-0.408828
C94	C	-0.204236	-0.344236	-0.158828
C95	C	0.045764	-0.094236	0.091172
C96	C	0.295764	0.155764	0.341172
C97	C	-0.453888	-0.508614	-0.408341
C98	C	-0.203888	-0.258614	-0.158341
C99	C	0.046112	-0.008614	0.091659
C100	C	0.296112	0.241386	0.341659
C101	C	-0.362164	-0.502827	-0.530336
C102	C	-0.112164	-0.252827	-0.280336
C103	C	0.137836	-0.002827	-0.030336
C104	C	0.387836	0.247173	0.219664
C105	C	-0.360407	-0.588503	-0.529820
C106	C	-0.110407	-0.338503	-0.279820
C107	C	0.139593	-0.088503	-0.029820
C108	C	0.389593	0.161497	0.220180
C109	C	-0.377451	-0.707983	-0.434788
C110	C	-0.127451	-0.457983	-0.184788
C111	C	0.122549	-0.207983	0.065212
C112	C	0.372549	0.042017	0.315212
C113	C	-0.377481	-0.391879	-0.434846
C114	C	-0.127481	-0.141879	-0.184846
C115	C	0.122519	0.108121	0.065154
C116	C	0.372519	0.358121	0.315154
C117	C	-0.569893	-1.049457	-0.434808
C118	C	-0.319893	-0.799457	-0.184808
C119	C	-0.069893	-0.549457	0.065192
C120	C	0.180107	-0.299457	0.315192
C121	C	-0.652208	-1.049481	-0.434827
C122	C	-0.402208	-0.799481	-0.184827
C123	C	-0.152208	-0.549481	0.065173
C124	C	0.097792	-0.299481	0.315173
C125	C	-0.951301	-1.049641	-0.434876
C126	C	-0.701301	-0.799641	-0.184876
C127	C	-0.451301	-0.549641	0.065124
C128	C	-0.201301	-0.299641	0.315124
C129	C	-0.923286	-0.989242	-0.504750
C130	C	-0.673286	-0.739242	-0.254750
C131	C	-0.423286	-0.489242	-0.004750
C132	C	-0.173286	-0.239242	0.245250
C133	C	-0.837658	-0.988981	-0.504531
C134	C	-0.587658	-0.738981	-0.254531
C135	C	-0.337658	-0.488981	-0.004531
C136	C	-0.087658	-0.238981	0.245469
C137	C	-0.802918	-1.049562	-0.434852
C138	C	-0.552918	-0.799562	-0.184852
C139	C	-0.302918	-0.549562	0.065148
C140	C	-0.052918	-0.299562	0.315148
C141	C	-0.829565	-1.032939	-0.339773
C142	C	-0.579565	-0.782939	-0.089773
C143	C	-0.329565	-0.532939	0.160227
C144	C	-0.079565	-0.282939	0.410227
C145	C	-0.915230	-1.032551	-0.340191
C146	C	-0.665230	-0.782551	-0.090191
C147	C	-0.415230	-0.532551	0.159809
C148	C	-0.165230	-0.282551	0.409809
C149	C	-0.920809	-1.126828	-0.459244
C150	C	-0.670809	-0.876828	-0.209244
C151	C	-0.420809	-0.626828	0.040756
C152	C	-0.170809	-0.376828	0.290756
C153	C	-0.835257	-1.126269	-0.461329
C154	C	-0.585257	-0.876269	-0.211329
C155	C	-0.335257	-0.626269	0.038671
C156	C	-0.085257	-0.376269	0.288671
C157	C	-0.719057	-1.049518	-0.434833
C158	C	-0.469057	-0.799518	-0.184833
C159	C	-0.219057	-0.549518	0.065167
C160	C	0.030943	-0.299518	0.315167
C161	C	-1.035161	-1.049683	-0.434888
C162	C	-0.785161	-0.799683	-0.184888
C163	C	-0.535161	-0.549683	0.065112
C164	C	-0.285161	-0.299683	0.315112
C165	C	-0.184324	-1.049672	-0.434881
C166	C	0.065676	-0.799672	-0.184881
C167	C	0.315676	-0.549672	0.065119
C168	C	0.565676	-0.299672	0.315119
C169	C	-0.102011	-1.049722	-0.434901
C170	C	0.147989	-0.799722	-0.184901
C171	C	0.397989	-0.549722	0.065099
C172	C	0.647989	-0.299722	0.315099
C173	C	-0.388568	-1.038446	-0.670135
C174	C	-0.138568	-0.788446	-0.420135
C175	C	0.111432	-0.538446	-0.170135
C176	C	0.361432	-0.288446	0.079865
C177	C	-0.393292	-1.033712	-0.770406
C178	C	-0.143292	-0.783712	-0.520406
C179	C	0.106708	-0.533712	-0.270406
C180	C	0.356708	-0.283712	-0.020406
C181	C	-0.377513	-0.242714	-0.434879
C182	C	-0.127513	0.007286	-0.184879
C183	C	0.122487	0.257286	0.065121
C184	C	0.372487	0.507286	0.315121
C185	C	-0.377487	-0.325029	-0.434863
C186	C	-0.127487	-0.075029	-0.184863
C187	C	0.122513	0.174971	0.065137
C188	C	0.372513	0.424971	0.315137
C189	C	-0.307451	-1.119593	-0.958878
C190	C	-0.057451	-0.869593	-0.708878
C191	C	0.192549	-0.619593	-0.458878
C192	C	0.442549	-0.369593	-0.208878
C193	C	-0.311886	-1.115148	-1.053092
C194	C	-0.061886	-0.865148	-0.803092
C195	C	0.188114	-0.615148	-0.553092
C196	C	0.438114	-0.365148	-0.303092
C197	C	-0.406594	-1.020372	-1.053048
C198	C	-0.156594	-0.770372	-0.803048
C199	C	0.093406	-0.520372	-0.553048
C200	C	0.343406	-0.270372	-0.303048
C201	C	-0.402158	-1.024818	-0.958834
C202	C	-0.152158	-0.774818	-0.708834
C203	C	0.097842	-0.524818	-0.458834
C204	C	0.347842	-0.274818	-0.208834
C205	C	-0.352586	-1.074431	-0.911753
C206	C	-0.102586	-0.824431	-0.661753
C207	C	0.147414	-0.574431	-0.411753
C208	C	0.397414	-0.324431	-0.161753
C209	C	-0.348155	-1.078879	-0.817538
C210	C	-0.098155	-0.828879	-0.567538
C211	C	0.151845	-0.578879	-0.317538
C212	C	0.401845	-0.328879	-0.067538
C213	C	-0.442858	-0.984101	-0.817495
C214	C	-0.192858	-0.734101	-0.567495
C215	C	0.057142	-0.484101	-0.317495
C216	C	0.307142	-0.234101	-0.067495
C217	C	-0.447294	-0.979655	-0.911709
C218	C	-0.197294	-0.729655	-0.661709
C219	C	0.052706	-0.479655	-0.411709
C220	C	0.302706	-0.229655	-0.161709
C221	C	-0.366389	-1.060662	-0.200450
C222	C	-0.116389	-0.810662	0.049550
C223	C	0.133611	-0.560662	0.299550
C224	C	0.383611	-0.310662	0.549550
C225	C	-0.361457	-1.065540	-0.100180
C226	C	-0.111457	-0.815540	0.149820
C227	C	0.138543	-0.565540	0.399820
C228	C	0.388543	-0.315540	0.649820
H229	H	-0.467400	-0.491911	-0.338524
H230	H	-0.217400	-0.241911	-0.088524
H231	H	0.032600	0.008089	0.161476
H232	H	0.282600	0.258089	0.411476
F233	F	-0.490904	-0.936039	-0.767334
F234	F	-0.240904	-0.686039	-0.517334
F235	F	0.009096	-0.436039	-0.267334
F236	F	0.259096	-0.186039	-0.017334
F237	F	-0.940142	-0.958977	-0.313212
F238	F	-0.690142	-0.708977	-0.063212
F239	F	-0.440142	-0.458977	0.186788
F240	F	-0.190142	-0.208977	0.436788
F241	F	-0.286589	-0.613889	-0.555430
F242	F	-0.036589	-0.363889	-0.305430
F243	F	0.213411	-0.113889	-0.055430
F244	F	0.463411	0.136111	0.194570
H245	H	-0.487652	-0.939261	-0.950055
H246	H	-0.237652	-0.689261	-0.700055
H247	H	0.012348	-0.439261	-0.450055
H248	H	0.262348	-0.189261	-0.200055
F249	F	-0.950518	-0.914792	-0.483931
F250	F	-0.700518	-0.664792	-0.233931
F251	F	-0.450518	-0.414792	0.016069
F252	F	-0.200518	-0.164792	0.266069
H253	H	-0.933405	-1.074879	-0.286353
H254	H	-0.683405	-0.824879	-0.036353
H255	H	-0.433405	-0.574879	0.213647
H256	H	-0.183405	-0.324879	0.463647
H257	H	-0.259756	-0.616250	-0.381461
H258	H	-0.009756	-0.366250	-0.131461
H259	H	0.240244	-0.116250	0.118539
H260	H	0.490244	0.133750	0.368539
H261	H	-0.500546	-0.612281	-0.457770
H262	H	-0.250546	-0.362281	-0.207770
H263	H	-0.000546	-0.112281	0.042230
H264	H	0.249454	0.137719	0.292230
F265	F	-0.241836	-0.482466	-0.386512
F266	F	0.008164	-0.232466	-0.136512
F267	F	0.258164	0.017534	0.113488
F268	F	0.508164	0.267534	0.363488
F269	F	-0.809950	-0.914080	-0.483435
F270	F	-0.559950	-0.664080	-0.233435
F271	F	-0.309950	-0.414080	0.016565
F272	F	-0.059950	-0.164080	0.266565
H273	H	-0.938656	-1.171772	-0.408352
H274	H	-0.688656	-0.921772	-0.158352
H275	H	-0.438656	-0.671772	0.091648
H276	H	-0.188656	-0.421772	0.341648
H277	H	-0.326317	-0.492134	-0.295115
H278	H	-0.076317	-0.242134	-0.045115
H279	H	0.173683	0.007866	0.204885
H280	H	0.423683	0.257866	0.454885
F281	F	-0.812974	-1.142763	-0.552790
F282	F	-0.562974	-0.892763	-0.302790
F283	F	-0.312974	-0.642763	-0.052790
F284	F	-0.062974	-0.392763	0.197210
F285	F	-0.295398	-1.131683	-0.767431
F286	F	-0.045398	-0.881683	-0.517431
F287	F	0.204602	-0.631683	-0.267431
F288	F	0.454602	-0.381683	-0.017431
F289	F	-0.290562	-0.473171	-0.561202
F290	F	-0.040562	-0.223171	-0.311202
F291	F	0.209438	0.026829	-0.061202
F292	F	0.459438	0.276829	0.188798
H293	H	-0.275131	-1.151922	-1.091458
H294	H	-0.025131	-0.901922	-0.841458
H295	H	0.224869	-0.651922	-0.591458
H296	H	0.474869	-0.401922	-0.341458
F297	F	-0.459343	-0.967571	-1.103170
F298	F	-0.209343	-0.717571	-0.853170
F299	F	0.040657	-0.467571	-0.603170
F300	F	0.290657	-0.217571	-0.353170
F301	F	-0.954523	-1.001964	-0.597199
F302	F	-0.704523	-0.751964	-0.347199
F303	F	-0.454523	-0.501964	-0.097199
F304	F	-0.204523	-0.251964	0.152801
F305	F	-0.799640	-1.088889	-0.269866
F306	F	-0.549640	-0.838889	-0.019866
F307	F	-0.299640	-0.588889	0.230134
F308	F	-0.049640	-0.338889	0.480134
H309	H	-0.811617	-1.173288	-0.414147
H310	H	-0.561617	-0.923288	-0.164147
H311	H	-0.311617	-0.673288	0.085853
H312	H	-0.061617	-0.423288	0.335853
H313	H	-0.945586	-1.142862	-0.527395
H314	H	-0.695586	-0.892862	-0.277395
H315	H	-0.445586	-0.642862	-0.027395
H316	H	-0.195586	-0.392862	0.222605
F317	F	-0.800308	-0.960179	-0.312309
F318	F	-0.550308	-0.710179	-0.062309
F319	F	-0.300308	-0.460179	0.187691
F320	F	-0.050308	-0.210179	0.437691
F321	F	-0.254700	-1.172401	-0.908769
F322	F	-0.004700	-0.922401	-0.658769
F323	F	0.245300	-0.672401	-0.408769
F324	F	0.495300	-0.422401	-0.158769
H325	H	-0.326594	-0.619789	-0.294414
H326	H	-0.076594	-0.369789	-0.044414
H327	H	0.173406	-0.119789	0.205586
H328	H	0.423406	0.130211	0.455586
H329	H	-0.500469	-0.485602	-0.456659
H330	H	-0.250469	-0.235602	-0.206659
H331	H	-0.000469	0.014398	0.043341
H332	H	0.249531	0.264398	0.293341
H333	H	-0.468077	-0.618923	-0.339767
H334	H	-0.218077	-0.368923	-0.089767
H335	H	0.031923	-0.118923	0.160233
H336	H	0.281923	0.131077	0.410233
H337	H	-0.401816	-0.607327	-0.584272
H338	H	-0.151816	-0.357327	-0.334272
H339	H	0.098184	-0.107327	-0.084272
H340	H	0.348184	0.142673	0.165728
H341	H	-0.406492	-0.480122	-0.582018
H342	H	-0.156492	-0.230122	-0.332018
H343	H	0.093508	0.019878	-0.082018
H344	H	0.343508	0.269878	0.167982
H345	H	-0.819933	-0.998860	-0.575031
H346	H	-0.569933	-0.748860	-0.325031
H347	H	-0.319933	-0.498860	-0.075031
H348	H	-0.069933	-0.248860	0.174969
