data_functionalizedCrystal
_audit_creation_method	'MofGen! by Chris Wilmer'
_symmetry_space_group_name_H-M	'P1'
_symmetry_Int_Tables_number	1
_symmetry_cell_setting	triclinic
loop_
_symmetry_equiv_pos_as_xyz
  x,y,z
_cell_length_a	17.019448
_cell_length_b	14.519709
_cell_length_c	13.596369
_cell_angle_alpha	89.987237
_cell_angle_beta	86.129945
_cell_angle_gamma	83.540803
loop_
_atom_site_label
_atom_site_type_symbol
_atom_site_fract_x
_atom_site_fract_y
_atom_site_fract_z
O1	O	0.103404	1.223526	0.072916
O2	O	0.115581	0.955011	0.071916
O3	O	-0.005326	1.096748	0.082122
O4	O	0.224310	1.081789	0.062711
O5	O	-0.005333	1.096768	-0.081461
O6	O	0.115574	0.955030	-0.091666
O7	O	0.103397	1.223546	-0.090666
Zn8	Zn	0.109484	1.089291	-0.117138
Zn9	Zn	0.109493	1.089266	0.098389
O10	O	0.224303	1.081808	-0.100871
C11	C	0.115010	0.920663	-0.009823
C12	C	0.113309	0.818287	-0.009668
C13	C	0.107048	0.443411	-0.009183
C14	C	0.108787	0.547713	-0.009318
C15	C	0.110178	0.630845	-0.009425
C16	C	0.111917	0.735154	-0.009561
C17	C	-0.034719	1.096187	0.002817
C18	C	-0.122289	1.094475	0.010226
C19	C	-0.617575	1.084872	0.056710
C20	C	-0.535292	1.086472	0.049729
C21	C	-0.494171	1.087276	-0.042931
C22	C	-0.535337	1.086488	-0.128615
C23	C	-0.617618	1.084895	-0.121632
C24	C	-0.245736	1.092093	-0.068475
C25	C	-0.163448	1.093684	-0.075451
C26	C	-0.163410	1.093670	0.102893
C27	C	-0.245692	1.092071	0.109867
C28	C	-0.286852	1.091289	0.024184
C29	C	-0.410065	1.088908	-0.050070
C30	C	-0.370957	1.089662	0.031323
C31	C	0.253696	1.082370	-0.021564
C32	C	0.341266	1.084082	-0.028967
C33	C	0.103968	1.257894	-0.008924
C34	C	0.105668	1.360270	-0.009073
N35	N	0.109494	1.089249	0.245480
C36	C	0.109494	1.089251	0.334478
C37	C	0.109493	1.089263	0.446130
C38	C	0.109487	1.089278	0.535121
C39	C	0.109484	1.089289	0.646779
N40	N	0.109479	1.089304	0.735770
H41	H	-0.651049	1.084209	0.132164
H42	H	-0.129966	1.094311	-0.150910
C43	C	-0.490019	1.087330	0.143979
C44	C	-0.510153	1.167136	0.219250
C45	C	-0.464882	1.167992	0.313506
C46	C	-0.399477	1.089041	0.332491
C47	C	-0.379341	1.009228	0.257217
C48	C	-0.424612	1.008373	0.162961
H49	H	-0.558572	1.225586	0.205198
H50	H	-0.479789	1.227075	0.369228
H51	H	-0.365965	1.089674	0.402265
H52	H	-0.330922	0.950779	0.271269
H53	H	-0.409705	0.949290	0.107239
H54	H	-0.501849	1.087148	-0.204060
H55	H	-0.279169	1.091423	0.185321
H56	H	-0.651129	1.084251	-0.191400
H57	H	-0.404442	1.089013	0.106767
H58	H	-0.129889	1.094308	0.172652
H59	H	-0.376574	1.089560	-0.125514
H60	H	-0.279238	1.091458	-0.138245
