data_functionalizedCrystal
_audit_creation_method	'MofGen! by Chris Wilmer'
_symmetry_space_group_name_H-M	'P1'
_symmetry_Int_Tables_number	1
_symmetry_cell_setting	triclinic
loop_
_symmetry_equiv_pos_as_xyz
  x,y,z
_cell_length_a	17.699083
_cell_length_b	17.038272
_cell_length_c	16.176319
_cell_angle_alpha	89.993159
_cell_angle_beta	89.998611
_cell_angle_gamma	87.197286
loop_
_atom_site_label
_atom_site_type_symbol
_atom_site_fract_x
_atom_site_fract_y
_atom_site_fract_z
O1	O	1.010620	0.098861	-0.068631
O2	O	1.343954	0.432194	0.264703
O3	O	1.677287	0.765528	0.598036
O4	O	0.791093	0.111723	-0.068658
O5	O	1.124426	0.445056	0.264675
O6	O	1.457760	0.778390	0.598009
O7	O	0.899552	-0.008521	-0.068638
O8	O	1.232885	0.324812	0.264695
O9	O	1.566219	0.658145	0.598029
O10	O	0.902161	0.219105	-0.068651
O11	O	1.235495	0.552439	0.264683
O12	O	1.568828	0.885772	0.598016
O13	O	0.899535	-0.008529	0.068855
O14	O	1.232869	0.324805	0.402189
O15	O	1.566202	0.658138	0.735522
O16	O	0.791077	0.111715	0.068835
O17	O	1.124410	0.445049	0.402169
O18	O	1.457743	0.778382	0.735502
O19	O	1.010604	0.098853	0.068862
O20	O	1.343937	0.432187	0.402196
O21	O	1.677271	0.765520	0.735529
Cu22	Cu	0.900839	0.105284	0.081403
Cu23	Cu	1.234172	0.438617	0.414736
Cu24	Cu	1.567505	0.771950	0.748070
Cu25	Cu	0.900858	0.105293	-0.081199
Cu26	Cu	1.234192	0.438626	0.252135
Cu27	Cu	1.567525	0.771959	0.585468
O28	O	0.902145	0.219098	0.068842
O29	O	1.235478	0.552431	0.402176
O30	O	1.568812	0.885764	0.735509
C31	C	0.762857	0.111258	0.000085
C32	C	1.096191	0.444592	0.333419
C33	C	1.429524	0.777925	0.666752
C34	C	0.678748	0.109876	0.000075
C35	C	1.012081	0.443209	0.333408
C36	C	1.345414	0.776542	0.666742
C37	C	0.634797	0.180457	0.000071
C38	C	0.968130	0.513790	0.333405
C39	C	1.301464	0.847123	0.666738
C40	C	0.555767	0.179153	0.000082
C41	C	0.889101	0.512486	0.333415
C42	C	1.222434	0.845819	0.666749
C43	C	0.520690	0.107267	0.000091
C44	C	0.854023	0.440601	0.333424
C45	C	1.187357	0.773934	0.666757
C46	C	0.564647	0.036681	0.000097
C47	C	0.897980	0.370014	0.333430
C48	C	1.231313	0.703348	0.666764
C49	C	0.643675	0.037986	0.000092
C50	C	0.977008	0.371319	0.333425
C51	C	1.310341	0.704652	0.666759
C52	C	0.245935	0.031418	0.000118
C53	C	0.579269	0.364752	0.333451
C54	C	0.912602	0.698085	0.666784
C55	C	0.166901	0.030119	0.000120
C56	C	0.500235	0.363452	0.333453
C57	C	0.833568	0.696786	0.666787
C58	C	0.158028	0.172585	0.000108
C59	C	0.491361	0.505919	0.333441
C60	C	0.824695	0.839252	0.666774
C61	C	0.237056	0.173890	0.000103
C62	C	0.570390	0.507223	0.333436
C63	C	0.903723	0.840557	0.666769
C64	C	0.281006	0.103304	0.000113
C65	C	0.614339	0.436637	0.333447
C66	C	0.947672	0.769971	0.666780
C67	C	0.366699	0.104719	0.000103
C68	C	0.700032	0.438052	0.333437
C69	C	1.033365	0.771385	0.666770
C70	C	0.434999	0.105852	0.000095
C71	C	0.768332	0.439185	0.333428
C72	C	1.101665	0.772519	0.666762
C73	C	0.897170	-0.037649	0.000108
C74	C	1.230504	0.295684	0.333442
C75	C	1.563837	0.629017	0.666775
C76	C	0.890090	-0.124431	0.000107
C77	C	1.223423	0.208903	0.333440
C78	C	1.556756	0.542236	0.666774
C79	C	0.955100	-0.174651	0.000116
C80	C	1.288433	0.158683	0.333449
C81	C	1.621767	0.492016	0.666783
C82	C	0.948442	-0.256191	0.000107
C83	C	1.281776	0.077143	0.333441
C84	C	1.615109	0.410476	0.666774
C85	C	0.876773	-0.287509	0.000096
C86	C	1.210107	0.045825	0.333429
C87	C	1.543440	0.379158	0.666762
C88	C	0.811758	-0.237282	0.000084
C89	C	1.145092	0.096051	0.333418
C90	C	1.478425	0.429385	0.666751
C91	C	0.818417	-0.155744	0.000087
C92	C	1.151750	0.177589	0.333420
C93	C	1.485083	0.510923	0.666754
C94	C	0.853251	-0.533228	0.000081
C95	C	1.186584	-0.199895	0.333415
C96	C	1.519917	0.133439	0.666748
C97	C	0.846597	-0.614773	0.000081
C98	C	1.179930	-0.281439	0.333415
C99	C	1.513264	0.051894	0.666748
C100	C	0.983282	-0.633676	0.000103
C101	C	1.316615	-0.300342	0.333436
C102	C	1.649948	0.032991	0.666769
C103	C	0.989934	-0.552135	0.000110
C104	C	1.323267	-0.218802	0.333444
C105	C	1.656600	0.114532	0.666777
C106	C	0.924919	-0.501916	0.000095
C107	C	1.258252	-0.168582	0.333428
C108	C	1.591585	0.164751	0.666761
C109	C	0.869967	-0.370855	0.000089
C110	C	1.203300	-0.037522	0.333423
C111	C	1.536633	0.295812	0.666756
C112	C	0.931726	-0.418571	0.000095
C113	C	1.265059	-0.085238	0.333428
C114	C	1.598393	0.248096	0.666762
C115	C	1.038840	0.099318	0.000117
C116	C	1.372173	0.432651	0.333451
C117	C	1.705506	0.765985	0.666784
C118	C	1.122949	0.100701	0.000122
C119	C	1.456282	0.434034	0.333455
C120	C	1.789616	0.767367	0.666789
C121	C	0.904526	0.248226	0.000094
C122	C	1.237860	0.581559	0.333428
C123	C	1.571193	0.914893	0.666761
C124	C	0.911607	0.335007	0.000090
C125	C	1.244941	0.668341	0.333423
C126	C	1.578274	1.001674	0.666757
N127	N	0.900830	0.105277	0.195768
N128	N	1.234164	0.438610	0.529102
N129	N	1.567497	0.771944	0.862435
N130	N	0.900872	0.105293	-0.195564
N131	N	1.234205	0.438627	0.137770
N132	N	1.567539	0.771960	0.471103
C133	C	0.948873	0.052054	0.239041
C134	C	1.282206	0.385388	0.572375
C135	C	1.615540	0.718721	0.905708
C136	C	0.948877	0.052054	0.325588
C137	C	1.282210	0.385387	0.658922
C138	C	1.615543	0.718720	0.992255
C139	C	0.900841	0.105280	0.368861
C140	C	1.234175	0.438613	0.702194
C141	C	1.567508	0.771946	1.035527
C142	C	0.852793	0.158505	0.325582
C143	C	1.186127	0.491838	0.658915
C144	C	1.519460	0.825171	0.992248
C145	C	0.852786	0.158501	0.239036
C146	C	1.186120	0.491834	0.572370
C147	C	1.519453	0.825168	0.905703
C148	C	0.852820	0.158519	0.674610
C149	C	1.186154	0.491853	1.007943
C150	C	1.519487	0.825186	1.341277
C151	C	0.852833	0.158520	0.761162
C152	C	1.186166	0.491854	1.094495
C153	C	1.519499	0.825187	1.427828
C154	C	0.948911	0.052072	0.761162
C155	C	1.282244	0.385405	1.094495
C156	C	1.615577	0.718738	1.427829
C157	C	0.948904	0.052068	0.674617
C158	C	1.282237	0.385402	1.007950
C159	C	1.615570	0.718735	1.341283
C160	C	0.900853	0.105290	0.631345
C161	C	1.234187	0.438623	0.964678
C162	C	1.567520	0.771957	1.298012
C163	C	0.900849	0.105289	0.537501
C164	C	1.234182	0.438623	0.870834
C165	C	1.567515	0.771956	1.204168
C166	C	0.900849	0.105285	0.462703
C167	C	1.234183	0.438618	0.796037
C168	C	1.567516	0.771951	1.129370
H169	H	0.265612	0.232426	0.000092
H170	H	0.598945	0.565760	0.333425
H171	H	0.932279	0.899093	0.666759
H172	H	0.813678	0.201840	0.360819
H173	H	1.147011	0.535173	0.694153
H174	H	1.480345	0.868506	1.027486
H175	H	0.987996	0.008715	0.360821
H176	H	1.321329	0.342049	0.694154
H177	H	1.654663	0.675382	1.027488
H178	H	0.138344	-0.028422	0.000128
H179	H	0.471678	0.304911	0.333461
H180	H	0.805011	0.638245	0.666795
H181	H	0.788233	-0.640268	0.000085
H182	H	1.121566	-0.306935	0.333418
H183	H	1.454900	0.026399	0.666752
H184	H	0.800310	-0.492349	0.000069
H185	H	1.133643	-0.159015	0.333402
H186	H	1.466977	0.174318	0.666736
H187	H	0.519986	0.236627	0.000078
H188	H	0.853319	0.569960	0.333411
H189	H	1.186653	0.903294	0.666745
O190	O	1.000706	-0.005350	0.627949
O191	O	1.334040	0.327983	0.961282
O192	O	1.667373	0.661317	1.294615
H193	H	0.992631	0.003591	0.560498
H194	H	1.325964	0.336924	0.893831
H195	H	1.659298	0.670257	1.227165
O196	O	1.000732	-0.005343	0.807832
O197	O	1.334066	0.327990	1.141165
O198	O	1.667399	0.661324	1.474498
H199	H	0.992664	0.003591	0.875282
H200	H	1.325997	0.336925	1.208616
H201	H	1.659331	0.670258	1.541949
O202	O	0.293332	-0.044711	0.000121
O203	O	0.626665	0.288622	0.333454
O204	O	0.959998	0.621956	0.666787
H205	H	0.329544	-0.047532	0.056164
H206	H	0.662877	0.285802	0.389498
H207	H	0.996210	0.619135	0.722831
H208	H	0.813714	0.201865	0.796393
H209	H	1.147047	0.535198	1.129726
H210	H	1.480380	0.868531	1.463059
H211	H	0.663351	0.238994	0.000064
H212	H	0.996684	0.572327	0.333397
H213	H	1.330018	0.905661	0.666730
H214	H	0.753404	-0.262788	0.000070
H215	H	1.086737	0.070546	0.333403
H216	H	1.420071	0.403879	0.666736
O217	O	1.053403	-0.687839	0.000118
O218	O	1.386736	-0.354505	0.333452
O219	O	1.720070	-0.021172	0.666785
H220	H	1.053653	-0.725430	-0.055925
H221	H	1.386986	-0.392096	0.277408
H222	H	1.720320	-0.058763	0.610742
O223	O	0.748300	-0.101572	0.000086
O224	O	1.081633	0.231762	0.333420
O225	O	1.414966	0.565095	0.666753
H226	H	0.697345	-0.137046	0.000088
H227	H	1.030678	0.196287	0.333421
H228	H	1.364011	0.529621	0.666754
O229	O	0.526819	-0.040856	0.000109
O230	O	0.860152	0.292477	0.333442
O231	O	1.193486	0.625811	0.666776
H232	H	0.464482	-0.029907	0.000104
H233	H	0.797815	0.303426	0.333438
H234	H	1.131148	0.636759	0.666771
H235	H	0.990079	-0.393068	0.000086
H236	H	1.323412	-0.059735	0.333420
H237	H	1.656745	0.273598	0.666753
O238	O	0.792669	-0.404639	0.000095
O239	O	1.126002	-0.071306	0.333428
O240	O	1.459336	0.262027	0.666761
H241	H	0.786374	-0.441336	-0.055942
H242	H	1.119707	-0.108003	0.277391
H243	H	1.453040	0.225331	0.610725
H244	H	0.987992	0.008715	0.203814
H245	H	1.321326	0.342048	0.537148
H246	H	1.654659	0.675382	0.870481
O247	O	0.691085	-0.038140	0.000093
O248	O	1.024418	0.295194	0.333427
O249	O	1.357751	0.628527	0.666760
H250	H	0.653418	-0.088346	0.000093
H251	H	0.986751	0.244987	0.333426
H252	H	1.320085	0.578320	0.666759
H253	H	0.813664	0.201839	0.203804
H254	H	1.146998	0.535172	0.537137
H255	H	1.480331	0.868506	0.870471
H256	H	0.813698	0.201856	0.639385
H257	H	1.147031	0.535189	0.972718
H258	H	1.480364	0.868522	1.306052
H259	H	0.122235	0.230060	0.000104
H260	H	0.455568	0.563393	0.333437
H261	H	0.788901	0.896726	0.666770
H262	H	1.001381	-0.297077	0.000116
H263	H	1.334714	0.036256	0.333450
H264	H	1.668047	0.369590	0.666783
O265	O	1.032402	-0.140878	0.000119
O266	O	1.365736	0.192456	0.333453
O267	O	1.699069	0.525789	0.666786
H268	H	1.063894	-0.161074	0.056157
H269	H	1.397228	0.172260	0.389490
H270	H	1.730561	0.505593	0.722823
O271	O	1.067233	-0.518355	0.000103
O272	O	1.400567	-0.185022	0.333436
O273	O	1.733900	0.148311	0.666769
H274	H	1.111322	-0.566976	0.000095
H275	H	1.444656	-0.233643	0.333428
H276	H	1.777989	0.099690	0.666762
