data_functionalizedCrystal
_audit_creation_method	'MofGen! by Chris Wilmer'
_symmetry_space_group_name_H-M	'P1'
_symmetry_Int_Tables_number	1
_symmetry_cell_setting	triclinic
loop_
_symmetry_equiv_pos_as_xyz
  x,y,z
_cell_length_a	25.639242
_cell_length_b	25.639240
_cell_length_c	19.805399
_cell_angle_alpha	90.035908
_cell_angle_beta	90.027395
_cell_angle_gamma	90.028283
loop_
_atom_site_label
_atom_site_type_symbol
_atom_site_fract_x
_atom_site_fract_y
_atom_site_fract_z
Zn1	Zn	0.799274	-0.208225	0.382822
Zn2	Zn	1.049274	0.041775	0.632822
Zn3	Zn	1.299274	0.291775	0.882822
Zn4	Zn	1.549274	0.541775	1.132822
Zn5	Zn	0.799198	-0.295659	0.269617
Zn6	Zn	1.049198	-0.045659	0.519617
Zn7	Zn	1.299198	0.204341	0.769617
Zn8	Zn	1.549198	0.454341	1.019617
Zn9	Zn	0.711842	-0.208233	0.269631
Zn10	Zn	0.961842	0.041767	0.519631
Zn11	Zn	1.211842	0.291767	0.769631
Zn12	Zn	1.461842	0.541767	1.019631
Zn13	Zn	0.711804	-0.295625	0.382748
Zn14	Zn	0.961804	-0.045625	0.632748
Zn15	Zn	1.211804	0.204375	0.882748
Zn16	Zn	1.461804	0.454375	1.132748
O17	O	0.755529	-0.251936	0.326204
O18	O	1.005529	-0.001936	0.576204
O19	O	1.255529	0.248064	0.826204
O20	O	1.505529	0.498064	1.076204
O21	O	0.872429	-0.219835	0.367830
O22	O	1.122429	0.030165	0.617830
O23	O	1.372429	0.280165	0.867830
O24	O	1.622429	0.530165	1.117830
O25	O	0.787594	-0.284080	0.174902
O26	O	1.037594	-0.034080	0.424902
O27	O	1.287594	0.215920	0.674902
O28	O	1.537594	0.465920	0.924902
O29	O	0.723487	-0.135067	0.284682
O30	O	0.973487	0.114933	0.534682
O31	O	1.223487	0.364933	0.784682
O32	O	1.473487	0.614933	1.034682
O33	O	0.872373	-0.284072	0.284659
O34	O	1.122373	-0.034072	0.534659
O35	O	1.372373	0.215928	0.784659
O36	O	1.622373	0.465928	1.034659
O37	O	0.787723	-0.135061	0.367843
O38	O	1.037723	0.114939	0.617843
O39	O	1.287723	0.364939	0.867843
O40	O	1.537723	0.614939	1.117843
O41	O	0.723414	-0.219848	0.174912
O42	O	0.973414	0.030152	0.424912
O43	O	1.223414	0.280152	0.674912
O44	O	1.473414	0.530152	0.924912
O45	O	0.638672	-0.219814	0.284611
O46	O	0.888672	0.030186	0.534611
O47	O	1.138672	0.280186	0.784611
O48	O	1.388672	0.530186	1.034611
O49	O	0.723423	-0.284013	0.477475
O50	O	0.973423	-0.034013	0.727475
O51	O	1.223423	0.215987	0.977475
O52	O	1.473423	0.465987	1.227475
O53	O	0.638644	-0.284021	0.367718
O54	O	0.888644	-0.034021	0.617718
O55	O	1.138644	0.215979	0.867718
O56	O	1.388644	0.465979	1.117718
O57	O	0.787686	-0.219801	0.477529
O58	O	1.037686	0.030199	0.727529
O59	O	1.287686	0.280199	0.977529
O60	O	1.537686	0.530199	1.227529
O61	O	0.787558	-0.368820	0.284588
O62	O	1.037558	-0.118820	0.534588
O63	O	1.287558	0.131180	0.784588
O64	O	1.537558	0.381180	1.034588
O65	O	0.723350	-0.368794	0.367705
O66	O	0.973350	-0.118794	0.617705
O67	O	1.223350	0.131206	0.867705
O68	O	1.473350	0.381206	1.117705
C69	C	0.619687	-0.251915	0.326159
C70	C	0.869687	-0.001915	0.576159
C71	C	1.119687	0.248085	0.826159
C72	C	1.369687	0.498085	1.076159
C73	C	0.561573	-0.251919	0.326155
C74	C	0.811573	-0.001919	0.576155
C75	C	1.061573	0.248081	0.826155
C76	C	1.311573	0.498081	1.076155
C77	C	0.201204	-0.285424	0.369437
C78	C	0.451204	-0.035424	0.619437
C79	C	0.701204	0.214576	0.869437
C80	C	0.951204	0.464576	1.119437
C81	C	0.146600	-0.285427	0.369448
C82	C	0.396600	-0.035427	0.619448
C83	C	0.646600	0.214573	0.869448
C84	C	0.896600	0.464573	1.119448
O85	O	0.118358	-0.313888	0.406209
O86	O	0.368358	-0.063888	0.656209
O87	O	0.618358	0.186112	0.906209
O88	O	0.868358	0.436112	1.156209
N89	N	0.119290	-0.251950	0.326249
N90	N	0.369290	-0.001950	0.576249
N91	N	0.619290	0.248050	0.826249
N92	N	0.869290	0.498050	1.076249
C93	C	0.146588	-0.218464	0.283041
C94	C	0.396588	0.031536	0.533041
C95	C	0.646588	0.281536	0.783041
C96	C	0.896588	0.531536	1.033041
O97	O	0.118345	-0.189989	0.246298
O98	O	0.368345	0.060011	0.496298
O99	O	0.618345	0.310011	0.746298
O100	O	0.868345	0.560011	0.996298
C101	C	0.201191	-0.218458	0.283034
C102	C	0.451191	0.031542	0.533034
C103	C	0.701191	0.281542	0.783034
C104	C	0.951191	0.531542	1.033034
C105	C	0.228498	-0.251941	0.326231
C106	C	0.478498	-0.001941	0.576231
C107	C	0.728498	0.248059	0.826231
C108	C	0.978498	0.498059	1.076231
C109	C	0.228511	-0.318903	0.412631
C110	C	0.478511	-0.068903	0.662631
C111	C	0.728511	0.181097	0.912631
C112	C	0.978511	0.431097	1.162631
C113	C	0.283111	-0.318901	0.412620
C114	C	0.533111	-0.068901	0.662620
C115	C	0.783111	0.181099	0.912620
C116	C	1.033111	0.431099	1.162620
C117	C	0.310405	-0.285418	0.369414
C118	C	0.560405	-0.035418	0.619414
C119	C	0.810405	0.214582	0.869414
C120	C	1.060405	0.464582	1.119414
C121	C	0.283099	-0.251939	0.326219
C122	C	0.533099	-0.001939	0.576219
C123	C	0.783099	0.248061	0.826219
C124	C	1.033099	0.498061	1.076219
C125	C	0.228488	-0.184970	0.239830
C126	C	0.478488	0.065030	0.489830
C127	C	0.728488	0.315030	0.739830
C128	C	0.978488	0.565030	0.989830
C129	C	0.283095	-0.184967	0.239827
C130	C	0.533095	0.065033	0.489827
C131	C	0.783095	0.315033	0.739827
C132	C	1.033095	0.565033	0.989827
C133	C	0.310402	-0.218450	0.283025
C134	C	0.560402	0.031550	0.533025
C135	C	0.810402	0.281550	0.783025
C136	C	1.060402	0.531550	1.033025
C137	C	0.364993	-0.218454	0.283002
C138	C	0.614993	0.031546	0.533002
C139	C	0.864993	0.281546	0.783002
C140	C	1.114993	0.531546	1.033002
N141	N	0.392302	-0.251931	0.326201
N142	N	0.642302	-0.001931	0.576201
N143	N	0.892302	0.248069	0.826201
N144	N	1.142302	0.498069	1.076201
C145	C	0.365009	-0.285413	0.369407
C146	C	0.615009	-0.035413	0.619407
C147	C	0.865009	0.214587	0.869407
C148	C	1.115009	0.464587	1.119407
C149	C	0.031917	-0.218477	0.283059
C150	C	0.281917	0.031523	0.533059
C151	C	0.531917	0.281523	0.783059
C152	C	0.781917	0.531523	1.033059
C153	C	-0.022685	-0.218485	0.283062
C154	C	0.227315	0.031515	0.533062
C155	C	0.477315	0.281515	0.783062
C156	C	0.727315	0.531515	1.033062
C157	C	-0.022669	-0.285447	0.369470
C158	C	0.227331	-0.035447	0.619470
C159	C	0.477331	0.214553	0.869470
C160	C	0.727331	0.464553	1.119470
C161	C	0.031934	-0.285442	0.369463
C162	C	0.281934	-0.035442	0.619463
C163	C	0.531934	0.214558	0.869463
C164	C	0.781934	0.464558	1.119463
C165	C	0.059227	-0.251954	0.326258
C166	C	0.309227	-0.001954	0.576258
C167	C	0.559227	0.248046	0.826258
C168	C	0.809227	0.498046	1.076258
C169	C	0.479674	-0.285405	0.369379
C170	C	0.729674	-0.035405	0.619379
C171	C	0.979674	0.214595	0.869379
C172	C	1.229674	0.464595	1.119379
C173	C	0.534279	-0.285401	0.369361
C174	C	0.784279	-0.035401	0.619361
C175	C	1.034279	0.214599	0.869361
C176	C	1.284279	0.464599	1.119361
C177	C	0.534259	-0.218437	0.282956
C178	C	0.784259	0.031563	0.532956
C179	C	1.034259	0.281563	0.782956
C180	C	1.284259	0.531563	1.032956
C181	C	0.479658	-0.218443	0.282970
C182	C	0.729658	0.031557	0.532970
C183	C	0.979658	0.281557	0.782970
C184	C	1.229658	0.531557	1.032970
C185	C	0.452367	-0.251929	0.326187
C186	C	0.702367	-0.001929	0.576187
C187	C	0.952367	0.248071	0.826187
C188	C	1.202367	0.498071	1.076187
O189	O	0.393269	-0.190005	0.246261
O190	O	0.643269	0.059995	0.496261
O191	O	0.893269	0.309995	0.746261
O192	O	1.143269	0.559995	0.996261
O193	O	0.393258	-0.313878	0.406150
O194	O	0.643258	-0.063878	0.656150
O195	O	0.893258	0.186122	0.906150
O196	O	1.143258	0.436122	1.156150
C197	C	0.755456	-0.387778	0.326151
C198	C	1.005456	-0.137778	0.576151
C199	C	1.255456	0.112222	0.826151
C200	C	1.505456	0.362222	1.076151
C201	C	0.755472	-0.445892	0.326151
C202	C	1.005472	-0.195892	0.576151
C203	C	1.255472	0.054108	0.826151
C204	C	1.505472	0.304108	1.076151
C205	C	0.788994	-0.806214	0.369584
C206	C	1.038994	-0.556214	0.619584
C207	C	1.288994	-0.306214	0.869584
C208	C	1.538994	-0.056214	1.119584
C209	C	0.789009	-0.860818	0.369598
C210	C	1.039009	-0.610818	0.619598
C211	C	1.289009	-0.360818	0.869598
C212	C	1.539009	-0.110818	1.119598
O213	O	0.817423	-0.889020	0.406472
O214	O	1.067423	-0.639020	0.656472
O215	O	1.317423	-0.389020	0.906472
O216	O	1.567423	-0.139020	1.156472
N217	N	0.755602	-0.888175	0.326270
N218	N	1.005602	-0.638175	0.576270
N219	N	1.255602	-0.388175	0.826270
N220	N	1.505602	-0.138175	1.076270
C221	C	0.722174	-0.860924	0.282930
C222	C	0.972174	-0.610924	0.532930
C223	C	1.222174	-0.360924	0.782930
C224	C	1.472174	-0.110924	1.032930
O225	O	0.693759	-0.889207	0.246077
O226	O	0.943759	-0.639207	0.496077
O227	O	1.193759	-0.389207	0.746077
O228	O	1.443759	-0.139207	0.996077
C229	C	0.722156	-0.806321	0.282920
C230	C	0.972156	-0.556321	0.532920
C231	C	1.222156	-0.306321	0.782920
C232	C	1.472156	-0.056321	1.032920
C233	C	0.755569	-0.778967	0.326246
C234	C	1.005569	-0.528967	0.576246
C235	C	1.255569	-0.278967	0.826246
C236	C	1.505569	-0.028967	1.076246
C237	C	0.822403	-0.778860	0.412908
C238	C	1.072403	-0.528860	0.662908
C239	C	1.322403	-0.278860	0.912908
C240	C	1.572403	-0.028860	1.162908
C241	C	0.822388	-0.724260	0.412893
C242	C	1.072388	-0.474260	0.662893
C243	C	1.322388	-0.224260	0.912893
C244	C	1.572388	0.025740	1.162893
C245	C	0.788964	-0.697013	0.369555
C246	C	1.038964	-0.447013	0.619555
C247	C	1.288964	-0.197013	0.869555
C248	C	1.538964	0.052987	1.119555
C249	C	0.755554	-0.724366	0.326231
C250	C	1.005554	-0.474366	0.576231
C251	C	1.255554	-0.224366	0.826231
C252	C	1.505554	0.025634	1.076231
C253	C	0.688725	-0.779071	0.239584
C254	C	0.938725	-0.529071	0.489584
C255	C	1.188725	-0.279071	0.739584
C256	C	1.438725	-0.029071	0.989584
C257	C	0.688710	-0.724464	0.239578
C258	C	0.938710	-0.474464	0.489578
C259	C	1.188710	-0.224464	0.739578
C260	C	1.438710	0.025536	0.989578
C261	C	0.722123	-0.697110	0.282904
C262	C	0.972123	-0.447110	0.532904
C263	C	1.222123	-0.197110	0.782904
C264	C	1.472123	0.052890	1.032904
C265	C	0.722115	-0.642519	0.282879
C266	C	0.972115	-0.392519	0.532879
C267	C	1.222115	-0.142519	0.782879
C268	C	1.472115	0.107481	1.032879
N269	N	0.755522	-0.615163	0.326207
N270	N	1.005522	-0.365163	0.576207
N271	N	1.255522	-0.115163	0.826207
N272	N	1.505522	0.134837	1.076207
C273	C	0.788946	-0.642409	0.369545
C274	C	1.038946	-0.392409	0.619545
C275	C	1.288946	-0.142409	0.869545
C276	C	1.538946	0.107591	1.119545
C277	C	0.722213	-0.975594	0.282955
C278	C	0.972213	-0.725594	0.532955
C279	C	1.222213	-0.475594	0.782955
C280	C	1.472213	-0.225594	1.032955
C281	C	0.722233	-1.030197	0.282961
C282	C	0.972233	-0.780197	0.532961
C283	C	1.222233	-0.530197	0.782961
C284	C	1.472233	-0.280197	1.032961
C285	C	0.789067	-1.030087	0.369630
C286	C	1.039067	-0.780087	0.619630
C287	C	1.289067	-0.530087	0.869630
C288	C	1.539067	-0.280087	1.119630
C289	C	0.789050	-0.975484	0.369620
C290	C	1.039050	-0.725484	0.619620
C291	C	1.289050	-0.475484	0.869620
C292	C	1.539050	-0.225484	1.119620
C293	C	0.755620	-0.948238	0.326283
C294	C	1.005620	-0.698238	0.576283
C295	C	1.255620	-0.448238	0.826283
C296	C	1.505620	-0.198238	1.076283
C297	C	0.788913	-0.527744	0.369510
C298	C	1.038913	-0.277744	0.619510
C299	C	1.288913	-0.027744	0.869510
C300	C	1.538913	0.222256	1.119510
C301	C	0.788896	-0.473139	0.369489
C302	C	1.038896	-0.223139	0.619489
C303	C	1.288896	0.026861	0.869489
C304	C	1.538896	0.276861	1.119489
C305	C	0.722060	-0.473253	0.282823
C306	C	0.972060	-0.223253	0.532823
C307	C	1.222060	0.026747	0.782823
C308	C	1.472060	0.276747	1.032823
C309	C	0.722078	-0.527854	0.282841
C310	C	0.972078	-0.277854	0.532841
C311	C	1.222078	-0.027854	0.782841
C312	C	1.472078	0.222146	1.032841
C313	C	0.755506	-0.555098	0.326190
C314	C	1.005506	-0.305098	0.576190
C315	C	1.255506	-0.055098	0.826190
C316	C	1.505506	0.194902	1.076190
O317	O	0.693714	-0.614283	0.246025
O318	O	0.943714	-0.364283	0.496025
O319	O	1.193714	-0.114283	0.746025
O320	O	1.443714	0.135717	0.996025
O321	O	0.817351	-0.614120	0.406397
O322	O	1.067351	-0.364120	0.656397
O323	O	1.317351	-0.114120	0.906397
O324	O	1.567351	0.135880	1.156397
C325	C	0.891902	-0.251957	0.326251
C326	C	1.141902	-0.001957	0.576251
C327	C	1.391902	0.248043	0.826251
C328	C	1.641902	0.498043	1.076251
C329	C	0.950016	-0.251966	0.326271
C330	C	1.200016	-0.001966	0.576271
C331	C	1.450016	0.248034	0.826271
C332	C	1.700016	0.498034	1.076271
C333	C	0.755559	-0.251903	0.502747
C334	C	1.005559	-0.001903	0.752747
C335	C	1.255559	0.248097	1.002747
C336	C	1.505559	0.498097	1.252747
C337	C	0.755571	-0.251889	0.577979
C338	C	1.005571	-0.001889	0.827979
C339	C	1.255571	0.248111	1.077979
C340	C	1.505571	0.498111	1.327979
C341	C	0.755618	-0.115562	0.326272
C342	C	1.005618	0.134438	0.576272
C343	C	1.255618	0.384438	0.826272
C344	C	1.505618	0.634438	1.076272
C345	C	0.755656	-0.057448	0.326302
C346	C	1.005656	0.192552	0.576302
C347	C	1.255656	0.442552	0.826302
C348	C	1.505656	0.692552	1.076302
C349	C	0.755530	-0.251931	0.150348
C350	C	1.005530	-0.001931	0.400348
C351	C	1.255530	0.248069	0.650348
C352	C	1.505530	0.498069	0.900348
C353	C	0.755619	-0.251797	0.075117
C354	C	1.005619	-0.001797	0.325117
C355	C	1.255619	0.248203	0.575117
C356	C	1.505619	0.498203	0.825117
C357	C	0.789034	-0.218452	0.613353
C358	C	1.039034	0.031548	0.863353
C359	C	1.289034	0.281548	1.113353
C360	C	1.539034	0.531548	1.363353
C361	C	0.789039	-0.218437	0.684041
C362	C	1.039039	0.031563	0.934041
C363	C	1.289039	0.281563	1.184041
C364	C	1.539039	0.531563	1.434041
C365	C	0.755584	-0.251861	0.719355
C366	C	1.005584	-0.001861	0.969355
C367	C	1.255584	0.248139	1.219355
C368	C	1.505584	0.498139	1.469355
C369	C	0.722118	-0.285300	0.683977
C370	C	0.972118	-0.035300	0.933977
C371	C	1.222118	0.214700	1.183977
C372	C	1.472118	0.464700	1.433977
C373	C	0.722110	-0.285312	0.613289
C374	C	0.972110	-0.035312	0.863289
C375	C	1.222110	0.214688	1.113289
C376	C	1.472110	0.464688	1.363289
C377	C	0.722147	-0.285251	0.969050
C378	C	0.972147	-0.035251	1.219050
C379	C	1.222147	0.214749	1.469050
C380	C	1.472147	0.464749	1.719050
C381	C	0.722159	-0.285237	1.039742
C382	C	0.972159	-0.035237	1.289742
C383	C	1.222159	0.214763	1.539742
C384	C	1.472159	0.464763	1.789742
C385	C	0.789077	-0.218376	1.039802
C386	C	1.039077	0.031624	1.289802
C387	C	1.289077	0.281624	1.539802
C388	C	1.539077	0.531624	1.789802
C389	C	0.789069	-0.218388	0.969115
C390	C	1.039069	0.031612	1.219115
C391	C	1.289069	0.281612	1.469115
C392	C	1.539069	0.531612	1.719115
C393	C	0.755601	-0.251824	0.933742
C394	C	1.005601	-0.001824	1.183742
C395	C	1.255601	0.248176	1.433742
C396	C	1.505601	0.498176	1.683742
C397	C	0.755595	-0.251839	0.857094
C398	C	1.005595	-0.001839	1.107094
C399	C	1.255595	0.248161	1.357094
C400	C	1.505595	0.498161	1.607094
C401	C	0.755593	-0.251849	0.796002
C402	C	1.005593	-0.001849	1.046002
C403	C	1.255593	0.248151	1.296002
C404	C	1.505593	0.498151	1.546002
H405	H	0.457460	-0.312671	0.404571
H406	H	0.707460	-0.062671	0.654571
H407	H	0.957460	0.187329	0.904571
H408	H	1.207460	0.437329	1.154571
F409	F	0.824678	-0.182815	0.931535
F410	F	1.074678	0.067185	1.181535
F411	F	1.324678	0.317185	1.431535
F412	F	1.574678	0.567185	1.681535
H413	H	0.816326	-0.191148	1.068610
H414	H	1.066326	0.058852	1.318610
H415	H	1.316326	0.308852	1.568610
H416	H	1.566326	0.558852	1.818610
H417	H	0.816289	-0.191210	0.712839
H418	H	1.066289	0.058790	0.962839
H419	H	1.316289	0.308790	1.212839
H420	H	1.566289	0.558790	1.462839
H421	H	0.694913	-0.312457	1.068493
H422	H	0.944913	-0.062457	1.318493
H423	H	1.194913	0.187543	1.568493
H424	H	1.444913	0.437543	1.818493
F425	F	0.653161	-0.808171	0.193471
F426	F	0.903161	-0.558171	0.443471
F427	F	1.153161	-0.308171	0.693471
F428	F	1.403161	-0.058171	0.943471
H429	H	-0.044902	-0.312709	0.404653
H430	H	0.205098	-0.062709	0.654653
H431	H	0.455098	0.187291	0.904653
H432	H	0.705098	0.437291	1.154653
H433	H	0.694903	-0.312484	0.940259
H434	H	0.944903	-0.062484	1.190259
H435	H	1.194903	0.187516	1.440259
H436	H	1.444903	0.437516	1.690259
F437	F	0.686510	-0.320871	0.721562
F438	F	0.936510	-0.070871	0.971562
F439	F	1.186510	0.179129	1.221562
F440	F	1.436510	0.429129	1.471562
F441	F	0.686493	-0.320898	0.575643
F442	F	0.936493	-0.070898	0.825643
F443	F	1.186493	0.179102	1.075643
F444	F	1.436493	0.429102	1.325643
H445	H	0.816130	-0.549920	0.404814
H446	H	1.066130	-0.299920	0.654814
H447	H	1.316130	-0.049920	0.904814
H448	H	1.566130	0.200080	1.154814
H449	H	0.694875	-0.550126	0.247556
H450	H	0.944875	-0.300126	0.497556
H451	H	1.194875	-0.050126	0.747556
H452	H	1.444875	0.199874	0.997556
F453	F	0.563338	-0.321041	0.415338
F454	F	0.813338	-0.071041	0.665338
F455	F	1.063338	0.178959	0.915338
F456	F	1.313338	0.428959	1.165338
F457	F	0.824611	-0.946377	0.415734
F458	F	1.074611	-0.696377	0.665734
F459	F	1.324611	-0.446377	0.915734
F460	F	1.574611	-0.196377	1.165734
H461	H	0.661486	-0.702283	0.204289
H462	H	0.911486	-0.452283	0.454289
H463	H	1.161486	-0.202283	0.704289
H464	H	1.411486	0.047717	0.954289
H465	H	0.694847	-0.451060	0.247535
H466	H	0.944847	-0.201060	0.497535
H467	H	1.194847	0.048940	0.747535
H468	H	1.444847	0.298940	0.997535
H469	H	-0.044913	-0.191225	0.247879
H470	H	0.205087	0.058775	0.497879
H471	H	0.455087	0.308775	0.747879
H472	H	0.705087	0.558775	0.997879
H473	H	0.206294	-0.346169	0.447819
H474	H	0.456294	-0.096169	0.697819
H475	H	0.706294	0.153831	0.947819
H476	H	0.956294	0.403831	1.197819
F477	F	0.563316	-0.182805	0.236975
F478	F	0.813316	0.067195	0.486975
F479	F	1.063316	0.317195	0.736975
F480	F	1.313316	0.567195	0.986975
F481	F	0.060991	-0.321078	0.415440
F482	F	0.310991	-0.071078	0.665440
F483	F	0.560991	0.178922	0.915440
F484	F	0.810991	0.428922	1.165440
F485	F	0.312166	-0.354536	0.458599
F486	F	0.562166	-0.104536	0.708599
F487	F	0.812166	0.145464	0.958599
F488	F	1.062166	0.395464	1.208599
H489	H	0.206264	-0.157706	0.204652
H490	H	0.456264	0.092294	0.454652
H491	H	0.706264	0.342294	0.704652
H492	H	0.956264	0.592294	0.954652
F493	F	0.060960	-0.182836	0.237067
F494	F	0.310960	0.067164	0.487067
F495	F	0.560960	0.317164	0.737067
F496	F	0.810960	0.567164	0.987067
H497	H	0.305314	-0.157694	0.204648
H498	H	0.555314	0.092306	0.454648
H499	H	0.805314	0.342306	0.704648
H500	H	1.055314	0.592306	0.954648
F501	F	0.450595	-0.182814	0.236985
F502	F	0.700595	0.067186	0.486985
F503	F	0.950595	0.317186	0.736985
F504	F	1.200595	0.567186	0.986985
H505	H	0.849595	-0.701991	0.448175
H506	H	1.099595	-0.451991	0.698175
H507	H	1.349595	-0.201991	0.948175
H508	H	1.599595	0.048009	1.198175
F509	F	0.824462	-0.444030	0.415604
F510	F	1.074462	-0.194030	0.665604
F511	F	1.324462	0.055970	0.915604
F512	F	1.574462	0.305970	1.165604
F513	F	0.857980	-0.807850	0.459041
F514	F	1.107980	-0.557850	0.709041
F515	F	1.357980	-0.307850	0.959041
F516	F	1.607980	-0.057850	1.209041
H517	H	0.695030	-1.052464	0.247673
H518	H	0.945030	-0.802464	0.497673
H519	H	1.195030	-0.552464	0.747673
H520	H	1.445030	-0.302464	0.997673
F521	F	0.824641	-1.059095	0.415755
F522	F	1.074641	-0.809095	0.665755
F523	F	1.324641	-0.559095	0.915755
F524	F	1.574641	-0.309095	1.165755
F525	F	0.686632	-0.946602	0.236822
F526	F	0.936632	-0.696602	0.486822
F527	F	1.186632	-0.446602	0.736822
F528	F	1.436632	-0.196602	0.986822
H529	H	0.816279	-0.191235	0.584605
H530	H	1.066279	0.058765	0.834605
H531	H	1.316279	0.308765	1.084605
H532	H	1.566279	0.558765	1.334605
