data_functionalizedCrystal
_audit_creation_method	'MofGen! by Chris Wilmer'
_symmetry_space_group_name_H-M	'P1'
_symmetry_Int_Tables_number	1
_symmetry_cell_setting	triclinic
loop_
_symmetry_equiv_pos_as_xyz
  x,y,z
_cell_length_a	18.050589
_cell_length_b	16.959455
_cell_length_c	16.959447
_cell_angle_alpha	90.026816
_cell_angle_beta	89.976922
_cell_angle_gamma	89.976786
loop_
_atom_site_label
_atom_site_type_symbol
_atom_site_fract_x
_atom_site_fract_y
_atom_site_fract_z
Zn1	Zn	-0.295770	-1.208364	-0.447125
Zn2	Zn	-0.419964	-1.208260	-0.314955
Zn3	Zn	-0.295781	-1.076185	-0.314941
Zn4	Zn	-0.419912	-1.076138	-0.447072
O5	O	-0.357857	-1.142237	-0.381024
O6	O	-0.312262	-1.318961	-0.429621
O7	O	-0.403517	-1.190716	-0.204343
O8	O	-0.191855	-1.093782	-0.332492
O9	O	-0.403506	-1.318885	-0.332516
O10	O	-0.191847	-1.190893	-0.429607
O11	O	-0.312281	-1.093681	-0.204332
O12	O	-0.312231	-0.965568	-0.332441
O13	O	-0.403418	-1.093702	-0.557690
O14	O	-0.403429	-0.965533	-0.429517
O15	O	-0.312211	-1.190848	-0.557729
O16	O	-0.523882	-1.190671	-0.332465
O17	O	-0.523843	-1.093601	-0.429531
C18	C	-0.357826	-0.936871	-0.380972
C19	C	-0.357830	-0.849014	-0.380969
C20	C	-0.405299	-0.477488	-0.330398
C21	C	-0.310432	-0.477589	-0.431670
C22	C	-0.310423	-0.560134	-0.431656
C23	C	-0.357853	-0.601361	-0.381012
C24	C	-0.405292	-0.560042	-0.330383
C25	C	-0.262990	-0.601460	-0.482289
C26	C	-0.262979	-0.684011	-0.482278
C27	C	-0.310406	-0.725239	-0.431629
C28	C	-0.357846	-0.683915	-0.380998
C29	C	-0.405276	-0.725141	-0.330354
C30	C	-0.452714	-0.683818	-0.279718
C31	C	-0.452719	-0.601270	-0.279735
C32	C	-0.310400	-0.807787	-0.431612
C33	C	-0.405270	-0.807695	-0.330340
C34	C	-0.550809	-1.142141	-0.381011
C35	C	-0.633355	-1.142173	-0.381031
C36	C	-0.832812	-1.089438	-0.433797
C37	C	-0.882250	-1.070171	-0.361667
C38	C	-0.784485	-1.142251	-0.381042
C39	C	-0.882129	-1.161556	-0.453180
C40	C	-0.930470	-1.142324	-0.381058
C41	C	-0.832836	-1.122946	-0.308873
C42	C	-0.832711	-1.214364	-0.400435
C43	C	-0.882126	-1.195125	-0.328255
C44	C	-0.700387	-1.142206	-0.381033
C45	C	-1.014567	-1.142369	-0.381058
C46	C	-0.164151	-1.142354	-0.381054
C47	C	-0.081605	-1.142404	-0.381067
C48	C	-0.357807	-1.142281	-0.587192
C49	C	-0.357786	-1.142300	-0.675049
C50	C	-0.357880	-0.348405	-0.381062
C51	C	-0.357869	-0.436262	-0.381041
C52	C	-0.405264	-1.091731	-0.716304
C53	C	-0.310284	-1.192883	-0.716347
C54	C	-0.310260	-1.192899	-0.798893
C55	C	-0.357738	-1.142330	-0.840148
C56	C	-0.405240	-1.091744	-0.798858
C57	C	-0.262753	-1.243478	-0.840190
C58	C	-0.262726	-1.243496	-0.922741
C59	C	-0.310208	-1.192930	-0.963998
C60	C	-0.357713	-1.142343	-0.922702
C61	C	-0.405191	-1.091773	-0.963957
C62	C	-0.452700	-1.041190	-0.922663
C63	C	-0.452722	-1.041178	-0.840114
C64	C	-0.310186	-1.192942	-1.046546
C65	C	-0.405167	-1.091787	-1.046511
C66	C	-0.357852	-1.142238	-0.175657
C67	C	-0.357664	-1.142372	-0.087801
H68	H	-0.224352	-0.717649	-0.523508
O69	O	-0.804287	-1.101261	-0.228045
H70	H	-0.770113	-1.047034	-0.232296
O71	O	-0.456371	-1.037236	-1.091005
H72	H	-0.514664	-1.050754	-1.075160
O73	O	-0.804121	-1.030195	-0.492808
H74	H	-0.770249	-1.061014	-0.537943
O75	O	-0.456459	-0.432927	-0.275780
H76	H	-0.494295	-0.395327	-0.311089
O77	O	-0.910635	-1.254330	-0.269109
H78	H	-0.890786	-1.238150	-0.209319
H79	H	-0.903781	-1.177856	-0.514180
O80	O	-0.804028	-1.295171	-0.422094
H81	H	-0.823795	-1.311068	-0.481991
O82	O	-0.503905	-0.986642	-0.967161
H83	H	-0.495902	-0.995153	-1.031498
H84	H	-0.904026	-1.009222	-0.345279
H85	H	-0.271821	-0.444017	-0.472906
H86	H	-0.491401	-0.999994	-0.806485
O87	O	-0.211552	-1.298025	-0.795698
H88	H	-0.219561	-1.289526	-0.731359
H89	H	-0.271626	-1.234050	-0.682752
O90	O	-0.211495	-1.298058	-0.967279
H91	H	-0.178490	-1.333223	-0.924722
O92	O	-0.456501	-1.037169	-0.671774
H93	H	-0.448543	-1.045648	-0.607441
O94	O	-0.258950	-1.247482	-1.091098
H95	H	-0.271691	-1.309514	-1.075285
O96	O	-0.456425	-0.852161	-0.275714
H97	H	-0.489412	-0.809556	-0.240513
H98	H	-0.491340	-0.567617	-0.238509
O99	O	-0.503865	-0.728289	-0.225091
H100	H	-0.541686	-0.765911	-0.260395
H101	H	-0.271779	-0.841429	-0.472841
O102	O	-0.211829	-0.556999	-0.536904
H103	H	-0.219794	-0.492656	-0.528396
