data_functionalizedCrystal
_audit_creation_method	'MofGen! by Chris Wilmer'
_symmetry_space_group_name_H-M	'P1'
_symmetry_Int_Tables_number	1
_symmetry_cell_setting	triclinic
loop_
_symmetry_equiv_pos_as_xyz
  x,y,z
_cell_length_a	12.594517
_cell_length_b	21.295416
_cell_length_c	12.594509
_cell_angle_alpha	90.033772
_cell_angle_beta	89.978673
_cell_angle_gamma	89.969869
loop_
_atom_site_label
_atom_site_type_symbol
_atom_site_fract_x
_atom_site_fract_y
_atom_site_fract_z
Zn1	Zn	1.627161	0.250594	-0.601819
Zn2	Zn	1.627008	0.355872	-0.423823
Zn3	Zn	1.449165	0.250621	-0.423848
Zn4	Zn	1.449103	0.355829	-0.601753
O5	O	1.538109	0.303229	-0.512811
O6	O	1.776087	0.264566	-0.578225
O7	O	1.603378	0.341940	-0.274881
O8	O	1.472867	0.162528	-0.447494
O9	O	1.775974	0.341914	-0.447452
O10	O	1.603640	0.162508	-0.578249
O11	O	1.472718	0.264612	-0.274899
O12	O	1.300211	0.264570	-0.447430
O13	O	1.472761	0.341839	-0.750708
O14	O	1.300166	0.341865	-0.578137
O15	O	1.603580	0.264524	-0.750756
O16	O	1.603318	0.443956	-0.447388
O17	O	1.472612	0.443924	-0.578113
C18	C	1.261568	0.303216	-0.512780
C19	C	1.143263	0.303226	-0.512791
C20	C	1.074004	0.261127	-0.441836
C21	C	1.003169	0.318547	-0.415646
C22	C	1.003299	0.245834	-0.538999
C23	C	1.073986	0.360676	-0.486551
C24	C	1.074123	0.287924	-0.609949
C25	C	1.003320	0.345384	-0.583796
C26	C	1.537971	0.466780	-0.512764
C27	C	1.538009	0.536748	-0.512779
C28	C	1.606128	0.569611	-0.444783
C29	C	1.606178	0.635353	-0.444812
C30	C	1.538090	0.668231	-0.512826
C31	C	1.469966	0.635361	-0.580835
C32	C	1.469925	0.569619	-0.580812
N33	N	1.444980	0.771496	-0.520937
N34	N	1.445022	0.833948	-0.520953
C35	C	1.538210	0.866306	-0.512901
N36	N	1.631358	0.833853	-0.504812
N37	N	1.631315	0.771396	-0.504791
C38	C	1.538127	0.739516	-0.512859
C39	C	1.606390	0.970454	-0.444933
C40	C	1.606442	1.036197	-0.444969
C41	C	1.470220	1.036203	-0.580986
C42	C	1.470178	0.970461	-0.580956
C43	C	1.538261	0.937590	-0.512923
C44	C	1.815730	0.303242	-0.512843
C45	C	1.934036	0.303247	-0.512857
C46	C	1.538181	0.303174	-0.790432
C47	C	1.538211	0.303150	-0.908737
C48	C	1.538279	1.139038	-0.512900
C49	C	1.538354	1.069070	-0.512984
C50	C	1.467081	0.345178	-0.977964
C51	C	1.564195	0.360559	-1.048752
C52	C	1.441173	0.287731	-1.048749
C53	C	1.635376	0.318561	-0.977967
C54	C	1.512288	0.245707	-0.977957
C55	C	1.609469	0.261066	-1.048713
C56	C	1.538100	0.303238	-0.236270
C57	C	1.538276	0.303084	-0.117965
H58	H	1.105313	0.274950	-0.692060
C59	C	1.115755	0.426276	-0.456506
N60	N	1.147218	0.475684	-0.433871
C61	C	1.395065	0.671527	-0.655646
N62	N	1.338649	0.698768	-0.711998
C63	C	0.961643	0.393547	-0.664893
N64	N	0.930247	0.429826	-0.725968
H65	H	1.661919	1.062953	-0.389600
C66	C	1.115941	0.213080	-0.360674
N67	N	1.147530	0.176895	-0.299541
C68	C	0.961355	0.180252	-0.568913
N69	N	0.929767	0.130854	-0.591437
H70	H	1.717491	0.331630	-0.947006
H71	H	1.414787	1.062971	-0.636369
H72	H	1.490298	0.197170	-0.946837
H73	H	1.661568	0.542849	-0.389390
H74	H	1.661831	0.943689	-0.389540
C75	C	1.385897	0.393269	-0.935972
N76	N	1.324759	0.429493	-0.904336
H77	H	1.414454	0.542862	-0.636184
H78	H	1.661653	0.662115	-0.389442
H79	H	1.414704	0.943702	-0.636320
C80	C	1.593861	0.426147	-1.090769
N81	N	1.616199	0.475550	-1.122413
C82	C	1.690861	0.213012	-1.090419
N83	N	1.752168	0.176820	-1.121832
C84	C	1.330271	0.270147	-1.090747
N85	N	1.246737	0.256907	-1.122375
H86	H	0.972004	0.331503	-0.333510
