data_functionalizedCrystal
_audit_creation_method	'MofGen! by Chris Wilmer'
_symmetry_space_group_name_H-M	'P1'
_symmetry_Int_Tables_number	1
_symmetry_cell_setting	triclinic
loop_
_symmetry_equiv_pos_as_xyz
  x,y,z
_cell_length_a	9.065215
_cell_length_b	16.992695
_cell_length_c	8.140239
_cell_angle_alpha	89.996131
_cell_angle_beta	89.997810
_cell_angle_gamma	87.841460
loop_
_atom_site_label
_atom_site_type_symbol
_atom_site_fract_x
_atom_site_fract_y
_atom_site_fract_z
O1	O	1.971074	0.115055	-0.136597
O2	O	1.542665	0.124495	-0.136604
O3	O	1.755152	0.005620	-0.136587
O4	O	1.758587	0.233930	-0.136613
O5	O	1.755140	0.005619	0.136640
O6	O	1.542652	0.124494	0.136623
O7	O	1.971062	0.115053	0.136630
Zn8	Zn	1.756855	0.119773	0.180007
Zn9	Zn	1.756872	0.119775	-0.179981
O10	O	1.758575	0.233928	0.136614
C11	C	1.487588	0.123588	0.000008
C12	C	1.323493	0.120876	0.000006
C13	C	1.750727	-0.023625	0.000026
C14	C	1.737544	-0.110762	0.000025
C15	C	1.864750	-0.160100	0.000029
C16	C	1.852353	-0.241975	0.000013
C17	C	1.712749	-0.274510	0.000005
C18	C	1.585534	-0.225166	-0.000004
C19	C	1.597932	-0.143293	0.000000
C20	C	1.661366	-0.518472	-0.000018
C21	C	1.648977	-0.600352	-0.000017
C22	C	1.915798	-0.617155	-0.000003
C23	C	1.928183	-0.535280	0.000010
C24	C	1.800968	-0.485943	-0.000007
N25	N	1.700075	-0.358199	-0.000006
N26	N	1.813644	-0.402256	-0.000008
C27	C	2.026139	0.115961	0.000014
C28	C	2.190234	0.118672	0.000006
C29	C	1.762999	0.263173	-0.000003
C30	C	1.776183	0.350311	-0.000013
N31	N	1.756854	0.119771	0.425690
N32	N	1.756883	0.119771	-0.425664
H33	H	1.978430	-0.133617	0.000046
H34	H	1.955938	-0.282143	0.000020
Cl35	Cl	2.103692	-0.494385	-0.000033
Cl36	Cl	2.075715	-0.679182	0.000014
Cl37	Cl	1.473462	-0.641251	-0.000018
H38	H	1.494347	-0.103122	-0.000003
Cl39	Cl	1.501435	-0.456459	-0.000044
H40	H	1.471865	-0.251662	-0.000020
