data_functionalizedCrystal
_audit_creation_method	'MofGen! by Chris Wilmer'
_symmetry_space_group_name_H-M	'P1'
_symmetry_Int_Tables_number	1
_symmetry_cell_setting	triclinic
loop_
_symmetry_equiv_pos_as_xyz
  x,y,z
_cell_length_a	14.044220
_cell_length_b	14.044202
_cell_length_c	12.503572
_cell_angle_alpha	93.856143
_cell_angle_beta	93.847148
_cell_angle_gamma	86.809210
loop_
_atom_site_label
_atom_site_type_symbol
_atom_site_fract_x
_atom_site_fract_y
_atom_site_fract_z
O1	O	1.272126	-0.235213	-0.089243
O2	O	1.605460	0.098120	0.244090
O3	O	1.938793	0.431453	0.577423
O4	O	0.995453	-0.226909	-0.089269
O5	O	1.328786	0.106424	0.244064
O6	O	1.662120	0.439758	0.577397
O7	O	1.129634	-0.092723	-0.089228
O8	O	1.462967	0.240610	0.244106
O9	O	1.796300	0.573943	0.577439
O10	O	1.137945	-0.369399	-0.089285
O11	O	1.471279	-0.036066	0.244048
O12	O	1.804612	0.297268	0.577381
O13	O	1.139729	-0.082619	0.089417
O14	O	1.473062	0.250715	0.422751
O15	O	1.806395	0.584048	0.756084
O16	O	1.005548	-0.216804	0.089376
O17	O	1.338881	0.116529	0.422709
O18	O	1.672214	0.449862	0.756042
O19	O	1.282221	-0.225109	0.089402
O20	O	1.615554	0.108225	0.422735
O21	O	1.948888	0.441558	0.756068
Cu22	Cu	1.144806	-0.220034	0.105700
Cu23	Cu	1.478139	0.113299	0.439034
Cu24	Cu	1.811473	0.446633	0.772367
Cu25	Cu	1.132868	-0.231984	-0.105568
Cu26	Cu	1.466201	0.101350	0.227765
Cu27	Cu	1.799535	0.434683	0.561099
O28	O	1.148040	-0.359294	0.089360
O29	O	1.481374	-0.025961	0.422693
O30	O	1.814707	0.307372	0.756027
C31	C	0.964878	-0.218221	0.000050
C32	C	1.298212	0.115112	0.333384
C33	C	1.631545	0.448445	0.666717
C34	C	0.858735	-0.207377	0.000042
C35	C	1.192068	0.125956	0.333375
C36	C	1.525401	0.459290	0.666708
C37	C	0.664398	-0.187549	0.000067
C38	C	0.997731	0.145784	0.333400
C39	C	1.331064	0.479117	0.666734
C40	C	0.613270	-0.264465	0.000056
C41	C	0.946603	0.068869	0.333389
C42	C	1.279936	0.402202	0.666722
C43	C	0.505134	-0.253432	0.000070
C44	C	0.838467	0.079901	0.333403
C45	C	1.171801	0.413234	0.666737
C46	C	0.772543	-0.198580	0.000053
C47	C	1.105877	0.134753	0.333386
C48	C	1.439210	0.468086	0.666720
C49	C	1.131045	-0.052049	0.000100
C50	C	1.464378	0.281285	0.333433
C51	C	1.797711	0.614618	0.666766
C52	C	1.120197	0.054095	0.000114
C53	C	1.453531	0.387428	0.333448
C54	C	1.786864	0.720762	0.666781
C55	C	1.177294	0.299552	0.000092
C56	C	1.510628	0.632886	0.333425
C57	C	1.843961	0.966219	0.666759
C58	C	1.100378	0.248427	0.000089
C59	C	1.433712	0.581760	0.333422
C60	C	1.767045	0.915093	0.666756
C61	C	1.111408	0.140291	0.000103
C62	C	1.444742	0.473624	0.333437
C63	C	1.778075	0.806957	0.666770
C64	C	1.166266	0.407698	0.000078
C65	C	1.499599	0.741031	0.333411
C66	C	1.832933	1.074365	0.666745
C67	C	1.312796	-0.233797	0.000080
C68	C	1.646129	0.099537	0.333413
C69	C	1.979462	0.432870	0.666746
C70	C	1.418939	-0.244641	0.000081
C71	C	1.752272	0.088692	0.333414
C72	C	2.085605	0.422026	0.666748
C73	C	1.146628	0.600032	0.000045
C74	C	1.479961	0.933365	0.333378
C75	C	1.813295	1.266698	0.666711
C76	C	1.157471	0.493890	0.000067
C77	C	1.490805	0.827223	0.333400
C78	C	1.824138	1.160556	0.666733
N79	N	1.124471	-0.240382	-0.254163
N80	N	1.457804	0.092951	0.079170
N81	N	1.791138	0.426285	0.412504
C82	C	1.112111	-0.252735	-0.473282
C83	C	1.445444	0.080598	-0.139949
C84	C	1.778778	0.413932	0.193385
C85	C	1.165567	-0.199279	-0.526593
C86	C	1.498900	0.134055	-0.193259
C87	C	1.832234	0.467388	0.140074
C88	C	1.158690	-0.206152	-0.648518
C89	C	1.492023	0.127181	-0.315185
C90	C	1.825356	0.460515	0.018149
C91	C	1.118987	-0.245863	-0.351346
C92	C	1.452321	0.087471	-0.018012
C93	C	1.785654	0.420804	0.315321
N94	N	1.153210	-0.211629	0.254295
N95	N	1.486543	0.121704	0.587629
N96	N	1.819876	0.455038	0.920962
H97	H	0.626960	-0.113420	0.000088
H98	H	0.960293	0.219913	0.333422
H99	H	1.293626	0.553246	0.666755
H100	H	1.251422	0.262112	0.000108
H101	H	1.584756	0.595445	0.333441
H102	H	1.918089	0.928779	0.666775
H103	H	0.650710	-0.338600	0.000035
H104	H	0.984044	-0.005266	0.333368
H105	H	1.317377	0.328067	0.666702
H106	H	1.216496	-0.148350	-0.480664
H107	H	1.549829	0.184983	-0.147330
H108	H	1.883163	0.518316	0.186003
H109	H	1.061184	-0.303659	-0.519205
H110	H	1.394517	0.029675	-0.185872
H111	H	1.727851	0.363008	0.147461
H112	H	1.026245	0.285869	0.000078
H113	H	1.359578	0.619203	0.333411
H114	H	1.692912	0.952536	0.666745
