data_functionalizedCrystal
_audit_creation_method	'MofGen! by Chris Wilmer'
_symmetry_space_group_name_H-M	'P1'
_symmetry_Int_Tables_number	1
_symmetry_cell_setting	triclinic
loop_
_symmetry_equiv_pos_as_xyz
  x,y,z
_cell_length_a	16.974897
_cell_length_b	6.394989
_cell_length_c	15.455313
_cell_angle_alpha	87.254133
_cell_angle_beta	83.675220
_cell_angle_gamma	95.053583
loop_
_atom_site_label
_atom_site_type_symbol
_atom_site_fract_x
_atom_site_fract_y
_atom_site_fract_z
O1	O	1.058635	-0.247807	-0.146360
O2	O	0.828013	-0.283732	-0.130189
O3	O	0.946598	0.038333	-0.138505
O4	O	0.940051	-0.569872	-0.138045
O5	O	0.939816	0.019991	0.006233
O6	O	0.821231	-0.302074	0.014548
O7	O	1.051853	-0.266148	-0.001623
Cu8	Cu	0.935923	-0.285786	0.019679
Cu9	Cu	0.943943	-0.264095	-0.151490
O10	O	0.933269	-0.588213	0.006693
C11	C	0.795054	-0.291872	-0.055747
C12	C	0.706951	-0.288774	-0.049570
C13	C	0.669249	-0.277327	-0.125558
C14	C	0.586464	-0.274451	-0.119740
C15	C	0.541384	-0.283008	-0.037935
C16	C	0.579091	-0.294463	0.038059
C17	C	0.661873	-0.297353	0.032241
C18	C	0.293405	-0.275450	-0.012074
C19	C	0.210618	-0.272553	-0.006262
C20	C	0.217997	-0.252545	-0.164062
C21	C	0.300781	-0.255424	-0.169873
C22	C	0.338480	-0.266889	-0.093879
N23	N	0.456765	-0.280063	-0.031986
N24	N	0.423097	-0.269850	-0.099828
C25	C	1.084812	-0.258009	-0.076066
C26	C	1.172916	-0.261105	-0.082250
C27	C	0.941912	0.106969	-0.066049
C28	C	0.937956	0.343158	-0.065772
N29	N	0.930288	-0.301041	0.140069
N30	N	0.949585	-0.248823	-0.271882
C31	C	0.980685	-0.164266	0.181929
C32	C	0.976431	-0.175822	0.273036
C33	C	0.921782	-0.324164	0.322280
C34	C	0.871379	-0.460945	0.280414
C35	C	0.875630	-0.449377	0.189310
C36	C	0.903433	-0.374037	0.595148
C37	C	0.899187	-0.385598	0.686258
C38	C	1.004238	-0.100471	0.678874
C39	C	1.008488	-0.088925	0.587768
C40	C	0.958082	-0.225699	0.545910
N41	N	0.917434	-0.335984	0.415405
N42	N	0.962427	-0.213867	0.452787
H43	H	0.324091	-0.284773	0.049805
N44	N	0.702545	-0.309688	0.114197
H45	H	0.731592	-0.440798	0.115658
H46	H	0.661384	-0.314580	0.166859
N47	N	0.812434	-0.620928	0.333530
H48	H	0.841906	-0.717898	0.369125
H49	H	0.781164	-0.705670	0.293132
N50	N	0.177329	-0.240184	-0.246018
H51	H	0.138015	-0.367999	-0.246762
H52	H	0.218497	-0.235129	-0.298679
N53	N	0.545800	-0.262082	-0.201698
H54	H	0.556689	-0.387658	-0.236852
H55	H	0.566970	-0.128664	-0.237486
N56	N	1.039633	-0.004280	0.128819
H57	H	1.070912	0.080614	0.169165
H58	H	1.010108	0.092546	0.093224
H59	H	0.542380	-0.301443	0.104667
N60	N	1.030817	-0.028348	0.318171
H61	H	1.020968	0.121823	0.303069
H62	H	1.088061	-0.050083	0.298298
H63	H	0.173913	-0.279581	0.060358
H64	H	0.854684	-0.506404	0.726350
H65	H	0.862392	-0.485407	0.561074
N66	N	0.821269	-0.596886	0.144156
H67	H	0.786005	-0.692617	0.189175
H68	H	0.854319	-0.684115	0.104147
N69	N	0.349397	-0.246234	-0.258108
H70	H	0.407560	-0.249804	-0.250262
H71	H	0.341672	-0.111903	-0.291909
N72	N	0.717863	-0.268079	-0.213795
H73	H	0.699936	-0.392665	-0.246916
H74	H	0.776014	-0.271568	-0.205884
N75	N	1.067433	0.071072	0.534660
H76	H	1.123229	0.045561	0.546543
H77	H	1.056012	0.217129	0.551293
N78	N	1.058601	0.047043	0.724020
H79	H	1.047618	0.017213	0.789206
H80	H	1.048702	0.197134	0.708850
