data_functionalizedCrystal
_audit_creation_method	'MofGen! by Chris Wilmer'
_symmetry_space_group_name_H-M	'P1'
_symmetry_Int_Tables_number	1
_symmetry_cell_setting	triclinic
loop_
_symmetry_equiv_pos_as_xyz
  x,y,z
_cell_length_a	15.944551
_cell_length_b	16.992694
_cell_length_c	15.455301
_cell_angle_alpha	87.178730
_cell_angle_beta	93.000753
_cell_angle_gamma	92.916519
loop_
_atom_site_label
_atom_site_type_symbol
_atom_site_fract_x
_atom_site_fract_y
_atom_site_fract_z
O1	O	0.181590	-1.043460	0.072026
O2	O	0.681590	-0.543460	0.572026
O3	O	0.179637	-0.815176	0.072051
O4	O	0.679637	-0.315176	0.572051
O5	O	0.058756	-0.935552	0.072030
O6	O	0.558756	-0.435552	0.572030
O7	O	0.302470	-0.923084	0.072047
O8	O	0.802470	-0.423084	0.572047
O9	O	0.051777	-0.929413	-0.072232
O10	O	0.551777	-0.429413	0.427768
O11	O	0.172658	-0.809037	-0.072211
O12	O	0.672658	-0.309037	0.427789
O13	O	0.174611	-1.037322	-0.072237
O14	O	0.674611	-0.537322	0.427763
Cu15	Cu	0.172997	-0.922619	-0.085396
Cu16	Cu	0.672997	-0.422619	0.414604
Cu17	Cu	0.181251	-0.929878	0.085211
Cu18	Cu	0.681251	-0.429878	0.585211
O19	O	0.295492	-0.916946	-0.072215
O20	O	0.795492	-0.416946	0.427785
C21	C	0.023938	-0.931965	-0.000101
C22	C	0.523938	-0.431965	0.499899
C23	C	-0.069412	-0.930413	-0.000102
C24	C	0.430588	-0.430413	0.499898
C25	C	0.173634	-0.782894	-0.000077
C26	C	0.673634	-0.282894	0.499923
C27	C	0.166134	-0.695850	-0.000067
C28	C	0.666134	-0.195850	0.499933
C29	C	0.180614	-1.069604	-0.000107
C30	C	0.680614	-0.569604	0.499893
C31	C	0.188114	-1.156648	-0.000110
C32	C	0.688114	-0.656648	0.499890
C33	C	-0.289521	-0.852090	-0.000081
C34	C	0.210479	-0.352090	0.499919
C35	C	-0.351540	-0.885434	-0.071215
C36	C	0.148460	-0.385434	0.428785
C37	C	-0.240326	-0.927606	-0.000095
C38	C	0.259674	-0.427606	0.499905
C39	C	-0.344641	-0.891504	0.071016
C40	C	0.155359	-0.391504	0.571016
C41	C	-0.405420	-0.924889	-0.000084
C42	C	0.094580	-0.424889	0.499916
C43	C	-0.301118	-0.960969	-0.071287
C44	C	0.198882	-0.460969	0.428713
C45	C	-0.294211	-0.967031	0.071008
C46	C	0.205789	-0.467031	0.571008
C47	C	-0.356210	-1.000429	-0.000144
C48	C	0.143790	-0.500429	0.499856
C49	C	-0.145219	-0.929169	-0.000101
C50	C	0.354781	-0.429169	0.499899
C51	C	-0.500526	-0.923332	-0.000084
C52	C	-0.000526	-0.423332	0.499916
C53	C	0.330310	-0.920533	-0.000082
C54	C	0.830310	-0.420533	0.499918
C55	C	0.423660	-0.922085	-0.000076
C56	C	0.923660	-0.422085	0.499924
N57	N	0.167192	-0.917519	-0.205392
N58	N	0.667192	-0.417519	0.294608
C59	C	0.238500	-0.645613	-0.000063
C60	C	0.738500	-0.145613	0.499937
C61	C	0.231447	-0.563826	-0.000075
C62	C	0.731447	-0.063826	0.499925
C63	C	0.152029	-0.532277	-0.000086
C64	C	0.652029	-0.032277	0.499914
C65	C	0.079658	-0.582520	-0.000093
C66	C	0.579658	-0.082520	0.499907
C67	C	0.086711	-0.664305	-0.000087
C68	C	0.586711	-0.164305	0.499913
C69	C	0.122796	-0.288676	-0.000111
C70	C	0.622796	0.211324	0.499889
C71	C	0.115749	-0.206884	-0.000115
C72	C	0.615749	0.293116	0.499885
C73	C	0.267538	-0.188196	-0.000099
C74	C	0.767538	0.311804	0.499901
C75	C	0.274585	-0.269985	-0.000087
C76	C	0.774585	0.230015	0.499913
C77	C	0.202214	-0.320220	-0.000099
C78	C	0.702214	0.179780	0.499901
N79	N	0.144818	-0.448677	-0.000096
N80	N	0.644818	0.051323	0.499904
N81	N	0.209425	-0.403818	-0.000095
N82	N	0.709425	0.096182	0.499905
C83	C	0.219165	-0.963146	-0.250784
C84	C	0.719165	-0.463146	0.249216
C85	C	0.214771	-0.959299	-0.341592
C86	C	0.714771	-0.459299	0.158408
C87	C	0.158407	-0.909821	-0.387006
C88	C	0.658407	-0.409821	0.112994
C89	C	0.106428	-0.864193	-0.341608
C90	C	0.606428	-0.364193	0.158392
C91	C	0.110819	-0.868044	-0.250801
C92	C	0.610819	-0.368044	0.249199
C93	C	0.139462	-0.893208	-0.658588
C94	C	0.639462	-0.393208	-0.158588
C95	C	0.135076	-0.889358	-0.749401
C96	C	0.635076	-0.389358	-0.249401
C97	C	0.243418	-0.984466	-0.749379
C98	C	0.743418	-0.484466	-0.249379
C99	C	0.247808	-0.988309	-0.658571
C100	C	0.747808	-0.488309	-0.158571
C101	C	0.195826	-0.942684	-0.613181
C102	C	0.695826	-0.442684	-0.113181
N103	N	0.153915	-0.905886	-0.479827
N104	N	0.653915	-0.405886	0.020173
N105	N	0.200314	-0.946624	-0.520362
N106	N	0.700314	-0.446624	-0.020362
N107	N	0.187049	-0.934985	0.205207
N108	N	0.687049	-0.434985	0.705207
H109	H	-0.376699	-0.850935	-0.131346
H110	H	0.123301	-0.350935	0.368654
H111	H	0.303170	-0.671294	-0.000054
H112	H	0.803170	-0.171294	0.499946
C113	C	0.037543	-0.089809	-0.000129
C114	C	0.537543	0.410191	0.499871
C115	C	0.028446	-0.172203	-0.000133
C116	C	0.528446	0.327797	0.499867
H117	H	-0.016351	-0.068399	-0.000134
H118	H	0.483649	0.431601	0.499866
H119	H	0.065138	-0.070438	-0.050428
H120	H	0.565138	0.429562	0.449572
H121	H	0.070001	-0.074711	0.050187
H122	H	0.570001	0.425289	0.550187
H123	H	-0.004008	-0.187301	-0.050453
H124	H	0.495992	0.312699	0.449547
H125	H	0.000838	-0.191581	0.050171
H126	H	0.500838	0.308419	0.550171
C127	C	0.028411	-0.795742	-0.740300
C128	C	0.528411	-0.295742	-0.240300
C129	C	0.073111	-0.834971	-0.799320
C130	C	0.573111	-0.334971	-0.299320
H131	H	-0.009844	-0.762171	-0.771119
H132	H	0.490156	-0.262171	-0.271119
H133	H	0.066598	-0.765114	-0.704881
H134	H	0.566598	-0.265114	-0.204881
H135	H	-0.001849	-0.833338	-0.704884
H136	H	0.498151	-0.333338	-0.204884
H137	H	0.103375	-0.797375	-0.834732
H138	H	0.603375	-0.297375	-0.334732
H139	H	0.034918	-0.865601	-0.834754
H140	H	0.534918	-0.365601	-0.334754
H141	H	0.068497	-0.830890	-0.213844
H142	H	0.568497	-0.330890	0.286156
C143	C	-0.279214	-0.724941	-0.074741
C144	C	0.220786	-0.224941	0.425259
C145	C	-0.250227	-0.767471	-0.000164
C146	C	0.249773	-0.267471	0.499836
H147	H	-0.254950	-0.672704	-0.074795
H148	H	0.245050	-0.172704	0.425205
H149	H	-0.338699	-0.723354	-0.075250
H150	H	0.161301	-0.223354	0.424750
H151	H	-0.263639	-0.749915	-0.124755
H152	H	0.236361	-0.249915	0.375245
H153	H	-0.265808	-0.742500	0.049851
H154	H	0.234192	-0.242500	0.549851
H155	H	-0.190729	-0.769054	0.000354
H156	H	0.309271	-0.269054	0.500354
C157	C	-0.012745	-0.504539	0.074057
C158	C	0.487255	-0.004539	0.574057
C159	C	-0.007641	-0.547844	-0.000103
C160	C	0.492359	-0.047844	0.499897
H161	H	-0.066643	-0.483138	0.074054
H162	H	0.433357	0.016862	0.574054
H163	H	0.029338	-0.462917	0.074052
H164	H	0.529338	0.037083	0.574052
H165	H	-0.004404	-0.538199	0.124359
H166	H	0.495596	-0.038199	0.624359
H167	H	-0.015976	-0.514182	-0.050405
H168	H	0.484024	-0.014182	0.449595
H169	H	-0.049737	-0.589470	-0.000106
H170	H	0.450263	-0.089470	0.499894
H171	H	0.339256	-0.295666	-0.000069
H172	H	0.839256	0.204334	0.499931
H173	H	0.027784	-0.705208	-0.000090
H174	H	0.527784	-0.205208	0.499910
H175	H	-0.281900	-0.990321	-0.131492
H176	H	0.218100	-0.490321	0.368508
H177	H	-0.385163	-1.063165	-0.000191
H178	H	0.114837	-0.563165	0.499809
C179	C	-0.281890	-0.977072	0.226605
C180	C	0.218110	-0.477072	0.726605
C181	C	-0.260208	-1.013565	0.152184
C182	C	0.239792	-0.513565	0.652184
H183	H	-0.260890	-1.005795	0.276724
H184	H	0.239110	-0.505795	0.776724
H185	H	-0.341342	-0.976025	0.227477
H186	H	0.158658	-0.476025	0.727477
H187	H	-0.258128	-0.924650	0.226091
H188	H	0.241872	-0.424650	0.726091
H189	H	-0.283975	-1.065986	0.152696
H190	H	0.216025	-0.565986	0.652696
H191	H	-0.200744	-1.014621	0.151312
H192	H	0.299256	-0.514621	0.651312
C193	C	0.325808	-1.056774	-0.259893
C194	C	0.825808	-0.556774	0.240107
C195	C	0.281122	-1.017535	-0.200869
C196	C	0.781122	-0.517535	0.299131
H197	H	0.364053	-1.090357	-0.229078
H198	H	0.864053	-0.590357	0.270922
H199	H	0.356070	-1.019189	-0.295308
H200	H	0.856070	-0.519189	0.204692
H201	H	0.287605	-1.087397	-0.295314
H202	H	0.787605	-0.587397	0.204686
H203	H	0.319325	-0.986907	-0.165452
H204	H	0.819325	-0.486907	0.334548
H205	H	0.250859	-1.055125	-0.165440
H206	H	0.750859	-0.555125	0.334560
C207	C	0.222230	-1.060434	-0.443686
C208	C	0.722230	-0.560434	0.056314
C209	C	0.271902	-1.009458	-0.391482
C210	C	0.771902	-0.509458	0.108518
H211	H	0.257503	-1.091406	-0.474480
H212	H	0.757503	-0.591406	0.025520
H213	H	0.188043	-1.030419	-0.483729
H214	H	0.688043	-0.530419	0.016271
H215	H	0.187466	-1.094058	-0.408250
H216	H	0.687466	-0.594058	0.091750
H217	H	0.306661	-0.975829	-0.426919
H218	H	0.806661	-0.475829	0.073081
H219	H	0.306103	-1.039475	-0.351435
H220	H	0.806103	-0.539475	0.148565
H221	H	-0.363952	-0.862113	0.131159
H222	H	0.136048	-0.362113	0.631159
H223	H	0.060531	-0.823911	-0.378591
H224	H	0.560531	-0.323911	0.121409
C225	C	0.132035	-0.792059	-0.556516
C226	C	0.632035	-0.292059	-0.056516
C227	C	0.082345	-0.843025	-0.608715
C228	C	0.582345	-0.343025	-0.108715
H229	H	0.096775	-0.761073	-0.525725
H230	H	0.596775	-0.261073	-0.025725
H231	H	0.166809	-0.758455	-0.591948
H232	H	0.666809	-0.258455	-0.091948
H233	H	0.166212	-0.822088	-0.516463
H234	H	0.666212	-0.322088	-0.016463
H235	H	0.048173	-0.812997	-0.648772
H236	H	0.548173	-0.312997	-0.148772
H237	H	0.047556	-0.876633	-0.573280
H238	H	0.547556	-0.376633	-0.073280
H239	H	0.326458	-0.147286	-0.000091
H240	H	0.826458	0.352714	0.499909
C241	C	0.382191	-0.553569	-0.000047
C242	C	0.882191	-0.053569	0.499953
C243	C	0.310994	-0.508606	-0.000066
C244	C	0.810994	-0.008606	0.499934
H245	H	0.431301	-0.519477	-0.000037
H246	H	0.931301	-0.019477	0.499963
H247	H	0.379354	-0.583724	-0.050348
H248	H	0.879354	-0.083724	0.449652
H249	H	0.384207	-0.587992	0.050268
H250	H	0.884207	-0.087992	0.550268
H251	H	0.308973	-0.474188	-0.050385
H252	H	0.808973	0.025812	0.449615
H253	H	0.313830	-0.478438	0.050239
H254	H	0.813830	0.021562	0.550239
C255	C	-0.027947	-0.298922	-0.000121
C256	C	0.472053	0.201078	0.499879
C257	C	0.043247	-0.343888	-0.000117
C258	C	0.543247	0.156112	0.499883
H259	H	-0.077058	-0.333012	-0.000120
H260	H	0.422942	0.166988	0.499880
H261	H	-0.029970	-0.264501	-0.050426
H262	H	0.470030	0.235499	0.449574
H263	H	-0.025099	-0.268767	0.050189
H264	H	0.474901	0.231233	0.550189
H265	H	0.040402	-0.374039	-0.050431
H266	H	0.540402	0.125961	0.449569
H267	H	0.045271	-0.378324	0.050193
H268	H	0.545271	0.121676	0.550193
C269	C	0.354447	-1.081944	-0.667675
C270	C	0.854447	-0.581944	-0.167675
C271	C	0.309759	-1.042704	-0.608655
C272	C	0.809759	-0.542704	-0.108655
H273	H	0.392690	-1.115528	-0.636856
H274	H	0.892690	-0.615528	-0.136856
H275	H	0.384711	-1.044361	-0.703088
H276	H	0.884711	-0.544361	-0.203088
H277	H	0.316246	-1.112568	-0.703097
H278	H	0.816246	-0.612568	-0.203097
H279	H	0.347960	-1.012076	-0.573236
H280	H	0.847960	-0.512076	-0.073236
H281	H	0.279493	-1.080292	-0.573227
H282	H	0.779493	-0.580292	-0.073227
H283	H	0.285738	-1.021612	-0.786346
H284	H	0.785738	-0.521612	-0.286346
