data_functionalizedCrystal
_audit_creation_method	'MofGen! by Chris Wilmer'
_symmetry_space_group_name_H-M	'P1'
_symmetry_Int_Tables_number	1
_symmetry_cell_setting	triclinic
loop_
_symmetry_equiv_pos_as_xyz
  x,y,z
_cell_length_a	14.519709
_cell_length_b	10.654550
_cell_length_c	9.130313
_cell_angle_alpha	90.000042
_cell_angle_beta	89.997798
_cell_angle_gamma	84.082524
loop_
_atom_site_label
_atom_site_type_symbol
_atom_site_fract_x
_atom_site_fract_y
_atom_site_fract_z
O1	O	0.129528	1.666589	-0.121794
O2	O	0.141869	1.300991	-0.121799
O3	O	0.001510	1.493483	-0.121783
O4	O	0.269887	1.474097	-0.121809
O5	O	0.001514	1.493481	0.121816
O6	O	0.141873	1.300989	0.121800
O7	O	0.129532	1.666586	0.121805
Cu8	Cu	0.135703	1.483787	0.144045
Cu9	Cu	0.135698	1.483790	-0.144039
O10	O	0.269891	1.474094	0.121789
C11	C	-0.032852	1.492579	0.000017
C12	C	-0.135247	1.489871	0.000018
C13	C	0.140965	1.254201	0.000000
C14	C	0.138254	1.114784	-0.000002
C15	C	0.130436	1.713377	0.000003
C16	C	0.133147	1.852794	-0.000005
C17	C	-0.510195	1.479904	-0.000021
C18	C	-0.405873	1.482672	-0.000010
C19	C	-0.322725	1.484887	-0.000000
C20	C	-0.218396	1.487656	0.000008
C21	C	0.304253	1.474999	-0.000014
C22	C	0.406648	1.477707	-0.000024
N23	N	0.135705	1.483795	0.346668
C24	C	0.050506	1.933074	-0.000002
C25	C	0.053059	2.064070	0.000005
C26	C	0.220901	2.034493	0.000000
C27	C	0.218347	1.903500	0.000004
C28	C	-0.034694	1.882369	-0.000011
C29	C	-0.117342	1.962650	-0.000010
C30	C	-0.114789	2.093646	-0.000003
C31	C	-0.029588	2.144361	0.000003
N32	N	0.135688	1.483793	-0.346661
C33	C	0.073576	1.569052	0.423327
C34	C	0.073565	1.569048	0.576664
C35	C	0.197821	1.398527	0.576669
C36	C	0.197827	1.398525	0.423335
C37	C	0.011454	1.654321	0.346660
C38	C	-0.050679	1.739586	0.423319
C39	C	-0.050691	1.739583	0.576656
C40	C	0.011432	1.654315	0.653333
H41	H	-0.186709	1.921349	-0.000027
O42	O	0.258073	1.315536	0.651086
C43	C	0.310654	1.097300	0.697951
C44	C	0.242349	1.191146	0.613611
H45	H	0.297978	0.996711	0.667661
H46	H	0.299977	1.111840	0.820728
H47	H	0.384628	1.113885	0.667825
H48	H	0.168348	1.174618	0.643615
H49	H	0.253107	1.176583	0.490855
H50	H	-0.101263	1.809002	0.360880
H51	H	-0.101288	1.809000	0.639070
H52	H	-0.036782	1.775707	-0.000020
H53	H	-0.182085	2.159009	0.000012
O54	O	0.303580	2.083963	-0.000075
C55	C	0.381896	2.272661	-0.000017
C56	C	0.288198	2.216808	0.000044
H57	H	0.369492	2.380073	0.000111
H58	H	0.422788	2.239700	-0.101991
H59	H	0.422781	2.239545	0.101900
H60	H	0.247238	2.249898	-0.101804
H61	H	0.247376	2.249762	0.102086
O62	O	0.298709	1.825687	-0.000073
C63	C	0.465456	1.810162	-0.000002
C64	C	0.374514	1.898429	0.000045
H65	H	0.526767	1.868939	0.000125
H66	H	0.468516	1.748117	-0.101971
H67	H	0.468403	1.748071	0.101921
H68	H	0.371506	1.960600	-0.101808
H69	H	0.371491	1.960389	0.102082
H70	H	0.011412	1.654311	0.778191
H71	H	-0.027516	2.251028	0.000022
H72	H	0.011460	1.654334	0.221805
H73	H	0.248417	1.329100	0.360919
