data_functionalizedCrystal
_audit_creation_method	'MofGen! by Chris Wilmer'
_symmetry_space_group_name_H-M	'P1'
_symmetry_Int_Tables_number	1
_symmetry_cell_setting	triclinic
loop_
_symmetry_equiv_pos_as_xyz
  x,y,z
_cell_length_a	18.050591
_cell_length_b	18.050590
_cell_length_c	16.120256
_cell_angle_alpha	92.872767
_cell_angle_beta	92.873632
_cell_angle_gamma	90.015000
loop_
_atom_site_label
_atom_site_type_symbol
_atom_site_fract_x
_atom_site_fract_y
_atom_site_fract_z
Zn1	Zn	1.114083	-0.317057	-0.471484
Zn2	Zn	1.120301	-0.434948	-0.332071
Zn3	Zn	0.996188	-0.310769	-0.332076
Zn4	Zn	0.989874	-0.441199	-0.471424
O5	O	1.055111	-0.375993	-0.401764
O6	O	1.218831	-0.332711	-0.453014
O7	O	1.109082	-0.413227	-0.215409
O8	O	1.011867	-0.207679	-0.350597
O9	O	1.223399	-0.419325	-0.350587
O10	O	1.098484	-0.212299	-0.453019
O11	O	1.017897	-0.321994	-0.215413
O12	O	0.891427	-0.328055	-0.350539
O13	O	1.001105	-0.429979	-0.588095
O14	O	0.886788	-0.423882	-0.452917
O15	O	1.092361	-0.338772	-0.588139
O16	O	1.102959	-0.539700	-0.350528
O17	O	1.007135	-0.544293	-0.452911
C18	C	0.862161	-0.375965	-0.401722
C19	C	0.779615	-0.375972	-0.401724
C20	C	0.533285	-0.323816	-0.346183
C21	C	0.579283	-0.309169	-0.422266
C22	C	0.482492	-0.376013	-0.401792
C23	C	0.583576	-0.390605	-0.325679
C24	C	0.628478	-0.375991	-0.401755
C25	C	0.527401	-0.361332	-0.477917
C26	C	0.531692	-0.442798	-0.381278
C27	C	0.577666	-0.428179	-0.457415
C28	C	0.398392	-0.376024	-0.401813
C29	C	0.712575	-0.375980	-0.401743
C30	C	1.055056	-0.568944	-0.401731
C31	C	1.055099	-0.651490	-0.401744
C32	C	1.107307	-0.848420	-0.346146
C33	C	1.122012	-0.901193	-0.422236
C34	C	1.055139	-0.802622	-0.401778
C35	C	1.040509	-0.896931	-0.325722
C36	C	1.055180	-0.948608	-0.401803
C37	C	1.069877	-0.854310	-0.477907
C38	C	0.988344	-0.850041	-0.381342
C39	C	1.003021	-0.902795	-0.457484
C40	C	1.055118	-0.718523	-0.401762
C41	C	1.055201	-1.032706	-0.401827
C42	C	1.248815	-0.376022	-0.401806
C43	C	1.331360	-0.376034	-0.401824
C44	C	1.045335	-0.385774	-0.619212
C45	C	1.041169	-0.389942	-0.711876
C46	C	1.055186	-0.182290	-0.401816
C47	C	1.055218	-0.099745	-0.401838
C48	C	1.076835	-0.354237	-0.922842
C49	C	1.033539	-0.397521	-0.881527
C50	C	1.037786	-0.393303	-0.787124
C51	C	1.072588	-0.358455	-1.017253
C52	C	1.064892	-0.366196	-0.185162
C53	C	1.069202	-0.361819	-0.092499
H54	H	0.510743	-0.499268	-0.363916
C55	C	0.979158	-0.451867	-0.929514
H56	H	0.952550	-0.478468	-0.891177
H57	H	1.006059	-0.485715	-0.963493
H58	H	0.945309	-0.424940	-0.963471
C59	C	0.506836	-0.264163	-0.282759
H60	H	0.523102	-0.216732	-0.297461
H61	H	0.526874	-0.274069	-0.228840
H62	H	0.454206	-0.264877	-0.282863
C63	C	0.607570	-0.232863	-0.445691
H64	H	0.592445	-0.195837	-0.406139
H65	H	0.587542	-0.222128	-0.499365
H66	H	0.660181	-0.233545	-0.445999
C67	C	1.131216	-0.299901	-0.874855
H68	H	1.157822	-0.273292	-0.913189
H69	H	1.165057	-0.326828	-0.840896
H70	H	1.104313	-0.266048	-0.840877
C71	C	0.616754	-0.407299	-0.238748
H72	H	0.601607	-0.370175	-0.199321
H73	H	0.669342	-0.407622	-0.239473
H74	H	0.599763	-0.454394	-0.223810
H75	H	0.502928	-0.348915	-0.542287
H76	H	0.597095	-0.472313	-0.504480
C77	C	1.166917	-0.816272	-0.282661
H78	H	1.214361	-0.833816	-0.297330
H79	H	1.156977	-0.831510	-0.228761
H80	H	1.166196	-0.763651	-0.282743
H81	H	1.178516	-0.923634	-0.439537
H82	H	1.082209	-0.835570	-0.542292
H83	H	0.958919	-0.926454	-0.504595
C84	C	0.912039	-0.819694	-0.357939
H85	H	0.901703	-0.834168	-0.303846
H86	H	0.874895	-0.839084	-0.396913
H87	H	0.912451	-0.767098	-0.358599
C88	C	1.023762	-0.922371	-0.238821
H89	H	1.060860	-0.903682	-0.199357
H90	H	1.023446	-0.975025	-0.239572
H91	H	0.976653	-0.904082	-0.223914
