data_functionalizedCrystal
_audit_creation_method	'MofGen! by Chris Wilmer'
_symmetry_space_group_name_H-M	'P1'
_symmetry_Int_Tables_number	1
_symmetry_cell_setting	triclinic
loop_
_symmetry_equiv_pos_as_xyz
  x,y,z
_cell_length_a	12.827893
_cell_length_b	25.639240
_cell_length_c	25.639234
_cell_angle_alpha	89.973027
_cell_angle_beta	90.018601
_cell_angle_gamma	89.956867
loop_
_atom_site_label
_atom_site_type_symbol
_atom_site_fract_x
_atom_site_fract_y
_atom_site_fract_z
Zn1	Zn	1.597461	0.208183	0.295585
Zn2	Zn	2.097461	0.708183	0.795585
Zn3	Zn	1.597272	0.295611	0.208146
Zn4	Zn	2.097272	0.795611	0.708146
Zn5	Zn	1.422704	0.208192	0.208165
Zn6	Zn	1.922704	0.708192	0.708165
Zn7	Zn	1.422603	0.295589	0.295552
Zn8	Zn	1.922603	0.795589	0.795552
O9	O	1.510010	0.251894	0.251862
O10	O	2.010010	0.751894	0.751862
O11	O	1.743672	0.219786	0.283991
O12	O	2.243672	0.719786	0.783991
O13	O	1.574079	0.284028	0.134983
O14	O	2.074079	0.784028	0.634983
O15	O	1.446008	0.135025	0.219783
O16	O	1.946008	0.635025	0.719783
O17	O	1.743533	0.284019	0.219750
O18	O	2.243533	0.784019	0.719750
O19	O	1.574400	0.135019	0.284010
O20	O	2.074400	0.635019	0.784010
O21	O	1.445825	0.219801	0.134997
O22	O	1.945825	0.719801	0.634997
O23	O	1.276455	0.219779	0.219752
O24	O	1.776455	0.719779	0.719752
O25	O	1.445835	0.283982	0.368722
O26	O	1.945835	0.783982	0.868722
O27	O	1.276380	0.283990	0.283955
O28	O	1.776380	0.783990	0.783955
O29	O	1.574302	0.219765	0.368746
O30	O	2.074302	0.719765	0.868746
O31	O	1.573981	0.368774	0.219719
O32	O	2.073981	0.868774	0.719719
O33	O	1.445652	0.368757	0.283936
O34	O	1.945652	0.868757	0.783936
C35	C	1.238500	0.251884	0.251852
C36	C	1.738500	0.751884	0.751852
C37	C	1.122347	0.251892	0.251860
C38	C	1.622347	0.751892	0.751860
C39	C	1.509813	0.387736	0.251833
C40	C	2.009813	0.887736	0.751833
C41	C	1.509825	0.445850	0.251838
C42	C	2.009825	0.945850	0.751838
C43	C	1.070553	0.283715	0.283581
C44	C	1.570553	0.783715	0.783581
C45	C	0.950503	0.283724	0.283590
C46	C	1.450503	0.783724	0.783590
C47	C	1.576919	0.806209	0.218461
C48	C	2.076919	1.306209	0.718461
C49	C	1.576951	0.860814	0.218466
C50	C	2.076951	1.360814	0.718466
O51	O	1.633858	0.889047	0.190072
O52	O	2.133858	1.389047	0.690072
N53	N	1.510094	0.888133	0.251874
N54	N	2.010094	1.388133	0.751874
C55	C	1.443209	0.860845	0.285282
C56	C	1.943209	1.360845	0.785282
O57	O	1.386346	0.889096	0.313699
O58	O	1.886346	1.389096	0.813699
C59	C	1.443183	0.806242	0.285279
C60	C	1.943183	1.306242	0.785279
C61	C	1.510037	0.778925	0.251866
C62	C	2.010037	1.278925	0.751866
C63	C	1.643767	0.778893	0.185051
C64	C	2.143767	1.278893	0.685051
C65	C	1.643734	0.724292	0.185045
C66	C	2.143734	1.224292	0.685045
C67	C	1.576852	0.697008	0.218450
C68	C	2.076852	1.197008	0.718450
C69	C	1.510003	0.724325	0.251860
C70	C	2.010003	1.224325	0.751860
C71	C	1.376304	0.778955	0.318690
C72	C	1.876304	1.278955	0.818690
C73	C	1.376285	0.724348	0.318685
C74	C	1.876285	1.224348	0.818685
C75	C	1.443138	0.697031	0.285271
C76	C	1.943138	1.197031	0.785271
C77	C	1.443087	0.642440	0.285260
C78	C	1.943087	1.142440	0.785260
N79	N	1.509943	0.615121	0.251852
N80	N	2.009943	1.115121	0.751852
C81	C	1.576826	0.642405	0.218447
C82	C	2.076826	1.142405	0.718447
C83	C	1.443270	0.975516	0.285286
C84	C	1.943270	1.475516	0.785286
C85	C	1.443290	1.030118	0.285287
C86	C	1.943290	1.530118	0.785287
C87	C	1.577033	1.030083	0.218471
C88	C	2.077033	1.530083	0.718471
C89	C	1.577007	0.975479	0.218468
C90	C	2.077007	1.475479	0.718468
C91	C	1.510126	0.948196	0.251879
C92	C	2.010126	1.448196	0.751879
C93	C	1.576749	0.527740	0.218438
C94	C	2.076749	1.027740	0.718438
C95	C	1.576707	0.473134	0.218434
C96	C	2.076707	0.973134	0.718434
C97	C	1.442968	0.473174	0.285251
C98	C	1.942968	0.973174	0.785251
C99	C	1.443006	0.527775	0.285253
C100	C	1.943006	1.027775	0.785253
C101	C	1.509905	0.555056	0.251845
C102	C	2.009905	1.055056	0.751845
O103	O	1.386212	0.614172	0.313641
O104	O	1.886212	1.114172	0.813641
O105	O	1.633689	0.614147	0.190040
O106	O	2.133689	1.114147	0.690040
C107	C	1.782580	0.251904	0.251872
C108	C	2.282580	0.751904	0.751872
C109	C	1.898733	0.251909	0.251877
C110	C	2.398733	0.751909	0.751877
C111	C	1.510078	0.251870	0.388235
C112	C	2.010078	0.751870	0.888235
C113	C	1.510107	0.251860	0.446349
C114	C	2.010107	0.751860	0.946349
C115	C	1.510197	1.115521	0.251893
C116	C	2.010197	1.615521	0.751893
C117	C	1.510177	1.057407	0.251884
C118	C	2.010177	1.557407	0.751884
C119	C	1.510003	0.251880	0.116020
C120	C	2.010003	0.751880	0.616020
C121	C	1.510176	0.251743	0.057906
C122	C	2.010176	0.751743	0.557906
C123	C	1.443354	0.218355	0.806725
C124	C	1.943354	0.718355	1.306725
C125	C	1.443360	0.218345	0.861330
C126	C	1.943360	0.718345	1.361330
O127	O	1.386552	0.189915	0.889577
O128	O	1.886552	0.689915	1.389577
N129	N	1.510142	0.251778	0.888632
N130	N	2.010142	0.751778	1.388632
C131	C	1.576915	0.285226	0.861327
C132	C	2.076915	0.785226	1.361327
O133	O	1.633718	0.313662	0.889564
O134	O	2.133718	0.813662	1.389564
C135	C	1.576903	0.285238	0.806724
C136	C	2.076903	0.785238	1.306724
C137	C	1.510124	0.251799	0.779424
C138	C	2.010124	0.751799	1.279424
C139	C	1.376580	0.184919	0.779426
C140	C	1.876580	0.684919	1.279426
C141	C	1.376576	0.184928	0.724825
C142	C	1.876576	0.684928	1.224825
C143	C	1.443346	0.218372	0.697524
C144	C	1.943346	0.718372	1.197524
C145	C	1.510120	0.251808	0.724824
C146	C	2.010120	0.751808	1.224824
C147	C	1.643670	0.318688	0.779420
C148	C	2.143670	0.818688	1.279420
C149	C	1.643652	0.318697	0.724813
C150	C	2.143652	0.818697	1.224813
C151	C	1.576873	0.285258	0.697513
C152	C	2.076873	0.785258	1.197513
C153	C	1.576887	0.285261	0.642922
C154	C	2.076887	0.785261	1.142922
N155	N	1.510105	0.251828	0.615620
N156	N	2.010105	0.751828	1.115620
C157	C	1.443335	0.218384	0.642921
C158	C	1.943335	0.718384	1.142921
C159	C	1.576933	0.285199	0.975998
C160	C	2.076933	0.785199	1.475998
C161	C	1.576951	0.285185	1.030600
C162	C	2.076951	0.785185	1.530600
C163	C	1.443394	0.218305	1.030599
C164	C	1.943394	0.718305	1.530599
C165	C	1.443383	0.218317	0.975996
C166	C	1.943383	0.718317	1.475996
C167	C	1.510151	0.251767	0.948695
C168	C	2.010151	0.751767	1.448695
C169	C	1.443332	0.218405	0.528256
C170	C	1.943332	0.718405	1.028256
C171	C	1.443337	0.218415	0.473650
C172	C	1.943337	0.718415	0.973650
C173	C	1.576889	0.285297	0.473656
C174	C	2.076889	0.785297	0.973656
C175	C	1.576888	0.285285	0.528257
C176	C	2.076888	0.785285	1.028257
C177	C	1.510101	0.251837	0.555555
C178	C	2.010101	0.751837	1.055555
O179	O	1.633663	0.313678	0.614640
O180	O	2.133663	0.813678	1.114640
O181	O	1.386532	0.189957	0.614677
O182	O	1.886532	0.689957	1.114677
H183	H	1.115087	0.310951	0.310733
H184	H	1.615087	0.810951	0.810733
C185	C	1.369736	1.060160	0.322039
C186	C	1.869736	1.560160	0.822039
N187	N	1.314337	1.082785	0.349724
N188	N	1.814337	1.582785	0.849724
H189	H	1.388958	0.191183	0.451426
H190	H	1.888958	0.691183	0.951426
H191	H	1.077813	0.224652	0.224712
H192	H	1.577813	0.724652	0.724712
C193	C	0.958897	0.215098	0.215187
C194	C	1.458897	0.715098	0.715187
N195	N	1.004220	0.187370	0.187554
N196	N	1.504220	0.687370	0.687554
C197	C	1.650248	0.443090	0.181672
C198	C	2.150248	0.943090	0.681672
N199	N	1.705638	0.420462	0.153984
N200	N	2.205638	0.920462	0.653984
C201	C	1.369870	0.181607	0.558276
C202	C	1.869870	0.681607	1.058276
N203	N	1.314544	0.153888	0.580887
N204	N	1.814544	0.653888	1.080887
H205	H	0.905961	0.310971	0.310746
H206	H	1.405961	0.810971	0.810746
H207	H	1.631227	0.549946	0.191235
H208	H	2.131227	1.049946	0.691235
H209	H	1.322194	0.157701	0.702603
H210	H	1.822194	0.657701	1.202603
C211	C	1.650354	0.322066	0.558287
C212	C	2.150354	0.822066	1.058287
N213	N	1.705682	0.349774	0.580902
N214	N	2.205682	0.849774	1.080902
H215	H	1.698174	0.702054	0.157839
H216	H	2.198174	1.202054	0.657839
H217	H	1.698237	0.801102	0.157849
H218	H	2.198237	1.301102	0.657849
H219	H	1.321823	0.702136	0.345893
H220	H	1.821823	1.202136	0.845893
C221	C	1.717111	0.355492	0.694786
C222	C	2.217111	0.855492	1.194786
N223	N	1.772445	0.383204	0.672171
N224	N	2.272445	0.883204	1.172171
H225	H	1.631255	0.312525	0.451418
H226	H	2.131255	0.812525	0.951418
H227	H	1.631445	0.953242	0.191261
H228	H	2.131445	1.453242	0.691261
C229	C	1.369695	0.945509	0.322044
C230	C	1.869695	1.445509	0.822044
N231	N	1.314285	0.922911	0.349734
N232	N	1.814285	1.422911	0.849734
H233	H	1.631496	1.052307	0.191273
H234	H	2.131496	1.552307	0.691273
H235	H	1.388572	0.550017	0.312463
H236	H	1.888572	1.050017	0.812463
C237	C	1.369405	0.443151	0.321996
C238	C	1.869405	0.943151	0.821996
N239	N	1.314004	0.420537	0.349676
N240	N	1.814004	0.920537	0.849676
H241	H	1.321860	0.801186	0.345896
H242	H	1.821860	1.301186	0.845896
C243	C	1.650421	0.321966	1.060623
C244	C	2.150421	0.821966	1.560623
N245	N	1.705756	0.349674	1.083235
N246	N	2.205756	0.849674	1.583235
H247	H	1.322203	0.157684	0.801649
H248	H	1.822203	0.657684	1.301649
H249	H	1.389006	0.191088	0.953772
H250	H	1.889006	0.691088	1.453772
C251	C	1.369938	0.181519	1.060641
C252	C	1.869938	0.681519	1.560641
N253	N	1.314612	0.153815	1.083270
N254	N	1.814612	0.653815	1.583270
C255	C	1.650416	0.321986	0.945972
C256	C	2.150416	0.821986	1.445972
N257	N	1.705769	0.349690	0.923360
N258	N	2.205769	0.849690	1.423360
H259	H	1.698048	0.345918	0.801638
H260	H	2.198048	0.845918	1.301638
