data_functionalizedCrystal
_audit_creation_method	'MofGen! by Chris Wilmer'
_symmetry_space_group_name_H-M	'P1'
_symmetry_Int_Tables_number	1
_symmetry_cell_setting	triclinic
loop_
_symmetry_equiv_pos_as_xyz
  x,y,z
_cell_length_a	16.109302
_cell_length_b	16.109304
_cell_length_c	15.186229
_cell_angle_alpha	89.999066
_cell_angle_beta	90.005299
_cell_angle_gamma	96.537791
loop_
_atom_site_label
_atom_site_type_symbol
_atom_site_fract_x
_atom_site_fract_y
_atom_site_fract_z
O1	O	-1.103131	0.106869	-0.073263
O2	O	-0.603131	0.606869	0.426737
O3	O	-0.861070	0.120167	-0.073255
O4	O	-0.361070	0.620167	0.426745
O5	O	-0.988749	-0.007513	-0.073259
O6	O	-0.488749	0.492487	0.426741
O7	O	-0.975452	0.234549	-0.073258
O8	O	-0.475452	0.734549	0.426742
O9	O	-0.988740	-0.007514	0.073198
O10	O	-0.488740	0.492486	0.573198
O11	O	-0.861061	0.120166	0.073202
O12	O	-0.361061	0.620166	0.573202
O13	O	-1.103123	0.106867	0.073195
O14	O	-0.603123	0.606867	0.573195
Zn15	Zn	-0.982091	0.113516	0.096452
Zn16	Zn	-0.482091	0.613516	0.596452
Zn17	Zn	-0.982102	0.113518	-0.096512
Zn18	Zn	-0.482102	0.613518	0.403488
O19	O	-0.975444	0.234547	0.073199
O20	O	-0.475444	0.734547	0.573199
C21	C	-0.830090	0.119628	-0.000025
C22	C	-0.330090	0.619628	0.499975
C23	C	-0.737795	0.118012	-0.000023
C24	C	-0.237795	0.618012	0.499977
C25	C	-0.988206	-0.038488	-0.000033
C26	C	-0.488206	0.461512	0.499967
C27	C	-0.986590	-0.130784	-0.000039
C28	C	-0.486590	0.369216	0.499961
C29	C	-0.982861	-0.343120	-0.079869
C30	C	-0.482861	0.156880	0.420131
C31	C	-0.981334	-0.429840	-0.079868
C32	C	-0.481334	0.070160	0.420132
C33	C	-0.981329	-0.429839	0.079807
C34	C	-0.481329	0.070161	0.579807
C35	C	-0.982849	-0.343120	0.079806
C36	C	-0.482849	0.156880	0.579806
C37	C	-0.983619	-0.299763	-0.000035
C38	C	-0.483619	0.200237	0.499965
C39	C	-0.980573	-0.473202	-0.000033
C40	C	-0.480573	0.026798	0.499967
C41	C	-0.978918	-0.567228	-0.000031
C42	C	-0.478918	-0.067228	0.499969
C43	C	-0.985272	-0.205731	-0.000037
C44	C	-0.485272	0.294269	0.499963
C45	C	-1.134102	0.107407	-0.000037
C46	C	-0.634102	0.607407	0.499963
C47	C	-1.226397	0.109022	-0.000045
C48	C	-0.726397	0.609022	0.499955
C49	C	-0.525450	0.114276	0.079802
C50	C	-0.025450	0.614276	0.579802
C51	C	-0.438729	0.112750	0.079799
C52	C	0.061271	0.612750	0.579799
C53	C	-0.438749	0.112756	-0.079876
C54	C	0.061251	0.612756	0.420124
C55	C	-0.525468	0.114277	-0.079872
C56	C	-0.025468	0.614277	0.420128
C57	C	-0.568816	0.115041	-0.000030
C58	C	-0.068816	0.615041	0.499970
C59	C	-0.395377	0.111994	-0.000038
C60	C	0.104623	0.611994	0.499962
C61	C	-0.301351	0.110338	-0.000041
C62	C	0.198649	0.610338	0.499959
C63	C	-0.662848	0.116695	-0.000026
C64	C	-0.162848	0.616695	0.499974
C65	C	-0.975987	0.265523	-0.000029
C66	C	-0.475987	0.765523	0.499971
C67	C	-0.977603	0.357818	-0.000029
C68	C	-0.477603	0.857818	0.499971
N69	N	-0.982089	0.113514	0.228144
N70	N	-0.482089	0.613514	0.728144
N71	N	-0.982110	0.113514	-0.228205
N72	N	-0.482110	0.613514	0.271795
C73	C	-1.038645	0.056996	0.453865
C74	C	-0.538645	0.556996	0.953865
C75	C	-1.038647	0.056994	0.546055
C76	C	-0.538647	0.556994	1.046055
C77	C	-0.925548	0.170034	0.546068
C78	C	-0.425548	0.670034	1.046068
C79	C	-0.925542	0.170032	0.453880
C80	C	-0.425542	0.670032	0.953880
C81	C	-0.982095	0.113514	0.407781
C82	C	-0.482095	0.613514	0.907781
C83	C	-0.982104	0.113514	0.592159
C84	C	-0.482104	0.613514	1.092159
C85	C	-0.982106	0.113513	0.692115
C86	C	-0.482106	0.613513	1.192115
C87	C	-0.982092	0.113514	0.307819
C88	C	-0.482092	0.613514	0.807819
H89	H	-0.983485	-0.307821	-0.144881
H90	H	-0.483485	0.192179	0.355119
H91	H	-1.084692	0.010975	0.416334
H92	H	-0.584692	0.510975	0.916334
H93	H	-1.084694	0.010972	0.583574
H94	H	-0.584694	0.510972	1.083574
H95	H	-0.560779	0.114897	-0.144886
H96	H	-0.060779	0.614897	0.355114
C97	C	-0.980486	-0.477540	0.167628
C98	C	-0.480486	0.022460	0.667628
N99	N	-0.979852	-0.513468	0.233776
N100	N	-0.479852	-0.013468	0.733776
H101	H	-0.983463	-0.307817	0.144820
H102	H	-0.483463	0.192183	0.644820
H103	H	-0.403445	0.112134	-0.144881
H104	H	0.096555	0.612134	0.355119
C105	C	-0.863368	0.232246	0.403184
C106	C	-0.363368	0.732246	0.903184
N107	N	-0.816553	0.279117	0.365000
N108	N	-0.316553	0.779117	0.865000
H109	H	-0.879505	0.216051	0.583611
H110	H	-0.379505	0.716051	1.083611
C111	C	-0.573130	0.115107	0.167631
C112	C	-0.073130	0.615107	0.667631
N113	N	-0.609041	0.115729	0.233786
N114	N	-0.109041	0.615729	0.733786
C115	C	-0.980532	-0.477533	-0.167692
C116	C	-0.480532	0.022467	0.332308
N117	N	-0.979939	-0.513456	-0.233845
N118	N	-0.479939	-0.013456	0.266155
H119	H	-0.403424	0.112127	0.144807
H120	H	0.096576	0.612127	0.644807
