data_functionalizedCrystal
_audit_creation_method	'MofGen! by Chris Wilmer'
_symmetry_space_group_name_H-M	'P1'
_symmetry_Int_Tables_number	1
_symmetry_cell_setting	triclinic
loop_
_symmetry_equiv_pos_as_xyz
  x,y,z
_cell_length_a	19.188930
_cell_length_b	19.188930
_cell_length_c	17.666332
_cell_angle_alpha	90.023234
_cell_angle_beta	89.988397
_cell_angle_gamma	96.855221
loop_
_atom_site_label
_atom_site_type_symbol
_atom_site_fract_x
_atom_site_fract_y
_atom_site_fract_z
O1	O	0.087169	-0.926150	-0.063200
O2	O	0.098903	-0.722838	-0.063149
O3	O	-0.008620	-0.830361	-0.063161
O4	O	0.194692	-0.818627	-0.063188
O5	O	-0.008625	-0.830342	0.062735
O6	O	0.098897	-0.722820	0.062747
O7	O	0.087163	-0.926131	0.062697
Cu8	Cu	0.093030	-0.824473	0.074217
Cu9	Cu	0.093036	-0.824496	-0.074670
O10	O	0.194686	-0.818608	0.062709
C11	C	-0.034634	-0.829972	-0.000211
C12	C	-0.112138	-0.828831	-0.000204
C13	C	0.098520	-0.696818	-0.000194
C14	C	0.097380	-0.619313	-0.000174
C15	C	-0.157062	-0.891922	-0.000216
C16	C	-0.229886	-0.890850	-0.000228
C17	C	-0.257782	-0.826684	-0.000212
C18	C	-0.212849	-0.763585	-0.000205
C19	C	-0.140026	-0.764658	-0.000200
N20	N	-0.365789	-0.777630	0.042645
N21	N	-0.434968	-0.776615	0.042642
C22	C	-0.477191	-0.823446	-0.000227
N23	N	-0.447624	-0.871341	-0.043084
N24	N	-0.378439	-0.872359	-0.043079
C25	C	-0.336745	-0.825513	-0.000218
C26	C	-0.601079	-0.885379	-0.000253
C27	C	-0.673904	-0.884305	-0.000270
C28	C	-0.656865	-0.757038	-0.000239
C29	C	-0.584042	-0.758114	-0.000230
C30	C	-0.556154	-0.822287	-0.000233
C31	C	0.087546	-0.952151	-0.000260
C32	C	0.088687	-1.029656	-0.000285
C33	C	0.220700	-0.818997	-0.000244
C34	C	0.298204	-0.820138	-0.000255
N35	N	0.093025	-0.824463	0.178937
C36	C	0.160470	-0.574389	-0.000194
C37	C	0.159399	-0.501566	-0.000203
C38	C	0.095233	-0.473669	-0.000206
C39	C	0.032133	-0.518603	-0.000181
C40	C	0.033207	-0.591425	-0.000166
N41	N	0.046188	-0.365695	-0.043078
N42	N	0.045172	-0.296517	-0.043095
C43	C	0.091994	-0.254260	-0.000252
N44	N	0.139881	-0.283795	0.042599
N45	N	0.140899	-0.352979	0.042612
C46	C	0.094062	-0.394707	-0.000222
C47	C	0.153928	-0.130372	-0.000280
C48	C	0.152853	-0.057547	-0.000283
C49	C	0.025586	-0.074586	-0.000270
C50	C	0.026662	-0.147409	-0.000258
C51	C	0.090835	-0.175298	-0.000267
N52	N	0.093036	-0.824512	-0.179390
C53	C	0.045437	-0.872089	0.218541
C54	C	0.045433	-0.872093	0.297789
C55	C	0.093030	-0.824478	0.337429
C56	C	0.140621	-0.776842	0.297815
C57	C	0.140619	-0.776835	0.218569
N58	N	0.154837	-0.815401	0.461841
N59	N	0.154837	-0.815413	0.537121
C60	C	0.093040	-0.824496	0.576193
N61	N	0.031239	-0.833582	0.537140
N62	N	0.031240	-0.833574	0.461853
C63	C	0.093038	-0.824480	0.423358
C64	C	0.045444	-0.872130	0.701727
C65	C	0.045440	-0.872129	0.780976
C66	C	0.140634	-0.776881	0.781000
C67	C	0.140632	-0.776878	0.701753
C68	C	0.093038	-0.824506	0.662121
H69	H	-0.134360	-0.944176	-0.000222
Br70	Br	0.241017	-0.168225	-0.000286
H71	H	-0.679578	-0.704792	-0.000230
Br72	Br	-0.079054	-0.679028	-0.000186
H73	H	0.179386	-0.738099	0.669505
Br74	Br	-0.054950	-0.480745	-0.000178
Br75	Br	-0.019155	-0.936763	0.834729
H76	H	-0.710481	-0.935683	-0.000284
Br77	Br	-0.250706	-0.676502	-0.000193
Br78	Br	-0.290866	-0.976479	-0.000248
H79	H	0.210776	-0.464982	-0.000217
Br80	Br	0.238485	0.003424	-0.000304
H81	H	-0.578372	-0.937632	-0.000259
Br82	Br	-0.061498	-0.036735	-0.000261
Br83	Br	0.205222	-0.712252	0.834791
H84	H	-0.547464	-0.706738	-0.000216
H85	H	-0.024713	-0.183988	-0.000246
H86	H	0.212725	-0.597091	-0.000203
Br87	Br	-0.019156	-0.936723	0.164754
Br88	Br	0.205206	-0.712194	0.164815
H89	H	-0.018171	-0.628003	-0.000150
Br90	Br	-0.019157	-0.936734	0.351547
Br91	Br	0.205213	-0.712215	0.351609
H92	H	0.006688	-0.910909	0.669457
