data_functionalizedCrystal
_audit_creation_method	'MofGen! by Chris Wilmer'
_symmetry_space_group_name_H-M	'P1'
_symmetry_Int_Tables_number	1
_symmetry_cell_setting	triclinic
loop_
_symmetry_equiv_pos_as_xyz
  x,y,z
_cell_length_a	12.759401
_cell_length_b	16.120484
_cell_length_c	12.759393
_cell_angle_alpha	87.135381
_cell_angle_beta	90.020459
_cell_angle_gamma	92.926992
loop_
_atom_site_label
_atom_site_type_symbol
_atom_site_fract_x
_atom_site_fract_y
_atom_site_fract_z
Zn1	Zn	1.584979	-0.331838	0.615183
Zn2	Zn	1.575929	-0.471272	0.448396
Zn3	Zn	1.409276	-0.331880	0.439521
Zn4	Zn	1.400331	-0.471215	0.624029
O5	O	1.492629	-0.401551	0.531782
O6	O	1.730799	-0.350340	0.593070
O7	O	1.553779	-0.452823	0.300200
O8	O	1.440115	-0.215209	0.455407
O9	O	1.724150	-0.452781	0.470532
O10	O	1.569203	-0.215178	0.584465
O11	O	1.431340	-0.350413	0.293680
O12	O	1.261069	-0.350358	0.463984
O13	O	1.424868	-0.452685	0.769874
O14	O	1.254497	-0.452726	0.599542
O15	O	1.560529	-0.350285	0.763375
O16	O	1.545104	-0.587930	0.479110
O17	O	1.416093	-0.587888	0.608147
C18	C	1.219662	-0.401541	0.531761
C19	C	1.102884	-0.401557	0.531778
C20	C	1.044623	-0.454941	0.602262
C21	C	0.934898	-0.454944	0.602283
C22	C	0.941708	-0.348176	0.461326
C23	C	1.051430	-0.348170	0.461311
C24	C	1.478674	-0.618159	0.545574
C25	C	1.472801	-0.710824	0.551510
C26	C	1.462083	-0.880486	0.562368
C27	C	1.523363	-0.921776	0.501214
C28	C	1.517400	-1.016181	0.507255
C29	C	1.468045	-0.786072	0.556328
C30	C	1.766661	-0.401562	0.531804
C31	C	1.883438	-0.401567	0.531814
C32	C	1.492710	-0.401473	0.805811
C33	C	1.492745	-0.401440	0.922585
C34	C	1.506666	-0.184098	0.517959
C35	C	1.512648	-0.091432	0.512069
C36	C	1.492612	-0.401568	0.258816
C37	C	1.492796	-0.401366	0.142027
C38	C	1.556530	-0.454703	1.090574
C39	C	1.556502	-0.454743	0.980852
C40	C	1.429003	-0.348101	0.974046
C41	C	1.429026	-0.348067	1.083766
H42	H	0.899800	-0.304712	0.403954
H43	H	1.098869	-0.304692	0.403914
H44	H	1.608454	-0.498105	1.138007
C45	C	1.591322	-0.788201	0.433194
C46	C	1.600224	-0.873790	0.424395
H47	H	1.638763	-0.758576	0.385764
H48	H	1.607558	-0.773925	0.502891
H49	H	1.521608	-0.774056	0.416877
H50	H	1.669936	-0.887936	0.440720
H51	H	1.583995	-0.888071	0.354683
H52	H	1.608401	-0.498175	0.938964
H53	H	0.887466	-0.498414	0.659680
C54	C	1.394104	-1.014059	0.630342
C55	C	1.385206	-0.928472	0.639159
H56	H	1.346637	-1.043689	0.677743
H57	H	1.463800	-1.028212	0.646680
H58	H	1.377892	-1.028321	0.560625
H59	H	1.401426	-0.914208	0.708874
H60	H	1.315494	-0.914313	0.622828
H61	H	1.377086	-0.304705	0.926596
C62	C	1.253750	-0.307433	1.114925
C63	C	1.358961	-0.289432	1.140325
H64	H	1.210496	-0.271234	1.149838
H65	H	1.234771	-0.363435	1.136471
H66	H	1.244627	-0.299822	1.041240
H67	H	1.368085	-0.297049	1.214010
H68	H	1.377945	-0.233416	1.118785
C69	C	1.026867	-0.560467	0.741603
C70	C	1.101183	-0.513614	0.679728
H71	H	1.061786	-0.596684	0.789435
H72	H	0.982003	-0.592317	0.697797
H73	H	0.986425	-0.524172	0.779554
H74	H	1.141620	-0.549908	0.641772
H75	H	1.146066	-0.481761	0.723540
