data_functionalizedCrystal
_audit_creation_method	'MofGen! by Chris Wilmer'
_symmetry_space_group_name_H-M	'P1'
_symmetry_Int_Tables_number	1
_symmetry_cell_setting	triclinic
loop_
_symmetry_equiv_pos_as_xyz
  x,y,z
_cell_length_a	10.540514
_cell_length_b	10.540539
_cell_length_c	14.586319
_cell_angle_alpha	89.998343
_cell_angle_beta	89.995975
_cell_angle_gamma	84.520326
loop_
_atom_site_label
_atom_site_type_symbol
_atom_site_fract_x
_atom_site_fract_y
_atom_site_fract_z
O1	O	1.685904	0.178746	-0.076247
O2	O	1.316487	0.195636	-0.076246
O3	O	1.509624	0.002484	-0.076245
O4	O	1.492768	0.371898	-0.076248
O5	O	1.509610	0.002481	0.076235
O6	O	1.316474	0.195633	0.076235
O7	O	1.685891	0.178743	0.076234
Cu8	Cu	1.501181	0.187188	0.090157
Cu9	Cu	1.501197	0.187191	-0.090169
O10	O	1.492754	0.371895	0.076233
C11	C	1.269177	0.194374	-0.000006
C12	C	1.128227	0.190605	-0.000005
C13	C	1.057522	0.328745	-0.000008
C14	C	0.910908	0.324871	-0.000359
C15	C	0.935897	0.115480	-0.086915
C16	C	1.082437	0.120333	-0.086983
C17	C	1.082824	0.118286	0.086422
C18	C	0.935845	0.116953	0.087560
C19	C	1.508353	-0.044821	-0.000007
C20	C	1.504571	-0.185769	-0.000012
C21	C	1.359652	-0.369182	-0.000353
C22	C	1.363486	-0.222564	-0.000010
C23	C	1.572460	-0.247434	0.087062
C24	C	1.567644	-0.393978	0.087136
C25	C	1.570529	-0.394493	-0.086264
C26	C	1.571829	-0.247511	-0.087415
C27	C	1.733201	0.180004	-0.000009
C28	C	1.874151	0.183774	-0.000015
C29	C	1.494025	0.419199	-0.000008
C30	C	1.497807	0.560147	-0.000009
N31	N	1.501179	0.187184	0.216989
N32	N	1.501209	0.187184	-0.217001
C33	C	1.586729	0.101686	0.451995
C34	C	1.586732	0.101683	0.547977
C35	C	1.415650	0.272687	0.547986
C36	C	1.415641	0.272683	0.452006
C37	C	1.501188	0.187184	0.404013
C38	C	1.501200	0.187185	0.595974
C39	C	1.501203	0.187182	0.700041
C40	C	1.501183	0.187185	0.299940
H41	H	1.110667	0.170216	-0.152191
Cl42	Cl	1.308090	0.380168	0.391680
H43	H	1.656386	0.032061	0.587041
Cl44	Cl	1.131437	0.189279	0.188149
Cl45	Cl	1.500027	-0.443180	-0.188158
H46	H	0.893296	0.162295	-0.151833
Cl47	Cl	0.846478	0.407448	-0.097104
H48	H	1.303926	-0.397776	-0.062795
H49	H	1.672434	-0.441728	-0.086850
H50	H	1.517460	-0.422174	0.152225
Cl51	Cl	1.495779	-0.183672	-0.186883
H52	H	1.525289	-0.204832	0.151860
H53	H	1.346002	0.342300	0.587071
Cl54	Cl	1.102375	0.415620	0.095786
H55	H	1.087755	0.383964	-0.062234
Cl56	Cl	0.845023	0.407817	0.095789
Cl57	Cl	1.724294	-0.468058	0.093247
Cl58	Cl	0.872542	0.194003	0.186821
H59	H	0.911660	0.014107	0.093066
Cl60	Cl	1.281009	-0.156773	-0.096378
Cl61	Cl	1.156560	-0.036329	-0.092706
H62	H	0.913583	0.011848	-0.089900
H63	H	1.676068	-0.225089	0.090299
H64	H	1.130080	0.016393	0.087262
H65	H	1.304142	-0.399386	0.061739
H66	H	1.309682	-0.180805	0.062512
Cl67	Cl	1.694268	-0.005804	0.391666
Cl68	Cl	1.730641	-0.210125	-0.095540
