data_functionalizedCrystal
_audit_creation_method	'MofGen! by Chris Wilmer'
_symmetry_space_group_name_H-M	'P1'
_symmetry_Int_Tables_number	1
_symmetry_cell_setting	triclinic
loop_
_symmetry_equiv_pos_as_xyz
  x,y,z
_cell_length_a	10.654549
_cell_length_b	10.654558
_cell_length_c	16.176319
_cell_angle_alpha	89.993130
_cell_angle_beta	89.993623
_cell_angle_gamma	84.486468
loop_
_atom_site_label
_atom_site_type_symbol
_atom_site_fract_x
_atom_site_fract_y
_atom_site_fract_z
O1	O	1.667851	0.176399	-0.068728
O2	O	1.302373	0.193206	-0.068734
O3	O	1.493510	0.002064	-0.068725
O4	O	1.476715	0.367541	-0.068737
O5	O	1.493484	0.002051	0.068768
O6	O	1.302347	0.193193	0.068760
O7	O	1.667825	0.176387	0.068765
Cu8	Cu	1.485083	0.184789	0.081317
Cu9	Cu	1.485115	0.184804	-0.081285
O10	O	1.476688	0.367529	0.068757
C11	C	1.255562	0.191966	0.000012
C12	C	1.116119	0.188274	0.000010
C13	C	0.905607	0.297337	0.000010
C14	C	1.036628	0.300815	0.000005
C15	C	1.064583	0.072247	0.000012
C16	C	0.933565	0.068770	0.000011
C17	C	1.198899	0.442868	-0.048171
C18	C	1.250430	0.558893	-0.048161
C19	C	1.195558	0.658661	0.000015
C20	C	1.089156	0.642410	0.048201
C21	C	1.037632	0.526383	0.048198
C22	C	1.092501	0.426620	0.000003
C23	C	0.771290	-0.073275	0.048194
C24	C	0.719764	-0.189303	0.048197
C25	C	0.774635	-0.289082	0.000027
C26	C	0.881042	-0.272843	-0.048147
C27	C	0.932569	-0.156815	-0.048150
C28	C	0.877689	-0.057036	0.000019
C29	C	1.492262	-0.044740	0.000021
C30	C	1.488566	-0.184183	0.000020
C31	C	1.486813	-0.249711	0.074965
C32	C	1.483351	-0.380734	0.074957
C33	C	1.483389	-0.380687	-0.074946
C34	C	1.486860	-0.249668	-0.074937
C35	C	1.552037	-0.568797	0.164991
C36	C	1.550262	-0.634327	0.239940
C37	C	1.477909	-0.582843	0.306114
C38	C	1.407300	-0.465827	0.297343
C39	C	1.409063	-0.400302	0.222393
C40	C	1.481446	-0.451788	0.156222
C41	C	1.418164	-0.061601	-0.164967
C42	C	1.419918	0.003927	-0.239917
C43	C	1.492264	-0.047554	-0.306098
C44	C	1.562854	-0.164572	-0.297335
C45	C	1.561099	-0.230100	-0.222385
C46	C	1.488757	-0.178610	-0.156204
C47	C	1.714636	0.177627	0.000018
C48	C	1.854079	0.181319	0.000014
C49	C	1.477937	0.414333	0.000009
C50	C	1.481632	0.553776	0.000004
N51	N	1.485070	0.184778	0.195682
N52	N	1.485138	0.184805	-0.195650
C53	C	1.569732	0.100175	0.238950
C54	C	1.569738	0.100174	0.325497
C55	C	1.485088	0.184782	0.368774
C56	C	1.400418	0.269389	0.325500
C57	C	1.400406	0.269383	0.238955
C58	C	1.400461	0.269413	0.674529
C59	C	1.400481	0.269415	0.761080
C60	C	1.569793	0.100204	0.761071
C61	C	1.569781	0.100198	0.674525
C62	C	1.485107	0.184799	0.631259
C63	C	1.485099	0.184798	0.537415
C64	C	1.485101	0.184791	0.462617
H65	H	1.243577	0.361641	-0.087411
H66	H	1.493629	0.005780	-0.367141
Br67	Br	1.684633	-0.014649	0.384221
H68	H	1.638736	0.031313	0.796308
H69	H	0.633138	-0.202528	0.087441
Br70	Br	1.285552	0.384227	0.615814
H71	H	1.331465	0.338273	0.203727
Br72	Br	1.684673	-0.014623	0.615794
H73	H	0.732672	-0.383558	0.000036
H74	H	1.129315	-0.019386	0.000011
Br75	Br	1.265498	0.816119	0.000029
H76	H	0.925723	-0.354092	-0.087370
Br77	Br	0.797738	0.450081	0.000013
H78	H	1.476465	-0.636207	0.367138
Br79	Br	1.285523	0.384208	0.384231
H80	H	1.610971	-0.610721	0.111116
Br81	Br	0.696811	0.062145	0.113570
Br82	Br	1.646067	-0.793139	0.251838
Br83	Br	1.313252	-0.241503	0.210486
Br84	Br	0.893243	0.504318	0.113588
Br85	Br	1.394827	0.580948	-0.113553
Br86	Br	1.481079	-0.469569	-0.176669
Br87	Br	1.076986	-0.134777	-0.113526
H88	H	1.488191	-0.196395	0.136000
H89	H	1.618575	-0.325388	-0.215256
Br90	Br	1.014706	0.777812	0.113599
Br91	Br	1.309072	-0.395977	0.387149
Br92	Br	1.285593	0.384249	0.819814
Br93	Br	1.661034	-0.234452	-0.387155
H94	H	1.362510	0.099255	-0.247027
H95	H	1.359258	-0.019667	-0.111077
H96	H	1.638669	0.031283	0.203719
