data_functionalizedCrystal
_audit_creation_method	'MofGen! by Chris Wilmer'
_symmetry_space_group_name_H-M	'P1'
_symmetry_Int_Tables_number	1
_symmetry_cell_setting	triclinic
loop_
_symmetry_equiv_pos_as_xyz
  x,y,z
_cell_length_a	10.723024
_cell_length_b	13.101039
_cell_length_c	10.723024
_cell_angle_alpha	93.395424
_cell_angle_beta	95.532131
_cell_angle_gamma	93.389393
loop_
_atom_site_label
_atom_site_type_symbol
_atom_site_fract_x
_atom_site_fract_y
_atom_site_fract_z
O1	O	1.663994	0.085205	-0.168199
O2	O	1.300842	0.085208	-0.184952
O3	O	1.490794	0.085203	0.005000
O4	O	1.474041	0.085211	-0.358152
O5	O	1.477165	-0.085226	-0.008651
O6	O	1.287213	-0.085221	-0.198604
O7	O	1.650365	-0.085224	-0.181851
Zn8	Zn	1.466625	-0.112282	-0.192395
Zn9	Zn	1.484582	0.112266	-0.174408
O10	O	1.460413	-0.085219	-0.371803
C11	C	1.247528	-0.000006	-0.190559
C12	C	1.108974	-0.000005	-0.186911
N13	N	1.454380	-0.265530	-0.204669
C14	C	1.033991	-0.000002	-0.293198
C15	C	0.890788	-0.000000	-0.289431
C16	C	1.437719	-0.474572	-0.221381
C17	C	1.513494	-0.525450	-0.145416
C18	C	1.504223	-0.641768	-0.154715
C19	C	1.446988	-0.358244	-0.212084
C20	C	1.703679	-0.000008	-0.176244
C21	C	1.842234	-0.000002	-0.179891
C22	C	1.482761	-0.000011	0.044674
C23	C	1.479113	-0.000007	0.183229
N24	N	1.496837	0.265514	-0.162124
C25	C	1.468446	-0.000003	-0.411477
C26	C	1.472094	0.000000	-0.550031
C27	C	1.585401	-0.000006	0.258211
C28	C	1.581634	-0.000003	0.401415
H29	H	1.075813	-0.000006	-0.386985
O30	O	1.351548	-0.000007	0.364644
H31	H	1.353297	0.069458	0.310233
O32	O	1.053596	-0.000014	-0.062670
H33	H	1.000494	0.069453	-0.050179
H34	H	1.365890	-0.518367	-0.293396
O35	O	0.805443	-0.000003	-0.409963
H36	H	0.829236	0.069464	-0.459539
H37	H	0.906659	0.000002	-0.088895
O38	O	1.709642	-0.000009	0.202833
H39	H	1.693104	-0.000017	0.099045
O40	O	1.702166	-0.000010	0.486757
H41	H	1.782978	-0.000022	0.429398
H42	H	1.385328	0.000001	0.225051
O43	O	1.608654	-0.467445	-0.050016
H44	H	1.601104	-0.383862	-0.057593
