data_functionalizedCrystal
_audit_creation_method	'MofGen! by Chris Wilmer'
_symmetry_space_group_name_H-M	'P1'
_symmetry_Int_Tables_number	1
_symmetry_cell_setting	triclinic
loop_
_symmetry_equiv_pos_as_xyz
  x,y,z
_cell_length_a	9.065218
_cell_length_b	27.732048
_cell_length_c	8.140239
_cell_angle_alpha	89.991555
_cell_angle_beta	89.997198
_cell_angle_gamma	83.829270
loop_
_atom_site_label
_atom_site_type_symbol
_atom_site_fract_x
_atom_site_fract_y
_atom_site_fract_z
O1	O	1.955891	0.070866	-0.136639
O2	O	1.526237	0.076679	-0.136643
O3	O	1.754408	0.003467	-0.136609
O4	O	1.727720	0.144079	-0.136672
O5	O	1.754396	0.003466	0.136618
O6	O	1.526224	0.076678	0.136584
O7	O	1.955879	0.070866	0.136588
Zn8	Zn	1.741050	0.073772	0.179967
Zn9	Zn	1.741066	0.073773	-0.180021
O10	O	1.727708	0.144078	0.136555
C11	C	1.471280	0.076120	-0.000029
C12	C	1.307543	0.074450	-0.000029
C13	C	1.753842	-0.014544	0.000009
C14	C	1.752155	-0.068210	0.000022
C15	C	1.876369	-0.406178	-0.000061
C16	C	1.870110	-0.607880	-0.000084
O17	O	1.983695	-0.638360	-0.000155
N18	N	1.734814	-0.627927	-0.000083
C19	C	1.601073	-0.597545	-0.000088
O20	O	1.485852	-0.619225	-0.000105
C21	C	1.607334	-0.395844	-0.000077
C22	C	1.742639	-0.375800	-0.000061
C23	C	2.011663	-0.386133	-0.000046
C24	C	2.013226	-0.335710	-0.000032
C25	C	1.879496	-0.305332	-0.000031
C26	C	1.744202	-0.325377	-0.000046
C27	C	1.473594	-0.365463	-0.000094
C28	C	1.475171	-0.315035	-0.000095
C29	C	1.610476	-0.294991	-0.000079
C30	C	1.612034	-0.244577	-0.000031
N31	N	1.747331	-0.224529	-0.000031
C32	C	1.881061	-0.254907	-0.000032
C33	C	1.597796	-0.703442	-0.000091
C34	C	1.596230	-0.753867	-0.000091
C35	C	1.865268	-0.764198	-0.000089
C36	C	1.866832	-0.713772	-0.000078
C37	C	1.733092	-0.683395	-0.000091
C38	C	1.884334	-0.149016	0.000001
C39	C	1.885886	-0.098588	0.000022
C40	C	1.616849	-0.088262	0.000012
C41	C	1.615296	-0.138685	-0.000001
C42	C	1.749051	-0.169061	-0.000012
O43	O	1.498510	-0.214067	0.000021
O44	O	1.996266	-0.233218	-0.000051
C45	C	1.874806	-0.456600	-0.000076
C46	C	1.739512	-0.476645	-0.000090
C47	C	1.605781	-0.446267	-0.000090
C48	C	1.737946	-0.527070	-0.000090
C49	C	1.871677	-0.557448	-0.000090
C50	C	2.006973	-0.537401	-0.000090
C51	C	2.008537	-0.486978	-0.000076
C52	C	1.470485	-0.466314	-0.000090
C53	C	1.468933	-0.516737	-0.000102
C54	C	1.602663	-0.547115	-0.000103
C55	C	2.010836	0.071425	-0.000029
C56	C	2.174573	0.073095	-0.000039
C57	C	1.728274	0.162089	-0.000067
C58	C	1.729961	0.215755	-0.000091
N59	N	1.741049	0.073771	0.425650
N60	N	1.741078	0.073770	-0.425704
H61	H	1.996072	-0.082271	0.000040
H62	H	1.366261	-0.290304	-0.000108
C63	C	2.150425	-0.154149	0.000027
C64	C	2.031358	-0.182400	0.000003
H65	H	2.241189	-0.174760	0.000046
H66	H	2.145442	-0.134263	-0.095246
H67	H	2.145406	-0.134270	0.095316
H68	H	2.036372	-0.202277	-0.095293
H69	H	2.036345	-0.202295	0.095285
C70	C	1.443435	-0.640742	-0.140555
C71	C	1.450771	-0.670056	-0.000097
H72	H	1.352663	-0.620136	-0.140555
H73	H	1.524211	-0.621582	-0.140544
H74	H	1.448432	-0.660630	-0.235823
H75	H	1.445785	-0.650168	0.095172
H76	H	1.369973	-0.689218	-0.000093
H77	H	1.505120	-0.155005	0.000032
C78	C	1.316136	-0.403610	-0.140533
C79	C	1.323472	-0.432929	-0.000086
H80	H	1.225364	-0.383004	-0.140526
H81	H	1.396913	-0.384451	-0.140516
H82	H	1.321131	-0.423495	-0.235808
H83	H	1.318489	-0.413044	0.095191
H84	H	1.242674	-0.452090	-0.000088
C85	C	2.171083	-0.284999	-0.140494
C86	C	2.161959	-0.313682	-0.000039
H87	H	2.262907	-0.271401	-0.140496
H88	H	2.164870	-0.304451	-0.235754
H89	H	2.091668	-0.259686	-0.140470
H90	H	2.241368	-0.338997	-0.000070
H91	H	2.168186	-0.294228	0.095246
C92	C	2.166036	-0.448822	-0.140500
C93	C	2.158680	-0.419518	-0.000046
H94	H	2.256810	-0.469427	-0.140493
H95	H	2.085263	-0.467983	-0.140492
H96	H	2.161047	-0.428927	-0.235771
H97	H	2.163658	-0.439413	0.095226
H98	H	2.239476	-0.400355	-0.000038
C99	C	2.124006	-0.619290	-0.000123
C100	C	2.153973	-0.570799	-0.000102
H101	H	2.214754	-0.639909	-0.000149
H102	H	2.068491	-0.625432	0.095153
H103	H	2.068470	-0.625415	-0.095408
H104	H	2.209501	-0.564673	0.095189
H105	H	2.209513	-0.564654	-0.095389
C106	C	2.132600	-0.729060	-0.000088
C107	C	2.015562	-0.691742	-0.000085
H108	H	2.224422	-0.715461	-0.000107
H109	H	2.126389	-0.748513	0.095193
H110	H	2.126375	-0.748511	-0.095369
H111	H	2.021781	-0.672293	0.095203
H112	H	2.021776	-0.672281	-0.095375
H113	H	1.363415	-0.381774	-0.000117
H114	H	1.974157	-0.788940	-0.000089
H115	H	1.507969	-0.063519	0.000018
H116	H	1.486052	-0.770182	-0.000076
H117	H	2.118716	-0.470663	-0.000063
H118	H	1.358743	-0.533052	-0.000101
