data_functionalizedCrystal
_audit_creation_method	'MofGen! by Chris Wilmer'
_symmetry_space_group_name_H-M	'P1'
_symmetry_Int_Tables_number	1
_symmetry_cell_setting	triclinic
loop_
_symmetry_equiv_pos_as_xyz
  x,y,z
_cell_length_a	12.827893
_cell_length_b	11.169416
_cell_length_c	11.169409
_cell_angle_alpha	90.028030
_cell_angle_beta	89.978812
_cell_angle_gamma	89.986941
loop_
_atom_site_label
_atom_site_type_symbol
_atom_site_fract_x
_atom_site_fract_y
_atom_site_fract_z
Zn1	Zn	1.597706	0.477711	-0.678622
Zn2	Zn	1.847706	0.727711	-0.428622
Zn3	Zn	2.097706	0.977711	-0.178622
Zn4	Zn	2.347706	1.227711	0.071378
Zn5	Zn	1.597601	0.678451	-0.477954
Zn6	Zn	1.847601	0.928451	-0.227954
Zn7	Zn	2.097601	1.178451	0.022046
Zn8	Zn	2.347601	1.428451	0.272046
Zn9	Zn	1.422942	0.477781	-0.477952
Zn10	Zn	1.672942	0.727781	-0.227952
Zn11	Zn	1.922942	0.977781	0.022048
Zn12	Zn	2.172942	1.227781	0.272048
Zn13	Zn	1.422940	0.678351	-0.678594
Zn14	Zn	1.672940	0.928351	-0.428594
Zn15	Zn	1.922940	1.178351	-0.178594
Zn16	Zn	2.172940	1.428351	0.071406
O17	O	1.510297	0.578073	-0.578281
O18	O	1.760297	0.828073	-0.328281
O19	O	2.010297	1.078073	-0.078281
O20	O	2.260297	1.328073	0.171719
O21	O	1.743928	0.504352	-0.652016
O22	O	1.993928	0.754352	-0.402016
O23	O	2.243928	1.004352	-0.152016
O24	O	2.493928	1.254352	0.097984
O25	O	1.574389	0.651904	-0.310004
O26	O	1.824389	0.901904	-0.060004
O27	O	2.074389	1.151904	0.189996
O28	O	2.324389	1.401904	0.439996
O29	O	1.446169	0.309822	-0.504582
O30	O	1.696169	0.559822	-0.254582
O31	O	1.946169	0.809822	-0.004582
O32	O	2.196169	1.059822	0.245418
O33	O	1.743851	0.651836	-0.504586
O34	O	1.993851	0.901836	-0.254586
O35	O	2.243851	1.151836	-0.004586
O36	O	2.493851	1.401836	0.245414
O37	O	1.574568	0.309770	-0.652014
O38	O	1.824568	0.559770	-0.402014
O39	O	2.074568	0.809770	-0.152014
O40	O	2.324568	1.059770	0.097986
O41	O	1.446068	0.504472	-0.310002
O42	O	1.696068	0.754472	-0.060002
O43	O	1.946068	1.004472	0.189998
O44	O	2.196068	1.254472	0.439998
O45	O	1.276705	0.504374	-0.504555
O46	O	1.526705	0.754374	-0.254555
O47	O	1.776705	1.004374	-0.004555
O48	O	2.026705	1.254374	0.245445
O49	O	1.446166	0.651664	-0.846548
O50	O	1.696166	0.901664	-0.596548
O51	O	1.946166	1.151664	-0.346548
O52	O	2.196166	1.401664	-0.096548
O53	O	1.276704	0.651732	-0.651966
O54	O	1.526704	0.901732	-0.401966
O55	O	1.776704	1.151732	-0.151966
O56	O	2.026704	1.401732	0.098034
O57	O	1.574566	0.504255	-0.846568
O58	O	1.824566	0.754255	-0.596568
O59	O	2.074566	1.004255	-0.346568
O60	O	2.324566	1.254255	-0.096568
O61	O	1.574388	0.846388	-0.504559
O62	O	1.824388	1.096388	-0.254559
O63	O	2.074388	1.346388	-0.004559
O64	O	2.324388	1.596388	0.245441
O65	O	1.446064	0.846314	-0.651968
O66	O	1.696064	1.096314	-0.401968
O67	O	1.946064	1.346314	-0.151968
O68	O	2.196064	1.596314	0.098032
C69	C	1.238787	0.578050	-0.578258
C70	C	1.488787	0.828050	-0.328258
C71	C	1.738787	1.078050	-0.078258
C72	C	1.988787	1.328050	0.171742
C73	C	1.122634	0.578069	-0.578277
C74	C	1.372634	0.828069	-0.328277
C75	C	1.622634	1.078069	-0.078277
C76	C	1.872634	1.328069	0.171723
C77	C	1.510243	0.889898	-0.578287
C78	C	1.760243	1.139898	-0.328287
C79	C	2.010243	1.389898	-0.078287
C80	C	2.260243	1.639898	0.171713
C81	C	1.510315	1.023298	-0.578330
C82	C	1.760315	1.273298	-0.328330
C83	C	2.010315	1.523298	-0.078330
C84	C	2.260315	1.773298	0.171670
C85	C	0.950778	0.505077	-0.505483
C86	C	1.200778	0.755077	-0.255483
C87	C	1.450778	1.005077	-0.005483
C88	C	1.700778	1.255077	0.244517
C89	C	1.070829	0.505055	-0.505462
C90	C	1.320829	0.755055	-0.255462
C91	C	1.570829	1.005055	-0.005462
C92	C	1.820829	1.255055	0.244538
C93	C	1.782867	0.578097	-0.578304
C94	C	2.032867	0.828097	-0.328304
C95	C	2.282867	1.078097	-0.078304
C96	C	2.532867	1.328097	0.171696
C97	C	1.899020	0.578108	-0.578314
C98	C	2.149020	0.828108	-0.328314
C99	C	2.399020	1.078108	-0.078314
C100	C	2.649020	1.328108	0.171686
C101	C	1.510377	0.577940	-0.891323
C102	C	1.760377	0.827940	-0.641323
C103	C	2.010377	1.077940	-0.391323
C104	C	2.260377	1.327940	-0.141323
C105	C	1.510412	0.577883	-1.024723
C106	C	1.760412	0.827883	-0.774723
C107	C	2.010412	1.077883	-0.524723
C108	C	2.260412	1.327883	-0.274723
C109	C	1.510370	1.265031	-0.578313
C110	C	1.760370	1.515031	-0.328313
C111	C	2.010370	1.765031	-0.078313
C112	C	2.260370	2.015031	0.171687
C113	C	1.510374	1.131631	-0.578359
C114	C	1.760374	1.381631	-0.328359
C115	C	2.010374	1.631631	-0.078359
C116	C	2.260374	1.881631	0.171641
C117	C	1.510277	0.578120	-0.266456
C118	C	1.760277	0.828120	-0.016456
C119	C	2.010277	1.078120	0.233544
C120	C	2.260277	1.328120	0.483544
C121	C	1.510446	0.577838	-0.133057
C122	C	1.760446	0.827838	0.116943
C123	C	2.010446	1.077838	0.366943
C124	C	2.260446	1.327838	0.616943
H125	H	0.906213	0.442563	-0.443150
H126	H	1.156213	0.692563	-0.193150
H127	H	1.406213	0.942563	0.056850
H128	H	1.656213	1.192563	0.306850
H129	H	1.115339	0.442535	-0.443104
H130	H	1.365339	0.692535	-0.193104
H131	H	1.615339	0.942535	0.056896
H132	H	1.865339	1.192535	0.306896
H133	H	1.078130	0.640601	-0.640630
H134	H	1.328130	0.890601	-0.390630
H135	H	1.578130	1.140601	-0.140630
H136	H	1.828130	1.390601	0.109370
C137	C	0.959221	0.662559	-0.662532
C138	C	1.209221	0.912559	-0.412532
C139	C	1.459221	1.162559	-0.162532
C140	C	1.709221	1.412559	0.087468
N141	N	1.004562	0.726172	-0.725966
N142	N	1.254562	0.976172	-0.475966
N143	N	1.504562	1.226172	-0.225966
N144	N	1.754562	1.476172	0.024034
