data_functionalizedCrystal
_audit_creation_method	'MofGen! by Chris Wilmer'
_symmetry_space_group_name_H-M	'P1'
_symmetry_Int_Tables_number	1
_symmetry_cell_setting	triclinic
loop_
_symmetry_equiv_pos_as_xyz
  x,y,z
_cell_length_a	10.489711
_cell_length_b	10.489741
_cell_length_c	8.965430
_cell_angle_alpha	90.002905
_cell_angle_beta	89.993105
_cell_angle_gamma	84.533091
loop_
_atom_site_label
_atom_site_type_symbol
_atom_site_fract_x
_atom_site_fract_y
_atom_site_fract_z
O1	O	1.694079	0.179773	-0.124092
O2	O	1.322878	0.196706	-0.124084
O3	O	1.516925	0.002641	-0.124079
O4	O	1.500032	0.373838	-0.124097
O5	O	1.516902	0.002662	0.124000
O6	O	1.322855	0.196727	0.123995
O7	O	1.694056	0.179795	0.123986
Cu8	Cu	1.508453	0.188263	0.146642
Cu9	Cu	1.508480	0.188238	-0.146740
O10	O	1.500009	0.373860	0.123982
C11	C	1.275334	0.195446	-0.000043
C12	C	1.133703	0.191644	-0.000039
C13	C	0.951317	0.308348	-0.000062
C14	C	1.043473	0.250042	-0.122373
C15	C	1.043424	0.250032	0.122214
C16	C	0.973522	0.126499	-0.122483
C17	C	0.973463	0.126507	0.122213
C18	C	1.065593	0.068111	-0.000127
C19	C	1.515638	-0.044880	-0.000041
C20	C	1.511820	-0.186509	-0.000043
C21	C	1.388354	-0.254636	-0.000051
C22	C	1.446667	-0.346754	0.122263
C23	C	1.446719	-0.346750	-0.122323
C24	C	1.570184	-0.276762	0.122372
C25	C	1.570219	-0.276748	-0.122324
C26	C	1.628622	-0.368839	0.000020
C27	C	1.741600	0.181055	-0.000058
C28	C	1.883231	0.184857	-0.000071
C29	C	1.501296	0.421381	-0.000060
C30	C	1.505114	0.563010	-0.000067
N31	N	1.508444	0.188280	0.352992
C32	C	1.419446	0.278734	0.549699
C33	C	1.392592	0.163590	0.450241
C34	C	1.535240	0.303414	0.450242
C35	C	1.481568	0.073031	0.549642
C36	C	1.624268	0.212931	0.549651
C37	C	1.597462	0.097704	0.450238
N38	N	1.508479	0.188233	0.646911
H39	H	1.074478	0.302289	-0.225778
H40	H	1.730226	-0.418274	0.000085
H41	H	1.622425	-0.245718	-0.225740
C42	C	1.451248	-0.056961	0.607311
C43	C	1.432451	-0.137637	0.486481
C44	C	1.404530	-0.257395	0.539549
H45	H	1.375721	-0.046968	0.666285
H46	H	1.520607	-0.093477	0.666284
H47	H	1.363098	-0.101130	0.427532
H48	H	1.507964	-0.147667	0.427494
H49	H	1.473889	-0.293911	0.598522
H50	H	1.329005	-0.247389	0.598524
H51	H	1.391784	-0.312152	0.457575
H52	H	0.942723	0.074287	-0.226008
H53	H	1.394471	-0.377717	-0.225740
C54	C	1.640006	-0.235760	0.260288
C55	C	1.765375	-0.295045	0.260417
C56	C	1.829732	-0.257289	0.387430
H57	H	1.596588	-0.260273	0.347152
H58	H	1.642058	-0.145411	0.259480
H59	H	1.763317	-0.385374	0.261239
H60	H	1.808828	-0.270540	0.173581
H61	H	1.831784	-0.166940	0.386621
H62	H	1.786303	-0.281804	0.474284
H63	H	1.914804	-0.297498	0.387527
H64	H	1.344116	0.355159	0.593370
H65	H	0.901626	0.409850	-0.000188
C66	C	1.261911	0.136000	0.392086
C67	C	1.169085	0.231021	0.442440
C68	C	1.048688	0.205666	0.388887
H69	H	1.242099	0.054867	0.427548
H70	H	1.263015	0.135500	0.286125
H71	H	1.167977	0.231508	0.548378
H72	H	1.188854	0.312163	0.406981
H73	H	1.049792	0.205166	0.282926
H74	H	1.028889	0.124531	0.424353
H75	H	0.985693	0.270139	0.423033
C76	C	1.697814	-0.004312	0.392064
C77	C	1.697446	-0.002487	0.235909
C78	C	1.789876	-0.096437	0.182262
H79	H	1.678694	-0.086098	0.426124
H80	H	1.779895	0.012524	0.427521
H81	H	1.615383	-0.019331	0.200466
H82	H	1.716581	0.079277	0.201809
H83	H	1.871957	-0.079602	0.217720
H84	H	1.770747	-0.178216	0.216333
H85	H	1.789646	-0.095204	0.076307
C86	C	1.754756	0.241078	0.607855
C87	C	1.782296	0.361824	0.557612
C88	C	1.902482	0.387819	0.611218
H89	H	1.818298	0.177760	0.572355
H90	H	1.754052	0.240147	0.713815
H91	H	1.783011	0.362745	0.451674
H92	H	1.718786	0.425167	0.593108
H93	H	1.901777	0.386887	0.717178
H94	H	1.966013	0.324494	0.575714
H95	H	1.921178	0.469751	0.577148
C96	C	1.131394	-0.067414	0.000029
C97	C	1.094263	-0.132254	0.126988
C98	C	1.154843	-0.257103	0.127166
H99	H	1.221608	-0.064398	0.000935
H100	H	1.107440	-0.111147	-0.086874
H101	H	1.118227	-0.088531	0.213869
H102	H	1.004059	-0.135305	0.126109
H103	H	1.130888	-0.300836	0.040263
H104	H	1.245055	-0.254074	0.128067
H105	H	1.129650	-0.301116	0.213298
H106	H	1.557907	0.400806	0.406607
H107	H	0.942431	0.074307	0.225629
C108	C	1.376858	-0.388257	0.259965
C109	C	1.270734	-0.450652	0.216221
C110	C	1.206397	-0.488910	0.343024
H111	H	1.348936	-0.315148	0.318058
H112	H	1.433128	-0.445017	0.317553
H113	H	1.214474	-0.393895	0.158658
H114	H	1.298620	-0.523775	0.158146
H115	H	1.262667	-0.545670	0.400612
H116	H	1.178483	-0.415795	0.401108
H117	H	1.134392	-0.531259	0.313362
H118	H	1.286841	-0.204974	0.000074
H119	H	1.074370	0.302315	0.225619
