data_functionalizedCrystal
_audit_creation_method	'MofGen! by Chris Wilmer'
_symmetry_space_group_name_H-M	'P1'
_symmetry_Int_Tables_number	1
_symmetry_cell_setting	triclinic
loop_
_symmetry_equiv_pos_as_xyz
  x,y,z
_cell_length_a	10.540539
_cell_length_b	10.540510
_cell_length_c	9.016244
_cell_angle_alpha	90.000273
_cell_angle_beta	89.994699
_cell_angle_gamma	84.519401
loop_
_atom_site_label
_atom_site_type_symbol
_atom_site_fract_x
_atom_site_fract_y
_atom_site_fract_z
O1	O	1.685874	0.178898	-0.123262
O2	O	1.316459	0.195754	-0.123279
O3	O	1.509614	0.002617	-0.123269
O4	O	1.492719	0.372035	-0.123271
O5	O	1.509586	0.002621	0.123411
O6	O	1.316431	0.195758	0.123402
O7	O	1.685846	0.178902	0.123419
Cu8	Cu	1.501135	0.187330	0.145934
Cu9	Cu	1.501169	0.187325	-0.145794
O10	O	1.492690	0.372039	0.123410
C11	C	1.269142	0.194492	0.000059
C12	C	1.128194	0.190710	0.000052
C13	C	0.944783	0.045791	0.000629
C14	C	1.091401	0.049624	0.000057
C15	C	1.066531	0.258603	-0.140809
C16	C	0.919987	0.253788	-0.140912
C17	C	0.919466	0.256663	0.139610
C18	C	1.066447	0.257963	0.141456
C19	C	1.508341	-0.044685	0.000068
C20	C	1.504574	-0.185635	0.000059
C21	C	1.638758	-0.403090	0.000630
C22	C	1.642776	-0.256495	0.000067
C23	C	1.433844	-0.230396	-0.140808
C24	C	1.430805	-0.377157	-0.140919
C25	C	1.427895	-0.376960	0.139603
C26	C	1.434450	-0.230619	0.141458
C27	C	1.733163	0.180164	0.000078
C28	C	1.874110	0.183946	0.000075
C29	C	1.493964	0.419340	0.000069
C30	C	1.497731	0.560290	0.000068
N31	N	1.501121	0.187333	0.351121
N32	N	1.501193	0.187312	-0.350980
C33	C	1.397479	0.290302	0.586148
C34	C	1.397708	0.290688	0.414257
C35	C	1.633841	0.217467	0.413465
C36	C	1.633275	0.218196	0.585410
C37	C	1.473362	0.053893	0.585663
C38	C	1.470316	0.054758	0.413709
H39	H	0.914593	-0.009712	-0.099828
O40	O	1.738660	0.122706	0.640503
H41	H	1.739042	0.122508	0.763607
O42	O	0.856428	0.388188	-0.149383
H43	H	0.751385	0.385759	-0.149506
O44	O	1.665525	0.347129	0.638523
H45	H	1.585509	0.392255	0.706091
O46	O	1.340986	0.024497	0.359739
H47	H	1.319922	-0.069334	0.404458
H48	H	0.872228	0.358568	0.140561
H49	H	1.698119	-0.227149	0.101044
H50	H	0.891794	0.203605	-0.246207
O51	O	1.499327	-0.189790	-0.279523
H52	H	1.497991	-0.084379	-0.281307
O53	O	1.421399	0.421804	0.359738
H54	H	1.509495	0.415120	0.291606
H55	H	1.692301	-0.446598	-0.099816
H56	H	1.712904	0.144503	0.372565
H57	H	1.133164	-0.004177	-0.101093
H58	H	1.324131	-0.399110	0.140547
O59	O	1.267080	0.266698	0.358406
H60	H	1.203173	0.254720	0.454211
H61	H	1.692589	-0.445044	0.101654
H62	H	1.471801	-0.419140	0.246381
O63	O	1.300809	-0.165595	0.152736
H64	H	1.245525	-0.188710	0.053173
O65	O	1.563761	-0.051632	0.356793
H66	H	1.511593	-0.120901	0.294074
H67	H	1.485915	-0.202005	0.245670
O68	O	1.266437	0.266685	0.640987
H69	H	1.273822	0.181295	0.713648
O70	O	1.096127	0.395844	-0.147781
H71	H	1.155247	0.417167	-0.050692
O72	O	1.098527	0.394212	0.152736
H73	H	1.062111	0.447902	0.053175
O74	O	1.666806	0.344955	0.356432
H75	H	1.670970	0.342637	0.233443
H76	H	1.698464	-0.228091	-0.101081
H77	H	1.415135	0.388727	0.629342
H78	H	1.479165	-0.417374	-0.246214
O79	O	1.122941	0.196125	-0.279683
H80	H	1.194878	0.116730	-0.248735
O81	O	1.573510	-0.047659	0.639524
H82	H	1.642781	-0.003405	0.711071
H83	H	1.378627	0.025213	0.629106
H84	H	1.327439	-0.400152	-0.147306
O85	O	1.299074	-0.167631	-0.147758
H86	H	1.251216	-0.200865	-0.248251
O87	O	1.147841	-0.021125	0.133821
H88	H	1.124773	-0.121629	0.129669
O89	O	0.906914	-0.028047	0.134437
H90	H	0.837308	0.032925	0.201976
O91	O	0.877697	0.196170	0.281045
H92	H	0.772147	0.199443	0.283079
H93	H	1.107403	0.208364	0.245666
