data_functionalizedCrystal
_audit_creation_method	'MofGen! by Chris Wilmer'
_symmetry_space_group_name_H-M	'P1'
_symmetry_Int_Tables_number	1
_symmetry_cell_setting	triclinic
loop_
_symmetry_equiv_pos_as_xyz
  x,y,z
_cell_length_a	27.732048
_cell_length_b	27.732048
_cell_length_c	13.448316
_cell_angle_alpha	89.988441
_cell_angle_beta	89.998727
_cell_angle_gamma	82.642655
loop_
_atom_site_label
_atom_site_type_symbol
_atom_site_fract_x
_atom_site_fract_y
_atom_site_fract_z
O1	O	0.640929	0.057518	-0.082574
O2	O	1.140929	0.557518	0.417426
O3	O	0.500135	0.066264	-0.082606
O4	O	1.000135	0.566264	0.417394
O5	O	0.574905	-0.008506	-0.082570
O6	O	1.074905	0.491494	0.417430
O7	O	0.566159	0.132288	-0.082610
O8	O	1.066159	0.632288	0.417390
O9	O	0.574895	-0.008510	0.082814
O10	O	1.074895	0.491490	0.582814
O11	O	0.500126	0.066259	0.082778
O12	O	1.000126	0.566259	0.582778
O13	O	0.640919	0.057514	0.082810
O14	O	1.140919	0.557514	0.582810
Cu15	Cu	0.570522	0.061886	0.097895
Cu16	Cu	1.070522	0.561886	0.597895
Cu17	Cu	0.570533	0.061891	-0.097691
Cu18	Cu	1.070533	0.561891	0.402309
O19	O	0.566150	0.132283	0.082774
O20	O	1.066150	0.632283	0.582774
C21	C	0.482124	0.066078	0.000082
C22	C	0.982124	0.566078	0.500082
C23	C	0.428469	0.065525	0.000071
C24	C	0.928469	0.565525	0.500071
C25	C	0.089654	0.106229	0.000103
C26	C	0.589654	0.606229	0.500103
C27	C	-0.112006	0.104178	0.000112
C28	C	0.387994	0.604178	0.500112
O29	O	-0.143262	0.141398	0.000145
O30	O	0.356738	0.641398	0.500145
N31	N	-0.131130	0.059843	0.000123
N32	N	0.368870	0.559843	0.500123
C33	C	-0.099835	0.016017	0.000138
C34	C	0.400165	0.516017	0.500138
O35	O	-0.120728	-0.021740	0.000157
O36	O	0.379272	0.478260	0.500157
C37	C	0.101824	0.018068	0.000135
C38	C	0.601824	0.518068	0.500135
C39	C	0.120944	0.062407	0.000115
C40	C	0.620944	0.562407	0.500115
C41	C	0.108775	0.150563	0.000083
C42	C	0.608775	0.650563	0.500083
C43	C	0.159187	0.151075	0.000075
C44	C	0.659187	0.651075	0.500075
C45	C	0.190477	0.107253	0.000087
C46	C	0.690477	0.607253	0.500087
C47	C	0.171356	0.062919	0.000107
C48	C	0.671356	0.562919	0.500107
C49	C	0.133117	-0.025757	0.000157
C50	C	0.633117	0.474243	0.500157
C51	C	0.183535	-0.025240	0.000159
C52	C	0.683535	0.474760	0.500159
C53	C	0.202655	0.019098	0.000139
C54	C	0.702655	0.519098	0.500139
C55	C	0.253059	0.019609	0.000111
C56	C	0.753059	0.519609	0.500111
N57	N	0.272183	0.063944	0.000100
N58	N	0.772183	0.563944	0.500100
C59	C	0.240892	0.107766	0.000088
C60	C	0.740892	0.607766	0.500088
C61	C	-0.205709	0.014943	0.000137
C62	C	0.294291	0.514943	0.500137
C63	C	-0.256124	0.014430	0.000136
C64	C	0.243876	0.514430	0.500136
C65	C	-0.268291	0.102591	0.000112
C66	C	0.231709	0.602591	0.500112
C67	C	-0.217876	0.103104	0.000106
C68	C	0.282124	0.603104	0.500106
C69	C	-0.186585	0.059278	0.000126
C70	C	0.313415	0.559278	0.500126
C71	C	0.346761	0.108839	0.000071
C72	C	0.846761	0.608839	0.500071
C73	C	0.397178	0.109347	0.000059
C74	C	0.897178	0.609347	0.500059
C75	C	0.409341	0.021186	0.000088
C76	C	0.909341	0.521186	0.500088
C77	C	0.358929	0.020678	0.000095
C78	C	0.858929	0.520678	0.500095
C79	C	0.327639	0.064508	0.000090
C80	C	0.827639	0.564508	0.500090
O81	O	0.284343	-0.017592	0.000090
O82	O	0.784343	0.482408	0.500090
O83	O	0.261794	0.145518	0.000091
O84	O	0.761794	0.645518	0.500091
C85	C	0.039242	0.105716	0.000110
C86	C	0.539242	0.605716	0.500110
C87	C	0.020120	0.061382	0.000130
C88	C	0.520120	0.561382	0.500130
C89	C	0.051411	0.017560	0.000142
C90	C	0.551411	0.517560	0.500142
C91	C	-0.030294	0.060869	0.000129
C92	C	0.469706	0.560869	0.500129
C93	C	-0.061585	0.104691	0.000117
C94	C	0.438415	0.604691	0.500117
C95	C	-0.042461	0.149026	0.000106
C96	C	0.457539	0.649026	0.500106
C97	C	0.007951	0.149539	0.000098
C98	C	0.507951	0.649539	0.500098
C99	C	0.032287	-0.026775	0.000153
C100	C	0.532287	0.473225	0.500153
C101	C	-0.018125	-0.027284	0.000159
C102	C	0.481875	0.472716	0.500159
C103	C	-0.049416	0.016538	0.000148
C104	C	0.450584	0.516538	0.500148
C105	C	0.574716	-0.026515	0.000124
C106	C	1.074716	0.473485	0.500124
C107	C	0.574164	-0.080170	0.000132
C108	C	1.074164	0.419830	0.500132
C109	C	0.614867	-0.418985	0.000091
C110	C	1.114867	0.081015	0.500091
C111	C	0.612816	-0.620645	0.000076
C112	C	1.112816	-0.120645	0.500076
O113	O	0.650037	-0.651900	0.000041
O114	O	1.150037	-0.151900	0.500041
N115	N	0.568481	-0.639768	0.000067
N116	N	1.068481	-0.139768	0.500067
C117	C	0.524656	-0.608474	0.000055
C118	C	1.024656	-0.108474	0.500055
O119	O	0.486899	-0.629367	0.000037
O120	O	0.986899	-0.129367	0.500037
C121	C	0.526707	-0.406815	0.000062
C122	C	1.026707	0.093185	0.500062
C123	C	0.571045	-0.387694	0.000082
C124	C	1.071045	0.112306	0.500082
C125	C	0.659202	-0.399864	0.000109
C126	C	1.159202	0.100136	0.500109
C127	C	0.659714	-0.349452	0.000118
C128	C	1.159714	0.150548	0.500118
C129	C	0.615892	-0.318161	0.000109
C130	C	1.115892	0.181839	0.500109
C131	C	0.571557	-0.337282	0.000091
C132	C	1.071557	0.162718	0.500091
C133	C	0.482882	-0.375521	0.000043
C134	C	0.982882	0.124479	0.500043
C135	C	0.483399	-0.325104	0.000043
C136	C	0.983399	0.174896	0.500043
C137	C	0.527737	-0.305983	0.000062
C138	C	1.027737	0.194017	0.500062
C139	C	0.528247	-0.255580	0.000091
C140	C	1.028247	0.244420	0.500091
N141	N	0.572583	-0.236456	0.000100
N142	N	1.072583	0.263544	0.500100
C143	C	0.616405	-0.267747	0.000109
C144	C	1.116405	0.232253	0.500109
C145	C	0.523582	-0.714348	0.000053
C146	C	1.023582	-0.214348	0.500053
C147	C	0.523069	-0.764762	0.000053
C148	C	1.023069	-0.264762	0.500053
C149	C	0.611230	-0.776930	0.000073
C150	C	1.111230	-0.276930	0.500073
C151	C	0.611742	-0.726514	0.000080
C152	C	1.111742	-0.226514	0.500080
C153	C	0.567917	-0.695224	0.000062
C154	C	1.067917	-0.195224	0.500062
C155	C	0.617477	-0.161878	0.000128
C156	C	1.117477	0.338122	0.500128
C157	C	0.617986	-0.111461	0.000141
C158	C	1.117986	0.388539	0.500141
C159	C	0.529825	-0.099298	0.000117
C160	C	1.029825	0.400702	0.500117
C161	C	0.529316	-0.149710	0.000109
C162	C	1.029316	0.350290	0.500109
C163	C	0.573147	-0.180999	0.000111
C164	C	1.073147	0.319001	0.500111
O165	O	0.491047	-0.224296	0.000115
O166	O	0.991047	0.275704	0.500115
O167	O	0.654156	-0.246844	0.000105
O168	O	1.154156	0.253156	0.500105
C169	C	0.614355	-0.469397	0.000082
C170	C	1.114355	0.030603	0.500082
C171	C	0.570021	-0.488518	0.000064
C172	C	1.070021	0.011482	0.500064
C173	C	0.526198	-0.457228	0.000055
C174	C	1.026198	0.042772	0.500055
C175	C	0.569508	-0.538933	0.000064
C176	C	1.069508	-0.038933	0.500064
C177	C	0.613330	-0.570223	0.000073
C178	C	1.113330	-0.070223	0.500073
C179	C	0.657665	-0.551100	0.000082
C180	C	1.157665	-0.051100	0.500082
C181	C	0.658177	-0.500688	0.000091
C182	C	1.158177	-0.000688	0.500091
C183	C	0.481863	-0.476351	0.000046
C184	C	0.981863	0.023649	0.500046
C185	C	0.481355	-0.526764	0.000038
C186	C	0.981355	-0.026764	0.500038
C187	C	0.525177	-0.558054	0.000047
C188	C	1.025177	-0.058054	0.500047
C189	C	0.658931	0.057699	0.000119
C190	C	1.158931	0.557699	0.500119
C191	C	0.712586	0.058252	0.000124
C192	C	1.212586	0.558252	0.500124
C193	C	0.566338	0.150292	0.000077
C194	C	1.066338	0.650292	0.500077
C195	C	0.566891	0.203947	0.000062
C196	C	1.066891	0.703947	0.500062
N197	N	0.570518	0.061882	0.235459
N198	N	1.070518	0.561882	0.735459
N199	N	0.570541	0.061891	-0.235255
N200	N	1.070541	0.561891	0.264745
C201	C	0.603636	0.028787	0.287515
C202	C	1.103636	0.528787	0.787515
C203	C	0.603639	0.028787	0.391618
C204	C	1.103639	0.528787	0.891618
C205	C	0.570525	0.061884	0.443663
C206	C	1.070525	0.561884	0.943663
C207	C	0.537404	0.094980	0.391600
C208	C	1.037404	0.594980	0.891600
C209	C	0.537399	0.094978	0.287499
C210	C	1.037399	0.594978	0.787499
C211	C	0.537417	0.094983	0.608580
C212	C	1.037417	0.594983	1.108580
C213	C	0.537423	0.094986	0.712689
C214	C	1.037423	0.594986	1.212689
C215	C	0.603657	0.028792	0.712700
C216	C	1.103657	0.528792	1.212700
C217	C	0.603652	0.028790	0.608598
C218	C	1.103652	0.528790	1.108598
C219	C	0.570531	0.061887	0.556542
C220	C	1.070531	0.561887	1.056542
H221	H	0.434827	-0.014492	0.000094
H222	H	0.934827	0.485508	0.500094
H223	H	0.510440	0.121926	0.433981
H224	H	1.010440	0.621926	0.933981
H225	H	0.630602	0.001838	0.245147
H226	H	1.130602	0.501838	0.745147
O227	O	0.340408	-0.022421	-0.000028
O228	O	0.840408	0.477579	0.499972
C229	C	0.356413	-0.049104	-0.085691
C230	C	0.856413	0.450896	0.414309
H231	H	0.391285	-0.036198	-0.114262
H232	H	0.891285	0.463802	0.385738
H233	H	0.363705	-0.089412	-0.066416
H234	H	0.863705	0.410588	0.433584
H235	H	0.327192	-0.043279	-0.145662
H236	H	0.827192	0.456721	0.354338
H237	H	0.446777	-0.391080	0.000022
H238	H	0.946777	0.108920	0.500022
O239	O	0.438311	-0.545391	-0.000114
O240	O	0.938311	-0.045391	0.499886
C241	C	0.435378	-0.574164	-0.085791
C242	C	0.935378	-0.074164	0.414209
H243	H	0.473575	-0.587001	-0.114330
H244	H	0.973575	-0.087001	0.385670
H245	H	0.416354	-0.607040	-0.066549
H246	H	0.916354	-0.107040	0.433451
H247	H	0.413833	-0.551720	-0.145774
H248	H	0.913833	-0.051720	0.354226
O249	O	0.702827	-0.330962	0.000084
O250	O	1.202827	0.169038	0.500084
C251	C	0.741390	-0.369399	0.000113
C252	C	1.241390	0.130601	0.500113
H253	H	0.728097	-0.403546	-0.031200
H254	H	1.228097	0.096454	0.468800
H255	H	0.772372	-0.359089	-0.047897
H256	H	1.272372	0.140911	0.452103
H257	H	0.754885	-0.376641	0.079458
H258	H	1.254885	0.123359	0.579458
O259	O	0.177676	0.194189	0.000111
O260	O	0.677676	0.694189	0.500111
C261	C	0.139240	0.232752	0.000080
C262	C	0.639240	0.732752	0.500080
H263	H	0.105089	0.219455	0.031390
H264	H	0.605089	0.719455	0.531390
H265	H	0.149544	0.263728	0.048094
H266	H	0.649544	0.763728	0.548094
H267	H	0.132006	0.246256	-0.079264
H268	H	0.632006	0.746256	0.420736
O269	O	0.660022	-0.192316	0.000268
O270	O	1.160022	0.307684	0.500268
C271	C	0.662366	-0.221843	0.085932
C272	C	1.162366	0.278157	0.585932
H273	H	0.624017	-0.224123	0.114472
H274	H	1.124017	0.275877	0.614472
H275	H	0.680670	-0.259866	0.066671
H276	H	1.180670	0.240134	0.566671
H277	H	0.684308	-0.205419	0.145920
H278	H	1.184308	0.294581	0.645920
H279	H	0.117558	-0.061861	0.000175
H280	H	0.617558	0.438139	0.500175
H281	H	0.630617	0.001843	0.566223
H282	H	1.130617	0.501843	1.066223
O283	O	-0.199245	0.146142	0.000222
O284	O	0.300755	0.646142	0.500222
C285	C	-0.170460	0.149085	0.085889
C286	C	0.329540	0.649085	0.585889
H287	H	-0.157622	0.110891	0.114461
H288	H	0.342378	0.610891	0.614461
H289	H	-0.137586	0.168104	0.066619
H290	H	0.362414	0.668104	0.566619
H291	H	-0.192896	0.170638	0.145857
H292	H	0.307104	0.670638	0.645857
H293	H	0.510430	0.121926	0.245115
H294	H	1.010430	0.621926	0.745115
H295	H	0.694282	-0.485125	0.000106
H296	H	1.194282	0.014875	0.500106
O297	O	0.654854	-0.708023	0.000044
O298	O	1.154854	-0.208023	0.500044
C299	C	0.693419	-0.746458	0.000080
C300	C	1.193419	-0.246458	0.500080
H301	H	0.680128	-0.780607	-0.031228
H302	H	1.180128	-0.280607	0.468772
H303	H	0.724400	-0.736148	-0.047932
H304	H	1.224400	-0.236148	0.452068
H305	H	0.706914	-0.753697	0.079426
H306	H	1.206914	-0.253697	0.579426
H307	H	0.693347	-0.576585	0.000093
H308	H	1.193347	-0.076585	0.500093
O309	O	0.440794	-0.294758	-0.000105
O310	O	0.940794	0.205242	0.499895
C311	C	0.413866	-0.303359	-0.085783
C312	C	0.913866	0.196641	0.414217
H313	H	0.426033	-0.341689	-0.114340
H314	H	0.926033	0.158311	0.385660
H315	H	0.373522	-0.299522	-0.066534
H316	H	0.873522	0.200478	0.433466
H317	H	0.420269	-0.275820	-0.145755
H318	H	0.920269	0.224180	0.354245
H319	H	0.494146	-0.073812	0.000113
H320	H	0.994146	0.426188	0.500113
O321	O	0.415670	0.152462	0.000086
O322	O	0.915670	0.652462	0.500086
C323	C	0.377238	0.191029	0.000055
C324	C	0.877238	0.691029	0.500055
H325	H	0.343086	0.177738	0.031375
H326	H	0.843086	0.677738	0.531375
H327	H	0.387547	0.222006	0.048060
H328	H	0.887547	0.722006	0.548060
H329	H	0.370002	0.204530	-0.079291
H330	H	0.870002	0.704530	0.420709
H331	H	0.321291	0.144530	0.000070
H332	H	0.821291	0.644530	0.500070
O333	O	0.635878	-0.003377	0.763107
O334	O	1.135878	0.496623	1.263107
C335	C	0.665099	-0.032594	0.694848
C336	C	1.165099	0.467406	1.194848
H337	H	0.665488	-0.012779	0.620631
H338	H	1.165488	0.487221	1.120631
H339	H	0.703758	-0.040228	0.724919
H340	H	1.203758	0.459772	1.224919
H341	H	0.649679	-0.068399	0.683799
H342	H	1.149679	0.431601	1.183799
O343	O	0.078335	0.193105	-0.000068
O344	O	0.578335	0.693105	0.499932
C345	C	0.048822	0.195456	-0.085740
C346	C	0.548822	0.695456	0.414260
H347	H	0.046545	0.157108	-0.114276
H348	H	0.546545	0.657108	0.385724
H349	H	0.010797	0.213760	-0.066493
H350	H	0.510797	0.713760	0.433507
H351	H	0.065258	0.217399	-0.145727
H352	H	0.565258	0.717399	0.354273
O353	O	0.701743	-0.430305	0.000251
O354	O	1.201743	0.069695	0.500251
C355	C	0.704088	-0.459829	0.085920
C356	C	1.204088	0.040171	0.585920
H357	H	0.665738	-0.462108	0.114462
H358	H	1.165738	0.037892	0.614462
H359	H	0.722392	-0.497852	0.066665
H360	H	1.222392	0.002148	0.566665
H361	H	0.726029	-0.443402	0.145905
H362	H	1.226029	0.056598	0.645905
O363	O	0.213978	-0.067781	0.000042
O364	O	0.713978	0.432219	0.500042
C365	C	0.243494	-0.070129	-0.085627
C366	C	0.743494	0.429871	0.414373
H367	H	0.245765	-0.031781	-0.114199
H368	H	0.745765	0.468219	0.385801
H369	H	0.281521	-0.088427	-0.066361
H370	H	0.781521	0.411573	0.433639
H371	H	0.227065	-0.092078	-0.145594
H372	H	0.727065	0.407922	0.354406
O373	O	0.635862	-0.003374	0.442031
O374	O	1.135862	0.496626	0.942031
C375	C	0.665083	-0.032590	0.373772
C376	C	1.165083	0.467410	0.873772
H377	H	0.665469	-0.012776	0.299553
H378	H	1.165469	0.487224	0.799553
H379	H	0.703743	-0.040220	0.403840
H380	H	1.203743	0.459780	0.903840
H381	H	0.649667	-0.068397	0.362728
H382	H	1.149667	0.431603	0.862728
O383	O	0.505292	0.127200	0.558055
O384	O	1.005292	0.627200	1.058055
C385	C	0.512785	0.174998	0.583484
C386	C	1.012785	0.674998	1.083484
H387	H	0.551484	0.174967	0.612094
H388	H	1.051484	0.674967	1.112094
H389	H	0.507042	0.199295	0.515011
H390	H	1.007042	0.699295	1.015011
H391	H	0.485889	0.189383	0.643908
H392	H	0.985889	0.689383	1.143908
O393	O	0.661028	-0.092830	0.000023
O394	O	1.161028	0.407170	0.500023
C395	C	0.663973	-0.064032	-0.085638
C396	C	1.163973	0.435968	0.414362
H397	H	0.625780	-0.051190	-0.114201
H398	H	1.125780	0.448810	0.385799
H399	H	0.682991	-0.031160	-0.066366
H400	H	1.182991	0.468840	0.433634
H401	H	0.685529	-0.086458	-0.145615
H402	H	1.185529	0.413542	0.354385
H403	H	-0.033688	-0.063392	0.000169
H404	H	0.466312	0.436608	0.500169
H405	H	-0.293777	0.138273	0.000102
H406	H	0.206223	0.638273	0.500102
H407	H	-0.271687	-0.021674	0.000137
H408	H	0.228313	0.478326	0.500137
H409	H	0.493213	-0.165279	0.000121
H410	H	0.993213	0.334721	0.500121
H411	H	0.446177	-0.450879	0.000036
H412	H	0.946177	0.049121	0.500036
H413	H	0.510458	0.121936	0.755059
H414	H	1.010458	0.621936	1.255059
H415	H	-0.180236	-0.020747	0.000153
H416	H	0.319764	0.479253	0.500153
O417	O	0.480011	-0.783357	0.000220
O418	O	0.980011	-0.283357	0.500220
C419	C	0.477071	-0.812173	0.085857
C420	C	0.977071	-0.312173	0.585857
H421	H	0.502236	-0.800442	0.145735
H422	H	1.002236	-0.300442	0.645735
H423	H	0.438077	-0.807361	0.114594
H424	H	0.938077	-0.307361	0.614594
H425	H	0.488522	-0.852014	0.066493
H426	H	0.988522	-0.352014	0.566493
H427	H	0.023514	0.185643	0.000083
H428	H	0.523514	0.685643	0.500083
O429	O	-0.072911	0.191564	-0.000038
O430	O	0.427089	0.691564	0.499962
C431	C	-0.102430	0.193911	-0.085700
C432	C	0.397570	0.693911	0.414300
H433	H	-0.104694	0.155563	-0.114248
H434	H	0.395306	0.655563	0.385752
H435	H	-0.140459	0.212199	-0.066435
H436	H	0.359541	0.712199	0.433565
H437	H	-0.086009	0.215867	-0.145685
H438	H	0.413991	0.715867	0.354315
H439	H	0.646911	-0.802415	0.000080
H440	H	1.146911	-0.302415	0.500080
O441	O	0.062611	-0.069391	0.000117
O442	O	0.562611	0.430609	0.500117
C443	C	0.034915	-0.108627	0.000154
C444	C	0.534915	0.391373	0.500154
H445	H	-0.002807	-0.096062	-0.031151
H446	H	0.497193	0.403938	0.468849
H447	H	0.053730	-0.139308	-0.047859
H448	H	0.553730	0.360692	0.452141
H449	H	0.031425	-0.122239	0.079501
H450	H	0.531425	0.377761	0.579501
O451	O	0.480962	-0.684024	0.000090
O452	O	0.980962	-0.184024	0.500090
C453	C	0.441727	-0.711721	0.000060
C454	C	0.941727	-0.211721	0.500060
H455	H	0.454290	-0.749444	0.031369
H456	H	0.954290	-0.249444	0.531369
H457	H	0.411042	-0.692909	0.048074
H458	H	0.911042	-0.192909	0.548074
H459	H	0.428121	-0.715205	-0.079284
H460	H	0.928121	-0.215205	0.420716
