data_functionalizedCrystal
_audit_creation_method	'MofGen! by Chris Wilmer'
_symmetry_space_group_name_H-M	'P1'
_symmetry_Int_Tables_number	1
_symmetry_cell_setting	triclinic
loop_
_symmetry_equiv_pos_as_xyz
  x,y,z
_cell_length_a	13.032831
_cell_length_b	25.639240
_cell_length_c	13.032268
_cell_angle_alpha	82.864661
_cell_angle_beta	89.113023
_cell_angle_gamma	82.835975
loop_
_atom_site_label
_atom_site_type_symbol
_atom_site_fract_x
_atom_site_fract_y
_atom_site_fract_z
Zn1	Zn	1.498317	-0.353075	0.780663
Zn2	Zn	1.520023	-0.430970	0.608645
Zn3	Zn	1.348185	-0.331235	0.586915
Zn4	Zn	1.326273	-0.428143	0.758772
O5	O	1.423200	-0.385856	0.683749
O6	O	1.645112	-0.373732	0.776101
O7	O	1.515483	-0.409783	0.461850
O8	O	1.368187	-0.260977	0.612683
O9	O	1.661060	-0.430960	0.649720
O10	O	1.478488	-0.277023	0.755029
O11	O	1.389235	-0.336508	0.445884
O12	O	1.201363	-0.333767	0.591456
O13	O	1.330840	-0.426143	0.905589
O14	O	1.185264	-0.404965	0.717719
O15	O	1.457240	-0.370991	0.921672
O16	O	1.494236	-0.503750	0.628493
O17	O	1.351888	-0.501674	0.738790
C18	C	1.155997	-0.366690	0.649854
C19	C	1.041684	-0.358504	0.635379
C20	C	0.982793	-0.390128	0.691304
C21	C	0.864644	-0.381669	0.676344
C22	C	1.423064	-0.521684	0.683650
C23	C	1.423096	-0.579800	0.683654
C24	C	1.480651	-0.948501	0.757991
C25	C	1.480679	-1.003109	0.758016
O26	O	1.529451	-1.038418	0.821116
N27	N	1.423330	-1.022111	0.683866
C28	C	1.365941	-0.986502	0.609693
O29	O	1.317163	-1.007678	0.546626
C30	C	1.365908	-0.931895	0.609674
C31	C	1.423269	-0.912896	0.683822
C32	C	1.538006	-0.929502	0.832134
C33	C	1.537980	-0.874898	0.832108
C34	C	1.480598	-0.839293	0.757939
C35	C	1.423243	-0.858293	0.683796
C36	C	1.308514	-0.896287	0.535507
C37	C	1.308486	-0.841677	0.535494
C38	C	1.365847	-0.822679	0.609642
C39	C	1.365835	-0.768084	0.609601
N40	N	1.423184	-0.749082	0.683750
C41	C	1.480565	-0.784687	0.757919
C42	C	1.366013	-1.101180	0.609741
C43	C	1.366051	-1.155785	0.609755
C44	C	1.480787	-1.172389	0.758079
C45	C	1.480754	-1.117782	0.758059
C46	C	1.423362	-1.082178	0.683890
C47	C	1.480506	-0.670014	0.757858
C48	C	1.480478	-0.615405	0.757823
C49	C	1.365738	-0.598806	0.609503
C50	C	1.365770	-0.653411	0.609534
C51	C	1.423156	-0.689014	0.683721
O52	O	1.317084	-0.732744	0.546536
O53	O	1.529324	-0.763502	0.820984
C54	C	1.691445	-0.405097	0.717776
C55	C	1.805755	-0.413297	0.732276
C56	C	1.389174	-0.400687	0.951989
C57	C	1.374675	-0.407008	1.066297
C58	C	1.423360	-0.249501	0.683874
C59	C	1.423429	-0.191395	0.683928
C60	C	1.457151	-0.371049	0.416560
C61	C	1.471850	-0.364595	0.302278
C62	C	1.430751	-0.382537	1.125216
C63	C	1.415766	-0.389069	1.243360
H64	H	0.827597	-0.348328	0.617389
O65	O	1.501275	-0.351736	1.081224
C66	C	1.630475	-0.295408	1.108939
C67	C	1.550625	-0.330265	1.158888
H68	H	1.670413	-0.278048	1.171709
H69	H	1.589669	-0.261895	1.052715
H70	H	1.690513	-0.320510	1.065408
H71	H	1.490566	-0.305208	1.202473
H72	H	1.591503	-0.363781	1.215055
H73	H	1.527228	-0.698997	0.818274
O74	O	0.849835	-0.453133	0.802551
C75	C	0.876611	-0.547199	0.856249
C76	C	0.826614	-0.502137	0.776607
H77	H	0.857874	-0.586830	0.835289
H78	H	0.845028	-0.541217	0.936578
H79	H	0.964017	-0.546908	0.855800
H80	H	0.739206	-0.502401	0.776962
H81	H	0.858279	-0.508135	0.696315
O82	O	0.997331	-0.318777	0.565046
C83	C	0.839128	-0.274096	0.486068
C84	C	0.889220	-0.319113	0.565747
H85	H	0.751711	-0.274346	0.486624
H86	H	0.870619	-0.280123	0.405726
H87	H	0.857976	-0.234464	0.506921
H88	H	0.870392	-0.358765	0.544992
H89	H	0.857727	-0.313040	0.646068
H90	H	1.019844	-0.423463	0.750262
O91	O	1.345332	-0.419835	1.287683
C92	C	1.266111	-0.454354	1.445841
C93	C	1.345925	-0.419506	1.395781
H94	H	1.266549	-0.454091	1.533243
H95	H	1.286771	-0.496663	1.427110
H96	H	1.185864	-0.438076	1.414211
H97	H	1.426201	-0.435737	1.427382
H98	H	1.325176	-0.377203	1.414506
H99	H	1.530951	-0.338805	1.265262
H100	H	1.584685	-0.859433	0.892488
O101	O	1.304308	-0.437841	1.110515
C102	C	1.275100	-0.514077	1.230153
C103	C	1.354902	-0.479208	1.180142
H104	H	1.315972	-0.547523	1.286473
H105	H	1.235225	-0.531528	1.167464
H106	H	1.215002	-0.488966	1.273601
H107	H	1.415063	-0.504283	1.136701
H108	H	1.394698	-0.461753	1.242878
O109	O	1.536218	-0.597039	0.829958
C110	C	1.650070	-0.619281	0.977040
C111	C	1.586977	-0.640149	0.895424
H112	H	1.691142	-0.654125	1.029977
H113	H	1.596022	-0.593325	1.024846
H114	H	1.709816	-0.594939	0.936665
H115	H	1.527227	-0.664515	0.935714
H116	H	1.641089	-0.666077	0.847624
H117	H	1.584732	-0.958487	0.892537
O118	O	1.536595	-1.099306	0.829959
C119	C	1.673590	-1.048292	0.861517
C120	C	1.610446	-1.069187	0.779977
H121	H	1.733299	-1.023927	0.821136
H122	H	1.714683	-1.083106	0.914516
H123	H	1.619475	-1.022342	0.909272
H124	H	1.664490	-1.095128	0.732149
H125	H	1.569341	-1.034348	0.727050
O126	O	1.536430	-1.207053	0.830090
C127	C	1.587353	-1.298542	0.895810
C128	C	1.524279	-1.259342	0.814222
H129	H	1.577568	-1.340826	0.882996
H130	H	1.558695	-1.291116	0.976439
H131	H	1.672562	-1.292698	0.888353
H132	H	1.439058	-1.265163	0.821583
H133	H	1.553023	-1.266778	0.733625
O134	O	1.310247	-1.174148	0.537675
C135	C	1.196491	-1.151902	0.390519
C136	C	1.259632	-1.131038	0.472103
H137	H	1.155570	-1.117058	0.337470
H138	H	1.136639	-1.176204	0.430813
H139	H	1.250588	-1.177897	0.342833
H140	H	1.205616	-1.105021	0.519815
H141	H	1.319495	-1.106766	0.431746
H142	H	1.319281	-1.072192	0.549335
O143	O	1.252695	-0.914643	0.463437
C144	C	1.138917	-0.892389	0.316299
C145	C	1.202074	-0.871530	0.397877
H146	H	1.097991	-0.857542	0.263260
H147	H	1.079068	-0.916690	0.356599
H148	H	1.193003	-0.918383	0.268601
H149	H	1.148069	-0.845514	0.445601
H150	H	1.261934	-0.847258	0.357515
H151	H	1.261746	-0.812689	0.475097
H152	H	1.319071	-0.668880	0.549150
H153	H	1.319022	-0.569808	0.549112
