data_functionalizedCrystal
_audit_creation_method	'MofGen! by Chris Wilmer'
_symmetry_space_group_name_H-M	'P1'
_symmetry_Int_Tables_number	1
_symmetry_cell_setting	triclinic
loop_
_symmetry_equiv_pos_as_xyz
  x,y,z
_cell_length_a	16.109301
_cell_length_b	10.540539
_cell_length_c	14.586319
_cell_angle_alpha	89.998343
_cell_angle_beta	89.999213
_cell_angle_gamma	83.993486
loop_
_atom_site_label
_atom_site_type_symbol
_atom_site_fract_x
_atom_site_fract_y
_atom_site_fract_z
O1	O	1.104129	0.163159	-0.076178
O2	O	0.862191	0.183464	-0.076192
O3	O	0.988679	-0.011474	-0.076184
O4	O	0.977640	0.358096	-0.076186
O5	O	0.988670	-0.011477	0.076297
O6	O	0.862182	0.183461	0.076289
O7	O	1.104120	0.163156	0.076303
Cu8	Cu	0.983150	0.173308	0.090219
Cu9	Cu	0.983160	0.173312	-0.090108
O10	O	0.977631	0.358094	0.076294
C11	C	0.831206	0.182640	0.000047
C12	C	0.738896	0.180174	0.000041
C13	C	0.517296	0.290112	0.000051
C14	C	0.430561	0.287785	0.000057
C15	C	0.449021	0.056499	0.000055
C16	C	0.535754	0.058827	0.000055
C17	C	0.569889	0.175637	0.000049
C18	C	0.396421	0.170982	0.000054
C19	C	0.302380	0.168459	0.000060
C20	C	0.663936	0.178162	0.000044
C21	C	0.987847	-0.058767	0.000055
C22	C	0.985370	-0.199679	0.000050
C23	C	0.890460	-0.381753	-0.000298
C24	C	0.892971	-0.235171	0.000046
C25	C	1.029832	-0.261973	0.087127
C26	C	1.026678	-0.408472	0.087200
C27	C	1.028567	-0.409014	-0.086199
C28	C	1.029419	-0.262044	-0.087350
C29	C	1.135104	0.163980	0.000062
C30	C	1.227414	0.166446	0.000062
C31	C	0.978463	0.405386	0.000054
C32	C	0.980940	0.546299	0.000053
N33	N	0.983149	0.173305	0.217050
N34	N	0.983168	0.173305	-0.216939
C35	C	1.039177	0.087015	0.452060
C36	C	1.039179	0.087012	0.548042
C37	C	0.927134	0.259598	0.548044
C38	C	0.927129	0.259594	0.452064
C39	C	0.983154	0.173304	0.404075
C40	C	0.983163	0.173305	0.596036
C41	C	0.983165	0.173303	0.700103
C42	C	0.983151	0.173305	0.300001
H43	H	0.578578	-0.034398	0.000056
H44	H	0.857734	-0.192914	0.062566
C45	C	0.845693	-0.176927	-0.084266
C46	C	0.805385	-0.263782	-0.152381
C47	C	0.758095	-0.205543	-0.236690
C48	C	0.751113	-0.060450	-0.252885
C49	C	0.791422	0.026414	-0.184768
C50	C	0.838712	-0.031824	-0.100458
H51	H	0.810552	-0.371197	-0.140395
H52	H	0.728256	-0.269846	-0.287115
H53	H	0.716107	-0.017338	-0.315295
H54	H	0.786255	0.133829	-0.196754
H55	H	0.868552	0.032479	-0.050034
H56	H	1.084795	0.016751	0.412990
C57	C	0.982268	-0.445946	0.175120
C58	C	0.949915	-0.342619	0.244777
C59	C	0.905500	-0.380084	0.332697
C60	C	0.893439	-0.520876	0.350962
C61	C	0.925793	-0.624213	0.281304
C62	C	0.970207	-0.586747	0.193383
H63	H	0.958842	-0.238388	0.231258
H64	H	0.881550	-0.303587	0.384263
H65	H	0.860561	-0.548610	0.416046
H66	H	0.916865	-0.728444	0.294823
H67	H	0.994158	-0.663244	0.141818
C68	C	1.118729	-0.474089	-0.086989
C69	C	1.149028	-0.567317	-0.009792
C70	C	1.239187	-0.632394	-0.010570
C71	C	1.299047	-0.604242	-0.088546
C72	C	1.268749	-0.511010	-0.165749
C73	C	1.178590	-0.445933	-0.164970
H74	H	1.104716	-0.588161	0.047936
H75	H	1.261616	-0.701411	0.046581
H76	H	1.365788	-0.652416	-0.089123
H77	H	1.313062	-0.490166	-0.223477
H78	H	1.156162	-0.376916	-0.222122
H79	H	1.084796	0.016747	0.587109
C80	C	0.554845	0.418600	0.000054
C81	C	0.496990	0.544520	0.000063
C82	C	0.534536	0.673012	0.000069
C83	C	0.629938	0.675583	0.000068
C84	C	0.687800	0.549659	0.000059
C85	C	0.650253	0.421167	0.000053
H86	H	0.426362	0.542621	0.000064
H87	H	0.491703	0.766229	0.000076
H88	H	0.657732	0.770700	0.000073
H89	H	0.758427	0.551558	0.000058
H90	H	0.693086	0.327949	0.000046
H91	H	0.881505	0.329862	0.412992
H92	H	0.421218	-0.038605	0.000066
C93	C	0.865514	0.354524	0.600832
C94	C	0.865562	0.354609	0.706406
C95	C	0.803941	0.449541	0.759191
C96	C	0.742273	0.544389	0.706402
C97	C	0.742223	0.544307	0.600823
C98	C	0.803844	0.449375	0.548038
H99	H	0.911214	0.284394	0.745488
H100	H	0.803979	0.449601	0.837348
H101	H	0.696658	0.614663	0.745477
H102	H	0.696571	0.614522	0.561740
H103	H	0.803806	0.449315	0.469880
C104	C	0.372710	0.413711	0.000056
C105	C	0.377019	0.509435	-0.079125
C106	C	0.319168	0.635367	-0.079123
C107	C	0.257007	0.665576	0.000060
C108	C	0.252695	0.569849	0.079247
C109	C	0.310546	0.443917	0.079245
H110	H	0.423037	0.487075	-0.137746
H111	H	0.322360	0.706230	-0.137743
H112	H	0.214182	0.758798	0.000061
H113	H	0.206677	0.592209	0.137868
H114	H	0.307353	0.373054	0.137865
H115	H	0.853964	-0.409832	-0.062742
C116	C	0.841346	-0.421848	0.083586
C117	C	0.807095	-0.321143	0.154261
C118	C	0.757985	-0.361240	0.238147
C119	C	0.743126	-0.502042	0.251358
C120	C	0.777378	-0.602755	0.180681
C121	C	0.826488	-0.562658	0.096795
H122	H	0.818094	-0.216905	0.144484
H123	H	0.732630	-0.286684	0.290467
H124	H	0.706772	-0.531724	0.313456
H125	H	0.766379	-0.706993	0.190459
H126	H	0.851843	-0.637214	0.044475
H127	H	1.093130	-0.457388	0.091154
H128	H	0.998939	-0.218934	0.151923
C129	C	1.121492	-0.233047	0.091532
C130	C	1.177518	-0.284814	0.171546
C131	C	1.269175	-0.255870	0.175957
C132	C	1.304804	-0.175160	0.100354
C133	C	1.248777	-0.123389	0.020335
C134	C	1.157121	-0.152333	0.015924
H135	H	1.151144	-0.344564	0.227517
H136	H	1.310650	-0.294195	0.235193
H137	H	1.372654	-0.153734	0.103619
H138	H	1.275152	-0.063638	-0.035636
H139	H	1.115646	-0.114008	-0.043313
C140	C	0.985463	-0.206158	-0.174352
C141	C	0.945937	-0.294476	-0.242055
C142	C	0.901945	-0.238601	-0.329041
C143	C	0.897478	-0.094408	-0.348325
C144	C	0.937006	-0.006082	-0.280620
C145	C	0.980998	-0.061957	-0.193634
H146	H	0.949242	-0.401224	-0.227782
H147	H	0.872684	-0.303987	-0.379160
H148	H	0.864913	-0.053047	-0.412717
H149	H	0.933701	0.100666	-0.294893
H150	H	1.010259	0.003430	-0.143515
H151	H	0.998666	-0.440139	-0.152197
H152	H	1.096785	-0.238783	-0.092605
