data_functionalizedCrystal
_audit_creation_method	'MofGen! by Chris Wilmer'
_symmetry_space_group_name_H-M	'P1'
_symmetry_Int_Tables_number	1
_symmetry_cell_setting	triclinic
loop_
_symmetry_equiv_pos_as_xyz
  x,y,z
_cell_length_a	15.944551
_cell_length_b	15.021413
_cell_length_c	16.974813
_cell_angle_alpha	93.663112
_cell_angle_beta	83.447177
_cell_angle_gamma	90.000521
loop_
_atom_site_label
_atom_site_type_symbol
_atom_site_fract_x
_atom_site_fract_y
_atom_site_fract_z
O1	O	1.114401	0.081285	0.101983
O2	O	0.869836	0.082213	0.114556
O3	O	0.998936	0.073452	-0.006834
O4	O	0.985300	0.090046	0.223373
O5	O	0.998925	-0.074614	-0.006847
O6	O	0.869824	-0.065852	0.114543
O7	O	1.114389	-0.066780	0.101970
Zn8	Zn	0.992105	-0.089825	0.108255
Zn9	Zn	0.992120	0.105257	0.108271
O10	O	0.985289	-0.058019	0.223361
C11	C	0.838537	0.008145	0.114028
C12	C	0.745293	0.008041	0.112463
N13	N	0.992101	-0.222963	0.108243
C14	C	1.051351	-0.526038	0.051667
C15	C	1.068252	-0.461538	0.122899
C16	C	0.992121	-0.579998	0.108267
C17	C	0.975250	-0.467757	0.037025
C18	C	0.992113	-0.404575	0.108251
C19	C	1.009059	-0.516802	0.179535
C20	C	0.916025	-0.523030	0.093614
C21	C	0.932893	-0.458553	0.164899
C22	C	0.992127	-0.681055	0.108275
C23	C	0.992106	-0.303520	0.108252
C24	C	0.530532	0.002330	0.033479
C25	C	0.469473	0.077978	0.070163
C26	C	0.574570	0.007826	0.109632
C27	C	0.469484	-0.068001	0.070168
C28	C	0.409661	0.007615	0.106892
C29	C	0.514739	0.083536	0.146336
C30	C	0.514757	-0.062510	0.146331
C31	C	0.453715	0.013160	0.183070
C32	C	0.669570	0.007949	0.111208
C33	C	0.314661	0.007499	0.105321
C34	C	1.145688	0.007289	0.102499
C35	C	1.238932	0.007399	0.104063
C36	C	0.998411	-0.002702	-0.036299
C37	C	0.996856	-0.009024	-0.124076
N38	N	0.992131	0.238395	0.108277
C39	C	0.996133	0.068716	-0.165303
C40	C	0.994666	0.062774	-0.247779
C41	C	0.993927	-0.020909	-0.289027
C42	C	0.994648	-0.098655	-0.247794
C43	C	0.996109	-0.092712	-0.165319
C44	C	0.989551	-0.047338	-0.535690
C45	C	0.988092	-0.053276	-0.618171
C46	C	0.988109	0.108154	-0.618150
C47	C	0.989575	0.114090	-0.535674
C48	C	0.990291	0.036344	-0.494448
N49	N	0.992430	-0.026985	-0.373330
N50	N	0.991782	0.042421	-0.410145
C51	C	0.985813	0.018137	0.252825
C52	C	0.987369	0.024464	0.340603
H53	H	1.101477	-0.555529	0.003862
C54	C	0.321312	0.018483	0.266322
C55	C	0.408838	0.019366	0.268472
H56	H	0.293608	0.022312	0.319045
H57	H	0.305128	0.067884	0.239082
H58	H	0.305841	-0.035357	0.239391
H59	H	0.424310	0.073209	0.295398
H60	H	0.425028	-0.030040	0.295724
H61	H	0.534844	-0.121912	0.178509
C62	C	0.955437	-0.345157	-0.043213
C63	C	0.955985	-0.438443	-0.044297
H64	H	0.943554	-0.327064	-0.093421
H65	H	0.913303	-0.321960	-0.003075
H66	H	1.009091	-0.323185	-0.032419
H67	H	0.902329	-0.460415	-0.055085
H68	H	0.998122	-0.461649	-0.084447
H69	H	0.994041	-0.166791	-0.281384
C70	C	0.995992	0.227683	-0.173574
C71	C	0.996942	0.160705	-0.119967
H72	H	0.996484	0.284474	-0.145584
H73	H	1.044378	0.221571	-0.211766
H74	H	0.946461	0.222437	-0.199718
H75	H	1.046477	0.165947	-0.093827
H76	H	0.948551	0.166820	-0.081761
H77	H	0.449406	0.137376	0.037958
C78	C	0.966770	-0.511059	0.320146
C79	C	1.028429	-0.545969	0.260873
H80	H	0.978730	-0.529075	0.370355
H81	H	0.966869	-0.447794	0.320645
H82	H	0.912896	-0.532645	0.309639
H83	H	1.082303	-0.524377	0.271376
H84	H	1.028339	-0.609247	0.260376
C85	C	0.991514	0.194878	-0.409201
C86	C	0.990170	0.206078	-0.490309
H87	H	0.991826	0.251669	-0.381189
H88	H	0.942859	0.162982	-0.389749
H89	H	1.040778	0.162397	-0.401658
H90	H	0.940903	0.238554	-0.497852
H91	H	1.038830	0.237987	-0.509767
H92	H	0.851695	-0.550028	0.081199
C93	C	0.985868	0.170725	-0.744567
C94	C	0.987310	0.193608	-0.663466
H95	H	0.985367	0.223485	-0.772540
H96	H	1.034583	0.136160	-0.764110
H97	H	0.936666	0.137024	-0.752051
H98	H	1.036516	0.227304	-0.655981
H99	H	0.938590	0.228189	-0.643916
C100	C	0.625629	-0.081085	-0.063907
C101	C	0.575605	-0.003729	-0.051849
H102	H	0.653451	-0.084824	-0.116586
H103	H	0.666431	-0.079002	-0.027215
H104	H	0.590923	-0.131894	-0.056111
H105	H	0.610312	0.047080	-0.059640
H106	H	0.534797	-0.005805	-0.088552
H107	H	0.449432	-0.132041	0.037940
C108	C	0.629352	0.169429	0.190822
C109	C	0.541669	0.170084	0.189786
H110	H	0.645977	0.222863	0.217640
H111	H	0.645206	0.119595	0.217687
H112	H	0.656339	0.165400	0.137839
H113	H	0.514682	0.174107	0.242769
H114	H	0.525806	0.219932	0.162922
H115	H	0.987486	-0.121424	-0.651752
H116	H	0.990150	-0.110645	-0.502136
C117	C	1.217054	-0.459325	0.080297
C118	C	1.155117	-0.425110	0.139630
H119	H	1.270681	-0.436834	0.090621
H120	H	1.217837	-0.522576	0.079946
H121	H	1.204656	-0.441756	0.030086
H122	H	1.167512	-0.442685	0.189841
H123	H	1.154336	-0.361846	0.139988
C124	C	0.865352	-0.325798	0.228615
C125	C	0.865268	-0.418939	0.229570
H126	H	0.823602	-0.301342	0.268539
H127	H	0.919258	-0.303855	0.238592
H128	H	0.853239	-0.309031	0.178068
H129	H	0.877387	-0.435706	0.280116
H130	H	0.811350	-0.440890	0.219598
H131	H	0.994081	0.126078	-0.281342
C132	C	0.995936	-0.252873	-0.173618
C133	C	0.996894	-0.178166	-0.119998
H134	H	0.996420	-0.305629	-0.145637
H135	H	0.946416	-0.251386	-0.199763
H136	H	1.044333	-0.252276	-0.211809
H137	H	0.948494	-0.178760	-0.081810
H138	H	1.046420	-0.179654	-0.093840
