data_functionalizedCrystal
_audit_creation_method	'MofGen! by Chris Wilmer'
_symmetry_space_group_name_H-M	'P1'
_symmetry_Int_Tables_number	1
_symmetry_cell_setting	triclinic
loop_
_symmetry_equiv_pos_as_xyz
  x,y,z
_cell_length_a	13.033399
_cell_length_b	12.759401
_cell_length_c	12.759393
_cell_angle_alpha	89.980324
_cell_angle_beta	82.840372
_cell_angle_gamma	82.813470
loop_
_atom_site_label
_atom_site_type_symbol
_atom_site_fract_x
_atom_site_fract_y
_atom_site_fract_z
Zn1	Zn	0.415946	1.553243	-0.647143
Zn2	Zn	0.590713	1.530855	-0.493799
Zn3	Zn	0.415998	1.377535	-0.471489
Zn4	Zn	0.590637	1.355264	-0.669430
O5	O	0.503324	1.454224	-0.570466
O6	O	0.439139	1.697293	-0.626812
O7	O	0.567591	1.510468	-0.343825
O8	O	0.269764	1.419532	-0.476126
O9	O	0.567540	1.680845	-0.514150
O10	O	0.269726	1.548624	-0.605179
O11	O	0.439228	1.397824	-0.327434
O12	O	0.439154	1.227561	-0.497737
O13	O	0.567410	1.381576	-0.813488
O14	O	0.567461	1.211199	-0.643164
O15	O	0.439065	1.527030	-0.797114
O16	O	0.736930	1.488873	-0.535761
O17	O	0.736874	1.359867	-0.664797
C18	C	0.503306	1.181259	-0.570448
C19	C	0.503323	1.064480	-0.570469
C20	C	0.436586	1.018168	-0.629251
C21	C	0.436596	0.908443	-0.629259
C22	C	0.570091	0.891350	-0.511702
C23	C	0.570074	1.001074	-0.511689
C24	C	0.313427	0.774224	-0.651287
C25	C	0.246699	0.727907	-0.710086
C26	C	0.230773	0.765596	-0.810589
C27	C	0.281590	0.849598	-0.852316
C28	C	0.348326	0.895909	-0.793523
C29	C	0.364233	0.858224	-0.693003
C30	C	0.693244	1.135294	-0.489672
C31	C	0.759986	1.181606	-0.430885
C32	C	0.775923	1.143918	-0.330381
C33	C	0.725124	1.059910	-0.288661
C34	C	0.658382	1.013599	-0.347449
C35	C	0.642444	1.051294	-0.447951
C36	C	0.230769	1.489060	-0.535678
C37	C	0.114623	1.503905	-0.520853
C38	C	0.062814	1.446694	-0.578088
C39	C	-0.057230	1.462035	-0.562768
C40	C	0.774818	1.419553	-0.605141
C41	C	0.890964	1.404816	-0.620011
C42	C	0.503223	1.454316	-0.844486
C43	C	0.503181	1.454355	-0.961257
C44	C	0.503342	1.728255	-0.570483
C45	C	0.503350	1.845031	-0.570491
C46	C	0.436341	1.530099	-1.007594
C47	C	0.436296	1.530122	-1.117312
C48	C	0.569939	1.378653	-1.134349
C49	C	0.569978	1.378626	-1.024632
C50	C	0.313009	1.583451	-1.251533
C51	C	0.246179	1.659210	-1.297874
C52	C	0.230157	1.763765	-1.260233
C53	C	0.280981	1.792580	-1.176254
C54	C	0.347819	1.716825	-1.129920
C55	C	0.363821	1.612258	-1.167557
C56	C	0.693266	1.325308	-0.890410
C57	C	0.760110	1.249557	-0.844074
C58	C	0.776143	1.144999	-0.881714
C59	C	0.725337	1.116186	-0.965699
C60	C	0.658493	1.191937	-1.012035
C61	C	0.642459	1.296494	-0.974386
C62	C	0.503348	1.454203	-0.297501
C63	C	0.503096	1.454405	-0.180693
H64	H	0.624438	0.839712	-0.463846
H65	H	0.326377	0.743539	-0.569443
Cl66	Cl	0.131533	1.353539	-0.671263
H67	H	0.389203	1.740287	-1.061550
Cl68	Cl	-0.040323	1.311655	-0.713189
Cl69	Cl	0.673082	1.456750	-0.843056
H70	H	0.389695	0.964306	-0.827493
Cl71	Cl	0.146890	0.707363	-0.884508
Cl72	Cl	0.045904	1.597072	-0.427690
Cl73	Cl	0.333132	1.452001	-1.298849
Cl74	Cl	0.594489	0.908013	-0.294982
H75	H	0.738106	1.029219	-0.206825
H76	H	0.267938	1.877723	-1.145620
H77	H	0.205324	0.659512	-0.676103
H78	H	0.381947	1.591759	-0.955996
H79	H	-0.101740	1.522382	-0.502424
H80	H	0.801489	1.273029	-0.775697
Cl81	Cl	0.146143	1.859003	-1.318494
H82	H	0.830583	1.083325	-0.843985
H83	H	0.268626	0.880270	-0.934160
H84	H	0.204798	1.635739	-1.366250
H85	H	0.624326	1.317000	-1.185963
H86	H	0.830300	1.181611	-0.282534
H87	H	0.617124	1.168469	-1.080420
Cl88	Cl	0.745493	0.984738	-1.013026
Cl89	Cl	0.823854	1.287214	-0.483338
H90	H	0.382229	1.069791	-0.677110
Cl91	Cl	0.673202	1.182689	-0.616021
