data_functionalizedCrystal
_audit_creation_method	'MofGen! by Chris Wilmer'
_symmetry_space_group_name_H-M	'P1'
_symmetry_Int_Tables_number	1
_symmetry_cell_setting	triclinic
loop_
_symmetry_equiv_pos_as_xyz
  x,y,z
_cell_length_a	12.645331
_cell_length_b	16.994729
_cell_length_c	12.645323
_cell_angle_alpha	89.959104
_cell_angle_beta	90.022822
_cell_angle_gamma	89.972255
loop_
_atom_site_label
_atom_site_type_symbol
_atom_site_fract_x
_atom_site_fract_y
_atom_site_fract_z
Zn1	Zn	1.621068	-0.314018	0.599935
Zn2	Zn	1.621091	-0.445933	0.422879
Zn3	Zn	1.443782	-0.314047	0.422679
Zn4	Zn	1.443905	-0.445884	0.600093
O5	O	1.532462	-0.379971	0.511397
O6	O	1.769418	-0.331525	0.576465
O7	O	1.597529	-0.428471	0.274505
O8	O	1.467239	-0.203662	0.446042
O9	O	1.769435	-0.428442	0.446383
O10	O	1.597489	-0.203640	0.576272
O11	O	1.467261	-0.331575	0.274358
O12	O	1.295451	-0.331528	0.446196
O13	O	1.467448	-0.428359	0.748420
O14	O	1.295542	-0.428388	0.576542
O15	O	1.597609	-0.331477	0.748303
O16	O	1.597648	-0.556308	0.446536
O17	O	1.467470	-0.556272	0.576735
C18	C	1.257032	-0.379956	0.511365
C19	C	1.139202	-0.379969	0.511377
C20	C	1.532588	-0.584911	0.511672
C21	C	1.532677	-0.674233	0.511767
Zn22	Zn	1.444579	-0.944855	0.421769
Zn23	Zn	1.443167	-0.813301	0.599305
Zn24	Zn	1.621965	-0.813164	0.423717
Zn25	Zn	1.620238	-0.945361	0.600636
O26	O	1.532487	-0.879170	0.511357
O27	O	1.296050	-0.927250	0.443947
O28	O	1.467017	-0.702902	0.576271
O29	O	1.599748	-0.830363	0.275118
O30	O	1.295013	-0.830598	0.574382
O31	O	1.469423	-0.927117	0.273686
O32	O	1.598379	-0.702801	0.447267
O33	O	1.770077	-0.830854	0.448558
O34	O	1.596804	-1.055675	0.576651
O35	O	1.768808	-0.927979	0.578540
O36	O	1.467748	-1.055303	0.445238
O37	O	1.465343	-0.831089	0.747822
O38	O	1.595436	-0.928113	0.748800
C39	C	1.094227	-0.318940	0.429510
C40	C	0.971667	-0.318714	0.429790
C41	C	0.971349	-0.357801	0.623250
C42	C	1.093946	-0.357345	0.622739
C43	C	1.094076	-0.463348	0.482427
C44	C	0.971468	-0.462913	0.480000
C45	C	1.808967	-0.379985	0.511429
C46	C	1.926797	-0.379992	0.511442
C47	C	1.532540	-0.379910	0.787902
C48	C	1.532573	-0.379884	0.905732
C49	C	1.532340	-0.174230	0.511114
C50	C	1.532291	-0.084908	0.510993
C51	C	1.532445	-0.379974	0.235967
C52	C	1.532617	-0.379778	0.118137
C53	C	1.450436	-0.440545	1.073369
C54	C	1.450651	-0.440845	0.950809
C55	C	1.644297	-0.402442	0.950287
C56	C	1.643846	-0.402823	1.072886
C57	C	1.504042	-0.296324	1.072801
C58	C	1.501550	-0.296825	0.950195
C59	C	1.807906	-0.879457	0.513905
C60	C	1.925731	-0.879599	0.515021
C61	C	1.530046	-0.879668	0.786774
C62	C	1.528970	-0.879859	0.904599
C63	C	1.255993	-0.878883	0.508799
C64	C	1.138168	-0.878761	0.507709
C65	C	1.534935	-0.878668	0.234863
C66	C	1.535979	-0.878454	0.117039
C67	C	2.094125	-0.819025	0.434433
C68	C	1.971569	-0.818618	0.433505
C69	C	1.969241	-0.857159	0.627148
C70	C	2.091839	-0.856885	0.627842
C71	C	2.093063	-0.963283	0.488077
C72	C	1.970486	-0.962674	0.484441
C73	C	1.609048	-0.941314	1.072813
C74	C	1.610508	-0.940950	0.950262
C75	C	1.558904	-0.796824	0.949531
C76	C	1.558359	-0.797365	1.072128
C77	C	1.415234	-0.901283	1.070696
C78	C	1.416964	-0.902933	0.948098
H79	H	1.123645	-0.332624	0.346333
O80	O	1.932679	-0.837194	0.323408
H81	H	2.001440	-0.846548	0.270349
O82	O	1.134971	-0.237561	0.454611
H83	H	1.187110	-0.240392	0.525145
O84	O	0.932749	-0.236885	0.455248
H85	H	0.883959	-0.214620	0.388649
O86	O	1.583322	-0.236353	1.111144
H87	H	1.623512	-0.209187	1.042179
O88	O	1.387006	-0.983879	0.909134
H89	H	1.374315	-1.023445	0.977835
O90	O	1.932920	-0.985106	0.375188
H91	H	2.002281	-0.994130	0.322810
O92	O	1.332455	-0.848121	0.906831
H93	H	1.254462	-0.866063	0.939040
O94	O	2.134958	-0.990488	0.382438
H95	H	2.102038	-1.049407	0.363824
H96	H	1.939455	-0.900038	0.689763
H97	H	1.387331	-0.960880	1.101249
H98	H	1.469123	-0.502026	1.104283
H99	H	2.124325	-0.832987	0.351622
H100	H	1.469522	-0.502713	0.921591
H101	H	1.354142	-0.856748	1.099197
O102	O	1.718143	-0.923042	1.114692
H103	H	1.748058	-0.974173	1.160464
O104	O	1.666733	-0.772577	0.909969
H105	H	1.687019	-0.713780	0.942282
H106	H	1.640098	-0.779458	1.101540
O107	O	0.932866	-0.414884	0.706295
H108	H	0.887173	-0.382497	0.767271
O109	O	1.131782	-0.276626	0.655153
H110	H	1.062515	-0.238282	0.671042
O111	O	1.133381	-0.413682	0.706327
H112	H	1.064883	-0.441126	0.746941
H113	H	0.941539	-0.332559	0.346895
H114	H	1.501218	-0.750255	1.101340
H115	H	0.942347	-0.479652	0.397715
O116	O	0.931031	-0.526346	0.553202
H117	H	0.878234	-0.499642	0.613411
O118	O	1.340920	-0.422123	0.910908
H119	H	1.284605	-0.467144	0.940405
H120	H	1.668920	-0.462809	0.919691
H121	H	0.940604	-0.297540	0.648177
O122	O	2.130665	-1.023351	0.567722
H123	H	2.181204	-0.994004	0.627653
H124	H	1.668056	-0.463829	1.101591
H125	H	1.124963	-0.483610	0.402259
O126	O	1.132619	-0.523583	0.561392
H127	H	1.183668	-0.494328	0.620973
H128	H	1.367346	-0.426564	1.102821
H129	H	1.707158	-0.360485	1.102499
H130	H	1.938415	-0.796782	0.651465
O131	O	1.720965	-0.922337	0.912490
H132	H	1.744914	-0.863641	0.942547
O133	O	1.727592	-0.345682	0.911591
H134	H	1.707522	-0.285298	0.938309
O135	O	1.397989	-0.269086	1.113667
H136	H	1.364461	-0.314732	1.166754
O137	O	1.482961	-0.734721	0.910305
H138	H	1.422935	-0.762445	0.858242
O139	O	1.583825	-1.023259	1.111484
H140	H	1.568619	-1.062163	1.042677
O141	O	1.392652	-0.274272	0.911602
H142	H	1.360748	-0.322012	0.860960
H143	H	1.557027	-0.249157	0.919500
O144	O	1.929159	-1.025840	0.557560
H145	H	1.875844	-0.998888	0.617110
H146	H	2.124864	-0.757584	0.453387
H147	H	1.942172	-0.756744	0.452118
H148	H	2.120314	-0.795920	0.652299
O149	O	2.130321	-0.913027	0.712106
H150	H	2.100992	-0.973165	0.694554
O151	O	1.585655	-1.022511	0.910048
H152	H	1.645887	-1.064522	0.939982
