data_functionalizedCrystal
_audit_creation_method	'MofGen! by Chris Wilmer'
_symmetry_space_group_name_H-M	'P1'
_symmetry_Int_Tables_number	1
_symmetry_cell_setting	triclinic
loop_
_symmetry_equiv_pos_as_xyz
  x,y,z
_cell_length_a	16.109293
_cell_length_b	27.732048
_cell_length_c	14.586319
_cell_angle_alpha	89.991275
_cell_angle_beta	90.006918
_cell_angle_gamma	96.949538
loop_
_atom_site_label
_atom_site_type_symbol
_atom_site_fract_x
_atom_site_fract_y
_atom_site_fract_z
O1	O	-1.102366	0.062112	-0.076323
O2	O	-0.769033	0.395445	0.257011
O3	O	-0.435699	0.728779	0.590344
O4	O	-0.860207	0.069848	-0.076310
O5	O	-0.526874	0.403181	0.257023
O6	O	-0.193541	0.736515	0.590357
O7	O	-0.988807	-0.004385	-0.076299
O8	O	-0.655474	0.328948	0.257034
O9	O	-0.322141	0.662281	0.590367
O10	O	-0.973766	0.136345	-0.076333
O11	O	-0.640432	0.469679	0.257000
O12	O	-0.307099	0.803012	0.590333
O13	O	-0.988799	-0.004387	0.076181
O14	O	-0.655465	0.328947	0.409515
O15	O	-0.322132	0.662280	0.742848
O16	O	-0.860198	0.069847	0.076171
O17	O	-0.526865	0.403180	0.409504
O18	O	-0.193532	0.736514	0.742837
O19	O	-1.102357	0.062111	0.076158
O20	O	-0.769024	0.395444	0.409491
O21	O	-0.435690	0.728778	0.742825
Cu22	Cu	-0.981277	0.065979	0.090087
Cu23	Cu	-0.647944	0.399312	0.423420
Cu24	Cu	-0.314610	0.732645	0.756754
Cu25	Cu	-0.981287	0.065980	-0.090239
Cu26	Cu	-0.647954	0.399313	0.243094
Cu27	Cu	-0.314621	0.732647	0.576428
O28	O	-0.973757	0.136344	0.076147
O29	O	-0.640423	0.469678	0.409481
O30	O	-0.307090	0.803011	0.742814
C31	C	-0.829232	0.069535	-0.000068
C32	C	-0.495898	0.402868	0.333266
C33	C	-0.162565	0.736201	0.666599
C34	C	-0.736948	0.068597	-0.000062
C35	C	-0.403614	0.401931	0.333271
C36	C	-0.070281	0.735264	0.666605
C37	C	-0.988487	-0.022394	-0.000056
C38	C	-0.655154	0.310939	0.333277
C39	C	-0.321821	0.644272	0.666610
C40	C	-0.987537	-0.076053	-0.000049
C41	C	-0.654203	0.257280	0.333285
C42	C	-0.320870	0.590614	0.666618
C43	C	-0.524628	0.066429	0.083053
C44	C	-0.191295	0.399762	0.416386
C45	C	0.142039	0.733096	0.749719
C46	C	-0.437918	0.065543	0.083052
C47	C	-0.104585	0.398876	0.416385
C48	C	0.228748	0.732209	0.749719
C49	C	-0.437938	0.065546	-0.083191
C50	C	-0.104605	0.398880	0.250143
C51	C	0.228728	0.732213	0.583476
C52	C	-0.524647	0.066429	-0.083189
C53	C	-0.191314	0.399762	0.250144
C54	C	0.142020	0.733096	0.583477
C55	C	-0.567989	0.066873	-0.000065
C56	C	-0.234656	0.400206	0.333268
C57	C	0.098678	0.733539	0.666602
C58	C	-0.394571	0.065104	-0.000067
C59	C	-0.061238	0.398437	0.333266
C60	C	0.272096	0.731771	0.666600
C61	C	-0.300557	0.064143	-0.000068
C62	C	0.032777	0.397477	0.333265
C63	C	0.366110	0.730810	0.666599
C64	C	-0.662009	0.067833	-0.000063
C65	C	-0.328676	0.401166	0.333270
C66	C	0.004657	0.734499	0.666603
C67	C	-1.057545	-0.414576	-0.000100
C68	C	-0.724212	-0.081243	0.333234
C69	C	-0.390879	0.252090	0.666567
C70	C	-1.054018	-0.616251	-0.000112
C71	C	-0.720684	-0.282917	0.333221
C72	C	-0.387351	0.050416	0.666554
O73	O	-1.118036	-0.647239	-0.000156
O74	O	-0.784702	-0.313906	0.333178
O75	O	-0.451369	0.019427	0.666511
N76	N	-0.977763	-0.635692	-0.000107
N77	N	-0.644430	-0.302359	0.333226
N78	N	-0.311096	0.030974	0.666559
C79	C	-0.902385	-0.604712	-0.000105
C80	C	-0.569052	-0.271378	0.333228
C81	C	-0.235718	0.061955	0.666561
O82	O	-0.837445	-0.625876	-0.000111
O83	O	-0.504111	-0.292542	0.333222
O84	O	-0.170778	0.040791	0.666556
C85	C	-0.905913	-0.403038	-0.000099
C86	C	-0.572580	-0.069705	0.333234
C87	C	-0.239247	0.263628	0.666567
C88	C	-0.982173	-0.383600	-0.000095
C89	C	-0.648840	-0.050266	0.333238
C90	C	-0.315506	0.283067	0.666572
C91	C	-1.133799	-0.395137	-0.000096
C92	C	-0.800465	-0.061804	0.333237
C93	C	-0.467132	0.271530	0.666570
C94	C	-1.134680	-0.344721	-0.000088
C95	C	-0.801346	-0.011388	0.333245
C96	C	-0.468013	0.321945	0.666579
C97	C	-1.059307	-0.313745	-0.000083
C98	C	-0.725974	0.019588	0.333250
C99	C	-0.392641	0.352922	0.666583
C100	C	-0.983054	-0.333184	-0.000087
C101	C	-0.649721	0.000149	0.333247
C102	C	-0.316387	0.333482	0.666580
C103	C	-0.830536	-0.372059	-0.000104
C104	C	-0.497203	-0.038726	0.333230
C105	C	-0.163869	0.294608	0.666563
C106	C	-0.831425	-0.321638	-0.000105
C107	C	-0.498092	0.011695	0.333229
C108	C	-0.164758	0.345029	0.666562
C109	C	-0.907685	-0.302199	-0.000100
C110	C	-0.574351	0.031134	0.333233
C111	C	-0.241018	0.364467	0.666566
C112	C	-0.908563	-0.251792	-0.000074
C113	C	-0.575229	0.081541	0.333260
C114	C	-0.241896	0.414875	0.666593
N115	N	-0.984817	-0.232351	-0.000079
N116	N	-0.651484	0.100983	0.333255
N117	N	-0.318151	0.434316	0.666588
C118	C	-1.060190	-0.263327	-0.000083
C119	C	-0.726856	0.070006	0.333250
C120	C	-0.393523	0.403340	0.666583
C121	C	-0.900538	-0.710594	-0.000107
C122	C	-0.567204	-0.377260	0.333227
C123	C	-0.233871	-0.043927	0.666560
C124	C	-0.899655	-0.761012	-0.000106
C125	C	-0.566322	-0.427678	0.333227
C126	C	-0.232989	-0.094345	0.666560
C127	C	-1.051288	-0.772547	-0.000115
C128	C	-0.717955	-0.439214	0.333218
C129	C	-0.384622	-0.105880	0.666552
C130	C	-1.052170	-0.722128	-0.000109
C131	C	-0.718837	-0.388795	0.333225
C132	C	-0.385503	-0.055461	0.666558
C133	C	-0.976792	-0.691152	-0.000112
C134	C	-0.643459	-0.357819	0.333222
C135	C	-0.310126	-0.024485	0.666555
C136	C	-1.062034	-0.157450	-0.000066
C137	C	-0.728701	0.175883	0.333268
C138	C	-0.395368	0.509217	0.666601
C139	C	-1.062909	-0.107029	-0.000054
C140	C	-0.729575	0.226304	0.333280
C141	C	-0.396242	0.559637	0.666613
C142	C	-0.911276	-0.095499	-0.000050
C143	C	-0.577943	0.237835	0.333284
C144	C	-0.244610	0.571168	0.666617
C145	C	-0.910401	-0.145915	-0.000057
C146	C	-0.577068	0.187419	0.333276
C147	C	-0.243735	0.520752	0.666610
C148	C	-0.985787	-0.176890	-0.000068
C149	C	-0.652454	0.156444	0.333265
C150	C	-0.319121	0.489777	0.666599
O151	O	-0.844579	-0.220775	-0.000041
O152	O	-0.511246	0.112558	0.333293
O153	O	-0.177912	0.445892	0.666626
O154	O	-1.125120	-0.242154	-0.000098
O155	O	-0.791787	0.091180	0.333235
O156	O	-0.458454	0.424513	0.666568
C157	C	-1.056664	-0.464992	-0.000108
C158	C	-0.723331	-0.131659	0.333226
C159	C	-0.389997	0.201675	0.666559
C160	C	-0.980411	-0.484431	-0.000111
C161	C	-0.647077	-0.151098	0.333222
C162	C	-0.313744	0.182236	0.666556
C163	C	-0.905038	-0.453455	-0.000106
C164	C	-0.571705	-0.120121	0.333227
C165	C	-0.238372	0.213212	0.666560
C166	C	-0.979528	-0.534849	-0.000111
C167	C	-0.646195	-0.201516	0.333222
C168	C	-0.312862	0.131818	0.666556
C169	C	-1.054901	-0.565826	-0.000116
C170	C	-0.721567	-0.232492	0.333218
C171	C	-0.388234	0.100841	0.666551
C172	C	-1.131155	-0.546384	-0.000121
C173	C	-0.797822	-0.213051	0.333213
C174	C	-0.464489	0.120283	0.666546
C175	C	-1.132036	-0.495968	-0.000113
C176	C	-0.798703	-0.162635	0.333221
C177	C	-0.465370	0.170698	0.666554
C178	C	-0.828784	-0.472896	-0.000101
C179	C	-0.495450	-0.139563	0.333232
C180	C	-0.162117	0.193770	0.666565
C181	C	-0.827909	-0.523312	-0.000109
C182	C	-0.494576	-0.189979	0.333225
C183	C	-0.161242	0.143354	0.666558
C184	C	-0.903281	-0.554289	-0.000113
C185	C	-0.569948	-0.220956	0.333220
C186	C	-0.236615	0.112378	0.666553
C187	C	-0.133331	0.062429	-0.000079
C188	C	0.200002	0.395762	0.333254
C189	C	0.533335	0.729095	0.666587
C190	C	-0.225612	0.063380	-0.000070
C191	C	0.107721	0.396713	0.333264
C192	C	0.441054	0.730046	0.666597
C193	C	-0.974077	0.154353	-0.000098
C194	C	-0.640744	0.487686	0.333236
C195	C	-0.307410	0.821020	0.666569
C196	C	-0.975028	0.208012	-0.000111
C197	C	-0.641694	0.541345	0.333222
C198	C	-0.308361	0.874679	0.666555
N199	N	-0.981276	0.065978	0.216919
N200	N	-0.647942	0.399311	0.550252
N201	N	-0.314609	0.732644	0.883585
N202	N	-0.981295	0.065977	-0.217071
N203	N	-0.647962	0.399311	0.116262
N204	N	-0.314629	0.732644	0.449596
C205	C	-1.038238	0.033118	0.451930
C206	C	-0.704905	0.366451	0.785263
C207	C	-0.371572	0.699785	1.118597
C208	C	-1.038241	0.033117	0.547911
C209	C	-0.704907	0.366450	0.881245
C210	C	-0.371574	0.699784	1.214578
C211	C	-0.924326	0.098839	0.547911
C212	C	-0.590993	0.432172	0.881245
C213	C	-0.257660	0.765505	1.214578
C214	C	-0.924321	0.098837	0.451932
C215	C	-0.590987	0.432170	0.785265
C216	C	-0.257654	0.765504	1.118598
C217	C	-0.981281	0.065977	0.403944
C218	C	-0.647948	0.399311	0.737277
C219	C	-0.314615	0.732644	1.070610
C220	C	-0.981289	0.065978	0.595904
C221	C	-0.647956	0.399311	0.929238
C222	C	-0.314623	0.732644	1.262571
C223	C	-0.981292	0.065977	0.699971
C224	C	-0.647958	0.399310	1.033305
C225	C	-0.314625	0.732643	1.366638
C226	C	-0.981278	0.065978	0.299870
C227	C	-0.647945	0.399311	0.633203
C228	C	-0.314612	0.732644	0.966536
H229	H	-0.402618	0.065182	0.150735
H230	H	-0.069284	0.398515	0.484068
H231	H	0.264049	0.731848	0.817401
O232	O	-1.143341	-0.190856	-0.000064
O233	O	-0.810007	0.142478	0.333269
O234	O	-0.476674	0.475811	0.666603
H235	H	-1.196506	-0.168861	-0.000049
H236	H	-0.863172	0.164472	0.333284
H237	H	-0.529839	0.497806	0.666617
O238	O	-0.748281	-0.393015	-0.000116
O239	O	-0.414948	-0.059682	0.333217
O240	O	-0.081615	0.273652	0.666551
H241	H	-0.744231	-0.415712	0.062033
H242	H	-0.410897	-0.082378	0.395367
H243	H	-0.077564	0.250955	0.728700
H244	H	-0.877936	0.125595	0.412859
H245	H	-0.544602	0.458929	0.746192
H246	H	-0.211269	0.792262	1.079525
O247	O	-0.571428	0.066906	-0.172840
O248	O	-0.238095	0.400239	0.160494
O249	O	0.095239	0.733573	0.493827
H250	H	-0.546968	0.099665	-0.212704
H251	H	-0.213634	0.432998	0.120629
H252	H	0.119699	0.766332	0.453962
O253	O	-0.571372	0.066908	0.172708
O254	O	-0.238039	0.400241	0.506041
O255	O	0.095295	0.733574	0.839374
H256	H	-0.618718	0.034388	0.176694
H257	H	-0.285384	0.367721	0.510027
H258	H	0.047949	0.701054	0.843360
H259	H	-0.402639	0.065186	-0.150868
H260	H	-0.069306	0.398519	0.182466
H261	H	0.264028	0.731852	0.515799
O262	O	-1.145163	-0.086062	-0.000063
O263	O	-0.811829	0.247271	0.333270
O264	O	-0.478496	0.580604	0.666604
H265	H	-1.197423	-0.116076	-0.000082
H266	H	-0.864090	0.217257	0.333252
H267	H	-0.530757	0.550591	0.666585
O268	O	-0.750124	-0.288227	-0.000097
O269	O	-0.416790	0.045106	0.333237
O270	O	-0.083457	0.378440	0.666570
H271	H	-0.696954	-0.310218	-0.000091
H272	H	-0.363620	0.023115	0.333243
H273	H	-0.030287	0.356448	0.666576
O274	O	-1.216931	-0.323758	-0.000110
O275	O	-0.883598	0.009576	0.333223
O276	O	-0.550264	0.342909	0.666557
H277	H	-1.269186	-0.353774	-0.000130
H278	H	-0.935853	-0.020441	0.333204
H279	H	-0.602520	0.312892	0.666537
H280	H	-1.195179	-0.420354	-0.000103
H281	H	-0.861846	-0.087020	0.333230
H282	H	-0.528513	0.246313	0.666563
O283	O	-0.862901	0.134285	0.599668
O284	O	-0.529568	0.467618	0.933002
O285	O	-0.196234	0.800952	1.266335
H286	H	-0.872480	0.128770	0.674471
H287	H	-0.539146	0.462104	1.007805
H288	H	-0.205813	0.795437	1.341138
H289	H	-1.114267	-0.706305	-0.000106
H290	H	-0.780934	-0.372972	0.333227
H291	H	-0.447600	-0.039638	0.666561
O292	O	-1.132587	-0.805961	-0.000121
O293	O	-0.799254	-0.472627	0.333212
O294	O	-0.465920	-0.139294	0.666545
H295	H	-1.135808	-0.829198	-0.062276
H296	H	-0.802475	-0.495865	0.271058
H297	H	-0.469142	-0.162531	0.604391
O298	O	-0.817405	-0.781976	-0.000099
O299	O	-0.484072	-0.448643	0.333234
O300	O	-0.150738	-0.115310	0.666567
H301	H	-0.765147	-0.751961	-0.000104
H302	H	-0.431814	-0.418628	0.333229
H303	H	-0.098480	-0.085295	0.666562
H304	H	-0.839153	-0.685377	-0.000109
H305	H	-0.505819	-0.352043	0.333225
H306	H	-0.172486	-0.018710	0.666558
O307	O	-0.828153	-0.166886	-0.000059
O308	O	-0.494820	0.166447	0.333275
O309	O	-0.161487	0.499781	0.666608
H310	H	-0.775891	-0.136874	-0.000058
H311	H	-0.442558	0.196460	0.333275
H312	H	-0.109225	0.529793	0.666609
H313	H	-0.765805	-0.539134	-0.000104
H314	H	-0.432471	-0.205801	0.333229
H315	H	-0.099138	0.127533	0.666562
H316	H	-0.849910	-0.070269	-0.000043
H317	H	-0.516577	0.263065	0.333291
H318	H	-0.183243	0.596398	0.666624
H319	H	-1.194135	-0.480146	-0.000109
H320	H	-0.860801	-0.146813	0.333224
H321	H	-0.527468	0.186520	0.666557
H322	H	-0.767405	-0.447680	-0.000100
H323	H	-0.434072	-0.114346	0.333234
H324	H	-0.100738	0.218987	0.666567
O325	O	-1.212453	-0.579799	-0.000121
O326	O	-0.879120	-0.246465	0.333213
O327	O	-0.545786	0.086868	0.666546
H328	H	-1.215679	-0.603036	-0.062276
H329	H	-0.882346	-0.269702	0.271058
H330	H	-0.549013	0.063631	0.604391
O331	O	-1.099661	-0.002327	0.400167
O332	O	-0.766328	0.331007	0.733500
O333	O	-0.432995	0.664340	1.066833
H334	H	-1.139261	-0.025180	0.449664
H335	H	-0.805927	0.308154	0.782997
H336	H	-0.472594	0.641487	1.116330
O337	O	-1.099683	-0.002318	0.599672
O338	O	-0.766349	0.331015	0.933005
O339	O	-0.433016	0.664349	1.266338
H340	H	-1.139293	-0.025162	0.550174
H341	H	-0.805960	0.308171	0.883508
H342	H	-0.472627	0.641505	1.216841
