data_functionalizedCrystal
_audit_creation_method	'MofGen! by Chris Wilmer'
_symmetry_space_group_name_H-M	'P1'
_symmetry_Int_Tables_number	1
_symmetry_cell_setting	triclinic
loop_
_symmetry_equiv_pos_as_xyz
  x,y,z
_cell_length_a	12.759395
_cell_length_b	29.839131
_cell_length_c	12.759380
_cell_angle_alpha	89.923482
_cell_angle_beta	89.957200
_cell_angle_gamma	90.036766
loop_
_atom_site_label
_atom_site_type_symbol
_atom_site_fract_x
_atom_site_fract_y
_atom_site_fract_z
Zn1	Zn	1.606350	-0.178671	-0.593903
Zn2	Zn	1.606109	-0.253850	-0.418180
Zn3	Zn	1.430580	-0.178737	-0.418239
Zn4	Zn	1.430578	-0.253777	-0.593819
O5	O	1.518404	-0.216259	-0.506035
O6	O	1.753339	-0.188647	-0.570603
O7	O	1.582725	-0.243945	-0.271166
O8	O	1.453998	-0.115861	-0.441602
O9	O	1.753162	-0.243881	-0.441500
O10	O	1.583135	-0.115813	-0.570661
O11	O	1.453764	-0.188759	-0.271210
O12	O	1.283558	-0.188688	-0.441520
O13	O	1.453994	-0.243756	-0.740852
O14	O	1.283557	-0.243820	-0.570518
O15	O	1.583133	-0.188576	-0.740913
O16	O	1.582723	-0.316708	-0.441419
O17	O	1.453761	-0.316654	-0.570460
C18	C	1.245437	-0.216253	-0.506017
C19	C	1.128660	-0.216262	-0.506034
C20	C	1.128697	-0.273763	-0.640142
C21	C	1.073854	-0.302517	-0.707199
C22	C	0.964133	-0.302523	-0.707212
C23	C	0.909251	-0.273770	-0.640163
C24	C	0.964093	-0.245016	-0.573106
C25	C	1.073818	-0.245014	-0.573098
C26	C	0.964057	-0.187513	-0.439005
C27	C	1.073778	-0.187509	-0.438985
C28	C	0.909175	-0.158760	-0.371956
C29	C	0.964017	-0.130007	-0.304892
C30	C	1.073746	-0.130004	-0.304881
C31	C	1.128621	-0.158755	-0.371928
C32	C	1.518244	-0.332981	-0.505947
C33	C	1.518272	-0.382916	-0.505944
C34	C	1.585632	-0.692499	-0.573332
C35	C	1.585746	-0.880172	-0.573395
O36	O	1.642861	-0.904386	-0.630625
N37	N	1.518583	-0.903701	-0.506152
C38	C	1.451382	-0.880308	-0.438893
O39	O	1.394250	-0.904627	-0.381707
C40	C	1.451263	-0.692636	-0.438836
C41	C	1.518438	-0.669110	-0.506076
C42	C	1.652800	-0.668973	-0.640568
C43	C	1.652775	-0.622057	-0.640547
C44	C	1.585581	-0.598668	-0.573291
C45	C	1.518413	-0.622194	-0.506056
C46	C	1.384057	-0.669245	-0.371583
C47	C	1.384032	-0.622324	-0.371576
C48	C	1.451207	-0.598797	-0.438817
C49	C	1.451194	-0.551890	-0.438779
N50	N	1.518357	-0.528361	-0.506022
C51	C	1.585551	-0.551750	-0.573278
C52	C	1.451450	-0.978839	-0.438926
C53	C	1.451481	-1.025757	-0.438939
C54	C	1.585844	-1.025617	-0.573443
C55	C	1.585818	-0.978699	-0.573424
C56	C	1.518613	-0.955310	-0.506169
C57	C	1.585493	-0.453224	-0.573230
C58	C	1.585465	-0.406305	-0.573200
C59	C	1.451099	-0.406449	-0.438700
C60	C	1.451130	-0.453364	-0.438726
C61	C	1.518331	-0.476751	-0.505999
O62	O	1.394101	-0.527647	-0.381587
O63	O	1.642657	-0.527423	-0.630472
C64	C	1.585657	-0.739414	-0.573353
C65	C	1.518488	-0.762941	-0.506117
C66	C	1.451294	-0.739552	-0.438861
C67	C	1.518519	-0.809859	-0.506130
C68	C	1.585713	-0.833248	-0.573386
C69	C	1.652876	-0.809719	-0.640629
C70	C	1.652850	-0.762804	-0.640609
C71	C	1.384132	-0.763081	-0.371618
C72	C	1.384163	-0.809996	-0.371643
C73	C	1.451357	-0.833385	-0.438899
C74	C	1.792438	-0.216265	-0.506054
C75	C	1.909214	-0.216267	-0.506062
C76	C	1.518590	-0.216150	-0.780069
C77	C	1.518670	-0.216104	-0.896846
C78	C	1.518594	-0.099080	-0.506147
C79	C	1.518675	-0.049146	-0.506195
C80	C	1.518279	-0.216335	-0.233067
C81	C	1.518404	-0.216254	-0.116291
C82	C	1.652155	-0.158225	0.102493
C83	C	1.718836	-0.129326	0.047302
C84	C	1.718710	-0.129401	-0.062419
C85	C	1.651892	-0.158379	-0.116952
C86	C	1.585211	-0.187279	-0.061761
C87	C	1.585347	-0.187201	0.047963
C88	C	1.451722	-0.245154	-0.061100
C89	C	1.451853	-0.245082	0.048621
C90	C	1.384905	-0.274132	-0.115633
C91	C	1.318228	-0.303035	-0.060442
C92	C	1.318358	-0.302958	0.049286
C93	C	1.385171	-0.273981	0.103812
H94	H	0.919480	-0.325935	-0.761821
H95	H	1.384803	-0.274190	-0.204974
C96	C	1.792337	-0.097453	0.107288
C97	C	1.792490	-0.097369	0.227977
C98	C	1.865991	-0.065497	0.287959
C99	C	1.939339	-0.033708	0.227251
C100	C	1.939189	-0.033791	0.106555
C101	C	1.865688	-0.065664	0.046573
H102	H	1.738191	-0.120902	0.272923
H103	H	1.866102	-0.065435	0.377307
H104	H	1.993748	-0.010114	0.271653
H105	H	1.993488	-0.010259	0.061609
H106	H	1.865577	-0.065725	-0.042775
H107	H	0.919324	-0.106597	-0.250311
H108	H	0.819910	-0.273773	-0.640188
C109	C	1.792058	-0.097613	-0.123137
C110	C	1.911567	-0.100899	-0.108266
C111	C	1.984915	-0.069111	-0.168985
C112	C	1.938754	-0.034037	-0.244575
C113	C	1.819240	-0.030749	-0.259450
C114	C	1.745891	-0.062537	-0.198731
H115	H	1.945743	-0.126864	-0.052307
H116	H	2.073388	-0.071544	-0.157973
H117	H	1.993051	-0.010505	-0.289523
H118	H	1.785063	-0.004784	-0.315409
H119	H	1.657418	-0.060104	-0.209743
H120	H	1.329357	-0.688392	-0.316828
C121	C	1.134070	-0.098372	-0.231118
C122	C	1.119055	-0.047304	-0.239944
C123	C	1.179375	-0.015672	-0.166180
C124	C	1.254709	-0.035108	-0.083590
C125	C	1.269727	-0.086179	-0.074760
C126	C	1.209408	-0.117811	-0.148524
H127	H	1.063285	-0.032914	-0.301086
H128	H	1.168257	0.022134	-0.172717
H129	H	1.299362	-0.011692	-0.028985
H130	H	1.325497	-0.100569	-0.013619
H131	H	1.220525	-0.155617	-0.141987
H132	H	1.707471	-0.602905	-0.695303
C133	C	1.310107	-0.596597	-0.297590
C134	C	1.318696	-0.603123	-0.178164
C135	C	1.244775	-0.577397	-0.104178
C136	C	1.162264	-0.545145	-0.149617
C137	C	1.153671	-0.538617	-0.269049
C138	C	1.227592	-0.564343	-0.343036
H139	H	1.379779	-0.626999	-0.144522
H140	H	1.251136	-0.582229	-0.015766
H141	H	1.107543	-0.526101	-0.094848
H142	H	1.092588	-0.514741	-0.302692
H143	H	1.221231	-0.559511	-0.431448
H144	H	1.217962	-0.158756	-0.371923
C145	C	1.377180	-0.380715	-0.364730
C146	C	1.377148	-0.329107	-0.364728
C147	C	1.303219	-0.303372	-0.290766
C148	C	1.229321	-0.329245	-0.216806
C149	C	1.229350	-0.380856	-0.216806
C150	C	1.303279	-0.406591	-0.290767
H151	H	1.431855	-0.309952	-0.419480
H152	H	1.303199	-0.265166	-0.290767
H153	H	1.174595	-0.310194	-0.162056
H154	H	1.174643	-0.400011	-0.162054
H155	H	1.303299	-0.444796	-0.290766
C156	C	1.659419	-0.478946	-0.647224
C157	C	1.778850	-0.472450	-0.638740
C158	C	1.852780	-0.498171	-0.712727
C159	C	1.807279	-0.530388	-0.795197
C160	C	1.687842	-0.536886	-0.803684
C161	C	1.613912	-0.511164	-0.729697
H162	H	1.812538	-0.448599	-0.577688
H163	H	1.941196	-0.493361	-0.706444
H164	H	1.862007	-0.549428	-0.849967
H165	H	1.654154	-0.560736	-0.864737
H166	H	1.525496	-0.515975	-0.735980
H167	H	1.707550	-0.743652	-0.695362
H168	H	1.651787	-0.158434	-0.206293
H169	H	1.396439	-0.472520	-0.383965
C170	C	1.134225	-0.334144	-0.780951
C171	C	1.254915	-0.334142	-0.780943
C172	C	1.315280	-0.365768	-0.854698
C173	C	1.254955	-0.397395	-0.928461
C174	C	1.134259	-0.397398	-0.928472
C175	C	1.073893	-0.365773	-0.854717
H176	H	1.299576	-0.310729	-0.726337
H177	H	1.404628	-0.365765	-0.854690
H178	H	1.299642	-0.420806	-0.983059
H179	H	1.089597	-0.420811	-0.983078
H180	H	0.984545	-0.365775	-0.854725
H181	H	1.640171	-0.387151	-0.627955
H182	H	1.263825	-0.326624	-0.104851
C183	C	1.726727	-0.694695	-0.714553
C184	C	1.846156	-0.688192	-0.706067
C185	C	1.920096	-0.713910	-0.780051
C186	C	1.874607	-0.746130	-0.862522
C187	C	1.755171	-0.752634	-0.871011
C188	C	1.681231	-0.726916	-0.797027
H189	H	1.879835	-0.664339	-0.645015
H190	H	2.008510	-0.709095	-0.773766
H191	H	1.929341	-0.765168	-0.917289
H192	H	1.721492	-0.776487	-0.932064
H193	H	1.592817	-0.731731	-0.803312
C194	C	1.659704	-0.952822	-0.647395
C195	C	1.779144	-0.959233	-0.638929
C196	C	1.853032	-0.933359	-0.712905
C197	C	1.807479	-0.901073	-0.795347
C198	C	1.688032	-0.894660	-0.803817
C199	C	1.614145	-0.920534	-0.729841
H200	H	1.812871	-0.983135	-0.577897
H201	H	1.941455	-0.938107	-0.706634
H202	H	1.862175	-0.881920	-0.850108
H203	H	1.654306	-0.870758	-0.864848
H204	H	1.525722	-0.915786	-0.736111
C205	C	1.377526	-0.953117	-0.364930
C206	C	1.386134	-0.959647	-0.245506
C207	C	1.312214	-0.933928	-0.171505
C208	C	1.229685	-0.901680	-0.216927
C209	C	1.221074	-0.895149	-0.336356
C210	C	1.294994	-0.920867	-0.410358
H211	H	1.447229	-0.983520	-0.211877
H212	H	1.318589	-0.938763	-0.083095
H213	H	1.174965	-0.882641	-0.162146
H214	H	1.159979	-0.871275	-0.369986
H215	H	1.288619	-0.916032	-0.498768
H216	H	0.819834	-0.158765	-0.371976
H217	H	1.652274	-0.158165	0.191834
H218	H	1.640557	-1.044669	-0.628204
H219	H	1.218038	-0.273765	-0.640131
C220	C	1.310218	-0.737358	-0.297623
C221	C	1.318826	-0.743891	-0.178200
C222	C	1.244912	-0.718172	-0.104194
C223	C	1.162389	-0.685919	-0.149610
C224	C	1.153778	-0.679385	-0.269039
C225	C	1.227692	-0.705104	-0.343045
H226	H	1.379917	-0.767768	-0.144575
H227	H	1.251288	-0.723009	-0.015785
H228	H	1.107674	-0.666880	-0.094826
H229	H	1.092686	-0.655508	-0.302664
H230	H	1.221316	-0.700267	-0.431454
H231	H	1.396792	-1.044908	-0.384174
H232	H	1.707591	-0.828771	-0.695388
H233	H	1.329463	-0.829147	-0.316878
H234	H	1.264046	-0.326487	0.094216
H235	H	1.385288	-0.273918	0.193153
