data_functionalizedCrystal
_audit_creation_method	'MofGen! by Chris Wilmer'
_symmetry_space_group_name_H-M	'P1'
_symmetry_Int_Tables_number	1
_symmetry_cell_setting	triclinic
loop_
_symmetry_equiv_pos_as_xyz
  x,y,z
_cell_length_a	15.072220
_cell_length_b	14.971486
_cell_length_c	14.971487
_cell_angle_alpha	83.614266
_cell_angle_beta	89.999616
_cell_angle_gamma	89.992455
loop_
_atom_site_label
_atom_site_type_symbol
_atom_site_fract_x
_atom_site_fract_y
_atom_site_fract_z
O1	O	0.073679	-1.186956	-0.116557
O2	O	0.573679	-0.686956	0.383443
O3	O	0.073703	-0.926556	-0.130516
O4	O	0.573703	-0.426556	0.369484
O5	O	0.073686	-1.063735	0.006664
O6	O	0.573686	-0.563735	0.506664
O7	O	0.073696	-1.049777	-0.253736
O8	O	0.573696	-0.549777	0.246264
O9	O	-0.073879	-1.063701	0.006656
O10	O	0.426121	-0.563701	0.506656
O11	O	-0.073862	-0.926522	-0.130523
O12	O	0.426138	-0.426522	0.369477
O13	O	-0.073886	-1.186922	-0.116564
O14	O	0.426114	-0.686922	0.383436
Zn15	Zn	-0.097303	-1.056717	-0.123545
Zn16	Zn	0.402697	-0.556717	0.376455
Zn17	Zn	0.097120	-1.056761	-0.123535
Zn18	Zn	0.597120	-0.556761	0.376465
O19	O	-0.073869	-1.049743	-0.253744
O20	O	0.426131	-0.549743	0.246256
C21	C	-0.000077	-0.893214	-0.129895
C22	C	0.499923	-0.393214	0.370105
C23	C	-0.000067	-0.793917	-0.128024
C24	C	0.499933	-0.293917	0.371976
N25	N	-0.229992	-1.056693	-0.123551
N26	N	0.270008	-0.556693	0.376449
C27	C	-0.000096	-1.063094	0.039985
C28	C	0.499904	-0.563094	0.539985
C29	C	-0.000093	-1.061223	0.139282
C30	C	0.499907	-0.561223	0.639282
C31	C	-0.589194	-1.056759	-0.123531
C32	C	-0.089194	-0.556759	0.376469
C33	C	-0.551578	-0.983111	-0.196687
C34	C	-0.051578	-0.483111	0.303313
C35	C	-0.448752	-0.983280	-0.196954
C36	C	0.051248	-0.483280	0.303046
C37	C	-0.410990	-1.056726	-0.123541
C38	C	0.089010	-0.556726	0.376459
C39	C	-0.448289	-1.150076	-0.144025
C40	C	0.051711	-0.650076	0.355975
C41	C	-0.551146	-1.149663	-0.144545
C42	C	-0.051146	-0.649663	0.355455
C43	C	-0.551295	-1.037890	-0.029676
C44	C	-0.051295	-0.537890	0.470324
C45	C	-0.448432	-1.035749	-0.030300
C46	C	0.051568	-0.535749	0.469700
C47	C	-0.310276	-1.056712	-0.123545
C48	C	0.189724	-0.556712	0.376455
C49	C	-0.689907	-1.056779	-0.123530
C50	C	-0.189907	-0.556779	0.376470
N51	N	0.229809	-1.056792	-0.123522
N52	N	0.729809	-0.556792	0.376478
C53	C	-0.000105	-1.220264	-0.117185
C54	C	0.499895	-0.720264	0.382815
C55	C	-0.000108	-1.319561	-0.119055
C56	C	0.499892	-0.819561	0.380945
C57	C	-0.000066	-0.736692	-0.208614
C58	C	0.499934	-0.236692	0.291386
C59	C	-0.000079	-0.643393	-0.206850
C60	C	0.499921	-0.143393	0.293150
C61	C	-0.000088	-0.607320	-0.124497
C62	C	0.499912	-0.107320	0.375503
C63	C	-0.000092	-0.664552	-0.043902
C64	C	0.499908	-0.164552	0.456098
C65	C	-0.000085	-0.757850	-0.045666
C66	C	0.499915	-0.257850	0.454334
C67	C	-0.000104	-0.470090	-0.040231
C68	C	0.499896	0.029910	0.459769
C69	C	-0.000110	-0.376786	-0.038466
C70	C	0.499890	0.123214	0.461534
C71	C	-0.000098	-0.355632	-0.201415
C72	C	0.499902	0.144368	0.298585
C73	C	-0.000091	-0.448930	-0.203179
C74	C	0.499909	0.051070	0.296821
C75	C	-0.000094	-0.506156	-0.122584
C76	C	0.499906	-0.006156	0.377416
C77	C	-0.000100	-1.141812	0.196507
C78	C	0.499900	-0.641812	0.696507
C79	C	-0.000090	-1.140049	0.289807
C80	C	0.499910	-0.640049	0.789807
C81	C	-0.000078	-1.057695	0.325879
C82	C	0.499922	-0.557695	0.825879
C83	C	-0.000068	-0.977100	0.268646
C84	C	0.499932	-0.477100	0.768646
C85	C	-0.000072	-0.978864	0.175349
C86	C	0.499928	-0.478864	0.675349
C87	C	-0.000061	-0.973428	0.463109
C88	C	0.499939	-0.473428	0.963109
C89	C	-0.000059	-0.971664	0.556413
C90	C	0.499941	-0.471664	1.056413
C91	C	-0.000078	-1.134613	0.577567
C92	C	0.499922	-0.634613	1.077567
C93	C	-0.000083	-1.136377	0.484269
C94	C	0.499917	-0.636377	0.984269
C95	C	-0.000075	-1.055781	0.427043
C96	C	0.499925	-0.555781	0.927043
C97	C	-0.000082	-1.050384	0.712935
C98	C	0.499918	-0.550384	1.212935
C99	C	-0.000066	-1.052253	0.613638
C100	C	0.499934	-0.552253	1.113638
H101	H	-0.423535	-0.913894	-0.184735
H102	H	0.076465	-0.413894	0.315265
Br103	Br	-0.000047	-0.864047	0.385445
Br104	Br	0.499953	-0.364047	0.885445
H105	H	-0.424054	-0.967079	-0.014757
H106	H	0.075946	-0.467079	0.485243
Br107	Br	-0.594620	-1.002942	-0.312121
Br108	Br	-0.094620	-0.502942	0.187879
H109	H	-0.000082	-1.200237	0.624165
H110	H	0.499918	-0.700237	1.124165
Br111	Br	-0.405339	-1.178428	-0.256815
Br112	Br	0.094661	-0.678428	0.243185
H113	H	-0.576333	-0.913501	-0.184667
H114	H	-0.076333	-0.413501	0.315333
Br115	Br	-0.000129	-1.253583	0.147562
Br116	Br	0.499871	-0.753583	0.647562
H117	H	-0.424137	-0.995340	-0.266601
H118	H	0.075863	-0.495340	0.233399
H119	H	-0.000100	-0.309034	-0.267039
H120	H	0.499900	0.190966	0.232961
H121	H	-0.575127	-1.166276	-0.212996
H122	H	-0.075127	-0.666276	0.287004
H123	H	-0.000053	-0.910046	0.298024
H124	H	0.499947	-0.410046	0.798024
H125	H	-0.000097	-1.205672	0.336396
H126	H	0.499903	-0.705672	0.836396
H127	H	-0.000077	-0.596803	-0.272474
H128	H	0.499923	-0.096803	0.227526
Br129	Br	-0.000045	-0.785638	-0.320385
Br130	Br	0.499955	-0.285638	0.179615
Br131	Br	-0.405607	-1.119344	0.064703
Br132	Br	0.094393	-0.619344	0.564703
Br133	Br	-0.000066	-0.497886	-0.314946
Br134	Br	0.499934	0.002114	0.185054
Br135	Br	-0.000096	-1.248143	0.435314
Br136	Br	0.499904	-0.748143	0.935314
H137	H	-0.000086	-0.804443	0.019958
H138	H	0.499914	-0.304443	0.519958
Br139	Br	-0.591836	-1.127405	0.061063
Br140	Br	-0.091836	-0.627405	0.561063
Br141	Br	-0.000151	-0.327830	0.073300
Br142	Br	0.499849	0.172170	0.573300
Br143	Br	-0.000047	-0.859897	0.605368
Br144	Br	0.499953	-0.359897	1.105368
H145	H	-0.576028	-1.206184	-0.093369
H146	H	-0.076028	-0.706184	0.406631
H147	H	-0.000108	-0.516682	0.025399
H148	H	0.499892	-0.016682	0.525399
Br149	Br	-0.000113	-0.615598	0.067865
Br150	Br	0.499887	-0.115598	0.567865
H151	H	-0.423826	-1.206194	-0.092164
H152	H	0.076174	-0.706194	0.407836
H153	H	-0.000066	-0.913240	0.128756
H154	H	0.499934	-0.413240	0.628756
H155	H	-0.577280	-0.971292	-0.010004
H156	H	-0.077280	-0.471292	0.489996
