data_functionalizedCrystal
_audit_creation_method	'MofGen! by Chris Wilmer'
_symmetry_space_group_name_H-M	'P1'
_symmetry_Int_Tables_number	1
_symmetry_cell_setting	triclinic
loop_
_symmetry_equiv_pos_as_xyz
  x,y,z
_cell_length_a	19.077105
_cell_length_b	12.827892
_cell_length_c	19.076919
_cell_angle_alpha	92.275535
_cell_angle_beta	90.076224
_cell_angle_gamma	87.711903
loop_
_atom_site_label
_atom_site_type_symbol
_atom_site_fract_x
_atom_site_fract_y
_atom_site_fract_z
Zn1	Zn	1.058323	-0.505562	-0.440440
Zn2	Zn	1.558323	-0.005562	0.059560
Zn3	Zn	1.062981	-0.673587	-0.322941
Zn4	Zn	1.562981	-0.173587	0.177059
Zn5	Zn	0.945540	-0.491563	-0.318233
Zn6	Zn	1.445540	0.008437	0.181767
Zn7	Zn	0.940802	-0.672957	-0.435693
Zn8	Zn	1.440802	-0.172957	0.064307
O9	O	1.001912	-0.585917	-0.379327
O10	O	1.501912	-0.085917	0.120673
O11	O	1.157274	-0.533973	-0.428810
O12	O	1.657274	-0.033973	0.071190
O13	O	1.051334	-0.643846	-0.223985
O14	O	1.551334	-0.143846	0.276015
O15	O	0.960534	-0.347187	-0.334460
O16	O	1.460534	0.152813	0.165540
O17	O	1.160695	-0.657421	-0.342484
O18	O	1.660695	-0.157421	0.157516
O19	O	1.043396	-0.357472	-0.424245
O20	O	1.543396	0.142528	0.075755
O21	O	0.965050	-0.510114	-0.220526
O22	O	1.465050	-0.010114	0.279474
O23	O	0.846579	-0.509503	-0.329857
O24	O	1.346579	-0.009503	0.170143
O25	O	0.952460	-0.656347	-0.534655
O26	O	1.452460	-0.156347	-0.034655
O27	O	0.843098	-0.642772	-0.416155
O28	O	1.343098	-0.142772	0.083845
O29	O	1.038802	-0.533362	-0.538142
O30	O	1.538802	-0.033362	-0.038142
O31	O	1.046740	-0.819737	-0.337881
O32	O	1.546740	-0.319737	0.162119
O33	O	0.956976	-0.819274	-0.420720
O34	O	1.456976	-0.319274	0.079280
C35	C	0.819342	-0.574551	-0.371981
C36	C	1.319342	-0.074551	0.128019
C37	C	0.741237	-0.569714	-0.368855
C38	C	1.241237	-0.069714	0.131145
C39	C	0.702753	-0.636925	-0.412246
C40	C	1.202753	-0.136925	0.087754
C41	C	0.629365	-0.632367	-0.409312
C42	C	1.129365	-0.132367	0.090688
C43	C	0.594463	-0.560602	-0.362983
C44	C	1.094463	-0.060602	0.137017
C45	C	0.632953	-0.493385	-0.319590
C46	C	1.132953	0.006615	0.180410
C47	C	0.706339	-0.497938	-0.322528
C48	C	1.206339	0.002062	0.177472
C49	C	0.375174	-0.539528	-0.349389
C50	C	0.875174	-0.039528	0.150611
C51	C	0.301782	-0.534981	-0.346453
C52	C	0.801782	-0.034981	0.153547
C53	C	0.298199	-0.673963	-0.436177
C54	C	0.798199	-0.173963	0.063823
C55	C	0.371587	-0.678514	-0.439108
C56	C	0.871587	-0.178514	0.060892
C57	C	0.410071	-0.611293	-0.395717
C58	C	0.910071	-0.111293	0.104283
N59	N	0.519449	-0.555944	-0.359982
N60	N	1.019449	-0.055944	0.140018
N61	N	0.485083	-0.615947	-0.398723
N62	N	0.985083	-0.115947	0.101277
C63	C	1.001868	-0.857424	-0.379313
C64	C	1.501868	-0.357424	0.120687
C65	C	1.001913	-0.973581	-0.379333
C66	C	1.501913	-0.473581	0.120667
C67	C	1.046380	-1.025566	-0.338391
C68	C	1.546380	-0.525566	0.161609
C69	C	1.046427	-1.145620	-0.338411
C70	C	1.546427	-0.645620	0.161589
C71	C	1.185194	-0.597329	-0.386702
C72	C	1.685194	-0.097329	0.113298
C73	C	1.263298	-0.602192	-0.389845
C74	C	1.763298	-0.102192	0.110155
C75	C	0.994583	-0.596346	-0.562607
C76	C	1.494583	-0.096346	-0.062607
C77	C	0.991460	-0.600790	-0.640711
C78	C	1.491460	-0.100790	-0.140711
C79	C	1.001974	-0.313353	-0.379357
C80	C	1.501974	0.186647	0.120643
C81	C	1.002000	-0.197202	-0.379370
C82	C	1.502000	0.302798	0.120630
C83	C	1.034945	-0.538849	-0.679221
C84	C	1.534945	-0.038849	-0.179221
C85	C	1.032002	-0.543020	-0.752607
C86	C	1.532002	-0.043020	-0.252607
C87	C	0.985578	-0.609138	-0.787481
C88	C	1.485578	-0.109138	-0.287481
C89	C	0.942089	-0.671081	-0.748966
C90	C	1.442089	-0.171081	-0.248966
C91	C	0.945028	-0.666904	-0.675581
C92	C	1.445028	-0.166904	-0.175581
C93	C	0.971962	-0.628492	-1.006763
C94	C	1.471962	-0.128492	-0.506763
C95	C	0.969027	-0.632667	-1.080153
C96	C	1.469027	-0.132667	-0.580153
C97	C	1.058939	-0.504604	-1.083789
C98	C	1.558939	-0.004604	-0.583789
C99	C	1.061878	-0.500438	-1.010402
C100	C	1.561878	-0.000438	-0.510402
C101	C	1.018386	-0.562376	-0.971894
C102	C	1.518386	-0.062376	-0.471894
N103	N	0.982570	-0.613406	-0.862494
N104	N	1.482570	-0.113406	-0.362494
N105	N	1.021391	-0.558103	-0.896882
N106	N	1.521391	-0.058103	-0.396882
C107	C	1.009252	-0.575456	-0.196761
C108	C	1.509252	-0.075456	0.303239
C109	C	1.012511	-0.570727	-0.118663
C110	C	1.512511	-0.070727	0.381337
H111	H	0.731165	-0.695367	-0.449970
H112	H	1.231165	-0.195367	0.050030
H113	H	0.931220	-0.686511	-1.108546
H114	H	1.431220	-0.186511	-0.608546
N115	N	1.096850	-1.204834	-0.291974
N116	N	1.596850	-0.704834	0.208026
H117	H	1.128237	-1.253715	-0.321899
H118	H	1.628237	-0.753715	0.178101
H119	H	1.126445	-1.153847	-0.264643
H120	H	1.626445	-0.653847	0.235357
H121	H	0.963881	-1.017954	-0.414402
H122	H	1.463881	-0.517954	0.085598
H123	H	0.963926	-1.152504	-0.414421
H124	H	1.463926	-0.652504	0.085579
H125	H	0.273368	-0.476530	-0.308731
H126	H	0.773368	0.023470	0.191269
H127	H	1.072750	-0.485012	-0.650831
H128	H	1.572750	0.014988	-0.150831
H129	H	0.936558	-0.678943	-0.975419
H130	H	1.436558	-0.178943	-0.475419
N131	N	0.587856	-0.704872	-0.456103
N132	N	1.087856	-0.204872	0.043897
H133	H	0.621102	-0.751035	-0.485890
H134	H	1.121102	-0.251035	0.014110
H135	H	0.558546	-0.749636	-0.426212
H136	H	1.058546	-0.249636	0.073788
N137	N	0.892000	-0.742371	-0.786577
N138	N	1.392000	-0.242371	-0.286577
H139	H	0.896733	-0.735616	-0.838909
H140	H	1.396733	-0.235616	-0.338909
H141	H	0.903420	-0.816960	-0.774186
H142	H	1.403420	-0.316960	-0.274186
N143	N	1.078898	-0.476191	-0.794131
N144	N	1.578898	0.023809	-0.294131
H145	H	1.129614	-0.494816	-0.783384
H146	H	1.629614	0.005184	-0.283384
H147	H	1.069935	-0.488877	-0.845898
H148	H	1.569935	0.011123	-0.345898
N149	N	0.747844	-0.425445	-0.275722
N150	N	1.247844	0.074555	0.224278
H151	H	0.779585	-0.467867	-0.244328
H152	H	1.279585	0.032133	0.255672
H153	H	0.777117	-0.380614	-0.305602
H154	H	1.277117	0.119386	0.194398
H155	H	1.099683	-0.446600	-0.982013
H156	H	1.599683	0.053400	-0.482013
N157	N	0.409230	-0.755923	-0.489073
N158	N	0.909230	-0.255923	0.010927
H159	H	0.373714	-0.797811	-0.516117
H160	H	0.873714	-0.297811	-0.016117
H161	H	0.438392	-0.717208	-0.522860
H162	H	0.938392	-0.217208	-0.022860
N163	N	1.105844	-0.437800	-1.125322
N164	N	1.605844	0.062200	-0.625322
H165	H	1.096939	-0.450475	-1.177103
H166	H	1.596939	0.049525	-0.677103
H167	H	1.095437	-0.361758	-1.112062
H168	H	1.595437	0.138242	-0.612062
H169	H	0.909612	-0.717331	-0.644227
H170	H	1.409612	-0.217331	-0.144227
H171	H	0.604530	-0.434948	-0.281871
H172	H	1.104530	0.065052	0.218129
N173	N	0.256694	-0.746462	-0.482975
N174	N	0.756694	-0.246462	0.017025
H175	H	0.204908	-0.732691	-0.474086
H176	H	0.704908	-0.232691	0.025914
H177	H	0.267527	-0.733966	-0.533692
H178	H	0.767527	-0.233966	-0.033692
H179	H	0.406498	-0.484799	-0.314053
H180	H	0.906498	0.015201	0.185947
N181	N	1.096770	-0.966803	-0.291944
N182	N	1.596770	-0.466803	0.208056
H183	H	1.089595	-0.889370	-0.298515
H184	H	1.589595	-0.389370	0.201485
H185	H	1.087902	-0.982333	-0.241303
H186	H	1.587902	-0.482333	0.258697
