data_functionalizedCrystal
_audit_creation_method	'MofGen! by Chris Wilmer'
_symmetry_space_group_name_H-M	'P1'
_symmetry_Int_Tables_number	1
_symmetry_cell_setting	triclinic
loop_
_symmetry_equiv_pos_as_xyz
  x,y,z
_cell_length_a	14.971482
_cell_length_b	15.995292
_cell_length_c	14.048226
_cell_angle_alpha	89.996759
_cell_angle_beta	89.994098
_cell_angle_gamma	83.540612
loop_
_atom_site_label
_atom_site_type_symbol
_atom_site_fract_x
_atom_site_fract_y
_atom_site_fract_z
O1	O	1.186800	0.109104	-0.079141
O2	O	1.686800	0.609104	0.420859
O3	O	0.926382	0.122175	-0.079145
O4	O	1.426382	0.622175	0.420855
O5	O	1.063737	-0.006244	-0.079145
O6	O	1.563737	0.493756	0.420855
O7	O	1.049445	0.237524	-0.079142
O8	O	1.549445	0.737524	0.420858
O9	O	1.063720	-0.006252	0.079177
O10	O	1.563720	0.493748	0.579177
O11	O	0.926365	0.122167	0.079176
O12	O	1.426365	0.622167	0.579176
O13	O	1.186784	0.109097	0.079180
O14	O	1.686784	0.609097	0.579180
Zn15	Zn	1.056572	0.115631	0.104315
Zn16	Zn	1.556572	0.615631	0.604315
Zn17	Zn	1.056594	0.115641	-0.104280
Zn18	Zn	1.556594	0.615641	0.395720
O19	O	1.049429	0.237516	0.079179
O20	O	1.549429	0.737516	0.579179
C21	C	0.893049	0.121587	0.000015
C22	C	1.393049	0.621587	0.500015
C23	C	0.793755	0.119837	0.000013
C24	C	1.293755	0.619837	0.500013
C25	C	0.747102	0.119009	0.086315
C26	C	1.247102	0.619009	0.586315
C27	C	0.653806	0.117351	0.086316
C28	C	1.153806	0.617351	0.586316
C29	C	0.607163	0.116528	0.000014
C30	C	1.107163	0.616528	0.500014
C31	C	0.653822	0.117354	-0.086294
C32	C	1.153822	0.617354	0.413706
C33	C	0.747118	0.119005	-0.086294
C34	C	1.247118	0.619005	0.413706
C35	C	0.459365	0.113913	-0.086288
C36	C	0.959365	0.613913	0.413712
C37	C	0.366063	0.112263	-0.086289
C38	C	0.866063	0.612263	0.413711
C39	C	0.366053	0.112259	0.086322
C40	C	0.866053	0.612259	0.586322
C41	C	0.459349	0.113911	0.086322
C42	C	0.959349	0.613911	0.586322
C43	C	0.506001	0.114738	0.000013
C44	C	1.006001	0.614738	0.500013
C45	C	1.063147	-0.037444	0.000014
C46	C	1.563147	0.462556	0.500014
C47	C	1.061403	-0.130399	0.000006
C48	C	1.561403	0.369601	0.500006
C49	C	1.054992	-0.468144	0.000015
C50	C	1.554992	0.031856	0.500015
C51	C	1.154131	-0.444733	0.000370
C52	C	1.654131	0.055267	0.500370
C53	C	1.156016	-0.348056	0.000010
C54	C	1.656016	0.151944	0.500010
C55	C	1.058173	-0.300585	0.000011
C56	C	1.558173	0.199415	0.500011
C57	C	1.008618	-0.329730	-0.090396
C58	C	1.508618	0.170270	0.409604
C59	C	1.007424	-0.426522	-0.090468
C60	C	1.507424	0.073478	0.409532
C61	C	1.005381	-0.426390	0.089573
C62	C	1.505381	0.073610	0.589573
C63	C	1.009055	-0.329894	0.090764
C64	C	1.509055	0.170106	0.590764
C65	C	1.059966	-0.205887	0.000006
C66	C	1.559966	0.294113	0.500006
C67	C	1.053197	-0.562841	0.000014
C68	C	1.553197	-0.062841	0.500014
C69	C	1.220116	0.109685	0.000018
C70	C	1.720116	0.609685	0.500018
C71	C	1.319411	0.111435	0.000013
C72	C	1.819411	0.611435	0.500013
C73	C	1.050018	0.268716	0.000019
C74	C	1.550018	0.768716	0.500019
C75	C	1.051762	0.361671	0.000020
C76	C	1.551762	0.861671	0.500020
N77	N	1.056563	0.115624	0.246676
N78	N	1.556563	0.615624	0.746676
N79	N	1.056609	0.115642	-0.246641
N80	N	1.556609	0.615642	0.253359
C81	C	1.117403	0.058783	0.296494
C82	C	1.617403	0.558783	0.796494
C83	C	1.117409	0.058783	0.396152
C84	C	1.617409	0.558783	0.896152
C85	C	1.056579	0.115627	0.445989
C86	C	1.556579	0.615627	0.945989
C87	C	0.995733	0.172470	0.396164
C88	C	1.495733	0.672470	0.896164
C89	C	0.995723	0.172466	0.296508
C90	C	1.495723	0.672466	0.796508
C91	C	0.995759	0.172477	0.603878
C92	C	1.495759	0.672477	1.103878
C93	C	0.995769	0.172482	0.703541
C94	C	1.495769	0.672482	1.203541
C95	C	1.117445	0.058793	0.703522
C96	C	1.617445	0.558793	1.203522
C97	C	1.117435	0.058789	0.603866
C98	C	1.617435	0.558789	1.103866
C99	C	1.056590	0.115633	0.554047
C100	C	1.556590	0.615633	1.054047
H101	H	0.785071	0.119686	0.156592
H102	H	1.285071	0.619686	0.656592
H103	H	1.036595	-0.454451	0.158101
H104	H	1.536595	0.045549	0.658101
H105	H	0.936619	-0.297934	-0.093756
H106	H	1.436619	0.202066	0.406244
H107	H	0.946209	0.218763	0.563319
H108	H	1.446209	0.718763	1.063319
H109	H	0.497347	0.114587	-0.156570
H110	H	0.997347	0.614587	0.343430
H111	H	0.497322	0.114586	0.156597
H112	H	0.997322	0.614586	0.656597
H113	H	1.194827	-0.328995	0.064816
H114	H	1.694827	0.171005	0.564816
H115	H	1.192337	-0.472696	0.065205
H116	H	1.692337	0.027304	0.565205
H117	H	0.615828	0.116663	0.156592
H118	H	1.115828	0.616663	0.656592
H119	H	1.043044	-0.309633	-0.157677
H120	H	1.543044	0.190367	0.342323
H121	H	1.041758	-0.453301	-0.158050
H122	H	1.541758	0.046699	0.341950
H123	H	0.328064	0.111585	0.156598
H124	H	0.828064	0.611585	0.656598
H125	H	0.946199	0.218752	0.436747
H126	H	1.446199	0.718752	0.936747
H127	H	0.328089	0.111593	-0.156563
H128	H	0.828089	0.611593	0.343437
H129	H	0.946234	0.218770	0.744114
H130	H	1.446234	0.718770	1.244114
H131	H	0.934735	-0.441144	-0.094563
H132	H	1.434735	0.058856	0.405437
H133	H	0.946180	0.218750	0.255947
H134	H	1.446180	0.718750	0.755947
H135	H	0.785101	0.119681	-0.156570
H136	H	1.285101	0.619681	0.343430
H137	H	0.615839	0.116677	-0.156563
H138	H	1.115839	0.616677	0.343437
H139	H	1.192139	-0.473710	-0.064100
H140	H	1.692139	0.026290	0.435900
H141	H	1.195069	-0.329610	-0.064909
H142	H	1.695069	0.170390	0.435091
H143	H	1.166972	0.012506	0.563288
H144	H	1.666972	0.512506	1.063288
H145	H	1.166949	0.012498	0.436713
H146	H	1.666949	0.512498	0.936713
H147	H	1.045139	-0.311296	0.157647
H148	H	1.545139	0.188704	0.657647
H149	H	0.937639	-0.296995	0.096225
H150	H	1.437639	0.203005	0.596225
H151	H	1.166987	0.012508	0.744090
H152	H	1.666987	0.512508	1.244090
H153	H	0.932407	-0.440452	0.090183
H154	H	1.432407	0.059548	0.590183
H155	H	1.166942	0.012497	0.255923
H156	H	1.666942	0.512497	0.755923
