data_functionalizedCrystal
_audit_creation_method	'MofGen! by Chris Wilmer'
_symmetry_space_group_name_H-M	'P1'
_symmetry_Int_Tables_number	1
_symmetry_cell_setting	triclinic
loop_
_symmetry_equiv_pos_as_xyz
  x,y,z
_cell_length_a	21.395362
_cell_length_b	25.639239
_cell_length_c	21.395356
_cell_angle_alpha	90.026438
_cell_angle_beta	90.035770
_cell_angle_gamma	90.054564
loop_
_atom_site_label
_atom_site_type_symbol
_atom_site_fract_x
_atom_site_fract_y
_atom_site_fract_z
Zn1	Zn	0.957774	-0.207953	0.354582
Zn2	Zn	1.457774	0.292047	0.854582
Zn3	Zn	0.957677	-0.295384	0.249803
Zn4	Zn	1.457677	0.204616	0.749803
Zn5	Zn	0.853004	-0.207988	0.249783
Zn6	Zn	1.353004	0.292012	0.749783
Zn7	Zn	0.852944	-0.295384	0.354508
Zn8	Zn	1.352944	0.204616	0.854508
O9	O	0.905350	-0.251677	0.302169
O10	O	1.405350	0.248323	0.802169
O11	O	1.045439	-0.219536	0.340722
O12	O	1.545439	0.280464	0.840722
O13	O	0.943777	-0.283805	0.162122
O14	O	1.443777	0.216195	0.662122
O15	O	0.866968	-0.134818	0.263708
O16	O	1.366968	0.365182	0.763708
O17	O	1.045368	-0.283771	0.263741
O18	O	1.545368	0.216229	0.763741
O19	O	0.943942	-0.134793	0.340703
O20	O	1.443942	0.365207	0.840703
O21	O	0.866874	-0.219596	0.162108
O22	O	1.366874	0.280404	0.662108
O23	O	0.765318	-0.219596	0.263636
O24	O	1.265318	0.280404	0.763636
O25	O	0.866865	-0.283771	0.442195
O26	O	1.366865	0.216229	0.942195
O27	O	0.765274	-0.283805	0.340576
O28	O	1.265274	0.216195	0.840576
O29	O	0.943884	-0.219536	0.442250
O30	O	1.443884	0.280464	0.942250
O31	O	0.943718	-0.368549	0.263669
O32	O	1.443718	0.131451	0.763669
O33	O	0.866771	-0.368549	0.340596
O34	O	1.366771	0.131451	0.840596
C35	C	0.742562	-0.251705	0.302096
C36	C	1.242562	0.248295	0.802096
C37	C	0.672921	-0.251729	0.302080
C38	C	1.172921	0.248271	0.802080
C39	C	0.640201	-0.285207	0.342083
C40	C	1.140201	0.214793	0.842083
C41	C	0.574766	-0.285194	0.342111
C42	C	1.074766	0.214806	0.842111
C43	C	0.542053	-0.251709	0.302125
C44	C	1.042053	0.248291	0.802125
C45	C	0.574780	-0.218225	0.262119
C46	C	1.074780	0.281775	0.762119
C47	C	0.640214	-0.218235	0.262097
C48	C	1.140214	0.281765	0.762097
C49	C	0.438337	-0.247503	0.245720
C50	C	0.938337	0.252497	0.745720
C51	C	0.372904	-0.247497	0.245741
C52	C	0.872904	0.252503	0.745741
C53	C	0.340232	-0.251675	0.302194
C54	C	0.840232	0.248325	0.802194
C55	C	0.373001	-0.255871	0.358627
C56	C	0.873001	0.244129	0.858627
C57	C	0.438435	-0.255881	0.358605
C58	C	0.938435	0.244119	0.858605
C59	C	0.471100	-0.251694	0.302145
C60	C	0.971100	0.248306	0.802145
C61	C	0.236560	-0.285141	0.342231
C62	C	0.736560	0.214859	0.842231
C63	C	0.171123	-0.285124	0.342259
C64	C	0.671123	0.214876	0.842259
C65	C	0.171139	-0.218157	0.262262
C66	C	0.671139	0.281843	0.762262
C67	C	0.236574	-0.218171	0.262238
C68	C	0.736574	0.281829	0.762238
C69	C	0.269281	-0.251666	0.302222
C70	C	0.769281	0.248334	0.802222
C71	C	0.905244	-0.387520	0.302140
C72	C	1.405244	0.112480	0.802140
C73	C	0.905257	-0.445634	0.302149
C74	C	1.405257	0.054366	0.802149
C75	C	0.945521	-0.805984	0.262182
C76	C	1.445521	-0.305984	0.762182
C77	C	0.945545	-0.860589	0.262190
C78	C	1.445545	-0.360589	0.762190
O79	O	0.979670	-0.888815	0.228177
O80	O	1.479670	-0.388815	0.728177
N81	N	0.905460	-0.887916	0.302211
N82	N	1.405460	-0.387916	0.802211
C83	C	0.865352	-0.860637	0.342230
C84	C	1.365352	-0.360637	0.842230
O85	O	0.831260	-0.888895	0.376271
O86	O	1.331260	-0.388895	0.876271
C87	C	0.865332	-0.806033	0.342224
C88	C	1.365332	-0.306033	0.842224
C89	C	0.905415	-0.778709	0.302196
C90	C	1.405415	-0.278709	0.802196
C91	C	0.985601	-0.778659	0.222158
C92	C	1.485601	-0.278659	0.722158
C93	C	0.985576	-0.724059	0.222149
C94	C	1.485576	-0.224059	0.722149
C95	C	0.945470	-0.696783	0.262164
C96	C	1.445470	-0.196783	0.762164
C97	C	0.905390	-0.724108	0.302187
C98	C	1.405390	-0.224108	0.802187
C99	C	0.825228	-0.778755	0.382246
C100	C	1.325228	-0.278755	0.882246
C101	C	0.825211	-0.724148	0.382237
C102	C	1.325211	-0.224148	0.882237
C103	C	0.865294	-0.696823	0.342209
C104	C	1.365294	-0.196823	0.842209
C105	C	0.865259	-0.642232	0.342193
C106	C	1.365259	-0.142232	0.842193
N107	N	0.905344	-0.614904	0.302173
N108	N	1.405344	-0.114904	0.802173
C109	C	0.945450	-0.642180	0.262158
C110	C	1.445450	-0.142180	0.762158
C111	C	0.865400	-0.975307	0.342239
C112	C	1.365400	-0.475307	0.842239
C113	C	0.865417	-1.029910	0.342242
C114	C	1.365417	-0.529910	0.842242
C115	C	0.945610	-1.029858	0.262204
C116	C	1.445610	-0.529858	0.762204
C117	C	0.945590	-0.975254	0.262198
C118	C	1.445590	-0.475254	0.762198
C119	C	0.905485	-0.947980	0.302219
C120	C	1.405485	-0.447980	0.802219
C121	C	0.945393	-0.527515	0.262142
C122	C	1.445393	-0.027515	0.762142
C123	C	0.945362	-0.472909	0.262134
C124	C	1.445362	0.027091	0.762134
C125	C	0.865172	-0.472966	0.342175
C126	C	1.365172	0.027034	0.842175
C127	C	0.865200	-0.527567	0.342180
C128	C	1.365200	-0.027567	0.842180
C129	C	0.905315	-0.554840	0.302162
C130	C	1.405315	-0.054840	0.802162
O131	O	0.831153	-0.613971	0.376190
O132	O	1.331153	-0.113971	0.876190
O133	O	0.979542	-0.613915	0.228128
O134	O	1.479542	-0.113915	0.728128
C135	C	1.068773	-0.251650	0.302242
C136	C	1.568773	0.248350	0.802242
C137	C	1.138414	-0.251638	0.302274
C138	C	1.638414	0.248362	0.802274
C139	C	0.905379	-0.251650	0.465592
C140	C	1.405379	0.248350	0.965592
C141	C	0.905391	-0.251638	0.535234
C142	C	1.405391	0.248362	1.035234
C143	C	0.905473	-0.115304	0.302212
C144	C	1.405473	0.384696	0.802212
C145	C	0.905525	-0.057190	0.302230
C146	C	1.405525	0.442810	0.802230
C147	C	0.905357	-0.251667	0.139381
C148	C	1.405357	0.248333	0.639381
C149	C	0.905466	-0.251531	0.069741
C150	C	1.405466	0.248469	0.569741
C151	C	0.945504	-0.284962	1.037038
C152	C	1.445504	0.215038	1.537038
C153	C	0.945493	-0.284979	0.971603
C154	C	1.445493	0.215021	1.471603
C155	C	0.905451	-0.251555	0.938872
C156	C	1.405451	0.248445	1.438872
C157	C	0.865405	-0.218122	0.971583
C158	C	1.365405	0.281878	1.471583
C159	C	0.865413	-0.218110	1.037017
C160	C	1.365413	0.281890	1.537017
C161	C	0.900533	-0.204469	0.835216
C162	C	1.400533	0.295531	1.335216
C163	C	0.900529	-0.204480	0.769783
C164	C	1.400529	0.295520	1.269783
C165	C	0.905422	-0.251592	0.737051
C166	C	1.405422	0.248408	1.237051
C167	C	0.910332	-0.298695	0.769761
C168	C	1.410332	0.201305	1.269761
C169	C	0.910340	-0.298683	0.835195
C170	C	1.410340	0.201317	1.335195
C171	C	0.905437	-0.251565	0.867920
C172	C	1.405437	0.248435	1.367920
C173	C	0.945450	-0.285044	0.633396
C174	C	1.445450	0.214956	1.133396
C175	C	0.945435	-0.285061	0.567960
C176	C	1.445435	0.214939	1.067960
C177	C	0.865350	-0.218200	0.567941
C178	C	1.365350	0.281800	1.067941
C179	C	0.865362	-0.218187	0.633376
C180	C	1.365362	0.281813	1.133376
C181	C	0.905416	-0.251608	0.666100
C182	C	1.405416	0.248392	1.166100
H183	H	0.263191	-0.312411	0.374791
H184	H	0.763191	0.187589	0.874791
O185	O	0.675475	-0.321325	0.385217
O186	O	1.175475	0.178675	0.885217
H187	H	0.662846	-0.362346	0.374390
H188	H	1.162846	0.137654	0.874390
O189	O	0.821967	-0.557044	0.385349
O190	O	1.321967	-0.057044	0.885349
H191	H	0.794077	-0.528902	0.413174
H192	H	1.294077	-0.028902	0.913174
H193	H	0.832761	-0.190962	0.660003
H194	H	1.332761	0.309038	1.160003
O195	O	0.135876	-0.321268	0.385407
O196	O	0.635876	0.178732	0.885407
H197	H	0.106124	-0.297938	0.417384
H198	H	0.606124	0.202062	0.917384
O199	O	0.337775	-0.260365	0.419525
O200	O	0.837775	0.239635	0.919525
H201	H	0.350296	-0.297592	0.442821
H202	H	0.850296	0.202408	0.942821
O203	O	0.271864	-0.182073	0.219074
O204	O	0.771864	0.317927	0.719074
H205	H	0.259369	-0.141047	0.229902
H206	H	0.759369	0.358953	0.729902
O207	O	0.895245	-0.153680	0.734505
O208	O	1.395245	0.346320	1.234505
H209	H	0.891835	-0.120918	0.768256
H210	H	1.391835	0.379082	1.268256
H211	H	0.144505	-0.190891	0.229707
H212	H	0.644505	0.309109	0.729707
O213	O	0.539462	-0.321324	0.385234
O214	O	1.039462	0.178676	0.885234
H215	H	0.573198	-0.344624	0.413022
H216	H	1.073198	0.155376	0.913022
H217	H	0.978063	-0.312259	0.660041
H218	H	1.478063	0.187741	1.160041
H219	H	0.832744	-0.190987	0.541292
H220	H	1.332744	0.309013	1.041292
H221	H	0.346228	-0.244083	0.199789
H222	H	0.846228	0.255917	0.699789
O223	O	0.473782	-0.260395	0.419467
O224	O	0.973782	0.239605	0.919467
H225	H	0.440076	-0.263294	0.458730
H226	H	0.940076	0.236706	0.958730
H227	H	1.018263	-0.800861	0.189573
H228	H	1.518263	-0.300861	0.689573
O229	O	0.895260	-0.153652	0.870519
O230	O	1.395260	0.346348	1.370519
H231	H	0.891856	-0.120902	0.836783
H232	H	1.391856	0.379098	1.336783
H233	H	0.666855	-0.190971	0.229521
H234	H	1.166855	0.309029	0.729521
H235	H	0.978269	-1.052075	0.229624
H236	H	1.478269	-0.552075	0.729624
O237	O	0.821913	-0.443542	0.385330
O238	O	1.321913	0.056458	0.885330
H239	H	0.832630	-0.453988	0.434519
H240	H	1.332630	0.046012	0.934519
H241	H	0.464933	-0.244098	0.199746
H242	H	0.964933	0.255902	0.699746
O243	O	0.988828	-0.945783	0.219033
O244	O	1.488828	-0.445783	0.719033
H245	H	1.016720	-0.973928	0.191215
H246	H	1.516720	-0.473928	0.691215
O247	O	0.822135	-0.945889	0.385400
O248	O	1.322135	-0.445889	0.885400
H249	H	0.790270	-0.921057	0.357312
H250	H	1.290270	-0.421057	0.857312
H251	H	0.914336	-0.337035	0.861824
H252	H	1.414336	0.162965	1.361824
H253	H	0.792585	-0.800993	0.414837
H254	H	1.292585	-0.300993	0.914837
O255	O	0.915630	-0.349527	0.734499
O256	O	1.415630	0.150473	1.234499
H257	H	0.873654	-0.354910	0.704666
H258	H	1.373654	0.145090	1.204666
H259	H	0.832801	-0.190909	0.944929
H260	H	1.332801	0.309091	1.444929
O261	O	1.028813	-0.694591	0.178980
O262	O	1.528813	-0.194591	0.678980
H263	H	1.060660	-0.669664	0.207061
H264	H	1.560660	-0.169664	0.707061
O265	O	0.539503	-0.182119	0.218976
O266	O	1.039503	0.317881	0.718976
H267	H	0.488505	-0.187743	0.225702
H268	H	0.988505	0.312257	0.725702
O269	O	0.822180	-1.059380	0.385410
O270	O	1.322180	-0.559380	0.885410
H271	H	0.794294	-1.031234	0.413233
H272	H	1.294294	-0.531234	0.913233
H273	H	0.978118	-0.312178	1.063678
H274	H	1.478118	0.187822	1.563678
H275	H	0.792554	-0.701943	0.414829
H276	H	1.292554	-0.201943	0.914829
H277	H	0.978003	-0.450663	0.229537
H278	H	1.478003	0.049337	0.729537
O279	O	0.988654	-0.556928	0.218975
O280	O	1.488654	-0.056928	0.718975
H281	H	1.016512	-0.528746	0.191141
H282	H	1.516512	-0.028746	0.691141
O283	O	0.822234	-0.182046	1.072295
O284	O	1.322234	0.317954	1.572295
H285	H	0.794389	-0.158804	1.038545
H286	H	1.294389	0.341196	1.538545
H287	H	0.978035	-0.312289	0.541334
H288	H	1.478035	0.187711	1.041334
O289	O	0.988685	-0.321031	0.936318
O290	O	1.488685	0.178969	1.436318
H291	H	1.016541	-0.344265	0.970066
H292	H	1.516541	0.155735	1.470066
