data_functionalizedCrystal
_audit_creation_method	'MofGen! by Chris Wilmer'
_symmetry_space_group_name_H-M	'P1'
_symmetry_Int_Tables_number	1
_symmetry_cell_setting	triclinic
loop_
_symmetry_equiv_pos_as_xyz
  x,y,z
_cell_length_a	19.288864
_cell_length_b	15.021413
_cell_length_c	15.944551
_cell_angle_alpha	89.996935
_cell_angle_beta	83.317492
_cell_angle_gamma	90.021132
loop_
_atom_site_label
_atom_site_type_symbol
_atom_site_fract_x
_atom_site_fract_y
_atom_site_fract_z
O1	O	0.921628	0.074319	0.104771
O2	O	1.421628	0.574319	0.604771
O3	O	0.719405	0.074259	0.118906
O4	O	1.219405	0.574259	0.618906
O5	O	0.826039	0.074283	-0.010457
O6	O	1.326039	0.574283	0.489543
O7	O	0.814994	0.074296	0.234135
O8	O	1.314994	0.574296	0.734135
O9	O	0.826022	-0.073781	-0.010439
O10	O	1.326022	0.426219	0.489561
O11	O	0.719388	-0.073805	0.118925
O12	O	1.219388	0.426195	0.618925
O13	O	0.921611	-0.073745	0.104790
O14	O	1.421611	0.426255	0.604790
Zn15	Zn	0.820497	-0.097283	0.111860
Zn16	Zn	1.320497	0.402717	0.611860
Zn17	Zn	0.820519	0.097798	0.111836
Zn18	Zn	1.320519	0.597798	0.611836
O19	O	0.814977	-0.073769	0.234153
O20	O	1.314977	0.426231	0.734153
C21	C	0.693519	0.000219	0.118461
C22	C	1.193519	0.500219	0.618461
C23	C	0.616411	0.000196	0.117095
C24	C	1.116411	0.500196	0.617095
N25	N	0.820487	-0.230421	0.111876
N26	N	1.320487	0.269579	0.611876
C27	C	0.571915	0.000214	0.193000
C28	C	1.071915	0.500214	0.693000
C29	C	0.499465	0.000223	0.191717
C30	C	0.999465	0.500223	0.691717
C31	C	0.471514	0.000233	0.114526
C32	C	0.971514	0.500233	0.614526
C33	C	0.516020	0.000210	0.038611
C34	C	1.016020	0.500210	0.538611
C35	C	0.588469	0.000191	0.039896
C36	C	1.088469	0.500191	0.539896
C37	C	0.363098	0.052133	0.053838
C38	C	0.863098	0.552133	0.553838
C39	C	0.290650	0.052157	0.052556
C40	C	0.790650	0.552157	0.552556
C41	C	0.248058	0.000287	0.110560
C42	C	0.748058	0.500287	0.610560
C43	C	0.277921	-0.051597	0.169859
C44	C	0.777921	0.448403	0.669859
C45	C	0.350370	-0.051616	0.171144
C46	C	0.850370	0.448384	0.671144
C47	C	0.392956	0.000253	0.113124
C48	C	0.892956	0.500253	0.613124
C49	C	0.125002	0.000314	0.185079
C50	C	0.625002	0.500314	0.685079
C51	C	0.052550	0.000318	0.183793
C52	C	0.552550	0.500318	0.683793
C53	C	0.069107	0.000314	0.030684
C54	C	0.569107	0.500314	0.530684
C55	C	0.141557	0.000301	0.031972
C56	C	0.641557	0.500301	0.531972
C57	C	0.169500	0.000305	0.109172
C58	C	0.669500	0.500305	0.609172
C59	C	0.771171	-0.470115	0.171666
C60	C	1.271171	0.029885	0.671666
C61	C	0.833935	-0.529430	0.187731
C62	C	1.333935	-0.029430	0.687731
C63	C	0.820504	-0.412028	0.111855
C64	C	1.320504	0.087972	0.611855
C65	C	0.757758	-0.529455	0.095808
C66	C	1.257758	-0.029455	0.595808
C67	C	0.820516	-0.587452	0.111837
C68	C	1.320516	-0.087452	0.611837
C69	C	0.883300	-0.470036	0.127958
C70	C	1.383300	0.029964	0.627958
C71	C	0.807081	-0.470056	0.036003
C72	C	1.307081	0.029944	0.536003
C73	C	0.869890	-0.529344	0.052035
C74	C	1.369890	-0.029344	0.552035
C75	C	0.820497	-0.310971	0.111868
C76	C	1.320497	0.189029	0.611868
C77	C	0.820531	-0.688507	0.111823
C78	C	1.320531	-0.188507	0.611823
C79	C	0.947497	0.000297	0.105235
C80	C	1.447497	0.500297	0.605235
C81	C	1.024605	0.000326	0.106600
C82	C	1.524605	0.500326	0.606600
C83	C	0.825572	0.000250	-0.041740
C84	C	1.325572	0.500250	0.458260
C85	C	0.824197	0.000250	-0.134981
C86	C	1.324197	0.500250	0.365019
N87	N	0.820535	0.230935	0.111813
N88	N	1.320535	0.730935	0.611813
C89	C	0.754815	0.000241	-0.349571
C90	C	1.254815	0.500241	0.150429
C91	C	0.787025	-0.072754	-0.410703
C92	C	1.287025	0.427246	0.089297
C93	C	0.821710	0.000256	-0.305697
C94	C	1.321710	0.500256	0.194303
C95	C	0.787058	0.073226	-0.410705
C96	C	1.287058	0.573226	0.089295
C97	C	0.819303	0.000265	-0.470601
C98	C	1.319303	0.500265	0.029399
C99	C	0.853939	-0.072800	-0.365602
C100	C	1.353939	0.427200	0.134398
C101	C	0.853962	0.073246	-0.365597
C102	C	1.353962	0.573246	0.134403
C103	C	0.886222	0.000233	-0.426712
C104	C	1.386222	0.500233	0.073288
C105	C	0.823095	0.000249	-0.210700
C106	C	1.323095	0.500249	0.289300
C107	C	0.817924	0.000265	-0.565597
C108	C	1.317924	0.500265	-0.065597
C109	C	0.815444	0.000266	0.265436
C110	C	1.315444	0.500266	0.765436
C111	C	0.816819	0.000272	0.358677
C112	C	1.316819	0.500272	0.858677
H113	H	0.594661	0.000219	0.255862
H114	H	1.094661	0.500219	0.755862
C115	C	0.961298	0.000198	-0.471805
C116	C	1.461298	0.500198	0.028195
N117	N	1.017845	0.000166	-0.505773
N118	N	1.517845	0.500166	-0.005773
C119	C	0.748791	-0.156144	-0.437715
C120	C	1.248791	0.343856	0.062285
N121	N	0.719989	-0.218949	-0.458059
N122	N	1.219989	0.281051	0.041941
C123	C	0.892163	0.156643	-0.338555
C124	C	1.392163	0.656643	0.161445
N125	N	0.920930	0.219465	-0.318185
N126	N	1.420930	0.719465	0.181815
H127	H	0.758762	0.134941	-0.430680
H128	H	1.258762	0.634941	0.069320
C129	C	0.450510	0.000254	0.275222
C130	C	0.950510	0.500254	0.775222
N131	N	0.413639	0.000281	0.338117
N132	N	0.913639	0.500281	0.838117
H133	H	0.882202	-0.134579	-0.345712
H134	H	1.382202	0.365421	0.154288
C135	C	0.383217	-0.108696	0.236364
C136	C	0.883217	0.391304	0.736364
N137	N	0.407958	-0.151694	0.285485
N138	N	0.907958	0.348306	0.785485
H139	H	0.493258	0.000230	-0.024239
H140	H	0.993258	0.500230	0.475761
H141	H	0.624699	0.000177	-0.021917
H142	H	1.124699	0.500177	0.478083
H143	H	0.147754	0.000304	0.247939
H144	H	0.647754	0.500304	0.747939
C145	C	0.231074	-0.108663	0.233666
C146	C	0.731074	0.391337	0.733666
N147	N	0.195787	-0.151643	0.281723
N148	N	0.695787	0.348357	0.781723
C149	C	0.714872	-0.434971	0.240051
C150	C	1.214872	0.065029	0.740051
N151	N	0.672471	-0.408497	0.291560
N152	N	1.172471	0.091503	0.791560
H153	H	0.704689	-0.555557	0.082245
H154	H	1.204689	-0.055557	0.582245
C155	C	0.849283	-0.564672	0.274378
C156	C	1.349283	-0.064672	0.774378
N157	N	0.860838	-0.591217	0.339641
N158	N	1.360838	-0.091217	0.839641
C159	C	0.955008	-0.434928	0.146391
C160	C	1.455008	0.065072	0.646391
N161	N	1.009017	-0.408482	0.160279
N162	N	1.509017	0.091518	0.660279
C163	C	0.926319	-0.564272	-0.016303
C164	C	1.426319	-0.064272	0.483697
N165	N	0.968823	-0.590586	-0.067770
N166	N	1.468823	-0.090586	0.432230
C167	C	0.190505	0.000291	-0.051530
C168	C	0.690505	0.500291	0.448470
N169	N	0.227373	0.000283	-0.114428
N170	N	0.727373	0.500283	0.385572
C171	C	0.003603	0.000325	0.267299
C172	C	0.503603	0.500325	0.767299
N173	N	-0.033264	0.000327	0.330197
N174	N	0.466736	0.500327	0.830197
H175	H	0.046351	0.000377	-0.032167
H176	H	0.546351	0.500377	0.467833
H177	H	0.699288	0.000151	-0.316049
H178	H	1.199288	0.500151	0.183951
H179	H	0.795697	-0.443956	-0.028116
H180	H	1.295697	0.056044	0.471884
H181	H	0.266341	0.094408	0.004275
H182	H	0.766341	0.594408	0.504275
C183	C	0.409943	0.109203	-0.009971
C184	C	0.909943	0.609203	0.490029
N185	N	0.445225	0.152188	-0.058030
N186	N	0.945225	0.652188	0.441970
