data_functionalizedCrystal
_audit_creation_method	'MofGen! by Chris Wilmer'
_symmetry_space_group_name_H-M	'P1'
_symmetry_Int_Tables_number	1
_symmetry_cell_setting	triclinic
loop_
_symmetry_equiv_pos_as_xyz
  x,y,z
_cell_length_a	10.723022
_cell_length_b	11.792241
_cell_length_c	9.198806
_cell_angle_alpha	89.996670
_cell_angle_beta	89.996352
_cell_angle_gamma	84.330321
loop_
_atom_site_label
_atom_site_type_symbol
_atom_site_fract_x
_atom_site_fract_y
_atom_site_fract_z
O1	O	1.656768	0.159184	-0.120884
O2	O	2.156768	0.659184	0.379116
O3	O	1.293575	0.174423	-0.120889
O4	O	1.793575	0.674423	0.379111
O5	O	1.483985	0.001652	-0.120876
O6	O	1.983985	0.501652	0.379124
O7	O	1.466358	0.331955	-0.120897
O8	O	1.966358	0.831955	0.379103
O9	O	1.483970	0.001652	0.120909
O10	O	1.983970	0.501652	0.620909
O11	O	1.293560	0.174423	0.120896
O12	O	1.793560	0.674423	0.620896
O13	O	1.656753	0.159183	0.120901
O14	O	2.156753	0.659183	0.620901
Cu15	Cu	1.475155	0.166803	0.142976
Cu16	Cu	1.975155	0.666803	0.642976
Cu17	Cu	1.475173	0.166804	-0.142963
Cu18	Cu	1.975173	0.666804	0.357037
O19	O	1.466342	0.331954	0.120889
O20	O	1.966342	0.831954	0.620889
C21	C	1.247070	0.173315	0.000003
C22	C	1.747070	0.673315	0.500003
C23	C	1.108525	0.169997	0.000002
C24	C	1.608525	0.669997	0.500002
C25	C	1.482870	-0.040641	0.000016
C26	C	1.982870	0.459359	0.500016
C27	C	1.479556	-0.166662	0.000015
C28	C	1.979556	0.333338	0.500015
C29	C	0.890100	0.263240	-0.000007
C30	C	1.390100	0.763240	0.499993
C31	C	1.033294	0.266671	-0.000005
C32	C	1.533294	0.766671	0.499995
C33	C	1.473462	-0.397388	-0.000010
C34	C	1.973462	0.102612	0.499990
C35	C	1.476848	-0.268995	0.000004
C36	C	1.976848	0.231005	0.500004
C37	C	1.703257	0.160292	0.000006
C38	C	2.203257	0.660292	0.500006
C39	C	1.841802	0.163609	-0.000002
C40	C	2.341802	0.663609	0.499998
C41	C	1.467457	0.374248	-0.000007
C42	C	1.967457	0.874248	0.499993
C43	C	1.470771	0.500269	-0.000015
C44	C	1.970771	1.000269	0.499985
N45	N	1.475151	0.166802	0.344090
N46	N	1.975151	0.666802	0.844090
N47	N	1.475186	0.166796	-0.344077
N48	N	1.975186	0.666796	0.155923
C49	C	1.555100	0.093940	0.416292
C50	C	2.055100	0.593940	0.916292
C51	C	1.555119	0.093936	0.583704
C52	C	2.055119	0.593936	1.083704
H53	H	0.825438	0.345998	-0.000022
H54	H	1.325438	0.845998	0.499978
H55	H	0.906464	0.080851	-0.000005
H56	H	1.406464	0.580851	0.499995
H57	H	1.623571	0.031561	0.645795
H58	H	2.123571	0.531561	1.145795
Cl59	Cl	1.097491	0.398380	-0.000001
Cl60	Cl	1.597491	0.898380	0.499999
Cl61	Cl	1.369506	0.263119	0.560075
Cl62	Cl	1.869506	0.763119	1.060075
Cl63	Cl	1.660477	-0.002625	0.320389
Cl64	Cl	2.160477	0.497375	0.820389
Cl65	Cl	1.369484	0.263106	0.439993
Cl66	Cl	1.869484	0.763106	0.939993
H67	H	1.066947	0.084690	-0.000032
H68	H	1.566947	0.584690	0.499968
