data_functionalizedCrystal
_audit_creation_method	'MofGen! by Chris Wilmer'
_symmetry_space_group_name_H-M	'P1'
_symmetry_Int_Tables_number	1
_symmetry_cell_setting	triclinic
loop_
_symmetry_equiv_pos_as_xyz
  x,y,z
_cell_length_a	21.395362
_cell_length_b	21.395361
_cell_length_c	21.395364
_cell_angle_alpha	89.982373
_cell_angle_beta	90.034975
_cell_angle_gamma	89.953415
loop_
_atom_site_label
_atom_site_type_symbol
_atom_site_fract_x
_atom_site_fract_y
_atom_site_fract_z
Zn1	Zn	0.957804	0.249270	0.354572
Zn2	Zn	1.291137	0.582603	0.687906
Zn3	Zn	1.624471	0.915936	1.021239
Zn4	Zn	0.957723	0.354022	0.249789
Zn5	Zn	1.291056	0.687356	0.583123
Zn6	Zn	1.624390	1.020689	0.916456
Zn7	Zn	0.853035	0.249292	0.249774
Zn8	Zn	1.186369	0.582625	0.583107
Zn9	Zn	1.519702	0.915958	0.916440
Zn10	Zn	0.852988	0.354042	0.354494
Zn11	Zn	1.186321	0.687376	0.687827
Zn12	Zn	1.519655	1.020709	1.021161
O13	O	0.905388	0.301657	0.302157
O14	O	1.238721	0.634990	0.635491
O15	O	1.572054	0.968323	0.968824
O16	O	1.045471	0.263148	0.340712
O17	O	1.378804	0.596481	0.674045
O18	O	1.712138	0.929814	1.007379
O19	O	0.943822	0.340130	0.162109
O20	O	1.277155	0.673464	0.495443
O21	O	1.610488	1.006797	0.828776
O22	O	0.866987	0.161611	0.263702
O23	O	1.200320	0.494944	0.597035
O24	O	1.533653	0.828278	0.930368
O25	O	1.045412	0.340109	0.263728
O26	O	1.378745	0.673442	0.597062
O27	O	1.712078	1.006776	0.930395
O28	O	0.943960	0.161595	0.340697
O29	O	1.277293	0.494928	0.674030
O30	O	1.610627	0.828261	1.007363
O31	O	0.866908	0.263185	0.162098
O32	O	1.200242	0.596519	0.495431
O33	O	1.533575	0.929852	0.828765
O34	O	0.765351	0.263205	0.263626
O35	O	1.098684	0.596538	0.596959
O36	O	1.432018	0.929871	0.930292
O37	O	0.866906	0.340143	0.442182
O38	O	1.200240	0.673477	0.775516
O39	O	1.533573	1.006810	1.108849
O40	O	0.765316	0.340165	0.340563
O41	O	1.098650	0.673498	0.673897
O42	O	1.431983	1.006831	1.007230
O43	O	0.943914	0.263167	0.442240
O44	O	1.277247	0.596500	0.775573
O45	O	1.610581	0.929834	1.108907
O46	O	0.943776	0.441703	0.263653
O47	O	1.277109	0.775036	0.596986
O48	O	1.610443	1.108370	0.930319
O49	O	0.866828	0.441718	0.340579
O50	O	1.200161	0.775051	0.673912
O51	O	1.533494	1.108384	1.007245
C52	C	0.905305	0.464444	0.302123
C53	C	1.238638	0.797778	0.635456
C54	C	1.571972	1.131111	0.968789
C55	C	0.905327	0.534085	0.302129
C56	C	1.238660	0.867419	0.635462
C57	C	1.571993	1.200752	0.968795
C58	C	0.742600	0.301690	0.302085
C59	C	1.075933	0.635023	0.635418
C60	C	1.409267	0.968356	0.968751
C61	C	0.672959	0.301719	0.302068
C62	C	1.006292	0.635052	0.635402
C63	C	1.339625	0.968386	0.968735
C64	C	0.905414	0.301655	0.465581
C65	C	1.238747	0.634988	0.798914
C66	C	1.572081	0.968322	1.132247
C67	C	0.905425	0.301654	0.535222
C68	C	1.238759	0.634988	0.868555
C69	C	1.572092	0.968321	1.201889
C70	C	0.640244	0.341845	0.342070
C71	C	0.973577	0.675178	0.675403
C72	C	1.306911	1.008512	1.008737
C73	C	0.574808	0.341830	0.342098
C74	C	0.908142	0.675163	0.675431
C75	C	1.241475	1.008496	1.008765
C76	C	0.542090	0.301695	0.302113
C77	C	0.875424	0.635028	0.635446
C78	C	1.208757	0.968361	0.968780
C79	C	0.574813	0.261561	0.262109
C80	C	0.908146	0.594894	0.595442
C81	C	1.241480	0.928228	0.928776
C82	C	0.640247	0.261573	0.262087
C83	C	0.973581	0.594906	0.595420
C84	C	1.306914	0.928240	0.928753
C85	C	0.438374	0.296643	0.245708
C86	C	0.771708	0.629977	0.579042
C87	C	1.105041	0.963310	0.912375
C88	C	0.372942	0.296636	0.245729
C89	C	0.706275	0.629969	0.579063
C90	C	1.039608	0.963302	0.912396
C91	C	0.340270	0.301654	0.302182
C92	C	0.673603	0.634987	0.635516
C93	C	1.006936	0.968321	0.968849
C94	C	0.373039	0.306693	0.358616
C95	C	0.706372	0.640026	0.691949
C96	C	1.039705	0.973360	1.025282
C97	C	0.438473	0.306705	0.358593
C98	C	0.771806	0.640038	0.691927
C99	C	1.105140	0.973372	1.025260
C100	C	0.471138	0.301677	0.302133
C101	C	0.804471	0.635010	0.635466
C102	C	1.137805	0.968344	0.968800
C103	C	0.236602	0.341766	0.342217
C104	C	0.569936	0.675099	0.675551
C105	C	0.903269	1.008432	1.008884
C106	C	0.171166	0.341746	0.342246
C107	C	0.504499	0.675079	0.675580
C108	C	0.837832	1.008412	1.008913
C109	C	0.171172	0.261480	0.262252
C110	C	0.504505	0.594814	0.595585
C111	C	0.837838	0.928147	0.928919
C112	C	0.236607	0.261497	0.262228
C113	C	0.569940	0.594830	0.595562
C114	C	0.903274	0.928163	0.928895
C115	C	0.269318	0.301643	0.302210
C116	C	0.602652	0.634976	0.635544
C117	C	0.935985	0.968309	0.968877
C118	C	1.068811	0.301624	0.302231
C119	C	1.402144	0.634957	0.635564
C120	C	1.735478	0.968290	0.968897
C121	C	1.138452	0.301610	0.302262
C122	C	1.471786	0.634943	0.635595
C123	C	1.805119	0.968276	0.968929
C124	C	0.905488	0.138233	0.302206
C125	C	1.238821	0.471567	0.635539
C126	C	1.572154	0.804900	0.968873
C127	C	0.905530	0.068592	0.302227
C128	C	1.238864	0.401925	0.635560
C129	C	1.572197	0.735259	0.968894
C130	C	0.945429	0.566770	0.262114
C131	C	1.278763	0.900103	0.595448
C132	C	1.612096	1.233437	0.928781
C133	C	0.945458	0.632205	0.262128
C134	C	1.278792	0.965539	0.595462
C135	C	1.612125	1.298872	0.928795
C136	C	0.905374	0.664954	0.302150
C137	C	1.238707	0.998287	0.635483
C138	C	1.572041	1.331620	0.968817
C139	C	0.865269	0.632261	0.342172
C140	C	1.198602	0.965594	0.675506
C141	C	1.531935	1.298928	1.008839
C142	C	0.865245	0.566827	0.342161
C143	C	1.198578	0.900160	0.675495
C144	C	1.531912	1.233494	1.008828
C145	C	0.848958	0.768685	0.307041
C146	C	1.182292	1.102018	0.640374
C147	C	1.515625	1.435352	0.973708
C148	C	0.848981	0.834118	0.307047
C149	C	1.182314	1.167451	0.640381
C150	C	1.515648	1.500784	0.973714
C151	C	0.905447	0.866774	0.302187
C152	C	1.238780	1.200108	0.635520
C153	C	1.572114	1.533441	0.968853
C154	C	0.961892	0.833990	0.297307
C155	C	1.295225	1.167323	0.630640
C156	C	1.628559	1.500657	0.963974
C157	C	0.961869	0.768556	0.297296
C158	C	1.295202	1.101889	0.630630
C159	C	1.628535	1.435223	0.963963
C160	C	0.905395	0.735906	0.302166
C161	C	1.238729	1.069239	0.635500
C162	C	1.572062	1.402573	0.968833
C163	C	0.945584	0.970412	0.262186
C164	C	1.278918	1.303745	0.595519
C165	C	1.612251	1.637078	0.928852
C166	C	0.945614	1.035848	0.262204
C167	C	1.278948	1.369182	0.595537
C168	C	1.612281	1.702515	0.928871
C169	C	0.865419	1.035903	0.342245
C170	C	1.198753	1.369236	0.675578
C171	C	1.532086	1.702569	1.008911
C172	C	0.865395	0.970467	0.342230
C173	C	1.198728	1.303801	0.675563
C174	C	1.532061	1.637134	1.008896
C175	C	0.905476	0.937726	0.302197
C176	C	1.238810	1.271059	0.635530
C177	C	1.572143	1.604392	0.968863
C178	C	0.865383	0.261592	0.567919
C179	C	1.198716	0.594925	0.901252
C180	C	1.532049	0.928259	1.234586
C181	C	0.865371	0.261595	0.633355
C182	C	1.198705	0.594928	0.966688
C183	C	1.532038	0.928262	1.300021
C184	C	0.905414	0.301654	0.666090
C185	C	1.238747	0.634988	0.999424
C186	C	1.572081	0.968321	1.332757
C187	C	0.945459	0.341724	0.633385
C188	C	1.278793	0.675058	0.966718
C189	C	1.612126	1.008391	1.300052
C190	C	0.945465	0.341724	0.567951
C191	C	1.278798	0.675058	0.901284
C192	C	1.612132	1.008391	1.234618
C193	C	0.961851	0.306588	0.769795
C194	C	1.295185	0.639922	1.103129
C195	C	1.628518	0.973255	1.436462
C196	C	0.961847	0.306584	0.835228
C197	C	1.295180	0.639917	1.168562
C198	C	1.628513	0.973250	1.501895
C199	C	0.905396	0.301658	0.867911
C200	C	1.238729	0.634991	1.201244
C201	C	1.572063	0.968325	1.534578
C202	C	0.848948	0.296723	0.835153
C203	C	1.182281	0.630057	1.168486
C204	C	1.515615	0.963390	1.501819
C205	C	0.848954	0.296723	0.769719
C206	C	1.182287	0.630057	1.103052
C207	C	1.515621	0.963390	1.436385
C208	C	0.905412	0.301659	0.737043
C209	C	1.238745	0.634992	1.070376
C210	C	1.572079	0.968326	1.403709
C211	C	0.865338	0.261597	0.971561
C212	C	1.198671	0.594930	1.304894
C213	C	1.532004	0.928264	1.638227
C214	C	0.865325	0.261605	1.036997
C215	C	1.198659	0.594938	1.370331
C216	C	1.531992	0.928271	1.703664
C217	C	0.945419	0.341731	1.037027
C218	C	1.278752	0.675064	1.370360
C219	C	1.612086	1.008397	1.703693
C220	C	0.945426	0.341726	0.971591
C221	C	1.278759	0.675060	1.304925
C222	C	1.612092	1.008393	1.638258
C223	C	0.905386	0.301656	0.938862
C224	C	1.238719	0.634989	1.272196
C225	C	1.572053	0.968323	1.605529
C226	C	0.905362	0.301670	1.139370
C227	C	1.238696	0.635004	1.472703
C228	C	1.572029	0.968337	1.806036
C229	C	0.905368	0.301665	1.069729
C230	C	1.238701	0.634998	1.403062
C231	C	1.572034	0.968332	1.736395
H232	H	0.666873	0.374534	0.374627
H233	H	1.000207	0.707867	0.707961
H234	H	1.333540	1.041201	1.041294
C235	C	0.336898	0.291138	0.183654
C236	C	0.670232	0.624471	0.516988
C237	C	1.003565	0.957804	0.850321
H238	H	0.293249	0.291870	0.191750
H239	H	0.626583	0.625203	0.525083
H240	H	0.959916	0.958537	0.858417
H241	H	0.347624	0.252974	0.163661
H242	H	0.680957	0.586308	0.496994
H243	H	1.014290	0.919641	0.830328
H244	H	0.347581	0.325200	0.157257
H245	H	0.680914	0.658533	0.490590
H246	H	1.014247	0.991866	0.823924
C247	C	0.989721	1.071804	0.218180
C248	C	1.323054	1.405138	0.551513
C249	C	1.656387	1.738471	0.884846
H250	H	0.983998	1.115464	0.223921
H251	H	1.317332	1.448798	0.557255
H252	H	1.650665	1.782131	0.890588
H253	H	0.980564	1.061110	0.176072
H254	H	1.313897	1.394443	0.509405
H255	H	1.647231	1.727776	0.842738
H256	H	1.031814	1.061029	0.227393
H257	H	1.365147	1.394362	0.560726
H258	H	1.698481	1.727696	0.894059
H259	H	1.007810	0.310599	0.861895
H260	H	1.341143	0.643932	1.195228
H261	H	1.674477	0.977266	1.528562
C262	C	0.337109	0.312211	0.420717
C263	C	0.670442	0.645544	0.754051
C264	C	1.003776	0.978877	1.087384
H265	H	0.293446	0.311474	0.412651
H266	H	0.626779	0.644808	0.745985
H267	H	0.960113	0.978141	1.079318
H268	H	0.347811	0.350387	0.440679
H269	H	0.681145	0.683720	0.774012
H270	H	1.014478	1.017053	1.107345
H271	H	0.347895	0.278165	0.447130
H272	H	0.681229	0.611499	0.780463
H273	H	1.014562	0.944832	1.113797
H274	H	0.465151	0.310806	0.404543
H275	H	0.798484	0.644139	0.737877
H276	H	1.131818	0.977473	1.071210
H277	H	0.803020	0.860806	0.311015
H278	H	1.136353	1.194139	0.644348
H279	H	1.469686	1.527472	0.977681
H280	H	0.832765	0.228968	0.659982
H281	H	1.166098	0.562302	0.993315
H282	H	1.499431	0.895635	1.326649
C283	C	0.989509	0.385786	0.669389
C284	C	1.322843	0.719120	1.002722
C285	C	1.656176	1.052453	1.336055
H286	H	1.013357	0.409650	0.640541
H287	H	1.346690	0.742983	0.973874
H288	H	1.680023	1.076316	1.307208
H289	H	1.016821	0.361812	0.694939
H290	H	1.350155	0.695145	1.028272
H291	H	1.683488	1.028479	1.361606
H292	H	0.965521	0.413093	0.694891
H293	H	1.298854	0.746426	1.028224
H294	H	1.632187	1.079760	1.361557
H295	H	0.832784	1.062566	0.374834
H296	H	1.166118	1.395899	0.708167
H297	H	1.499451	1.729232	1.041501
C298	C	0.821274	0.934512	0.386238
C299	C	1.154607	1.267846	0.719571
C300	C	1.487940	1.601179	1.052905
H301	H	0.797400	0.963386	0.410072
H302	H	1.130733	1.296719	0.743406
H303	H	1.464067	1.630053	1.076739
H304	H	0.845211	0.908943	0.413564
H305	H	1.178544	1.242276	0.746897
H306	H	1.511877	1.575610	1.080231
H307	H	0.793979	0.909033	0.362225
H308	H	1.127312	1.242366	0.695558
H309	H	1.460645	1.575699	1.028891
C310	C	0.786842	0.732769	0.312392
C311	C	1.120176	1.066102	0.645725
C312	C	1.453509	1.399435	0.979059
H313	H	0.753230	0.761664	0.315292
H314	H	1.086563	1.094997	0.648625
H315	H	1.419897	1.428330	0.981958
H316	H	0.787624	0.707226	0.348708
H317	H	1.120958	1.040559	0.682041
H318	H	1.454291	1.373892	1.015374
H319	H	0.781348	0.707266	0.276469
H320	H	1.114682	1.040599	0.609803
H321	H	1.448015	1.373933	0.943136
H322	H	0.978024	0.374346	1.063679
H323	H	1.311357	0.707680	1.397013
H324	H	1.644691	1.041013	1.730346
C325	C	1.023949	0.312013	0.733848
C326	C	1.357282	0.645346	1.067181
C327	C	1.690616	0.978680	1.400514
H328	H	1.015868	0.311314	0.690186
H329	H	1.349202	0.644648	1.023520
H330	H	1.682535	0.977981	1.356853
H331	H	1.050328	0.277927	0.744598
H332	H	1.383661	0.611260	1.077931
H333	H	1.716995	0.944593	1.411264
H334	H	1.043954	0.350158	0.744576
H335	H	1.377288	0.683491	1.077909
H336	H	1.710621	1.016824	1.411242
H337	H	0.832633	0.658929	0.374759
H338	H	1.165966	0.992262	0.708093
H339	H	1.499299	1.325596	1.041426
H340	H	0.666883	0.228896	0.229512
H341	H	1.000217	0.562229	0.562846
H342	H	1.333550	0.895562	0.896179
H343	H	0.832713	0.228983	1.063618
H344	H	1.166046	0.562316	1.396952
H345	H	1.499380	0.895650	1.730285
H346	H	0.263237	0.374452	0.374776
H347	H	0.596571	0.707785	0.708110
H348	H	0.929904	1.041118	1.041443
H349	H	0.832734	0.228970	0.944911
H350	H	1.166068	0.562303	1.278245
H351	H	1.499401	0.895637	1.611578
C352	C	0.474307	0.291089	0.183609
C353	C	0.807641	0.624422	0.516942
C354	C	1.140974	0.957755	0.850276
H355	H	0.445421	0.288085	0.150005
H356	H	0.778755	0.621418	0.483338
H357	H	1.112088	0.954752	0.816671
H358	H	0.499858	0.254768	0.184503
H359	H	0.833191	0.588102	0.517836
H360	H	1.166525	0.921435	0.851169
H361	H	0.499804	0.326985	0.178007
H362	H	0.833137	0.660319	0.511340
H363	H	1.166470	0.993652	0.844674
C364	C	0.786866	0.291306	0.733686
C365	C	1.120200	0.624640	1.067020
C366	C	1.453533	0.957973	1.400353
H367	H	0.753243	0.288378	0.762518
H368	H	1.086576	0.621711	1.095851
H369	H	1.419909	0.955044	1.429185
H370	H	0.787702	0.254990	0.708169
H371	H	1.121035	0.588323	1.041502
H372	H	1.454368	0.921657	1.374836
H373	H	0.781346	0.327223	0.708149
H374	H	1.114679	0.660556	1.041483
H375	H	1.448012	0.993889	1.374816
H376	H	0.263244	0.228825	0.229652
H377	H	0.596577	0.562158	0.562985
H378	H	0.929910	0.895491	0.896318
C379	C	0.135190	0.217325	0.218277
C380	C	0.468523	0.550658	0.551610
C381	C	0.801856	0.883991	0.884944
H382	H	0.091533	0.223064	0.224019
H383	H	0.424867	0.556397	0.557352
H384	H	0.758200	0.889730	0.890686
H385	H	0.145969	0.175246	0.227527
H386	H	0.479303	0.508579	0.560860
H387	H	0.812636	0.841913	0.894193
H388	H	0.145859	0.226429	0.176154
H389	H	0.479193	0.559763	0.509487
H390	H	0.812526	0.893096	0.842821
C391	C	0.135179	0.385896	0.386241
C392	C	0.468513	0.719229	0.719575
C393	C	0.801846	1.052562	1.052908
H394	H	0.164035	0.409812	0.410041
H395	H	0.497368	0.743145	0.743375
H396	H	0.830702	1.076478	1.076708
H397	H	0.109700	0.361977	0.413600
H398	H	0.443033	0.695310	0.746934
H399	H	0.776366	1.028643	1.080267
H400	H	0.109607	0.413149	0.362217
H401	H	0.442941	0.746483	0.695551
H402	H	0.776274	1.079816	1.028884
H403	H	0.832588	0.540215	0.374747
H404	H	1.165922	0.873548	0.708080
H405	H	1.499255	1.206881	1.041413
H406	H	0.832777	0.228966	0.541275
H407	H	1.166110	0.562299	0.874609
H408	H	1.499443	0.895633	1.207942
H409	H	0.978075	0.374347	0.541329
H410	H	1.311409	0.707681	0.874663
H411	H	1.644742	1.041014	1.207996
C412	C	0.786847	0.291323	0.871094
C413	C	1.120181	0.624656	1.204428
C414	C	1.453514	0.957990	1.537761
H415	H	0.794925	0.292042	0.914756
H416	H	1.128258	0.625375	1.248089
H417	H	1.461591	0.958709	1.581423
H418	H	0.766825	0.253188	0.860377
H419	H	1.100159	0.586521	1.193710
H420	H	1.433492	0.919854	1.527044
H421	H	0.760484	0.325422	0.860332
H422	H	1.093817	0.658755	1.193666
H423	H	1.427150	0.992088	1.526999
C424	C	0.538826	0.217414	0.218127
C425	C	0.872159	0.550747	0.551460
C426	C	1.205493	0.884081	0.884794
H427	H	0.495170	0.223157	0.223865
H428	H	0.828503	0.556491	0.557198
H429	H	1.161836	0.889824	0.890531
H430	H	0.549599	0.175333	0.227371
H431	H	0.882933	0.508666	0.560705
H432	H	1.216266	0.841999	0.894038
H433	H	0.549501	0.226523	0.176006
H434	H	0.882835	0.559856	0.509340
H435	H	1.216168	0.893190	0.842673
C436	C	0.989481	0.385788	0.935623
C437	C	1.322814	0.719121	1.268956
C438	C	1.656148	1.052454	1.602289
H439	H	1.013332	0.409643	0.964489
H440	H	1.346665	0.742976	1.297822
H441	H	1.679999	1.076310	1.631155
H442	H	0.965502	0.413092	0.910069
H443	H	1.298835	0.746426	1.243403
H444	H	1.632169	1.079759	1.576736
H445	H	1.016799	0.361808	0.910126
H446	H	1.350133	0.695141	1.243459
H447	H	1.683466	1.028475	1.576793
H448	H	0.548167	0.374505	0.374674
H449	H	0.881500	0.707838	0.708007
H450	H	1.214834	1.041172	1.041341
H451	H	1.007872	0.860578	0.293349
H452	H	1.341205	1.193911	0.626683
H453	H	1.674539	1.527244	0.960016
C454	C	0.989524	0.530758	0.218087
C455	C	1.322857	0.864091	0.551420
C456	C	1.656191	1.197424	0.884754
H457	H	1.013416	0.559599	0.194262
H458	H	1.346750	0.892933	0.527595
H459	H	1.680083	1.226266	0.860929
H460	H	0.965569	0.505270	0.190753
H461	H	1.298902	0.838603	0.524086
H462	H	1.632235	1.171937	0.857420
H463	H	1.016802	0.505192	0.242090
H464	H	1.350136	0.838525	0.575424
H465	H	1.683469	1.171859	0.908757
C466	C	0.989571	0.668169	0.218111
C467	C	1.322904	1.001502	0.551445
C468	C	1.656237	1.334836	0.884778
H469	H	0.983846	0.711829	0.223855
H470	H	1.317179	1.045162	0.557188
H471	H	1.650513	1.378495	0.890522
H472	H	0.980423	0.657477	0.176001
H473	H	1.313757	0.990811	0.509334
H474	H	1.647090	1.324144	0.842667
H475	H	1.031662	0.657394	0.227333
H476	H	1.364995	0.990727	0.560666
H477	H	1.698329	1.324060	0.894000
C478	C	1.023951	0.732492	0.291939
C479	C	1.357285	1.065826	0.625272
C480	C	1.690618	1.399159	0.958605
H481	H	1.015847	0.688846	0.292626
H482	H	1.349180	1.022180	0.625959
H483	H	1.682514	1.355513	0.959292
H484	H	1.050287	0.743169	0.326058
H485	H	1.383620	1.076502	0.659392
H486	H	1.716953	1.409836	0.992725
H487	H	1.044017	0.743206	0.253819
H488	H	1.377351	1.076540	0.587153
H489	H	1.710684	1.409873	0.920486
C490	C	0.989678	0.934393	0.218159
C491	C	1.323011	1.267727	0.551492
C492	C	1.656345	1.601060	0.884826
H493	H	1.013574	0.963233	0.194336
H494	H	1.346907	1.296567	0.527669
H495	H	1.680240	1.629900	0.861003
H496	H	0.965721	0.908909	0.190823
H497	H	1.299054	1.242243	0.524156
H498	H	1.632387	1.575576	0.857490
H499	H	1.016953	0.908824	0.242162
H500	H	1.350286	1.242157	0.575495
H501	H	1.683620	1.575490	0.908828
