data_functionalizedCrystal
_audit_creation_method	'MofGen! by Chris Wilmer'
_symmetry_space_group_name_H-M	'P1'
_symmetry_Int_Tables_number	1
_symmetry_cell_setting	triclinic
loop_
_symmetry_equiv_pos_as_xyz
  x,y,z
_cell_length_a	15.944556
_cell_length_b	16.992695
_cell_length_c	14.421503
_cell_angle_alpha	90.002994
_cell_angle_beta	89.979576
_cell_angle_gamma	92.915204
loop_
_atom_site_label
_atom_site_type_symbol
_atom_site_fract_x
_atom_site_fract_y
_atom_site_fract_z
O1	O	-0.178112	1.040405	0.077115
O2	O	0.321888	1.540405	0.577115
O3	O	-0.176158	0.812119	0.077124
O4	O	0.323842	1.312119	0.577124
O5	O	-0.055279	0.932493	0.077086
O6	O	0.444721	1.432493	0.577086
O7	O	-0.298992	0.920031	0.077153
O8	O	0.201008	1.420031	0.577153
O9	O	-0.055264	0.932482	-0.077137
O10	O	0.444736	1.432482	0.422863
O11	O	-0.176144	0.812108	-0.077099
O12	O	0.323856	1.312108	0.422901
O13	O	-0.178098	1.040394	-0.077109
O14	O	0.321902	1.540394	0.422891
Cu15	Cu	-0.177120	0.926250	-0.091186
Cu16	Cu	0.322880	1.426250	0.408814
Cu17	Cu	-0.177137	0.926263	0.091201
Cu18	Cu	0.322863	1.426263	0.591201
O19	O	-0.298977	0.920020	-0.077070
O20	O	0.201023	1.420020	0.422930
C21	C	-0.023943	0.931970	-0.000032
C22	C	0.476057	1.431970	0.499968
C23	C	0.069407	0.930416	-0.000052
C24	C	0.569407	1.430416	0.499948
C25	C	-0.173637	0.782901	0.000013
C26	C	0.326363	1.282901	0.500013
C27	C	-0.166137	0.695856	0.000015
C28	C	0.333863	1.195856	0.500015
C29	C	-0.180619	1.069612	0.000005
C30	C	0.319381	1.569612	0.500005
C31	C	-0.188119	1.156657	0.000009
C32	C	0.311881	1.656657	0.500009
C33	C	0.345354	0.851157	-0.000081
C34	C	0.845354	1.351157	0.499919
C35	C	0.292199	0.889371	0.075968
C36	C	0.792199	1.389371	0.575968
C37	C	0.405420	0.924875	-0.000087
C38	C	0.905420	1.424875	0.499913
C39	C	0.292239	0.889380	-0.076084
C40	C	0.792239	1.389380	0.423916
C41	C	0.240326	0.927593	-0.000071
C42	C	0.740326	1.427593	0.499929
C43	C	0.353495	0.963069	0.076024
C44	C	0.853495	1.463069	0.576024
C45	C	0.353539	0.963067	-0.076096
C46	C	0.853539	1.463067	0.423904
C47	C	0.300414	1.001336	-0.000029
C48	C	0.800414	1.501336	0.499971
C49	C	0.500527	0.923306	-0.000096
C50	C	1.000527	1.423306	0.499904
C51	C	0.145221	0.929167	-0.000057
C52	C	0.645221	1.429167	0.499943
C53	C	0.669686	0.920533	0.000004
C54	C	1.169686	1.420533	0.500004
C55	C	0.576334	0.922055	-0.000108
C56	C	1.076334	1.422055	0.499892
N57	N	-0.177107	0.926247	-0.219467
N58	N	0.322893	1.426247	0.280533
C59	C	-0.115754	1.206892	-0.000008
C60	C	0.384246	1.706892	0.499992
C61	C	-0.122806	1.288679	-0.000010
C62	C	0.377194	1.788679	0.499990
C63	C	-0.202224	1.320229	0.000013
C64	C	0.297776	1.820229	0.500013
C65	C	-0.274594	1.269988	0.000027
C66	C	0.225406	1.769988	0.500027
C67	C	-0.267541	1.188202	0.000021
C68	C	0.232459	1.688202	0.500021
C69	C	-0.231455	1.563829	0.000024
C70	C	0.268545	2.063829	0.500024
C71	C	-0.238502	1.645621	0.000032
C72	C	0.261498	2.145621	0.500032
C73	C	-0.086714	1.664307	-0.000006
C74	C	0.413286	2.164307	0.499994
C75	C	-0.079668	1.582519	-0.000005
C76	C	0.420332	2.082519	0.499995
C77	C	-0.152038	1.532284	0.000004
C78	C	0.347962	2.032284	0.500004
N79	N	-0.209434	1.403829	0.000014
N80	N	0.290566	1.903829	0.500014
N81	N	-0.144827	1.448687	-0.000004
N82	N	0.355173	1.948687	0.499996
C83	C	-0.120710	0.981490	-0.530913
C84	C	0.379290	1.481490	-0.030913
C85	C	-0.197444	0.997349	-0.469057
C86	C	0.302556	1.497349	0.030943
C87	C	-0.177133	0.926264	-0.591356
C88	C	0.322867	1.426264	-0.091356
C89	C	-0.100391	0.910433	-0.469119
C90	C	0.399609	1.410433	0.030881
C91	C	-0.177116	0.926258	-0.408634
C92	C	0.322884	1.426258	0.091366
C93	C	-0.253907	0.942159	-0.530860
C94	C	0.246093	1.442159	-0.030860
C95	C	-0.156802	0.855212	-0.530927
C96	C	0.343198	1.355212	-0.030927
C97	C	-0.233589	0.871041	-0.469098
C98	C	0.266411	1.371041	0.030902
C99	C	-0.177141	0.926270	-0.696617
C100	C	0.322859	1.426270	-0.196617
C101	C	-0.177116	0.926251	-0.303376
C102	C	0.322884	1.426251	0.196624
N103	N	-0.177143	0.926273	0.219483
N104	N	0.322857	1.426273	0.719483
H105	H	0.365264	0.787667	-0.000007
H106	H	0.865264	1.287667	0.499993
H107	H	-0.326468	1.147301	0.000032
H108	H	0.173532	1.647301	0.500032
F109	F	-0.058430	1.042576	-0.566392
F110	F	0.441570	1.542576	-0.066392
F111	F	-0.219908	1.075880	-0.433515
F112	F	0.280092	1.575880	0.066485
H113	H	-0.027794	1.705216	-0.000015
H114	H	0.472206	2.205216	0.499985
F115	F	0.004859	1.548947	-0.000003
F116	F	0.504859	2.048947	0.499997
F117	F	-0.323033	1.679197	0.000055
F118	F	0.176967	2.179197	0.500055
F119	F	-0.134299	0.776701	-0.566477
F120	F	0.365701	1.276701	-0.066477
F121	F	-0.015571	0.892930	-0.433673
F122	F	0.484429	1.392930	0.066327
H123	H	-0.290384	1.522938	0.000036
H124	H	0.209616	2.022938	0.500036
H125	H	-0.339258	1.295683	0.000039
H126	H	0.160742	1.795683	0.500039
F127	F	-0.296016	0.809992	-0.433841
F128	F	0.203984	1.309992	0.066159
F129	F	0.388408	1.003739	0.160137
F130	F	0.888408	1.503739	0.660137
F131	F	0.257103	0.848686	0.160006
F132	F	0.757103	1.348686	0.660006
F133	F	0.274592	1.084385	0.000027
F134	F	0.774592	1.584385	0.500027
H135	H	-0.318820	0.955611	-0.557868
H136	H	0.181180	1.455611	-0.057868
H137	H	0.380409	0.994169	-0.140392
H138	H	0.880409	1.494169	0.359608
H139	H	0.265420	0.858230	-0.140362
H140	H	0.765420	1.358230	0.359638
H141	H	-0.051084	1.181210	-0.000020
H142	H	0.448916	1.681210	0.499980
H143	H	-0.063879	1.329578	-0.000027
H144	H	0.436121	1.829578	0.499973
