data_functionalizedCrystal
_audit_creation_method	'MofGen! by Chris Wilmer'
_symmetry_space_group_name_H-M	'P1'
_symmetry_Int_Tables_number	1
_symmetry_cell_setting	triclinic
loop_
_symmetry_equiv_pos_as_xyz
  x,y,z
_cell_length_a	17.699083
_cell_length_b	14.971486
_cell_length_c	14.048226
_cell_angle_alpha	89.993360
_cell_angle_beta	89.999567
_cell_angle_gamma	83.448572
loop_
_atom_site_label
_atom_site_type_symbol
_atom_site_fract_x
_atom_site_fract_y
_atom_site_fract_z
O1	O	1.004356	0.113112	-0.079028
O2	O	1.337689	0.446446	0.254306
O3	O	1.671023	0.779779	0.587639
O4	O	0.784014	0.127829	-0.079059
O5	O	1.117347	0.461162	0.254274
O6	O	1.450681	0.794495	0.587608
O7	O	0.900091	-0.009750	-0.079036
O8	O	1.233424	0.323583	0.254298
O9	O	1.566757	0.656917	0.587631
O10	O	0.888279	0.250691	-0.079051
O11	O	1.221613	0.584024	0.254282
O12	O	1.554946	0.917357	0.587616
O13	O	0.900077	-0.009758	0.079286
O14	O	1.233410	0.323575	0.412619
O15	O	1.566743	0.656909	0.745952
O16	O	0.784000	0.127820	0.079262
O17	O	1.117333	0.461154	0.412596
O18	O	1.450667	0.794487	0.745929
O19	O	1.004342	0.113104	0.079294
O20	O	1.337676	0.446438	0.412627
O21	O	1.671009	0.779771	0.745960
Zn22	Zn	0.894169	0.120461	0.104415
Zn23	Zn	1.227502	0.453794	0.437748
Zn24	Zn	1.560836	0.787128	0.771082
Zn25	Zn	0.894187	0.120472	-0.104180
Zn26	Zn	1.227521	0.453805	0.229153
Zn27	Zn	1.560854	0.787138	0.562487
O28	O	0.888265	0.250683	0.079270
O29	O	1.221599	0.584016	0.412604
O30	O	1.554932	0.917349	0.745937
C31	C	0.899556	-0.043077	0.000125
C32	C	1.232889	0.290256	0.333458
C33	C	1.566222	0.623590	0.666791
C34	C	0.897973	-0.142368	0.000124
C35	C	1.231306	0.190965	0.333457
C36	C	1.564639	0.524298	0.666790
C37	C	0.755809	0.127297	0.000098
C38	C	1.089142	0.460631	0.333431
C39	C	1.422475	0.793964	0.666765
C40	C	0.671787	0.125715	0.000086
C41	C	1.005120	0.459049	0.333419
C42	C	1.338453	0.792382	0.666753
C43	C	0.966165	-0.199828	0.000134
C44	C	1.299498	0.133505	0.333467
C45	C	1.632831	0.466838	0.666801
C46	C	0.964673	-0.293123	0.000124
C47	C	1.298006	0.040211	0.333458
C48	C	1.631339	0.373544	0.666791
C49	C	0.894988	-0.328955	0.000111
C50	C	1.228321	0.004378	0.333444
C51	C	1.561655	0.337711	0.666778
C52	C	0.826791	-0.271488	0.000098
C53	C	1.160124	0.061845	0.333431
C54	C	1.493458	0.395178	0.666764
C55	C	0.828284	-0.178196	0.000101
C56	C	1.161617	0.155138	0.333434
C57	C	1.494950	0.488471	0.666767
C58	C	0.823685	-0.465940	0.000094
C59	C	1.157018	-0.132607	0.333427
C60	C	1.490351	0.200727	0.666760
C61	C	0.822192	-0.559239	0.000093
C62	C	1.155525	-0.225906	0.333426
C63	C	1.488858	0.107428	0.666759
C64	C	0.960074	-0.580867	0.000117
C65	C	1.293407	-0.247534	0.333451
C66	C	1.626740	0.085800	0.666784
C67	C	0.961566	-0.487574	0.000120
C68	C	1.294900	-0.154241	0.333454
C69	C	1.628233	0.179092	0.666787
C70	C	0.893369	-0.430114	0.000109
C71	C	1.226702	-0.096780	0.333442
C72	C	1.560035	0.236553	0.666776
C73	C	0.623365	0.206471	0.000082
C74	C	0.956698	0.539804	0.333415
C75	C	1.290031	0.873138	0.666748
C76	C	0.544418	0.204979	0.000094
C77	C	0.877751	0.538313	0.333427
C78	C	1.211084	0.871646	0.666761
C79	C	0.513894	0.122731	0.000104
C80	C	0.847228	0.456064	0.333437
C81	C	1.180561	0.789398	0.666771
C82	C	0.562323	0.041969	0.000111
C83	C	0.895656	0.375302	0.333445
C84	C	1.228989	0.708636	0.666778
C85	C	0.641268	0.043462	0.000106
C86	C	0.974601	0.376795	0.333439
C87	C	1.307935	0.710128	0.666772
C88	C	0.243945	0.035947	0.000135
C89	C	0.577278	0.369281	0.333469
C90	C	0.910612	0.702614	0.666802
C91	C	0.164993	0.034461	0.000138
C92	C	0.498327	0.367794	0.333471
C93	C	0.831660	0.701128	0.666805
C94	C	0.147094	0.197465	0.000124
C95	C	0.480428	0.530798	0.333457
C96	C	0.813761	0.864132	0.666790
C97	C	0.226040	0.198958	0.000118
C98	C	0.559373	0.532291	0.333451
C99	C	0.892706	0.865624	0.666785
C100	C	0.274461	0.118196	0.000130
C101	C	0.607794	0.451530	0.333464
C102	C	0.941128	0.784863	0.666797
C103	C	0.360064	0.119815	0.000119
C104	C	0.693398	0.453148	0.333452
C105	C	1.026731	0.786481	0.666785
C106	C	0.428293	0.121111	0.000109
C107	C	0.761626	0.454445	0.333442
C108	C	1.094959	0.787778	0.666776
C109	C	1.032547	0.113636	0.000135
C110	C	1.365881	0.446969	0.333468
C111	C	1.699214	0.780302	0.666802
C112	C	1.116569	0.115218	0.000140
C113	C	1.449903	0.448551	0.333474
C114	C	1.783236	0.781884	0.666807
C115	C	0.888801	0.284010	0.000108
C116	C	1.222134	0.617343	0.333441
C117	C	1.555467	0.950676	0.666775
C118	C	0.890383	0.383301	0.000103
C119	C	1.223717	0.716635	0.333436
C120	C	1.557050	1.049968	0.666770
N121	N	0.894162	0.120453	0.246776
N122	N	1.227495	0.453787	0.580109
N123	N	1.560828	0.787120	0.913442
N124	N	0.894200	0.120472	-0.246541
N125	N	1.227534	0.453806	0.086793
N126	N	1.560867	0.787139	0.420126
C127	C	0.945577	0.059559	0.296604
C128	C	1.278910	0.392892	0.629937
C129	C	1.612243	0.726225	0.963271
C130	C	0.945582	0.059558	0.396262
C131	C	1.278915	0.392891	0.729595
C132	C	1.612249	0.726225	1.062928
C133	C	0.894175	0.120457	0.446089
C134	C	1.227508	0.453791	0.779423
C135	C	1.560842	0.787124	1.112756
C136	C	0.842755	0.181355	0.396254
C137	C	1.176088	0.514688	0.729587
C138	C	1.509421	0.848021	1.062921
C139	C	0.842746	0.181350	0.296598
C140	C	1.176080	0.514684	0.629931
C141	C	1.509413	0.848017	0.963265
C142	C	0.842776	0.181361	0.603968
C143	C	1.176110	0.514695	0.937301
C144	C	1.509443	0.848028	1.270635
C145	C	0.842785	0.181367	0.703631
C146	C	1.176119	0.514700	1.036964
C147	C	1.509452	0.848034	1.370298
C148	C	0.945612	0.059569	0.703632
C149	C	1.278945	0.392902	1.036965
C150	C	1.612279	0.726236	1.370298
C151	C	0.945604	0.059565	0.603976
C152	C	1.278937	0.392898	0.937309
C153	C	1.612270	0.726231	1.270643
C154	C	0.894184	0.120464	0.554148
C155	C	1.227517	0.453797	0.887481
C156	C	1.560851	0.787130	1.220814
H157	H	1.022910	-0.170661	0.000151
H158	H	1.356243	0.162672	0.333484
H159	H	1.689577	0.496006	0.666817
F160	F	0.095554	0.283419	0.000114
F161	F	0.428887	0.616753	0.333448
F162	F	0.762221	0.950086	0.666781
H163	H	0.800902	0.230949	0.563401
H164	H	1.134236	0.564282	0.896734
H165	H	1.467569	0.897616	1.230068
F166	F	0.132511	-0.053083	0.000149
F167	F	0.465844	0.280250	0.333482
F168	F	0.799177	0.613583	0.666816
F169	F	0.295469	-0.050006	0.000148
F170	F	0.628802	0.283327	0.333482
F171	F	0.962135	0.616660	0.666815
H172	H	0.250887	0.265933	0.000105
H173	H	0.584220	0.599266	0.333439
H174	H	0.917554	0.932599	0.666772
F175	F	1.000337	-0.005243	0.756667
F176	F	1.333670	0.328091	1.090000
F177	F	1.667003	0.661424	1.423333
H178	H	0.770052	-0.300671	0.000081
H179	H	1.103386	0.032663	0.333414
H180	H	1.436719	0.365996	0.666747
H181	H	0.537465	-0.024999	0.000133
H182	H	0.870798	0.308334	0.333467
H183	H	1.204131	0.641668	0.666800
F184	F	0.755704	-0.117043	0.000087
F185	F	1.089038	0.216291	0.333420
F186	F	1.422371	0.549624	0.666753
F187	F	0.692803	-0.042490	0.000114
F188	F	1.026136	0.290844	0.333447
F189	F	1.359470	0.624177	0.666781
H190	H	1.015603	-0.627656	0.000124
H191	H	1.348936	-0.294323	0.333457
H192	H	1.682269	0.039010	0.666790
H193	H	0.987441	0.009971	0.256041
H194	H	1.320775	0.343305	0.589374
H195	H	1.654108	0.676638	0.922708
H196	H	1.020202	-0.339903	0.000135
H197	H	1.353535	-0.006570	0.333468
H198	H	1.686868	0.326763	0.666801
F199	F	0.788039	0.246165	0.449285
F200	F	1.121372	0.579498	0.782618
F201	F	1.454706	0.912832	1.115951
F202	F	0.655842	0.294012	0.000065
F203	F	0.989175	0.627346	0.333398
F204	F	1.322509	0.960679	0.666731
F205	F	1.035732	-0.449441	0.000132
F206	F	1.369066	-0.116107	0.333466
F207	F	1.702399	0.217226	0.666799
F208	F	1.000302	-0.005254	0.449293
F209	F	1.333636	0.328080	0.782626
F210	F	1.666969	0.661413	1.115960
F211	F	0.751100	-0.404788	0.000079
F212	F	1.084434	-0.071454	0.333413
F213	F	1.417767	0.261879	0.666746
F214	F	0.788070	0.246183	0.756654
F215	F	1.121403	0.579517	1.089987
F216	F	1.454736	0.912850	1.423321
F217	F	0.788021	0.246161	0.243568
F218	F	1.121354	0.579494	0.576902
F219	F	1.454688	0.912827	0.910235
F220	F	0.748025	-0.597373	0.000080
F221	F	1.081359	-0.264039	0.333413
F222	F	1.414692	0.069294	0.666746
F223	F	0.492886	0.290931	0.000085
F224	F	0.826219	0.624264	0.333419
F225	F	1.159553	0.957597	0.666752
F226	F	1.000320	-0.005245	0.550945
F227	F	1.333653	0.328088	0.884279
F228	F	1.666987	0.661422	1.217612
