data_functionalizedCrystal
_audit_creation_method	'MofGen! by Chris Wilmer'
_symmetry_space_group_name_H-M	'P1'
_symmetry_Int_Tables_number	1
_symmetry_cell_setting	triclinic
loop_
_symmetry_equiv_pos_as_xyz
  x,y,z
_cell_length_a	18.101398
_cell_length_b	19.121063
_cell_length_c	18.101389
_cell_angle_alpha	92.419391
_cell_angle_beta	89.975673
_cell_angle_gamma	92.464489
loop_
_atom_site_label
_atom_site_type_symbol
_atom_site_fract_x
_atom_site_fract_y
_atom_site_fract_z
Zn1	Zn	1.119554	-0.279777	-0.431404
Zn2	Zn	1.619554	0.220223	0.068596
Zn3	Zn	1.114175	-0.397213	-0.312837
Zn4	Zn	1.614175	0.102787	0.187163
Zn5	Zn	0.995713	-0.279770	-0.307565
Zn6	Zn	1.495713	0.220230	0.192435
Zn7	Zn	0.990390	-0.397183	-0.436624
Zn8	Zn	1.490390	0.102817	0.063376
O9	O	1.054958	-0.338486	-0.372107
O10	O	1.554958	0.161514	0.127893
O11	O	1.222473	-0.295371	-0.415698
O12	O	1.722473	0.204629	0.084302
O13	O	1.098437	-0.381644	-0.208505
O14	O	1.598437	0.118356	0.291495
O15	O	1.016620	-0.181486	-0.319601
O16	O	1.516620	0.318514	0.180399
O17	O	1.218521	-0.381651	-0.328587
O18	O	1.718521	0.118349	0.171413
O19	O	1.107605	-0.181491	-0.410586
O20	O	1.607605	0.318509	0.089414
O21	O	1.011404	-0.295359	-0.204632
O22	O	1.511404	0.204641	0.295368
O23	O	0.891375	-0.295330	-0.324663
O24	O	1.391375	0.204670	0.175337
O25	O	1.007547	-0.381599	-0.539564
O26	O	1.507547	0.118401	-0.039564
O27	O	0.887464	-0.381592	-0.419482
O28	O	1.387464	0.118408	0.080518
O29	O	1.102443	-0.295342	-0.535729
O30	O	1.602443	0.204658	-0.035729
O31	O	1.093276	-0.495494	-0.333648
O32	O	1.593276	0.004506	0.166352
O33	O	1.002331	-0.495472	-0.424594
O34	O	1.502331	0.004528	0.075406
C35	C	0.862549	-0.338457	-0.372067
C36	C	1.362549	0.161543	0.127933
C37	C	0.780234	-0.338462	-0.372069
C38	C	1.280234	0.161538	0.127931
C39	C	0.481141	-0.338506	-0.372133
C40	C	0.981141	0.161494	0.127867
C41	C	0.514915	-0.283961	-0.312742
C42	C	1.014915	0.216039	0.187258
C43	C	0.600526	-0.284107	-0.312506
C44	C	1.100526	0.215893	0.187494
C45	C	0.629525	-0.338484	-0.372101
C46	C	1.129525	0.161516	0.127899
C47	C	0.595084	-0.412466	-0.354099
C48	C	1.095084	0.087534	0.145901
C49	C	0.509452	-0.412163	-0.353690
C50	C	1.009452	0.087837	0.146310
C51	C	0.513600	-0.319712	-0.449688
C52	C	1.013600	0.180288	0.050312
C53	C	0.599325	-0.318065	-0.449186
C54	C	1.099325	0.181935	0.050814
C55	C	0.713385	-0.338476	-0.372084
C56	C	1.213385	0.161524	0.127916
C57	C	0.397281	-0.338519	-0.372148
C58	C	0.897281	0.161481	0.127852
C59	C	1.046662	-0.520967	-0.380276
C60	C	1.546662	-0.020967	0.119724
C61	C	1.043181	-0.599034	-0.383795
C62	C	1.543181	-0.099034	0.116205
C63	C	1.088932	-0.635698	-0.338137
C64	C	1.588932	-0.135698	0.161863
C65	C	1.085662	-0.709049	-0.341451
C66	C	1.585662	-0.209049	0.158549
C67	C	1.036637	-0.745735	-0.390420
C68	C	1.536637	-0.245735	0.109580
C69	C	0.990884	-0.709066	-0.436083
C70	C	1.490884	-0.209066	0.063917
C71	C	0.994158	-0.635716	-0.432772
C72	C	1.494158	-0.135716	0.067228
C73	C	1.024385	-0.967206	-0.402788
C74	C	1.524385	-0.467206	0.097212
C75	C	1.021113	-1.040562	-0.406094
C76	C	1.521113	-0.540562	0.093906
C77	C	1.115892	-1.040539	-0.311462
C78	C	1.615892	-0.540539	0.188538
C79	C	1.119159	-0.967188	-0.308152
C80	C	1.619159	-0.467188	0.191848
C81	C	1.073408	-0.930525	-0.353818
C82	C	1.573408	-0.430525	0.146182
C83	C	1.033292	-0.820713	-0.393807
C84	C	1.533292	-0.320713	0.106193
C85	C	1.076758	-0.855549	-0.350434
C86	C	1.576758	-0.355549	0.149566
C87	C	1.248119	-0.338515	-0.372148
C88	C	1.748119	0.161485	0.127852
C89	C	1.330432	-0.338528	-0.372165
C90	C	1.830432	0.161472	0.127835
C91	C	1.055002	-0.338468	-0.565269
C92	C	1.555002	0.161532	-0.065269
C93	C	1.055020	-0.338461	-0.647582
C94	C	1.555020	0.161539	-0.147582
C95	C	1.063306	-0.155292	-0.363923
C96	C	1.563306	0.344708	0.136077
C97	C	1.066864	-0.077226	-0.360436
C98	C	1.566864	0.422774	0.139564
C99	C	1.055069	-0.338329	-0.946668
C100	C	1.555069	0.161671	-0.446668
C101	C	0.995174	-0.392427	-0.917747
C102	C	1.495174	0.107573	-0.417747
C103	C	0.995318	-0.392678	-0.832140
C104	C	1.495318	0.107322	-0.332140
C105	C	1.055044	-0.338394	-0.798288
C106	C	1.555044	0.161606	-0.298288
C107	C	1.132167	-0.358491	-0.830296
C108	C	1.632167	0.141509	-0.330296
C109	C	1.131831	-0.358846	-0.915957
C110	C	1.631831	0.141154	-0.415957
C111	C	1.038526	-0.264013	-0.911754
C112	C	1.538526	0.235987	-0.411754
C113	C	1.036771	-0.264443	-0.826122
C114	C	1.536771	0.235557	-0.326122
C115	C	1.055035	-0.338430	-0.714430
C116	C	1.555035	0.161570	-0.214430
C117	C	1.055084	-0.338295	-1.030526
C118	C	1.555084	0.161705	-0.530526
C119	C	1.054959	-0.338453	-0.179695
C120	C	1.554959	0.161547	0.320305
C121	C	1.055093	-0.338263	-0.097373
C122	C	1.555093	0.161737	0.402627
H123	H	0.613574	-0.454195	-0.396148
H124	H	1.113574	0.045805	0.103852
H125	H	0.619076	-0.354899	-0.495539
H126	H	1.119076	0.145101	0.004461
N127	N	0.488205	-0.249495	-0.472238
N128	N	0.988205	0.250505	0.027762
H129	H	0.432444	-0.250957	-0.475263
H130	H	0.932444	0.249043	0.024737
H131	H	0.505528	-0.212034	-0.434398
H132	H	1.005528	0.287966	0.065602
N133	N	0.490935	-0.211067	-0.326964
N134	N	0.990935	0.288933	0.173036
H135	H	0.457945	-0.212690	-0.372043
H136	H	0.957945	0.287310	0.127957
H137	H	0.462898	-0.192314	-0.282670
H138	H	0.962898	0.307686	0.217330
H139	H	0.937700	-0.379979	-0.937774
H140	H	1.437700	0.120021	-0.437774
H141	H	0.950970	-0.738942	-0.475958
H142	H	1.450970	-0.238942	0.024042
N143	N	1.009140	-0.464955	-0.949489
N144	N	1.509140	0.035045	-0.449489
H145	H	1.054094	-0.462921	-0.982525
H146	H	1.554094	0.037079	-0.482525
H147	H	1.017915	-0.497182	-0.907878
H148	H	1.517915	0.002818	-0.407878
H149	H	0.622115	-0.263622	-0.462821
H150	H	1.122115	0.236378	0.037179
N151	N	0.944816	-0.596168	-0.482020
N152	N	1.444816	-0.096168	0.017980
H153	H	0.913260	-0.630537	-0.513544
H154	H	1.413260	-0.130537	-0.013544
H155	H	0.911918	-0.565772	-0.450470
H156	H	1.411918	-0.065772	0.049530
N157	N	0.484410	-0.372335	-0.508254
N158	N	0.984410	0.127665	-0.008254
H159	H	0.450328	-0.408177	-0.484706
H160	H	0.950328	0.091823	0.015294
H161	H	0.456287	-0.347388	-0.546692
H162	H	0.956287	0.152612	-0.046692
N163	N	0.631665	-0.211436	-0.326939
N164	N	1.131665	0.288564	0.173061
H165	H	0.663355	-0.193558	-0.283677
H166	H	1.163355	0.306442	0.216323
H167	H	0.662691	-0.213096	-0.373315
H168	H	1.162691	0.286904	0.126685
H169	H	0.980032	-0.249287	-0.805110
H170	H	1.480032	0.250713	-0.305110
H171	H	1.005969	-0.447763	-0.814132
H172	H	1.505969	0.052237	-0.314132
N173	N	0.481992	-0.433263	-0.278717
N174	N	0.981992	0.066737	0.221283
H175	H	0.426204	-0.433275	-0.277699
H176	H	0.926204	0.066725	0.222301
H177	H	0.498638	-0.481749	-0.268882
H178	H	0.998638	0.018251	0.231118
H179	H	0.987132	-0.937361	-0.439969
H180	H	1.487132	-0.437361	0.060031
H181	H	1.128850	-0.605832	-0.298258
H182	H	1.628850	-0.105832	0.201742
N183	N	0.485382	-0.300031	-0.237015
N184	N	0.985382	0.199969	0.262985
H185	H	0.450251	-0.342512	-0.241007
H186	H	0.950251	0.157488	0.258993
H187	H	0.527792	-0.309688	-0.203209
H188	H	1.027792	0.190312	0.296791
N189	N	1.135008	-0.748595	-0.292206
N190	N	1.635008	-0.248595	0.207794
H191	H	1.166558	-0.714224	-0.260678
H192	H	1.666558	-0.214224	0.239322
H193	H	1.103521	-0.779068	-0.259282
H194	H	1.603521	-0.279068	0.240718
N195	N	0.626880	-0.300561	-0.236293
N196	N	1.126880	0.199439	0.263707
H197	H	0.605857	-0.348137	-0.222882
H198	H	1.105857	0.151863	0.277118
H199	H	0.682667	-0.300684	-0.235869
H200	H	1.182667	0.199316	0.264131
H201	H	1.077478	-0.221996	-0.802832
H202	H	1.577478	0.278004	-0.302832
H203	H	0.993375	-0.850591	-0.433677
H204	H	1.493375	-0.350591	0.066323
H205	H	1.177791	-0.321154	-0.935005
H206	H	1.677791	0.178846	-0.435005
N207	N	1.192680	-0.307936	-0.801091
N208	N	1.692680	0.192064	-0.301091
H209	H	1.170630	-0.271433	-0.766745
H210	H	1.670630	0.228567	-0.266745
H211	H	1.230141	-0.334348	-0.773254
H212	H	1.730141	0.165652	-0.273254
H213	H	0.486843	-0.454179	-0.395241
H214	H	0.986843	0.045821	0.104759
H215	H	1.159079	-0.937319	-0.268278
H216	H	1.659079	-0.437319	0.231722
H217	H	0.615770	-0.428682	-0.298133
H218	H	1.115770	0.071318	0.201867
N219	N	1.151688	-0.429685	-0.805095
N220	N	1.651688	0.070315	-0.305095
H221	H	1.110690	-0.449022	-0.772957
H222	H	1.610690	0.050978	-0.272957
H223	H	1.158196	-0.462415	-0.849664
H224	H	1.658196	0.037585	-0.349664
H225	H	1.116677	-0.825677	-0.310566
H226	H	1.616677	-0.325677	0.189434
H227	H	0.938024	-0.380101	-0.810543
H228	H	1.438024	0.119899	-0.310543
N229	N	1.165231	-1.080082	-0.262208
N230	N	1.665231	-0.580082	0.237792
H231	H	1.155720	-1.132116	-0.271732
H232	H	1.655720	-0.632116	0.228268
H233	H	1.218690	-1.067219	-0.273204
H234	H	1.718690	-0.567219	0.226796
H235	H	1.082192	-0.223708	-0.930220
H236	H	1.582192	0.276292	-0.430220
H237	H	0.983441	-0.245705	-0.932518
H238	H	1.483441	0.254295	-0.432518
N239	N	1.150917	-0.430804	-0.945672
N240	N	1.650917	0.069196	-0.445672
H241	H	1.201553	-0.442162	-0.927403
H242	H	1.701553	0.057838	-0.427403
H243	H	1.113054	-0.466663	-0.928010
H244	H	1.613054	0.033337	-0.428010
H245	H	0.981200	-1.070430	-0.445983
H246	H	1.481200	-0.570430	0.054017
