data_functionalizedCrystal
_audit_creation_method	'MofGen! by Chris Wilmer'
_symmetry_space_group_name_H-M	'P1'
_symmetry_Int_Tables_number	1
_symmetry_cell_setting	triclinic
loop_
_symmetry_equiv_pos_as_xyz
  x,y,z
_cell_length_a	19.188929
_cell_length_b	19.188905
_cell_length_c	13.101039
_cell_angle_alpha	86.647018
_cell_angle_beta	86.670828
_cell_angle_gamma	96.860334
loop_
_atom_site_label
_atom_site_type_symbol
_atom_site_fract_x
_atom_site_fract_y
_atom_site_fract_z
O1	O	-0.083209	0.930018	-0.085431
O2	O	0.416791	1.430018	0.414569
O3	O	-0.094963	0.726703	-0.085402
O4	O	0.405037	1.226703	0.414598
O5	O	0.012568	0.834225	-0.085354
O6	O	0.512568	1.334225	0.414646
O7	O	-0.190739	0.822497	-0.085479
O8	O	0.309261	1.322497	0.414521
O9	O	0.004840	0.826511	0.085072
O10	O	0.504840	1.326511	0.585072
O11	O	-0.102691	0.718989	0.085024
O12	O	0.397309	1.218989	0.585024
O13	O	-0.090937	0.922304	0.084996
O14	O	0.409063	1.422304	0.584996
Zn15	Zn	-0.098041	0.819421	0.112069
Zn16	Zn	0.401959	1.319421	0.612069
Zn17	Zn	-0.087859	0.829586	-0.112475
Zn18	Zn	0.412141	1.329586	0.387525
O19	O	-0.198467	0.814782	0.084947
O20	O	0.301533	1.314782	0.584947
C21	C	-0.098449	0.696835	-0.000184
C22	C	0.401551	1.196835	0.499816
C23	C	-0.097316	0.619328	-0.000170
C24	C	0.402684	1.119328	0.499830
C25	C	-0.092559	0.587142	-0.093072
C26	C	0.407441	1.087142	0.406928
C27	C	-0.091485	0.514319	-0.093084
C28	C	0.408515	1.014319	0.406916
C29	C	-0.095155	0.473687	-0.000189
C30	C	0.404845	0.973687	0.499811
C31	C	-0.099917	0.505881	0.092725
C32	C	0.400083	1.005881	0.592725
C33	C	-0.100997	0.578702	0.092734
C34	C	0.399003	1.078702	0.592734
N35	N	-0.056863	0.361536	0.068969
N36	N	0.443137	0.861536	0.568969
N37	N	-0.055834	0.292360	0.068954
N38	N	0.444166	0.792360	0.568954
C39	C	-0.091902	0.254281	-0.000212
C40	C	0.408098	0.754281	0.499788
N41	N	-0.129026	0.287994	-0.069377
N42	N	0.370974	0.787994	0.430623
N43	N	-0.130051	0.357177	-0.069365
N44	N	0.369949	0.857177	0.430635
C45	C	-0.093985	0.394724	-0.000189
C46	C	0.406015	0.894724	0.499811
C47	C	-0.085981	0.143132	-0.093133
C48	C	0.414019	0.643132	0.406867
C49	C	-0.084912	0.070307	-0.093141
C50	C	0.415088	0.570307	0.406859
C51	C	-0.093337	0.061871	0.092670
C52	C	0.406663	0.561871	0.592670
C53	C	-0.094413	0.134694	0.092676
C54	C	0.405587	0.634694	0.592676
C55	C	-0.090731	0.175320	-0.000229
C56	C	0.409269	0.675320	0.499771
C57	C	-0.220613	0.819020	-0.000282
C58	C	0.279387	1.319020	0.499718
C59	C	-0.298116	0.820163	-0.000331
C60	C	0.201884	1.320163	0.499669
C61	C	-0.343046	0.757070	-0.000302
C62	C	0.156954	1.257070	0.499698
C63	C	-0.415871	0.758141	-0.000279
C64	C	0.084129	1.258141	0.499721
C65	C	-0.443763	0.822307	-0.000264
C66	C	0.056237	1.322307	0.499736
C67	C	-0.398822	0.885408	-0.000300
C68	C	0.101178	1.385408	0.499700
C69	C	-0.325998	0.884336	-0.000333
C70	C	0.174002	1.384336	0.499667
N71	N	-0.554359	0.868726	0.057793
N72	N	-0.054359	1.368726	0.557793
N73	N	-0.623539	0.869740	0.057827
N74	N	-0.123539	1.369740	0.557827
C75	C	-0.663175	0.825541	-0.000166
C76	C	-0.163175	1.325541	0.499834
N77	N	-0.631020	0.780278	-0.058182
N78	N	-0.131020	1.280278	0.441818
N79	N	-0.561834	0.779261	-0.058211
N80	N	-0.061834	1.279261	0.441789
C81	C	-0.522727	0.823476	-0.000229
C82	C	-0.022727	1.323476	0.499771
C83	C	-0.787072	0.763604	-0.000113
C84	C	-0.287072	1.263604	0.499887
C85	C	-0.859897	0.764678	-0.000097
C86	C	-0.359897	1.264678	0.499903
C87	C	-0.842847	0.891947	-0.000108
C88	C	-0.342847	1.391947	0.499892
C89	C	-0.770022	0.890872	-0.000135
C90	C	-0.270022	1.390872	0.499865
C91	C	-0.742140	0.826699	-0.000133
C92	C	-0.242140	1.326699	0.499867
C93	C	0.034714	0.829987	-0.000127
C94	C	0.534714	1.329987	0.499873
C95	C	0.112216	0.828845	-0.000084
C96	C	0.612216	1.328845	0.499916
C97	C	-0.087450	0.952173	-0.000224
C98	C	0.412550	1.452173	0.499776
C99	C	-0.088583	1.029679	-0.000245
C100	C	0.411417	1.529679	0.499755
N101	N	-0.104989	0.812490	0.265314
N102	N	0.395011	1.312490	0.765314
N103	N	-0.080905	0.836523	-0.265721
N104	N	0.419095	1.336523	0.234279
C105	C	-0.114449	0.803059	0.474353
C106	C	0.385551	1.303059	0.974353
C107	C	-0.071447	0.845952	0.525248
C108	C	0.428553	1.345952	1.025248
C109	C	-0.076711	0.840704	0.641564
C110	C	0.423289	1.340704	1.141564
C111	C	-0.109186	0.808305	0.358026
C112	C	0.390814	1.308305	0.858026
H113	H	-0.087613	0.488107	-0.168738
H114	H	0.412387	0.988107	0.331262
H115	H	-0.155215	0.762399	0.518131
H116	H	0.344785	1.262399	1.018131
C117	C	-0.909322	0.695272	-0.000062
C118	C	-0.409322	1.195272	0.499938
H119	H	-0.882284	0.656902	-0.000056
H120	H	-0.382284	1.156902	0.499944
H121	H	-0.935420	0.695729	-0.059481
H122	H	-0.435420	1.195729	0.440519
H123	H	-0.940750	0.690360	0.059390
H124	H	-0.440750	1.190360	0.559390
H125	H	-0.102907	0.472793	0.168361
H126	H	0.397093	0.972793	0.668361
C127	C	-0.099636	0.170102	0.194869
C128	C	0.400364	0.670102	0.694869
H129	H	-0.101663	0.135476	0.250194
H130	H	0.398337	0.635476	0.750194
H131	H	-0.140937	0.192880	0.198712
H132	H	0.359063	0.692880	0.698712
H133	H	-0.059521	0.203788	0.198757
H134	H	0.440479	0.703788	0.698757
C135	C	-0.097604	0.017154	0.194853
C136	C	0.402396	0.517154	0.694853
H137	H	-0.096346	-0.030835	0.181543
H138	H	0.403654	0.469165	0.681543
H139	H	-0.140278	0.021986	0.232786
H140	H	0.359722	0.521986	0.732786
H141	H	-0.058880	0.032705	0.233265
H142	H	0.441120	0.532705	0.733265
H143	H	-0.082991	0.176211	-0.168782
H144	H	0.417009	0.676211	0.331218
C145	C	-0.088520	0.631826	-0.195263
C146	C	0.411480	1.131826	0.304737
H147	H	-0.085539	0.602222	-0.250594
H148	H	0.414461	1.102222	0.249406
H149	H	-0.048063	0.665867	-0.199100
H150	H	0.451937	1.165867	0.300900
H151	H	-0.129478	0.654949	-0.199145
H152	H	0.370522	1.154949	0.300855
C153	C	-0.016394	0.900906	0.466107
C154	C	0.483606	1.400906	0.966107
H155	H	-0.020044	0.897282	0.394555
H156	H	0.479956	1.397282	0.894555
H157	H	0.029391	0.892632	0.483643
H158	H	0.529391	1.392632	0.983643
H159	H	-0.024584	0.946716	0.483624
H160	H	0.475416	1.446716	0.983624
C161	C	-0.312375	0.686485	-0.000315
C162	C	0.187625	1.186485	0.499685
H163	H	-0.262568	0.694880	-0.000334
H164	H	0.237432	1.194880	0.499666
H165	H	-0.325150	0.663206	-0.059738
H166	H	0.174850	1.163206	0.440262
H167	H	-0.330476	0.657825	0.059132
H168	H	0.169524	1.157825	0.559132
C169	C	-0.106219	0.614110	0.194931
C170	C	0.393781	1.114110	0.694931
H171	H	-0.108246	0.579484	0.250257
H172	H	0.391754	1.079484	0.750257
H173	H	-0.147517	0.636893	0.198777
H174	H	0.352483	1.136893	0.698777
H175	H	-0.066101	0.647793	0.198813
H176	H	0.433899	1.147793	0.698813
H177	H	-0.452461	0.706761	-0.000252
H178	H	0.047539	1.206761	0.499748
C179	C	-0.079675	0.034902	-0.195339
C180	C	0.420325	0.534902	0.304661
H181	H	-0.077630	0.069531	-0.250663
H182	H	0.422370	0.569531	0.249337
H183	H	-0.119783	0.001215	-0.199240
H184	H	0.380217	0.501215	0.300760
H185	H	-0.038368	0.012126	-0.199168
H186	H	0.461632	0.512126	0.300832
C187	C	-0.756394	0.693020	-0.000122
C188	C	-0.256394	1.193020	0.499878
H189	H	-0.706588	0.701417	-0.000131
H190	H	-0.206588	1.201417	0.499869
H191	H	-0.769162	0.669741	-0.059546
H192	H	-0.269162	1.169741	0.440454
H193	H	-0.774499	0.664361	0.059324
H194	H	-0.274499	1.164361	0.559324
C195	C	-0.429500	0.955989	-0.000279
C196	C	0.070500	1.455989	0.499721
H197	H	-0.479307	0.947591	-0.000243
H198	H	0.020693	1.447591	0.499757
H199	H	-0.411400	0.984651	-0.059717
H200	H	0.088600	1.484651	0.440283
H201	H	-0.416726	0.979265	0.059153
H202	H	0.083274	1.479265	0.559153
C203	C	-0.276572	0.953741	-0.000356
C204	C	0.223428	1.453741	0.499644
H205	H	-0.303611	0.992111	-0.000339
H206	H	0.196389	1.492111	0.499661
H207	H	-0.245140	0.958659	-0.059796
H208	H	0.254860	1.458659	0.440204
H209	H	-0.250480	0.953275	0.059074
H210	H	0.249520	1.453275	0.559074
C211	C	-0.873519	0.962528	-0.000087
C212	C	-0.373519	1.462528	0.499913
H213	H	-0.923326	0.954131	-0.000056
H214	H	-0.423326	1.454131	0.499944
H215	H	-0.855416	0.991192	-0.059523
H216	H	-0.355416	1.491192	0.440477
H217	H	-0.860747	0.985803	0.059347
H218	H	-0.360747	1.485803	0.559347
C219	C	-0.720597	0.960274	-0.000150
C220	C	-0.220597	1.460274	0.499850
H221	H	-0.747636	0.998643	-0.000129
H222	H	-0.247636	1.498643	0.499871
H223	H	-0.689166	0.965195	-0.059592
H224	H	-0.189166	1.465195	0.440408
H225	H	-0.694503	0.959807	0.059278
H226	H	-0.194503	1.459807	0.559278
