data_functionalizedCrystal
_audit_creation_method	'MofGen! by Chris Wilmer'
_symmetry_space_group_name_H-M	'P1'
_symmetry_Int_Tables_number	1
_symmetry_cell_setting	triclinic
loop_
_symmetry_equiv_pos_as_xyz
  x,y,z
_cell_length_a	6.394989
_cell_length_b	17.699083
_cell_length_c	16.176319
_cell_angle_alpha	90.007696
_cell_angle_beta	90.006825
_cell_angle_gamma	84.890363
loop_
_atom_site_label
_atom_site_type_symbol
_atom_site_fract_x
_atom_site_fract_y
_atom_site_fract_z
O1	O	-2.770874	-0.123990	-0.068740
O2	O	-2.270874	0.376010	0.431260
O3	O	-2.162714	-0.130236	-0.068744
O4	O	-1.662714	0.369764	0.431256
O5	O	-2.483976	-0.017099	-0.068735
O6	O	-1.983976	0.482901	0.431265
O7	O	-2.449612	-0.237127	-0.068749
O8	O	-1.949612	0.262873	0.431251
O9	O	-2.483932	-0.017091	0.068758
O10	O	-1.983932	0.482909	0.568758
O11	O	-2.162670	-0.130228	0.068749
O12	O	-1.662670	0.369772	0.568749
O13	O	-2.770830	-0.123982	0.068753
O14	O	-2.270830	0.376018	0.568753
Cu15	Cu	-2.466746	-0.127104	0.081305
Cu16	Cu	-1.966746	0.372896	0.581305
Cu17	Cu	-2.466798	-0.127114	-0.081296
Cu18	Cu	-1.966798	0.372886	0.418704
O19	O	-2.449568	-0.237119	0.068744
O20	O	-1.949568	0.262881	0.568744
C21	C	-2.482722	0.011114	0.000012
C22	C	-1.982722	0.511114	0.500012
C23	C	-2.479028	0.095170	0.000012
C24	C	-1.979028	0.595170	0.500012
C25	C	-2.450821	-0.265332	-0.000005
C26	C	-1.950821	0.234668	0.499995
C27	C	-2.454515	-0.349388	-0.000011
C28	C	-1.954515	0.150612	0.499989
N29	N	-2.466724	-0.127097	0.195671
N30	N	-1.966724	0.372903	0.695671
C31	C	-2.084876	-0.128997	0.000007
C32	C	-1.584876	0.371003	0.500007
C33	C	-1.848661	-0.125223	0.000010
C34	C	-1.348661	0.374777	0.500010
N35	N	-2.466836	-0.127115	-0.195662
N36	N	-1.966836	0.372885	0.304338
C37	C	-2.667602	0.141867	0.000015
C38	C	-2.167602	0.641867	0.500015
C39	C	-2.664119	0.220846	0.000007
C40	C	-2.164119	0.720846	0.500007
C41	C	-2.472059	0.253126	0.000004
C42	C	-1.972059	0.753126	0.500004
C43	C	-2.283471	0.206424	-0.000001
C44	C	-1.783471	0.706424	0.499999
C45	C	-2.286956	0.127446	0.000000
C46	C	-1.786956	0.627446	0.500000
C47	C	-2.269410	0.524930	-0.000008
C48	C	-1.769410	1.024930	0.499992
C49	C	-2.265939	0.603914	-0.000007
C50	C	-1.765939	1.103914	0.499993
C51	C	-2.646572	0.618330	-0.000001
C52	C	-2.146572	1.118330	0.499999
C53	C	-2.650058	0.539352	0.000000
C54	C	-2.150058	1.039352	0.500000
C55	C	-2.461471	0.492657	-0.000009
C56	C	-1.961471	0.992657	0.499991
C57	C	-2.465250	0.407019	-0.000002
C58	C	-1.965250	0.907019	0.499998
C59	C	-2.468278	0.338763	0.000003
C60	C	-1.968278	0.838763	0.500003
C61	C	-2.609022	-0.077022	0.238939
C62	C	-2.109022	0.422978	0.738939
C63	C	-2.609032	-0.077021	0.325486
C64	C	-2.109032	0.422979	0.825486
C65	C	-2.466754	-0.127100	0.368763
C66	C	-1.966754	0.372900	0.868763
C67	C	-2.324441	-0.177178	0.325489
C68	C	-1.824441	0.322822	0.825489
C69	C	-2.324422	-0.177175	0.238943
C70	C	-1.824422	0.322825	0.738943
C71	C	-2.324512	-0.177193	0.674517
C72	C	-1.824512	0.322807	1.174517
C73	C	-2.324547	-0.177194	0.761069
C74	C	-1.824547	0.322806	1.261069
C75	C	-2.609123	-0.077040	0.761060
C76	C	-2.109123	0.422960	1.261060
C77	C	-2.609104	-0.077036	0.674514
C78	C	-2.109104	0.422964	1.174514
C79	C	-2.466785	-0.127111	0.631247
C80	C	-1.966785	0.372889	1.131247
C81	C	-2.466772	-0.127110	0.537403
C82	C	-1.966772	0.372890	1.037403
C83	C	-2.466774	-0.127105	0.462606
C84	C	-1.966774	0.372895	0.962606
H85	H	-2.824000	0.115590	0.000023
H86	H	-2.324000	0.615590	0.500023
H87	H	-2.817675	0.258863	0.000011
H88	H	-2.317675	0.758863	0.500011
H89	H	-2.208678	-0.217976	0.796304
H90	H	-1.708678	0.282024	1.296304
H91	H	-2.208635	-0.217967	0.639296
H92	H	-1.708635	0.282033	1.139296
Br93	Br	-2.131328	-0.245139	0.384219
Br94	Br	-1.631328	0.254861	0.884219
H95	H	-2.127092	0.232713	-0.000009
H96	H	-1.627092	0.732713	0.499991
H97	H	-2.109532	0.630193	-0.000008
H98	H	-1.609532	1.130193	0.499992
Br99	Br	-2.910719	0.495547	0.000005
Br100	Br	-2.410719	0.995547	0.500005
H101	H	-2.115850	0.486920	-0.000015
H102	H	-1.615850	0.986920	0.499985
H103	H	-2.133400	0.089426	-0.000002
H104	H	-1.633400	0.589426	0.499998
Br105	Br	-2.802141	-0.009059	0.180214
Br106	Br	-2.302141	0.490941	0.680214
Br107	Br	-2.131282	-0.245132	0.180222
Br108	Br	-1.631282	0.254868	0.680222
H109	H	-2.724900	-0.036245	0.360714
H110	H	-2.224900	0.463755	0.860714
Br111	Br	-2.802272	-0.009078	0.819782
Br112	Br	-2.302272	0.490922	1.319782
H113	H	-2.800129	0.656359	0.000002
H114	H	-2.300129	1.156359	0.500002
Br115	Br	-2.802212	-0.009074	0.615783
Br116	Br	-2.302212	0.490926	1.115783
