data_functionalizedCrystal
_audit_creation_method	'MofGen! by Chris Wilmer'
_symmetry_space_group_name_H-M	'P1'
_symmetry_Int_Tables_number	1
_symmetry_cell_setting	triclinic
loop_
_symmetry_equiv_pos_as_xyz
  x,y,z
_cell_length_a	16.109301
_cell_length_b	16.109302
_cell_length_c	15.186229
_cell_angle_alpha	89.990142
_cell_angle_beta	89.986602
_cell_angle_gamma	83.461631
loop_
_atom_site_label
_atom_site_type_symbol
_atom_site_fract_x
_atom_site_fract_y
_atom_site_fract_z
O1	O	0.106878	1.103135	-0.073271
O2	O	0.120177	0.861073	-0.073264
O3	O	-0.007503	0.988753	-0.073259
O4	O	0.234559	0.975454	-0.073276
O5	O	-0.007524	0.988736	0.073198
O6	O	0.120156	0.861055	0.073193
O7	O	0.106858	1.103117	0.073186
Zn8	Zn	0.113504	0.982084	0.096443
Zn9	Zn	0.113531	0.982106	-0.096521
O10	O	0.234538	0.975437	0.073181
C11	C	0.119628	0.830089	-0.000035
C12	C	0.118013	0.737794	-0.000032
C13	C	0.114266	0.525444	0.079793
C14	C	0.112739	0.438724	0.079790
C15	C	0.112766	0.438753	-0.079885
C16	C	0.114287	0.525472	-0.079881
C17	C	0.115041	0.568815	-0.000039
C18	C	0.111994	0.395375	-0.000046
C19	C	0.110338	0.301350	-0.000050
C20	C	0.116695	0.662847	-0.000035
C21	C	-0.038488	0.988206	-0.000030
C22	C	-0.130784	0.986591	-0.000028
C23	C	-0.353056	1.058599	-0.000044
C24	C	-0.439776	1.057074	-0.000052
C25	C	-0.419902	0.905586	-0.000044
C26	C	-0.333184	0.907111	-0.000043
C27	C	-0.299763	0.983620	-0.000039
C28	C	-0.473202	0.980571	-0.000047
C29	C	-0.567228	0.978918	-0.000055
C30	C	-0.205731	0.985273	-0.000033
C31	C	0.265523	0.975984	-0.000050
C32	C	0.357819	0.977599	-0.000057
C33	C	0.107407	1.134101	-0.000045
C34	C	0.109022	1.226396	-0.000054
N35	N	0.113485	0.982074	0.228136
N36	N	0.113543	0.982123	-0.228214
C37	C	0.063082	0.931693	0.546093
C38	C	0.063070	0.931686	0.453903
C39	C	0.163949	1.032509	0.453835
C40	C	0.163956	1.032520	0.546023
C41	C	0.113524	0.982107	0.592150
C42	C	0.113505	0.982089	0.407772
C43	C	0.113492	0.982082	0.307816
C44	C	0.113535	0.982116	0.692112
H45	H	0.112153	0.403453	-0.144890
C46	C	0.219447	1.087976	0.596689
H47	H	0.249490	1.117989	0.556016
H48	H	0.185389	1.126249	0.632652
H49	H	0.257707	1.053894	0.632648
C50	C	-0.274558	0.824630	-0.000034
H51	H	-0.306880	0.778846	-0.000024
H52	H	-0.240304	0.822081	-0.051106
H53	H	-0.240328	0.822075	0.051046
H54	H	0.022016	0.890644	0.583646
C55	C	-0.316295	1.142754	-0.000050
H56	H	-0.360458	1.187190	-0.000062
H57	H	-0.282890	1.146497	0.051023
H58	H	-0.282869	1.146500	-0.051130
C59	C	0.007588	0.876226	0.403245
H60	H	-0.022440	0.846202	0.443922
H61	H	-0.030673	0.910297	0.367285
H62	H	0.041653	0.837950	0.367283
C63	C	0.219428	1.087950	0.403094
H64	H	0.212207	1.080717	0.341593
H65	H	0.203999	1.144840	0.418186
H66	H	0.276314	1.072481	0.418190
C67	C	0.115144	0.573187	-0.167700
H68	H	0.116149	0.631042	-0.156260
H69	H	0.163355	0.552629	-0.200506
H70	H	0.066440	0.565338	-0.200502
C71	C	0.115071	0.573121	0.167615
H72	H	0.114379	0.534869	0.215160
H73	H	0.164113	0.600602	0.170949
H74	H	0.067198	0.613298	0.170925
H75	H	0.112109	0.403415	0.144798
H76	H	-0.447124	0.843295	-0.000046
C77	C	-0.498395	1.139551	-0.000052
H78	H	-0.466068	1.185332	-0.000043
H79	H	-0.532626	1.142115	-0.051126
H80	H	-0.532648	1.142098	0.051027
