data_functionalizedCrystal
_audit_creation_method	'MofGen! by Chris Wilmer'
_symmetry_space_group_name_H-M	'P1'
_symmetry_Int_Tables_number	1
_symmetry_cell_setting	triclinic
loop_
_symmetry_equiv_pos_as_xyz
  x,y,z
_cell_length_a	11.169417
_cell_length_b	19.076808
_cell_length_c	11.169409
_cell_angle_alpha	87.662578
_cell_angle_beta	89.980487
_cell_angle_gamma	92.324818
loop_
_atom_site_label
_atom_site_type_symbol
_atom_site_fract_x
_atom_site_fract_y
_atom_site_fract_z
Zn1	Zn	1.815644	-0.280138	-0.659282
Zn2	Zn	2.148977	0.053195	-0.325949
Zn3	Zn	2.482310	0.386528	0.007385
Zn4	Zn	1.807414	-0.397866	-0.450509
Zn5	Zn	2.140748	-0.064533	-0.117175
Zn6	Zn	2.474081	0.268800	0.216158
Zn7	Zn	1.614927	-0.280182	-0.458614
Zn8	Zn	1.948260	0.053151	-0.125281
Zn9	Zn	2.281593	0.386485	0.208052
Zn10	Zn	1.606822	-0.397810	-0.651159
Zn11	Zn	1.940156	-0.064476	-0.317825
Zn12	Zn	2.273489	0.268857	0.015508
O13	O	1.711202	-0.338999	-0.554891
O14	O	2.044535	-0.005666	-0.221558
O15	O	2.377868	0.327668	0.111776
O16	O	1.982501	-0.295761	-0.631595
O17	O	2.315835	0.037573	-0.298262
O18	O	2.649168	0.370906	0.035071
O19	O	1.781828	-0.382297	-0.283631
O20	O	2.115162	-0.048964	0.049702
O21	O	2.448495	0.284369	0.383035
O22	O	1.648388	-0.181679	-0.492025
O23	O	1.981721	0.151654	-0.158692
O24	O	2.315054	0.484988	0.174641
O25	O	1.976455	-0.382255	-0.478210
O26	O	2.309789	-0.048921	-0.144877
O27	O	2.643122	0.284412	0.188456
O28	O	1.795854	-0.181647	-0.639455
O29	O	2.129187	0.151686	-0.306122
O30	O	2.462520	0.485020	0.027212
O31	O	1.640408	-0.295835	-0.289587
O32	O	1.973742	0.037498	0.043747
O33	O	2.307075	0.370832	0.377080
O34	O	1.445902	-0.295780	-0.484148
O35	O	1.779236	0.037553	-0.150815
O36	O	2.112569	0.370886	0.182518
O37	O	1.634575	-0.382158	-0.820189
O38	O	1.967909	-0.048825	-0.486856
O39	O	2.301242	0.284508	-0.153522
O40	O	1.439948	-0.382201	-0.625610
O41	O	1.773281	-0.048867	-0.292276
O42	O	2.106615	0.284466	0.041057
O43	O	1.787995	-0.295706	-0.826157
O44	O	2.121329	0.037628	-0.492824
O45	O	2.454662	0.370961	-0.159490
O46	O	1.773970	-0.496356	-0.470333
O47	O	2.107303	-0.163023	-0.137000
O48	O	2.440637	0.170311	0.196333
O49	O	1.626596	-0.496314	-0.617750
O50	O	1.959929	-0.162981	-0.284417
O51	O	2.293262	0.170352	0.048917
C52	C	1.399378	-0.338990	-0.554878
C53	C	1.732711	-0.005656	-0.221545
C54	C	2.066044	0.327677	0.111789
C55	C	1.265977	-0.339003	-0.554900
C56	C	1.599310	-0.005669	-0.221566
C57	C	1.932644	0.327664	0.111767
C58	C	1.698543	-0.521874	-0.542307
C59	C	2.031876	-0.188541	-0.208974
C60	C	2.365210	0.144792	0.124360
C61	C	1.693237	-0.600109	-0.536963
C62	C	2.026571	-0.266776	-0.203630
C63	C	2.359904	0.066557	0.129703
C64	C	1.767465	-0.636787	-0.611274
C65	C	2.100798	-0.303454	-0.277941
C66	C	2.434132	0.029880	0.055393
C67	C	1.762475	-0.710297	-0.606255
C68	C	2.095808	-0.376964	-0.272922
C69	C	2.429141	-0.043630	0.060411
C70	C	1.683262	-0.747128	-0.526919
C71	C	2.016596	-0.413795	-0.193586
C72	C	2.349929	-0.080461	0.139747
C73	C	1.609027	-0.710445	-0.452606
C74	C	1.942360	-0.377112	-0.119273
C75	C	2.275693	-0.043778	0.214061
C76	C	1.614012	-0.636936	-0.457631
C77	C	1.947345	-0.303603	-0.124298
C78	C	2.280678	0.029730	0.209035
C79	C	1.660121	-0.966983	-0.503657
C80	C	1.993455	-0.633650	-0.170324
C81	C	2.326788	-0.300317	0.163010
C82	C	1.655145	-1.040497	-0.498635
C83	C	1.988478	-0.707164	-0.165301
C84	C	2.321811	-0.373830	0.168032
C85	C	1.808592	-1.040344	-0.652286
C86	C	2.141925	-0.707011	-0.318953
C87	C	2.475258	-0.373677	0.014380
C88	C	1.813575	-0.966834	-0.657300
C89	C	2.146908	-0.633501	-0.323966
C90	C	2.480241	-0.300167	0.009367
C91	C	1.739335	-0.930157	-0.582991
C92	C	2.072668	-0.596824	-0.249657
C93	C	2.406001	-0.263491	0.083676
N94	N	1.678162	-0.822267	-0.521785
N95	N	2.011496	-0.488933	-0.188452
N96	N	2.344829	-0.155600	0.144882
N97	N	1.744429	-0.855020	-0.588132
N98	N	2.077763	-0.521687	-0.254799
N99	N	2.411096	-0.188353	0.078535
C100	C	2.024243	-0.339009	-0.554905
C101	C	2.357577	-0.005676	-0.221571
C102	C	2.690910	0.327658	0.111762
C103	C	2.157643	-0.339013	-0.554911
C104	C	2.490976	-0.005680	-0.221577
C105	C	2.824310	0.327653	0.111756
C106	C	1.711299	-0.338921	-0.867939
C107	C	2.044633	-0.005588	-0.534606
C108	C	2.377966	0.327746	-0.201272
C109	C	1.711341	-0.338888	-1.001341
C110	C	2.044674	-0.005554	-0.668008
C111	C	2.378008	0.327779	-0.334675
C112	C	1.723943	-0.155410	-0.567550
C113	C	2.057276	0.177924	-0.234217
C114	C	2.390609	0.511257	0.099116
C115	C	1.729372	-0.077175	-0.572945
C116	C	2.062705	0.256159	-0.239612
C117	C	2.396039	0.589492	0.093722
C118	C	1.711177	-0.339026	-0.243064
C119	C	2.044511	-0.005693	0.090269
C120	C	2.377844	0.327640	0.423602
C121	C	1.711382	-0.338861	-0.109676
C122	C	2.044715	-0.005528	0.223657
C123	C	2.378048	0.327805	0.556990
H124	H	1.831973	-0.606804	-0.675872
H125	H	2.165307	-0.273471	-0.342539
H126	H	2.498640	0.059863	-0.009206
H127	H	1.822928	-0.740157	-0.666758
H128	H	2.156261	-0.406823	-0.333424
H129	H	2.489595	-0.073490	-0.000091
H130	H	1.878076	-0.936848	-0.721901
H131	H	2.211409	-0.603514	-0.388568
H132	H	2.544742	-0.270181	-0.055235
H133	H	1.599674	-0.937127	-0.443150
H134	H	1.933008	-0.603794	-0.109816
H135	H	2.266341	-0.270461	0.223517
F136	F	1.887594	-1.079383	-0.731369
F137	F	2.220928	-0.746049	-0.398035
F138	F	2.554261	-0.412716	-0.064702
H139	H	1.553566	-0.607074	-0.397122
H140	H	1.886899	-0.273741	-0.063788
H141	H	2.220233	0.059592	0.269545
H142	H	1.544525	-0.740439	-0.388014
H143	H	1.877859	-0.407105	-0.054680
H144	H	2.211192	-0.073772	0.278653
H145	H	1.590635	-1.070483	-0.434029
H146	H	1.923968	-0.737150	-0.100696
H147	H	2.257301	-0.403816	0.232638
