data_functionalizedCrystal
_audit_creation_method	'MofGen! by Chris Wilmer'
_symmetry_space_group_name_H-M	'P1'
_symmetry_Int_Tables_number	1
_symmetry_cell_setting	triclinic
loop_
_symmetry_equiv_pos_as_xyz
  x,y,z
_cell_length_a	6.817900
_cell_length_b	11.168121
_cell_length_c	11.102193
_cell_angle_alpha	91.985837
_cell_angle_beta	108.604059
_cell_angle_gamma	108.508496
loop_
_atom_site_label
_atom_site_type_symbol
_atom_site_fract_x
_atom_site_fract_y
_atom_site_fract_z
V1	V	-4.111009	-0.174714	-0.396268
O2	O	-4.070572	0.008386	-0.388714
O3	O	-4.087289	-0.346419	-0.393568
O4	O	-4.087791	-0.172030	-0.569089
O5	O	-4.070066	-0.167209	-0.211978
V6	V	-4.588176	-0.152812	-0.374224
O7	O	-4.386209	-0.222756	-0.444623
O8	O	-4.763172	-0.104770	-0.325869
O9	O	-4.388689	0.018893	-0.376924
O10	O	-4.746009	-0.335912	-0.381778
O11	O	-4.746515	-0.160317	-0.558515
O12	O	-4.388187	-0.155496	-0.201403
C13	C	-3.937478	-0.388277	-0.387320
C14	C	-3.999539	-0.528648	-0.386264
C15	C	-3.938117	-0.165825	-0.611213
C16	C	-4.000581	-0.164767	-0.752495
C17	C	-4.202064	-0.597341	-0.391822
C18	C	-4.266211	-0.742422	-0.390731
C19	C	-4.120240	-0.396044	-0.788836
C20	C	-4.209406	-0.511180	-0.873379
C21	C	-4.268095	-0.510179	-1.006125
C22	C	-4.237619	-0.394029	-1.054329
C23	C	-4.148453	-0.278893	-0.969786
C24	C	-4.089763	-0.279907	-0.837039
C25	C	-4.028810	-0.047620	-0.933446
C26	C	-3.970105	-0.048618	-0.800699
C27	C	-3.998334	0.068529	-0.981650
C28	C	-3.909152	0.183668	-0.897106
C29	C	-3.850459	0.182663	-0.764353
C30	C	-3.880939	0.066518	-0.716156
C31	C	-4.201842	0.060744	-0.383169
C32	C	-4.119021	0.201114	-0.384233
C33	C	-4.201202	-0.161705	-0.159273
C34	C	-4.117976	-0.162756	-0.017989
H35	H	-4.439699	-0.801470	-0.395474
H36	H	-3.945518	-0.739842	-0.379471
H37	H	-3.884361	0.278227	-0.936367
O38	O	-3.763785	0.294627	-0.682407
C39	C	-3.749538	0.397344	-0.753428
H40	H	-3.745009	0.366350	-0.851133
H41	H	-3.592746	0.481298	-0.698925
H42	H	-3.899332	0.427444	-0.767654
H43	H	-3.873644	-0.577247	-0.380706
O44	O	-4.352568	-0.539585	-0.398510
C45	C	-4.553308	-0.631618	-0.403424
H46	H	-4.562042	-0.730063	-0.441297
H47	H	-4.697045	-0.607501	-0.470120
H48	H	-4.563165	-0.631709	-0.302830
H49	H	-4.072427	-0.396870	-0.680748
H50	H	-4.234219	-0.605747	-0.834117
O51	O	-4.354602	-0.622132	-1.088074
C52	C	-4.368984	-0.724865	-1.017075
H53	H	-4.245707	-0.689499	-0.914873
H54	H	-4.329791	-0.802089	-1.064697
H55	H	-4.543080	-0.766081	-1.014241
O56	O	-3.824120	0.065697	-0.587192
C57	C	-3.946574	0.122760	-0.539039
H58	H	-4.003745	0.188861	-0.606981
H59	H	-3.838596	0.180286	-0.439914
H60	H	-4.096395	0.045278	-0.531283
H61	H	-4.285438	-0.393225	-1.162420
H62	H	-4.046142	0.069336	-1.089741
