data_functionalizedCrystal
_audit_creation_method	'MofGen! by Chris Wilmer'
_symmetry_space_group_name_H-M	'P1'
_symmetry_Int_Tables_number	1
_symmetry_cell_setting	triclinic
loop_
_symmetry_equiv_pos_as_xyz
  x,y,z
_cell_length_a	10.654554
_cell_length_b	23.532407
_cell_length_c	9.730223
_cell_angle_alpha	90.005957
_cell_angle_beta	90.000970
_cell_angle_gamma	83.667760
loop_
_atom_site_label
_atom_site_type_symbol
_atom_site_fract_x
_atom_site_fract_y
_atom_site_fract_z
O1	O	1.665296	0.079995	0.114330
O2	O	1.299577	0.087613	0.114329
O3	O	1.493465	0.000944	0.114304
O4	O	1.471408	0.166664	0.114355
O5	O	1.493462	0.000946	-0.114276
O6	O	1.299575	0.087615	-0.114251
O7	O	1.665294	0.079997	-0.114250
Zn8	Zn	1.482434	0.083807	-0.150542
Zn9	Zn	1.482437	0.083804	0.150621
O10	O	1.471406	0.166666	-0.114225
C11	C	1.252796	0.087054	0.000038
C12	C	1.113406	0.085379	0.000037
C13	C	0.932560	0.031200	0.000038
C14	C	1.063532	0.032773	0.000025
C15	C	1.032300	0.136414	0.000049
C16	C	0.901331	0.134840	0.000052
C17	C	0.950593	-0.028636	0.000031
C18	C	1.081565	-0.027063	0.000017
C19	C	1.492902	-0.020274	0.000011
C20	C	1.491213	-0.083502	0.000000
C21	C	1.595360	-0.481926	0.000076
C22	C	1.593792	-0.541337	0.000086
O23	O	1.690337	-0.577451	0.000137
N24	N	1.478525	-0.564715	0.000085
C25	C	1.364820	-0.528679	0.000087
O26	O	1.266633	-0.554019	0.000088
C27	C	1.366390	-0.469269	0.000087
C28	C	1.481664	-0.445895	0.000074
C29	C	1.710625	-0.458551	0.000065
C30	C	1.712193	-0.399145	0.000052
C31	C	1.598497	-0.363113	0.000050
C32	C	1.483232	-0.386489	0.000061
C33	C	1.252687	-0.433235	0.000099
C34	C	1.254267	-0.373822	0.000099
C35	C	1.369541	-0.350447	0.000086
C36	C	1.371104	-0.291051	0.000046
N37	N	1.486371	-0.267673	0.000047
C38	C	1.600067	-0.303704	0.000049
C39	C	1.361532	-0.653443	0.000091
C40	C	1.359961	-0.712851	0.000082
C41	C	1.588932	-0.725505	0.000083
C42	C	1.590502	-0.666095	0.000083
C43	C	1.476798	-0.630065	0.000092
C44	C	1.603351	-0.178946	0.000021
C45	C	1.604909	-0.119534	0.000002
C46	C	1.375938	-0.106885	0.000008
C47	C	1.374380	-0.166292	0.000019
C48	C	1.488096	-0.202322	0.000030
O49	O	1.274610	-0.254901	0.000001
O50	O	1.698238	-0.278356	0.000066
C51	C	1.712075	0.080556	0.000044
C52	C	1.851465	0.082231	0.000054
C53	C	1.471969	0.187885	0.000071
C54	C	1.473657	0.251113	0.000091
N55	N	1.482441	0.083808	-0.356079
C56	C	1.568316	0.045444	-0.428016
C57	C	1.568313	0.045438	-0.571899
C58	C	1.396556	0.122163	-0.571895
C59	C	1.396554	0.122167	-0.428015
C60	C	1.667483	0.001149	-0.428019
C61	C	1.667479	0.001142	-0.571902
N62	N	1.482440	0.083798	0.356158
H63	H	0.835306	0.176395	0.000049
F64	F	1.085382	0.192401	0.000047
F65	F	1.141972	-0.050693	-0.128995
H66	H	1.124038	-0.049606	0.095672
F67	F	1.831647	-0.496890	0.000068
F68	F	0.904808	-0.053540	0.129027
F69	F	1.251694	-0.191170	0.000008
F70	F	1.129995	-0.458098	0.000118
F71	F	1.793222	0.013892	-0.622946
H72	H	1.758227	0.015020	-0.383388
H73	H	1.647427	-0.042622	-0.388978
H74	H	0.921971	-0.052038	-0.095630
F75	F	1.629301	-0.052920	-0.630242
F76	F	1.727605	-0.094661	-0.000010
H77	H	1.695951	-0.208275	0.000035
F78	F	1.713191	-0.641224	0.000070
F79	F	1.834884	-0.374276	0.000068
H80	H	1.681510	-0.754853	0.000090
H81	H	1.266093	-0.731877	0.000068
F82	F	1.240504	-0.615100	0.000088
F83	F	1.133243	-0.335478	0.000112
H84	H	1.283370	-0.077538	0.000001
H85	H	1.326628	0.153393	-0.630481
F86	F	1.305141	0.162991	-0.351455
