data_functionalizedCrystal
_audit_creation_method	'MofGen! by Chris Wilmer'
_symmetry_space_group_name_H-M	'P1'
_symmetry_Int_Tables_number	1
_symmetry_cell_setting	triclinic
loop_
_symmetry_equiv_pos_as_xyz
  x,y,z
_cell_length_a	8.497374
_cell_length_b	12.759401
_cell_length_c	12.759400
_cell_angle_alpha	89.985155
_cell_angle_beta	89.991978
_cell_angle_gamma	90.000368
loop_
_atom_site_label
_atom_site_type_symbol
_atom_site_fract_x
_atom_site_fract_y
_atom_site_fract_z
Zn1	Zn	0.891904	1.606068	0.418444
Zn2	Zn	0.628108	1.606017	0.594091
Zn3	Zn	0.628137	1.430425	0.418427
Zn4	Zn	0.891846	1.430358	0.594082
O5	O	0.759999	1.518217	0.506261
O6	O	0.856923	1.753082	0.441755
O7	O	0.407350	1.582732	0.570785
O8	O	0.663163	1.453773	0.271408
O9	O	0.663113	1.753045	0.570802
O10	O	0.856951	1.582817	0.271421
O11	O	0.407371	1.453725	0.441725
O12	O	0.663107	1.283395	0.441717
O13	O	1.112616	1.453659	0.570787
O14	O	0.856853	1.283346	0.570770
O15	O	1.112658	1.582752	0.441746
O16	O	0.663058	1.582667	0.741110
O17	O	0.856824	1.453611	0.741104
C18	C	0.759978	1.245250	0.506241
C19	C	0.760006	1.128473	0.506258
C20	C	0.860722	1.073613	0.573564
C21	C	0.860739	0.963889	0.573577
C22	C	0.659310	0.963895	0.438977
C23	C	0.659302	1.073617	0.438959
C24	C	0.977011	1.073609	0.651278
C25	C	0.977028	0.963885	0.651291
C26	C	0.759966	1.518155	0.779228
C27	C	0.760005	1.518224	0.896005
C28	C	1.171479	1.518209	0.506262
C29	C	1.350123	1.518212	0.506274
C30	C	0.760021	1.792250	0.506281
C31	C	0.760031	1.909027	0.506290
C32	C	0.760066	1.518308	0.232228
C33	C	0.760095	1.518347	0.115451
C34	C	0.659222	1.585498	0.950835
C35	C	0.659270	1.585563	1.060559
C36	C	0.860889	1.451070	1.060613
C37	C	0.860847	1.451012	0.950891
C38	C	0.542814	1.663143	0.950805
C39	C	0.542862	1.663208	1.060529
H40	H	1.093178	0.929862	0.622279
H41	H	0.575625	1.744480	0.920956
O42	O	0.595413	1.755414	1.100923
C43	C	0.750751	1.773746	1.066661
H44	H	0.773183	1.728151	0.991302
H45	H	0.767702	1.861050	1.051361
H46	H	0.836978	1.746863	1.129612
O47	O	1.122952	1.109020	0.625552
C48	C	1.233158	1.072113	0.699455
H49	H	1.185111	0.998719	0.739126
H50	H	1.348345	1.052549	0.658032
H51	H	1.255135	1.135226	0.760966
O52	O	0.924543	1.114382	0.743341
C53	C	0.927679	1.224730	0.737884
H54	H	0.923363	1.250396	0.652347
H55	H	0.821674	1.258031	0.781359
H56	H	1.040532	1.254995	0.775533
H57	H	0.577322	0.919217	0.384183
O58	O	0.958537	1.385618	0.897510
C59	C	0.868619	1.317755	0.834138
H60	H	0.749098	1.354858	0.817705
H61	H	0.932831	1.303606	0.756974
H62	H	0.851218	1.239926	0.876488
H63	H	0.426703	1.634043	0.916826
O64	O	0.937542	0.928214	0.748244
C65	C	0.799930	0.866863	0.741344
H66	H	0.786857	0.835638	0.658096
H67	H	0.808398	0.798347	0.798426
H68	H	0.693263	0.916993	0.761929
O69	O	0.958689	1.385814	1.114093
C70	C	0.937152	1.400312	1.222695
H71	H	0.815455	1.434796	1.237688
H72	H	0.947774	1.321634	1.264458
H73	H	1.030810	1.456228	1.253758
H74	H	0.420664	1.641496	1.090358
O75	O	0.561253	1.126859	0.373680
C76	C	0.403959	1.100020	0.396445
H77	H	0.395757	1.069855	0.480374
H78	H	0.326040	1.172175	0.387287
H79	H	0.362889	1.036331	0.340084
