data_functionalizedCrystal
_audit_creation_method	'MofGen! by Chris Wilmer'
_symmetry_space_group_name_H-M	'P1'
_symmetry_Int_Tables_number	1
_symmetry_cell_setting	triclinic
loop_
_symmetry_equiv_pos_as_xyz
  x,y,z
_cell_length_a	27.732048
_cell_length_b	10.654550
_cell_length_c	9.730223
_cell_angle_alpha	90.000193
_cell_angle_beta	89.994683
_cell_angle_gamma	83.563779
loop_
_atom_site_label
_atom_site_type_symbol
_atom_site_fract_x
_atom_site_fract_y
_atom_site_fract_z
O1	O	-0.641855	-0.149411	-0.114110
O2	O	-0.501203	-0.172130	-0.114151
O3	O	-0.574763	0.022105	-0.114124
O4	O	-0.568295	-0.343646	-0.114136
O5	O	-0.574762	0.022100	0.114456
O6	O	-0.501202	-0.172135	0.114429
O7	O	-0.641854	-0.149416	0.114470
Zn8	Zn	-0.571528	-0.160776	0.150742
Zn9	Zn	-0.571529	-0.160770	-0.150422
O10	O	-0.568294	-0.343651	0.114444
C11	C	-0.483193	-0.171655	0.000134
C12	C	-0.429529	-0.170219	0.000118
C13	C	-0.659864	-0.149890	0.000182
C14	C	-0.713528	-0.151326	0.000189
C15	C	-0.574287	0.068880	0.000164
C16	C	-0.572867	0.208264	0.000159
C17	C	-0.091372	-0.275959	0.000174
C18	C	0.110321	-0.270631	0.000187
O19	O	0.140974	-0.367322	0.000243
N20	N	0.130162	-0.155458	0.000188
C21	C	0.099576	-0.041609	0.000195
O22	O	0.121080	0.056475	0.000211
C23	C	-0.102116	-0.046938	0.000193
C24	C	-0.121954	-0.162118	0.000177
C25	C	-0.111211	-0.391130	0.000160
C26	C	-0.161631	-0.392461	0.000150
C27	C	-0.192213	-0.278620	0.000153
C28	C	-0.172374	-0.163449	0.000167
C29	C	-0.132701	0.066910	0.000210
C30	C	-0.183126	0.065567	0.000213
C31	C	-0.202964	-0.049613	0.000197
C32	C	-0.253376	-0.050940	0.000159
N33	N	-0.273217	-0.166113	0.000158
C34	C	-0.242635	-0.279953	0.000155
C35	C	0.205467	-0.038819	0.000194
C36	C	0.255890	-0.037486	0.000192
C37	C	0.266631	-0.266509	0.000186
C38	C	0.216208	-0.267840	0.000178
C39	C	0.185626	-0.153992	0.000193
C40	C	-0.348522	-0.282739	0.000131
C41	C	-0.398947	-0.284060	0.000115
C42	C	-0.409684	-0.055038	0.000128
C43	C	-0.359263	-0.053716	0.000137
C44	C	-0.328683	-0.167577	0.000144
O45	O	-0.284058	0.045700	0.000118
O46	O	-0.264149	-0.378023	0.000170
C47	C	-0.040952	-0.274628	0.000185
C48	C	-0.021113	-0.159457	0.000199
C49	C	-0.051695	-0.045616	0.000202
C50	C	0.029309	-0.158124	0.000197
C51	C	0.059891	-0.271965	0.000194
C52	C	0.040050	-0.387138	0.000192
C53	C	-0.010370	-0.388469	0.000182
C54	C	-0.031854	0.069557	0.000203
C55	C	0.018567	0.070878	0.000212
C56	C	0.049148	-0.042962	0.000209
C57	C	-0.568769	-0.390426	0.000152
C58	C	-0.570190	-0.529810	0.000149
N59	N	-0.571531	-0.160780	0.356278
C60	C	-0.616177	0.289570	0.000175
C61	C	-0.614840	0.420535	0.000165
C62	C	-0.526876	0.388874	0.000128
C63	C	-0.528215	0.257912	0.000128
C64	C	-0.660830	0.239922	0.000206
C65	C	-0.704144	0.321230	0.000225
C66	C	-0.702806	0.452195	0.000215
C67	C	-0.658154	0.501852	0.000186
N68	N	-0.571530	-0.160756	-0.355959
C69	C	-0.604111	-0.074801	0.428216
C70	C	-0.604110	-0.074786	0.572099
C71	C	-0.538946	-0.246739	0.572093
C72	C	-0.538945	-0.246747	0.428213
C73	C	-0.636697	0.011166	0.356281
C74	C	-0.669281	0.097151	0.428219
C75	C	-0.669279	0.097166	0.572102
C76	C	-0.636694	0.011197	0.644047
H77	H	-0.323629	-0.375456	0.000141
O78	O	-0.700881	0.180642	0.642197
C79	C	-0.693904	0.162203	0.784616
H80	H	-0.655634	0.114591	0.804262
H81	H	-0.698967	0.257403	0.839288
H82	H	-0.721467	0.099707	0.825462
H83	H	-0.636702	0.011159	0.239124
O84	O	-0.656792	0.629049	0.000353
C85	C	-0.632231	0.664133	0.118743
H86	H	-0.607320	0.579424	0.158211
H87	H	-0.609715	0.743966	0.092105
H88	H	-0.659796	0.697380	0.201646
H89	H	-0.738075	0.518393	0.000215
O90	O	-0.507317	-0.330421	0.641823
C91	C	-0.515594	-0.454594	0.606701
H92	H	-0.534222	-0.454114	0.502239
H93	H	-0.479470	-0.517083	0.601774
H94	H	-0.539780	-0.492994	0.687687
H95	H	-0.661924	0.133286	0.000219
O96	O	-0.486112	0.179047	-0.000070
C97	C	-0.459036	0.201394	-0.118483
H98	H	-0.470567	0.300985	-0.157942
H99	H	-0.418755	0.191381	-0.091877
H100	H	-0.465892	0.129887	-0.201379
H101	H	-0.490522	0.429315	0.000107
H102	H	-0.695808	0.167151	0.369634
H103	H	-0.512414	-0.316758	0.369641
H104	H	-0.208024	0.158279	0.000225
O105	O	0.069713	-0.497806	0.000372
C106	C	0.060666	-0.567783	0.118771
H107	H	0.022525	-0.536206	0.158233
H108	H	0.063864	-0.672585	0.092146
H109	H	0.088294	-0.551146	0.201673
H110	H	-0.636693	0.011225	0.761206
O111	O	-0.418137	-0.396063	0.000165
C112	C	-0.380328	-0.496251	0.000135
H113	H	-0.345964	-0.461726	0.043418
H114	H	-0.391141	-0.576727	0.066492
H115	H	-0.373307	-0.531316	-0.109527
H116	H	-0.177778	-0.486253	0.000137
O117	O	-0.747558	0.273209	0.000182
C118	C	-0.785499	0.373060	0.000222
H119	H	-0.771651	0.461772	-0.043060
H120	H	-0.816645	0.346290	-0.066131
H121	H	-0.798879	0.391860	0.109887
O122	O	-0.081528	-0.501759	-0.000092
C123	C	-0.090597	-0.571738	-0.118467
H124	H	-0.107595	-0.505084	-0.201197
H125	H	-0.055004	-0.622820	-0.158219
H126	H	-0.116523	-0.643895	-0.091708
O127	O	0.196881	-0.379645	0.000352
C128	C	0.168044	-0.387297	0.118754
H129	H	0.155822	-0.288081	0.158233
H130	H	0.134863	-0.436704	0.092126
H131	H	0.190128	-0.443294	0.201643
H132	H	0.291540	-0.359202	0.000184
O133	O	0.037776	0.182853	0.000041
C134	C	0.022202	0.252187	-0.118353
H135	H	-0.012875	0.218651	-0.157840
H136	H	0.015555	0.356893	-0.091711
H137	H	0.051332	0.237083	-0.201241
O138	O	0.175785	0.071816	-0.000046
C139	C	0.184857	0.141807	-0.118414
H140	H	0.201859	0.075161	-0.201156
H141	H	0.149265	0.192889	-0.158154
H142	H	0.210781	0.213965	-0.091651
H143	H	-0.116558	0.160702	0.000223
O144	O	-0.340045	0.058244	-0.000046
C145	C	-0.355614	0.127569	-0.118450
H146	H	-0.390694	0.094045	-0.157934
H147	H	-0.362255	0.232279	-0.091822
H148	H	-0.326484	0.112445	-0.201335
H149	H	-0.434592	0.037648	0.000126
O150	O	-0.029697	-0.500273	0.000346
C151	C	-0.058538	-0.507932	0.118739
H152	H	-0.070762	-0.408717	0.158220
H153	H	-0.091718	-0.557338	0.092097
H154	H	-0.036458	-0.563932	0.201631
H155	H	0.272038	0.056305	0.000183
O156	O	-0.061606	0.180067	0.000013
C157	C	-0.091076	0.186168	-0.118399
H158	H	-0.093970	0.086549	-0.157862
H159	H	-0.128807	0.233716	-0.091790
H160	H	-0.074283	0.243174	-0.201293
