data_functionalizedCrystal
_audit_creation_method	'MofGen! by Chris Wilmer'
_symmetry_space_group_name_H-M	'P1'
_symmetry_Int_Tables_number	1
_symmetry_cell_setting	triclinic
loop_
_symmetry_equiv_pos_as_xyz
  x,y,z
_cell_length_a	10.540539
_cell_length_b	9.616153
_cell_length_c	10.540539
_cell_angle_alpha	89.995612
_cell_angle_beta	95.474508
_cell_angle_gamma	90.000138
loop_
_atom_site_label
_atom_site_type_symbol
_atom_site_fract_x
_atom_site_fract_y
_atom_site_fract_z
O1	O	1.685883	0.115573	-0.178904
O2	O	1.316470	0.115589	-0.195760
O3	O	1.509604	0.115579	-0.002626
O4	O	1.492748	0.115583	-0.372039
O5	O	1.509596	-0.115712	-0.002612
O6	O	1.316462	-0.115702	-0.195746
O7	O	1.685875	-0.115718	-0.178891
Zn8	Zn	1.501167	-0.152433	-0.187316
Zn9	Zn	1.501177	0.152304	-0.187334
O10	O	1.492741	-0.115708	-0.372025
C11	C	1.269163	-0.000054	-0.194489
C12	C	1.128215	-0.000048	-0.190707
N13	N	1.501170	-0.360407	-0.187303
C14	C	0.944788	-0.000589	-0.045790
C15	C	1.091406	-0.000054	-0.049624
C16	C	1.066547	0.132027	-0.258610
C17	C	0.920002	0.132123	-0.253795
C18	C	0.919505	-0.130899	-0.256650
C19	C	1.066487	-0.132630	-0.257949
C20	C	1.604870	-0.580739	-0.084346
C21	C	1.604590	-0.419572	-0.083953
C22	C	1.368465	-0.418932	-0.157173
C23	C	1.369081	-0.580150	-0.156451
C24	C	1.529013	-0.580281	-0.320752
C25	C	1.532007	-0.419053	-0.319880
C26	C	1.733182	-0.000072	-0.180161
C27	C	1.874130	-0.000069	-0.183943
C28	C	1.508336	-0.000064	0.044684
C29	C	1.504554	-0.000056	0.185632
N30	N	1.501185	0.360278	-0.187337
C31	C	1.494008	-0.000062	-0.419335
C32	C	1.497790	-0.000060	-0.560283
C33	C	1.359637	0.000469	0.369059
C34	C	1.363471	-0.000052	0.222441
C35	C	1.572445	-0.132138	0.247298
C36	C	1.567630	-0.132249	0.393842
C37	C	1.570509	0.130772	0.394345
C38	C	1.571808	0.132518	0.247363
H39	H	1.134017	-0.094731	0.003804
H40	H	0.872033	0.138119	-0.355261
H41	H	1.461472	-0.378776	-0.400200
H42	H	1.524850	0.230881	0.425892
H43	H	1.088900	0.136942	-0.362218
H44	H	1.090713	-0.140603	-0.360808
H45	H	1.303909	0.095187	0.397654
H46	H	1.672413	0.131656	0.441571
H47	H	1.517449	-0.230979	0.422048
H48	H	0.916199	-0.095307	0.009951
H49	H	1.623779	-0.620934	-0.349418
H50	H	1.629636	-0.380803	-0.342716
H51	H	0.891795	0.230849	-0.203620
H52	H	1.525278	-0.230425	0.204704
H53	H	1.676053	-0.137054	0.224944
H54	H	0.872278	-0.131790	-0.358553
H55	H	1.587220	-0.621270	0.014075
H56	H	1.309669	-0.094886	0.180690
H57	H	0.887955	-0.231010	-0.210986
H58	H	1.586684	-0.381019	0.015035
H59	H	1.107446	-0.230338	-0.208344
H60	H	1.109138	0.230318	-0.211452
H61	H	1.703197	-0.380002	-0.102073
H62	H	0.914584	0.093600	0.009704
H63	H	1.522133	0.230229	0.206499
H64	H	1.310050	0.094630	0.179832
H65	H	1.289398	-0.380610	-0.230135
H66	H	1.344738	-0.617767	-0.059116
H67	H	1.703806	-0.619504	-0.102194
H68	H	1.289546	-0.619169	-0.228550
H69	H	1.674669	0.140490	0.223141
H70	H	1.343553	-0.378569	-0.060934
H71	H	1.453417	-0.618432	-0.397410
H72	H	1.133155	0.094786	0.004170
H73	H	1.669096	-0.138246	0.441811
H74	H	1.304129	-0.093714	0.399272
