data_functionalizedCrystal
_audit_creation_method	'MofGen! by Chris Wilmer'
_symmetry_space_group_name_H-M	'P1'
_symmetry_Int_Tables_number	1
_symmetry_cell_setting	triclinic
loop_
_symmetry_equiv_pos_as_xyz
  x,y,z
_cell_length_a	16.109301
_cell_length_b	9.130307
_cell_length_c	16.109301
_cell_angle_alpha	90.004715
_cell_angle_beta	83.461481
_cell_angle_gamma	89.998800
loop_
_atom_site_label
_atom_site_type_symbol
_atom_site_fract_x
_atom_site_fract_y
_atom_site_fract_z
O1	O	1.103128	0.121711	0.106866
O2	O	0.861066	0.121735	0.120165
O3	O	0.988747	0.121708	-0.007516
O4	O	0.975448	0.121739	0.234546
O5	O	0.988743	-0.121891	-0.007517
O6	O	0.861062	-0.121864	0.120164
O7	O	1.103124	-0.121888	0.106865
Cu8	Cu	0.982093	-0.144118	0.113514
Cu9	Cu	0.982098	0.143966	0.113516
O10	O	0.975444	-0.121860	0.234545
C11	C	0.830090	-0.000061	0.119626
C12	C	0.737794	-0.000053	0.118011
N13	N	0.982096	-0.346741	0.113513
C14	C	0.515522	-0.000060	0.190018
C15	C	0.428801	-0.000070	0.188494
C16	C	0.448676	-0.000083	0.037006
C17	C	0.535394	-0.000084	0.038530
C18	C	0.568815	-0.000065	0.115039
C19	C	0.395376	-0.000074	0.111990
C20	C	0.301350	-0.000084	0.110337
C21	C	0.662847	-0.000058	0.116693
C22	C	1.095203	-0.346755	0.000484
C23	C	1.151762	-0.423429	-0.056028
C24	C	1.151770	-0.576763	-0.056029
C25	C	1.095211	-0.653426	0.000487
C26	C	1.038652	-0.576752	0.056999
C27	C	1.038652	-0.423415	0.056995
C28	C	0.925543	-0.576737	0.170022
C29	C	0.925537	-0.423404	0.170028
C30	C	0.868984	-0.653400	0.226538
C31	C	0.812428	-0.576727	0.283056
C32	C	0.812423	-0.423384	0.283055
C33	C	0.868978	-0.346730	0.226540
C34	C	1.134101	-0.000088	0.107404
C35	C	1.226397	-0.000087	0.109019
C36	C	0.988206	-0.000092	-0.038491
C37	C	0.986591	-0.000094	-0.130786
N38	N	0.982102	0.346589	0.113510
C39	C	1.058599	-0.000078	-0.353059
C40	C	1.057075	-0.000066	-0.439779
C41	C	0.905586	-0.000057	-0.419905
C42	C	0.907111	-0.000058	-0.333186
C43	C	0.983620	-0.000077	-0.299766
C44	C	0.980571	-0.000063	-0.473205
C45	C	0.978918	-0.000050	-0.567231
C46	C	0.985273	-0.000087	-0.205734
C47	C	0.975984	-0.000057	0.265521
C48	C	0.977600	-0.000045	0.357816
H49	H	0.385413	-0.000069	0.249550
O50	O	0.831197	0.000016	-0.452233
C51	C	0.681102	-0.000061	-0.423367
C52	C	0.765290	-0.000106	-0.386647
H53	H	0.627795	-0.000191	-0.370358
H54	H	0.676544	0.101909	-0.463435
H55	H	0.676646	-0.101982	-0.463503
H56	H	0.769804	0.101746	-0.346473
H57	H	0.769812	-0.102144	-0.346627
O58	O	0.416071	-0.000025	-0.037239
C59	C	0.291285	-0.000110	-0.106727
C60	C	0.328095	-0.000147	-0.022586
H61	H	0.220152	-0.000239	-0.094910
H62	H	0.313175	0.101857	-0.143788
H63	H	0.313285	-0.102035	-0.143781
H64	H	0.306112	0.101709	0.014535
H65	H	0.306209	-0.102181	0.014411
H66	H	0.542730	-0.000056	0.252317
H67	H	0.846050	-0.000053	-0.289792
H68	H	0.868982	-0.221878	0.226537
O69	O	0.587051	-0.000022	-0.034386
C70	C	0.597620	-0.000125	-0.184803
C71	C	0.539025	-0.000154	-0.102294
H72	H	0.558814	-0.000263	-0.239728
H73	H	0.638701	0.101842	-0.187930
H74	H	0.638732	-0.102050	-0.187829
H75	H	0.497860	0.101702	-0.099213
H76	H	0.498000	-0.102188	-0.099201
O77	O	1.206606	-0.348761	-0.110923
C78	C	1.224417	-0.175616	-0.224439
C79	C	1.162205	-0.260074	-0.162329
H80	H	1.188543	-0.103915	-0.266029
H81	H	1.265889	-0.103757	-0.188516
H82	H	1.264884	-0.256743	-0.264795
H83	H	1.121683	-0.179052	-0.121958
H84	H	1.120791	-0.331955	-0.198303
H85	H	1.118130	-0.000064	-0.483168
O86	O	1.206785	-0.651024	-0.110959
C87	C	1.318932	-0.634875	-0.223114
C88	C	1.256690	-0.550592	-0.160935
H89	H	1.359284	-0.553712	-0.263547
H90	H	1.360509	-0.706617	-0.187247
H91	H	1.283034	-0.706708	-0.264619
H92	H	1.292520	-0.478679	-0.119414
H93	H	1.215113	-0.478942	-0.196854
H94	H	1.120897	-0.000090	-0.325851
O95	O	0.757458	-0.651358	0.337833
C96	C	0.643885	-0.824415	0.355473
C97	C	0.706104	-0.740005	0.293346
H98	H	0.602337	-0.896083	0.319529
H99	H	0.679718	-0.896303	0.397007
H100	H	0.603498	-0.743257	0.395887
H101	H	0.746506	-0.821058	0.252877
H102	H	0.670219	-0.668095	0.251870
H103	H	1.095208	-0.221903	0.000485
O104	O	0.757449	-0.349134	0.338032
C105	C	0.645220	-0.365322	0.450103
C106	C	0.707446	-0.449584	0.387898
H107	H	0.604765	-0.446499	0.490424
H108	H	0.681047	-0.293570	0.491714
H109	H	0.603740	-0.293501	0.414174
H110	H	0.748942	-0.521485	0.423759
H111	H	0.671567	-0.521244	0.346287
H112	H	1.095215	-0.778278	0.000476
H113	H	0.868990	-0.778253	0.226532
