data_functionalizedCrystal
_audit_creation_method	'MofGen! by Chris Wilmer'
_symmetry_space_group_name_H-M	'P1'
_symmetry_Int_Tables_number	1
_symmetry_cell_setting	triclinic
loop_
_symmetry_equiv_pos_as_xyz
  x,y,z
_cell_length_a	16.992694
_cell_length_b	14.853567
_cell_length_c	15.455313
_cell_angle_alpha	92.672621
_cell_angle_beta	87.142206
_cell_angle_gamma	87.151577
loop_
_atom_site_label
_atom_site_type_symbol
_atom_site_fract_x
_atom_site_fract_y
_atom_site_fract_z
O1	O	1.044027	0.187488	-0.072010
O2	O	0.815740	0.185390	-0.072036
O3	O	0.935981	0.055640	-0.072025
O4	O	0.923785	0.317238	-0.072021
O5	O	0.929105	0.063027	0.072237
O6	O	0.808864	0.192777	0.072226
O7	O	1.037151	0.194875	0.072251
Cu8	Cu	0.922380	0.194501	0.085411
Cu9	Cu	0.930511	0.185764	-0.085195
O10	O	0.916909	0.324625	0.072241
C11	C	0.783087	0.186385	0.000092
C12	C	0.696034	0.178334	0.000081
C13	C	0.645878	0.256009	0.000083
C14	C	0.564083	0.248440	0.000095
C15	C	0.532445	0.163195	0.000099
C16	C	0.582608	0.085514	0.000100
C17	C	0.664401	0.093084	0.000094
C18	C	0.288813	0.131820	0.000122
C19	C	0.207013	0.124255	0.000125
C20	C	0.188493	0.287183	0.000122
C21	C	0.270290	0.294745	0.000111
C22	C	0.320445	0.217064	0.000116
N23	N	0.448838	0.155456	0.000108
N24	N	0.404050	0.224804	0.000113
C25	C	0.931991	0.025705	0.000103
C26	C	0.930335	-0.074496	0.000096
C27	C	0.851909	-0.492567	0.000103
C28	C	0.994758	-0.503760	0.000119
C29	C	0.996315	-0.409617	0.000114
C30	C	0.925668	-0.356944	0.000105
C31	C	0.853464	-0.398414	0.000101
C32	C	1.068518	-0.368139	0.000127
C33	C	1.070078	-0.273990	0.000123
C34	C	0.999430	-0.221316	0.000108
C35	C	0.927223	-0.262791	0.000103
C36	C	0.856576	-0.210118	0.000094
C37	C	0.784368	-0.251593	0.000082
C38	C	0.782816	-0.345740	0.000086
C39	C	1.000982	-0.127169	0.000105
C40	C	0.858131	-0.115966	0.000091
C41	C	1.069804	0.193880	0.000122
C42	C	1.156857	0.201931	0.000127
C43	C	0.920900	0.354560	0.000110
C44	C	0.922556	0.454760	0.000112
N45	N	0.916666	0.200645	0.205406
N46	N	0.936231	0.179613	-0.205190
C47	C	0.967766	0.145545	0.250805
C48	C	0.963453	0.150201	0.341612
C49	C	0.908042	0.209961	0.387019
C50	C	0.856936	0.265063	0.341614
C51	C	0.861246	0.260402	0.250808
C52	C	0.889436	0.230054	0.658599
C53	C	0.885131	0.234713	0.749411
C54	C	0.991647	0.119849	0.749403
C55	C	0.995956	0.115198	0.658595
C56	C	0.944847	0.170296	0.613198
N57	N	0.903633	0.214723	0.479839
N58	N	0.949253	0.165529	0.520380
H59	H	0.181257	0.054835	0.000127
O60	O	0.797172	0.329525	0.390582
H61	H	0.802765	0.323519	0.461353
O62	O	0.704938	-0.390468	0.000092
H63	H	0.715727	-0.464783	0.000110
O64	O	0.134400	0.370966	0.000134
H65	H	0.072207	0.351386	0.000149
O66	O	0.679992	0.347958	0.000084
H67	H	0.719603	0.352303	-0.058720
O68	O	0.774028	-0.537289	0.000101
H69	H	0.784810	-0.611605	0.000111
O70	O	0.806136	0.319834	0.201835
H71	H	0.766886	0.362179	0.248663
H72	H	0.523249	0.311692	0.000096
H73	H	0.296043	0.364161	0.000098
H74	H	1.012891	0.096886	0.213840
H75	H	0.329639	0.068566	0.000127
H76	H	1.128874	-0.240230	0.000132
H77	H	1.059772	-0.093404	0.000120
H78	H	1.052275	-0.546652	0.000134
H79	H	1.005062	0.105334	0.378575
O80	O	1.144712	-0.424945	0.000150
H81	H	1.131499	-0.497379	0.000142
O82	O	1.046768	0.060419	0.798362
H83	H	1.011753	0.016314	0.839736
H84	H	0.840006	0.283380	0.786377
H85	H	1.041076	0.066536	0.621627
O86	O	0.834322	0.289487	0.609639
H87	H	0.795076	0.331832	0.656472
H88	H	0.705238	0.029832	0.000092
O89	O	0.548490	-0.006433	0.000111
H90	H	0.514468	-0.016798	-0.058688
O91	O	0.781932	-0.059153	0.000089
H92	H	0.731465	-0.103812	0.000090
O93	O	0.708169	-0.194779	0.000080
H94	H	0.708263	-0.154630	-0.058719
