data_functionalizedCrystal
_audit_creation_method	'MofGen! by Chris Wilmer'
_symmetry_space_group_name_H-M	'P1'
_symmetry_Int_Tables_number	1
_symmetry_cell_setting	triclinic
loop_
_symmetry_equiv_pos_as_xyz
  x,y,z
_cell_length_a	11.792241
_cell_length_b	19.188930
_cell_length_c	10.868271
_cell_angle_alpha	89.989749
_cell_angle_beta	89.999893
_cell_angle_gamma	83.669099
loop_
_atom_site_label
_atom_site_type_symbol
_atom_site_fract_x
_atom_site_fract_y
_atom_site_fract_z
O1	O	1.505476	0.095695	-0.102218
O2	O	1.174987	0.105557	-0.102248
O3	O	1.349769	-0.000975	-0.102208
O4	O	1.330695	0.202228	-0.102258
O5	O	1.349755	-0.000980	0.102437
O6	O	1.174973	0.105553	0.102396
O7	O	1.505462	0.095691	0.102427
Zn8	Zn	1.340215	0.100621	0.134903
Zn9	Zn	1.340234	0.100627	-0.134725
O10	O	1.330680	0.202224	0.102387
C11	C	1.132699	0.104936	0.000071
C12	C	1.006713	0.103082	0.000060
C13	C	1.349144	-0.026992	0.000118
C14	C	1.347290	-0.104507	0.000128
C15	C	0.776051	0.099672	0.000096
C16	C	0.904408	0.101566	0.000076
C17	C	1.449846	-0.148850	0.000143
C18	C	1.448104	-0.221684	0.000123
C19	C	1.343800	-0.250171	0.000113
C20	C	1.241230	-0.205818	0.000091
C21	C	1.242975	-0.132986	0.000098
N22	N	1.264067	-0.358629	0.069750
N23	N	1.262417	-0.427817	0.069746
C24	C	1.338536	-0.469609	0.000088
N25	N	1.416386	-0.439602	-0.069550
N26	N	1.418040	-0.370408	-0.069540
C27	C	1.341896	-0.329144	0.000104
C28	C	1.439211	-0.592928	0.000080
C29	C	1.437464	-0.665762	0.000052
C30	C	1.230588	-0.649895	0.000032
C31	C	1.232337	-0.577062	0.000047
C32	C	1.336652	-0.548583	0.000077
C33	C	1.547751	0.096313	0.000105
C34	C	1.673737	0.098167	0.000108
C35	C	1.331305	0.228240	0.000058
C36	C	1.333159	0.305755	0.000040
N37	N	1.340211	0.100617	0.318917
N38	N	1.340248	0.100626	-0.318739
C39	C	1.340228	0.100625	0.569923
C40	C	1.340215	0.100623	0.430246
H41	H	1.534787	-0.125667	0.000163
O42	O	1.547836	-0.264669	0.000197
C43	C	1.640278	-0.223914	0.000188
H44	H	1.611199	-0.169675	0.038928
H45	H	1.672285	-0.218599	-0.097983
C46	C	1.773020	-0.326464	0.032881
C47	C	1.737306	-0.259847	0.080471
H48	H	1.832874	-0.348629	0.082398
H49	H	1.710740	-0.353921	0.032882
H50	H	1.799684	-0.322024	-0.048928
H51	H	1.710629	-0.264288	0.162272
H52	H	1.799583	-0.232391	0.080486
H53	H	1.156305	-0.229017	0.000080
H54	H	1.524150	-0.569739	0.000098
O55	O	1.143243	-0.090007	0.000145
C56	C	1.050803	-0.130764	0.000093
H57	H	1.079876	-0.185014	0.038829
H58	H	1.018823	-0.136055	-0.098091
C59	C	0.918047	-0.028227	0.032764
C60	C	0.953753	-0.094855	0.080350
H61	H	0.858179	-0.006075	0.082265
H62	H	0.980325	-0.000767	0.032794
H63	H	0.891405	-0.032645	-0.049056
H64	H	0.980408	-0.090436	0.162162
H65	H	0.891478	-0.122313	0.080336
O66	O	1.536988	-0.708940	0.000006
C67	C	1.513084	-0.779331	0.000014
H68	H	1.423957	-0.782455	-0.038746
H69	H	1.517481	-0.800393	0.098187
C70	C	1.710898	-0.819717	-0.032633
C71	C	1.601433	-0.823554	-0.080247
H72	H	1.765397	-0.846997	-0.082136
H73	H	1.727004	-0.772293	-0.032633
H74	H	1.714545	-0.837267	0.049178
H75	H	1.597783	-0.805995	-0.162050
H76	H	1.585328	-0.870976	-0.080262
O77	O	1.129365	-0.677674	0.000070
C78	C	1.149813	-0.751467	0.000028
H79	H	1.238463	-0.768239	0.038784
H80	H	1.144428	-0.771744	-0.098156
C81	C	0.950793	-0.761431	0.032657
C82	C	1.059671	-0.782030	0.080268
H83	H	0.895187	-0.780284	0.082148
H84	H	0.937015	-0.711715	0.032682
H85	H	0.946321	-0.778329	-0.049162
H86	H	1.064145	-0.765124	0.162080
H87	H	1.073447	-0.831744	0.080260
H88	H	1.148825	-0.540957	0.000042
