data_functionalizedCrystal
_audit_creation_method	'MofGen! by Chris Wilmer'
_symmetry_space_group_name_H-M	'P1'
_symmetry_Int_Tables_number	1
_symmetry_cell_setting	triclinic
loop_
_symmetry_equiv_pos_as_xyz
  x,y,z
_cell_length_a	19.851628
_cell_length_b	14.446369
_cell_length_c	14.446369
_cell_angle_alpha	60.000250
_cell_angle_beta	90.005090
_cell_angle_gamma	59.999397
loop_
_atom_site_label
_atom_site_type_symbol
_atom_site_fract_x
_atom_site_fract_y
_atom_site_fract_z
Zr1	Zr	0.648984	1.013130	-0.121411
O2	O	0.541418	1.206259	-0.269240
O3	O	0.681958	0.820008	-0.076088
O4	O	0.681959	1.013117	-0.269207
O5	O	0.541417	1.013159	0.076208
O6	O	0.792821	1.013099	-0.269189
O7	O	0.541417	1.013150	-0.076120
O8	O	0.792818	0.667663	0.076266
O9	O	0.541419	1.358594	-0.269247
O10	O	0.778756	0.899426	-0.056752
O11	O	0.696021	0.899446	0.056916
O12	O	0.696023	1.126806	-0.170457
O13	O	0.613288	1.126826	-0.056790
Zr14	Zr	0.825795	1.013115	0.121565
Zr15	Zr	0.825796	1.013102	-0.121382
Zr16	Zr	0.648984	1.013144	0.121535
Zr17	Zr	0.648985	1.256088	-0.121423
Zr18	Zr	0.825794	0.770157	0.121576
O19	O	0.792822	1.206237	0.076241
O20	O	0.792822	1.206218	-0.269198
O21	O	0.541418	1.206278	0.076199
O22	O	0.933361	0.819987	0.269393
O23	O	0.933361	0.819968	-0.076046
O24	O	0.681957	0.820027	0.269351
O25	O	0.933362	1.013087	-0.076055
O26	O	0.792820	1.013129	0.269361
O27	O	0.681958	1.013146	0.269342
O28	O	0.933362	1.013095	0.076274
O29	O	0.681961	1.358572	-0.269223
O30	O	0.792818	0.667674	0.269376
O31	O	0.933360	0.667651	0.269400
O32	O	0.933360	0.667640	0.076290
O33	O	0.541419	1.358605	-0.076136
O34	O	0.681961	1.358582	-0.076113
O35	O	0.778756	0.899439	0.170611
O36	O	0.861491	0.899419	0.056943
O37	O	0.778758	1.126799	-0.056762
O38	O	0.696023	1.126819	0.056905
C39	C	0.737388	0.709219	0.000091
C40	C	0.737387	0.606077	0.000095
C41	C	0.685456	0.459080	0.072114
C42	C	0.685174	0.566700	0.071823
C43	C	0.699322	0.655073	-0.123446
C44	C	0.698931	0.547840	-0.123072
C45	C	0.827420	0.372608	0.050555
C46	C	0.827288	0.478759	0.053076
C47	C	0.516225	1.013158	0.000040
C48	C	0.441164	1.013171	0.000027
C49	C	0.214709	1.137119	-0.061932
C50	C	0.192347	1.075142	-0.106847
C51	C	0.303757	1.013137	0.000060
C52	C	0.192378	1.075121	0.044954
C53	C	0.171025	1.013113	0.000091
C54	C	0.282384	0.951159	-0.044918
C55	C	0.282412	0.951156	0.106942
C56	C	0.260104	0.889089	0.062054
C57	C	0.380219	1.013154	0.000039
C58	C	0.094568	1.013086	0.000109
C59	C	0.958554	1.013087	0.000114
C60	C	1.033615	1.013075	0.000126
C61	C	0.737390	1.013106	-0.303813
C62	C	0.737390	1.013100	-0.406950
C63	C	0.737392	1.317026	0.000063
C64	C	0.737392	1.420168	0.000058
C65	C	0.789830	0.869707	-0.481917
C66	C	0.789603	0.869610	-0.374589
C67	C	0.647493	1.084343	-0.481528
C68	C	0.647780	1.083432	-0.588387
C69	C	0.774121	1.086365	-0.589939
C70	C	0.775940	1.083662	-0.481267
C71	C	0.737389	1.013139	0.303966
C72	C	0.737389	1.013145	0.407103
C73	C	0.958552	0.709184	0.000128
C74	C	1.033613	0.606030	0.000145
C75	C	0.737387	0.709236	0.303980
C76	C	0.737387	0.606100	0.407122
C77	C	0.958552	0.709200	0.304017
C78	C	1.033612	0.606052	0.407171
C79	C	0.516227	1.317045	-0.303864
C80	C	0.441167	1.420194	-0.407018
C81	C	0.516227	1.317062	0.000026
C82	C	0.441166	1.420216	0.000009
C83	C	0.737392	1.317009	-0.303827
C84	C	0.737393	1.420146	-0.406969
C85	C	1.025675	0.557591	-0.059205
C86	C	1.096196	0.460680	-0.059211
C87	C	1.174653	0.412203	0.000139
C88	C	1.182589	0.460651	0.059491
C89	C	1.112069	0.557567	0.059490
C90	C	1.112056	0.557602	0.396281
C91	C	1.182590	0.460697	0.493196
C92	C	1.174679	0.412236	0.601001
C93	C	1.096227	0.460696	0.611890
C94	C	1.025695	0.557606	0.514975
C95	C	0.362723	1.468655	-0.396127
C96	C	0.292189	1.565591	-0.493043
C97	C	0.300101	1.614056	-0.600848
C98	C	0.378552	1.565591	-0.611736
C99	C	0.449085	1.468663	-0.514822
C100	C	0.449104	1.468665	0.059348
C101	C	0.378583	1.565602	0.059328
C102	C	0.300126	1.614083	-0.000026
C103	C	0.292190	1.565630	-0.059373
C104	C	0.362710	1.468701	-0.059359
C105	C	0.684953	0.459794	0.482102
C106	C	0.685175	0.566714	0.374769
C107	C	0.827285	0.479232	0.481696
C108	C	0.827003	0.371857	0.588560
C109	C	0.700663	0.546851	0.590117
C110	C	0.698839	0.655321	0.481440
H111	H	0.866298	0.346624	-0.001677
H112	H	0.242711	1.693009	-0.000029
H113	H	0.632610	0.745823	0.430005
H114	H	0.356236	1.429257	-0.107677
F115	F	0.386959	1.617182	-0.726480
F116	F	0.208703	1.617150	-0.481431
H117	H	0.385061	1.605036	0.107659
F118	F	0.225026	1.717215	-0.703984
H119	H	1.089798	0.421225	0.699677
F120	F	0.718664	0.342931	0.191325
H121	H	0.632683	0.588547	-0.163496
H122	H	0.321079	0.898793	-0.082977
H123	H	0.738679	0.522058	0.668339
F124	F	0.208683	1.617237	-0.122535
F125	F	0.942182	0.609170	-0.122382
F126	F	0.532568	1.417090	-0.526430
F127	F	0.598648	0.683513	0.303812
H128	H	1.089718	0.421245	-0.107542
F129	F	0.593934	1.220984	-0.691113
F130	F	0.876579	0.796104	-0.478844
H131	H	0.961825	0.597041	0.523859
H132	H	1.232068	0.333287	0.000132
H133	H	0.512981	1.429199	0.107689
F134	F	0.598203	0.508481	0.479031
H135	H	0.764586	0.813697	-0.480885
H136	H	0.618374	1.032818	-0.588120
F137	F	0.880855	0.332688	0.691281
H138	H	0.356266	1.429200	-0.308356
F139	F	0.743571	0.697318	0.514799
F140	F	0.717941	0.342590	0.480758
F141	F	0.599181	0.505761	0.026783
F142	F	0.718476	0.517741	0.304468
H143	H	0.278709	0.784171	0.114479
F144	F	0.880576	0.508299	0.517298
F145	F	0.745189	0.519100	-0.197046
F146	F	0.864460	0.426993	0.172039
F147	F	0.865436	0.253229	0.588215
F148	F	0.746366	0.692744	-0.196671
H149	H	0.153577	1.127549	0.082910
H150	H	0.196259	1.241951	-0.114431
F151	F	0.865993	0.428821	0.414254
F152	F	1.266096	0.409042	0.122655
H153	H	0.635464	0.586433	0.594221
F154	F	0.594201	1.222245	-0.517137
H155	H	0.618767	0.655510	0.036814
F156	F	0.718632	0.518667	0.190721
F157	F	0.613558	0.775736	-0.176647
H158	H	1.118544	0.596993	0.107826
H159	H	0.869244	0.500251	0.006054
F160	F	0.868975	0.250111	0.167654
H161	H	0.153538	1.127538	-0.197224
H162	H	0.855800	0.813715	-0.320301
F163	F	0.333139	0.882730	0.225047
H164	H	0.764127	0.813366	-0.320804
F165	F	1.120494	0.609166	0.281555
F166	F	0.608782	1.019687	-0.414087
H167	H	0.842173	1.031707	-0.429836
F168	F	0.859340	1.026361	-0.595304
H169	H	1.246462	0.421251	0.484310
H170	H	0.741716	1.188344	-0.506793
H171	H	1.232117	0.333325	0.679906
F172	F	0.724435	1.224479	-0.692184
