data_functionalizedCrystal
_audit_creation_method	'MofGen! by Chris Wilmer'
_symmetry_space_group_name_H-M	'P1'
_symmetry_Int_Tables_number	1
_symmetry_cell_setting	triclinic
loop_
_symmetry_equiv_pos_as_xyz
  x,y,z
_cell_length_a	18.050591
_cell_length_b	13.897448
_cell_length_c	13.897441
_cell_angle_alpha	90.030599
_cell_angle_beta	90.026738
_cell_angle_gamma	90.014140
loop_
_atom_site_label
_atom_site_type_symbol
_atom_site_fract_x
_atom_site_fract_y
_atom_site_fract_z
Zn1	Zn	1.135398	-0.384075	0.545536
Zn2	Zn	1.468731	-0.050742	0.878869
Zn3	Zn	1.802065	0.282591	1.212202
Zn4	Zn	1.135316	-0.545397	0.384237
Zn5	Zn	1.468650	-0.212064	0.717570
Zn6	Zn	1.801983	0.121269	1.050904
Zn7	Zn	1.011202	-0.384108	0.384237
Zn8	Zn	1.344535	-0.050774	0.717570
Zn9	Zn	1.677869	0.282559	1.050904
Zn10	Zn	1.011188	-0.545320	0.545473
Zn11	Zn	1.344521	-0.211987	0.878806
Zn12	Zn	1.677855	0.121346	1.212139
O13	O	1.073276	-0.464725	0.464871
O14	O	1.406609	-0.131392	0.798204
O15	O	1.739943	0.201941	1.131537
O16	O	1.239312	-0.405494	0.524165
O17	O	1.572645	-0.072161	0.857499
O18	O	1.905978	0.261173	1.190832
O19	O	1.118824	-0.524048	0.249255
O20	O	1.452157	-0.190714	0.582589
O21	O	1.785491	0.142619	0.915922
O22	O	1.027717	-0.249122	0.405660
O23	O	1.361050	0.084211	0.738993
O24	O	1.694384	0.417545	1.072327
O25	O	1.239252	-0.524016	0.405660
O26	O	1.572585	-0.190683	0.738993
O27	O	1.905918	0.142650	1.072327
O28	O	1.118963	-0.249098	0.524165
O29	O	1.452297	0.084235	0.857499
O30	O	1.785630	0.417569	1.190832
O31	O	1.027638	-0.405549	0.249255
O32	O	1.360971	-0.072216	0.582589
O33	O	1.694305	0.261118	0.915922
O34	O	0.907276	-0.405474	0.405599
O35	O	1.240609	-0.072141	0.738932
O36	O	1.573942	0.261192	1.072266
O37	O	1.027693	-0.523885	0.680463
O38	O	1.361026	-0.190552	1.013796
O39	O	1.694360	0.142782	1.347129
O40	O	0.907265	-0.523916	0.524058
O41	O	1.240599	-0.190583	0.857392
O42	O	1.573932	0.142750	1.190725
O43	O	1.118950	-0.405419	0.680509
O44	O	1.452283	-0.072086	1.013842
O45	O	1.785616	0.261247	1.347176
O46	O	1.118810	-0.680369	0.405599
O47	O	1.452144	-0.347035	0.738932
O48	O	1.785477	-0.013702	1.072266
O49	O	1.027614	-0.680312	0.524058
O50	O	1.360947	-0.346979	0.857391
O51	O	1.694281	-0.013645	1.190725
C52	C	0.880324	-0.464691	0.464822
C53	C	1.213657	-0.131358	0.798156
C54	C	1.546991	0.201975	1.131489
C55	C	0.797778	-0.464700	0.464825
C56	C	1.131112	-0.131367	0.798158
C57	C	1.464445	0.201967	1.131491
C58	C	1.073222	-0.715340	0.464843
C59	C	1.406555	-0.382006	0.798176
C60	C	1.739889	-0.048673	1.131509
C61	C	1.073267	-0.822553	0.464863
C62	C	1.406600	-0.489220	0.798196
C63	C	1.739933	-0.155887	1.131530
C64	C	1.073345	-1.018848	0.464924
C65	C	1.406678	-0.685515	0.798257
C66	C	1.740011	-0.352182	1.131590
C67	C	1.073299	-0.909616	0.464893
C68	C	1.406633	-0.576283	0.798226
C69	C	1.739966	-0.242949	1.131560
C70	C	0.548937	-0.400224	0.400559
C71	C	0.882270	-0.066891	0.733892
C72	C	1.215603	0.266442	1.067226
C73	C	0.598374	-0.376725	0.488589
C74	C	0.931707	-0.043392	0.821922
C75	C	1.265040	0.289942	1.155255
C76	C	0.500658	-0.464749	0.464904
C77	C	0.833991	-0.131416	0.798237
C78	C	1.167325	0.201917	1.131570
C79	C	0.598303	-0.488179	0.376840
C80	C	0.931636	-0.154845	0.710173
C81	C	1.264969	0.178488	1.043507
C82	C	0.646643	-0.464723	0.464860
C83	C	0.979976	-0.131389	0.798194
C84	C	1.313310	0.201944	1.131527
C85	C	0.549008	-0.441204	0.552980
C86	C	0.882341	-0.107871	0.886314
C87	C	1.215674	0.225462	1.219647
C88	C	0.548932	-0.552699	0.441172
C89	C	0.882266	-0.219366	0.774505
C90	C	1.215599	0.113968	1.107839
C91	C	0.598347	-0.529233	0.529263
C92	C	0.931680	-0.195900	0.862596
C93	C	1.265013	0.137434	1.195929
C94	C	0.416560	-0.464762	0.464927
C95	C	0.749893	-0.131429	0.798261
C96	C	1.083226	0.201905	1.131594
C97	C	0.730739	-0.464710	0.464846
C98	C	1.064073	-0.131377	0.798180
C99	C	1.397406	0.201957	1.131513
C100	C	1.266982	-0.464760	0.464920
C101	C	1.600315	-0.131427	0.798253
C102	C	1.933648	0.201907	1.131586
C103	C	1.349528	-0.464775	0.464941
C104	C	1.682861	-0.131441	0.798274
C105	C	2.016194	0.201892	1.131607
C106	C	1.073329	-0.464640	0.716464
C107	C	1.406662	-0.131307	1.049797
C108	C	1.739996	0.202027	1.383130
C109	C	1.073351	-0.464604	0.823678
C110	C	1.406685	-0.131270	1.157011
C111	C	1.740018	0.202063	1.490344
C112	C	1.073351	-0.213132	0.464920
C113	C	1.406684	0.120201	0.798253
C114	C	1.740017	0.453534	1.131586
C115	C	1.073383	-0.105918	0.464941
C116	C	1.406716	0.227415	0.798274
C117	C	1.740049	0.560748	1.131607
C118	C	1.073266	-0.464740	0.214256
C119	C	1.406600	-0.131407	0.547590
C120	C	1.739933	0.201926	0.880923
C121	C	1.073388	-0.464505	0.107043
C122	C	1.406721	-0.131172	0.440376
C123	C	1.740054	0.202162	0.773710
C124	C	1.073371	-0.464538	1.019973
C125	C	1.406705	-0.131205	1.353306
C126	C	1.740038	0.202128	1.686640
C127	C	1.073358	-0.464577	0.910740
C128	C	1.406691	-0.131244	1.244074
C129	C	1.740025	0.202089	1.577407
H130	H	0.527244	-0.345628	0.346230
H131	H	0.860577	-0.012295	0.679564
H132	H	1.193911	0.321039	1.012897
H133	H	0.619904	-0.583789	0.583721
H134	H	0.953237	-0.250455	0.917054
H135	H	1.286570	0.082878	1.250388
Br136	Br	0.513072	-0.408012	0.677116
Br137	Br	0.846406	-0.074679	1.010450
Br138	Br	1.179739	0.258655	1.343783
Br139	Br	0.634400	-0.521227	0.252744
Br140	Br	0.967733	-0.187893	0.586078
Br141	Br	1.301067	0.145440	0.919411
H142	H	0.620077	-0.302333	0.508660
H143	H	0.953411	0.031000	0.841994
H144	H	1.286744	0.364334	1.175327
Br145	Br	0.512704	-0.676650	0.407694
Br146	Br	0.846037	-0.343317	0.741027
Br147	Br	1.179370	-0.009984	1.074360
