data_functionalizedCrystal
_audit_creation_method	'MofGen! by Chris Wilmer'
_symmetry_space_group_name_H-M	'P1'
_symmetry_Int_Tables_number	1
_symmetry_cell_setting	triclinic
loop_
_symmetry_equiv_pos_as_xyz
  x,y,z
_cell_length_a	12.759401
_cell_length_b	25.639240
_cell_length_c	12.759393
_cell_angle_alpha	89.961955
_cell_angle_beta	90.019676
_cell_angle_gamma	89.956411
loop_
_atom_site_label
_atom_site_type_symbol
_atom_site_fract_x
_atom_site_fract_y
_atom_site_fract_z
Zn1	Zn	1.606059	0.208120	0.593930
Zn2	Zn	1.605862	0.295565	0.418226
Zn3	Zn	1.430357	0.208146	0.418269
Zn4	Zn	1.430262	0.295526	0.593868
O5	O	1.518135	0.251839	0.506073
O6	O	1.753054	0.219724	0.570630
O7	O	1.582539	0.283995	0.271211
O8	O	1.453786	0.134977	0.441614
O9	O	1.752909	0.283970	0.441542
O10	O	1.582873	0.134958	0.570671
O11	O	1.453596	0.219769	0.271242
O12	O	1.283324	0.219732	0.441554
O13	O	1.453624	0.283905	0.740897
O14	O	1.283254	0.283930	0.570566
O15	O	1.582781	0.219687	0.740942
O16	O	1.582447	0.368725	0.441482
O17	O	1.453434	0.368697	0.570525
C18	C	1.245168	0.251830	0.506058
C19	C	1.128391	0.251839	0.506077
C20	C	1.073605	0.218447	0.573397
C21	C	0.963881	0.218452	0.573404
C22	C	0.963739	0.285246	0.438768
C23	C	1.073461	0.285238	0.438756
C24	C	1.517937	0.387682	0.506015
C25	C	1.517948	0.445796	0.506025
C26	C	1.585400	0.806161	0.438955
C27	C	1.585432	0.860765	0.438965
O28	O	1.642643	0.889004	0.381906
N29	N	1.518220	0.888078	0.506096
C30	C	1.450978	0.860784	0.573230
O31	O	1.393812	0.889030	0.630332
C32	C	1.450952	0.806181	0.573224
C33	C	1.518162	0.778871	0.506081
C34	C	1.652605	0.778851	0.371817
C35	C	1.652571	0.724250	0.371806
C36	C	1.585333	0.696960	0.438932
C37	C	1.518128	0.724270	0.506070
C38	C	1.383716	0.778888	0.640362
C39	C	1.383697	0.724281	0.640352
C40	C	1.450906	0.696970	0.573208
C41	C	1.450855	0.642379	0.573184
N42	N	1.518068	0.615066	0.506053
C43	C	1.585307	0.642356	0.438927
C44	C	1.451039	0.975455	0.573238
C45	C	1.451059	1.030057	0.573239
C46	C	1.585515	1.030034	0.438975
C47	C	1.585489	0.975431	0.438969
C48	C	1.518252	0.948142	0.506106
C49	C	1.585230	0.527691	0.438908
C50	C	1.585187	0.473086	0.438899
C51	C	1.450736	0.473114	0.573167
C52	C	1.450774	0.527714	0.573172
C53	C	1.518030	0.555002	0.506039
O54	O	1.393677	0.614106	0.630217
O55	O	1.642473	0.614104	0.381844
C56	C	1.792168	0.251849	0.506089
C57	C	1.908945	0.251853	0.506095
C58	C	1.518214	0.251789	0.780107
C59	C	1.518247	0.251768	0.896883
C60	C	1.518323	1.115466	0.506136
C61	C	1.518302	1.057352	0.506116
C62	C	1.518117	0.251851	0.233106
C63	C	1.518287	0.251725	0.116330
C64	C	1.585504	0.218324	0.951771
C65	C	1.585522	0.218302	1.061495
C66	C	1.451023	0.285170	1.061435
C67	C	1.451001	0.285190	0.951712
H68	H	0.919001	0.312439	0.383959
H69	H	1.396224	0.312423	0.907022
C70	C	1.133055	0.182126	0.646520
C71	C	1.061585	0.152875	0.705457
C72	C	1.116308	0.119405	0.772819
H73	H	1.175856	0.202093	0.692312
H74	H	1.175846	0.159290	0.606436
H75	H	1.018812	0.175708	0.745538
H76	H	1.018781	0.132898	0.659693
H77	H	1.159099	0.096568	0.732735
H78	H	1.159107	0.139375	0.818604
H79	H	1.067824	0.099550	0.812809
C80	C	0.904265	0.182284	0.646560
C81	C	0.841245	0.211933	0.713773
C82	C	0.786303	0.178631	0.781173
H83	H	0.952577	0.162381	0.686749
H84	H	0.861414	0.159488	0.606493
H85	H	0.884092	0.234720	0.753837
H86	H	0.792913	0.231835	0.673614
H87	H	0.743451	0.155835	0.741105
H88	H	0.834623	0.158730	0.821354
H89	H	0.743530	0.198743	0.826778
C90	C	1.658488	0.181906	1.120949
C91	C	1.635714	0.130181	1.094258
C92	C	1.702920	0.096637	1.148994
H93	H	1.648940	0.186606	1.194166
H94	H	1.729079	0.189535	1.102950
H95	H	1.565141	0.122555	1.112264
H96	H	1.645268	0.125465	1.021051
H97	H	1.773511	0.104266	1.130995
H98	H	1.693367	0.101342	1.222208
H99	H	1.687484	0.061538	1.130885
C100	C	1.132762	0.321552	0.365622
C101	C	1.061175	0.350817	0.306694
C102	C	1.115765	0.384276	0.239323
H103	H	1.175572	0.301578	0.319825
H104	H	1.175533	0.344381	0.405700
H105	H	1.018422	0.327990	0.266620
H106	H	1.018363	0.370801	0.352464
H107	H	1.158536	0.407105	0.279401
H108	H	1.158573	0.364298	0.193533
H109	H	1.067202	0.404139	0.199340
H110	H	1.640217	0.953198	0.384296
H111	H	1.396275	0.312383	1.106090
C112	C	1.658737	1.059676	0.366319
C113	C	1.726067	1.090929	0.425944
C114	C	1.793574	1.118228	0.359075
H115	H	1.618786	1.081073	0.320451
H116	H	1.698826	1.035592	0.326391
H117	H	1.685983	1.115011	0.465855
H118	H	1.766042	1.069545	0.471809
H119	H	1.833663	1.094144	0.319147
H120	H	1.753614	1.139623	0.313210
H121	H	1.839271	1.139433	0.399521
H122	H	1.639998	0.549902	0.384244
H123	H	1.640258	0.191108	0.907132
C124	C	1.378196	0.945801	0.646253
C125	C	1.437622	0.914409	0.713668
C126	C	1.370559	0.887092	0.780953
H127	H	1.332406	0.924495	0.606145
H128	H	1.338192	0.969874	0.686291
H129	H	1.477608	0.890338	0.673634
H130	H	1.483409	0.935701	0.753800
H131	H	1.330555	0.911166	0.820991
H132	H	1.324772	0.865790	0.740836
H133	H	1.410870	0.865793	0.826708
H134	H	1.707302	0.702017	0.317135
C135	C	1.658279	0.443530	0.365959
C136	C	1.717190	0.479121	0.307200
C137	C	1.784541	0.451915	0.240010
H138	H	1.618220	0.422266	0.320047
H139	H	1.704080	0.422201	0.406160
H140	H	1.671395	0.500441	0.267002
H141	H	1.757270	0.500386	0.353084
H142	H	1.830342	0.430586	0.280211
H143	H	1.744474	0.430652	0.194106
H144	H	1.824527	0.476060	0.200141
C145	C	1.378251	1.059771	0.646193
C146	C	1.437716	1.091071	0.713578
C147	C	1.370683	1.118453	0.780796
H148	H	1.338181	1.035752	0.686265
H149	H	1.332520	1.081141	0.606001
H150	H	1.483428	1.069702	0.753766
H151	H	1.477784	1.115099	0.673535
H152	H	1.324953	1.139824	0.740605
H153	H	1.330617	1.094431	0.820861
H154	H	1.411020	1.139697	0.826518
C155	C	1.725651	0.808380	0.298811
C156	C	1.784472	0.772765	0.240006
C157	C	1.851760	0.799944	0.172720
H158	H	1.771519	0.829647	0.338912
H159	H	1.685519	0.829703	0.252940
H160	H	1.824601	0.751450	0.285871
H161	H	1.738632	0.751497	0.199883
H162	H	1.811628	0.821267	0.126850
H163	H	1.897622	0.821210	0.212830
H164	H	1.891672	0.775783	0.132806
H165	H	1.328982	0.801114	0.695033
H166	H	1.328945	0.702064	0.695026
H167	H	1.396050	0.549951	0.627849
H168	H	1.395987	0.450885	0.627817
