data_functionalizedCrystal
_audit_creation_method	'MofGen! by Chris Wilmer'
_symmetry_space_group_name_H-M	'P1'
_symmetry_Int_Tables_number	1
_symmetry_cell_setting	triclinic
loop_
_symmetry_equiv_pos_as_xyz
  x,y,z
_cell_length_a	14.971491
_cell_length_b	9.065215
_cell_length_c	14.048226
_cell_angle_alpha	89.994559
_cell_angle_beta	89.991693
_cell_angle_gamma	84.315466
loop_
_atom_site_label
_atom_site_type_symbol
_atom_site_fract_x
_atom_site_fract_y
_atom_site_fract_z
O1	O	1.188376	0.192298	-0.079199
O2	O	0.928148	0.215313	-0.079192
O3	O	1.063642	-0.010946	-0.079192
O4	O	1.052882	0.418557	-0.079200
O5	O	1.063626	-0.010959	0.079129
O6	O	0.928131	0.215300	0.079129
O7	O	1.188360	0.192284	0.079122
Zn8	Zn	1.058243	0.203790	0.104262
Zn9	Zn	1.058265	0.203808	-0.104333
O10	O	1.052865	0.418544	0.079122
C11	C	0.894807	0.214276	-0.000031
C12	C	0.795488	0.211187	-0.000028
C13	C	0.367692	0.197867	-0.086351
C14	C	0.461014	0.200765	-0.086347
C15	C	0.507661	0.202216	-0.000043
C16	C	0.460983	0.200754	0.086264
C17	C	0.367664	0.197846	0.086259
C18	C	0.655490	0.206819	0.086267
C19	C	0.748816	0.209731	0.086272
C20	C	0.748840	0.209738	-0.086339
C21	C	0.655521	0.206830	-0.086344
C22	C	0.608849	0.205371	-0.000037
C23	C	1.062600	-0.065918	-0.000032
C24	C	1.059510	-0.229699	-0.000035
C25	C	1.221700	0.193322	-0.000042
C26	C	1.321020	0.196410	-0.000051
C27	C	1.053907	0.473516	-0.000040
C28	C	1.056997	0.637297	-0.000044
N29	N	1.058234	0.203777	0.246623
N30	N	1.058280	0.203809	-0.246693
C31	C	1.118251	0.103631	0.296441
C32	C	1.118257	0.103630	0.396099
C33	C	1.058250	0.203784	0.445937
C34	C	0.998227	0.303935	0.396111
C35	C	0.998218	0.303927	0.296456
C36	C	0.998253	0.303946	0.603826
C37	C	0.998264	0.303955	0.703488
C38	C	1.118292	0.103648	0.703469
C39	C	1.118283	0.103641	0.603813
C40	C	1.058261	0.203794	0.553995
H41	H	0.786844	0.210928	-0.156613
N42	N	0.317323	0.196265	0.179340
H43	H	0.361107	0.196588	0.234012
H44	H	0.272522	0.286973	0.183389
N45	N	0.511293	0.202333	0.179349
H46	H	0.467564	0.200968	0.234019
H47	H	0.556527	0.112157	0.183117
N48	N	0.933511	0.411967	0.449863
H49	H	0.895489	0.475408	0.403178
H50	H	0.893519	0.355383	0.491230
H51	H	1.167119	0.022080	0.255870
N52	N	0.511360	0.202354	-0.179422
H53	H	0.556590	0.112175	-0.183267
H54	H	0.467594	0.201059	-0.234047
N55	N	0.933492	0.411946	0.242715
H56	H	0.893432	0.355449	0.201387
H57	H	0.895539	0.475373	0.289464
N58	N	1.183047	-0.004348	0.757198
H59	H	1.221070	-0.067776	0.710504
H60	H	1.223034	0.052292	0.798517
H61	H	0.949399	0.385509	0.744061
H62	H	0.786793	0.210920	0.156548
H63	H	0.617491	0.205650	0.156547
N64	N	0.933513	0.411959	0.550090
H65	H	0.895502	0.475411	0.596782
H66	H	0.968278	0.477272	0.508726
N67	N	0.605204	0.205255	-0.179425
H68	H	0.559973	0.295431	-0.183279
H69	H	0.648989	0.206560	-0.234045
N70	N	0.317377	0.196302	-0.179434
H71	H	0.327112	0.288190	-0.217171
H72	H	0.340160	0.105362	-0.217081
N73	N	1.183019	-0.004334	0.449833
H74	H	1.221046	-0.067757	0.403139
H75	H	1.223002	0.052323	0.491146
N76	N	1.183008	-0.004369	0.550056
H77	H	1.221032	-0.067817	0.596735
H78	H	1.148235	-0.069687	0.508723
