data_functionalizedCrystal
_audit_creation_method	'MofGen! by Chris Wilmer'
_symmetry_space_group_name_H-M	'P1'
_symmetry_Int_Tables_number	1
_symmetry_cell_setting	triclinic
loop_
_symmetry_equiv_pos_as_xyz
  x,y,z
_cell_length_a	12.645330
_cell_length_b	12.759395
_cell_length_c	12.759387
_cell_angle_alpha	90.020509
_cell_angle_beta	89.970586
_cell_angle_gamma	89.980771
loop_
_atom_site_label
_atom_site_type_symbol
_atom_site_fract_x
_atom_site_fract_y
_atom_site_fract_z
Zn1	Zn	-0.421940	-1.606247	-0.594015
Zn2	Zn	-0.599242	-1.606128	-0.418340
Zn3	Zn	-0.421998	-1.430545	-0.418352
Zn4	Zn	-0.599167	-1.430528	-0.593979
O5	O	-0.510587	-1.518362	-0.506172
O6	O	-0.445467	-1.753252	-0.570722
O7	O	-0.575786	-1.582794	-0.271320
O8	O	-0.273643	-1.453909	-0.441674
O9	O	-0.575730	-1.753165	-0.441654
O10	O	-0.273600	-1.582996	-0.570733
O11	O	-0.445565	-1.453794	-0.271329
O12	O	-0.445492	-1.283522	-0.441639
O13	O	-0.575601	-1.453880	-0.741005
O14	O	-0.575657	-1.283509	-0.570672
O15	O	-0.445394	-1.582980	-0.741032
O16	O	-0.747579	-1.582778	-0.441619
O17	O	-0.747524	-1.453765	-0.570660
C18	C	-0.510574	-1.245395	-0.506153
C19	C	-0.510594	-1.128618	-0.506171
C20	C	-0.786016	-1.518285	-0.506157
C21	C	-0.903846	-1.518349	-0.506186
C22	C	-0.510483	-1.518441	-0.780205
C23	C	-0.510438	-1.518475	-0.896982
C24	C	-1.071420	-1.437522	-0.587616
C25	C	-0.948860	-1.437108	-0.587354
C26	C	-0.948450	-1.488373	-0.395464
C27	C	-1.071049	-1.487880	-0.395958
C28	C	-1.070930	-1.629646	-0.534579
C29	C	-0.948323	-1.628964	-0.537001
C30	C	-0.234081	-1.518468	-0.506209
C31	C	-0.116251	-1.518513	-0.506225
C32	C	-0.510600	-1.792395	-0.506190
C33	C	-0.510606	-1.909172	-0.506198
C34	C	-0.646354	-1.128644	-0.640315
C35	C	-0.714242	-1.073796	-0.707390
C36	C	-0.714255	-0.964074	-0.707403
C37	C	-0.646370	-0.909198	-0.640335
C38	C	-0.578482	-0.964046	-0.573260
C39	C	-0.578478	-1.073770	-0.573253
C40	C	-0.442718	-0.964020	-0.439123
C41	C	-0.442709	-1.073742	-0.439103
C42	C	-0.374833	-0.909144	-0.372056
C43	C	-0.306948	-0.963992	-0.304974
C44	C	-0.306939	-1.073720	-0.304963
C45	C	-0.374820	-1.128590	-0.372028
C46	C	-0.374862	-1.652916	-0.897029
C47	C	-0.307058	-1.720151	-0.951914
C48	C	-0.307019	-1.720176	-1.061636
C49	C	-0.374790	-1.652958	-1.116475
C50	C	-0.442594	-1.585723	-1.061591
C51	C	-0.442627	-1.585707	-0.951867
C52	C	-0.578163	-1.451278	-1.061543
C53	C	-0.578209	-1.451256	-0.951822
C54	C	-0.645934	-1.384059	-1.116383
C55	C	-0.713745	-1.316828	-1.061498
C56	C	-0.713781	-1.316806	-0.951770
C57	C	-0.646013	-1.384021	-0.896937
C58	C	-0.510614	-1.518344	-0.233204
C59	C	-0.510359	-1.518513	-0.116428
H60	H	-0.918699	-1.455863	-0.669454
H61	H	-0.374897	-1.652912	-0.807688
C62	C	-0.646045	-1.384002	-0.776240
N63	N	-0.646062	-1.383987	-0.685330
C64	C	-0.907113	-1.379760	-0.362430
N65	N	-0.875981	-1.297950	-0.337555
H66	H	-0.374743	-1.652975	-1.205816
H67	H	-0.919166	-1.651570	-0.618486
C68	C	-1.111122	-1.564102	-0.311231
N69	N	-1.141300	-1.621505	-0.247409
C70	C	-0.906924	-1.714780	-0.462744
N71	N	-0.875744	-1.779413	-0.406804
C72	C	-0.232513	-1.794087	-0.891583
N73	N	-0.176364	-1.849774	-0.846143
H74	H	-1.099922	-1.689986	-0.475299
C75	C	-0.909057	-1.565532	-0.311296
N76	N	-0.879381	-1.623647	-0.247901
H77	H	-0.374843	-0.819803	-0.372076
H78	H	-0.251648	-1.118371	-0.250350
C79	C	-1.112582	-1.666583	-0.641803
N80	N	-1.143954	-1.694392	-0.722569
C81	C	-0.909366	-1.325786	-0.562054
N82	N	-0.879619	-1.241927	-0.543023
C83	C	-0.788917	-1.134167	-0.781156
N84	N	-0.845163	-1.179637	-0.836715
H85	H	-0.374822	-1.217931	-0.372023
H86	H	-0.251801	-1.774918	-1.106323
C87	C	-1.111152	-1.462617	-0.698895
N88	N	-1.141089	-1.481519	-0.782712
H89	H	-0.645893	-1.384081	-1.205724
H90	H	-0.251676	-0.919303	-0.250379
H91	H	-0.768912	-1.262098	-1.106157
H92	H	-1.099744	-1.406640	-0.371938
C93	C	-1.113155	-1.326909	-0.562556
N94	N	-1.144588	-1.243595	-0.543674
H95	H	-0.769531	-0.919417	-0.762026
C96	C	-0.646372	-0.788501	-0.640370
N97	N	-0.646369	-0.697591	-0.640399
H98	H	-0.646358	-1.217985	-0.640303
H99	H	-0.768984	-1.262044	-0.907089
