data_functionalizedCrystal
_audit_creation_method	'MofGen! by Chris Wilmer'
_symmetry_space_group_name_H-M	'P1'
_symmetry_Int_Tables_number	1
_symmetry_cell_setting	triclinic
loop_
_symmetry_equiv_pos_as_xyz
  x,y,z
_cell_length_a	12.759400
_cell_length_b	12.827893
_cell_length_c	12.827885
_cell_angle_alpha	90.019272
_cell_angle_beta	89.969506
_cell_angle_gamma	89.985345
loop_
_atom_site_label
_atom_site_type_symbol
_atom_site_fract_x
_atom_site_fract_y
_atom_site_fract_z
Zn1	Zn	-0.418216	-1.597675	-0.590844
Zn2	Zn	-0.593932	-1.597571	-0.416102
Zn3	Zn	-0.418267	-1.422916	-0.416117
Zn4	Zn	-0.593854	-1.422904	-0.590802
O5	O	-0.506067	-1.510266	-0.503466
O6	O	-0.441537	-1.743897	-0.567675
O7	O	-0.570684	-1.574365	-0.269868
O8	O	-0.271240	-1.446147	-0.439319
O9	O	-0.570634	-1.743821	-0.439293
O10	O	-0.271202	-1.574541	-0.567690
O11	O	-0.441624	-1.446046	-0.269879
O12	O	-0.441548	-1.276678	-0.439278
O13	O	-0.570501	-1.446125	-0.737043
O14	O	-0.570550	-1.276669	-0.567618
O15	O	-0.441461	-1.574529	-0.737074
O16	O	-0.740942	-1.574352	-0.439252
O17	O	-0.740885	-1.446025	-0.567603
C18	C	-0.506047	-1.238756	-0.503446
C19	C	-0.506064	-1.122603	-0.503462
C20	C	-0.779035	-1.510204	-0.503444
C21	C	-0.895811	-1.510273	-0.503470
C22	C	-0.505966	-1.510337	-0.776036
C23	C	-0.505923	-1.510368	-0.892190
C24	C	-0.950668	-1.577168	-0.436711
C25	C	-1.060392	-1.577232	-0.436743
C26	C	-1.060393	-1.443499	-0.570296
C27	C	-0.950671	-1.443440	-0.570268
C28	C	-0.895809	-1.644001	-0.369913
C29	C	-0.950666	-1.710899	-0.303148
C30	C	-1.060390	-1.710964	-0.303180
C31	C	-1.115257	-1.644129	-0.369977
C32	C	-0.232034	-1.510357	-0.503511
C33	C	-0.115257	-1.510396	-0.503530
C34	C	-0.506088	-1.782836	-0.503487
C35	C	-0.506097	-1.898990	-0.503495
C36	C	-0.569998	-1.070842	-0.566871
C37	C	-0.570017	-0.950791	-0.566889
C38	C	-0.442058	-1.573913	-0.943989
C39	C	-0.442012	-1.573946	-1.064040
C40	C	-0.506092	-1.510256	-0.231956
C41	C	-0.505839	-1.510428	-0.115803
H42	H	-0.806466	-1.643953	-0.369876
C43	C	-0.368139	-1.647442	-1.124217
N44	N	-0.312493	-1.702800	-1.169546
C45	C	-0.579711	-1.436925	-1.055633
N46	N	-0.635350	-1.381560	-1.010304
H47	H	-1.204602	-1.644195	-0.370006
C48	C	-0.643966	-0.890658	-0.640231
N49	N	-0.699666	-0.845363	-0.695475
C50	C	-0.890324	-1.369838	-0.643691
N51	N	-0.844872	-1.314395	-0.698991
H52	H	-0.905988	-1.765320	-0.248770
H53	H	-0.451337	-1.078042	-0.449194
H54	H	-1.105052	-1.765443	-0.248825
H55	H	-1.105074	-1.389084	-0.624678
H56	H	-0.624717	-1.115403	-0.621148
H57	H	-0.560560	-1.455982	-0.936718
H58	H	-0.451362	-0.943497	-0.449202
C59	C	-0.368231	-1.647376	-0.883838
N60	N	-0.312622	-1.702711	-0.838533
