data_functionalizedCrystal
_audit_creation_method	'MofGen! by Chris Wilmer'
_symmetry_space_group_name_H-M	'P1'
_symmetry_Int_Tables_number	1
_symmetry_cell_setting	triclinic
loop_
_symmetry_equiv_pos_as_xyz
  x,y,z
_cell_length_a	16.974800
_cell_length_b	19.188930
_cell_length_c	15.455450
_cell_angle_alpha	87.006217
_cell_angle_beta	83.360050
_cell_angle_gamma	83.267966
loop_
_atom_site_label
_atom_site_type_symbol
_atom_site_fract_x
_atom_site_fract_y
_atom_site_fract_z
O1	O	1.048905	0.088996	-0.001517
O2	O	1.548905	0.588996	0.498483
O3	O	0.817969	0.099728	0.014703
O4	O	1.317969	0.599728	0.514703
O5	O	0.940102	-0.007264	0.006108
O6	O	1.440102	0.492736	0.506108
O7	O	0.926772	0.195988	0.007078
O8	O	1.426772	0.695988	0.507078
O9	O	0.946254	-0.001800	-0.138582
O10	O	1.446254	0.498200	0.361418
O11	O	0.824120	0.105192	-0.129987
O12	O	1.324120	0.605192	0.370013
O13	O	1.055057	0.094460	-0.146207
O14	O	1.555057	0.594460	0.353793
Cu15	Cu	0.940150	0.100325	-0.151308
Cu16	Cu	1.440150	0.600325	0.348692
Cu17	Cu	0.932875	0.093863	0.019804
Cu18	Cu	1.432875	0.593863	0.519804
O19	O	0.932923	0.201452	-0.137612
O20	O	1.432923	0.701452	0.362388
C21	C	0.791499	0.101952	-0.055567
C22	C	1.291499	0.601952	0.444433
C23	C	0.703463	0.100430	-0.049385
C24	C	1.203463	0.600430	0.450615
C25	C	0.665462	0.102691	-0.125353
C26	C	1.165462	0.602691	0.374647
C27	C	0.582745	0.101250	-0.119546
C28	C	1.082745	0.601250	0.380454
C29	C	0.538030	0.097552	-0.037771
C30	C	1.038030	0.597552	0.462229
C31	C	0.576037	0.095288	0.038203
C32	C	1.076037	0.595288	0.538203
C33	C	0.658753	0.096724	0.032395
C34	C	1.158753	0.596724	0.532395
C35	C	0.290285	0.092931	-0.011945
C36	C	0.790285	0.592931	0.488055
C37	C	0.207563	0.091496	-0.006144
C38	C	0.707563	0.591496	0.493856
C39	C	0.214277	0.097457	-0.163893
C40	C	0.714277	0.597457	0.336107
C41	C	0.296994	0.098898	-0.169693
C42	C	0.796994	0.598898	0.330307
C43	C	0.334994	0.096630	-0.093720
C44	C	0.834994	0.596630	0.406280
N45	N	0.453480	0.096080	-0.031834
N46	N	0.953480	0.596080	0.468166
N47	N	0.419544	0.098097	-0.099658
N48	N	0.919544	0.598097	0.400342
C49	C	0.942746	-0.030545	-0.066209
C50	C	1.442746	0.469455	0.433791
C51	C	0.941451	-0.108055	-0.066126
C52	C	1.441451	0.391945	0.433874
C53	C	1.013115	-0.152668	-0.071163
C54	C	1.513115	0.347332	0.428837
C55	C	1.011897	-0.225497	-0.071064
C56	C	1.511897	0.274503	0.428936
C57	C	0.939012	-0.253710	-0.065944
C58	C	1.439012	0.246290	0.434056
C59	C	0.867339	-0.209087	-0.060901
C60	C	1.367339	0.290913	0.439099
C61	C	0.868558	-0.136260	-0.060992
C62	C	1.368558	0.363740	0.439008
N63	N	0.885394	-0.360097	-0.111272
N64	N	1.385394	0.139903	0.388728
N65	N	0.884240	-0.429281	-0.111188
N66	N	1.384240	0.070719	0.388812
C67	C	0.935333	-0.473135	-0.065668
C68	C	1.435333	0.026865	0.434332
N69	N	0.987636	-0.445193	-0.020247
N70	N	1.487636	0.054807	0.479753
N71	N	0.988792	-0.376003	-0.020336
N72	N	1.488792	0.123997	0.479664
C73	C	0.937681	-0.332679	-0.065844
C74	C	1.437681	0.167321	0.434156
C75	C	1.005681	-0.596719	-0.070597
C76	C	1.505681	-0.096719	0.429403
C77	C	1.004460	-0.669550	-0.070492
C78	C	1.504460	-0.169550	0.429508
C79	C	0.859900	-0.653138	-0.060338
C80	C	1.359900	-0.153138	0.439662
C81	C	0.861123	-0.580309	-0.060434
C82	C	1.361123	-0.080309	0.439566
C83	C	0.934016	-0.552104	-0.065568
C84	C	1.434016	-0.052104	0.434432
C85	C	1.081526	0.092236	-0.075935
C86	C	1.581526	0.592236	0.424065
C87	C	1.169562	0.093758	-0.082111
C88	C	1.669562	0.593758	0.417889
C89	C	0.930279	0.224733	-0.065293
C90	C	1.430279	0.724733	0.434707
C91	C	0.931574	0.302242	-0.065371
C92	C	1.431574	0.802242	0.434629
N93	N	0.945273	0.104870	-0.271660
N94	N	1.445273	0.604870	0.228340
C95	C	0.899276	0.064140	-0.313856
C96	C	1.399276	0.564140	0.186144
C97	C	0.903170	0.067585	-0.404934
C98	C	1.403170	0.567585	0.095066
C99	C	0.953064	0.111756	-0.453816
C100	C	1.453064	0.611756	0.046184
C101	C	0.999062	0.152491	-0.411614
C102	C	1.499062	0.652491	0.088386
C103	C	0.995164	0.149049	-0.320537
C104	C	1.495164	0.649049	0.179463
C105	C	0.969859	0.126605	-0.726565
C106	C	1.469859	0.626605	-0.226565
C107	C	0.973755	0.130042	-0.817649
C108	C	1.473755	0.630042	-0.317649
C109	C	0.877862	0.045138	-0.810963
C110	C	1.377862	0.545138	-0.310963
C111	C	0.873972	0.041697	-0.719884
C112	C	1.373972	0.541697	-0.219884
C113	C	0.919966	0.082433	-0.677690
C114	C	1.419966	0.582433	-0.177690
N115	N	0.957046	0.115277	-0.546913
N116	N	1.457046	0.615277	-0.046913
N117	N	0.915979	0.078916	-0.584594
N118	N	1.415979	0.578916	-0.084594
N119	N	0.927759	0.089313	0.140156
N120	N	1.427759	0.589313	0.640156
H121	H	0.171158	0.088487	0.060451
H122	H	0.671158	0.588487	0.560451
H123	H	1.039684	0.188459	-0.451420
H124	H	1.539684	0.688459	0.048580
H125	H	0.701863	0.105709	-0.191943
H126	H	1.201863	0.605709	0.308057
H127	H	0.858650	0.028169	-0.274063
H128	H	1.358650	0.528169	0.225937
H129	H	0.807995	-0.232063	-0.056731
H130	H	1.307995	0.267937	0.443269
H131	H	0.810199	-0.099935	-0.056890
H132	H	1.310199	0.400065	0.443110
H133	H	1.032617	0.182217	-0.286182
H134	H	1.532617	0.682217	0.213818
H135	H	0.539624	0.092272	0.104786
H136	H	1.039624	0.592272	0.604786
H137	H	1.062819	-0.705874	-0.074589
H138	H	1.562819	-0.205874	0.425411
H139	H	0.183328	0.099302	-0.225746
H140	H	0.683328	0.599302	0.274254
H141	H	0.551810	0.103080	-0.181408
H142	H	1.051810	0.603080	0.318592
H143	H	0.865715	0.034418	-0.439286
H144	H	1.365715	0.534418	0.060714
H145	H	0.333396	0.101906	-0.236283
H146	H	0.833396	0.601906	0.263717
H147	H	1.065035	-0.573754	-0.074773
H148	H	1.565035	-0.073754	0.425227
H149	H	0.800556	-0.676108	-0.056165
H150	H	1.300556	-0.176108	0.443835
H151	H	0.321215	0.091082	0.049918
H152	H	0.821215	0.591082	0.549918
H153	H	0.689693	0.094884	0.094257
H154	H	1.189693	0.594884	0.594257
H155	H	0.802767	-0.543984	-0.056337
H156	H	1.302767	-0.043984	0.443663
H157	H	0.840414	0.011973	-0.845327
H158	H	1.340414	0.511973	-0.345327
H159	H	1.072469	-0.129708	-0.075341
H160	H	1.572469	0.370292	0.424659
H161	H	0.833345	0.005726	-0.680091
H162	H	1.333345	0.505726	-0.180091
H163	H	1.070256	-0.261828	-0.075162
H164	H	1.570256	0.238172	0.424838
H165	H	1.014386	0.166015	-0.857446
H166	H	1.514386	0.666015	-0.357446
H167	H	1.007315	0.159773	-0.692222
H168	H	1.507315	0.659773	-0.192222
