data_functionalizedCrystal
_audit_creation_method	'MofGen! by Chris Wilmer'
_symmetry_space_group_name_H-M	'P1'
_symmetry_Int_Tables_number	1
_symmetry_cell_setting	triclinic
loop_
_symmetry_equiv_pos_as_xyz
  x,y,z
_cell_length_a	16.109301
_cell_length_b	16.109301
_cell_length_c	18.366186
_cell_angle_alpha	89.992337
_cell_angle_beta	89.993316
_cell_angle_gamma	83.461532
loop_
_atom_site_label
_atom_site_type_symbol
_atom_site_fract_x
_atom_site_fract_y
_atom_site_fract_z
O1	O	1.103137	0.106869	-0.060512
O2	O	0.861075	0.120168	-0.060522
O3	O	0.988756	-0.007512	-0.060510
O4	O	0.975456	0.234550	-0.060525
O5	O	0.988734	-0.007518	0.060590
O6	O	0.861053	0.120162	0.060577
O7	O	1.103115	0.106863	0.060587
Zn8	Zn	0.982081	0.113512	0.079809
Zn9	Zn	0.982110	0.113520	-0.079744
O10	O	0.975435	0.234544	0.060574
C11	C	0.830089	0.119627	0.000026
C12	C	0.737794	0.118011	0.000022
C13	C	0.428796	0.188494	0.000030
C14	C	0.515516	0.190020	0.000026
C15	C	0.535389	0.038531	0.000026
C16	C	0.448671	0.037007	0.000025
C17	C	0.395376	0.111991	0.000031
C18	C	0.568815	0.115041	0.000028
C19	C	0.662841	0.116694	0.000023
C20	C	0.301344	0.110338	0.000034
C21	C	0.988206	-0.038490	0.000041
C22	C	0.986591	-0.130785	0.000041
C23	C	1.058599	-0.353058	0.000033
C24	C	1.057075	-0.439778	0.000027
C25	C	0.905586	-0.419904	0.000023
C26	C	0.907111	-0.333185	0.000024
C27	C	0.983620	-0.299765	0.000033
C28	C	0.980571	-0.473204	0.000026
C29	C	0.978918	-0.567230	0.000019
C30	C	0.985273	-0.205733	0.000038
C31	C	1.134101	0.107405	0.000037
C32	C	1.226396	0.109020	0.000036
C33	C	0.975984	0.265522	0.000023
C34	C	0.977599	0.357817	0.000017
N35	N	0.982068	0.113505	0.188700
N36	N	0.982130	0.113519	-0.188635
C37	C	1.038623	0.056996	0.226807
C38	C	1.038628	0.056992	0.303034
C39	C	0.982086	0.113512	0.341153
C40	C	0.925520	0.170026	0.303038
C41	C	0.925511	0.170022	0.226811
C42	C	0.971173	0.189235	0.461908
C43	C	0.971188	0.189239	0.538133
C44	C	0.982110	0.113523	0.576261
C45	C	0.993034	0.037798	0.538154
C46	C	0.993025	0.037795	0.461927
C47	C	0.982089	0.113522	0.423808
C48	C	1.038674	0.057005	0.697022
C49	C	1.038673	0.057000	0.773251
C50	C	0.925569	0.170040	0.773253
C51	C	0.925565	0.170038	0.697025
C52	C	0.982122	0.113521	0.658914
H53	H	0.578792	-0.022518	0.000023
H54	H	0.385405	0.249551	0.000035
H55	H	0.879455	0.216040	0.195785
O56	O	0.416301	-0.037366	-0.000071
C57	C	0.406716	-0.167276	-0.062834
C58	C	0.443446	-0.083093	-0.062803
H59	H	0.428634	-0.204263	-0.113555
H60	H	0.428680	-0.204394	-0.012188
H61	H	0.335583	-0.155464	-0.062801
H62	H	0.514580	-0.094829	-0.062861
H63	H	0.421416	-0.046002	-0.113444
H64	H	0.846050	-0.289791	0.000022
H65	H	0.542722	0.252317	0.000025
O66	O	0.831217	-0.452271	0.000117
C67	C	0.701285	-0.461863	0.062873
C68	C	0.785472	-0.425141	0.062848
H69	H	0.664284	-0.439957	0.113594
H70	H	0.664184	-0.439881	0.012227
H71	H	0.713091	-0.532997	0.062839
H72	H	0.773742	-0.354006	0.062908
H73	H	0.822546	-0.447188	0.113490
O74	O	1.132989	-0.320730	0.000000
C75	C	1.283083	-0.349600	0.000035
C76	C	1.198894	-0.386318	0.000060
H77	H	1.336390	-0.402609	0.000099
H78	H	1.287645	-0.309521	-0.050657
H79	H	1.287538	-0.309475	0.050703
H80	H	1.194382	-0.426480	-0.050573
H81	H	1.194368	-0.426349	0.050786
H82	H	1.084673	0.010975	0.195779
H83	H	1.118130	-0.483167	0.000026
H84	H	0.962264	0.250896	0.430871
H85	H	1.001927	-0.023857	0.569195
O86	O	1.093645	0.002062	0.339948
C87	C	1.205791	-0.110093	0.331908
C88	C	1.143547	-0.047915	0.290015
H89	H	1.246141	-0.150527	0.291555
H90	H	1.247371	-0.074226	0.367563
H91	H	1.169894	-0.151598	0.367626
H92	H	1.179375	-0.006394	0.254257
H93	H	1.101968	-0.083833	0.254405
O94	O	0.870480	0.224846	0.340031
C95	C	0.725909	0.273545	0.363346
C96	C	0.788155	0.211404	0.321420
H97	H	0.659336	0.262711	0.348303
H98	H	0.735560	0.263842	0.424382
H99	H	0.736758	0.340134	0.348354
H100	H	0.777345	0.144791	0.336351
H101	H	0.778490	0.221180	0.260394
H102	H	1.001918	-0.023862	0.430904
O103	O	1.093635	0.002021	0.660108
C104	C	1.205848	-0.110067	0.668150
C105	C	1.143638	-0.047856	0.710041
H106	H	1.246304	-0.150397	0.708502
H107	H	1.170007	-0.151669	0.632493
H108	H	1.247329	-0.074143	0.632431
H109	H	1.102142	-0.083712	0.745799
H110	H	1.179531	-0.006254	0.745652
H111	H	1.084725	0.010979	0.804278
O112	O	0.870527	0.224862	0.810239
C113	C	0.725956	0.273569	0.833544
C114	C	0.788203	0.211425	0.791622
H115	H	0.659383	0.262738	0.818496
H116	H	0.735601	0.263866	0.894581
H117	H	0.736810	0.340157	0.818553
H118	H	0.777387	0.144813	0.806552
H119	H	0.778543	0.221201	0.730596
O120	O	0.870716	0.225055	0.660039
C121	C	0.821921	0.369609	0.636742
C122	C	0.884103	0.307392	0.678659
H123	H	0.832711	0.436191	0.651792
H124	H	0.831624	0.359974	0.575705
H125	H	0.755346	0.358712	0.651736
H126	H	0.950703	0.318251	0.663726
H127	H	0.874328	0.317042	0.739686
H128	H	0.962298	0.250898	0.569154
