data_functionalizedCrystal
_audit_creation_method	'MofGen! by Chris Wilmer'
_symmetry_space_group_name_H-M	'P1'
_symmetry_Int_Tables_number	1
_symmetry_cell_setting	triclinic
loop_
_symmetry_equiv_pos_as_xyz
  x,y,z
_cell_length_a	19.121414
_cell_length_b	19.121063
_cell_length_c	18.050582
_cell_angle_alpha	92.415032
_cell_angle_beta	92.421198
_cell_angle_gamma	94.802198
loop_
_atom_site_label
_atom_site_type_symbol
_atom_site_fract_x
_atom_site_fract_y
_atom_site_fract_z
Zn1	Zn	1.063678	-0.234282	-0.382590
Zn2	Zn	1.397011	0.099052	-0.049256
Zn3	Zn	1.730344	0.432385	0.284077
Zn4	Zn	1.058575	-0.351944	-0.263929
Zn5	Zn	1.391908	-0.018610	0.069404
Zn6	Zn	1.725241	0.314723	0.402738
Zn7	Zn	0.946023	-0.239312	-0.263936
Zn8	Zn	1.279356	0.094021	0.069397
Zn9	Zn	1.612689	0.427355	0.402731
Zn10	Zn	0.940957	-0.356933	-0.393596
Zn11	Zn	1.274290	-0.023599	-0.060263
Zn12	Zn	1.607623	0.309734	0.273070
O13	O	1.002308	-0.295617	-0.326013
O14	O	1.335641	0.037716	0.007321
O15	O	1.668975	0.371049	0.340654
O16	O	1.161463	-0.245697	-0.362240
O17	O	1.494797	0.087637	-0.028907
O18	O	1.828130	0.420970	0.304427
O19	O	1.043629	-0.337020	-0.160007
O20	O	1.376962	-0.003687	0.173326
O21	O	1.710295	0.329646	0.506660
O22	O	0.965886	-0.140178	-0.275072
O23	O	1.299219	0.193155	0.058261
O24	O	1.632552	0.526489	0.391594
O25	O	1.157714	-0.332142	-0.275061
O26	O	1.491047	0.001191	0.058273
O27	O	1.824381	0.334524	0.391606
O28	O	1.052326	-0.136482	-0.362247
O29	O	1.385660	0.196851	-0.028913
O30	O	1.718993	0.530184	0.304420
O31	O	0.960937	-0.254270	-0.160012
O32	O	1.294271	0.079063	0.173321
O33	O	1.627604	0.412397	0.506655
O34	O	0.846888	-0.259108	-0.285745
O35	O	1.180221	0.074226	0.047589
O36	O	1.513555	0.407559	0.380922
O37	O	0.957251	-0.340645	-0.496059
O38	O	1.290585	-0.007312	-0.162726
O39	O	1.623918	0.326021	0.170607
O40	O	0.843166	-0.345523	-0.381006
O41	O	1.176499	-0.012190	-0.047672
O42	O	1.509833	0.321144	0.285661
O43	O	1.047414	-0.250534	-0.487973
O44	O	1.380747	0.082799	-0.154640
O45	O	1.714081	0.416133	0.178694
O46	O	1.038716	-0.451072	-0.285733
O47	O	1.372050	-0.117739	0.047600
O48	O	1.705383	0.215595	0.380934
O49	O	0.952303	-0.454737	-0.380999
O50	O	1.285636	-0.121404	-0.047666
O51	O	1.618970	0.211929	0.285668
C52	C	0.819497	-0.303403	-0.334571
C53	C	1.152830	0.029930	-0.001237
C54	C	1.486164	0.363264	0.332096
C55	C	0.741289	-0.306751	-0.338250
C56	C	1.074622	0.026583	-0.004917
C57	C	1.407955	0.359916	0.328416
C58	C	0.706467	-0.263264	-0.290457
C59	C	1.039800	0.070070	0.042877
C60	C	1.373133	0.403403	0.376210
C61	C	0.632981	-0.266415	-0.293914
C62	C	0.966315	0.066918	0.039419
C63	C	1.299648	0.400251	0.372753
C64	C	0.594320	-0.313051	-0.345169
C65	C	0.927653	0.020283	-0.011836
C66	C	1.260987	0.353616	0.321497
C67	C	0.629147	-0.356542	-0.392965
C68	C	0.962481	-0.023209	-0.059632
C69	C	1.295814	0.310124	0.273702
C70	C	0.702631	-0.353394	-0.389503
C71	C	1.035964	-0.020061	-0.056170
C72	C	1.369297	0.313273	0.277163
C73	C	0.372351	-0.324815	-0.358095
C74	C	0.705684	0.008519	-0.024762
C75	C	1.039018	0.341852	0.308572
C76	C	0.298862	-0.327958	-0.361555
C77	C	0.632196	0.005375	-0.028221
C78	C	0.965529	0.338708	0.305112
C79	C	0.302702	-0.237832	-0.262502
C80	C	0.636035	0.095501	0.070831
C81	C	0.969368	0.428835	0.404164
C82	C	0.376187	-0.234685	-0.259048
C83	C	0.709520	0.098649	0.074285
C84	C	1.042853	0.431982	0.407618
C85	C	0.411007	-0.278179	-0.306841
C86	C	0.744341	0.055155	0.026492
C87	C	1.077674	0.388488	0.359825
C88	C	0.519207	-0.316272	-0.348706
C89	C	0.852540	0.017062	-0.015373
C90	C	1.185873	0.350395	0.317961
C91	C	0.486119	-0.274961	-0.303300
C92	C	0.819453	0.058372	0.030033
C93	C	1.152786	0.391706	0.363366
C94	C	0.994425	-0.478435	-0.334575
C95	C	1.327759	-0.145102	-0.001242
C96	C	1.661092	0.188232	0.332092
C97	C	0.991118	-0.556643	-0.338260
C98	C	1.324451	-0.223309	-0.004926
C99	C	1.657784	0.110024	0.328407
C100	C	1.034589	-0.591452	-0.290429
C101	C	1.367923	-0.258118	0.042905
C102	C	1.701256	0.075215	0.376238
C103	C	1.031483	-0.664936	-0.293898
C104	C	1.364816	-0.331602	0.039435
C105	C	1.698149	0.001731	0.372768
C106	C	0.984900	-0.703610	-0.345196
C107	C	1.318233	-0.370276	-0.011863
C108	C	1.651567	-0.036943	0.321471
C109	C	0.941426	-0.668796	-0.393032
C110	C	1.274760	-0.335462	-0.059699
C111	C	1.608093	-0.002129	0.273635
C112	C	0.944537	-0.595313	-0.389565
C113	C	1.277871	-0.261979	-0.056232
C114	C	1.611204	0.071354	0.277101
C115	C	0.973258	-0.925577	-0.358146
C116	C	1.306591	-0.592244	-0.024812
C117	C	1.639925	-0.258911	0.308521
C118	C	0.970149	-0.999066	-0.361607
C119	C	1.303482	-0.665732	-0.028274
C120	C	1.636816	-0.332399	0.305059
C121	C	1.060206	-0.995200	-0.262474
C122	C	1.393540	-0.661867	0.070859
C123	C	1.726873	-0.328534	0.404193
C124	C	1.063310	-0.921716	-0.259009
C125	C	1.396643	-0.588383	0.074324
C126	C	1.729977	-0.255050	0.407658
C127	C	1.019839	-0.886909	-0.306848
C128	C	1.353173	-0.553575	0.026486
C129	C	1.686506	-0.220242	0.359819
C130	C	0.981722	-0.778722	-0.348742
C131	C	1.315055	-0.445389	-0.015409
C132	C	1.648388	-0.112056	0.317925
C133	C	1.023022	-0.811797	-0.303304
C134	C	1.356355	-0.478464	0.030029
C135	C	1.689688	-0.145130	0.363362
C136	C	1.185833	-0.287802	-0.317422
C137	C	1.519166	0.045531	0.015911
C138	C	1.852499	0.378865	0.349245
C139	C	1.264040	-0.284471	-0.313761
C140	C	1.597373	0.048862	0.019572
C141	C	1.930707	0.382195	0.352906
C142	C	1.002337	-0.295585	-0.519716
C143	C	1.335670	0.037748	-0.186382
C144	C	1.669003	0.371082	0.146951
C145	C	1.002349	-0.295571	-0.602260
C146	C	1.335682	0.037762	-0.268927
C147	C	1.669016	0.371095	0.064406
C148	C	1.010240	-0.112085	-0.317433
C149	C	1.343574	0.221248	0.015901
C150	C	1.676907	0.554582	0.349234
C151	C	1.013621	-0.033874	-0.313776
C152	C	1.346954	0.299459	0.019557
C153	C	1.680287	0.632792	0.352890
C154	C	0.953357	-0.344508	-0.806104
C155	C	1.286691	-0.011175	-0.472770
C156	C	1.620024	0.322159	-0.139437
C157	C	1.016818	-0.358969	-0.853290
C158	C	1.350152	-0.025636	-0.519957
C159	C	1.683485	0.307698	-0.186624
C160	C	1.002386	-0.295516	-0.753387
C161	C	1.335719	0.037817	-0.420053
C162	C	1.669053	0.371151	-0.086720
C163	C	0.938961	-0.281034	-0.853279
C164	C	1.272295	0.052299	-0.519946
C165	C	1.605628	0.385633	-0.186613
C166	C	1.002416	-0.295464	-0.899368
C167	C	1.335749	0.037869	-0.566035
C168	C	1.669083	0.371202	-0.232702
C169	C	1.065879	-0.310009	-0.799486
C170	C	1.399212	0.023324	-0.466152
C171	C	1.732546	0.356657	-0.132819
C172	C	0.987980	-0.232046	-0.799471
C173	C	1.321314	0.101287	-0.466138
C174	C	1.654647	0.434620	-0.132805
C175	C	1.051486	-0.246481	-0.846632
C176	C	1.384820	0.086852	-0.513299
C177	C	1.718153	0.420186	-0.179966
C178	C	1.002368	-0.295548	-0.669291
C179	C	1.335701	0.037786	-0.335957
C180	C	1.669034	0.371119	-0.002624
C181	C	1.002442	-0.295432	-0.983462
C182	C	1.335775	0.037901	-0.650129
C183	C	1.669108	0.371234	-0.316796
C184	C	1.002322	-0.295597	-0.133059
C185	C	1.335655	0.037736	0.200274
C186	C	1.668988	0.371069	0.533607
C187	C	1.002454	-0.295407	-0.050499
C188	C	1.335788	0.037926	0.282834
C189	C	1.669121	0.371260	0.616167
H190	H	0.730982	-0.388806	-0.428422
H191	H	1.064315	-0.055472	-0.095089
H192	H	1.397649	0.277861	0.238244
H193	H	0.975758	-0.178410	-0.775890
H194	H	1.309092	0.154923	-0.442557
H195	H	1.642425	0.488257	-0.109224
N196	N	0.745967	-0.215625	-0.238110
N197	N	1.079301	0.117708	0.095223
N198	N	1.412634	0.451042	0.428556
N199	N	0.788907	-0.169065	-0.260289
N200	N	1.122241	0.164268	0.073044
N201	N	1.455574	0.497601	0.406378
H202	H	0.816805	-0.135420	-0.223318
H203	H	1.150138	0.197913	0.110016
H204	H	1.483472	0.531247	0.443349
H205	H	0.604632	-0.231008	-0.254991
H206	H	0.937966	0.102326	0.078342
H207	H	1.271299	0.435659	0.411675
N208	N	1.032135	-0.426266	-0.882872
N209	N	1.365468	-0.092932	-0.549538
N210	N	1.698802	0.240401	-0.216205
N211	N	1.085081	-0.431651	-0.920341
N212	N	1.418415	-0.098317	-0.587007
N213	N	1.751748	0.235016	-0.253674
H214	H	1.095896	-0.479180	-0.941231
H215	H	1.429229	-0.145847	-0.607898
H216	H	1.762563	0.187487	-0.274565
N217	N	0.871654	-0.265694	-0.882819
N218	N	1.204988	0.067639	-0.549486
N219	N	1.538321	0.400972	-0.216152
N220	N	0.823442	-0.255281	-0.840084
N221	N	1.156775	0.078052	-0.506751
N222	N	1.490108	0.411385	-0.173418
H223	H	0.775904	-0.244453	-0.860944
H224	H	1.109237	0.088880	-0.527610
H225	H	1.442570	0.422213	-0.194277
N226	N	0.415665	-0.187046	-0.206685
N227	N	0.748998	0.146287	0.126649
N228	N	1.082332	0.479621	0.459982
N229	N	0.384564	-0.148224	-0.164012
N230	N	0.717898	0.185109	0.169322
N231	N	1.051231	0.518443	0.502655
H232	H	0.412446	-0.114578	-0.127028
H233	H	0.745779	0.218755	0.206305
H234	H	1.079112	0.552088	0.539638
N235	N	0.267122	-0.193410	-0.213692
N236	N	0.600455	0.139923	0.119641
N237	N	0.933788	0.473256	0.452974
N238	N	0.201512	-0.196224	-0.216788
N239	N	0.534845	0.137109	0.116546
N240	N	0.868179	0.470442	0.449879
H241	H	0.176382	-0.164851	-0.182313
H242	H	0.509716	0.168482	0.151021
H243	H	0.843049	0.501816	0.484354
N244	N	0.893832	-0.708300	-0.445420
N245	N	1.227166	-0.374967	-0.112086
N246	N	1.560499	-0.041633	0.221247
N247	N	0.829254	-0.702918	-0.443089
N248	N	1.162588	-0.369584	-0.109755
N249	N	1.495921	-0.036251	0.223578
H250	H	0.795637	-0.730817	-0.480086
H251	H	1.128970	-0.397484	-0.146753
H252	H	1.462304	-0.064150	0.186581
N253	N	0.259380	-0.375600	-0.413919
N254	N	0.592713	-0.042267	-0.080586
N255	N	0.926047	0.291066	0.252747
N256	N	0.290477	-0.414430	-0.456588
N257	N	0.623810	-0.081097	-0.123255
N258	N	0.957144	0.252237	0.210079
H259	H	0.262593	-0.448075	-0.493570
H260	H	0.595927	-0.114742	-0.160237
H261	H	0.929260	0.218592	0.173097
N262	N	0.407902	-0.369246	-0.406919
N263	N	0.741235	-0.035912	-0.073585
N264	N	1.074569	0.297421	0.259748
N265	N	0.373372	-0.410878	-0.452679
N266	N	0.706705	-0.077545	-0.119346
N267	N	1.040039	0.255788	0.213988
H268	H	0.398482	-0.442260	-0.487164
H269	H	0.731815	-0.108927	-0.153831
H270	H	1.065148	0.224407	0.179503
N271	N	0.525620	-0.227324	-0.250957
N272	N	0.858953	0.106009	0.082376
N273	N	1.192287	0.439343	0.415709
N274	N	0.568562	-0.180771	-0.273146
N275	N	0.901896	0.152562	0.060188
N276	N	1.235229	0.485895	0.393521
H277	H	0.596467	-0.147125	-0.236181
H278	H	0.929800	0.186208	0.097152
H279	H	1.263134	0.519541	0.430486
H280	H	0.909139	-0.566972	-0.428515
H281	H	1.242472	-0.233639	-0.095182
H282	H	1.575805	0.099694	0.238151
N283	N	1.110884	-0.882230	-0.206588
N284	N	1.444218	-0.548896	0.126745
N285	N	1.777551	-0.215563	0.460079
N286	N	1.105894	-0.890698	-0.138667
N287	N	1.439227	-0.557364	0.194666
N288	N	1.772561	-0.224031	0.527999
H289	H	1.139491	-0.862816	-0.101636
H290	H	1.472824	-0.529483	0.231697
H291	H	1.806158	-0.196149	0.565030
H292	H	0.911931	-0.385989	-0.788164
H293	H	1.245264	-0.052656	-0.454831
H294	H	1.578597	0.280678	-0.121498
H295	H	0.597663	-0.394517	-0.434695
H296	H	0.930996	-0.061184	-0.101361
H297	H	1.264330	0.272150	0.231972
H298	H	1.119542	-0.322298	-0.776021
H299	H	1.452876	0.011035	-0.442688
H300	H	1.786209	0.344369	-0.109355
N301	N	0.479712	-0.363912	-0.401056
N302	N	0.813045	-0.030579	-0.067722
N303	N	1.146379	0.302755	0.265611
N304	N	0.436773	-0.410472	-0.378876
N305	N	0.770106	-0.077139	-0.045543
N306	N	1.103440	0.256194	0.287790
H307	H	0.408877	-0.444120	-0.415847
H308	H	0.742211	-0.110786	-0.082514
H309	H	1.075544	0.222547	0.250820
H310	H	1.072519	-0.559968	-0.248654
H311	H	1.405852	-0.226635	0.084680
H312	H	1.739185	0.106699	0.418013
N313	N	1.075904	-0.700480	-0.245045
N314	N	1.409237	-0.367147	0.088288
N315	N	1.742570	-0.033814	0.421622
N316	N	1.117495	-0.665942	-0.199250
N317	N	1.450828	-0.332609	0.134083
N318	N	1.784162	0.000725	0.467416
H319	H	1.148874	-0.691044	-0.164749
H320	H	1.482207	-0.357711	0.168585
H321	H	1.815540	-0.024377	0.501918
N322	N	1.104602	-1.030767	-0.213616
N323	N	1.437936	-0.697434	0.119718
N324	N	1.771269	-0.364100	0.453051
N325	N	1.101820	-1.096376	-0.216714
N326	N	1.435154	-0.763043	0.116620
N327	N	1.768487	-0.429710	0.449953
H328	H	1.133178	-1.121496	-0.182207
H329	H	1.466511	-0.788163	0.151127
H330	H	1.799844	-0.454830	0.484460
H331	H	0.932224	-1.030552	-0.403393
H332	H	1.265557	-0.697218	-0.070059
H333	H	1.598891	-0.363885	0.263274
H334	H	0.943793	-0.810219	-0.390507
H335	H	1.277126	-0.476886	-0.057174
H336	H	1.610459	-0.143552	0.276159
H337	H	0.937861	-0.897243	-0.397097
H338	H	1.271194	-0.563910	-0.063763
H339	H	1.604527	-0.230576	0.269570
H340	H	1.060952	-0.780306	-0.261540
H341	H	1.394285	-0.446973	0.071793
H342	H	1.727619	-0.113640	0.405126
N343	N	1.103577	-0.194478	-0.868958
N344	N	1.436910	0.138855	-0.535624
N345	N	1.770244	0.472189	-0.202291
N346	N	1.166806	-0.198221	-0.850299
N347	N	1.500140	0.135112	-0.516966
N348	N	1.833473	0.468446	-0.183632
H349	H	1.203598	-0.161496	-0.866067
H350	H	1.536931	0.171837	-0.532733
H351	H	1.870264	0.505170	-0.199400
