data_functionalizedCrystal
_audit_creation_method	'MofGen! by Chris Wilmer'
_symmetry_space_group_name_H-M	'P1'
_symmetry_Int_Tables_number	1
_symmetry_cell_setting	triclinic
loop_
_symmetry_equiv_pos_as_xyz
  x,y,z
_cell_length_a	18.050591
_cell_length_b	18.050589
_cell_length_c	17.077396
_cell_angle_alpha	89.974523
_cell_angle_beta	89.977811
_cell_angle_gamma	90.024669
loop_
_atom_site_label
_atom_site_type_symbol
_atom_site_fract_x
_atom_site_fract_y
_atom_site_fract_z
Zn1	Zn	1.135310	-0.295724	-0.443967
Zn2	Zn	1.468644	0.037610	-0.110634
Zn3	Zn	1.801977	0.370943	0.222699
Zn4	Zn	1.135216	-0.419923	-0.312710
Zn5	Zn	1.468549	-0.086589	0.020623
Zn6	Zn	1.801882	0.246744	0.353957
Zn7	Zn	1.011124	-0.295743	-0.312704
Zn8	Zn	1.344458	0.037590	0.020630
Zn9	Zn	1.677791	0.370923	0.353963
Zn10	Zn	1.011078	-0.419869	-0.443922
Zn11	Zn	1.344411	-0.086535	-0.110589
Zn12	Zn	1.677744	0.246798	0.222744
O13	O	1.073182	-0.357815	-0.378326
O14	O	1.406515	-0.024481	-0.044992
O15	O	1.739849	0.308852	0.288341
O16	O	1.239222	-0.312213	-0.426577
O17	O	1.572556	0.021120	-0.093244
O18	O	1.905889	0.354453	0.240090
O19	O	1.118735	-0.403481	-0.202862
O20	O	1.452068	-0.070148	0.130471
O21	O	1.785401	0.263186	0.463805
O22	O	1.027657	-0.191816	-0.330132
O23	O	1.360990	0.141517	0.003201
O24	O	1.694324	0.474851	0.336534
O25	O	1.239153	-0.403462	-0.330143
O26	O	1.572486	-0.070129	0.003190
O27	O	1.905820	0.263205	0.336524
O28	O	1.118896	-0.191802	-0.426571
O29	O	1.452229	0.141532	-0.093238
O30	O	1.785563	0.474865	0.240096
O31	O	1.027565	-0.312247	-0.202858
O32	O	1.360899	0.021086	0.130476
O33	O	1.694232	0.354420	0.463809
O34	O	0.907194	-0.312194	-0.330089
O35	O	1.240527	0.021139	0.003245
O36	O	1.573860	0.354472	0.336578
O37	O	1.027577	-0.403370	-0.553775
O38	O	1.360911	-0.070036	-0.220442
O39	O	1.694244	0.263297	0.112892
O40	O	0.907159	-0.403389	-0.426494
O41	O	1.240493	-0.070055	-0.093161
O42	O	1.573826	0.263278	0.240172
O43	O	1.118851	-0.312161	-0.553808
O44	O	1.452184	0.021172	-0.220475
O45	O	1.785517	0.354506	0.112858
O46	O	1.118689	-0.523840	-0.330099
O47	O	1.452023	-0.190507	0.003234
O48	O	1.785356	0.142827	0.336567
O49	O	1.027486	-0.523800	-0.426500
O50	O	1.360819	-0.190467	-0.093167
O51	O	1.694152	0.142866	0.240166
C52	C	0.880230	-0.357788	-0.378287
C53	C	1.213563	-0.024455	-0.044953
C54	C	1.546897	0.308878	0.288380
C55	C	0.797684	-0.357795	-0.378288
C56	C	1.131017	-0.024462	-0.044955
C57	C	1.464351	0.308872	0.288378
C58	C	0.548856	-0.308152	-0.325987
C59	C	0.882189	0.025181	0.007346
C60	C	1.215522	0.358514	0.340680
C61	C	0.598290	-0.290063	-0.397624
C62	C	0.931624	0.043271	-0.064291
C63	C	1.264957	0.376604	0.269043
C64	C	0.500564	-0.357833	-0.378353
C65	C	0.833897	-0.024500	-0.045019
C66	C	1.167230	0.308834	0.288314
C67	C	0.598211	-0.375869	-0.306688
C68	C	0.931544	-0.042536	0.026645
C69	C	1.264877	0.290798	0.359979
C70	C	0.646549	-0.357813	-0.378317
C71	C	0.979882	-0.024479	-0.044984
C72	C	1.313215	0.308854	0.288349
C73	C	0.548911	-0.339708	-0.450028
C74	C	0.882245	-0.006375	-0.116694
C75	C	1.215578	0.326958	0.216639
C76	C	0.548827	-0.425546	-0.359043
C77	C	0.882160	-0.092213	-0.025710
C78	C	1.215494	0.241120	0.307623
C79	C	0.598240	-0.407482	-0.430730
C80	C	0.931573	-0.074149	-0.097397
C81	C	1.264906	0.259184	0.235937
C82	C	0.416465	-0.357843	-0.378372
C83	C	0.749799	-0.024510	-0.045039
C84	C	1.083132	0.308824	0.288295
C85	C	0.730645	-0.357803	-0.378306
C86	C	1.063979	-0.024470	-0.044973
C87	C	1.397312	0.308864	0.288361
C88	C	1.073092	-0.550767	-0.378313
C89	C	1.406426	-0.217433	-0.044979
C90	C	1.739759	0.115900	0.288354
C91	C	1.073122	-0.633313	-0.378333
C92	C	1.406455	-0.299979	-0.045000
C93	C	1.739789	0.033354	0.288333
C94	C	1.023574	-0.832769	-0.430738
C95	C	1.356907	-0.499435	-0.097405
C96	C	1.690241	-0.166102	0.235929
C97	C	1.005473	-0.882210	-0.359107
C98	C	1.338807	-0.548877	-0.025774
C99	C	1.672140	-0.215543	0.307559
C100	C	1.073195	-0.784443	-0.378344
C101	C	1.406528	-0.451110	-0.045010
C102	C	1.739862	-0.117776	0.288323
C103	C	1.091332	-0.882083	-0.449983
C104	C	1.424665	-0.548750	-0.116649
C105	C	1.757999	-0.215416	0.216684
C106	C	1.073264	-0.930428	-0.378360
C107	C	1.406597	-0.597095	-0.045027
C108	C	1.739931	-0.263761	0.288307
C109	C	1.055059	-0.832797	-0.306675
C110	C	1.388392	-0.499464	0.026658
C111	C	1.721725	-0.166130	0.359992
C112	C	1.140949	-0.832666	-0.397599
C113	C	1.474282	-0.499333	-0.064265
C114	C	1.807615	-0.165999	0.269068
C115	C	1.122874	-0.882085	-0.325919
C116	C	1.456207	-0.548752	0.007415
C117	C	1.789540	-0.215418	0.340748
C118	C	1.073153	-0.700345	-0.378335
C119	C	1.406487	-0.367011	-0.045002
C120	C	1.739820	-0.033678	0.288331
C121	C	1.073306	-1.014524	-0.378360
C122	C	1.406639	-0.681191	-0.045027
C123	C	1.739972	-0.347858	0.288307
C124	C	1.266888	-0.357841	-0.378366
C125	C	1.600221	-0.024508	-0.045032
C126	C	1.933554	0.308825	0.288301
C127	C	1.349433	-0.357853	-0.378383
C128	C	1.682767	-0.024520	-0.045049
C129	C	2.016100	0.308814	0.288284
C130	C	1.073219	-0.357757	-0.583070
C131	C	1.406553	-0.024424	-0.249737
C132	C	1.739886	0.308910	0.083597
C133	C	1.073235	-0.357733	-0.670320
C134	C	1.406569	-0.024399	-0.336987
C135	C	1.739902	0.308934	-0.003653
C136	C	1.073292	-0.164109	-0.378356
C137	C	1.406626	0.169224	-0.045023
C138	C	1.739959	0.502558	0.288311
C139	C	1.073339	-0.081563	-0.378369
C140	C	1.406673	0.251770	-0.045036
C141	C	1.740006	0.585103	0.288298
C142	C	1.025778	-0.310221	-0.711307
C143	C	1.359111	0.023112	-0.377974
C144	C	1.692444	0.356445	-0.044641
C145	C	1.025790	-0.310204	-0.793288
C146	C	1.359123	0.023129	-0.459954
C147	C	1.692457	0.356462	-0.126621
C148	C	1.073264	-0.357696	-0.834280
C149	C	1.406597	-0.024362	-0.500946
C150	C	1.739930	0.308971	-0.167613
C151	C	1.120723	-0.405212	-0.793287
C152	C	1.454057	-0.071879	-0.459953
C153	C	1.787390	0.261455	-0.126620
C154	C	1.120707	-0.405232	-0.711308
C155	C	1.454040	-0.071899	-0.377974
C156	C	1.787374	0.261434	-0.044641
C157	C	1.120755	-0.405166	-0.964157
C158	C	1.454089	-0.071832	-0.630823
C159	C	1.787422	0.261501	-0.297490
C160	C	1.120773	-0.405145	-1.046141
C161	C	1.454106	-0.071812	-0.712808
C162	C	1.787440	0.261522	-0.379475
C163	C	1.025838	-0.310138	-1.046137
C164	C	1.359172	0.023195	-0.712804
C165	C	1.692505	0.356529	-0.379470
C166	C	1.025822	-0.310158	-0.964158
C167	C	1.359155	0.023175	-0.630825
C168	C	1.692489	0.356509	-0.297491
C169	C	1.073283	-0.357674	-0.923171
C170	C	1.406616	-0.024340	-0.589837
C171	C	1.739949	0.308993	-0.256504
C172	C	1.073188	-0.357818	-0.174378
C173	C	1.406521	-0.024485	0.158955
C174	C	1.739854	0.308848	0.492289
C175	C	1.073316	-0.357634	-0.087129
C176	C	1.406649	-0.024300	0.246205
C177	C	1.739982	0.309033	0.579538
H178	H	0.620004	-0.232788	-0.413955
H179	H	0.953337	0.100546	-0.080622
H180	H	1.286670	0.433879	0.252711
H181	H	1.106645	-0.903733	-0.510561
H182	H	1.439978	-0.570399	-0.177227
H183	H	1.773312	-0.237066	0.156106
H184	H	1.198201	-0.810889	-0.413904
H185	H	1.531534	-0.477556	-0.080571
H186	H	1.864867	-0.144223	0.252762
H187	H	0.527346	-0.324378	-0.510636
H188	H	0.860679	0.008955	-0.177303
H189	H	1.194012	0.342288	0.156031
H190	H	0.527085	-0.482802	-0.342700
H191	H	0.860418	-0.149469	-0.009367
H192	H	1.193751	0.183864	0.323966
H193	H	0.527174	-0.266116	-0.281773
H194	H	0.860507	0.067217	0.051561
H195	H	1.193841	0.400551	0.384894
H196	H	0.619785	-0.449487	-0.475050
H197	H	0.953119	-0.116154	-0.141716
H198	H	1.286452	0.217179	0.191617
H199	H	0.619868	-0.391132	-0.246097
H200	H	0.953201	-0.057799	0.087236
H201	H	1.286535	0.275535	0.420570
H202	H	0.981550	-0.811114	-0.474983
H203	H	1.314883	-0.477780	-0.141650
H204	H	1.648216	-0.144447	0.191683
H205	H	0.987123	-0.271544	-0.677938
H206	H	1.320456	0.061789	-0.344604
H207	H	1.653790	0.395122	-0.011271
H208	H	0.948208	-0.903989	-0.342836
H209	H	1.281542	-0.570655	-0.009503
H210	H	1.614875	-0.237322	0.323831
H211	H	1.039679	-0.811237	-0.246081
H212	H	1.373013	-0.477904	0.087253
H213	H	1.706346	-0.144570	0.420586
H214	H	1.164866	-0.903603	-0.281566
H215	H	1.498199	-0.570269	0.051767
H216	H	1.831533	-0.236936	0.385101
H217	H	0.987142	-0.271519	-0.826656
H218	H	1.320476	0.061815	-0.493323
H219	H	1.653809	0.395148	-0.159989
H220	H	0.987168	-0.271483	-0.930785
H221	H	1.320501	0.061850	-0.597451
H222	H	1.653835	0.395183	-0.264118
H223	H	0.987195	-0.271448	-1.079513
H224	H	1.320528	0.061885	-0.746179
H225	H	1.653862	0.395219	-0.412846
H226	H	1.159431	-0.443816	-1.079515
H227	H	1.492764	-0.110483	-0.746181
H228	H	1.826097	0.222850	-0.412848
H229	H	1.159410	-0.443852	-0.930787
H230	H	1.492743	-0.110518	-0.597454
H231	H	1.826076	0.222815	-0.264121
H232	H	1.159374	-0.443884	-0.826669
H233	H	1.492707	-0.110551	-0.493335
H234	H	1.826040	0.222783	-0.160002
H235	H	1.159357	-0.443915	-0.677937
H236	H	1.492691	-0.110582	-0.344603
H237	H	1.826024	0.222751	-0.011270
