data_functionalizedCrystal
_audit_creation_method	'MofGen! by Chris Wilmer'
_symmetry_space_group_name_H-M	'P1'
_symmetry_Int_Tables_number	1
_symmetry_cell_setting	triclinic
loop_
_symmetry_equiv_pos_as_xyz
  x,y,z
_cell_length_a	29.839131
_cell_length_b	21.395364
_cell_length_c	21.395355
_cell_angle_alpha	89.974702
_cell_angle_beta	90.020172
_cell_angle_gamma	89.941879
loop_
_atom_site_label
_atom_site_type_symbol
_atom_site_fract_x
_atom_site_fract_y
_atom_site_fract_z
Zn1	Zn	-0.178705	-0.957813	0.354267
Zn2	Zn	0.154628	-0.624479	0.687600
Zn3	Zn	0.487961	-0.291146	1.020933
Zn4	Zn	-0.253820	-0.957696	0.249486
Zn5	Zn	0.079513	-0.624362	0.582820
Zn6	Zn	0.412846	-0.291029	0.916153
Zn7	Zn	-0.178727	-0.853028	0.249502
Zn8	Zn	0.154606	-0.519694	0.582835
Zn9	Zn	0.487939	-0.186361	0.916169
Zn10	Zn	-0.253831	-0.852977	0.354225
Zn11	Zn	0.079503	-0.519644	0.687558
Zn12	Zn	0.412836	-0.186311	1.020892
O13	O	-0.216271	-0.905378	0.301870
O14	O	0.117062	-0.572045	0.635203
O15	O	0.450396	-0.238712	0.968537
O16	O	-0.188656	-1.045475	0.340378
O17	O	0.144677	-0.712142	0.673712
O18	O	0.478011	-0.378808	1.007045
O19	O	-0.243864	-0.943783	0.161810
O20	O	0.089469	-0.610450	0.495144
O21	O	0.422803	-0.277117	0.828477
O22	O	-0.115857	-0.866998	0.263423
O23	O	0.217476	-0.533664	0.596757
O24	O	0.550810	-0.200331	0.930090
O25	O	-0.243843	-1.045389	0.263396
O26	O	0.089491	-0.712056	0.596730
O27	O	0.422824	-0.378722	0.930063
O28	O	-0.115841	-0.943983	0.340394
O29	O	0.217492	-0.610649	0.673727
O30	O	0.550826	-0.277316	1.007060
O31	O	-0.188693	-0.866884	0.161822
O32	O	0.144640	-0.533551	0.495155
O33	O	0.477973	-0.200217	0.828489
O34	O	-0.188703	-0.765343	0.263383
O35	O	0.144630	-0.432010	0.596716
O36	O	0.477963	-0.098676	0.930050
O37	O	-0.243860	-0.866912	0.441908
O38	O	0.089473	-0.533578	0.775242
O39	O	0.422806	-0.200245	1.108575
O40	O	-0.243882	-0.765306	0.340322
O41	O	0.089452	-0.431973	0.673656
O42	O	0.422785	-0.098639	1.006989
O43	O	-0.188666	-0.943934	0.441939
O44	O	0.144667	-0.610601	0.775272
O45	O	0.478001	-0.277267	1.108606
O46	O	-0.316689	-0.943734	0.263356
O47	O	0.016644	-0.610401	0.596689
O48	O	0.349978	-0.277068	0.930023
O49	O	-0.316697	-0.866798	0.340307
O50	O	0.016637	-0.533465	0.673640
O51	O	0.349970	-0.200132	1.006974
C52	C	-0.216296	-0.742591	0.301850
C53	C	0.117037	-0.409257	0.635184
C54	C	0.450370	-0.075924	0.968517
C55	C	-0.216318	-0.672949	0.301857
C56	C	0.117015	-0.339616	0.635190
C57	C	0.450349	-0.006283	0.968523
C58	C	-0.187630	-0.640303	0.342003
C59	C	0.145703	-0.306970	0.675336
C60	C	0.479037	0.026363	1.008669
C61	C	-0.187619	-0.574868	0.342004
C62	C	0.145714	-0.241535	0.675338
C63	C	0.479047	0.091799	1.008671
C64	C	-0.216305	-0.542081	0.301866
C65	C	0.117028	-0.208748	0.635200
C66	C	0.450362	0.124586	0.968533
C67	C	-0.244995	-0.574735	0.261713
C68	C	0.088338	-0.241402	0.595046
C69	C	0.421672	0.091932	0.928379
C70	C	-0.245002	-0.640169	0.261708
C71	C	0.088332	-0.306836	0.595041
C72	C	0.421665	0.026498	0.928375
C73	C	-0.256765	-0.438346	0.296826
C74	C	0.076568	-0.105013	0.630159
C75	C	0.409902	0.228321	0.963493
C76	C	-0.256759	-0.372913	0.296835
C77	C	0.076574	-0.039580	0.630168
C78	C	0.409907	0.293754	0.963502
C79	C	-0.216285	-0.340260	0.301878
C80	C	0.117049	-0.006927	0.635211
C81	C	0.450382	0.326406	0.968544
C82	C	-0.175815	-0.373048	0.306924
C83	C	0.157519	-0.039715	0.640258
C84	C	0.490852	0.293618	0.973591
C85	C	-0.175821	-0.438483	0.306919
C86	C	0.157512	-0.105149	0.640253
C87	C	0.490846	0.228184	0.973586
C88	C	-0.216301	-0.471129	0.301867
C89	C	0.117032	-0.137795	0.635200
C90	C	0.450366	0.195538	0.968534
C91	C	-0.187583	-0.236662	0.342028
C92	C	0.145751	0.096672	0.675361
C93	C	0.479084	0.430005	1.008694
C94	C	-0.187572	-0.171225	0.342025
C95	C	0.145762	0.162108	0.675358
C96	C	0.479095	0.495441	1.008691
C97	C	-0.244951	-0.171093	0.261736
C98	C	0.088382	0.162240	0.595070
C99	C	0.421715	0.495573	0.928403
C100	C	-0.244958	-0.236529	0.261736
C101	C	0.088375	0.096805	0.595069
C102	C	0.421708	0.430138	0.928403
C103	C	-0.216275	-0.269309	0.301885
C104	C	0.117058	0.064024	0.635218
C105	C	0.450392	0.397358	0.968552
C106	C	-0.332994	-0.905265	0.301839
C107	C	0.000340	-0.571932	0.635172
C108	C	0.333673	-0.238598	0.968506
C109	C	-0.382928	-0.905274	0.301847
C110	C	-0.049595	-0.571941	0.635180
C111	C	0.283739	-0.238607	0.968513
C112	C	-0.692555	-0.945512	0.261860
C113	C	-0.359221	-0.612178	0.595193
C114	C	-0.025888	-0.278845	0.928527
C115	C	-0.880228	-0.945589	0.261884
C116	C	-0.546894	-0.612256	0.595218
C117	C	-0.213561	-0.278922	0.928551
O118	O	-0.904478	-0.979711	0.227863
O119	O	-0.571145	-0.646378	0.561196
O120	O	-0.237812	-0.313044	0.894529
N121	N	-0.903713	-0.905508	0.301917
N122	N	-0.570380	-0.572175	0.635251
N123	N	-0.237046	-0.238842	0.968584
C124	C	-0.880277	-0.865408	0.341950
C125	C	-0.546944	-0.532075	0.675283
C126	C	-0.213610	-0.198741	1.008616
O127	O	-0.904559	-0.831323	0.376005
O128	O	-0.571226	-0.497990	0.709339
O129	O	-0.237892	-0.164656	1.042672
C130	C	-0.692605	-0.865334	0.341928
C131	C	-0.359272	-0.532001	0.675261
C132	C	-0.025938	-0.198668	1.008595
C133	C	-0.669122	-0.905413	0.301888
C134	C	-0.335789	-0.572080	0.635222
C135	C	-0.002455	-0.238747	0.968555
C136	C	-0.669072	-0.985588	0.221824
C137	C	-0.335739	-0.652255	0.555157
C138	C	-0.002405	-0.318921	0.888491
C139	C	-0.622156	-0.985566	0.221816
C140	C	-0.288823	-0.652233	0.555149
C141	C	0.044510	-0.318899	0.888482
C142	C	-0.598724	-0.945467	0.261844
C143	C	-0.265390	-0.612134	0.595177
C144	C	0.067943	-0.278801	0.928511
C145	C	-0.622207	-0.905391	0.301880
C146	C	-0.288873	-0.572058	0.635213
C147	C	0.044460	-0.238724	0.968547
C148	C	-0.669170	-0.825238	0.381963
C149	C	-0.335836	-0.491904	0.715297
C150	C	-0.002503	-0.158571	1.048630
C151	C	-0.622249	-0.825224	0.381956
C152	C	-0.288915	-0.491891	0.715289
C153	C	0.044418	-0.158557	1.048622
C154	C	-0.598766	-0.865303	0.341916
C155	C	-0.265433	-0.531970	0.675249
C156	C	0.067901	-0.198636	1.008582
C157	C	-0.551859	-0.865271	0.341900
C158	C	-0.218525	-0.531937	0.675233
C159	C	0.114808	-0.198604	1.008567
N160	N	-0.528373	-0.905351	0.301867
N161	N	-0.195040	-0.572018	0.635201
N162	N	0.138293	-0.238685	0.968534
C163	C	-0.551806	-0.945450	0.261839
C164	C	-0.218473	-0.612117	0.595173
C165	C	0.114861	-0.278783	0.928506
C166	C	-0.978808	-0.865449	0.341957
C167	C	-0.645474	-0.532115	0.675291
C168	C	-0.312141	-0.198782	1.008624
C169	C	-1.025725	-0.865466	0.341962
C170	C	-0.692392	-0.532133	0.675295
C171	C	-0.359059	-0.198799	1.008629
C172	C	-1.025673	-0.945648	0.261897
C173	C	-0.692340	-0.612315	0.595231
C174	C	-0.359006	-0.278982	0.928564
C175	C	-0.978754	-0.945627	0.261890
C176	C	-0.645421	-0.612294	0.595223
C177	C	-0.312088	-0.278960	0.928557
C178	C	-0.955322	-0.905530	0.301925
C179	C	-0.621989	-0.572196	0.635258
C180	C	-0.288656	-0.238863	0.968591
C181	C	-0.453280	-0.945400	0.261825
C182	C	-0.119947	-0.612067	0.595158
C183	C	0.213387	-0.278733	0.928492
C184	C	-0.406361	-0.945372	0.261818
C185	C	-0.073027	-0.612039	0.595152
C186	C	0.260306	-0.278706	0.928485
C187	C	-0.406417	-0.865193	0.341885
C188	C	-0.073084	-0.531860	0.675219
C189	C	0.260249	-0.198526	1.008552
C190	C	-0.453333	-0.865218	0.341890
C191	C	-0.119999	-0.531885	0.675223
C192	C	0.213334	-0.198551	1.008556
C193	C	-0.476763	-0.905326	0.301857
C194	C	-0.143430	-0.571993	0.635191
C195	C	0.189904	-0.238660	0.968524
O196	O	-0.527579	-0.831172	0.375909
O197	O	-0.194246	-0.497838	0.709242
O198	O	0.139088	-0.164505	1.042576
O199	O	-0.527516	-0.979540	0.227799
O200	O	-0.194183	-0.646206	0.561132
O201	O	0.139151	-0.312873	0.894465
C202	C	-0.739470	-0.945534	0.261868
C203	C	-0.406137	-0.612201	0.595202
C204	C	-0.072803	-0.278867	0.928535
C205	C	-0.762953	-0.905458	0.301904
C206	C	-0.429620	-0.572124	0.635238
C207	C	-0.096286	-0.238791	0.968571
C208	C	-0.739520	-0.865359	0.341932
C209	C	-0.406187	-0.532026	0.675266
C210	C	-0.072854	-0.198693	1.008599
C211	C	-0.809871	-0.905475	0.301909
C212	C	-0.476537	-0.572142	0.635242
C213	C	-0.143204	-0.238808	0.968576
C214	C	-0.833303	-0.945574	0.261881
C215	C	-0.499970	-0.612240	0.595214
C216	C	-0.166637	-0.278907	0.928548
C217	C	-0.809818	-0.985654	0.221848
C218	C	-0.476485	-0.652321	0.555182
C219	C	-0.143152	-0.318988	0.888515
C220	C	-0.762903	-0.985632	0.221840
C221	C	-0.429569	-0.652299	0.555173
C222	C	-0.096236	-0.318966	0.888507
C223	C	-0.763006	-0.825278	0.381965
C224	C	-0.429672	-0.491945	0.715299
C225	C	-0.096339	-0.158612	1.048632
C226	C	-0.809921	-0.825303	0.381970
C227	C	-0.476588	-0.491970	0.715303
C228	C	-0.143254	-0.158637	1.048636
C229	C	-0.833354	-0.865402	0.341942
C230	C	-0.500020	-0.532068	0.675275
C231	C	-0.166687	-0.198735	1.008608
C232	C	-0.099093	-0.905509	0.301915
C233	C	0.234241	-0.572176	0.635248
C234	C	0.567574	-0.238842	0.968582
C235	C	-0.049158	-0.905565	0.301934
C236	C	0.284175	-0.572231	0.635267
C237	C	0.617509	-0.238898	0.968601
C238	C	-0.216262	-0.905430	0.465293
C239	C	0.117072	-0.572097	0.798627
C240	C	0.450405	-0.238764	1.131960
C241	C	-0.216258	-0.905452	0.534935
C242	C	0.117075	-0.572119	0.868268
C243	C	0.450409	-0.238786	1.201601
C244	C	-0.216251	-0.068802	0.301887
C245	C	0.117082	0.264532	0.635220
C246	C	0.450415	0.597865	0.968554
C247	C	-0.216257	-0.138443	0.301886
C248	C	0.117076	0.194891	0.635219
C249	C	0.450410	0.528224	0.968552
C250	C	-0.216248	-0.905363	0.139082
C251	C	0.117086	-0.572029	0.472416
C252	C	0.450419	-0.238696	0.805749
C253	C	-0.216125	-0.905462	0.069442
C254	C	0.117208	-0.572128	0.402775
C255	C	0.450542	-0.238795	0.736108
C256	C	-0.187517	-0.945556	0.567665
C257	C	0.145816	-0.612223	0.900998
C258	C	0.479150	-0.278889	1.234331
C259	C	-0.187498	-0.945555	0.633100
C260	C	0.145836	-0.612222	0.966434
C261	C	0.479169	-0.278889	1.299767
C262	C	-0.216227	-0.905457	0.665803
C263	C	0.117106	-0.572124	0.999136
C264	C	0.450439	-0.238791	1.332470
C265	C	-0.244970	-0.865346	0.633065
C266	C	0.088363	-0.532012	0.966398
C267	C	0.421696	-0.198679	1.299732
C268	C	-0.244986	-0.865343	0.567631
C269	C	0.088348	-0.532010	0.900964
C270	C	0.421681	-0.198677	1.234298
C271	C	-0.256679	-0.900471	0.769467
C272	C	0.076654	-0.567138	1.102800
C273	C	0.409987	-0.233804	1.436134
C274	C	-0.256665	-0.900478	0.834900
C275	C	0.076668	-0.567144	1.168233
C276	C	0.410002	-0.233811	1.501567
C277	C	-0.216180	-0.905461	0.867624
C278	C	0.117153	-0.572128	1.200957
C279	C	0.450487	-0.238795	1.534291
C280	C	-0.175708	-0.910451	0.834907
C281	C	0.157625	-0.577118	1.168240
C282	C	0.490959	-0.243784	1.501574
C283	C	-0.175723	-0.910449	0.769473
C284	C	0.157610	-0.577115	1.102806
C285	C	0.490943	-0.243782	1.436139
C286	C	-0.216214	-0.905455	0.736755
C287	C	0.117120	-0.572122	1.070089
C288	C	0.450453	-0.238789	1.403422
C289	C	-0.187415	-0.945566	0.971307
C290	C	0.145918	-0.612233	1.304640
C291	C	0.479251	-0.278899	1.637973
C292	C	-0.187395	-0.945561	1.036743
C293	C	0.145938	-0.612228	1.370077
C294	C	0.479271	-0.278894	1.703410
C295	C	-0.244872	-0.865355	1.036707
C296	C	0.088461	-0.532021	1.370040
C297	C	0.421795	-0.198688	1.703373
C298	C	-0.244888	-0.865357	0.971271
C299	C	0.088445	-0.532023	1.304605
C300	C	0.421779	-0.198690	1.637938
C301	C	-0.216160	-0.905466	0.938575
C302	C	0.117173	-0.572132	1.271909
C303	C	0.450506	-0.238799	1.605242
H304	H	-0.387242	-0.978010	0.229211
H305	H	-0.053909	-0.644676	0.562544
H306	H	0.279424	-0.311343	0.895878
O307	O	-0.694343	-1.028845	0.178653
O308	O	-0.361010	-0.695511	0.511986
O309	O	-0.027676	-0.362178	0.845319
H310	H	-0.715758	-1.000830	0.146751
H311	H	-0.382424	-0.667497	0.480085
H312	H	-0.049091	-0.334163	0.813418
H313	H	-0.268307	-0.144399	0.229055
H314	H	0.065026	0.188934	0.562389
H315	H	0.398359	0.522268	0.895722
O316	O	-0.953427	-0.988861	0.218712
O317	O	-0.620093	-0.655527	0.552045
O318	O	-0.286760	-0.322194	0.885378
H319	H	-0.977608	-1.016747	0.190884
H320	H	-0.644275	-0.683414	0.524217
H321	H	-0.310941	-0.350080	0.857551
O322	O	-0.132156	-0.337839	0.312363
O323	O	0.201178	-0.004506	0.645696
O324	O	0.534511	0.328828	0.979030
H325	H	-0.110057	-0.350422	0.272582
H326	H	0.223277	-0.017088	0.605915
H327	H	0.556610	0.316245	0.939248
H328	H	-0.164256	-0.548282	0.374695
H329	H	0.169077	-0.214949	0.708028
H330	H	0.502411	0.118384	1.041362
O331	O	-0.835104	-1.028905	0.178682
O332	O	-0.501770	-0.695572	0.512016
O333	O	-0.168437	-0.362239	0.845349
H334	H	-0.826136	-1.018184	0.129491
H335	H	-0.492803	-0.684851	0.462825
H336	H	-0.159470	-0.351518	0.796158
H337	H	-0.289713	-0.346222	0.292729
H338	H	0.043621	-0.012889	0.626062
H339	H	0.376954	0.320445	0.959396
H340	H	-1.044760	-0.978298	0.229305
H341	H	-0.711426	-0.644965	0.562638
H342	H	-0.378093	-0.311632	0.895972
H343	H	-0.164273	-0.666989	0.374695
H344	H	0.169060	-0.333656	0.708028
H345	H	0.502393	-0.000322	1.041361
O346	O	-0.156640	-0.272023	0.385318
O347	O	0.176693	0.061310	0.718652
O348	O	0.510027	0.394644	1.051985
H349	H	-0.164389	-0.259472	0.434475
H350	H	0.168944	0.073861	0.767808
H351	H	0.502277	0.407194	1.101141
H352	H	-0.268361	-0.832696	0.659696
H353	H	0.064973	-0.499362	0.993029
H354	H	0.398306	-0.166029	1.326363
H355	H	-0.959733	-0.832795	0.374559
H356	H	-0.626399	-0.499461	0.707893
H357	H	-0.293066	-0.166128	1.041226
O358	O	-0.275946	-0.675387	0.218407
O359	O	0.057388	-0.342053	0.551741
O360	O	0.390721	-0.008720	0.885074
H361	H	-0.295892	-0.641598	0.190496
H362	H	0.037441	-0.308264	0.523830
H363	H	0.370774	0.025069	0.857163
O364	O	-0.478553	-0.988656	0.218652
O365	O	-0.145220	-0.655323	0.551985
O366	O	0.188114	-0.321989	0.885318
H367	H	-0.469578	-0.977925	0.169466
H368	H	-0.136245	-0.644592	0.502799
H369	H	0.197089	-0.311259	0.836132
O370	O	-0.156430	-0.988824	0.936039
O371	O	0.176903	-0.655491	1.269372
O372	O	0.510236	-0.322157	1.602706
H373	H	-0.161275	-0.982093	0.885039
H374	H	0.172058	-0.648760	1.218372
H375	H	0.505392	-0.315427	1.551706
O376	O	-0.835249	-0.782071	0.425155
O377	O	-0.501915	-0.448737	0.758489
O378	O	-0.168582	-0.115404	1.091822
H379	H	-0.826216	-0.792796	0.474336
H380	H	-0.492883	-0.459463	0.807670
H381	H	-0.159550	-0.126129	1.141003
O382	O	-0.156627	-0.136009	0.385325
O383	O	0.176707	0.197324	0.718658
O384	O	0.510040	0.530658	1.051992
H385	H	-0.136686	-0.169799	0.413243
H386	H	0.196647	0.163534	0.746577
H387	H	0.529980	0.496868	1.079910
O388	O	-0.596831	-1.028803	0.178639
O389	O	-0.263497	-0.695470	0.511973
O390	O	0.069836	-0.362137	0.845306
H391	H	-0.621013	-1.056692	0.150816
H392	H	-0.287680	-0.723358	0.484150
H393	H	0.045653	-0.390025	0.817483
O394	O	-1.051052	-0.822234	0.385143
O395	O	-0.717719	-0.488901	0.718477
O396	O	-0.384385	-0.155568	1.051810
H397	H	-1.026871	-0.794356	0.412979
H398	H	-0.693538	-0.461022	0.746312
H399	H	-0.360204	-0.127689	1.079645
O400	O	-0.275902	-0.271747	0.218438
O401	O	0.057431	0.061587	0.551771
O402	O	0.390764	0.394920	0.885105
H403	H	-0.295850	-0.237957	0.190529
H404	H	0.037484	0.095377	0.523863
H405	H	0.370817	0.428710	0.857196
H406	H	-0.163988	-0.978217	1.063391
H407	H	0.169345	-0.644884	1.396724
H408	H	0.502678	-0.311551	1.730058
O409	O	-0.132075	-0.915829	0.734186
O410	O	0.201259	-0.582496	1.067520
O411	O	0.534592	-0.249163	1.400853
H412	H	-0.127505	-0.873864	0.704353
H413	H	0.205828	-0.540530	1.037687
H414	H	0.539161	-0.207197	1.371020
H415	H	-0.289727	-0.464927	0.292719
H416	H	0.043607	-0.131593	0.626052
H417	H	0.376940	0.201740	0.959386
H418	H	-0.268351	-0.548036	0.229032
H419	H	0.064983	-0.214702	0.562365
H420	H	0.398316	0.118631	0.895698
O421	O	-0.156499	-0.988807	0.668423
O422	O	0.176834	-0.655473	1.001756
O423	O	0.510167	-0.322140	1.335090
H424	H	-0.164203	-1.037974	0.655896
H425	H	0.169131	-0.704641	0.989229
H426	H	0.502464	-0.371307	1.322563
H427	H	-0.688281	-0.792598	0.414565
H428	H	-0.354948	-0.459265	0.747899
H429	H	-0.021615	-0.125931	1.081232
H430	H	-0.142869	-0.465176	0.311026
H431	H	0.190464	-0.131843	0.644360
H432	H	0.523798	0.201491	0.977693
H433	H	-0.268389	-0.832683	0.540982
H434	H	0.064944	-0.499350	0.874316
H435	H	0.398277	-0.166017	1.207649
H436	H	-0.603173	-0.792572	0.414559
H437	H	-0.269839	-0.459239	0.747892
H438	H	0.063494	-0.125906	1.081225
O439	O	-0.381136	-0.821945	0.385054
O440	O	-0.047803	-0.488611	0.718387
O441	O	0.285531	-0.155278	1.051720
H442	H	-0.405344	-0.794073	0.412895
H443	H	-0.072011	-0.460739	0.746228
H444	H	0.261322	-0.127406	1.079561
H445	H	-0.472453	-0.832584	0.374495
H446	H	-0.139120	-0.499251	0.707829
H447	H	0.194213	-0.165918	1.041162
H448	H	-0.743786	-1.018269	0.189236
H449	H	-0.410453	-0.684935	0.522569
H450	H	-0.077120	-0.351602	0.855903
H451	H	-0.142741	-0.914510	0.861549
H452	H	0.190592	-0.581177	1.194883
H453	H	0.523925	-0.247844	1.528216
O454	O	-0.275860	-0.822103	1.071968
O455	O	0.057473	-0.488770	1.405302
O456	O	0.390806	-0.155437	1.738635
H457	H	-0.271023	-0.828844	1.122968
H458	H	0.062310	-0.495510	1.456302
H459	H	0.395644	-0.162177	1.789635
O460	O	-0.275875	-0.822085	0.935963
O461	O	0.057458	-0.488752	1.269296
O462	O	0.390791	-0.155418	1.602630
H463	H	-0.295847	-0.794196	0.969694
H464	H	0.037486	-0.460863	1.303028
H465	H	0.370820	-0.127530	1.636361
H466	H	-0.743930	-0.792626	0.414562
H467	H	-0.410597	-0.459293	0.747895
H468	H	-0.077264	-0.125959	1.081229
O469	O	-0.156532	-0.988812	0.532398
O470	O	0.176801	-0.655479	0.865731
O471	O	0.510135	-0.322145	1.199065
H472	H	-0.136541	-1.016696	0.566155
H473	H	0.196792	-0.683363	0.899488
H474	H	0.530125	-0.350030	1.232822
H475	H	-0.289620	-0.896418	0.861533
H476	H	0.043714	-0.563085	1.194866
H477	H	0.377047	-0.229752	1.528200
H478	H	-0.289639	-0.896245	0.742829
H479	H	0.043694	-0.562912	1.076162
H480	H	0.377028	-0.229578	1.409495
