data_functionalizedCrystal
_audit_creation_method	'MofGen! by Chris Wilmer'
_symmetry_space_group_name_H-M	'P1'
_symmetry_Int_Tables_number	1
_symmetry_cell_setting	triclinic
loop_
_symmetry_equiv_pos_as_xyz
  x,y,z
_cell_length_a	18.215407
_cell_length_b	19.077068
_cell_length_c	18.215407
_cell_angle_alpha	87.713242
_cell_angle_beta	90.009795
_cell_angle_gamma	92.327501
loop_
_atom_site_label
_atom_site_type_symbol
_atom_site_fract_x
_atom_site_fract_y
_atom_site_fract_z
Zn1	Zn	1.113207	-0.280336	0.427874
Zn2	Zn	1.613207	0.219664	0.927874
Zn3	Zn	1.108188	-0.398000	0.309743
Zn4	Zn	1.608188	0.102000	0.809743
Zn5	Zn	0.990162	-0.280320	0.304821
Zn6	Zn	1.490162	0.219680	0.804821
Zn7	Zn	0.985156	-0.398000	0.432768
Zn8	Zn	1.485156	0.102000	0.932768
O9	O	1.049178	-0.339164	0.368802
O10	O	1.549178	0.160836	0.868802
O11	O	1.215525	-0.295951	0.412216
O12	O	1.715525	0.204049	0.912216
O13	O	1.092526	-0.382383	0.206106
O14	O	1.592526	0.117617	0.706106
O15	O	1.010680	-0.181830	0.317036
O16	O	1.510680	0.318170	0.817036
O17	O	1.211838	-0.382399	0.325425
O18	O	1.711838	0.117601	0.825425
O19	O	1.101081	-0.181842	0.407443
O20	O	1.601081	0.318158	0.907443
O21	O	1.005813	-0.295924	0.202489
O22	O	1.505813	0.204076	0.702489
O23	O	0.886514	-0.295924	0.321781
O24	O	1.386514	0.204076	0.821781
O25	O	1.002148	-0.382399	0.535103
O26	O	1.502148	0.117601	1.035103
O27	O	0.882836	-0.382383	0.415784
O28	O	1.382836	0.117617	0.915784
O29	O	1.096227	-0.295951	0.531508
O30	O	1.596227	0.204049	1.031508
O31	O	1.087672	-0.496493	0.330171
O32	O	1.587672	0.003507	0.830171
O33	O	0.997281	-0.496493	0.420557
O34	O	1.497281	0.003507	0.920557
C35	C	0.857973	-0.339152	0.368780
C36	C	1.357973	0.160848	0.868780
C37	C	0.776173	-0.339164	0.368789
C38	C	1.276173	0.160836	0.868789
C39	C	1.041409	-0.522031	0.376445
C40	C	1.541409	-0.022031	0.876445
C41	C	1.038152	-0.600262	0.379740
C42	C	1.538152	-0.100262	0.879740
C43	C	0.586081	-0.384254	0.417680
C44	C	1.086081	0.115746	0.917680
C45	C	0.509222	-0.384256	0.417689
C46	C	1.009222	0.115744	0.917689
C47	C	0.513028	-0.294087	0.319940
C48	C	1.013028	0.205913	0.819940
C49	C	0.589885	-0.294082	0.319935
C50	C	1.089885	0.205918	0.819935
C51	C	0.626410	-0.339169	0.368804
C52	C	1.126410	0.160831	0.868804
C53	C	0.472693	-0.339177	0.368818
C54	C	0.972693	0.160823	0.868818
C55	C	0.389359	-0.339179	0.368828
C56	C	0.889359	0.160821	0.868828
C57	C	0.709749	-0.339167	0.368795
C58	C	1.209749	0.160833	0.868795
C59	C	1.083720	-0.636992	0.334267
C60	C	1.583720	-0.136992	0.834267
C61	C	1.080662	-0.710498	0.337370
C62	C	1.580662	-0.210498	0.837370
C63	C	1.032031	-0.747273	0.385942
C64	C	1.532031	-0.247273	0.885942
C65	C	0.986461	-0.710538	0.431420
C66	C	1.486461	-0.210538	0.931420
C67	C	0.989524	-0.637033	0.428320
C68	C	1.489524	-0.137033	0.928320
C69	C	1.017824	-0.967113	0.400259
C70	C	1.517824	-0.467113	0.900259
C71	C	1.014763	-1.040623	0.403354
C72	C	1.514763	-0.540623	0.903354
C73	C	1.108965	-1.040577	0.309305
C74	C	1.608965	-0.540577	0.809305
C75	C	1.112020	-0.967071	0.306206
C76	C	1.612020	-0.467071	0.806206
C77	C	1.066453	-0.930342	0.351686
C78	C	1.566453	-0.430342	0.851686
N79	N	1.028902	-0.822409	0.389114
N80	N	1.528902	-0.322409	0.889114
N81	N	1.069587	-0.855208	0.348518
N82	N	1.569587	-0.355208	0.848518
C83	C	1.241131	-0.339177	0.368824
C84	C	1.741131	0.160823	0.868824
C85	C	1.322929	-0.339182	0.368833
C86	C	1.822929	0.160818	0.868833
C87	C	1.049189	-0.339177	0.560755
C88	C	1.549189	0.160823	1.060755
C89	C	1.049194	-0.339182	0.642554
C90	C	1.549194	0.160818	1.142554
C91	C	1.056998	-0.155584	0.361144
C92	C	1.556998	0.344416	0.861144
C93	C	1.060331	-0.077353	0.357881
C94	C	1.560331	0.422647	0.857881
C95	C	1.094334	-0.384187	0.909499
C96	C	1.594334	0.115813	1.409499
C97	C	1.094336	-0.384191	0.832640
C98	C	1.594336	0.115809	1.332640
C99	C	1.004032	-0.294165	0.828858
C100	C	1.504032	0.205835	1.328858
C101	C	1.004027	-0.294166	0.905715
C102	C	1.504027	0.205834	1.405715
C103	C	1.049183	-0.339176	0.946033
C104	C	1.549183	0.160824	1.446033
C105	C	1.049189	-0.339179	0.792317
C106	C	1.549189	0.160821	1.292317
C107	C	1.049191	-0.339182	0.708984
C108	C	1.549191	0.160818	1.208984
C109	C	1.049180	-0.339174	1.029372
C110	C	1.549180	0.160826	1.529372
C111	C	1.049167	-0.339170	1.177596
C112	C	1.549167	0.160830	1.677596
C113	C	1.049178	-0.339173	1.095797
C114	C	1.549178	0.160827	1.595797
H115	H	0.476389	-0.420968	0.457490
H116	H	0.976389	0.079032	0.957490
O117	O	0.939203	-0.746151	0.478669
O118	O	1.439203	-0.246151	0.978669
C119	C	0.899628	-0.697967	0.518128
C120	C	1.399628	-0.197967	1.018128
H121	H	0.931954	-0.645546	0.518493
H122	H	1.431954	-0.145546	1.018493
H123	H	0.890851	-0.719191	0.576999
H124	H	1.390851	-0.219191	1.076999
H125	H	0.844078	-0.690202	0.490801
H126	H	1.344078	-0.190202	0.990801
H127	H	0.483280	-0.257380	0.280152
H128	H	0.983280	0.242620	0.780152
H129	H	0.615816	-0.420965	0.457474
H130	H	1.115816	0.079035	0.957474
O131	O	0.628953	-0.250262	0.272383
O132	O	1.128953	0.249738	0.772383
C133	C	0.580237	-0.210460	0.229259
C134	C	1.080237	0.289540	0.729259
H135	H	0.524225	-0.239287	0.227867
H136	H	1.024225	0.260713	0.727867
H137	H	0.602756	-0.202863	0.170970
H138	H	1.102756	0.297137	0.670970
H139	H	0.574337	-0.157047	0.254066
H140	H	1.074337	0.342953	0.754066
O141	O	0.945365	-0.601318	0.472567
O142	O	1.445365	-0.101318	0.972567
C143	C	0.989007	-0.558739	0.518328
C144	C	1.489007	-0.058739	1.018328
H145	H	1.046043	-0.580847	0.523857
H146	H	1.546043	-0.080847	1.023857
H147	H	0.962384	-0.557904	0.574905
H148	H	1.462384	-0.057904	1.074905
H149	H	0.993882	-0.503037	0.493227
H150	H	1.493882	-0.003037	0.993227
H151	H	1.151620	-0.937130	0.266655
H152	H	1.651620	-0.437130	0.766655
H153	H	1.123318	-0.607054	0.294712
H154	H	1.623318	-0.107054	0.794712
H155	H	1.117768	-0.740400	0.300341
H156	H	1.617768	-0.240400	0.800341
O157	O	0.973660	-0.931413	0.444509
O158	O	1.473660	-0.431413	0.944509
C159	C	1.017289	-0.888832	0.490280
C160	C	1.517289	-0.388832	0.990280
H161	H	1.074329	-0.910931	0.495813
H162	H	1.574329	-0.410931	0.995813
H163	H	0.990660	-0.888009	0.546855
H164	H	1.490660	-0.388009	1.046855
H165	H	1.022156	-0.833127	0.465187
H166	H	1.522156	-0.333127	0.965187
H167	H	1.146064	-1.070490	0.272279
H168	H	1.646064	-0.570490	0.772279
O169	O	0.967506	-1.076239	0.450609
O170	O	1.467506	-0.576239	0.950609
C171	C	0.927932	-1.028060	0.490076
C172	C	1.427932	-0.528060	0.990076
H173	H	0.960255	-0.975637	0.490441
H174	H	1.460255	-0.475637	0.990441
H175	H	0.919162	-1.049288	0.548947
H176	H	1.419162	-0.549288	1.048947
H177	H	0.872379	-1.020297	0.462755
H178	H	1.372379	-0.520297	0.962755
O179	O	1.138212	-0.427979	0.948554
O180	O	1.638212	0.072021	1.448554
C181	C	1.178077	-0.467695	0.899821
C182	C	1.678077	0.032305	1.399821
H183	H	1.147832	-0.470130	0.845130
H184	H	1.647832	0.029870	1.345130
H185	H	1.183567	-0.523150	0.924345
H186	H	1.683567	-0.023150	1.424345
H187	H	1.235067	-0.441922	0.890583
H188	H	1.735067	0.058078	1.390583
H189	H	0.967269	-0.257519	0.796021
H190	H	1.467269	0.242481	1.296021
O191	O	0.960144	-0.250373	0.941093
O192	O	1.460144	0.249627	1.441093
C193	C	0.920280	-0.210654	0.889028
C194	C	1.420280	0.289346	1.389028
H195	H	0.950530	-0.208212	0.834146
H196	H	1.450530	0.291788	1.334146
H197	H	0.914786	-0.155201	0.908921
H198	H	1.414786	0.344799	1.408921
H199	H	0.863293	-0.236429	0.881918
H200	H	1.363293	0.263571	1.381918
H201	H	1.131103	-0.420843	0.802897
H202	H	1.631103	0.079157	1.302897
