data_functionalizedCrystal
_audit_creation_method	'MofGen! by Chris Wilmer'
_symmetry_space_group_name_H-M	'P1'
_symmetry_Int_Tables_number	1
_symmetry_cell_setting	triclinic
loop_
_symmetry_equiv_pos_as_xyz
  x,y,z
_cell_length_a	12.827893
_cell_length_b	12.827892
_cell_length_c	12.827893
_cell_angle_alpha	90.007263
_cell_angle_beta	90.003786
_cell_angle_gamma	90.015362
loop_
_atom_site_label
_atom_site_type_symbol
_atom_site_fract_x
_atom_site_fract_y
_atom_site_fract_z
Zn1	Zn	1.597510	-0.416216	0.590848
Zn2	Zn	1.930843	-0.082882	0.924182
Zn3	Zn	2.264177	0.250451	1.257515
Zn4	Zn	1.597451	-0.590924	0.416109
Zn5	Zn	1.930785	-0.257591	0.749442
Zn6	Zn	2.264118	0.075742	1.082775
Zn7	Zn	1.422798	-0.416198	0.416122
Zn8	Zn	1.756132	-0.082864	0.749455
Zn9	Zn	2.089465	0.250469	1.082789
Zn10	Zn	1.422737	-0.590915	0.590808
Zn11	Zn	1.756070	-0.257582	0.924142
Zn12	Zn	2.089403	0.075752	1.257475
O13	O	1.510124	-0.503563	0.503472
O14	O	1.843457	-0.170230	0.836805
O15	O	2.176791	0.163104	1.170138
O16	O	1.743738	-0.439402	0.567680
O17	O	2.077071	-0.106069	0.901013
O18	O	2.410405	0.227264	1.234346
O19	O	1.574285	-0.567743	0.269874
O20	O	1.907618	-0.234409	0.603208
O21	O	2.240951	0.098924	0.936541
O22	O	1.446025	-0.269964	0.439322
O23	O	1.779358	0.063369	0.772655
O24	O	2.112691	0.396703	1.105989
O25	O	1.743695	-0.567760	0.439299
O26	O	2.077028	-0.234427	0.772633
O27	O	2.410362	0.098907	1.105966
O28	O	1.574384	-0.269977	0.567693
O29	O	1.907718	0.063356	0.901026
O30	O	2.241051	0.396690	1.234359
O31	O	1.445968	-0.439372	0.269884
O32	O	1.779301	-0.106039	0.603218
O33	O	2.112635	0.227295	0.936551
O34	O	1.276554	-0.439363	0.439283
O35	O	1.609888	-0.106030	0.772617
O36	O	1.943221	0.227304	1.105950
O37	O	1.445919	-0.567745	0.737050
O38	O	1.779253	-0.234411	1.070383
O39	O	2.112586	0.098922	1.403716
O40	O	1.276509	-0.567727	0.567625
O41	O	1.609842	-0.234394	0.900958
O42	O	1.943175	0.098939	1.234292
O43	O	1.574324	-0.439393	0.737079
O44	O	1.907658	-0.106060	1.070412
O45	O	2.240991	0.227273	1.403746
O46	O	1.574224	-0.737159	0.439261
O47	O	1.907558	-0.403826	0.772594
O48	O	2.240891	-0.070492	1.105927
O49	O	1.445862	-0.737152	0.567612
O50	O	1.779196	-0.403819	0.900945
O51	O	2.112529	-0.070486	1.234279
C52	C	1.238614	-0.503543	0.503452
C53	C	1.571947	-0.170210	0.836785
C54	C	1.905281	0.163124	1.170119
C55	C	1.122461	-0.503560	0.503468
C56	C	1.455794	-0.170226	0.836802
C57	C	1.789128	0.163107	1.170135
C58	C	1.070681	-0.567177	0.566878
C59	C	1.404015	-0.233844	0.900211
C60	C	1.737348	0.099489	1.233544
C61	C	0.950631	-0.567196	0.566896
C62	C	1.283964	-0.233863	0.900229
C63	C	1.617298	0.099471	1.233563
C64	C	1.510059	-0.775073	0.503453
C65	C	1.843392	-0.441740	0.836787
C66	C	2.176725	-0.108406	1.170120
C67	C	1.510126	-0.891226	0.503480
C68	C	1.843460	-0.557893	0.836814
C69	C	2.176793	-0.224560	1.170147
C70	C	1.573719	-0.942980	0.440039
C71	C	1.907053	-0.609646	0.773372
C72	C	2.240386	-0.276313	1.106705
C73	C	1.573791	-1.063030	0.440065
C74	C	1.907124	-0.729697	0.773399
C75	C	2.240457	-0.396363	1.106732
C76	C	1.782694	-0.503584	0.503492
C77	C	2.116027	-0.170251	0.836826
C78	C	2.449361	0.163083	1.170159
C79	C	1.898847	-0.503593	0.503501
C80	C	2.232181	-0.170260	0.836834
C81	C	2.565514	0.163074	1.170168
C82	C	1.510121	-0.503570	0.776042
C83	C	1.843455	-0.170237	1.109375
C84	C	2.176788	0.163097	1.442709
C85	C	1.510120	-0.503573	0.892195
C86	C	1.843454	-0.170240	1.225528
C87	C	2.176787	0.163094	1.558862
C88	C	1.510218	-0.230993	0.503513
C89	C	1.843551	0.102340	0.836847
C90	C	2.176885	0.435674	1.170180
C91	C	1.510258	-0.114840	0.503531
C92	C	1.843592	0.218493	0.836864
C93	C	2.176925	0.551827	1.170197
C94	C	1.573652	-0.440069	0.943994
C95	C	1.906986	-0.106735	1.277327
C96	C	2.240319	0.226598	1.610661
C97	C	1.573653	-0.440070	1.064045
C98	C	1.906986	-0.106737	1.397378
C99	C	2.240319	0.226596	1.730711
C100	C	1.510119	-0.503580	1.231962
C101	C	1.843452	-0.170246	1.565295
C102	C	2.176785	0.163087	1.898629
C103	C	1.510120	-0.503577	1.115809
C104	C	1.843453	-0.170244	1.449142
C105	C	2.176787	0.163090	1.782475
H106	H	0.943370	-0.449128	0.449207
H107	H	1.276703	-0.115795	0.782541
H108	H	1.610036	0.217538	1.115874
O109	O	1.129690	-0.639292	0.638781
O110	O	1.463024	-0.305958	0.972114
O111	O	1.796357	0.027375	1.305448
H112	H	1.108798	-0.721309	0.620759
H113	H	1.442131	-0.387975	0.954092
H114	H	1.775465	-0.054642	1.287425
H115	H	1.455739	-0.935795	0.557819
H116	H	1.789072	-0.602462	0.891152
H117	H	2.122406	-0.269128	1.224486
O118	O	1.438131	-1.055892	0.575475
O119	O	1.771465	-0.722559	0.908809
O120	O	2.104798	-0.389225	1.242142
H121	H	1.356124	-1.076852	0.557491
H122	H	1.689457	-0.743519	0.890824
H123	H	2.022791	-0.410186	1.224158
H124	H	1.628116	-0.898413	0.385707
H125	H	1.961449	-0.565080	0.719041
H126	H	2.294782	-0.231747	1.052374
H127	H	1.628232	-1.107537	0.385748
H128	H	1.961565	-0.774203	0.719081
H129	H	2.294899	-0.440870	1.052414
O130	O	1.063457	-0.431447	0.431559
O131	O	1.396790	-0.098114	0.764893
O132	O	1.730123	0.235220	1.098226
H133	H	1.013731	-0.378410	0.478464
H134	H	1.347064	-0.045077	0.811798
H135	H	1.680397	0.288256	1.145131
H136	H	1.628040	-0.385696	0.899465
H137	H	1.961373	-0.052362	1.232798
H138	H	2.294707	0.280971	1.566131
O139	O	1.645689	-0.368028	1.123037
O140	O	1.979022	-0.034695	1.456370
O141	O	2.312356	0.298639	1.789703
H142	H	1.634371	-0.379320	1.208071
H143	H	1.967704	-0.045987	1.541404
H144	H	2.301038	0.287347	1.874738
H145	H	1.455729	-0.557952	1.071270
H146	H	1.789062	-0.224618	1.404603
H147	H	2.122396	0.108715	1.737936
H148	H	1.455722	-0.557935	0.936725
H149	H	1.789055	-0.224602	1.270058
H150	H	2.122389	0.108731	1.603391
O151	O	0.891607	-0.639387	0.638729
O152	O	1.224940	-0.306054	0.972063
O153	O	1.558273	0.027280	1.305396
H154	H	0.912485	-0.721375	0.620616
H155	H	1.245819	-0.388042	0.953949
H156	H	1.579152	-0.054709	1.287283
