data_functionalizedCrystal
_audit_creation_method	'MofGen! by Chris Wilmer'
_symmetry_space_group_name_H-M	'P1'
_symmetry_Int_Tables_number	1
_symmetry_cell_setting	triclinic
loop_
_symmetry_equiv_pos_as_xyz
  x,y,z
_cell_length_a	10.654550
_cell_length_b	10.723024
_cell_length_c	9.130313
_cell_angle_alpha	89.999893
_cell_angle_beta	89.996220
_cell_angle_gamma	84.476386
loop_
_atom_site_label
_atom_site_type_symbol
_atom_site_fract_x
_atom_site_fract_y
_atom_site_fract_z
O1	O	1.667808	0.175269	-0.121916
O2	O	1.302327	0.191968	-0.121892
O3	O	1.493498	0.002044	-0.121899
O4	O	1.476637	0.365194	-0.121909
O5	O	1.493495	0.002049	0.121700
O6	O	1.302324	0.191973	0.121707
O7	O	1.667805	0.175274	0.121683
Cu8	Cu	1.485065	0.183624	0.143937
Cu9	Cu	1.485067	0.183618	-0.144146
O10	O	1.476634	0.365199	0.121690
C11	C	1.255528	0.190745	-0.000089
C12	C	1.116085	0.187076	-0.000080
C13	C	1.036583	0.298901	-0.000105
C14	C	0.905562	0.295446	-0.000130
C15	C	0.933560	0.068333	-0.000113
C16	C	1.064578	0.071789	-0.000077
C17	C	1.020417	0.430023	-0.000121
C18	C	0.889397	0.426568	-0.000146
C19	C	1.492269	-0.044454	-0.000101
C20	C	1.488598	-0.183008	-0.000106
C21	C	1.595568	-0.257975	-0.000115
C22	C	1.591776	-0.401179	-0.000120
C23	C	1.714604	0.176498	-0.000123
C24	C	1.854047	0.180166	-0.000141
C25	C	1.477863	0.411696	-0.000111
C26	C	1.481534	0.550251	-0.000116
N27	N	1.485072	0.183628	0.346560
N28	N	1.485070	0.183605	-0.346769
C29	C	1.569744	0.099558	0.423209
C30	C	1.569741	0.099543	0.576546
C31	C	1.400389	0.267679	0.576571
C32	C	1.400387	0.267687	0.423237
C33	C	1.667522	0.002490	0.423195
C34	C	1.667519	0.002475	0.576532
H35	H	1.056067	0.471772	-0.105294
H36	H	1.331429	0.336132	0.360831
C37	C	1.183603	0.338927	0.623808
C38	C	1.307308	0.360072	0.660864
H39	H	1.126140	0.395964	0.675854
H40	H	1.171494	0.350974	0.521531
H41	H	1.169274	0.255506	0.648933
H42	H	1.321639	0.443491	0.635730
H43	H	1.319422	0.348035	0.763164
H44	H	1.683350	-0.465598	-0.000121
C45	C	0.952987	0.537767	0.220951
C46	C	1.060016	0.499245	0.137506
H47	H	0.977438	0.580492	0.305918
H48	H	0.896732	0.592376	0.164300
H49	H	0.912219	0.466553	0.249246
H50	H	1.100779	0.570460	0.109202
H51	H	1.116292	0.444633	0.194168
H52	H	0.843719	0.466197	0.105021
C53	C	1.739554	-0.179234	0.281779
C54	C	1.638574	-0.126980	0.366991
H55	H	1.721678	-0.259161	0.247087
H56	H	1.751460	-0.125940	0.200882
H57	H	1.814005	-0.188057	0.339589
H58	H	1.564124	-0.118148	0.309177
H59	H	1.626653	-0.180287	0.447899
H60	H	1.389955	-0.385338	-0.000098
H61	H	0.847658	0.475971	-0.102101
H62	H	0.891606	-0.025530	-0.000132
C63	C	1.702086	-0.070577	-0.000107
C64	C	1.722995	-0.201512	-0.000116
H65	H	1.780759	-0.035725	-0.000098
H66	H	1.655677	-0.043601	-0.085048
H67	H	1.655659	-0.043609	0.084849
H68	H	1.769414	-0.228481	-0.085078
H69	H	1.769424	-0.228499	0.084834
C70	C	1.871450	0.070441	0.473180
C71	C	1.790610	0.043509	0.358969
H72	H	1.947440	0.095759	0.433525
H73	H	1.831781	0.136054	0.531732
H74	H	1.889968	-0.002234	0.531727
H75	H	1.772084	0.116187	0.300428
H76	H	1.830287	-0.022110	0.300392
H77	H	1.764027	0.023856	0.618142
C78	C	1.352312	-0.313498	-0.125328
C79	C	1.361172	-0.239474	-0.000102
H80	H	1.273645	-0.348360	-0.125318
H81	H	1.358336	-0.263269	-0.210257
H82	H	1.418940	-0.379082	-0.125320
H83	H	1.294550	-0.173884	-0.000116
H84	H	1.355136	-0.289707	0.084849
H85	H	1.129305	-0.019270	-0.000036
C86	C	1.504025	-0.136130	0.593344
C87	C	1.626385	-0.119907	0.640715
H88	H	1.478645	-0.211691	0.632957
H89	H	1.447819	-0.067461	0.625511
H90	H	1.502637	-0.140262	0.489434
H91	H	1.627772	-0.115766	0.744625
H92	H	1.682605	-0.188593	0.608556
