data_functionalizedCrystal
_audit_creation_method	'MofGen! by Chris Wilmer'
_symmetry_space_group_name_H-M	'P1'
_symmetry_Int_Tables_number	1
_symmetry_cell_setting	triclinic
loop_
_symmetry_equiv_pos_as_xyz
  x,y,z
_cell_length_a	12.759400
_cell_length_b	12.594517
_cell_length_c	12.759393
_cell_angle_alpha	90.014260
_cell_angle_beta	89.970158
_cell_angle_gamma	89.984023
loop_
_atom_site_label
_atom_site_type_symbol
_atom_site_fract_x
_atom_site_fract_y
_atom_site_fract_z
Zn1	Zn	-0.418183	-1.627280	-0.593877
Zn2	Zn	-0.593902	-1.627171	-0.418202
Zn3	Zn	-0.418240	-1.449282	-0.418229
Zn4	Zn	-0.593822	-1.449268	-0.593857
O5	O	-0.506037	-1.538250	-0.506041
O6	O	-0.441501	-1.776211	-0.570570
O7	O	-0.570657	-1.603534	-0.271185
O8	O	-0.271211	-1.472944	-0.441549
O9	O	-0.570601	-1.776131	-0.441503
O10	O	-0.271169	-1.603719	-0.570596
O11	O	-0.441599	-1.472839	-0.271204
O12	O	-0.441522	-1.300334	-0.441529
O13	O	-0.570466	-1.472922	-0.740880
O14	O	-0.570522	-1.300324	-0.570562
O15	O	-0.441425	-1.603706	-0.740895
O16	O	-0.740912	-1.603521	-0.441484
O17	O	-0.740854	-1.472817	-0.570536
C18	C	-0.506020	-1.261709	-0.506047
C19	C	-0.506038	-1.143404	-0.506074
C20	C	-0.576331	-1.003413	-0.576127
C21	C	-0.601907	-1.074183	-0.480240
C22	C	-0.480508	-1.074206	-0.601950
C23	C	-0.531702	-1.003388	-0.410108
C24	C	-0.410258	-1.003405	-0.531883
C25	C	-0.435798	-1.074143	-0.435930
C26	C	-0.779004	-1.538184	-0.506028
C27	C	-0.895781	-1.538254	-0.506057
C28	C	-1.060382	-1.470247	-0.573219
C29	C	-0.950658	-1.470183	-0.573204
C30	C	-0.950633	-1.606400	-0.438929
C31	C	-1.060355	-1.606468	-0.438950
C32	C	-0.800653	-1.431993	-0.697051
C33	C	-0.745804	-1.363838	-0.764167
C34	C	-0.781495	-1.259995	-0.780224
C35	C	-0.872033	-1.224286	-0.729150
C36	C	-0.926876	-1.292436	-0.662026
C37	C	-0.891187	-1.396294	-0.645989
C38	C	-1.210362	-1.644647	-0.315101
C39	C	-1.265207	-1.712793	-0.247971
C40	C	-1.229519	-1.816637	-0.231903
C41	C	-1.138977	-1.852342	-0.282959
C42	C	-1.084132	-1.784197	-0.350089
C43	C	-1.119828	-1.680353	-0.366159
C44	C	-0.232003	-1.538345	-0.506078
C45	C	-0.115227	-1.538386	-0.506093
C46	C	-0.505930	-1.538324	-0.780075
C47	C	-0.505885	-1.538356	-0.896851
C48	C	-0.506057	-0.815871	-0.506039
C49	C	-0.506075	-0.934176	-0.506045
C50	C	-0.438672	-1.470328	-0.951723
C51	C	-0.438640	-1.470353	-1.061447
C52	C	-0.573036	-1.606443	-1.061418
C53	C	-0.573073	-1.606412	-0.951696
C54	C	-0.401041	-1.344881	-1.211408
C55	C	-0.333812	-1.276862	-1.266284
C56	C	-0.231308	-1.260548	-1.230692
C57	C	-0.196013	-1.312269	-1.140227
C58	C	-0.263237	-1.380295	-1.085357
C59	C	-0.365755	-1.396589	-1.120947
C60	C	-0.610661	-1.731885	-0.801733
C61	C	-0.677880	-1.799918	-0.746861
C62	C	-0.780385	-1.816243	-0.782451
C63	C	-0.815677	-1.764542	-0.872919
C64	C	-0.748458	-1.696509	-0.927791
C65	C	-0.645953	-1.680182	-0.892194
C66	C	-0.506067	-1.538237	-0.233074
C67	C	-0.505816	-1.538412	-0.116298
H68	H	-1.105055	-1.414817	-0.627899
O69	O	-0.511100	-1.716177	-0.767040
C70	C	-0.494371	-1.776387	-0.675417
H71	H	-0.552102	-1.845414	-0.673154
H72	H	-0.506641	-1.723898	-0.603642
C73	C	-0.310633	-1.735036	-0.678123
C74	C	-0.381533	-1.819822	-0.675348
H75	H	-0.241029	-1.761825	-0.678077
H76	H	-0.321904	-1.694468	-0.739849
H77	H	-0.320871	-1.691302	-0.618310
H78	H	-0.371303	-1.863546	-0.735167
H79	H	-0.370258	-1.860398	-0.613631
H80	H	-0.627737	-1.661853	-1.106086
H81	H	-0.835111	-1.871652	-0.737770
H82	H	-0.672087	-1.392921	-0.805752
O83	O	-0.698619	-1.111227	-0.454344
C84	C	-0.772479	-1.075173	-0.528393
H85	H	-0.730791	-1.055327	-0.604963
H86	H	-0.813233	-1.001104	-0.497070
C87	C	-0.905621	-1.187029	-0.454115
C88	C	-0.854421	-1.162662	-0.548162
H89	H	-0.956170	-1.240993	-0.466307
H90	H	-0.855862	-1.211317	-0.404223
H91	H	-0.939575	-1.125298	-0.428022
H92	H	-0.820458	-1.224389	-0.574247
H93	H	-0.904176	-1.138387	-0.598059
H94	H	-1.000591	-1.263363	-0.620443
O95	O	-0.228955	-1.430700	-0.997581
C96	C	-0.235361	-1.541461	-1.012311
H97	H	-0.234357	-1.560097	-1.099741
H98	H	-0.311241	-1.572344	-0.976294
C99	C	-0.142446	-1.572667	-0.851568
C100	C	-0.141204	-1.595557	-0.958951
H101	H	-0.084369	-1.606038	-0.818650
H102	H	-0.138133	-1.498046	-0.841642
H103	H	-0.205684	-1.598404	-0.821569
H104	H	-0.077973	-1.569808	-0.988952
H105	H	-0.145504	-1.670176	-0.968882
O106	O	-0.454594	-1.111441	-0.698610
C107	C	-0.362546	-1.172983	-0.691546
H108	H	-0.353136	-1.203493	-0.607970
H109	H	-0.291936	-1.122066	-0.713241
C110	C	-0.381650	-1.230300	-0.870073
C111	C	-0.370096	-1.267781	-0.767424
H112	H	-0.386303	-1.288774	-0.916881
H113	H	-0.443662	-1.188836	-0.874834
H114	H	-0.322805	-1.187869	-0.888137
H115	H	-0.428946	-1.310200	-0.749358
H116	H	-0.308094	-1.309255	-0.762662
O117	O	-0.906579	-1.123389	-0.744893
C118	C	-0.838744	-1.070887	-0.815069
H119	H	-0.795361	-1.132054	-0.864670
H120	H	-0.779683	-1.021617	-0.768954
C121	C	-0.956314	-0.922339	-0.826094
C122	C	-0.903037	-0.997465	-0.887021
H123	H	-0.995971	-0.877045	-0.870475
H124	H	-1.002014	-0.957708	-0.778812
H125	H	-0.907087	-0.881292	-0.787669
H126	H	-0.952265	-1.038519	-0.925435
H127	H	-0.857347	-0.962101	-0.934312
H128	H	-0.635804	-0.972356	-0.635306
O129	O	-0.557778	-0.966394	-0.313402
C130	C	-0.649305	-0.904080	-0.320634
H131	H	-0.695039	-0.927613	-0.393764
H132	H	-0.626871	-0.816618	-0.325705
C133	C	-0.661640	-0.893463	-0.133075
C134	C	-0.717815	-0.922374	-0.222891
H135	H	-0.703899	-0.904742	-0.072782
H136	H	-0.599974	-0.935442	-0.128202
H137	H	-0.642948	-0.820580	-0.137316
H138	H	-0.736494	-0.995258	-0.218655
H139	H	-0.779486	-0.880407	-0.227761
H140	H	-0.176570	-1.205165	-1.275380
H141	H	-0.484512	-1.358146	-1.240387
O142	O	-0.096417	-1.296273	-1.105778
C143	C	-0.044644	-1.225162	-1.173620
H144	H	-0.105055	-1.174942	-1.216904
H145	H	0.003994	-1.271865	-1.232765
C146	C	0.102011	-1.213919	-1.056200
C147	C	0.027813	-1.152231	-1.109355
H148	H	0.146710	-1.168934	-1.016560
H149	H	0.067133	-1.261831	-1.010494
H150	H	0.142532	-1.252834	-1.105497
H151	H	-0.012714	-1.113327	-1.060058
H152	H	0.062687	-1.104310	-1.155051
H153	H	-0.329267	-0.972292	-0.553759
H154	H	-0.736828	-1.204502	-0.834872
H155	H	-0.771593	-1.516555	-0.683997
H156	H	-0.905946	-1.661830	-0.384260
H157	H	-0.376370	-1.105003	-0.376608
O158	O	-0.782920	-1.646329	-1.015628
C159	C	-0.887800	-1.675347	-1.035297
H160	H	-0.925903	-1.703308	-0.959335
H161	H	-0.889824	-1.742313	-1.095395
C162	C	-0.901362	-1.544471	-1.171511
C163	C	-0.948163	-1.578805	-1.078211
H164	H	-0.938597	-1.484922	-1.197987
H165	H	-0.830701	-1.524923	-1.158264
H166	H	-0.903052	-1.600284	-1.221581
H167	H	-0.946461	-1.522996	-1.028140
H168	H	-1.018826	-1.598341	-1.091452
O169	O	-0.996245	-1.818801	-0.399858
C170	C	-1.010935	-1.812335	-0.509184
H171	H	-1.074251	-1.751135	-0.527201
H172	H	-1.036058	-1.893165	-0.540580
C173	C	-0.829747	-1.853923	-0.539727
C174	C	-0.907507	-1.778749	-0.561857
H175	H	-0.765947	-1.833211	-0.572220
H176	H	-0.819850	-1.858284	-0.466073
H177	H	-0.850697	-1.921275	-0.565892
H178	H	-0.886562	-1.711403	-0.535681
H179	H	-0.917398	-1.774377	-0.635509
H180	H	-1.239434	-1.560090	-0.328185
H181	H	-1.109915	-1.936899	-0.269872
H182	H	-1.274180	-1.872117	-0.177232
H183	H	-1.338934	-1.683714	-0.206402
H184	H	-0.383964	-1.414912	-0.907072
H185	H	-0.899144	-1.777839	-0.901901
H186	H	-0.362559	-1.234752	-1.339941
H187	H	-0.649132	-1.842028	-0.673205
