data_functionalizedCrystal
_audit_creation_method	'MofGen! by Chris Wilmer'
_symmetry_space_group_name_H-M	'P1'
_symmetry_Int_Tables_number	1
_symmetry_cell_setting	triclinic
loop_
_symmetry_equiv_pos_as_xyz
  x,y,z
_cell_length_a	8.597187
_cell_length_b	8.559649
_cell_length_c	13.448316
_cell_angle_alpha	89.994831
_cell_angle_beta	82.291484
_cell_angle_gamma	77.625088
loop_
_atom_site_label
_atom_site_type_symbol
_atom_site_fract_x
_atom_site_fract_y
_atom_site_fract_z
O1	O	2.053797	0.238072	-0.258644
O2	O	1.594652	0.256327	-0.219309
O3	O	1.864675	0.015230	-0.242441
O4	O	1.783773	0.479169	-0.235512
O5	O	1.864647	0.015214	-0.077055
O6	O	1.594623	0.256311	-0.053923
O7	O	2.053768	0.238056	-0.093258
Cu8	Cu	1.824193	0.247182	-0.058489
Cu9	Cu	1.824227	0.247201	-0.254078
O10	O	1.783745	0.479153	-0.070126
C11	C	1.536401	0.254357	-0.131627
C12	C	1.362877	0.248492	-0.116761
C13	C	1.870792	-0.044212	-0.160275
C14	C	1.889042	-0.221307	-0.161844
C15	C	2.112019	0.240026	-0.180943
C16	C	2.285543	0.245891	-0.195815
C17	C	1.777628	0.538595	-0.152294
C18	C	1.759378	0.715690	-0.150732
N19	N	1.824181	0.247169	0.079076
N20	N	1.824253	0.247202	-0.391644
C21	C	1.943775	0.140456	0.120871
C22	C	1.943785	0.140455	0.224974
C23	C	1.824206	0.247175	0.287278
C24	C	1.704600	0.353893	0.245477
C25	C	1.704585	0.353885	0.141377
C26	C	1.704642	0.353904	0.462454
C27	C	1.704659	0.353915	0.566561
C28	C	1.943843	0.140474	0.546050
C29	C	1.943827	0.140466	0.441950
C30	C	1.824223	0.247186	0.400156
H31	H	1.296330	0.246250	-0.037712
H32	H	2.041156	0.053558	0.070148
H33	H	2.014022	-0.302859	-0.172543
O34	O	2.059773	0.036636	0.265628
C35	C	2.119433	-0.180580	0.378095
C36	C	1.987911	-0.063117	0.332117
H37	H	2.061380	-0.261238	0.431876
H38	H	2.204890	-0.256958	0.315721
H39	H	2.189406	-0.110414	0.420777
H40	H	1.917820	-0.133156	0.289443
H41	H	1.902565	0.013262	0.394534
O42	O	1.610315	-0.186975	-0.138143
C43	C	1.422920	0.020618	-0.207749
C44	C	1.591768	-0.089560	-0.222144
H45	H	1.407882	0.099430	-0.275642
H46	H	1.328161	-0.055215	-0.199692
H47	H	1.407754	0.099285	-0.137209
H48	H	1.607090	-0.168247	-0.292685
H49	H	1.686442	-0.013632	-0.230142
H50	H	1.352093	0.248152	-0.274869
O51	O	2.059814	0.036852	0.381281
C52	C	2.277263	0.005767	0.244667
C53	C	2.146201	0.123403	0.313379
H54	H	2.347120	0.075696	0.189737
H55	H	2.362916	-0.070733	0.292225
H56	H	2.218693	-0.074769	0.201122
H57	H	2.204631	0.204041	0.356937
H58	H	2.060561	0.199791	0.265766
O59	O	2.059992	0.036581	0.586534
C60	C	2.185194	-0.239241	0.607702
C61	C	2.053610	-0.121776	0.561776
H62	H	2.180056	-0.367298	0.587721
H63	H	2.308181	-0.216537	0.576656
H64	H	2.164684	-0.220835	0.692801
H65	H	2.073967	-0.140113	0.476677
H66	H	1.930669	-0.144509	0.592902
H67	H	1.607243	0.440802	0.428430
O68	O	1.588294	0.457397	0.627065
C69	C	1.304666	0.546418	0.683226
C70	C	1.436293	0.429118	0.614671
H71	H	1.181741	0.523619	0.673214
H72	H	1.325102	0.528077	0.764828
H73	H	1.309715	0.674490	0.662335
H74	H	1.431321	0.301001	0.635472
H75	H	1.415812	0.447599	0.533087
H76	H	1.607229	0.440782	0.296213
H77	H	1.607198	0.440779	0.107350
