data_functionalizedCrystal
_audit_creation_method	'MofGen! by Chris Wilmer'
_symmetry_space_group_name_H-M	'P1'
_symmetry_Int_Tables_number	1
_symmetry_cell_setting	triclinic
loop_
_symmetry_equiv_pos_as_xyz
  x,y,z
_cell_length_a	19.188930
_cell_length_b	19.188930
_cell_length_c	10.065918
_cell_angle_alpha	99.900945
_cell_angle_beta	99.848379
_cell_angle_gamma	83.144779
loop_
_atom_site_label
_atom_site_type_symbol
_atom_site_fract_x
_atom_site_fract_y
_atom_site_fract_z
O1	O	0.096287	0.935316	0.113955
O2	O	0.429621	1.268649	0.447288
O3	O	0.762954	1.601983	0.780621
O4	O	0.108014	0.731997	0.113863
O5	O	0.441348	1.065331	0.447197
O6	O	0.774681	1.398664	0.780530
O7	O	0.000493	0.839522	0.113885
O8	O	0.333827	1.172855	0.447218
O9	O	0.667160	1.506189	0.780552
O10	O	0.203808	0.827792	0.113933
O11	O	0.537142	1.161125	0.447266
O12	O	0.870475	1.494458	0.780600
O13	O	-0.017677	0.821243	-0.113117
O14	O	0.315657	1.154577	0.220217
O15	O	0.648990	1.487910	0.553550
O16	O	0.089844	0.713719	-0.113138
O17	O	0.423178	1.047052	0.220195
O18	O	0.756511	1.380385	0.553528
O19	O	0.078117	0.917037	-0.113047
O20	O	0.411451	1.250371	0.220286
O21	O	0.744784	1.583704	0.553620
Zn22	Zn	0.081096	0.812476	-0.149134
Zn23	Zn	0.414429	1.145809	0.184199
Zn24	Zn	0.747763	1.479143	0.517533
Zn25	Zn	0.105036	0.836559	0.149950
Zn26	Zn	0.438369	1.169892	0.483284
Zn27	Zn	0.771702	1.503225	0.816617
O28	O	0.185638	0.809513	-0.113069
O29	O	0.518972	1.142846	0.220265
O30	O	0.852305	1.476180	0.553598
C31	C	-0.034603	0.830002	0.000380
C32	C	0.298730	1.163336	0.333713
C33	C	0.632064	1.496669	0.667047
C34	C	-0.112109	0.828861	0.000368
C35	C	0.221225	1.162194	0.333701
C36	C	0.554558	1.495527	0.667034
C37	C	0.098548	0.696846	0.000350
C38	C	0.431882	1.030179	0.333684
C39	C	0.765215	1.363513	0.667017
C40	C	0.097405	0.619339	0.000314
C41	C	0.430738	0.952672	0.333648
C42	C	0.764071	1.286005	0.666981
C43	C	0.160498	0.574418	0.000351
C44	C	0.493832	0.907751	0.333684
C45	C	0.827165	1.241084	0.667017
C46	C	0.159428	0.501595	0.000365
C47	C	0.492761	0.834928	0.333699
C48	C	0.826095	1.168262	0.667032
C49	C	0.095262	0.473699	0.000371
C50	C	0.428596	0.807032	0.333704
C51	C	0.761929	1.140366	0.667038
C52	C	0.032160	0.518629	0.000327
C53	C	0.365493	0.851963	0.333660
C54	C	0.698826	1.185296	0.666994
C55	C	0.033231	0.591449	0.000299
C56	C	0.366564	0.924782	0.333632
C57	C	0.699898	1.258116	0.666965
N58	N	0.052403	0.371943	0.077673
N59	N	0.385736	0.705277	0.411006
N60	N	0.719070	1.038610	0.744340
N61	N	0.051390	0.302767	0.077703
N62	N	0.384723	0.636100	0.411036
N63	N	0.718056	0.969434	0.744370
C64	C	0.092031	0.254297	0.000454
C65	C	0.425364	0.587630	0.333787
C66	C	0.758697	0.920964	0.667120
N67	N	0.133735	0.277616	-0.076809
N68	N	0.467068	0.610950	0.256524
N69	N	0.800402	0.944283	0.589857
N70	N	0.134751	0.346799	-0.076833
N71	N	0.468084	0.680132	0.256500
N72	N	0.801417	1.013466	0.589834
C73	C	0.094094	0.394739	0.000401
C74	C	0.427427	0.728072	0.333734
C75	C	0.760760	1.061405	0.667068
C76	C	0.153968	0.130413	0.000504
C77	C	0.487301	0.463746	0.333838
C78	C	0.820635	0.797079	0.667171
C79	C	0.152894	0.057588	0.000511
C80	C	0.486228	0.390922	0.333844
C81	C	0.819561	0.724255	0.667177
C82	C	0.025625	0.074625	0.000486
C83	C	0.358959	0.407959	0.333819
C84	C	0.692292	0.741292	0.667153
C85	C	0.026700	0.147447	0.000466
C86	C	0.360033	0.480780	0.333799
C87	C	0.693366	0.814113	0.667133
C88	C	0.090874	0.175336	0.000482
C89	C	0.424207	0.508670	0.333815
C90	C	0.757540	0.842003	0.667148
C91	C	-0.157031	0.891953	0.000390
C92	C	0.176303	1.225287	0.333723
C93	C	0.509636	1.558620	0.667056
C94	C	-0.229853	0.890883	0.000411
C95	C	0.103480	1.224217	0.333744
C96	C	0.436814	1.557550	0.667078
C97	C	-0.257752	0.826715	0.000383
C98	C	0.075582	1.160048	0.333716
C99	C	0.408915	1.493382	0.667050
C100	C	-0.212819	0.763615	0.000369
C101	C	0.120514	1.096948	0.333702
C102	C	0.453848	1.430281	0.667036
C103	C	-0.139998	0.764687	0.000361
C104	C	0.193336	1.098021	0.333695
C105	C	0.526669	1.431354	0.667028
N106	N	-0.371942	0.771445	-0.076892
N107	N	-0.038609	1.104779	0.256441
N108	N	0.294725	1.438112	0.589775
N109	N	-0.441120	0.770430	-0.076888
N110	N	-0.107787	1.103764	0.256446
N111	N	0.225546	1.437097	0.589779
C112	C	-0.477158	0.823479	0.000409
C113	C	-0.143825	1.156812	0.333743
C114	C	0.189508	1.490146	0.667076
N115	N	-0.441407	0.877590	0.077684
N116	N	-0.108074	1.210924	0.411018
N117	N	0.225259	1.544257	0.744351
N118	N	-0.372224	0.878607	0.077674
N119	N	-0.038890	1.211940	0.411007
N120	N	0.294443	1.545274	0.744341
C121	C	-0.336714	0.825545	0.000392
C122	C	-0.003380	1.158878	0.333726
C123	C	0.329953	1.492211	0.667059
C124	C	-0.601043	0.885416	0.000456
C125	C	-0.267710	1.218749	0.333790
C126	C	0.065624	1.552083	0.667123
C127	C	-0.673865	0.884344	0.000486
C128	C	-0.340532	1.217677	0.333819
C129	C	-0.007199	1.551011	0.667153
C130	C	-0.656831	0.757072	0.000430
C131	C	-0.323498	1.090406	0.333764
C132	C	0.009836	1.423739	0.667097
C133	C	-0.584009	0.758147	0.000414
C134	C	-0.250676	1.091481	0.333748
C135	C	0.082658	1.424814	0.667081
C136	C	-0.556120	0.822320	0.000421
C137	C	-0.222787	1.155654	0.333754
C138	C	0.110546	1.488987	0.667087
C139	C	0.220735	0.819033	0.000439
C140	C	0.554068	1.152366	0.333773
C141	C	0.887402	1.485699	0.667106
C142	C	0.298241	0.820175	0.000460
C143	C	0.631574	1.153509	0.333794
C144	C	0.964908	1.486842	0.667127
C145	C	0.087584	0.952189	0.000469
C146	C	0.420917	1.285522	0.333802
C147	C	0.754250	1.618856	0.667136
C148	C	0.088728	1.029697	0.000514
C149	C	0.422061	1.363030	0.333847
C150	C	0.755394	1.696364	0.667181
N151	N	0.064757	0.796045	-0.353251
N152	N	0.398091	1.129379	-0.019918
N153	N	0.731424	1.462712	0.313415
C154	C	0.099351	0.830837	-0.421006
C155	C	0.432684	1.164171	-0.087672
C156	C	0.766018	1.497504	0.245661
C157	C	0.086770	0.818198	-0.578182
C158	C	0.420103	1.151531	-0.244848
C159	C	0.753436	1.484865	0.088485
N160	N	0.121369	0.852995	0.354068
N161	N	0.454702	1.186328	0.687401
N162	N	0.788035	1.519662	1.020734
H163	H	0.212754	0.597120	0.000366
H164	H	0.546087	0.930454	0.333699
H165	H	0.879421	1.263787	0.667032
H166	H	0.138280	0.869985	-0.362650
H167	H	0.471613	1.203318	-0.029317
H168	H	0.804946	1.536651	0.304016
H169	H	0.047834	0.779053	-0.636532
H170	H	0.381167	1.112386	-0.303198
H171	H	0.714501	1.445720	0.030135
H172	H	-0.134328	0.944208	0.000400
H173	H	0.199005	1.277542	0.333733
H174	H	0.532338	1.610875	0.667066
H175	H	-0.103421	0.713308	0.000343
H176	H	0.229912	1.046641	0.333676
H177	H	0.563246	1.379975	0.667010
H178	H	0.210808	0.465013	0.000391
H179	H	0.544141	0.798346	0.333724
H180	H	0.877474	1.131680	0.667058
H181	H	-0.020083	0.495913	0.000351
H182	H	0.313250	0.829246	0.333684
H183	H	0.646584	1.162580	0.667017
H184	H	-0.266435	0.942263	0.000434
H185	H	0.066898	1.275596	0.333768
H186	H	0.400232	1.608930	0.667101
H187	H	0.204274	0.021013	0.000532
H188	H	0.537608	0.354346	0.333866
H189	H	0.870941	0.687680	0.667199
H190	H	0.160301	0.892144	-0.587584
H191	H	0.493635	1.225477	-0.254251
H192	H	0.826968	1.558810	0.079082
H193	H	-0.024678	0.184023	0.000444
H194	H	0.308656	0.517357	0.333777
H195	H	0.641989	0.850690	0.667111
H196	H	-0.235539	0.711368	0.000349
H197	H	0.097795	1.044702	0.333683
H198	H	0.431128	1.378035	0.667016
H199	H	0.025824	0.756903	-0.411606
H200	H	0.359157	1.090236	-0.078273
H201	H	0.692491	1.423570	0.255060
H202	H	-0.018149	0.628025	0.000270
H203	H	0.315184	0.961358	0.333603
H204	H	0.648517	1.294691	0.666937
H205	H	-0.026613	0.051920	0.000575
H206	H	0.306720	0.385253	0.333909
H207	H	0.640054	0.718587	0.667242
H208	H	0.206221	0.153120	0.000497
H209	H	0.539554	0.486453	0.333830
H210	H	0.872887	0.819786	0.667164
H211	H	-0.578334	0.937670	0.000468
H212	H	-0.245001	1.271003	0.333801
H213	H	0.088332	1.604337	0.667135
H214	H	-0.710440	0.935724	0.000511
H215	H	-0.377107	1.269058	0.333845
H216	H	-0.043774	1.602391	0.667178
H217	H	-0.679545	0.704826	0.000414
H218	H	-0.346211	1.038159	0.333748
H219	H	-0.012878	1.371492	0.667081
H220	H	-0.547433	0.706770	0.000389
H221	H	-0.214099	1.040103	0.333722
H222	H	0.119234	1.373436	0.667055
