data_functionalizedCrystal
_audit_creation_method	'MofGen! by Chris Wilmer'
_symmetry_space_group_name_H-M	'P1'
_symmetry_Int_Tables_number	1
_symmetry_cell_setting	triclinic
loop_
_symmetry_equiv_pos_as_xyz
  x,y,z
_cell_length_a	13.339070
_cell_length_b	16.992694
_cell_length_c	16.053802
_cell_angle_alpha	92.750953
_cell_angle_beta	93.267614
_cell_angle_gamma	76.851241
loop_
_atom_site_label
_atom_site_type_symbol
_atom_site_fract_x
_atom_site_fract_y
_atom_site_fract_z
O1	O	0.214289	-1.090314	-0.069315
O2	O	0.714289	-0.590314	0.430685
O3	O	0.211892	-0.861508	-0.069340
O4	O	0.711892	-0.361508	0.430660
O5	O	0.063704	-0.949651	-0.069328
O6	O	0.563704	-0.449651	0.430672
O7	O	0.362477	-1.002170	-0.069327
O8	O	0.862477	-0.502170	0.430673
O9	O	0.071825	-0.944792	0.069530
O10	O	0.571825	-0.444792	0.569530
O11	O	0.220013	-0.856649	0.069518
O12	O	0.720013	-0.356649	0.569518
O13	O	0.222410	-1.085454	0.069543
O14	O	0.722410	-0.585454	0.569543
Zn15	Zn	0.222501	-0.970280	0.091577
Zn16	Zn	0.722501	-0.470280	0.591577
Zn17	Zn	0.211801	-0.976682	-0.091374
Zn18	Zn	0.711801	-0.476682	0.408626
O19	O	0.370598	-0.997311	0.069531
O20	O	0.870598	-0.497311	0.569531
C21	C	0.029358	-0.938350	0.000099
C22	C	0.529358	-0.438350	0.500099
C23	C	-0.085082	-0.911906	0.000093
C24	C	0.414918	-0.411906	0.500093
C25	C	0.212871	-0.829196	0.000086
C26	C	0.712871	-0.329196	0.500086
C27	C	0.203676	-0.740151	0.000076
C28	C	0.703676	-0.240151	0.500076
N29	N	0.229803	-0.965916	0.216437
N30	N	0.729803	-0.465916	0.716437
C31	C	-0.433251	-1.117519	0.000116
C32	C	0.066749	-0.617519	0.500116
C33	C	-0.325729	-1.142367	0.000126
C34	C	0.174271	-0.642367	0.500126
C35	C	-0.265562	-1.084754	0.000118
C36	C	0.234438	-0.584754	0.500118
C37	C	-0.312928	-1.002289	0.000099
C38	C	0.187072	-0.502289	0.500099
C39	C	-0.420460	-0.977439	0.000095
C40	C	0.079540	-0.477439	0.500095
C41	C	-0.252771	-0.944673	0.000097
C42	C	0.247229	-0.444673	0.500097
C43	C	-0.300136	-0.862209	0.000078
C44	C	0.199864	-0.362209	0.500078
C45	C	-0.407658	-0.837363	0.000074
C46	C	0.092342	-0.337363	0.500074
C47	C	-0.467825	-0.894976	0.000082
C48	C	0.032175	-0.394976	0.500082
C49	C	-0.145239	-0.969524	0.000101
C50	C	0.354761	-0.469524	0.500101
C51	C	-0.132447	-0.829443	0.000080
C52	C	0.367553	-0.329443	0.500080
C53	C	-0.239970	-0.804596	0.000070
C54	C	0.260030	-0.304596	0.500070
C55	C	0.404944	-1.008612	0.000102
C56	C	0.904944	-0.508612	0.500102
C57	C	0.519384	-1.035056	0.000103
C58	C	1.019384	-0.535056	0.500103
C59	C	0.221431	-1.117767	0.000115
C60	C	0.721431	-0.617767	0.500115
C61	C	0.230626	-1.206811	0.000120
C62	C	0.730626	-0.706811	0.500120
C63	C	0.292389	-0.709211	0.000077
C64	C	0.792389	-0.209211	0.500077
C65	C	0.283745	-0.625543	0.000089
C66	C	0.783745	-0.125543	0.500089
C67	C	0.186385	-0.572817	0.000093
C68	C	0.686385	-0.072817	0.500093
C69	C	0.097665	-0.603763	0.000095
C70	C	0.597665	-0.103763	0.500095
C71	C	0.106311	-0.687429	0.000090
C72	C	0.606311	-0.187429	0.500090
C73	C	0.150552	-0.321423	0.000116
C74	C	0.650552	0.178577	0.500116
C75	C	0.141912	-0.237752	0.000119
C76	C	0.641912	0.262248	0.500119
C77	C	0.327993	-0.259538	0.000114
C78	C	0.827993	0.240462	0.500114
C79	C	0.336630	-0.343205	0.000103
C80	C	0.836630	0.156795	0.500103
C81	C	0.247910	-0.374143	0.000109
C82	C	0.747910	0.125857	0.500109
N83	N	0.177547	-0.487295	0.000103
N84	N	0.677547	0.012705	0.500103
N85	N	0.256750	-0.459663	0.000106
N86	N	0.756750	0.040337	0.500106
N87	N	0.204492	-0.981051	-0.216234
N88	N	0.704492	-0.481051	0.283766
C89	C	0.166774	-1.003445	0.260136
C90	C	0.666774	-0.503445	0.760136
C91	C	0.171892	-1.000402	0.347543
C92	C	0.671892	-0.500402	0.847543
C93	C	0.240045	-0.959834	0.391248
C94	C	0.740045	-0.459834	0.891248
C95	C	0.303076	-0.922300	0.347543
C96	C	0.803076	-0.422300	0.847543
C97	C	0.297952	-0.925339	0.260138
C98	C	0.797952	-0.425339	0.760138
C99	C	0.262399	-0.946555	0.652656
C100	C	0.762399	-0.446555	1.152656
C101	C	0.267520	-0.943522	0.740067
C102	C	0.767520	-0.443522	1.240067
C103	C	0.136334	-1.021623	0.740060
C104	C	0.636334	-0.521623	1.240060
C105	C	0.131221	-1.024662	0.652654
C106	C	0.631221	-0.524662	1.152654
C107	C	0.194248	-0.987124	0.608956
C108	C	0.694248	-0.487124	1.108956
N109	N	0.245281	-0.956725	0.480592
N110	N	0.745281	-0.456725	0.980592
N111	N	0.189006	-0.990229	0.519615
N112	N	0.689006	-0.490229	1.019615
H113	H	-0.106684	-1.036667	0.000116
H114	H	0.393316	-0.536667	0.500116
H115	H	0.062627	-0.194823	0.000122
H116	H	0.562627	0.305177	0.500122
H117	H	-0.278550	-0.737452	0.000055
H118	H	0.221450	-0.237452	0.500055
H119	H	0.415909	-0.386130	0.000090
H120	H	0.915909	0.113870	0.500090
H121	H	0.371670	-0.752136	0.000073
H122	H	0.871670	-0.252136	0.500073
H123	H	0.018394	-0.560826	0.000111
H124	H	0.518394	-0.060826	0.500111
H125	H	0.075725	-1.057695	0.617071
H126	H	0.575725	-0.557695	1.117071
H127	H	0.313720	-0.915992	0.617084
H128	H	0.813720	-0.415992	1.117084
H129	H	0.085019	-1.052183	0.775647
H130	H	0.585019	-0.552183	1.275647
H131	H	-0.083459	-0.782530	0.000077
H132	H	0.416541	-0.282530	0.500077
H133	H	0.358564	-0.889264	0.383133
H134	H	0.858564	-0.389264	0.883133
H135	H	0.349276	-0.894777	0.224559
H136	H	0.849276	-0.394777	0.724559
H137	H	-0.178013	-1.104990	0.000126
H138	H	0.321987	-0.604990	0.500126
H139	H	0.355985	-0.600356	0.000088
H140	H	0.855985	-0.100356	0.500088
H141	H	0.323023	-0.910485	0.775648
H142	H	0.823023	-0.410485	1.275648
H143	H	-0.287171	-1.209509	0.000142
H144	H	0.212829	-0.709509	0.500142
H145	H	-0.482247	-1.164418	0.000129
H146	H	0.017753	-0.664418	0.500129
H147	H	-0.555379	-0.874749	0.000071
H148	H	-0.055379	-0.374749	0.500071
H149	H	-0.446220	-0.770215	0.000065
H150	H	0.053780	-0.270215	0.500065
H151	H	0.400223	-0.234339	0.000111
H152	H	0.900223	0.265661	0.500111
H153	H	0.078309	-0.346602	0.000121
H154	H	0.578309	0.153398	0.500121
H155	H	0.034071	-0.712618	0.000088
H156	H	0.534071	-0.212618	0.500088
H157	H	0.111281	-1.036484	0.224557
H158	H	0.611281	-0.536484	0.724557
H159	H	0.120569	-1.030961	0.383122
H160	H	0.620569	-0.530961	0.883122
