data_functionalizedCrystal
_audit_creation_method	'MofGen! by Chris Wilmer'
_symmetry_space_group_name_H-M	'P1'
_symmetry_Int_Tables_number	1
_symmetry_cell_setting	triclinic
loop_
_symmetry_equiv_pos_as_xyz
  x,y,z
_cell_length_a	17.699083
_cell_length_b	14.853567
_cell_length_c	16.176319
_cell_angle_alpha	89.996997
_cell_angle_beta	89.998611
_cell_angle_gamma	83.458972
loop_
_atom_site_label
_atom_site_type_symbol
_atom_site_fract_x
_atom_site_fract_y
_atom_site_fract_z
O1	O	1.004375	0.114008	-0.068624
O2	O	1.504375	0.614008	0.431376
O3	O	0.784035	0.128841	-0.068650
O4	O	1.284035	0.628841	0.431350
O5	O	0.900090	-0.009827	-0.068639
O6	O	1.400090	0.490173	0.431361
O7	O	0.888319	0.252676	-0.068635
O8	O	1.388319	0.752676	0.431365
O9	O	0.900074	-0.009836	0.068855
O10	O	1.400074	0.490164	0.568855
O11	O	0.784019	0.128832	0.068843
O12	O	1.284019	0.628832	0.568843
O13	O	1.004359	0.113999	0.068869
O14	O	1.504359	0.613999	0.568869
Cu15	Cu	0.894187	0.121415	0.081411
Cu16	Cu	1.394187	0.621415	0.581411
Cu17	Cu	0.894206	0.121425	-0.081191
Cu18	Cu	1.394206	0.621425	0.418809
O19	O	0.888303	0.252667	0.068858
O20	O	1.388303	0.752667	0.568858
C21	C	0.755828	0.128305	0.000093
C22	C	1.255828	0.628305	0.500093
C23	C	0.671806	0.126711	0.000083
C24	C	1.171806	0.626711	0.500083
C25	C	0.623396	0.208106	0.000084
C26	C	1.123396	0.708106	0.500084
C27	C	0.544449	0.206602	0.000095
C28	C	1.044449	0.706602	0.500095
C29	C	0.513913	0.123703	0.000098
C30	C	1.013913	0.623703	0.500098
C31	C	0.562329	0.042301	0.000099
C32	C	1.062329	0.542301	0.500099
C33	C	0.641275	0.043806	0.000095
C34	C	1.141275	0.543806	0.500095
C35	C	0.243950	0.036232	0.000120
C36	C	0.743950	0.536232	0.500120
C37	C	0.164999	0.034734	0.000122
C38	C	0.664999	0.534734	0.500122
C39	C	0.147125	0.199028	0.000120
C40	C	0.647125	0.699028	0.500120
C41	C	0.226070	0.200533	0.000115
C42	C	0.726070	0.700533	0.500115
C43	C	0.274479	0.119132	0.000121
C44	C	0.774479	0.619132	0.500121
C45	C	0.360083	0.120763	0.000111
C46	C	0.860083	0.620763	0.500111
C47	C	0.428311	0.122070	0.000102
C48	C	0.928311	0.622070	0.500102
C49	C	0.899549	-0.043418	0.000106
C50	C	1.399549	0.456582	0.500106
C51	C	0.897951	-0.143496	0.000098
C52	C	1.397951	0.356504	0.500098
C53	C	0.822255	-0.555751	0.000105
C54	C	1.322255	-0.055751	0.500105
C55	C	0.960131	-0.577539	0.000121
C56	C	1.460131	-0.077539	0.500121
C57	C	0.961634	-0.483511	0.000117
C58	C	1.461634	0.016489	0.500117
C59	C	0.893446	-0.425598	0.000107
C60	C	1.393446	0.074402	0.500107
C61	C	0.823756	-0.461714	0.000103
C62	C	1.323756	0.038286	0.500103
C63	C	1.031324	-0.447389	0.000129
C64	C	1.531324	0.052611	0.500129
C65	C	1.032829	-0.353355	0.000126
C66	C	1.532829	0.146645	0.500126
C67	C	0.964641	-0.295441	0.000111
C68	C	1.464641	0.204559	0.500111
C69	C	0.894947	-0.331561	0.000105
C70	C	1.394947	0.168439	0.500105
C71	C	0.826759	-0.273648	0.000096
C72	C	1.326759	0.226352	0.500096
C73	C	0.757065	-0.309767	0.000084
C74	C	1.257065	0.190233	0.500084
C75	C	0.755567	-0.403799	0.000088
C76	C	1.255567	0.096201	0.500088
C77	C	0.966139	-0.201409	0.000107
C78	C	1.466139	0.298591	0.500107
C79	C	0.828260	-0.179611	0.000094
C80	C	1.328260	0.320389	0.500094
C81	C	1.032565	0.114535	0.000125
C82	C	1.532565	0.614535	0.500125
C83	C	1.116587	0.116130	0.000129
C84	C	1.616587	0.616130	0.500129
C85	C	0.888844	0.286258	0.000112
C86	C	1.388844	0.786258	0.500112
C87	C	0.890443	0.386336	0.000114
C88	C	1.390443	0.886336	0.500114
N89	N	0.894179	0.121407	0.195776
N90	N	1.394179	0.621407	0.695776
N91	N	0.894220	0.121426	-0.195556
N92	N	1.394220	0.621426	0.304444
C93	C	0.945584	0.060030	0.239045
C94	C	1.445584	0.560030	0.739045
C95	C	0.945588	0.060029	0.325592
C96	C	1.445588	0.560029	0.825592
C97	C	0.894190	0.121410	0.368868
C98	C	1.394190	0.621410	0.868868
C99	C	0.842780	0.182790	0.325593
C100	C	1.342780	0.682790	0.825593
C101	C	0.842773	0.182786	0.239048
C102	C	1.342773	0.682786	0.739048
C103	C	0.842806	0.182807	0.674621
C104	C	1.342806	0.682807	1.174621
C105	C	0.842818	0.182808	0.761173
C106	C	1.342818	0.682808	1.261173
C107	C	0.945621	0.060050	0.761166
C108	C	1.445621	0.560050	1.261166
C109	C	0.945614	0.060046	0.674620
C110	C	1.445614	0.560046	1.174620
C111	C	0.894201	0.121422	0.631353
C112	C	1.394201	0.621422	1.131353
C113	C	0.894197	0.121422	0.537508
C114	C	1.394197	0.621422	1.037508
C115	C	0.894198	0.121416	0.462711
C116	C	1.394198	0.621416	0.962711
H117	H	0.107700	0.265309	0.000120
H118	H	0.607700	0.765309	0.500120
H119	H	0.765511	-0.585163	0.000092
H120	H	1.265511	-0.085163	0.500092
H121	H	0.283356	-0.030050	0.000125
H122	H	0.783356	0.469950	0.500125
N123	N	1.001075	-0.006153	0.807833
N124	N	1.501075	0.493847	1.307833
H125	H	0.993281	0.003158	0.869226
H126	H	1.493281	0.503158	1.369226
H127	H	0.992271	-0.070098	0.792709
H128	H	1.492271	0.429902	1.292709
H129	H	0.505037	0.272882	0.000095
H130	H	1.005037	0.772882	0.500095
H131	H	0.800945	0.232783	0.639400
H132	H	1.300945	0.732783	1.139400
H133	H	1.015647	-0.624697	0.000135
H134	H	1.515647	-0.124697	0.500135
H135	H	0.772732	-0.132463	0.000082
H136	H	1.272732	0.367537	0.500082
N137	N	0.693487	-0.043988	0.000098
N138	N	1.193487	0.456012	0.500098
H139	H	0.683658	-0.080164	-0.050869
H140	H	1.183658	0.419836	0.449131
H141	H	0.748111	-0.030384	0.000129
H142	H	1.248111	0.469616	0.500129
H143	H	0.537461	-0.025197	0.000114
H144	H	1.037461	0.474803	0.500114
N145	N	0.787370	0.249009	0.807847
N146	N	1.287370	0.749009	1.307847
H147	H	0.753838	0.214599	0.843764
H148	H	1.253838	0.714599	1.343764
H149	H	0.816384	0.288874	0.843699
H150	H	1.316384	0.788874	1.343699
N151	N	0.258996	0.289951	0.000114
N152	N	0.758996	0.789951	0.500114
H153	H	0.291354	0.294234	0.051081
H154	H	0.791354	0.794234	0.551081
H155	H	0.291312	0.294191	-0.050890
H156	H	0.791312	0.794191	0.449110
H157	H	0.648252	0.275612	0.000081
H158	H	1.148252	0.775612	0.500081
H159	H	0.701546	-0.262602	0.000083
H160	H	1.201546	0.237398	0.500083
N161	N	0.787337	0.248989	0.372265
N162	N	1.287337	0.748989	0.872265
H163	H	0.795141	0.239681	0.433657
H164	H	1.295141	0.739681	0.933657
H165	H	0.796140	0.312933	0.357129
H166	H	1.296140	0.812933	0.857129
N167	N	0.132061	-0.054683	0.000127
N168	N	0.632061	0.445317	0.500127
H169	H	0.174706	-0.106023	0.000132
H170	H	0.674706	0.393977	0.500132
H171	H	0.099694	-0.058880	0.051098
H172	H	0.599694	0.441120	0.551098
H173	H	1.086839	-0.494548	0.000145
H174	H	1.586839	0.005452	0.500145
N175	N	0.680402	-0.442754	0.000079
N176	N	1.180402	0.057246	0.500079
H177	H	0.689800	-0.511111	0.000087
H178	H	1.189800	-0.011111	0.500087
H179	H	0.650556	-0.421558	0.051046
H180	H	1.150556	0.078442	0.551046
H181	H	1.089579	-0.323956	0.000134
H182	H	1.589579	0.176044	0.500134
N183	N	1.041298	-0.162449	0.000128
N184	N	1.541298	0.337551	0.500128
H185	H	1.084267	-0.213405	0.000140
H186	H	1.584267	0.286595	0.500140
H187	H	1.044935	-0.123911	-0.050843
H188	H	1.544935	0.376089	0.449157
N189	N	1.001026	-0.006169	0.192371
N190	N	1.501026	0.493831	0.692371
H191	H	1.033590	-0.045052	0.232918
H192	H	1.533590	0.454948	0.732918
H193	H	0.972010	-0.045985	0.156470
H194	H	1.472010	0.454015	0.656470
H195	H	0.987445	0.010051	0.360821
H196	H	1.487445	0.510051	0.860821
N197	N	0.787334	0.248988	0.192371
N198	N	1.287334	0.748988	0.692371
H199	H	0.753788	0.214581	0.156474
H200	H	1.253788	0.714581	0.656474
H201	H	0.754826	0.287860	0.232968
H202	H	1.254826	0.787860	0.732968
N203	N	1.001049	-0.006166	0.627953
N204	N	1.501049	0.493834	1.127953
H205	H	0.972082	-0.046040	0.592054
H206	H	1.472082	0.453960	1.092054
H207	H	1.034581	0.028292	0.592083
H208	H	1.534581	0.528292	1.092083
