data_functionalizedCrystal
_audit_creation_method	'MofGen! by Chris Wilmer'
_symmetry_space_group_name_H-M	'P1'
_symmetry_Int_Tables_number	1
_symmetry_cell_setting	triclinic
loop_
_symmetry_equiv_pos_as_xyz
  x,y,z
_cell_length_a	18.101398
_cell_length_b	18.101397
_cell_length_c	16.625539
_cell_angle_alpha	89.968146
_cell_angle_beta	89.973613
_cell_angle_gamma	90.018196
loop_
_atom_site_label
_atom_site_type_symbol
_atom_site_fract_x
_atom_site_fract_y
_atom_site_fract_z
Zn1	Zn	1.132187	-0.294873	-0.456015
Zn2	Zn	1.632187	0.205127	0.043985
Zn3	Zn	1.132103	-0.418722	-0.321173
Zn4	Zn	1.632103	0.081278	0.178827
Zn5	Zn	1.008343	-0.294894	-0.321181
Zn6	Zn	1.508343	0.205106	0.178819
Zn7	Zn	1.008320	-0.418672	-0.455950
Zn8	Zn	1.508320	0.081328	0.044050
O9	O	1.070238	-0.356790	-0.388580
O10	O	1.570238	0.143210	0.111420
O11	O	1.235809	-0.311314	-0.438151
O12	O	1.735809	0.188686	0.061849
O13	O	1.115660	-0.402326	-0.208342
O14	O	1.615660	0.097674	0.291658
O15	O	1.024816	-0.191258	-0.339098
O16	O	1.524816	0.308742	0.160902
O17	O	1.235747	-0.402305	-0.339084
O18	O	1.735747	0.097695	0.160916
O19	O	1.115804	-0.191243	-0.438159
O20	O	1.615804	0.308757	0.061841
O21	O	1.024734	-0.311350	-0.208348
O22	O	1.524734	0.188650	0.291652
O23	O	0.904707	-0.311301	-0.339035
O24	O	1.404707	0.188699	0.160965
O25	O	1.024777	-0.402221	-0.568791
O26	O	1.524777	0.097779	-0.068791
O27	O	0.904690	-0.402241	-0.438049
O28	O	1.404690	0.097759	0.061951
O29	O	1.115782	-0.311266	-0.568838
O30	O	1.615782	0.188734	-0.068838
O31	O	1.115638	-0.522348	-0.339021
O32	O	1.615638	-0.022348	0.160979
O33	O	1.024695	-0.522312	-0.438041
O34	O	1.524695	-0.022312	0.061959
C35	C	0.877828	-0.356769	-0.388536
C36	C	1.377828	0.143231	0.111464
C37	C	0.795514	-0.356777	-0.388536
C38	C	1.295514	0.143223	0.111464
C39	C	0.644805	-0.356792	-0.388573
C40	C	1.144805	0.143208	0.111427
C41	C	0.613437	-0.299494	-0.326380
C42	C	1.113437	0.200506	0.173620
C43	C	0.527819	-0.299278	-0.326584
C44	C	1.027819	0.200722	0.173416
C45	C	0.496423	-0.356807	-0.388607
C46	C	0.996423	0.143193	0.111393
C47	C	0.527561	-0.335973	-0.473679
C48	C	1.027561	0.164027	0.026321
C49	C	0.613206	-0.335549	-0.473300
C50	C	1.113206	0.164451	0.026700
C51	C	0.613215	-0.435073	-0.366443
C52	C	1.113215	0.064927	0.133557
C53	C	0.527564	-0.434661	-0.364590
C54	C	1.027564	0.065339	0.135410
C55	C	0.412563	-0.356817	-0.388632
C56	C	0.912563	0.143183	0.111368
C57	C	0.728665	-0.356781	-0.388554
C58	C	1.228665	0.143219	0.111446
C59	C	1.070175	-0.549201	-0.388541
C60	C	1.570175	-0.049201	0.111459
C61	C	1.070216	-0.631515	-0.388551
C62	C	1.570216	-0.131515	0.111449
C63	C	1.070310	-0.930606	-0.388625
C64	C	1.570310	-0.430606	0.111375
C65	C	1.127369	-0.899273	-0.326157
C66	C	1.627369	-0.399273	0.173843
C67	C	1.127567	-0.813654	-0.326319
C68	C	1.627567	-0.313654	0.173681
C69	C	1.070263	-0.782223	-0.388587
C70	C	1.570263	-0.282223	0.111413
C71	C	1.091421	-0.813230	-0.473580
C72	C	1.591421	-0.313230	0.026420
C73	C	1.091863	-0.898875	-0.473240
C74	C	1.591863	-0.398875	0.026760
C75	C	0.991941	-0.899112	-0.366835
C76	C	1.491941	-0.399112	0.133165
C77	C	0.992328	-0.813463	-0.364938
C78	C	1.492328	-0.313463	0.135062
C79	C	1.070235	-0.698364	-0.388572
C80	C	1.570235	-0.198364	0.111428
C81	C	1.070340	-1.014465	-0.388646
C82	C	1.570340	-0.514465	0.111354
C83	C	1.263400	-0.356813	-0.388624
C84	C	1.763400	0.143187	0.111376
C85	C	1.345714	-0.356822	-0.388643
C86	C	1.845714	0.143178	0.111357
C87	C	1.070286	-0.356735	-0.598889
C88	C	1.570286	0.143265	-0.098889
C89	C	1.070307	-0.356712	-0.688510
C90	C	1.570307	0.143288	-0.188510
C91	C	1.070322	-0.163628	-0.388637
C92	C	1.570322	0.336372	0.111363
C93	C	1.070358	-0.081314	-0.388661
C94	C	1.570358	0.418686	0.111339
C95	C	1.070341	-0.356629	-1.016686
C96	C	1.570341	0.143371	-0.516686
C97	C	1.070330	-0.356654	-0.925377
C98	C	1.570330	0.143346	-0.425377
C99	C	1.070324	-0.356671	-0.852601
C100	C	1.570324	0.143329	-0.352601
C101	C	1.070312	-0.356695	-0.761286
C102	C	1.570312	0.143305	-0.261286
C103	C	1.070233	-0.356792	-0.179089
C104	C	1.570233	0.143208	0.320911
C105	C	1.070356	-0.356607	-0.089468
C106	C	1.570356	0.143393	0.410532
H107	H	0.507229	-0.376436	-0.521301
H108	H	1.007229	0.123564	-0.021301
F109	F	0.971470	-0.786981	-0.283186
F110	F	1.471470	-0.286981	0.216814
H111	H	1.185104	-0.920743	-0.340409
H112	H	1.685104	-0.420743	0.159591
F113	F	0.500294	-0.316261	-0.244146
F114	F	1.000294	0.183739	0.255854
F115	F	1.039895	-0.925965	-0.536143
F116	F	1.539895	-0.425965	-0.036143
F117	F	0.639342	-0.260770	-0.497748
F118	F	1.139342	0.239230	0.002252
H119	H	1.149147	-0.918796	-0.491696
H120	H	1.649147	-0.418796	0.008304
F121	F	0.640310	-0.316270	-0.243672
F122	F	1.140310	0.183730	0.256328
H123	H	0.633499	-0.477759	-0.411742
H124	H	1.133499	0.022241	0.088258
H125	H	0.949427	-0.919375	-0.412332
H126	H	1.449427	-0.419375	0.087668
H127	H	1.114330	-0.792694	-0.263299
H128	H	1.614330	-0.292694	0.236701
F129	F	0.501056	-0.223466	-0.345789
F130	F	1.001056	0.276534	0.154211
H131	H	0.507209	-0.450376	-0.301980
H132	H	1.007209	0.049624	0.198020
H133	H	0.634778	-0.454098	-0.305444
H134	H	1.134778	0.045902	0.194556
H135	H	0.506185	-0.479615	-0.406555
H136	H	1.006185	0.020385	0.093445
H137	H	0.947527	-0.792075	-0.407103
H138	H	1.447527	-0.292075	0.092897
H139	H	0.972693	-0.920773	-0.305933
H140	H	1.472693	-0.420773	0.194067
F141	F	0.641586	-0.224105	-0.345335
F142	F	1.141586	0.275895	0.154665
F143	F	1.203444	-0.786802	-0.345168
F144	F	1.703444	-0.286802	0.154832
F145	F	0.640336	-0.387748	-0.535963
F146	F	1.140336	0.112252	-0.035963
F147	F	1.110281	-0.926259	-0.243537
F148	F	1.610281	-0.426259	0.256463
F149	F	1.038758	-0.786624	-0.536052
F150	F	1.538758	-0.286624	-0.036052
H151	H	1.148064	-0.791724	-0.492348
H152	H	1.648064	-0.291724	0.007652
H153	H	0.506131	-0.279395	-0.492713
H154	H	1.006131	0.220605	0.007287
