data_functionalizedCrystal
_audit_creation_method	'MofGen! by Chris Wilmer'
_symmetry_space_group_name_H-M	'P1'
_symmetry_Int_Tables_number	1
_symmetry_cell_setting	triclinic
loop_
_symmetry_equiv_pos_as_xyz
  x,y,z
_cell_length_a	27.732048
_cell_length_b	27.732048
_cell_length_c	12.503572
_cell_angle_alpha	93.489054
_cell_angle_beta	86.516589
_cell_angle_gamma	82.642655
loop_
_atom_site_label
_atom_site_type_symbol
_atom_site_fract_x
_atom_site_fract_y
_atom_site_fract_z
O1	O	0.643731	0.054704	-0.089192
O2	O	0.893731	0.304704	0.160808
O3	O	1.143731	0.554704	0.410808
O4	O	1.393731	0.804704	0.660808
O5	O	0.502939	0.063448	-0.089227
O6	O	0.752939	0.313448	0.160773
O7	O	1.002939	0.563448	0.410773
O8	O	1.252939	0.813448	0.660773
O9	O	0.577707	-0.011320	-0.089188
O10	O	0.827707	0.238680	0.160812
O11	O	1.077707	0.488680	0.410812
O12	O	1.327707	0.738680	0.660812
O13	O	0.568963	0.129472	-0.089231
O14	O	0.818963	0.379472	0.160769
O15	O	1.068963	0.629472	0.410769
O16	O	1.318963	0.879472	0.660769
O17	O	0.572084	-0.005688	0.089451
O18	O	0.822084	0.244312	0.339451
O19	O	1.072084	0.494312	0.589451
O20	O	1.322084	0.744312	0.839451
O21	O	0.497316	0.069080	0.089412
O22	O	0.747316	0.319080	0.339412
O23	O	0.997316	0.569080	0.589412
O24	O	1.247316	0.819080	0.839412
O25	O	0.638108	0.060336	0.089447
O26	O	0.888108	0.310336	0.339447
O27	O	1.138108	0.560336	0.589447
O28	O	1.388108	0.810336	0.839447
Cu29	Cu	0.567199	0.065222	0.105741
Cu30	Cu	0.817199	0.315222	0.355741
Cu31	Cu	1.067199	0.565222	0.605741
Cu32	Cu	1.317199	0.815222	0.855741
Cu33	Cu	0.573849	0.058562	-0.105521
Cu34	Cu	0.823849	0.308562	0.144479
Cu35	Cu	1.073849	0.558562	0.394479
Cu36	Cu	1.323849	0.808562	0.644479
O37	O	0.563340	0.135104	0.089408
O38	O	0.813340	0.385104	0.339408
O39	O	1.063340	0.635104	0.589408
O40	O	1.313340	0.885104	0.839408
C41	C	0.482121	0.066081	0.000089
C42	C	0.732121	0.316081	0.250089
C43	C	0.982121	0.566081	0.500089
C44	C	1.232121	0.816081	0.750089
C45	C	0.428466	0.065527	0.000077
C46	C	0.678466	0.315527	0.250077
C47	C	0.928466	0.565527	0.500077
C48	C	1.178466	0.815527	0.750077
C49	C	0.089650	0.106232	0.000111
C50	C	0.339650	0.356232	0.250111
C51	C	0.589650	0.606232	0.500111
C52	C	0.839650	0.856232	0.750111
C53	C	-0.112010	0.104182	0.000121
C54	C	0.137990	0.354182	0.250121
C55	C	0.387990	0.604182	0.500121
C56	C	0.637990	0.854182	0.750121
O57	O	-0.143267	0.141403	0.000156
O58	O	0.106733	0.391403	0.250156
O59	O	0.356733	0.641403	0.500156
O60	O	0.606733	0.891403	0.750156
N61	N	-0.131134	0.059847	0.000133
N62	N	0.118866	0.309847	0.250133
N63	N	0.368866	0.559847	0.500133
N64	N	0.618866	0.809847	0.750133
C65	C	-0.099840	0.016022	0.000149
C66	C	0.150160	0.266022	0.250149
C67	C	0.400160	0.516022	0.500149
C68	C	0.650160	0.766022	0.750149
O69	O	-0.120734	-0.021735	0.000170
O70	O	0.129266	0.228265	0.250170
O71	O	0.379266	0.478265	0.500170
O72	O	0.629266	0.728265	0.750170
C73	C	0.101819	0.018073	0.000146
C74	C	0.351819	0.268073	0.250146
C75	C	0.601819	0.518073	0.500146
C76	C	0.851819	0.768073	0.750146
C77	C	0.120940	0.062410	0.000124
C78	C	0.370940	0.312410	0.250124
C79	C	0.620940	0.562410	0.500124
C80	C	0.870940	0.812410	0.750124
C81	C	0.108772	0.150566	0.000089
C82	C	0.358772	0.400566	0.250089
C83	C	0.608772	0.650566	0.500089
C84	C	0.858772	0.900566	0.750089
C85	C	0.159184	0.151078	0.000081
C86	C	0.409184	0.401078	0.250081
C87	C	0.659184	0.651078	0.500081
C88	C	0.909184	0.901078	0.750081
C89	C	0.190475	0.107256	0.000094
C90	C	0.440475	0.357256	0.250094
C91	C	0.690475	0.607256	0.500094
C92	C	0.940475	0.857256	0.750094
C93	C	0.171353	0.062922	0.000115
C94	C	0.421353	0.312922	0.250115
C95	C	0.671353	0.562922	0.500115
C96	C	0.921353	0.812922	0.750115
C97	C	0.133112	-0.025751	0.000170
C98	C	0.383112	0.224249	0.250170
C99	C	0.633112	0.474249	0.500170
C100	C	0.883112	0.724249	0.750170
C101	C	0.183529	-0.025234	0.000172
C102	C	0.433529	0.224766	0.250172
C103	C	0.683529	0.474766	0.500172
C104	C	0.933529	0.724766	0.750172
C105	C	0.202651	0.019103	0.000150
C106	C	0.452651	0.269103	0.250150
C107	C	0.702651	0.519103	0.500150
C108	C	0.952651	0.769103	0.750150
C109	C	0.253055	0.019613	0.000120
C110	C	0.503055	0.269613	0.250120
C111	C	0.753055	0.519613	0.500120
C112	C	1.003055	0.769613	0.750120
N113	N	0.272179	0.063948	0.000108
N114	N	0.522179	0.313948	0.250108
N115	N	0.772179	0.563948	0.500108
N116	N	1.022179	0.813948	0.750108
C117	C	0.240889	0.107769	0.000095
C118	C	0.490889	0.357769	0.250095
C119	C	0.740889	0.607769	0.500095
C120	C	0.990889	0.857769	0.750095
C121	C	-0.205714	0.014948	0.000148
C122	C	0.044286	0.264948	0.250148
C123	C	0.294286	0.514948	0.500148
C124	C	0.544286	0.764948	0.750148
C125	C	-0.256128	0.014435	0.000147
C126	C	-0.006128	0.264435	0.250147
C127	C	0.243872	0.514435	0.500147
C128	C	0.493872	0.764435	0.750147
C129	C	-0.268295	0.102595	0.000121
C130	C	-0.018295	0.352595	0.250121
C131	C	0.231705	0.602595	0.500121
C132	C	0.481705	0.852595	0.750121
C133	C	-0.217879	0.103107	0.000115
C134	C	0.032121	0.353107	0.250115
C135	C	0.282121	0.603107	0.500115
C136	C	0.532121	0.853107	0.750115
C137	C	-0.186590	0.059283	0.000136
C138	C	0.063410	0.309283	0.250136
C139	C	0.313410	0.559283	0.500136
C140	C	0.563410	0.809283	0.750136
C141	C	0.346759	0.108841	0.000077
C142	C	0.596759	0.358841	0.250077
C143	C	0.846759	0.608841	0.500077
C144	C	1.096759	0.858841	0.750077
C145	C	0.397176	0.109349	0.000064
C146	C	0.647176	0.359349	0.250064
C147	C	0.897176	0.609349	0.500064
C148	C	1.147176	0.859349	0.750064
C149	C	0.409338	0.021189	0.000095
C150	C	0.659338	0.271189	0.250095
C151	C	0.909338	0.521189	0.500095
C152	C	1.159338	0.771189	0.750095
C153	C	0.358925	0.020681	0.000102
C154	C	0.608925	0.270681	0.250102
C155	C	0.858925	0.520681	0.500102
C156	C	1.108925	0.770681	0.750102
C157	C	0.327636	0.064511	0.000097
C158	C	0.577636	0.314511	0.250097
C159	C	0.827636	0.564511	0.500097
C160	C	1.077636	0.814511	0.750097
O161	O	0.284340	-0.017589	0.000097
O162	O	0.534340	0.232411	0.250097
O163	O	0.784340	0.482411	0.500097
O164	O	1.034340	0.732411	0.750097
O165	O	0.261791	0.145521	0.000098
O166	O	0.511791	0.395521	0.250098
O167	O	0.761791	0.645521	0.500098
O168	O	1.011791	0.895521	0.750098
C169	C	0.039238	0.105720	0.000119
C170	C	0.289238	0.355720	0.250119
C171	C	0.539238	0.605720	0.500119
C172	C	0.789238	0.855720	0.750119
C173	C	0.020116	0.061386	0.000141
C174	C	0.270116	0.311386	0.250141
C175	C	0.520116	0.561386	0.500141
C176	C	0.770116	0.811386	0.750141
C177	C	0.051406	0.017565	0.000153
C178	C	0.301406	0.267565	0.250153
C179	C	0.551406	0.517565	0.500153
C180	C	0.801406	0.767565	0.750153
C181	C	-0.030298	0.060873	0.000139
C182	C	0.219702	0.310873	0.250139
C183	C	0.469702	0.560873	0.500139
C184	C	0.719702	0.810873	0.750139
C185	C	-0.061589	0.104695	0.000126
C186	C	0.188411	0.354695	0.250126
C187	C	0.438411	0.604695	0.500126
C188	C	0.688411	0.854695	0.750126
C189	C	-0.042465	0.149030	0.000115
C190	C	0.207535	0.399030	0.250115
C191	C	0.457535	0.649030	0.500115
C192	C	0.707535	0.899030	0.750115
C193	C	0.007948	0.149542	0.000106
C194	C	0.257948	0.399542	0.250106
C195	C	0.507948	0.649542	0.500106
C196	C	0.757948	0.899542	0.750106
C197	C	0.032282	-0.026770	0.000165
C198	C	0.282282	0.223230	0.250165
C199	C	0.532282	0.473230	0.500165
C200	C	0.782282	0.723230	0.750165
C201	C	-0.018131	-0.027279	0.000172
C202	C	0.231869	0.222721	0.250172
C203	C	0.481869	0.472721	0.500172
C204	C	0.731869	0.722721	0.750172
C205	C	-0.049421	0.016543	0.000159
C206	C	0.200579	0.266543	0.250159
C207	C	0.450579	0.516543	0.500159
C208	C	0.700579	0.766543	0.750159
C209	C	0.574712	-0.026511	0.000134
C210	C	0.824712	0.223489	0.250134
C211	C	1.074712	0.473489	0.500134
C212	C	1.324712	0.723489	0.750134
C213	C	0.574159	-0.080165	0.000143
C214	C	0.824159	0.169835	0.250143
C215	C	1.074159	0.419835	0.500143
C216	C	1.324159	0.669835	0.750143
C217	C	0.614864	-0.418982	0.000098
C218	C	0.864864	-0.168982	0.250098
C219	C	1.114864	0.081018	0.500098
C220	C	1.364864	0.331018	0.750098
C221	C	0.612814	-0.620642	0.000082
C222	C	0.862814	-0.370642	0.250082
C223	C	1.112814	-0.120642	0.500082
C224	C	1.362814	0.129358	0.750082
O225	O	0.650036	-0.651899	0.000044
O226	O	0.900036	-0.401899	0.250044
O227	O	1.150036	-0.151899	0.500044
O228	O	1.400036	0.098101	0.750044
N229	N	0.568479	-0.639766	0.000073
N230	N	0.818479	-0.389766	0.250073
N231	N	1.068479	-0.139766	0.500073
N232	N	1.318479	0.110234	0.750073
C233	C	0.524654	-0.608472	0.000060
C234	C	0.774654	-0.358472	0.250060
C235	C	1.024654	-0.108472	0.500060
C236	C	1.274654	0.141528	0.750060
O237	O	0.486897	-0.629366	0.000040
O238	O	0.736897	-0.379366	0.250040
O239	O	0.986897	-0.129366	0.500040
O240	O	1.236897	0.120634	0.750040
C241	C	0.526705	-0.406813	0.000067
C242	C	0.776705	-0.156813	0.250067
C243	C	1.026705	0.093187	0.500067
C244	C	1.276705	0.343187	0.750067
C245	C	0.571042	-0.387692	0.000088
C246	C	0.821042	-0.137692	0.250088
C247	C	1.071042	0.112308	0.500088
C248	C	1.321042	0.362308	0.750088
C249	C	0.659198	-0.399860	0.000117
C250	C	0.909198	-0.149860	0.250117
C251	C	1.159198	0.100140	0.500117
C252	C	1.409198	0.350140	0.750117
C253	C	0.659710	-0.349448	0.000127
C254	C	0.909710	-0.099448	0.250127
C255	C	1.159710	0.150552	0.500127
C256	C	1.409710	0.400552	0.750127
C257	C	0.615888	-0.318157	0.000117
C258	C	0.865888	-0.068157	0.250117
C259	C	1.115888	0.181843	0.500117
C260	C	1.365888	0.431843	0.750117
C261	C	0.571554	-0.337279	0.000098
C262	C	0.821554	-0.087279	0.250098
C263	C	1.071554	0.162721	0.500098
C264	C	1.321554	0.412721	0.750098
C265	C	0.482881	-0.375520	0.000047
C266	C	0.732881	-0.125520	0.250047
C267	C	0.982881	0.124480	0.500047
C268	C	1.232881	0.374480	0.750047
C269	C	0.483397	-0.325103	0.000046
C270	C	0.733397	-0.075103	0.250046
C271	C	0.983397	0.174897	0.500046
C272	C	1.233397	0.424897	0.750046
C273	C	0.527735	-0.305981	0.000067
C274	C	0.777735	-0.055981	0.250067
C275	C	1.027735	0.194019	0.500067
C276	C	1.277735	0.444019	0.750067
C277	C	0.528244	-0.255577	0.000098
C278	C	0.778244	-0.005577	0.250098
C279	C	1.028244	0.244423	0.500098
C280	C	1.278244	0.494423	0.750098
N281	N	0.572579	-0.236453	0.000108
N282	N	0.822579	0.013547	0.250108
N283	N	1.072579	0.263547	0.500108
N284	N	1.322579	0.513547	0.750108
C285	C	0.616401	-0.267743	0.000117
C286	C	0.866401	-0.017743	0.250117
C287	C	1.116401	0.232257	0.500117
C288	C	1.366401	0.482257	0.750117
C289	C	0.523580	-0.714346	0.000058
C290	C	0.773580	-0.464346	0.250058
C291	C	1.023580	-0.214346	0.500058
C292	C	1.273580	0.035654	0.750058
C293	C	0.523067	-0.764760	0.000058
C294	C	0.773067	-0.514760	0.250058
C295	C	1.023067	-0.264760	0.500058
C296	C	1.273067	-0.014760	0.750058
C297	C	0.611227	-0.776927	0.000078
C298	C	0.861227	-0.526927	0.250078
C299	C	1.111227	-0.276927	0.500078
C300	C	1.361227	-0.026927	0.750078
C301	C	0.611739	-0.726512	0.000086
C302	C	0.861739	-0.476512	0.250086
C303	C	1.111739	-0.226512	0.500086
C304	C	1.361739	0.023488	0.750086
C305	C	0.567915	-0.695222	0.000067
C306	C	0.817915	-0.445222	0.250067
C307	C	1.067915	-0.195222	0.500067
C308	C	1.317915	0.054778	0.750067
C309	C	0.617473	-0.161873	0.000139
C310	C	0.867473	0.088127	0.250139
C311	C	1.117473	0.338127	0.500139
C312	C	1.367473	0.588127	0.750139
C313	C	0.617981	-0.111456	0.000153
C314	C	0.867981	0.138544	0.250153
C315	C	1.117981	0.388544	0.500153
C316	C	1.367981	0.638544	0.750153
C317	C	0.529821	-0.099294	0.000126
C318	C	0.779821	0.150706	0.250126
C319	C	1.029821	0.400706	0.500126
C320	C	1.279821	0.650706	0.750126
C321	C	0.529313	-0.149706	0.000118
C322	C	0.779313	0.100294	0.250118
C323	C	1.029313	0.350294	0.500118
C324	C	1.279313	0.600294	0.750118
C325	C	0.573143	-0.180996	0.000120
C326	C	0.823143	0.069004	0.250120
C327	C	1.073143	0.319004	0.500120
C328	C	1.323143	0.569004	0.750120
O329	O	0.491043	-0.224292	0.000124
O330	O	0.741043	0.025708	0.250124
O331	O	0.991043	0.275708	0.500124
O332	O	1.241043	0.525708	0.750124
O333	O	0.654153	-0.246841	0.000113
O334	O	0.904153	0.003159	0.250113
O335	O	1.154153	0.253159	0.500113
O336	O	1.404153	0.503159	0.750113
C337	C	0.614352	-0.469394	0.000088
C338	C	0.864352	-0.219394	0.250088
C339	C	1.114352	0.030606	0.500088
C340	C	1.364352	0.280606	0.750088
C341	C	0.570018	-0.488516	0.000069
C342	C	0.820018	-0.238516	0.250069
C343	C	1.070018	0.011484	0.500069
C344	C	1.320018	0.261484	0.750069
C345	C	0.526197	-0.457226	0.000059
C346	C	0.776197	-0.207226	0.250059
C347	C	1.026197	0.042774	0.500059
C348	C	1.276197	0.292774	0.750059
C349	C	0.569505	-0.538930	0.000069
C350	C	0.819505	-0.288930	0.250069
C351	C	1.069505	-0.038930	0.500069
C352	C	1.319505	0.211070	0.750069
C353	C	0.613327	-0.570221	0.000078
C354	C	0.863327	-0.320221	0.250078
C355	C	1.113327	-0.070221	0.500078
C356	C	1.363327	0.179779	0.750078
C357	C	0.657662	-0.551097	0.000088
C358	C	0.907662	-0.301097	0.250088
C359	C	1.157662	-0.051097	0.500088
C360	C	1.407662	0.198903	0.750088
C361	C	0.658174	-0.500685	0.000098
C362	C	0.908174	-0.250685	0.250098
C363	C	1.158174	-0.000685	0.500098
C364	C	1.408174	0.249315	0.750098
C365	C	0.481862	-0.476350	0.000049
C366	C	0.731862	-0.226350	0.250049
C367	C	0.981862	0.023650	0.500049
C368	C	1.231862	0.273650	0.750049
C369	C	0.481353	-0.526763	0.000041
C370	C	0.731353	-0.276763	0.250041
C371	C	0.981353	-0.026763	0.500041
C372	C	1.231353	0.223237	0.750041
C373	C	0.525175	-0.558053	0.000050
C374	C	0.775175	-0.308053	0.250050
C375	C	1.025175	-0.058053	0.500050
C376	C	1.275175	0.191947	0.750050
C377	C	0.658927	0.057703	0.000129
C378	C	0.908927	0.307703	0.250129
C379	C	1.158927	0.557703	0.500129
C380	C	1.408927	0.807703	0.750129
C381	C	0.712582	0.058256	0.000134
C382	C	0.962582	0.308256	0.250134
C383	C	1.212582	0.558256	0.500134
C384	C	1.462582	0.808256	0.750134
C385	C	0.566335	0.150295	0.000083
C386	C	0.816335	0.400295	0.250083
C387	C	1.066335	0.650295	0.500083
C388	C	1.316335	0.900295	0.750083
C389	C	0.566889	0.203949	0.000067
C390	C	0.816889	0.453949	0.250067
C391	C	1.066889	0.703949	0.500067
C392	C	1.316889	0.953949	0.750067
N393	N	0.562525	0.069907	0.254331
N394	N	0.812525	0.319907	0.504331
N395	N	1.062525	0.569907	0.754331
N396	N	1.312525	0.819907	1.004331
N397	N	0.578526	0.053873	-0.254111
N398	N	0.828526	0.303873	-0.004111
N399	N	1.078526	0.553873	0.245889
N400	N	1.328526	0.803873	0.495889
C401	C	0.555650	0.076802	0.473442
C402	C	0.805650	0.326802	0.723442
C403	C	1.055650	0.576802	0.973442
C404	C	1.305650	0.826802	1.223442
C405	C	0.585400	0.046980	0.526785
C406	C	0.835400	0.296980	0.776785
C407	C	1.085400	0.546980	1.026785
C408	C	1.335400	0.796980	1.276785
C409	C	0.581574	0.050816	0.648706
C410	C	0.831574	0.300816	0.898706
C411	C	1.081574	0.550816	1.148706
C412	C	1.331574	0.800816	1.398706
C413	C	0.559475	0.072966	0.351510
C414	C	0.809475	0.322966	0.601510
C415	C	1.059475	0.572966	0.851510
C416	C	1.309475	0.822966	1.101510
H417	H	0.321288	0.144532	0.000075
H418	H	0.571288	0.394532	0.250075
H419	H	0.821288	0.644532	0.500075
H420	H	1.071288	0.894532	0.750075
H421	H	0.527309	0.105214	0.519335
H422	H	0.777309	0.355214	0.769335
H423	H	1.027309	0.605214	1.019335
H424	H	1.277309	0.855214	1.269335
H425	H	0.654087	-0.095890	0.000172
H426	H	0.904087	0.154110	0.250172
H427	H	1.154087	0.404110	0.500172
H428	H	1.404087	0.654110	0.750172
F429	F	0.622590	0.009985	0.466797
F430	F	0.872590	0.259985	0.716797
F431	F	1.122590	0.509985	0.966797
F432	F	1.372590	0.759985	1.216797
F433	F	0.417523	0.156541	0.000036
F434	F	0.667523	0.406541	0.250036
F435	F	0.917523	0.656541	0.500036
F436	F	1.167523	0.906541	0.750036
F437	F	0.705365	-0.480341	0.000113
F438	F	0.955365	-0.230341	0.250113
F439	F	1.205365	0.019659	0.500113
F440	F	1.455365	0.269659	0.750113
H441	H	0.647843	-0.710947	0.000102
H442	H	0.897843	-0.460947	0.250102
H443	H	1.147843	-0.210947	0.500102
H444	H	1.397843	0.039053	0.750102
F445	F	0.704301	-0.584407	0.000104
F446	F	0.954301	-0.334407	0.250104
F447	F	1.204301	-0.084407	0.500104
F448	F	1.454301	0.165593	0.750104
F449	F	0.442648	-0.025446	0.000111
F450	F	0.692648	0.224554	0.250111
F451	F	0.942648	0.474554	0.500111
F452	F	1.192648	0.724554	0.750111
F453	F	0.434160	-0.547106	0.000026
F454	F	0.684160	-0.297106	0.250026
F455	F	0.934160	-0.047106	0.500026
F456	F	1.184160	0.202894	0.750026
H457	H	0.023511	0.185646	0.000089
H458	H	0.273511	0.435646	0.250089
H459	H	0.523511	0.685646	0.500089
H460	H	0.773511	0.935646	0.750089
F461	F	0.706901	-0.329105	0.000126
F462	F	0.956901	-0.079105	0.250126
F463	F	1.206901	0.170895	0.500126
F464	F	1.456901	0.420895	0.750126
F465	F	0.216827	-0.071880	0.000198
F466	F	0.466827	0.178120	0.250198
F467	F	0.716827	0.428120	0.500198
F468	F	0.966827	0.678120	0.750198
F469	F	0.075477	0.197212	0.000076
F470	F	0.325477	0.447212	0.250076
F471	F	0.575477	0.697212	0.500076
F472	F	0.825477	0.947212	0.750076
F473	F	0.179528	0.198268	0.000062
F474	F	0.429528	0.448268	0.250062
F475	F	0.679528	0.698268	0.500062
F476	F	0.929528	0.948268	0.750062
F477	F	-0.197534	0.150296	0.000093
F478	F	0.052466	0.400296	0.250093
F479	F	0.302466	0.650296	0.500093
F480	F	0.552466	0.900296	0.750093
H481	H	0.694885	-0.425332	0.000121
H482	H	0.944885	-0.175332	0.250121
H483	H	1.194885	0.074668	0.500121
H484	H	1.444885	0.324668	0.750121
H485	H	-0.293780	0.138276	0.000111
H486	H	-0.043780	0.388276	0.250111
H487	H	0.206220	0.638276	0.500111
H488	H	0.456220	0.888276	0.750111
F489	F	-0.276472	-0.032756	0.000147
F490	F	-0.026472	0.217244	0.250147
F491	F	0.223528	0.467244	0.500147
F492	F	0.473528	0.717244	0.750147
F493	F	-0.075775	0.195668	0.000095
F494	F	0.174225	0.445668	0.250095
F495	F	0.424225	0.695668	0.500095
F496	F	0.674225	0.945668	0.750095
H497	H	-0.180242	-0.020742	0.000166
H498	H	0.069758	0.229258	0.250166
H499	H	0.319758	0.479258	0.500166
H500	H	0.569758	0.729258	0.750166
H501	H	0.117552	-0.061855	0.000189
H502	H	0.367552	0.188145	0.250189
H503	H	0.617552	0.438145	0.500189
H504	H	0.867552	0.688145	0.750189
H505	H	0.343357	-0.015423	0.000105
H506	H	0.593357	0.234577	0.250105
H507	H	0.843357	0.484577	0.500105
H508	H	1.093357	0.734577	0.750105
H509	H	-0.033694	-0.063386	0.000182
H510	H	0.216306	0.186614	0.250182
H511	H	0.466306	0.436614	0.500182
H512	H	0.716306	0.686614	0.750182
F513	F	0.065578	-0.073414	0.000181
F514	F	0.315578	0.176586	0.250181
F515	F	0.565578	0.426586	0.500181
F516	F	0.815578	0.676586	0.750181
H517	H	0.646909	-0.802413	0.000087
H518	H	0.896909	-0.552413	0.250087
H519	H	1.146909	-0.302413	0.500087
H520	H	1.396909	-0.052413	0.750087
F521	F	0.664122	-0.195167	0.000141
F522	F	0.914122	0.054833	0.250141
F523	F	1.164122	0.304833	0.500141
F524	F	1.414122	0.554833	0.750141
H525	H	0.486962	-0.780324	0.000060
H526	H	0.736962	-0.530324	0.250060
H527	H	0.986962	-0.280324	0.500060
H528	H	1.236962	-0.030324	0.750060
F529	F	0.435690	-0.395859	0.000020
F530	F	0.685690	-0.145859	0.250020
F531	F	0.935690	0.104141	0.500020
F532	F	1.185690	0.354141	0.750020
F533	F	0.476932	-0.681050	0.000038
F534	F	0.726932	-0.431050	0.250038
F535	F	0.976932	-0.181050	0.500038
F536	F	1.226932	0.068950	0.750038
H537	H	0.447709	-0.299628	0.000029
H538	H	0.697709	-0.049628	0.250029
H539	H	0.947709	0.200372	0.500029
H540	H	1.197709	0.450372	0.750029
H541	H	0.494142	-0.073808	0.000122
H542	H	0.744142	0.176192	0.250122
H543	H	0.994142	0.426192	0.500122
H544	H	1.244142	0.676192	0.750122
F545	F	0.482124	-0.170057	0.000115
F546	F	0.732124	0.079943	0.250115
F547	F	0.982124	0.329943	0.500115
F548	F	1.232124	0.579943	0.750115
H549	H	0.446176	-0.450877	0.000039
H550	H	0.696176	-0.200877	0.250039
H551	H	0.946176	0.049123	0.500039
H552	H	1.196176	0.299123	0.750039
