data_functionalizedCrystal
_audit_creation_method	'MofGen! by Chris Wilmer'
_symmetry_space_group_name_H-M	'P1'
_symmetry_Int_Tables_number	1
_symmetry_cell_setting	triclinic
loop_
_symmetry_equiv_pos_as_xyz
  x,y,z
_cell_length_a	14.519709
_cell_length_b	15.021413
_cell_length_c	14.519709
_cell_angle_alpha	89.996924
_cell_angle_beta	96.319855
_cell_angle_gamma	89.998810
loop_
_atom_site_label
_atom_site_type_symbol
_atom_site_fract_x
_atom_site_fract_y
_atom_site_fract_z
O1	O	-1.223873	0.073907	0.120879
O2	O	-0.955396	0.073937	0.135115
O3	O	-1.096752	0.073913	-0.006241
O4	O	-1.082516	0.073931	0.262236
O5	O	-1.096730	-0.074151	-0.006221
O6	O	-0.955373	-0.074127	0.135136
O7	O	-1.223850	-0.074157	0.120899
Zn8	Zn	-1.089608	-0.097650	0.128021
Zn9	Zn	-1.089638	0.097431	0.127994
O10	O	-1.082493	-0.074133	0.262256
C11	C	-0.921025	-0.000091	0.134462
C12	C	-0.818643	-0.000080	0.132474
N13	N	-1.089595	-0.230788	0.128038
C14	C	-0.443748	-0.000118	0.125154
C15	C	-0.548056	-0.000107	0.127187
C16	C	-0.631192	-0.000098	0.128814
C17	C	-0.735507	-0.000089	0.130847
C18	C	-1.024221	-0.470460	0.193371
C19	C	-1.107584	-0.529803	0.211408
C20	C	-1.089618	-0.412395	0.128015
C21	C	-1.006278	-0.529794	0.109999
C22	C	-1.089633	-0.587819	0.127995
C23	C	-1.173023	-0.470431	0.146094
C24	C	-1.071663	-0.470417	0.044649
C25	C	-1.155085	-0.529733	0.062650
C26	C	-1.089608	-0.311338	0.128029
C27	C	-1.089653	-0.688874	0.127980
C28	C	-0.258221	-0.000124	0.121553
C29	C	-0.360602	-0.000123	0.123541
C30	C	-1.096078	-0.000119	-0.040591
C31	C	-1.094090	-0.000119	-0.142972
N32	N	-1.089659	0.230568	0.127969
C33	C	-1.086770	-0.000095	-0.517868
C34	C	-1.088803	-0.000102	-0.413560
C35	C	-1.090430	-0.000108	-0.330423
C36	C	-1.092463	-0.000113	-0.226109
C37	C	-1.083168	-0.000099	0.296606
C38	C	-1.085156	-0.000093	0.398987
H39	H	-1.122784	-0.555887	0.281900
C40	C	-1.268266	-0.435361	0.166786
C41	C	-1.285845	-0.334402	0.170660
C42	C	-1.381085	-0.299330	0.191355
C43	C	-1.458746	-0.365218	0.208176
C44	C	-1.441170	-0.466184	0.204302
C45	C	-1.345930	-0.501255	0.183607
H46	H	-1.228353	-0.285622	0.158208
H47	H	-1.394096	-0.224589	0.194223
H48	H	-1.529249	-0.339256	0.223496
H49	H	-1.498661	-0.514963	0.216755
H50	H	-1.332919	-0.575997	0.180739
C51	C	-0.949587	-0.435290	0.268090
C52	C	-0.847140	-0.460042	0.264386
C53	C	-0.772511	-0.424869	0.339105
C54	C	-0.800329	-0.364945	0.417529
C55	C	-0.902781	-0.340190	0.421237
C56	C	-0.977410	-0.375362	0.346517
H57	H	-0.826542	-0.504404	0.206329
H58	H	-0.696669	-0.443195	0.336361
H59	H	-0.745085	-0.338908	0.472841
H60	H	-0.923378	-0.295828	0.479293
H61	H	-1.053252	-0.357037	0.349262
H62	H	-1.056436	-0.444312	-0.025821
H63	H	-0.935793	-0.555873	0.094770
C64	C	-1.229882	-0.564680	-0.012031
C65	C	-1.332439	-0.541020	-0.007240
C66	C	-1.407237	-0.575969	-0.081916
C67	C	-1.379478	-0.634578	-0.161384
C68	C	-1.276915	-0.658241	-0.166178
C69	C	-1.202117	-0.623292	-0.091502
H70	H	-1.352993	-0.497631	0.051589
H71	H	-1.483161	-0.558452	-0.078367
H72	H	-1.434848	-0.660449	-0.216664
H73	H	-1.256361	-0.701630	-0.225008
H74	H	-1.126193	-0.640809	-0.095051
