data_functionalizedCrystal
_audit_creation_method	'MofGen! by Chris Wilmer'
_symmetry_space_group_name_H-M	'P1'
_symmetry_Int_Tables_number	1
_symmetry_cell_setting	triclinic
loop_
_symmetry_equiv_pos_as_xyz
  x,y,z
_cell_length_a	17.699077
_cell_length_b	14.853569
_cell_length_c	16.176319
_cell_angle_alpha	89.992032
_cell_angle_beta	89.993140
_cell_angle_gamma	83.458071
loop_
_atom_site_label
_atom_site_type_symbol
_atom_site_fract_x
_atom_site_fract_y
_atom_site_fract_z
O1	O	1.004378	0.113983	-0.068738
O2	O	1.504378	0.613983	0.431262
O3	O	0.784038	0.128821	-0.068742
O4	O	1.284038	0.628821	0.431258
O5	O	0.900093	-0.009850	-0.068732
O6	O	1.400093	0.490150	0.431268
O7	O	0.888323	0.252653	-0.068748
O8	O	1.388323	0.752653	0.431252
O9	O	0.900077	-0.009859	0.068761
O10	O	1.400077	0.490141	0.568761
O11	O	0.784022	0.128812	0.068751
O12	O	1.284022	0.628812	0.568751
O13	O	1.004362	0.113974	0.068755
O14	O	1.504362	0.613974	0.568755
Cu15	Cu	0.894190	0.121392	0.081308
Cu16	Cu	1.394190	0.621392	0.581308
Cu17	Cu	0.894209	0.121403	-0.081294
Cu18	Cu	1.394209	0.621403	0.418706
O19	O	0.888307	0.252644	0.068745
O20	O	1.388307	0.752644	0.568745
C21	C	0.755831	0.128286	0.000004
C22	C	1.255831	0.628286	0.500004
C23	C	0.671809	0.126693	0.000003
C24	C	1.171809	0.626693	0.500003
C25	C	0.632331	0.125938	0.074951
C26	C	1.132331	0.625938	0.574951
C27	C	0.553384	0.124428	0.074952
C28	C	1.053384	0.624428	0.574952
C29	C	0.513916	0.123679	0.000004
C30	C	1.013916	0.623679	0.500004
C31	C	0.553400	0.124431	-0.074951
C32	C	1.053400	0.624431	0.425049
C33	C	0.632346	0.125935	-0.074951
C34	C	1.132346	0.625935	0.425049
C35	C	0.235021	0.118364	-0.074952
C36	C	0.735021	0.618364	0.425048
C37	C	0.156070	0.116863	-0.074946
C38	C	0.656070	0.616863	0.425054
C39	C	0.156059	0.116857	0.074951
C40	C	0.656059	0.616857	0.574951
C41	C	0.235005	0.118361	0.074951
C42	C	0.735005	0.618361	0.574951
C43	C	0.274483	0.119108	-0.000003
C44	C	0.774483	0.619108	0.499997
C45	C	0.360085	0.120745	-0.000003
C46	C	0.860085	0.620745	0.499997
C47	C	0.428314	0.122049	0.000003
C48	C	0.928314	0.622049	0.500003
C49	C	0.899551	-0.043441	0.000015
C50	C	1.399551	0.456559	0.500015
C51	C	0.897952	-0.143519	0.000016
C52	C	1.397952	0.356481	0.500016
C53	C	0.828263	-0.179637	0.000016
C54	C	1.328263	0.320363	0.500016
C55	C	0.966140	-0.201437	0.000010
C56	C	1.466140	0.298563	0.500010
C57	C	0.964640	-0.295466	0.000006
C58	C	1.464640	0.204534	0.500006
C59	C	0.894951	-0.331584	0.000006
C60	C	1.394951	0.168416	0.500006
C61	C	0.826761	-0.273674	0.000010
C62	C	1.326761	0.226326	0.500010
C63	C	1.032828	-0.353383	-0.000006
C64	C	1.532828	0.146617	0.499994
C65	C	1.031331	-0.447418	-0.000011
C66	C	1.531331	0.052582	0.499989
C67	C	0.961641	-0.483538	-0.000005
C68	C	1.461641	0.016462	0.499995
C69	C	0.893449	-0.425621	0.000000
C70	C	1.393449	0.074379	0.500000
C71	C	0.823759	-0.461739	0.000000
C72	C	1.323759	0.038261	0.500000
C73	C	0.755566	-0.403824	0.000011
C74	C	1.255566	0.096176	0.500011
C75	C	0.757071	-0.309793	0.000016
C76	C	1.257071	0.190207	0.500016
C77	C	0.960136	-0.577569	-0.000010
C78	C	1.460136	-0.077569	0.499990
C79	C	0.822257	-0.555776	-0.000006
C80	C	1.322257	-0.055776	0.499994
C81	C	1.032568	0.114509	0.000008
C82	C	1.532568	0.614509	0.500008
C83	C	1.116591	0.116101	0.000004
C84	C	1.616591	0.616101	0.500004
C85	C	0.888848	0.286236	-0.000003
C86	C	1.388848	0.786236	0.499997
C87	C	0.890447	0.386313	-0.000010
C88	C	1.390447	0.886313	0.499990
N89	N	0.894182	0.121384	0.195673
N90	N	1.394182	0.621384	0.695673
N91	N	0.894223	0.121403	-0.195659
N92	N	1.394223	0.621403	0.304341
C93	C	0.945587	0.060006	0.238941
C94	C	1.445587	0.560006	0.738941
C95	C	0.945591	0.060005	0.325489
C96	C	1.445591	0.560005	0.825489
C97	C	0.894193	0.121387	0.368765
C98	C	1.394193	0.621387	0.868765
C99	C	0.842783	0.182769	0.325491
C100	C	1.342783	0.682769	0.825491
C101	C	0.842776	0.182765	0.238945
C102	C	1.342776	0.682765	0.738945
C103	C	0.842809	0.182785	0.674519
C104	C	1.342809	0.682785	1.174519
C105	C	0.842821	0.182787	0.761070
C106	C	1.342821	0.682787	1.261070
C107	C	0.945624	0.060026	0.761062
C108	C	1.445624	0.560026	1.261062
C109	C	0.945617	0.060022	0.674517
C110	C	1.445617	0.560022	1.174517
C111	C	0.894204	0.121399	0.631250
C112	C	1.394204	0.621399	1.131250
C113	C	0.894200	0.121399	0.537405
C114	C	1.394200	0.621399	1.037405
C115	C	0.894201	0.121393	0.462608
C116	C	1.394201	0.621393	0.962608
H117	H	0.521260	0.123815	-0.135975
H118	H	1.021260	0.623815	0.364025
H119	H	0.123937	0.116252	-0.135982
H120	H	0.623937	0.616252	0.364018
C121	C	0.278436	0.119197	-0.157397
C122	C	0.778436	0.619197	0.342603
H123	H	0.243620	0.118546	-0.202031
H124	H	0.743620	0.618546	0.297969
H125	H	0.314952	0.067232	-0.160515
H126	H	0.814952	0.567232	0.339485
H127	H	0.303511	0.172343	-0.160516
H128	H	0.803511	0.672343	0.339484
C129	C	1.109481	-0.313657	-0.000003
C130	C	1.609481	0.186343	0.499997
H131	H	1.149878	-0.361614	-0.000017
H132	H	1.649878	0.138386	0.499983
H133	H	1.112928	-0.277442	0.047948
H134	H	1.612928	0.222558	0.547948
H135	H	1.112934	-0.277415	-0.047952
H136	H	1.612934	0.222585	0.452048
C137	C	0.675741	0.126764	0.157393
C138	C	1.175741	0.626764	0.657393
H139	H	0.728412	0.127776	0.146662
H140	H	1.228412	0.627776	0.646662
H141	H	0.668520	0.073964	0.188193
H142	H	1.168520	0.573964	0.688193
H143	H	0.657079	0.179075	0.188183
H144	H	1.157079	0.679075	0.688183
C145	C	0.675771	0.126772	-0.157394
C146	C	1.175771	0.626772	0.342606
H147	H	0.640959	0.126120	-0.202031
H148	H	1.140959	0.626120	0.297969
H149	H	0.712289	0.074808	-0.160508
H150	H	1.212289	0.574808	0.339492
H151	H	0.700847	0.179919	-0.160511
H152	H	1.200847	0.679919	0.339489
H153	H	0.123908	0.116244	0.135982
H154	H	0.623908	0.616244	0.635982
H155	H	0.987444	0.010025	0.203711
H156	H	1.487444	0.510025	0.703711
H157	H	0.765507	-0.585176	0.000002
H158	H	1.265507	-0.085176	0.500002
C159	C	0.786222	0.250263	0.373089
C160	C	1.286222	0.750263	0.873089
H161	H	0.755595	0.286804	0.334922
H162	H	1.255595	0.786804	0.834922
H163	H	0.813464	0.287764	0.406850
H164	H	1.313464	0.787764	0.906850
H165	H	0.754695	0.217848	0.406849
H166	H	1.254695	0.717848	0.906849
C167	C	0.678912	-0.443561	0.000011
C168	C	1.178912	0.056439	0.500011
H169	H	0.687790	-0.507857	0.000008
H170	H	1.187790	-0.007857	0.500008
H171	H	0.650831	-0.423662	-0.047931
H172	H	1.150831	0.076338	0.452069
H173	H	0.650832	-0.423692	0.047969
H174	H	1.150832	0.076308	0.547969
C175	C	0.682067	-0.246088	0.000018
C176	C	1.182067	0.253912	0.500018
H177	H	0.692945	-0.184914	0.000011
H178	H	1.192945	0.315086	0.500011
H179	H	0.653489	-0.257024	0.047964
H180	H	1.153489	0.242976	0.547964
H181	H	0.653502	-0.257012	-0.047936
H182	H	1.153502	0.242988	0.452064
H183	H	0.772742	-0.132478	0.000028
H184	H	1.272742	0.367522	0.500028
H185	H	1.015658	-0.624719	-0.000026
H186	H	1.515658	-0.124719	0.499974
H187	H	1.022878	-0.172024	0.000026
H188	H	1.522878	0.327976	0.500026
C189	C	0.278419	0.119184	0.157391
C190	C	0.778419	0.619184	0.657391
H191	H	0.331090	0.120195	0.146656
H192	H	0.831090	0.620195	0.646656
H193	H	0.271198	0.066384	0.188191
H194	H	0.771198	0.566384	0.688191
H195	H	0.259759	0.171495	0.188183
H196	H	0.759759	0.671495	0.688183
C197	C	1.106339	-0.511116	-0.000011
C198	C	1.606339	-0.011116	0.499989
H199	H	1.148057	-0.476136	-0.000004
H200	H	1.648057	0.023864	0.499996
H201	H	1.108627	-0.548247	-0.047956
H202	H	1.608627	-0.048247	0.452044
H203	H	1.108613	-0.548254	0.047944
H204	H	1.608613	-0.048254	0.547944
C205	C	1.002144	-0.007503	0.373081
C206	C	1.502144	0.492497	0.873081
H207	H	1.032761	-0.044050	0.334911
H208	H	1.532761	0.455950	0.834911
H209	H	0.974892	-0.044996	0.406857
H210	H	1.474892	0.455004	0.906857
H211	H	1.033682	0.024896	0.406826
H212	H	1.533682	0.524896	0.906826
C213	C	1.002152	-0.007501	0.626917
C214	C	1.502152	0.492499	1.126917
H215	H	1.032763	-0.044063	0.665082
H216	H	1.532763	0.455937	1.165082
H217	H	1.033687	0.024877	0.593139
H218	H	1.533687	0.524877	1.093139
H219	H	0.974878	-0.044992	0.593171
H220	H	1.474878	0.455008	1.093171
C221	C	0.509961	0.123604	0.157395
C222	C	1.009961	0.623604	0.657395
H223	H	0.544771	0.124278	0.202031
H224	H	1.044771	0.624278	0.702031
H225	H	0.484883	0.070466	0.160522
H226	H	0.984883	0.570466	0.660522
H227	H	0.473444	0.175577	0.160503
H228	H	0.973444	0.675577	0.660503
H229	H	0.987485	0.010046	0.796300
H230	H	1.487485	0.510046	1.296300
H231	H	0.800964	0.232773	0.796305
H232	H	1.300964	0.732773	1.296305
H233	H	0.800948	0.232763	0.639297
H234	H	1.300948	0.732763	1.139297
C235	C	0.786234	0.250284	0.191349
C236	C	1.286234	0.750284	0.691349
H237	H	0.755629	0.286848	0.229517
H238	H	1.255629	0.786848	0.729517
H239	H	0.754694	0.217900	0.157600
H240	H	1.254694	0.717900	0.657600
H241	H	0.813499	0.287774	0.157577
H242	H	1.313499	0.787774	0.657577
