data_functionalizedCrystal
_audit_creation_method	'MofGen! by Chris Wilmer'
_symmetry_space_group_name_H-M	'P1'
_symmetry_Int_Tables_number	1
_symmetry_cell_setting	triclinic
loop_
_symmetry_equiv_pos_as_xyz
  x,y,z
_cell_length_a	19.805407
_cell_length_b	16.120484
_cell_length_c	16.120297
_cell_angle_alpha	95.614431
_cell_angle_beta	92.877318
_cell_angle_gamma	92.925608
loop_
_atom_site_label
_atom_site_type_symbol
_atom_site_fract_x
_atom_site_fract_y
_atom_site_fract_z
Zn1	Zn	0.999910	-0.356749	-0.489476
Zn2	Zn	0.999825	-0.489439	-0.356787
Zn3	Zn	0.892767	-0.349685	-0.349720
Zn4	Zn	0.880648	-0.496480	-0.496506
O5	O	0.943287	-0.423088	-0.423122
O6	O	1.094614	-0.374360	-0.471890
O7	O	0.990659	-0.464997	-0.238887
O8	O	0.912087	-0.233657	-0.362359
O9	O	1.094551	-0.471847	-0.374403
O10	O	0.990805	-0.238847	-0.465037
O11	O	0.912004	-0.362321	-0.233695
O12	O	0.796444	-0.369148	-0.369176
O13	O	0.891432	-0.483847	-0.612536
O14	O	0.787540	-0.476997	-0.477020
O15	O	0.979054	-0.381188	-0.607370
O16	O	0.978908	-0.607338	-0.381220
O17	O	0.891350	-0.612511	-0.483872
C18	C	0.767433	-0.423071	-0.423094
C19	C	0.692200	-0.423085	-0.423103
C20	C	0.652238	-0.479318	-0.479175
C21	C	0.581549	-0.479320	-0.479187
C22	C	0.550824	-0.423092	-0.423122
C23	C	0.590791	-0.366853	-0.367048
C24	C	0.661479	-0.366847	-0.367041
C25	C	0.305716	-0.366873	-0.367077
C26	C	0.235023	-0.366884	-0.367086
C27	C	0.225786	-0.479345	-0.479223
C28	C	0.296474	-0.479340	-0.479215
C29	C	0.336435	-0.423098	-0.423144
C30	C	0.413084	-0.423095	-0.423133
C31	C	0.474176	-0.423098	-0.423129
C32	C	0.933822	-0.640253	-0.434094
C33	C	0.929834	-0.733159	-0.438816
C34	C	0.922555	-0.903259	-0.447454
C35	C	0.964140	-0.942078	-0.398804
C36	C	0.960090	-1.036727	-0.403611
C37	C	0.926604	-0.808601	-0.442649
C38	C	1.119828	-0.423106	-0.423151
C39	C	1.195059	-0.423114	-0.423163
C40	C	0.933901	-0.434091	-0.641128
C41	C	0.929901	-0.438780	-0.734029
C42	C	0.952807	-0.205076	-0.412126
C43	C	0.956864	-0.112172	-0.407440
C44	C	0.922574	-0.447321	-0.904119
C45	C	0.964145	-0.398605	-0.942965
C46	C	0.960068	-0.403357	-1.037609
C47	C	0.926650	-0.442570	-0.809467
C48	C	0.952679	-0.412068	-0.205962
C49	C	0.956820	-0.407144	-0.113049
H50	H	0.549014	-0.525112	-0.524845
H51	H	0.193241	-0.525137	-0.524881
H52	H	1.002797	-0.353326	-0.905142
H53	H	0.210009	-0.321091	-0.321432
H54	H	1.002784	-0.904227	-0.353544
H55	H	0.338244	-0.321083	-0.321414
H56	H	0.883914	-0.941107	-0.492709
H57	H	0.694016	-0.321052	-0.321386
C58	C	0.685466	-0.540403	-0.540141
C59	C	0.635335	-0.589633	-0.589264
C60	C	0.665917	-0.645905	-0.645446
H61	H	0.712827	-0.575234	-0.510043
H62	H	0.712850	-0.510343	-0.575041
H63	H	0.607963	-0.619691	-0.554369
H64	H	0.607972	-0.554825	-0.619380
H65	H	0.693301	-0.615846	-0.680346
H66	H	0.693277	-0.680730	-0.615341
H67	H	0.631909	-0.679309	-0.678788
C68	C	0.329705	-0.540423	-0.540180
C69	C	0.279577	-0.589657	-0.589305
C70	C	0.310162	-0.645927	-0.645486
H71	H	0.357066	-0.575253	-0.510081
H72	H	0.357088	-0.510362	-0.575079
H73	H	0.252205	-0.619716	-0.554411
H74	H	0.252212	-0.554850	-0.619423
H75	H	0.337546	-0.615866	-0.680384
H76	H	0.337523	-0.680750	-0.615379
H77	H	0.276155	-0.679333	-0.678829
C78	C	0.557307	-0.305892	-0.306217
C79	C	0.486848	-0.317945	-0.318209
C80	C	0.455982	-0.261810	-0.262178
H81	H	0.570731	-0.250337	-0.315654
H82	H	0.570733	-0.315204	-0.250633
H83	H	0.473427	-0.308627	-0.373780
H84	H	0.473405	-0.373489	-0.308766
H85	H	0.469409	-0.271122	-0.206594
H86	H	0.469412	-0.206258	-0.271619
H87	H	0.408173	-0.269985	-0.270302
H88	H	0.883925	-0.492596	-0.941939
