data_functionalizedCrystal
_audit_creation_method	'MofGen! by Chris Wilmer'
_symmetry_space_group_name_H-M	'P1'
_symmetry_Int_Tables_number	1
_symmetry_cell_setting	triclinic
loop_
_symmetry_equiv_pos_as_xyz
  x,y,z
_cell_length_a	12.503572
_cell_length_b	14.519709
_cell_length_c	14.519709
_cell_angle_alpha	83.680145
_cell_angle_beta	93.534022
_cell_angle_gamma	86.467165
loop_
_atom_site_label
_atom_site_type_symbol
_atom_site_fract_x
_atom_site_fract_y
_atom_site_fract_z
O1	O	-0.089184	-1.218552	-0.126203
O2	O	0.160816	-0.968552	0.123797
O3	O	0.410816	-0.718552	0.373797
O4	O	0.660816	-0.468552	0.623797
O5	O	-0.089218	-0.950073	-0.140441
O6	O	0.160782	-0.700073	0.109559
O7	O	0.410782	-0.450073	0.359559
O8	O	0.660782	-0.200073	0.609559
O9	O	-0.089190	-1.091431	0.000917
O10	O	0.160810	-0.841431	0.250917
O11	O	0.410810	-0.591431	0.500917
O12	O	0.660810	-0.341431	0.750917
O13	O	-0.089212	-1.077193	-0.267561
O14	O	0.160788	-0.827193	-0.017561
O15	O	0.410788	-0.577193	0.232439
O16	O	0.660788	-0.327193	0.482439
O17	O	0.089454	-1.102067	0.011561
O18	O	0.339454	-0.852067	0.261561
O19	O	0.589454	-0.602067	0.511561
O20	O	0.839454	-0.352067	0.761561
O21	O	0.089426	-0.960708	-0.129797
O22	O	0.339426	-0.710708	0.120203
O23	O	0.589426	-0.460708	0.370203
O24	O	0.839426	-0.210708	0.620203
O25	O	0.089460	-1.229187	-0.115559
O26	O	0.339460	-0.979187	0.134441
O27	O	0.589460	-0.729187	0.384441
O28	O	0.839460	-0.479187	0.634441
Cu29	Cu	0.105755	-1.095919	-0.121706
Cu30	Cu	0.355755	-0.845919	0.128294
Cu31	Cu	0.605755	-0.595919	0.378294
Cu32	Cu	0.855755	-0.345919	0.628294
Cu33	Cu	-0.105513	-1.083341	-0.134294
Cu34	Cu	0.144487	-0.833341	0.115706
Cu35	Cu	0.394487	-0.583341	0.365706
Cu36	Cu	0.644487	-0.333341	0.615706
O37	O	0.089432	-1.087829	-0.256917
O38	O	0.339432	-0.837829	-0.006917
O39	O	0.589432	-0.587829	0.243083
O40	O	0.839432	-0.337829	0.493083
C41	C	0.000100	-0.921031	-0.134456
C42	C	0.250100	-0.671031	0.115544
C43	C	0.500100	-0.421031	0.365544
C44	C	0.750100	-0.171031	0.615544
C45	C	0.000088	-0.818649	-0.132469
C46	C	0.250088	-0.568649	0.117531
C47	C	0.500088	-0.318649	0.367531
C48	C	0.750088	-0.068649	0.617531
N49	N	-0.254107	-1.074495	-0.143141
N50	N	-0.004107	-0.824495	0.106859
N51	N	0.245893	-0.574495	0.356859
N52	N	0.495893	-0.324495	0.606859
C53	C	0.000132	-1.096086	0.040599
C54	C	0.250132	-0.846086	0.290599
C55	C	0.500132	-0.596086	0.540599
C56	C	0.750132	-0.346086	0.790599
C57	C	0.000132	-1.094097	0.142980
C58	C	0.250132	-0.844097	0.392980
C59	C	0.500132	-0.594097	0.642980
C60	C	0.750132	-0.344097	0.892980
C61	C	-0.473224	-1.061475	-0.156155
C62	C	-0.223224	-0.811475	0.093845
C63	C	0.026776	-0.561475	0.343845
C64	C	0.276776	-0.311475	0.593845
C65	C	-0.526541	-1.117790	-0.099841
C66	C	-0.276541	-0.867790	0.150159
C67	C	-0.026541	-0.617790	0.400159
C68	C	0.223459	-0.367790	0.650159
C69	C	-0.648465	-1.110545	-0.107082
C70	C	-0.398465	-0.860545	0.142918
C71	C	-0.148465	-0.610545	0.392918
C72	C	0.101535	-0.360545	0.642918
C73	C	-0.351289	-1.068718	-0.148915
C74	C	-0.101289	-0.818718	0.101085
C75	C	0.148711	-0.568718	0.351085
C76	C	0.398711	-0.318718	0.601085
N77	N	0.254349	-1.104772	-0.112852
N78	N	0.504349	-0.854772	0.137148
N79	N	0.754349	-0.604772	0.387148
N80	N	1.004349	-0.354772	0.637148
C81	C	0.000139	-1.258229	-0.121544
C82	C	0.250139	-1.008229	0.128456
C83	C	0.500139	-0.758229	0.378456
C84	C	0.750139	-0.508229	0.628456
C85	C	0.000145	-1.360611	-0.123532
C86	C	0.250145	-1.110611	0.126468
C87	C	0.500145	-0.860611	0.376468
C88	C	0.750145	-0.610611	0.626468
C89	C	0.000137	-0.443756	-0.125146
C90	C	0.250137	-0.193756	0.124854
C91	C	0.500137	0.056244	0.374854
C92	C	0.750137	0.306244	0.624854
C93	C	0.000123	-0.548063	-0.127180
C94	C	0.250123	-0.298063	0.122820
C95	C	0.500123	-0.048063	0.372820
C96	C	0.750123	0.201937	0.622820
C97	C	0.000112	-0.631199	-0.128807
C98	C	0.250112	-0.381199	0.121193
C99	C	0.500112	-0.131199	0.371193
C100	C	0.750112	0.118801	0.621193
C101	C	0.000100	-0.735513	-0.130841
C102	C	0.250100	-0.485513	0.119159
C103	C	0.500100	-0.235513	0.369159
C104	C	0.750100	0.014487	0.619159
C105	C	0.000108	-1.083175	-0.296599
C106	C	0.250108	-0.833175	-0.046599
C107	C	0.500108	-0.583175	0.203401
C108	C	0.750108	-0.333175	0.453401
C109	C	0.000101	-1.085162	-0.398981
C110	C	0.250101	-0.835162	-0.148981
C111	C	0.500101	-0.585162	0.101019
C112	C	0.750101	-0.335162	0.351019
C113	C	0.000103	-1.086776	0.517874
C114	C	0.250103	-0.836776	0.767874
C115	C	0.500103	-0.586776	1.017874
C116	C	0.750103	-0.336776	1.267874
C117	C	0.000112	-1.088809	0.413567
C118	C	0.250112	-0.838809	0.663567
C119	C	0.500112	-0.588809	0.913567
C120	C	0.750112	-0.338809	1.163567
C121	C	0.000119	-1.090437	0.330430
C122	C	0.250119	-0.840437	0.580430
C123	C	0.500119	-0.590437	0.830430
C124	C	0.750119	-0.340437	1.080430
C125	C	0.000125	-1.092470	0.226116
C126	C	0.250125	-0.842470	0.476116
C127	C	0.500125	-0.592470	0.726116
C128	C	0.750125	-0.342470	0.976116
H129	H	-0.480617	-1.171443	-0.046190
H130	H	-0.230617	-0.921443	0.203810
H131	H	0.019383	-0.671443	0.453810
H132	H	0.269383	-0.421443	0.703810
H133	H	-0.519142	-1.007824	-0.209801
H134	H	-0.269142	-0.757824	0.040199
H135	H	-0.019142	-0.507824	0.290199
H136	H	0.230858	-0.257824	0.540199
