data_functionalizedCrystal
_audit_creation_method	'MofGen! by Chris Wilmer'
_symmetry_space_group_name_H-M	'P1'
_symmetry_Int_Tables_number	1
_symmetry_cell_setting	triclinic
loop_
_symmetry_equiv_pos_as_xyz
  x,y,z
_cell_length_a	17.077404
_cell_length_b	11.169416
_cell_length_c	11.169409
_cell_angle_alpha	89.969126
_cell_angle_beta	89.976924
_cell_angle_gamma	90.010565
loop_
_atom_site_label
_atom_site_type_symbol
_atom_site_fract_x
_atom_site_fract_y
_atom_site_fract_z
Zn1	Zn	1.200151	-0.477703	-0.678659
Zn2	Zn	1.200078	-0.678443	-0.477981
Zn3	Zn	1.068874	-0.477774	-0.477982
Zn4	Zn	1.068879	-0.678343	-0.678615
O5	O	1.134496	-0.578066	-0.578309
O6	O	1.309988	-0.504344	-0.652057
O7	O	1.182642	-0.651895	-0.310031
O8	O	1.086317	-0.309814	-0.504621
O9	O	1.309935	-0.651827	-0.504620
O10	O	1.182765	-0.309762	-0.652058
O11	O	1.086247	-0.504464	-0.310032
O12	O	0.959028	-0.504367	-0.504578
O13	O	1.086325	-0.651656	-0.846570
O14	O	0.959032	-0.651725	-0.651982
O15	O	1.182770	-0.504247	-0.846603
O16	O	1.182646	-0.846380	-0.504577
O17	O	1.086255	-0.846306	-0.651981
C18	C	0.930548	-0.578044	-0.578276
C19	C	0.843298	-0.578064	-0.578290
C20	C	0.802330	-0.654908	-0.654920
C21	C	0.720350	-0.654911	-0.654940
C22	C	0.679339	-0.578074	-0.578322
C23	C	0.720312	-0.501220	-0.501688
C24	C	0.802291	-0.501213	-0.501676
C25	C	0.549442	-0.501244	-0.501717
C26	C	0.467457	-0.501253	-0.501728
C27	C	0.467501	-0.654942	-0.654981
C28	C	0.549480	-0.654935	-0.654969
C29	C	0.590448	-0.578083	-0.578333
C30	C	1.134465	-0.889890	-0.578300
C31	C	1.134523	-1.023290	-0.578336
C32	C	1.339240	-0.578088	-0.578343
C33	C	1.426490	-0.578098	-0.578358
C34	C	1.134556	-0.577932	-0.891352
C35	C	1.134582	-0.577876	-1.024752
C36	C	1.134548	-0.265023	-0.578345
C37	C	1.134571	-0.131623	-0.578360
C38	C	1.134481	-0.578112	-0.266484
C39	C	1.134607	-0.577831	-0.133085
H40	H	0.582869	-0.717509	-0.717351
C41	C	0.847439	-0.739436	-0.739191
H42	H	0.902131	-0.728438	-0.728202
H43	H	0.834034	-0.721972	-0.819864
H44	H	0.833988	-0.820058	-0.721479
C45	C	0.422343	-0.416747	-0.417443
H46	H	0.367652	-0.427776	-0.428414
H47	H	0.435780	-0.336121	-0.435130
H48	H	0.435755	-0.434233	-0.336771
H49	H	0.686998	-0.717487	-0.717338
H50	H	0.434141	-0.717515	-0.717384
H51	H	0.582796	-0.438652	-0.439323
C52	C	0.675206	-0.416696	-0.417411
H53	H	0.711348	-0.370921	-0.371779
H54	H	0.643205	-0.462548	-0.365044
H55	H	0.643246	-0.364455	-0.463422
H56	H	0.835646	-0.438631	-0.439282
