data_functionalizedCrystal
_audit_creation_method	'MofGen! by Chris Wilmer'
_symmetry_space_group_name_H-M	'P1'
_symmetry_Int_Tables_number	1
_symmetry_cell_setting	triclinic
loop_
_symmetry_equiv_pos_as_xyz
  x,y,z
_cell_length_a	11.792241
_cell_length_b	19.188930
_cell_length_c	10.268362
_cell_angle_alpha	89.989600
_cell_angle_beta	89.999626
_cell_angle_gamma	83.669099
loop_
_atom_site_label
_atom_site_type_symbol
_atom_site_fract_x
_atom_site_fract_y
_atom_site_fract_z
O1	O	1.505476	0.095695	-0.108190
O2	O	2.005476	0.595695	0.391810
O3	O	1.174988	0.105558	-0.108222
O4	O	1.674988	0.605558	0.391778
O5	O	1.349769	-0.000975	-0.108179
O6	O	1.849769	0.499025	0.391821
O7	O	1.330695	0.202228	-0.108232
O8	O	1.830695	0.702228	0.391768
O9	O	1.349754	-0.000980	0.108421
O10	O	1.849754	0.499020	0.608421
O11	O	1.174973	0.105553	0.108379
O12	O	1.674973	0.605553	0.608379
O13	O	1.505461	0.095691	0.108411
O14	O	2.005461	0.595691	0.608411
Cu15	Cu	1.340216	0.100622	0.128172
Cu16	Cu	1.840216	0.600622	0.628172
Cu17	Cu	1.340233	0.100627	-0.127983
Cu18	Cu	1.840233	0.600627	0.372017
O19	O	1.330680	0.202224	0.108368
O20	O	1.830680	0.702224	0.608368
C21	C	1.132699	0.104936	0.000075
C22	C	1.632699	0.604936	0.500075
C23	C	1.006713	0.103082	0.000064
C24	C	1.506713	0.603082	0.500064
C25	C	0.776051	0.099672	0.000102
C26	C	1.276051	0.599672	0.500102
C27	C	0.904408	0.101566	0.000081
C28	C	1.404408	0.601566	0.500081
C29	C	1.349144	-0.026992	0.000125
C30	C	1.849144	0.473008	0.500125
C31	C	1.347290	-0.104507	0.000136
C32	C	1.847290	0.395493	0.500136
C33	C	1.449846	-0.148850	0.000152
C34	C	1.949846	0.351150	0.500152
C35	C	1.448104	-0.221684	0.000131
C36	C	1.948104	0.278316	0.500131
C37	C	1.343800	-0.250171	0.000120
C38	C	1.843800	0.249829	0.500120
C39	C	1.241230	-0.205818	0.000096
C40	C	1.741230	0.294182	0.500096
C41	C	1.242975	-0.132986	0.000104
C42	C	1.742975	0.367014	0.500104
N43	N	1.264067	-0.358629	0.073825
N44	N	1.764067	0.141371	0.573825
N45	N	1.262416	-0.427817	0.073820
N46	N	1.762416	0.072183	0.573820
C47	C	1.338536	-0.469609	0.000093
C48	C	1.838536	0.030391	0.500093
N49	N	1.416387	-0.439602	-0.073614
N50	N	1.916387	0.060398	0.426386
N51	N	1.418041	-0.370407	-0.073603
N52	N	1.918041	0.129593	0.426397
C53	C	1.341896	-0.329144	0.000110
C54	C	1.841896	0.170856	0.500110
C55	C	1.439211	-0.592928	0.000084
C56	C	1.939211	-0.092928	0.500084
C57	C	1.437464	-0.665762	0.000055
C58	C	1.937464	-0.165762	0.500055
C59	C	1.230588	-0.649895	0.000034
C60	C	1.730588	-0.149895	0.500034
C61	C	1.232337	-0.577062	0.000050
C62	C	1.732337	-0.077062	0.500050
C63	C	1.336652	-0.548583	0.000081
C64	C	1.836652	-0.048583	0.500081
C65	C	1.547751	0.096313	0.000111
C66	C	2.047751	0.596313	0.500111
C67	C	1.673737	0.098167	0.000114
C68	C	2.173737	0.598167	0.500114
C69	C	1.331305	0.228240	0.000062
C70	C	1.831305	0.728240	0.500062
C71	C	1.333159	0.305755	0.000042
C72	C	1.833159	0.805755	0.500042
N73	N	1.340211	0.100617	0.308338
N74	N	1.840211	0.600617	0.808338
N75	N	1.340247	0.100625	-0.308149
N76	N	1.840247	0.600625	0.191851
C77	C	1.340228	0.100625	0.574009
C78	C	1.840228	0.600625	1.074009
C79	C	1.340215	0.100623	0.426171
C80	C	1.840215	0.600623	0.926171
H81	H	1.531620	-0.257795	0.000139
H82	H	2.031620	0.242205	0.500139
N83	N	1.138211	-0.087687	0.000123
N84	N	1.638211	0.412313	0.500123
N85	N	1.116101	-0.045293	0.091437
N86	N	1.616101	0.454707	0.591437
H87	H	1.042109	-0.013299	0.091455
H88	H	1.542109	0.486701	0.591455
H89	H	1.534787	-0.125667	0.000173
H90	H	2.034787	0.374333	0.500173
N91	N	1.124042	-0.678985	0.000047
N92	N	1.624042	-0.178985	0.500047
N93	N	1.054976	-0.665552	0.091346
N94	N	1.554976	-0.165552	0.591346
H95	H	0.979724	-0.686099	0.091353
H96	H	1.479724	-0.186099	0.591353
N97	N	1.542231	-0.711059	0.000102
N98	N	2.042231	-0.211059	0.500102
N99	N	1.564320	-0.753479	0.091408
N100	N	2.064320	-0.253479	0.591408
H101	H	1.638314	-0.785470	0.091446
H102	H	2.138314	-0.285470	0.591446
N103	N	1.545769	-0.563843	0.000120
N104	N	2.045769	-0.063843	0.500120
N105	N	1.637333	-0.603447	0.000126
N106	N	2.137333	-0.103447	0.500126
H107	H	1.712593	-0.582909	0.000153
H108	H	2.212593	-0.082909	0.500153
H109	H	1.148825	-0.540957	0.000044
H110	H	1.648825	-0.040957	0.500044
H111	H	1.156305	-0.229017	0.000084
H112	H	1.656305	0.270983	0.500084
