data_functionalizedCrystal
_audit_creation_method	'MofGen! by Chris Wilmer'
_symmetry_space_group_name_H-M	'P1'
_symmetry_Int_Tables_number	1
_symmetry_cell_setting	triclinic
loop_
_symmetry_equiv_pos_as_xyz
  x,y,z
_cell_length_a	8.497374
_cell_length_b	12.759401
_cell_length_c	12.759393
_cell_angle_alpha	90.018496
_cell_angle_beta	90.023627
_cell_angle_gamma	89.994500
loop_
_atom_site_label
_atom_site_type_symbol
_atom_site_fract_x
_atom_site_fract_y
_atom_site_fract_z
Zn1	Zn	-0.627956	1.606404	0.594039
Zn2	Zn	-0.891810	1.606361	0.418384
Zn3	Zn	-0.628039	1.430706	0.418379
Zn4	Zn	-0.891689	1.430757	0.594025
O5	O	-0.759873	1.518557	0.506207
O6	O	-0.662973	1.753419	0.570746
O7	O	-0.856906	1.583020	0.271362
O8	O	-0.407265	1.454009	0.441684
O9	O	-0.856826	1.753388	0.441693
O10	O	-0.407205	1.583094	0.570741
O11	O	-0.663114	1.453968	0.271358
O12	O	-0.662996	1.283692	0.441671
O13	O	-0.856619	1.454096	0.741048
O14	O	-0.856699	1.283729	0.570717
O15	O	-0.662855	1.583144	0.741059
O16	O	-1.112556	1.583070	0.441679
O17	O	-1.112467	1.454055	0.570722
C18	C	-0.759844	1.245590	0.506193
C19	C	-0.759870	1.128813	0.506211
C20	C	-0.860892	1.073998	0.573295
C21	C	-0.860912	0.964274	0.573306
C22	C	-0.658883	0.964189	0.439142
C23	C	-0.658856	1.073912	0.439136
C24	C	-0.977537	1.074046	0.650751
C25	C	-0.977557	0.964322	0.650762
C26	C	-0.169753	1.518553	0.506203
C27	C	-0.348397	1.518558	0.506209
C28	C	-0.759714	1.518630	0.780240
C29	C	-0.759646	1.518662	0.897017
C30	C	-0.759904	1.792590	0.506222
C31	C	-0.759917	1.909367	0.506228
C32	C	-0.759918	1.518544	0.233239
C33	C	-0.759542	1.518716	0.116463
C34	C	-0.658744	1.585866	0.951886
C35	C	-0.658687	1.585891	1.061610
C36	C	-0.860448	1.451505	1.061586
C37	C	-0.860496	1.451475	0.951864
C38	C	-0.542264	1.663456	0.951901
C39	C	-0.542207	1.663481	1.061625
H40	H	-0.576640	0.919475	0.384532
O41	O	-0.581348	1.760606	1.096987
C42	C	-0.652515	1.937579	1.051180
C43	C	-0.608243	1.827636	1.010991
H44	H	-0.674240	1.991810	0.981673
H45	H	-0.763806	1.932344	1.100772
H46	H	-0.552153	1.969995	1.100861
H47	H	-0.708503	1.795156	0.961267
H48	H	-0.496904	1.832938	0.961456
O49	O	-1.116049	1.114615	0.616001
C50	C	-1.396401	1.126405	0.641786
C51	C	-1.239645	1.080412	0.681270
H52	H	-1.496373	1.098752	0.694524
H53	H	-1.390108	1.215641	0.643436
H54	H	-1.418777	1.098813	0.558108
H55	H	-1.217172	1.107924	0.764959
H56	H	-1.246013	0.991181	0.679543
O57	O	-0.396595	1.637505	0.916202
C58	C	-0.231788	1.607984	0.765410
C59	C	-0.396812	1.637412	0.805696
H60	H	-0.231918	1.607879	0.676063
H61	H	-0.142283	1.667563	0.795117
H62	H	-0.199018	1.526644	0.795238
H63	H	-0.429731	1.718728	0.775884
H64	H	-0.486222	1.577767	0.775999
H65	H	-0.426122	1.634340	1.095662
H66	H	-0.576584	1.118538	0.384517
H67	H	-0.933946	0.930314	0.728110
O68	O	-0.938569	1.109431	0.747907
C69	C	-0.867801	1.063667	0.924974
C70	C	-0.911877	1.023451	0.814993
H71	H	-0.846240	0.994173	0.979249
H72	H	-0.756462	1.113243	0.919849
H73	H	-0.968192	1.113369	0.957263
H74	H	-0.811588	0.973705	0.782640
H75	H	-1.023264	0.973931	0.820183
H76	H	-1.099709	0.934555	0.628841
H77	H	-0.942553	1.396802	1.106257
O78	O	-0.958636	1.386144	0.898726
C79	C	-1.158631	1.252775	0.910286
C80	C	-1.047600	1.326737	0.970595
H81	H	-1.230563	1.204709	0.968366
H82	H	-1.241271	1.300926	0.858934
H83	H	-1.086161	1.197881	0.858899
H84	H	-1.119943	1.381646	1.022039
H85	H	-0.964955	1.278521	1.021881
O86	O	-0.594751	1.755568	0.911243
C87	C	-0.788241	1.841295	0.802983
C88	C	-0.728983	1.736912	0.848977
H89	H	-0.896756	1.826245	0.752614
H90	H	-0.819935	1.897133	0.869477
H91	H	-0.691813	1.877781	0.752749
H92	H	-0.825340	1.700335	0.899200
H93	H	-0.697242	1.681146	0.782435
