data_functionalizedCrystal
_audit_creation_method	'MofGen! by Chris Wilmer'
_symmetry_space_group_name_H-M	'P1'
_symmetry_Int_Tables_number	1
_symmetry_cell_setting	triclinic
loop_
_symmetry_equiv_pos_as_xyz
  x,y,z
_cell_length_a	10.540539
_cell_length_b	19.288865
_cell_length_c	18.366186
_cell_angle_alpha	90.011479
_cell_angle_beta	89.994545
_cell_angle_gamma	96.169130
loop_
_atom_site_label
_atom_site_type_symbol
_atom_site_fract_x
_atom_site_fract_y
_atom_site_fract_z
O1	O	1.683714	-0.097883	-0.060499
O2	O	1.314095	-0.107106	-0.060515
O3	O	1.509585	-0.001436	-0.060492
O4	O	1.488224	-0.203554	-0.060522
O5	O	1.509552	-0.001430	0.060607
O6	O	1.314062	-0.107100	0.060585
O7	O	1.683681	-0.097878	0.060600
Zn8	Zn	1.498866	-0.102488	0.079820
Zn9	Zn	1.498910	-0.102495	-0.079734
O10	O	1.488191	-0.203548	0.060578
C11	C	1.508881	0.024448	0.000060
C12	C	1.506818	0.101566	0.000066
C13	C	1.266791	-0.106411	0.000033
C14	C	1.125889	-0.104342	0.000028
C15	C	1.730985	-0.098572	0.000051
C16	C	1.871887	-0.100641	0.000051
C17	C	2.053547	-0.179930	0.000295
C18	C	1.906975	-0.177833	0.000034
C19	C	1.934366	-0.063496	-0.069101
C20	C	2.080851	-0.066131	-0.069171
C21	C	2.081418	-0.064555	0.068541
C22	C	1.934452	-0.063844	0.069468
C23	C	1.488895	-0.229432	0.000024
C24	C	1.490958	-0.306549	0.000013
N25	N	1.498846	-0.102483	0.188711
C26	C	1.621522	0.145496	0.000075
C27	C	1.619584	0.217956	0.000063
C28	C	1.502935	0.246482	0.000058
C29	C	1.388215	0.202542	0.000045
C30	C	1.390157	0.130083	0.000049
C31	C	1.411223	0.355384	0.042472
C32	C	1.409286	0.427841	0.042472
C33	C	1.496941	0.469968	0.000041
C34	C	1.586555	0.439630	-0.042381
C35	C	1.588496	0.367172	-0.042377
C36	C	1.500816	0.325051	0.000052
C37	C	1.609552	0.592469	0.000036
C38	C	1.607609	0.664930	0.000020
C39	C	1.376237	0.649513	0.000009
C40	C	1.378183	0.577054	0.000018
C41	C	1.494844	0.548536	0.000035
N42	N	1.498941	-0.102495	-0.188625
C43	C	1.585437	-0.055716	0.226821
C44	C	1.585445	-0.055713	0.303049
C45	C	1.498874	-0.102489	0.341164
C46	C	1.412267	-0.149260	0.303044
C47	C	1.412253	-0.149257	0.226818
C48	C	1.481882	-0.165663	0.461914
C49	C	1.481905	-0.165667	0.538139
C50	C	1.498910	-0.102498	0.576271
C51	C	1.515919	-0.039322	0.538169
C52	C	1.515905	-0.039319	0.461942
C53	C	1.498879	-0.102497	0.423818
C54	C	1.585514	-0.055723	0.697036
C55	C	1.585514	-0.055719	0.773266
C56	C	1.412342	-0.149273	0.773259
C57	C	1.412336	-0.149271	0.697031
C58	C	1.498930	-0.102497	0.658925
H59	H	1.863725	-0.207064	0.049603
H60	H	1.529751	0.012121	0.430922
H61	H	1.913275	-0.006809	-0.071661
H62	H	2.112422	-0.089535	0.120949
N63	N	1.464544	-0.230198	0.422973
N64	N	1.541673	-0.274433	0.431469
H65	H	1.529436	-0.320009	0.403966
N66	N	1.853773	-0.214748	-0.062270
N67	N	1.793563	-0.183915	-0.108616
H68	H	1.755995	-0.209987	-0.152623
N69	N	2.142200	0.005392	0.069145
N70	N	2.076352	0.055533	0.067425
H71	H	2.119282	0.104932	0.067846
H72	H	1.339841	0.321089	0.077029
H73	H	1.891151	-0.089286	-0.120564
N74	N	1.673950	-0.007909	0.658145
N75	N	1.752677	-0.030292	0.615596
H76	H	1.815135	0.003494	0.588149
H77	H	1.716517	0.122282	0.000086
H78	H	2.130057	-0.010616	-0.072315
N79	N	1.323837	-0.197032	0.341984
N80	N	1.323861	-0.197029	0.410043
H81	H	1.261400	-0.230767	0.437545
N82	N	1.882355	-0.097906	0.133641
N83	N	1.799452	-0.149091	0.128329
H84	H	1.762655	-0.173151	0.173650
H85	H	1.712993	0.253732	0.000067
H86	H	1.341738	-0.187341	0.195787
H87	H	1.296748	0.094314	0.000043
N88	N	1.269048	0.231663	0.000037
N89	N	1.191821	0.218398	-0.051013
H90	H	1.107653	0.238963	-0.051022
N91	N	1.905630	0.006755	0.074717
N92	N	1.838213	0.031210	0.027168
H93	H	1.817858	0.081074	0.030870
H94	H	1.661460	0.342474	-0.076920
H95	H	2.081474	-0.210421	0.049878
N96	N	1.323899	-0.197041	0.658085
N97	N	1.245239	-0.174585	0.615562
H98	H	1.182775	-0.208323	0.588054
N99	N	1.533271	0.025204	0.577120
N100	N	1.533258	0.025196	0.645178
H101	H	1.545507	0.070766	0.672692
N102	N	1.676105	0.482663	-0.085714
N103	N	1.674365	0.547357	-0.085713
H104	H	1.737613	0.577753	-0.116312
H105	H	2.083071	-0.210300	-0.049027
H106	H	1.704544	0.569249	0.000046
N107	N	1.724795	0.709797	0.000018
N108	N	1.828940	0.684322	0.000030
H109	H	1.911706	0.716009	0.000029
H110	H	1.655960	-0.017627	0.334084
N111	N	2.115443	-0.100574	-0.134031
N112	N	2.031439	-0.122504	-0.178930
H113	H	2.055861	-0.146832	-0.224739
N114	N	1.674001	-0.007993	0.187909
N115	N	1.751381	0.033722	0.221951
H116	H	1.813970	0.067405	0.194469
N117	N	1.257092	0.678654	-0.000005
N118	N	1.255371	0.743349	-0.000013
H119	H	1.171222	0.763934	-0.000025
H120	H	1.284778	0.541284	0.000015
N121	N	1.673968	-0.007934	0.812186
N122	N	1.751267	0.033823	0.778149
H123	H	1.813740	0.067573	0.805637
H124	H	1.336312	0.452536	0.077011
H125	H	1.341849	-0.187356	0.804291
H126	H	1.468063	-0.217109	0.569156
