data_functionalizedCrystal
_audit_creation_method	'MofGen! by Chris Wilmer'
_symmetry_space_group_name_H-M	'P1'
_symmetry_Int_Tables_number	1
_symmetry_cell_setting	triclinic
loop_
_symmetry_equiv_pos_as_xyz
  x,y,z
_cell_length_a	13.032831
_cell_length_b	25.639239
_cell_length_c	13.032268
_cell_angle_alpha	97.141717
_cell_angle_beta	90.886977
_cell_angle_gamma	82.842759
loop_
_atom_site_label
_atom_site_type_symbol
_atom_site_fract_x
_atom_site_fract_y
_atom_site_fract_z
Zn1	Zn	1.498234	-0.353075	-0.780741
Zn2	Zn	1.998234	0.146925	-0.280741
Zn3	Zn	1.519922	-0.430970	-0.608740
Zn4	Zn	2.019922	0.069030	-0.108740
Zn5	Zn	1.348108	-0.331235	-0.586988
Zn6	Zn	1.848108	0.168765	-0.086988
Zn7	Zn	1.326172	-0.428143	-0.758866
Zn8	Zn	1.826172	0.071857	-0.258866
O9	O	1.423109	-0.385856	-0.683834
O10	O	1.923109	0.114144	-0.183834
O11	O	1.645024	-0.373731	-0.776183
O12	O	2.145024	0.126269	-0.276183
O13	O	1.515387	-0.409782	-0.461940
O14	O	2.015387	0.090218	0.038060
O15	O	1.368126	-0.260977	-0.612741
O16	O	1.868126	0.239023	-0.112741
O17	O	1.660959	-0.430960	-0.649815
O18	O	2.160959	0.069040	-0.149815
O19	O	1.478423	-0.277023	-0.755090
O20	O	1.978423	0.222977	-0.255090
O21	O	1.389156	-0.336508	-0.445959
O22	O	1.889156	0.163492	0.054041
O23	O	1.201284	-0.333767	-0.591530
O24	O	1.701284	0.166233	-0.091530
O25	O	1.330740	-0.426142	-0.905683
O26	O	1.830740	0.073858	-0.405683
O27	O	1.185169	-0.404965	-0.717808
O28	O	1.685169	0.095035	-0.217808
O29	O	1.457153	-0.370990	-0.921754
O30	O	1.957153	0.129010	-0.421754
O31	O	1.494117	-0.503750	-0.628604
O32	O	1.994117	-0.003750	-0.128604
O33	O	1.351770	-0.501673	-0.738901
O34	O	1.851770	-0.001673	-0.238901
C35	C	1.155911	-0.366689	-0.649935
C36	C	1.655911	0.133311	-0.149935
C37	C	1.041600	-0.358504	-0.635458
C38	C	1.541600	0.141496	-0.135458
C39	C	0.982702	-0.390128	-0.691390
C40	C	1.482702	0.109872	-0.191390
C41	C	0.864555	-0.381668	-0.676428
C42	C	1.364555	0.118332	-0.176428
C43	C	1.422942	-0.521683	-0.683765
C44	C	1.922942	-0.021683	-0.183765
C45	C	1.422960	-0.579799	-0.683782
C46	C	1.922960	-0.079799	-0.183782
C47	C	1.497387	-0.941263	-0.626536
C48	C	1.997387	-0.441263	-0.126536
C49	C	1.497425	-0.995870	-0.626555
C50	C	1.997425	-0.495870	-0.126555
O51	O	1.560532	-1.025027	-0.577808
O52	O	2.060532	-0.525027	-0.077808
N53	N	1.423281	-1.022111	-0.683925
N54	N	1.923281	-0.522111	-0.183925
C55	C	1.349101	-0.993742	-0.741288
C56	C	1.849101	-0.493742	-0.241288
O57	O	1.286040	-1.021077	-0.790088
O58	O	1.786040	-0.521077	-0.290088
C59	C	1.349068	-0.939136	-0.741275
C60	C	1.849068	-0.439136	-0.241275
C61	C	1.423210	-0.912897	-0.683893
C62	C	1.923210	-0.412897	-0.183893
C63	C	1.571523	-0.915024	-0.569160
C64	C	2.071523	-0.415024	-0.069160
C65	C	1.571484	-0.860419	-0.569140
C66	C	2.071484	-0.360419	-0.069140
C67	C	1.497307	-0.832054	-0.626496
C68	C	1.997307	-0.332054	-0.126496
C69	C	1.423171	-0.858293	-0.683872
C70	C	1.923171	-0.358293	-0.183872
C71	C	1.274894	-0.910769	-0.798643
C72	C	1.774894	-0.410769	-0.298643
C73	C	1.274868	-0.856159	-0.798625
C74	C	1.774868	-0.356159	-0.298625
C75	C	1.349010	-0.829920	-0.741243
C76	C	1.849010	-0.329920	-0.241243
C77	C	1.348955	-0.775323	-0.741209
C78	C	1.848955	-0.275323	-0.241209
N79	N	1.423098	-0.749082	-0.683839
N80	N	1.923098	-0.249082	-0.183839
C81	C	1.497275	-0.777448	-0.626482
C82	C	1.997275	-0.277448	-0.126482
C83	C	1.349176	-1.108419	-0.741314
C84	C	1.849176	-0.608419	-0.241314
C85	C	1.349204	-1.163024	-0.741322
C86	C	1.849204	-0.663024	-0.241322
C87	C	1.497529	-1.165149	-0.626590
C88	C	1.997529	-0.665149	-0.126590
C89	C	1.497496	-1.110542	-0.626577
C90	C	1.997496	-0.610542	-0.126577
C91	C	1.423320	-1.082179	-0.683944
C92	C	1.923320	-0.582179	-0.183944
C93	C	1.497185	-0.662774	-0.626444
C94	C	1.997185	-0.162774	-0.126444
C95	C	1.497137	-0.608165	-0.626425
C96	C	1.997137	-0.108165	-0.126425
C97	C	1.348815	-0.606046	-0.741161
C98	C	1.848815	-0.106046	-0.241161
C99	C	1.348860	-0.660650	-0.741176
C100	C	1.848860	-0.160650	-0.241176
C101	C	1.423054	-0.689013	-0.683815
C102	C	1.923054	-0.189013	-0.183815
O103	O	1.285883	-0.746133	-0.789934
O104	O	1.785883	-0.246133	-0.289934
O105	O	1.560333	-0.750108	-0.577701
O106	O	2.060333	-0.250108	-0.077701
C107	C	1.691350	-0.405097	-0.717865
C108	C	2.191350	0.094903	-0.217865
C109	C	1.805658	-0.413297	-0.732368
C110	C	2.305658	0.086703	-0.232368
C111	C	1.389080	-0.400687	-0.952077
C112	C	1.889080	0.099313	-0.452077
C113	C	1.374579	-0.407007	-1.066386
C114	C	1.874579	0.092993	-0.566386
C115	C	1.423302	-0.249501	-0.683929
C116	C	1.923302	0.250499	-0.183929
C117	C	1.423384	-0.191395	-0.683970
C118	C	1.923384	0.308605	-0.183970
C119	C	1.430661	-0.382537	-1.125301
C120	C	1.930661	0.117463	-0.625301
C121	C	1.415675	-0.389069	-1.243446
C122	C	1.915675	0.110931	-0.743446
C123	C	1.457064	-0.371048	-0.416642
C124	C	1.957064	0.128952	0.083358
C125	C	1.471765	-0.364595	-0.302358
C126	C	1.971765	0.135405	0.197642
H127	H	0.827516	-0.348327	-0.617466
H128	H	1.327516	0.151673	-0.117466
C129	C	1.267306	-0.689514	-0.804292
C130	C	1.767306	-0.189514	-0.304292
H131	H	1.223127	-0.664798	-0.838452
H132	H	1.723127	-0.164798	-0.338452
H133	H	1.227538	-0.705466	-0.759252
H134	H	1.727538	-0.205466	-0.259252
H135	H	1.300949	-0.716079	-0.854136
H136	H	1.800949	-0.216079	-0.354136
H137	H	1.356556	-0.414852	-1.280468
H138	H	1.856556	0.085148	-0.780468
C139	C	1.267232	-0.574837	-0.804254
C140	C	1.767232	-0.074837	-0.304254
H141	H	1.277842	-0.538560	-0.796029
H142	H	1.777842	-0.038560	-0.296029
H143	H	1.200062	-0.578034	-0.780397
H144	H	1.700062	-0.078034	-0.280397
H145	H	1.273480	-0.588662	-0.875275
H146	H	1.773480	-0.088662	-0.375275
H147	H	1.530872	-0.338804	-1.265336
H148	H	2.030872	0.161196	-0.765336
H149	H	0.842695	-0.446633	-0.791340
H150	H	1.342695	0.053367	-0.291340
H151	H	1.288821	-1.184382	-0.788038
H152	H	1.788821	-0.684382	-0.288038
C153	C	0.991568	-0.313466	-0.555808
C154	C	1.491568	0.186534	-0.055808
H155	H	0.918723	-0.313690	-0.556198
H156	H	1.418723	0.186310	-0.056198
H157	H	1.007240	-0.280439	-0.573197
H158	H	1.507240	0.219561	-0.073197
H159	H	1.017866	-0.318489	-0.488880
H160	H	1.517866	0.181511	0.011120
H161	H	1.315465	-0.432789	-1.103413
H162	H	1.815465	0.067211	-0.603413
H163	H	1.489766	-0.356749	-1.088273
H164	H	1.989766	0.143251	-0.588273
H165	H	1.288765	-1.085327	-0.788025
H166	H	1.788765	-0.585327	-0.288025
H167	H	1.019744	-0.423463	-0.750355
H168	H	1.519744	0.076537	-0.250355
C169	C	1.578684	-0.579301	-0.563291
C170	C	2.078684	-0.079301	-0.063291
H171	H	1.568033	-0.542715	-0.571478
H172	H	2.068033	-0.042715	-0.071478
H173	H	1.645865	-0.593995	-0.587154
H174	H	2.145865	-0.093995	-0.087154
H175	H	1.572442	-0.583380	-0.492280
H176	H	2.072442	-0.083380	0.007720
C177	C	1.578790	-0.693966	-0.563340
C178	C	2.078790	-0.193966	-0.063340
H179	H	1.622925	-0.670511	-0.529162
H180	H	2.122925	-0.170511	-0.029162
H181	H	1.618596	-0.720625	-0.608392
H182	H	2.118596	-0.220625	-0.108392
H183	H	1.545182	-0.709997	-0.513511
H184	H	2.045182	-0.209997	-0.013511
H185	H	1.631859	-0.839059	-0.522418
H186	H	2.131859	-0.339059	-0.022418
C187	C	1.653119	-0.946217	-0.506055
C188	C	2.153119	-0.446217	-0.006055
H189	H	1.697255	-0.922761	-0.471881
H190	H	2.197255	-0.422761	0.028119
H191	H	1.692925	-0.972879	-0.551103
H192	H	2.192925	-0.472879	-0.051103
H193	H	1.619510	-0.962244	-0.456223
H194	H	2.119510	-0.462244	0.043777
H195	H	1.557869	-1.089182	-0.579852
H196	H	2.057869	-0.589182	-0.079852
H197	H	1.557930	-1.188254	-0.579892
H198	H	2.057930	-0.688254	-0.079892
H199	H	1.214515	-0.932122	-0.845364
H200	H	1.714515	-0.432122	-0.345364
H201	H	1.214465	-0.833068	-0.845344
H202	H	1.714465	-0.333068	-0.345344
