data_functionalizedCrystal
_audit_creation_method	'MofGen! by Chris Wilmer'
_symmetry_space_group_name_H-M	'P1'
_symmetry_Int_Tables_number	1
_symmetry_cell_setting	triclinic
loop_
_symmetry_equiv_pos_as_xyz
  x,y,z
_cell_length_a	16.992701
_cell_length_b	14.519709
_cell_length_c	15.455313
_cell_angle_alpha	92.669068
_cell_angle_beta	87.136501
_cell_angle_gamma	87.173657
loop_
_atom_site_label
_atom_site_type_symbol
_atom_site_fract_x
_atom_site_fract_y
_atom_site_fract_z
O1	O	1.044098	0.191778	-0.072140
O2	O	1.544098	0.691778	0.427860
O3	O	0.815809	0.189634	-0.072141
O4	O	1.315809	0.689634	0.427859
O5	O	0.936006	0.056902	-0.072133
O6	O	1.436006	0.556902	0.427867
O7	O	0.923901	0.324510	-0.072148
O8	O	1.423901	0.824510	0.427852
O9	O	0.929132	0.064459	0.072129
O10	O	1.429132	0.564459	0.572129
O11	O	0.808936	0.197191	0.072121
O12	O	1.308936	0.697191	0.572121
O13	O	1.037224	0.199334	0.072121
O14	O	1.537224	0.699334	0.572121
Cu15	Cu	0.922452	0.198953	0.085293
Cu16	Cu	1.422452	0.698953	0.585293
Cu17	Cu	0.930581	0.190016	-0.085313
Cu18	Cu	1.430581	0.690016	0.414687
O19	O	0.917028	0.332067	0.072113
O20	O	1.417028	0.832067	0.572113
C21	C	0.783156	0.190653	-0.000010
C22	C	1.283156	0.690653	0.499990
C23	C	0.696100	0.182419	-0.000010
C24	C	1.196100	0.682419	0.499990
C25	C	0.932005	0.026280	-0.000002
C26	C	1.432005	0.526280	0.499998
C27	C	0.930314	-0.076222	-0.000001
C28	C	1.430314	0.423778	0.499999
C29	C	0.207063	0.127091	-0.000010
C30	C	0.707063	0.627091	0.499990
C31	C	0.288860	0.134835	-0.000005
C32	C	0.788860	0.634835	0.499995
C33	C	0.320526	0.222039	-0.000014
C34	C	0.820526	0.722039	0.499986
C35	C	0.270390	0.301504	-0.000019
C36	C	0.770390	0.801504	0.499981
C37	C	0.188594	0.293759	-0.000017
C38	C	0.688594	0.793759	0.499983
C39	C	0.564168	0.254139	-0.000013
C40	C	1.064168	0.754139	0.499987
C41	C	0.645971	0.261878	-0.000017
C42	C	1.145971	0.761878	0.499983
C43	C	0.664435	0.095208	-0.000002
C44	C	1.164435	0.595208	0.499998
C45	C	0.582637	0.087470	-0.000005
C46	C	1.082637	0.587470	0.499995
C47	C	0.532508	0.166935	-0.000006
C48	C	1.032508	0.666935	0.499994
N49	N	0.404136	0.229957	-0.000012
N50	N	0.904136	0.729957	0.499988
N51	N	0.448900	0.159017	-0.000002
N52	N	0.948900	0.659017	0.499998
C53	C	0.924092	-0.451566	-0.000024
C54	C	1.424092	0.048434	0.499976
C55	C	0.925820	-0.347133	-0.000017
C56	C	1.425820	0.152867	0.499983
C57	C	0.927203	-0.263897	-0.000012
C58	C	1.427203	0.236103	0.499988
C59	C	0.928931	-0.159458	-0.000007
C60	C	1.428931	0.340542	0.499993
C61	C	1.069877	0.198316	-0.000011
C62	C	1.569877	0.698316	0.499989
C63	C	1.156933	0.206550	-0.000017
C64	C	1.656933	0.706550	0.499983
C65	C	0.921029	0.362688	-0.000019
C66	C	1.421029	0.862688	0.499981
C67	C	0.922720	0.465191	-0.000026
C68	C	1.422720	0.965191	0.499974
N69	N	0.916741	0.205238	0.205289
N70	N	1.416741	0.705238	0.705289
N71	N	0.936299	0.183724	-0.205308
N72	N	1.436299	0.683724	0.294692
C73	C	0.967822	0.148873	0.250686
C74	C	1.467822	0.648873	0.750686
C75	C	0.963510	0.153635	0.341494
C76	C	1.463510	0.653635	0.841494
C77	C	0.908120	0.214769	0.386902
C78	C	1.408120	0.714769	0.886902
C79	C	0.857033	0.271137	0.341498
C80	C	1.357033	0.771137	0.841498
C81	C	0.861342	0.266369	0.250692
C82	C	1.361342	0.766369	0.750692
C83	C	0.889521	0.235324	0.658482
C84	C	1.389521	0.735324	1.158482
C85	C	0.885217	0.240089	0.749295
C86	C	1.385217	0.740089	1.249295
C87	C	0.991694	0.122586	0.749284
C88	C	1.491694	0.622586	1.249284
C89	C	0.996001	0.117827	0.658476
C90	C	1.496001	0.617827	1.158476
C91	C	0.944912	0.174192	0.613080
C92	C	1.444912	0.674192	1.113080
N93	N	0.903712	0.219640	0.479722
N94	N	1.403712	0.719640	0.979722
N95	N	0.949316	0.169315	0.520262
N96	N	1.449316	0.669315	1.020262
H97	H	0.181288	0.056080	-0.000008
H98	H	0.681288	0.556080	0.499992
N99	N	0.137384	0.374925	-0.000009
N100	N	0.637384	0.874925	0.499991
N101	N	0.137440	0.434772	0.060799
N102	N	0.637440	0.934772	0.560799
H103	H	0.101272	0.492099	0.060811
H104	H	0.601272	0.992099	0.560811
H105	H	0.329673	0.070131	0.000005
H106	H	0.829673	0.570131	0.500005
H107	H	0.840109	0.289876	0.786262
H108	H	1.340109	0.789876	1.286262
N109	N	1.052628	0.055372	0.612177
N110	N	1.552628	0.555372	1.112177
N111	N	1.030180	-0.006456	0.561526
N112	N	1.530180	0.493544	1.061526
H113	H	1.070197	-0.050562	0.528857
H114	H	1.570197	0.449438	1.028857
N115	N	0.678319	0.350959	-0.000004
N116	N	1.178319	0.850959	0.499996
N117	N	0.719009	0.377051	0.060805
N118	N	1.219009	0.877051	0.560805
H119	H	0.741857	0.439961	0.060814
H120	H	1.241857	0.939961	0.560814
H121	H	0.523362	0.318845	-0.000018
H122	H	1.023362	0.818845	0.499982
H123	H	0.296178	0.372508	-0.000021
H124	H	0.796178	0.872508	0.499979
H125	H	0.705259	0.030512	-0.000000
H126	H	1.205259	0.530512	0.500000
N127	N	1.024366	0.086368	0.204320
N128	N	1.524366	0.586368	0.704320
N129	N	1.069937	0.036006	0.244869
N130	N	1.569937	0.536006	0.744869
H131	H	1.109855	-0.008164	0.212126
H132	H	1.609855	0.491836	0.712126
N133	N	0.809166	0.323935	0.204303
N134	N	1.309166	0.823935	0.704303
N135	N	0.762858	0.288387	0.153651
N136	N	1.262858	0.788387	0.653651
H137	H	0.726006	0.329042	0.120888
H138	H	1.226006	0.829042	0.620888
H139	H	1.005104	0.107737	0.378456
H140	H	1.505104	0.607737	0.878456
H141	H	0.556862	0.016459	0.000002
H142	H	1.056862	0.516459	0.500002
N143	N	1.043872	0.065021	0.795669
N144	N	1.543872	0.565021	1.295669
N145	N	1.040021	0.069283	0.876744
N146	N	1.540021	0.569283	1.376744
H147	H	1.076872	0.028624	0.909505
H148	H	1.576872	0.528624	1.409505
N149	N	0.837327	0.292900	0.612133
N150	N	1.337327	0.792900	1.112133
N151	N	0.787876	0.347477	0.652690
N152	N	1.287876	0.847477	1.152690
H153	H	0.751010	0.388143	0.619953
H154	H	1.251010	0.888143	1.119953
N155	N	0.800451	0.333572	0.387892
N156	N	1.300451	0.833572	0.887892
N157	N	0.796610	0.337822	0.468968
N158	N	1.296610	0.837822	0.968968
H159	H	0.756649	0.381919	0.501734
H160	H	1.256649	0.881919	1.001734
