data_functionalizedCrystal
_audit_creation_method	'MofGen! by Chris Wilmer'
_symmetry_space_group_name_H-M	'P1'
_symmetry_Int_Tables_number	1
_symmetry_cell_setting	triclinic
loop_
_symmetry_equiv_pos_as_xyz
  x,y,z
_cell_length_a	18.050591
_cell_length_b	19.121073
_cell_length_c	19.121605
_cell_angle_alpha	90.073009
_cell_angle_beta	87.549226
_cell_angle_gamma	92.469207
loop_
_atom_site_label
_atom_site_type_symbol
_atom_site_fract_x
_atom_site_fract_y
_atom_site_fract_z
Zn1	Zn	1.141878	-0.262235	-0.408204
Zn2	Zn	1.641878	0.237765	0.091796
Zn3	Zn	1.131207	-0.384477	-0.295956
Zn4	Zn	1.631207	0.115523	0.204044
Zn5	Zn	1.012181	-0.267253	-0.290989
Zn6	Zn	1.512181	0.232747	0.209011
Zn7	Zn	1.012580	-0.379436	-0.413162
Zn8	Zn	1.512580	0.120564	0.086838
O9	O	1.074462	-0.323350	-0.352078
O10	O	1.574462	0.176650	0.147922
O11	O	1.244387	-0.278460	-0.393317
O12	O	1.744387	0.221540	0.106683
O13	O	1.110785	-0.373136	-0.197191
O14	O	1.610785	0.126864	0.302809
O15	O	1.033685	-0.168480	-0.302384
O16	O	1.533685	0.331520	0.197616
O17	O	1.236547	-0.368270	-0.310850
O18	O	1.736547	0.131730	0.189150
O19	O	1.128973	-0.164793	-0.388501
O20	O	1.628973	0.335207	0.111499
O21	O	1.023338	-0.287013	-0.193542
O22	O	1.523338	0.212987	0.306458
O23	O	0.908310	-0.282125	-0.307192
O24	O	1.408310	0.217875	0.192808
O25	O	1.034364	-0.359679	-0.510610
O26	O	1.534364	0.140321	-0.010610
O27	O	0.908603	-0.364545	-0.396951
O28	O	1.408603	0.135455	0.103049
O29	O	1.129359	-0.273572	-0.506967
O30	O	1.629359	0.226428	-0.006967
O31	O	1.111171	-0.481915	-0.315657
O32	O	1.611171	0.018085	0.184343
O33	O	1.024017	-0.478212	-0.401768
O34	O	1.524017	0.021788	0.098232
C35	C	0.881510	-0.323333	-0.352071
C36	C	1.381510	0.176667	0.147929
C37	C	0.798964	-0.323342	-0.352086
C38	C	1.298964	0.176658	0.147914
C39	C	0.550312	-0.368262	-0.400837
C40	C	1.050312	0.131738	0.099163
C41	C	0.595934	-0.388056	-0.337572
C42	C	1.095934	0.111944	0.162428
C43	C	0.501843	-0.323364	-0.352085
C44	C	1.001843	0.176636	0.147915
C45	C	0.603302	-0.303593	-0.415348
C46	C	1.103302	0.196407	0.084652
C47	C	0.647829	-0.323355	-0.352089
C48	C	1.147829	0.176645	0.147911
C49	C	0.546374	-0.343193	-0.288788
C50	C	1.046374	0.156807	0.211212
C51	C	0.553741	-0.258698	-0.366605
C52	C	1.053741	0.241302	0.133395
C53	C	0.599340	-0.278470	-0.303295
C54	C	1.099340	0.221530	0.196705
C55	C	0.417744	-0.323371	-0.352084
C56	C	0.917744	0.176629	0.147916
C57	C	0.731925	-0.323348	-0.352083
C58	C	1.231925	0.176652	0.147917
C59	C	1.066500	-0.505501	-0.359805
C60	C	1.566500	-0.005501	0.140195
C61	C	1.063163	-0.583425	-0.363134
C62	C	1.563163	-0.083425	0.136866
C63	C	1.042040	-1.024049	-0.384266
C64	C	1.542040	-0.524049	0.115734
C65	C	1.045175	-0.950832	-0.381130
C66	C	1.545175	-0.450832	0.118870
C67	C	1.092156	-0.916129	-0.334761
C68	C	1.592156	-0.416129	0.165239
C69	C	1.136011	-0.954647	-0.291530
C70	C	1.636011	-0.454647	0.208470
C71	C	1.132880	-1.027863	-0.294670
C72	C	1.632880	-0.527863	0.205330
C73	C	1.103887	-0.695159	-0.323043
C74	C	1.603887	-0.195159	0.176957
C75	C	1.107013	-0.621938	-0.319905
C76	C	1.607013	-0.121938	0.180095
C77	C	1.016178	-0.618128	-0.409506
C78	C	1.516178	-0.118128	0.090494
C79	C	1.013047	-0.691345	-0.412638
C80	C	1.513047	-0.191345	0.087362
C81	C	1.056905	-0.729857	-0.369410
C82	C	1.556905	-0.229857	0.130590
C83	C	1.095360	-0.841289	-0.331553
C84	C	1.595360	-0.341289	0.168447
C85	C	1.053704	-0.804695	-0.372622
C86	C	1.553704	-0.304695	0.127378
C87	C	1.268167	-0.323368	-0.352085
C88	C	1.768167	0.176632	0.147915
C89	C	1.350712	-0.323375	-0.352087
C90	C	1.850712	0.176625	0.147913
C91	C	1.083096	-0.315504	-0.534937
C92	C	1.583096	0.184496	-0.034937
C93	C	1.086776	-0.312160	-0.612861
C94	C	1.586776	0.187840	-0.112861
C95	C	1.082475	-0.140487	-0.344336
C96	C	1.582475	0.359513	0.155664
C97	C	1.085890	-0.062562	-0.341037
C98	C	1.585890	0.437438	0.158963
C99	C	1.110105	-0.291004	-1.053488
C100	C	1.610105	0.208996	-0.553488
C101	C	1.106643	-0.294149	-0.980270
C102	C	1.606643	0.205851	-0.480270
C103	C	1.055450	-0.340548	-0.945561
C104	C	1.555450	0.159452	-0.445561
C105	C	1.007721	-0.383811	-0.984074
C106	C	1.507721	0.116189	-0.484074
C107	C	1.011187	-0.380669	-1.057290
C108	C	1.511187	0.119331	-0.557290
C109	C	1.042513	-0.352281	-0.724590
C110	C	1.542513	0.147719	-0.224590
C111	C	1.039049	-0.355418	-0.651368
C112	C	1.539049	0.144582	-0.151368
C113	C	1.137973	-0.265756	-0.647570
C114	C	1.637973	0.234244	-0.147570
C115	C	1.141431	-0.262616	-0.720788
C116	C	1.641431	0.237384	-0.220788
C117	C	1.093705	-0.305881	-0.759294
C118	C	1.593705	0.194119	-0.259294
C119	C	1.051908	-0.343763	-0.870721
C120	C	1.551908	0.156237	-0.370721
C121	C	1.097251	-0.302670	-0.834133
C122	C	1.597251	0.197330	-0.334133
C123	C	1.065905	-0.331115	-0.169927
C124	C	1.565905	0.168885	0.330073
C125	C	1.062378	-0.334262	-0.091995
C126	C	1.562378	0.165738	0.408005
H127	H	0.521582	-0.359978	-0.235277
H128	H	1.021582	0.140022	0.264723
H129	H	0.628182	-0.286874	-0.468847
H130	H	1.128182	0.213126	0.031153
H131	H	1.168589	-1.059219	-0.259470
H132	H	1.668589	-0.559219	0.240530
C133	C	1.002026	-0.842867	-0.423627
C134	C	1.502026	-0.342867	0.076373
C135	C	0.940159	-0.894574	-0.395358
C136	C	1.440159	-0.394574	0.104642
C137	C	0.888478	-0.932753	-0.446360
C138	C	1.388478	-0.432753	0.053640
C139	C	0.898664	-0.919225	-0.525631
C140	C	1.398664	-0.419225	-0.025631
C141	C	0.960533	-0.867515	-0.553904
C142	C	1.460533	-0.367515	-0.053904
C143	C	1.012214	-0.829336	-0.502902
C144	C	1.512214	-0.329336	-0.002902
H145	H	0.932616	-0.904590	-0.336673
H146	H	1.432616	-0.404590	0.163327
H147	H	0.842678	-0.971031	-0.425431
H148	H	1.342678	-0.471031	0.074569
H149	H	0.860406	-0.947487	-0.563386
H150	H	1.360406	-0.447487	-0.063386
H151	H	0.968076	-0.857499	-0.612589
H152	H	1.468076	-0.357499	-0.112589
H153	H	1.058014	-0.791058	-0.523831
H154	H	1.558014	-0.291058	-0.023831
C155	C	0.989980	-0.399852	-0.766925
C156	C	1.489980	0.100148	-0.266925
C157	C	0.992026	-0.479987	-0.760226
C158	C	1.492026	0.020013	-0.260226
C159	C	0.939475	-0.527552	-0.802557
C160	C	1.439475	-0.027552	-0.302557
C161	C	0.884879	-0.494982	-0.851587
C162	C	1.384879	0.005018	-0.351587
C163	C	0.882831	-0.414843	-0.858288
C164	C	1.382831	0.085157	-0.358288
C165	C	0.935382	-0.367278	-0.815957
C166	C	1.435382	0.132722	-0.315957
H167	H	1.032443	-0.504100	-0.723929
H168	H	1.532443	-0.004100	-0.223929
H169	H	0.940991	-0.586876	-0.797596
H170	H	1.440991	-0.086876	-0.297596
H171	H	0.845978	-0.530192	-0.882923
H172	H	1.345978	-0.030192	-0.382923
H173	H	0.842414	-0.390729	-0.894585
H174	H	1.342414	0.109271	-0.394585
H175	H	0.933866	-0.307953	-0.820918
H176	H	1.433866	0.192047	-0.320918
C177	C	0.982748	-0.406487	-0.613201
C178	C	1.482748	0.093513	-0.113201
C179	C	1.010158	-0.463690	-0.565207
C180	C	1.510158	0.036310	-0.065207
C181	C	0.953866	-0.514765	-0.527046
C182	C	1.453866	-0.014765	-0.027046
C183	C	0.870164	-0.508636	-0.536878
C184	C	1.370164	-0.008636	-0.036878
C185	C	0.842750	-0.451430	-0.584874
C186	C	1.342750	0.048570	-0.084874
C187	C	0.899043	-0.400355	-0.623035
C188	C	1.399043	0.099645	-0.123035
H189	H	1.072122	-0.468229	-0.557927
H190	H	1.572122	0.031771	-0.057927
H191	H	0.974159	-0.557113	-0.491516
H192	H	1.474159	-0.057113	0.008484
H193	H	0.828493	-0.546445	-0.508629
H194	H	1.328493	-0.046445	-0.008629
H195	H	0.780786	-0.446891	-0.592154
H196	H	1.280786	0.053109	-0.092154
H197	H	0.878749	-0.358008	-0.658565
H198	H	1.378749	0.141992	-0.158565
H199	H	1.009469	-0.919475	-0.416331
H200	H	1.509469	-0.419475	0.083669
C201	C	0.958690	-0.428255	-1.099655
C202	C	1.458690	0.071745	-0.599655
C203	C	0.960783	-0.508387	-1.092959
C204	C	1.460783	-0.008387	-0.592959
C205	C	0.908290	-0.555978	-1.135324
C206	C	1.408290	-0.055978	-0.635324
C207	C	0.853704	-0.523437	-1.184384
C208	C	1.353704	-0.023437	-0.684384
C209	C	0.851609	-0.443301	-1.191081
C210	C	1.351609	0.056699	-0.691081
C211	C	0.904102	-0.395710	-1.148716
C212	C	1.404102	0.104290	-0.648716
H213	H	1.001193	-0.532479	-1.056641
H214	H	1.501193	-0.032479	-0.556641
H215	H	0.909842	-0.615300	-1.130366
H216	H	1.409842	-0.115300	-0.630366
H217	H	0.814846	-0.558667	-1.215745
H218	H	1.314846	-0.058667	-0.715745
H219	H	0.811199	-0.419208	-1.227400
H220	H	1.311199	0.080792	-0.727400
H221	H	0.902551	-0.336387	-1.153674
H222	H	1.402551	0.163613	-0.653674
H223	H	1.139596	-0.726507	-0.287841
H224	H	1.639596	-0.226507	0.212159
H225	H	1.151788	-0.253215	-1.081742
H226	H	1.651788	0.246785	-0.581742
C227	C	1.147036	-0.803111	-0.280547
C228	C	1.647036	-0.303111	0.219453
C229	C	1.114446	-0.755189	-0.223334
C230	C	1.614446	-0.255189	0.276666
C231	C	1.166124	-0.717007	-0.172331
C232	C	1.666124	-0.217007	0.327669
C233	C	1.250392	-0.726746	-0.178542
C234	C	1.750392	-0.226746	0.321458
C235	C	1.282987	-0.774669	-0.235758
C236	C	1.782987	-0.274669	0.264242
C237	C	1.231308	-0.812852	-0.286761
C238	C	1.731308	-0.312852	0.213239
H239	H	1.052062	-0.747978	-0.218734
H240	H	1.552062	-0.247978	0.281266
H241	H	1.141996	-0.681531	-0.129976
H242	H	1.641996	-0.181531	0.370024
H243	H	1.288648	-0.698481	-0.140787
H244	H	1.788648	-0.198481	0.359213
H245	H	1.345371	-0.781880	-0.240358
H246	H	1.845371	-0.281880	0.259642
H247	H	1.255437	-0.848328	-0.329116
H248	H	1.755437	-0.348328	0.170884
H249	H	0.620734	-0.240499	-0.262023
H250	H	1.120734	0.259501	0.237977
C251	C	0.961361	-0.729511	-0.463644
C252	C	1.461361	-0.229511	0.036356
C253	C	0.899484	-0.781208	-0.435376
C254	C	1.399484	-0.281208	0.064624
C255	C	0.847790	-0.819371	-0.486377
C256	C	1.347790	-0.319371	0.013623
C257	C	0.857974	-0.805838	-0.565647
C258	C	1.357974	-0.305838	-0.065647
C259	C	0.919853	-0.754139	-0.593920
C260	C	1.419853	-0.254139	-0.093920
C261	C	0.971546	-0.715976	-0.542918
C262	C	1.471546	-0.215976	-0.042918
H263	H	0.891943	-0.791228	-0.376691
H264	H	1.391943	-0.291228	0.123309
H265	H	0.801983	-0.857643	-0.465448
H266	H	1.301983	-0.357643	0.034552
H267	H	0.819707	-0.834089	-0.603402
H268	H	1.319707	-0.334089	-0.103402
H269	H	0.927393	-0.744119	-0.652604
H270	H	1.427393	-0.244119	-0.152604
H271	H	1.017353	-0.677704	-0.563848
H272	H	1.517353	-0.177704	-0.063848
H273	H	1.145510	-0.258925	-0.948921
H274	H	1.645510	0.241075	-0.448921
H275	H	1.183121	-0.224835	-0.749043
H276	H	1.683121	0.275165	-0.249043
H277	H	0.980471	-0.586765	-0.444701
H278	H	1.480471	-0.086765	0.055299
H279	H	1.138934	-0.264893	-0.862396
H280	H	1.638934	0.235107	-0.362396
C281	C	0.990360	-1.062219	-0.435274
C282	C	1.490360	-0.562219	0.064726
C283	C	0.986910	-1.142754	-0.438731
C284	C	1.486910	-0.642754	0.061269
C285	C	0.935231	-1.180921	-0.489743
C286	C	1.435231	-0.680921	0.010257
C287	C	0.887002	-1.138554	-0.537298
C288	C	1.387002	-0.638554	-0.037298
C289	C	0.890449	-1.058015	-0.533842
C290	C	1.390449	-0.558015	-0.033842
C291	C	0.942128	-1.019847	-0.482830
C292	C	1.442128	-0.519847	0.017170
H293	H	1.022614	-1.174120	-0.403527
H294	H	1.522614	-0.674120	0.096473
H295	H	0.932679	-1.240541	-0.492301
H296	H	1.432679	-0.740541	0.007699
H297	H	0.848746	-1.166807	-0.575060
H298	H	1.348746	-0.666807	-0.075060
H299	H	0.854745	-1.026648	-0.569047
H300	H	1.354745	-0.526648	-0.069047
H301	H	0.944680	-0.960227	-0.480273
H302	H	1.444680	-0.460227	0.019727
H303	H	0.535073	-0.204029	-0.378910
H304	H	1.035073	0.295971	0.121090
H305	H	1.145273	-0.593687	-0.282143
H306	H	1.645273	-0.093687	0.217857
H307	H	1.174268	-0.926388	-0.253778
H308	H	1.674268	-0.426388	0.246222
H309	H	1.176829	-0.230533	-0.616210
H310	H	1.676829	0.269467	-0.116210
H311	H	0.966041	-0.421594	-0.955808
H312	H	1.466041	0.078406	-0.455808
H313	H	0.528775	-0.406267	-0.442015
H314	H	1.028775	0.093733	0.057985
H315	H	0.614585	-0.442740	-0.325287
H316	H	1.114585	0.057260	0.174713
H317	H	1.010225	-0.381540	-0.842453
H318	H	1.510225	0.118460	-0.342453
