data_functionalizedCrystal
_audit_creation_method	'MofGen! by Chris Wilmer'
_symmetry_space_group_name_H-M	'P1'
_symmetry_Int_Tables_number	1
_symmetry_cell_setting	triclinic
loop_
_symmetry_equiv_pos_as_xyz
  x,y,z
_cell_length_a	19.288840
_cell_length_b	9.065218
_cell_length_c	17.766277
_cell_angle_alpha	89.995554
_cell_angle_beta	89.983415
_cell_angle_gamma	84.070951
loop_
_atom_site_label
_atom_site_type_symbol
_atom_site_fract_x
_atom_site_fract_y
_atom_site_fract_z
O1	O	0.922792	0.183855	-0.062717
O2	O	0.720722	0.208719	-0.062691
O3	O	0.825933	-0.018502	-0.062703
O4	O	0.817580	0.411077	-0.062705
O5	O	0.825915	-0.018514	0.062486
O6	O	0.720703	0.208708	0.062498
O7	O	0.922773	0.183844	0.062471
Cu8	Cu	0.821736	0.196275	0.073915
Cu9	Cu	0.821758	0.196288	-0.074135
O10	O	0.817561	0.411065	0.062484
C11	C	0.694829	0.207920	-0.000093
C12	C	0.617706	0.205537	-0.000083
C13	C	0.581504	0.204398	-0.068325
C14	C	0.509040	0.202143	-0.068334
C15	C	0.472782	0.200996	-0.000098
C16	C	0.508992	0.202143	0.068154
C17	C	0.581454	0.204413	0.068161
C18	C	0.362747	0.110986	0.052171
C19	C	0.290287	0.108706	0.052161
C20	C	0.249284	0.194000	-0.000117
C21	C	0.280751	0.281554	-0.052398
C22	C	0.353213	0.283824	-0.052391
C23	C	0.394209	0.198535	-0.000098
C24	C	0.134507	0.190417	-0.068374
C25	C	0.062041	0.188171	-0.068380
C26	C	0.061996	0.188156	0.068110
C27	C	0.134460	0.190418	0.068114
C28	C	0.170712	0.191541	-0.000130
C29	C	0.825121	-0.073466	-0.000110
C30	C	0.822721	-0.237225	-0.000113
C31	C	0.948665	0.184643	-0.000128
C32	C	1.025788	0.187027	-0.000143
C33	C	0.818373	0.466030	-0.000111
C34	C	0.820774	0.629788	-0.000113
N35	N	0.821725	0.196264	0.178046
N36	N	0.821774	0.196287	-0.178265
C37	C	0.868329	0.095700	0.217427
C38	C	0.868333	0.095693	0.296229
C39	C	0.821740	0.196276	0.335646
C40	C	0.775128	0.296848	0.296255
C41	C	0.775121	0.296842	0.217455
C42	C	0.813485	0.330693	0.460484
C43	C	0.813497	0.330701	0.539283
C44	C	0.821759	0.196294	0.578692
C45	C	0.830023	0.061873	0.539293
C46	C	0.830016	0.061867	0.460493
C47	C	0.821743	0.196293	0.421092
C48	C	0.868369	0.095713	0.703520
C49	C	0.868368	0.095705	0.782323
C50	C	0.775167	0.296873	0.782348
C51	C	0.775164	0.296869	0.703546
C52	C	0.821769	0.196291	0.664137
H53	H	0.479466	0.201213	0.123712
H54	H	0.906316	0.013805	0.814388
C55	C	0.174385	0.191679	-0.143443
N56	N	0.204419	0.192636	-0.199986
H57	H	0.396127	0.041526	0.094746
H58	H	0.737218	0.378764	0.671480
H59	H	0.479558	0.201218	-0.123907
C60	C	0.723882	0.407540	0.174134
N61	N	0.685299	0.490944	0.141503
C62	C	0.022219	0.186912	-0.143456
N63	N	-0.007775	0.185957	-0.200005
C64	C	0.022116	0.186897	0.143171
N65	N	-0.007925	0.185951	0.199710
H66	H	0.737228	0.378764	0.814441
C67	C	0.919609	-0.014926	0.339557
N68	N	0.958234	-0.098238	0.372190
C69	C	0.919628	-0.014937	0.660167
N70	N	0.958236	-0.098282	0.627516
H71	H	0.806772	0.440154	0.571356
C72	C	0.621279	0.205654	0.143236
N73	N	0.651276	0.206582	0.199784
H74	H	0.806745	0.440151	0.428404
C75	C	0.839097	-0.085993	0.417157
N76	N	0.845933	-0.197363	0.384516
H77	H	0.836750	-0.047574	0.571379
H78	H	0.163937	0.191335	0.123684
H79	H	0.378830	0.355117	-0.094958
C80	C	0.255680	0.012409	0.109677
N81	N	0.229615	-0.060117	0.153002
C82	C	0.235652	0.375394	-0.109905
N83	N	0.201680	0.446074	-0.153217
C84	C	0.919589	-0.014954	0.174081
N85	N	0.958196	-0.098304	0.141432
H86	H	0.737190	0.378742	0.328353
H87	H	0.611016	0.205313	-0.123895
