data_functionalizedCrystal
_audit_creation_method	'MofGen! by Chris Wilmer'
_symmetry_space_group_name_H-M	'P1'
_symmetry_Int_Tables_number	1
_symmetry_cell_setting	triclinic
loop_
_symmetry_equiv_pos_as_xyz
  x,y,z
_cell_length_a	14.909383
_cell_length_b	12.759401
_cell_length_c	14.908308
_cell_angle_alpha	93.280489
_cell_angle_beta	83.253017
_cell_angle_gamma	93.276117
loop_
_atom_site_label
_atom_site_type_symbol
_atom_site_fract_x
_atom_site_fract_y
_atom_site_fract_z
Zn1	Zn	-0.389887	-1.596575	0.532565
Zn2	Zn	-0.532520	-1.615627	0.389951
Zn3	Zn	-0.381185	-1.430474	0.381227
Zn4	Zn	-0.541186	-1.430426	0.541266
O5	O	-0.461195	-1.518275	0.461252
O6	O	-0.408823	-1.746123	0.513656
O7	O	-0.505176	-1.599059	0.262132
O8	O	-0.255686	-1.444554	0.394009
O9	O	-0.513614	-1.760121	0.408879
O10	O	-0.262080	-1.566588	0.505197
O11	O	-0.393991	-1.463028	0.255722
O12	O	-0.402395	-1.283446	0.402447
O13	O	-0.528385	-1.444472	0.666774
O14	O	-0.519947	-1.283411	0.520027
O15	O	-0.417226	-1.566541	0.660381
O16	O	-0.660323	-1.599013	0.417316
O17	O	-0.666690	-1.462946	0.528487
C18	C	-0.461168	-1.245307	0.461235
C19	C	-0.461179	-1.128530	0.461250
C20	C	-0.522474	-1.073689	0.522384
C21	C	-0.522482	-0.963965	0.522392
C22	C	-0.399898	-0.963933	0.400127
C23	C	-0.399887	-1.073655	0.400123
C24	C	-0.583767	-1.128565	0.583511
C25	C	-0.645067	-1.073724	0.644648
C26	C	-0.645076	-0.964000	0.644657
C27	C	-0.583783	-0.909117	0.583528
C28	C	-0.696347	-1.533069	0.474812
C29	C	-0.796948	-1.539492	0.480644
C30	C	-0.979478	-1.424618	0.375716
C31	C	-1.074002	-1.430649	0.381192
C32	C	-1.080520	-1.557593	0.497067
C33	C	-0.985997	-1.551561	0.491591
C34	C	-0.935479	-1.485070	0.430914
C35	C	-0.840954	-1.479033	0.425443
C36	C	-0.847474	-1.605981	0.541313
C37	C	-0.941997	-1.612013	0.546789
C38	C	-0.225125	-1.503451	0.447659
C39	C	-0.124526	-1.497134	0.441866
C40	C	-0.474743	-1.503376	0.697338
C41	C	-0.480516	-1.497027	0.797943
C42	C	-0.461214	-0.792309	0.461266
C43	C	-0.461200	-0.909085	0.461263
C44	C	-0.447634	-1.533173	0.226082
C45	C	-0.441606	-1.539709	0.125462
C46	C	-0.375594	-1.612202	0.980335
C47	C	-0.381016	-1.606240	1.074862
C48	C	-0.496776	-1.479134	1.081527
C49	C	-0.491354	-1.485097	0.987000
C50	C	-0.430762	-1.551634	0.936407
C51	C	-0.425346	-1.557602	0.841878
C52	C	-0.541101	-1.430491	0.848544
C53	C	-0.546522	-1.424529	0.943072
H54	H	-0.349969	-1.118306	0.350350
H55	H	-0.811639	-1.655203	0.586262
H56	H	-0.595852	-1.370354	0.984277
H57	H	-0.376010	-1.611781	0.800686
C58	C	-0.601790	-1.363863	0.800216
N59	N	-0.647502	-1.313681	0.763814
H60	H	-1.109822	-1.381424	0.336243
H61	H	-0.583769	-1.217908	0.583509
H62	H	-0.349998	-0.919239	0.350359
H63	H	-1.121667	-1.611734	0.546460
H64	H	-0.694963	-1.118416	0.694422
C65	C	-0.308948	-1.685398	0.924681
N66	N	-0.258748	-1.740530	0.882763
H67	H	-0.938347	-1.370470	0.326316
H68	H	-0.336090	-1.655558	1.110625
H69	H	-0.799823	-1.424890	0.376039
C70	C	-0.997577	-1.685148	0.613531
N71	N	-1.039440	-1.740232	0.663805
H72	H	-0.694983	-0.919350	0.694444
C73	C	-0.583796	-0.788416	0.583542
N74	N	-0.583810	-0.697506	0.583550
H75	H	-0.546106	-1.424963	1.122736
