data_functionalizedCrystal
_audit_creation_method	'MofGen! by Chris Wilmer'
_symmetry_space_group_name_H-M	'P1'
_symmetry_Int_Tables_number	1
_symmetry_cell_setting	triclinic
loop_
_symmetry_equiv_pos_as_xyz
  x,y,z
_cell_length_a	10.654550
_cell_length_b	12.811415
_cell_length_c	9.730223
_cell_angle_alpha	84.567795
_cell_angle_beta	89.996251
_cell_angle_gamma	84.262793
loop_
_atom_site_label
_atom_site_type_symbol
_atom_site_fract_x
_atom_site_fract_y
_atom_site_fract_z
O1	O	1.667067	0.147421	-0.132774
O2	O	1.301516	0.161467	-0.134502
O3	O	1.493489	0.001719	-0.114598
O4	O	1.475095	0.307169	-0.152678
O5	O	1.493487	0.001723	0.113982
O6	O	1.301514	0.161471	0.094077
O7	O	1.667065	0.147425	0.095806
Zn8	Zn	1.484289	0.154449	0.131233
Zn9	Zn	1.484292	0.154443	-0.169930
O10	O	1.475092	0.307173	0.075901
C11	C	1.254722	0.160438	-0.020081
C12	C	1.115295	0.157352	-0.019688
C13	C	1.035320	0.251409	-0.031434
C14	C	0.904315	0.248504	-0.031096
C15	C	0.933271	0.057476	-0.007270
C16	C	1.064274	0.060383	-0.007598
C17	C	1.018601	0.361698	-0.045196
C18	C	0.887595	0.358792	-0.044857
C19	C	1.492457	-0.037390	0.004565
C20	C	1.489371	-0.153931	0.019086
C21	C	1.483552	-0.372915	-0.202853
C22	C	1.480653	-0.482415	-0.189216
C23	C	1.480663	-0.482431	0.059997
C24	C	1.483563	-0.372931	0.046360
C25	C	1.485009	-0.318177	-0.085070
C26	C	1.487918	-0.208676	-0.098705
C27	C	1.487920	-0.208694	0.150506
C28	C	1.485020	-0.318194	0.164143
C29	C	1.713859	0.148455	-0.018619
C30	C	1.853286	0.151540	-0.019021
C31	C	1.476124	0.346283	-0.043265
C32	C	1.479210	0.462823	-0.057795
N33	N	1.484296	0.154452	0.336769
N34	N	1.484295	0.154432	-0.375465
C35	C	1.569324	0.083740	0.417506
C36	C	1.569320	0.083727	0.561391
C37	C	1.399258	0.225148	0.543788
C38	C	1.399256	0.225155	0.399907
C39	C	1.667512	0.002094	0.427670
C40	C	1.667508	0.002082	0.571554
H41	H	1.129386	-0.016208	0.001986
F42	F	1.485108	-0.314641	-0.342727
H43	H	1.483838	-0.362789	0.271149
F44	F	0.832761	0.413103	-0.176670
F45	F	1.308746	0.300402	0.313982
H46	H	0.891714	-0.021474	0.002552
H47	H	1.054075	0.396813	-0.148261
F48	F	1.793533	0.025580	0.619666
H49	H	1.637392	-0.074158	0.625677
H50	H	1.479461	-0.526978	-0.285127
H51	H	1.047707	0.404833	0.045092
F52	F	0.827665	0.402361	0.078693
H53	H	1.479476	-0.527030	0.167000
F54	F	1.489462	-0.150405	-0.238582
H55	H	1.489111	-0.164115	0.246414
H56	H	1.330020	0.282711	0.595210
F57	F	1.640033	-0.103354	0.389765
H58	H	1.758562	0.027659	0.379851
