data_functionalizedCrystal
_audit_creation_method	'MofGen! by Chris Wilmer'
_symmetry_space_group_name_H-M	'P1'
_symmetry_Int_Tables_number	1
_symmetry_cell_setting	triclinic
loop_
_symmetry_equiv_pos_as_xyz
  x,y,z
_cell_length_a	17.699083
_cell_length_b	9.065218
_cell_length_c	8.140239
_cell_angle_alpha	90.001686
_cell_angle_beta	89.998958
_cell_angle_gamma	95.850550
loop_
_atom_site_label
_atom_site_type_symbol
_atom_site_fract_x
_atom_site_fract_y
_atom_site_fract_z
O1	O	1.005529	-0.186555	-0.136542
O2	O	1.338862	0.146778	0.196791
O3	O	1.672196	0.480112	0.530124
O4	O	0.785340	-0.210827	-0.136559
O5	O	1.118673	0.122506	0.196774
O6	O	1.452006	0.455840	0.530108
O7	O	0.899986	0.016086	-0.136547
O8	O	1.233319	0.349420	0.196786
O9	O	1.566652	0.682753	0.530120
O10	O	0.890883	-0.413468	-0.136554
O11	O	1.224216	-0.080135	0.196779
O12	O	1.557550	0.253198	0.530112
O13	O	0.899979	0.016089	0.136680
O14	O	1.233312	0.349422	0.470013
O15	O	1.566646	0.682755	0.803347
O16	O	0.785333	-0.210824	0.136668
O17	O	1.118667	0.122509	0.470001
O18	O	1.452000	0.455842	0.803335
O19	O	1.005522	-0.186553	0.136685
O20	O	1.338856	0.146781	0.470018
O21	O	1.672189	0.480114	0.803351
Zn22	Zn	0.895427	-0.198688	0.180057
Zn23	Zn	1.228760	0.134645	0.513390
Zn24	Zn	1.562094	0.467979	0.846724
Zn25	Zn	0.895435	-0.198691	-0.179931
Zn26	Zn	1.228769	0.134642	0.153402
Zn27	Zn	1.562102	0.467975	0.486735
O28	O	0.890877	-0.413466	0.136673
O29	O	1.224210	-0.080132	0.470006
O30	O	1.557543	0.253201	0.803339
C31	C	0.899108	0.071048	0.000064
C32	C	1.232441	0.404382	0.333397
C33	C	1.565774	0.737715	0.666731
C34	C	0.896492	0.234814	0.000056
C35	C	1.229825	0.568147	0.333389
C36	C	1.563158	0.901480	0.666722
C37	C	1.033729	-0.187423	0.000070
C38	C	1.367063	0.145910	0.333403
C39	C	1.700396	0.479243	0.666736
C40	C	1.117768	-0.190033	0.000065
C41	C	1.451101	0.143301	0.333399
C42	C	1.784435	0.476634	0.666732
C43	C	0.757133	-0.209956	0.000052
C44	C	1.090466	0.123377	0.333386
C45	C	1.423799	0.456711	0.666719
C46	C	0.673094	-0.207347	0.000046
C47	C	1.006428	0.125986	0.333379
C48	C	1.339761	0.459320	0.666713
C49	C	1.165350	-0.056839	0.000062
C50	C	1.498683	0.276494	0.333395
C51	C	1.832017	0.609827	0.666729
C52	C	1.244313	-0.059300	0.000067
C53	C	1.577646	0.274034	0.333401
C54	C	1.910979	0.607367	0.666734
C55	C	1.275691	-0.194955	0.000064
C56	C	1.609025	0.138378	0.333398
C57	C	1.942358	0.471712	0.666731
C58	C	1.228103	-0.328158	0.000073
C59	C	1.561436	0.005175	0.333406
C60	C	1.894770	0.338508	0.666739
C61	C	1.149142	-0.325697	0.000079
C62	C	1.482475	0.007637	0.333413
C63	C	1.815809	0.340970	0.666746
C64	C	1.546543	-0.338090	0.000049
C65	C	1.879877	-0.004757	0.333382
C66	C	2.213210	0.328577	0.666716
C67	C	1.625511	-0.340542	0.000038
C68	C	1.958844	-0.007208	0.333371
C69	C	2.292177	0.326125	0.666704
C70	C	1.641714	-0.071693	0.000037
C71	C	1.975047	0.261640	0.333370
C72	C	2.308381	0.594974	0.666704
C73	C	1.562753	-0.069231	0.000043
C74	C	1.896086	0.264102	0.333377
C75	C	2.229420	0.597435	0.666710
C76	C	1.515172	-0.202434	0.000061
C77	C	1.848505	0.130899	0.333394
C78	C	2.181838	0.464233	0.666727
C79	C	1.429552	-0.199765	0.000058
C80	C	1.762885	0.133569	0.333391
C81	C	2.096218	0.466902	0.666725
C82	C	1.361310	-0.197626	0.000055
C83	C	1.694643	0.135707	0.333389
C84	C	2.027976	0.469041	0.666722
C85	C	0.891755	-0.468428	0.000058
C86	C	1.225088	-0.135094	0.333392
C87	C	1.558421	0.198239	0.666725
C88	C	0.894370	-0.632193	0.000056
C89	C	1.227704	-0.298860	0.333389
C90	C	1.561037	0.034474	0.666722
N91	N	0.895427	-0.198685	0.425740
N92	N	1.228760	0.134648	0.759073
N93	N	1.562093	0.467982	1.092406
N94	N	0.895441	-0.198683	-0.425614
N95	N	1.228775	0.134650	-0.092281
N96	N	1.562108	0.467984	0.241053
H97	H	1.139808	0.053627	0.000054
H98	H	1.473141	0.386960	0.333387
H99	H	1.806475	0.720294	0.666721
F100	F	1.294950	0.082463	0.000072
F101	F	1.628284	0.415797	0.333405
F102	F	1.961617	0.749130	0.666739
H103	H	1.253658	-0.438611	0.000080
H104	H	1.586991	-0.105278	0.333414
H105	H	1.920324	0.228055	0.666747
F106	F	1.658904	-0.484932	0.000036
F107	F	1.992237	-0.151598	0.333370
F108	F	2.325570	0.181735	0.666703
F109	F	1.692360	0.070075	0.000028
F110	F	2.025693	0.403408	0.333362
F111	F	2.359027	0.736741	0.666695
H112	H	1.537209	0.041233	0.000038
H113	H	1.870543	0.374566	0.333371
H114	H	2.203876	0.707900	0.666704
F115	F	1.495914	-0.479857	0.000050
F116	F	1.829247	-0.146523	0.333383
F117	F	2.162580	0.186810	0.666717
F118	F	1.098501	-0.467459	0.000092
F119	F	1.431835	-0.134126	0.333425
F120	F	1.765168	0.199207	0.666759
