data_functionalizedCrystal
_audit_creation_method	'MofGen! by Chris Wilmer'
_symmetry_space_group_name_H-M	'P1'
_symmetry_Int_Tables_number	1
_symmetry_cell_setting	triclinic
loop_
_symmetry_equiv_pos_as_xyz
  x,y,z
_cell_length_a	8.497374
_cell_length_b	8.497374
_cell_length_c	17.077404
_cell_angle_alpha	89.998682
_cell_angle_beta	90.003463
_cell_angle_gamma	90.005237
loop_
_atom_site_label
_atom_site_type_symbol
_atom_site_fract_x
_atom_site_fract_y
_atom_site_fract_z
Zn1	Zn	0.892179	0.628320	1.200049
Zn2	Zn	0.628445	0.892066	1.200043
Zn3	Zn	0.628399	0.628295	1.068818
Zn4	Zn	0.892169	0.892053	1.068799
O5	O	0.760298	0.760183	1.134427
O6	O	0.857218	0.663322	1.309895
O7	O	0.407677	0.857071	1.182641
O8	O	0.663375	0.407536	1.086236
O9	O	0.663454	0.857095	1.309891
O10	O	0.857174	0.407554	1.182652
O11	O	0.407643	0.663279	1.086230
O12	O	0.663364	0.663267	0.958968
O13	O	1.112932	0.857074	1.086204
O14	O	0.857155	0.857049	0.958955
O15	O	1.112940	0.663310	1.182633
O16	O	0.663443	1.112826	1.182623
O17	O	0.857200	1.112817	1.086198
C18	C	0.760254	0.760155	0.930479
C19	C	0.760273	0.760180	0.843230
C20	C	0.861018	0.861235	0.802253
C21	C	0.861043	0.861238	0.720272
C22	C	0.760315	0.760194	0.679270
C23	C	0.659565	0.659128	0.720253
C24	C	0.659549	0.659118	0.802232
C25	C	0.659603	0.659160	0.549383
C26	C	0.659617	0.659171	0.467398
C27	C	0.861097	0.861280	0.467423
C28	C	0.861081	0.861270	0.549402
C29	C	0.760329	0.760206	0.590379
C30	C	1.171778	0.760186	1.134421
C31	C	1.350422	0.760202	1.134423
C32	C	0.760321	1.170063	1.134417
C33	C	0.760295	1.348707	1.134438
C34	C	0.760343	0.760213	1.339171
C35	C	0.760362	0.760226	1.426421
H36	H	0.943079	0.943529	0.686913
H37	H	0.943138	0.943565	0.434056
O38	O	0.561729	0.560862	0.427688
C39	C	0.361838	0.360444	0.436309
C40	C	0.472641	0.471673	0.481378
H41	H	0.289758	0.288329	0.479698
H42	H	0.434334	0.277983	0.397953
H43	H	0.279311	0.432770	0.397904
H44	H	0.555190	0.399474	0.519826
H45	H	0.400047	0.554138	0.519685
O46	O	0.561654	0.561212	0.589278
C47	C	0.348614	0.539674	0.681784
C48	C	0.459469	0.650760	0.636664
H49	H	0.265948	0.612030	0.720094
H50	H	0.421067	0.457319	0.720223
H51	H	0.276686	0.467422	0.638386
H52	H	0.531421	0.723114	0.680005
H53	H	0.386926	0.733011	0.598213
O54	O	0.561452	0.561131	0.842006
C55	C	0.293216	0.484071	0.867035
C56	C	0.404127	0.595169	0.821957
H57	H	0.165998	0.511528	0.850830
H58	H	0.310374	0.501427	0.932679
H59	H	0.321189	0.356918	0.850928
H60	H	0.376223	0.722364	0.837999
H61	H	0.386950	0.577676	0.756324
H62	H	0.943038	0.943522	0.835631
O63	O	0.959073	0.959476	0.589112
C64	C	1.158849	1.160008	0.580491
C65	C	1.047978	1.048847	0.535423
H66	H	1.230734	1.232317	0.537103
H67	H	1.241541	1.087778	0.618856
H68	H	1.086257	1.242304	0.618889
H69	H	1.120442	0.966529	0.496982
H70	H	0.965281	1.121175	0.497107
O71	O	0.561884	0.560744	0.680463
C72	C	0.485646	0.292280	0.655409
C73	C	0.596399	0.403519	0.700502
H74	H	0.513489	0.165142	0.671606
H75	H	0.502958	0.309505	0.589768
H76	H	0.358406	0.319862	0.671513
H77	H	0.723681	0.376006	0.684464
H78	H	0.578950	0.386273	0.766132
