data_functionalizedCrystal
_audit_creation_method	'MofGen! by Chris Wilmer'
_symmetry_space_group_name_H-M	'P1'
_symmetry_Int_Tables_number	1
_symmetry_cell_setting	triclinic
loop_
_symmetry_equiv_pos_as_xyz
  x,y,z
_cell_length_a	20.875641
_cell_length_b	12.970454
_cell_length_c	12.970454
_cell_angle_alpha	60.000396
_cell_angle_beta	89.998762
_cell_angle_gamma	57.589438
loop_
_atom_site_label
_atom_site_type_symbol
_atom_site_fract_x
_atom_site_fract_y
_atom_site_fract_z
Zr1	Zr	0.641479	1.052841	-0.097474
O2	O	0.535157	1.280471	-0.268363
O3	O	0.674072	0.833908	-0.045088
O4	O	0.674074	1.048996	-0.260176
O5	O	0.535155	1.065385	0.116391
O6	O	0.783654	1.036070	-0.253716
O7	O	0.535155	1.065384	-0.053275
O8	O	0.783651	0.651317	0.131037
O9	O	0.535157	1.450137	-0.268362
O10	O	0.769752	0.911091	-0.017924
O11	O	0.687973	0.920738	0.103876
O12	O	0.687974	1.173976	-0.149363
O13	O	0.606195	1.183624	-0.027563
Zr14	Zr	0.816246	1.032227	0.183428
Zr15	Zr	0.816247	1.032226	-0.087171
Zr16	Zr	0.641478	1.052843	0.173125
Zr17	Zr	0.641480	1.323439	-0.097471
Zr18	Zr	0.816245	0.761630	0.183425
O19	O	0.783653	1.251161	0.131042
O20	O	0.783654	1.251158	-0.253714
O21	O	0.535155	1.280474	0.116393
O22	O	0.922568	0.804597	0.354318
O23	O	0.922570	0.804595	-0.030439
O24	O	0.674070	0.833910	0.339668
O25	O	0.922570	1.019684	-0.030437
O26	O	0.783651	1.036073	0.346130
O27	O	0.674071	1.048999	0.339670
O28	O	0.922569	1.019685	0.139230
O29	O	0.674074	1.433751	-0.260172
O30	O	0.783650	0.651318	0.346127
O31	O	0.922568	0.634931	0.354316
O32	O	0.922569	0.634930	0.139226
O33	O	0.535156	1.450139	-0.053272
O34	O	0.674073	1.433752	-0.045083
O35	O	0.769751	0.911092	0.235317
O36	O	0.851530	0.901445	0.113518
O37	O	0.769752	1.164330	-0.017921
O38	O	0.687973	1.173978	0.103878
C39	C	0.728862	0.704058	0.042974
C40	C	0.728861	0.589182	0.042973
C41	C	0.510254	1.068321	0.030090
C42	C	0.436061	1.077073	0.025716
C43	C	0.443889	0.943965	0.092264
C44	C	0.374174	0.952198	0.088152
C45	C	0.296630	1.093540	0.017483
C46	C	0.288803	1.226658	-0.049068
C47	C	0.358518	1.218424	-0.044947
C48	C	0.083552	1.132880	-0.002191
C49	C	0.013836	1.141104	-0.006310
C50	C	0.099211	0.866642	0.130912
C51	C	0.168923	0.858421	0.135020
C52	C	0.161090	0.991539	0.068475
N53	N	0.225369	1.101958	0.013274
N54	N	0.232351	0.983119	0.072692
C55	C	0.947471	1.016747	0.055864
C56	C	1.021664	1.007995	0.060238
C57	C	0.728864	1.042532	-0.295500
C58	C	0.728864	1.042532	-0.410376
C59	C	0.728863	1.381011	0.042980
C60	C	0.728863	1.495886	0.042981
C61	C	0.728861	1.042536	0.381455
C62	C	0.728860	1.042537	0.496331
C63	C	0.947470	0.678271	0.055861
C64	C	1.021663	0.554643	0.060234
C65	C	0.728860	0.704060	0.381452
C66	C	0.728859	0.589185	0.496327
C67	C	0.947468	0.678273	0.394339
C68	C	1.021661	0.554646	0.513588
C69	C	0.510257	1.406796	-0.308385
C70	C	0.436064	1.530423	-0.427634
C71	C	0.510255	1.406798	0.030093
C72	C	0.436062	1.530425	0.025720
C73	C	0.728865	1.381009	-0.295497
C74	C	0.728865	1.495884	-0.410373
C75	C	1.013818	0.501621	-0.006334
C76	C	1.083524	0.385476	-0.002251
C77	C	1.161074	0.322347	0.068408
C78	C	1.168918	0.375379	0.134979
C79	C	1.099213	0.491530	0.130888
C80	C	1.099198	0.491553	0.506011
C81	C	1.168917	0.375406	0.618048
C82	C	1.161097	0.322348	0.737661
C83	C	1.083552	0.385453	0.745235
C84	C	1.013835	0.501604	0.633199
C85	C	0.358527	1.593529	-0.420057
C86	C	0.288808	1.709709	-0.532094
C87	C	0.296628	1.762773	-0.651707
C88	C	0.374173	1.699661	-0.659281
C89	C	0.443890	1.583491	-0.547245
C90	C	0.443907	1.583459	0.092277
C91	C	0.374201	1.699634	0.088165
C92	C	0.296651	1.762767	0.017501
C93	C	0.288807	1.709729	-0.049065
C94	C	0.358512	1.593563	-0.044958
H95	H	0.380555	0.843807	0.142345
H96	H	0.239853	1.857367	-0.742923
O97	O	1.076039	0.333828	-0.066878
C98	C	1.154185	0.217749	-0.048104
H99	H	1.200402	0.230019	-0.021065
H100	H	1.153395	0.226611	-0.140152
H101	H	1.171950	0.102756	0.032082
O102	O	1.228841	0.209363	0.072620
C103	C	1.275536	0.078960	0.200429
H104	H	1.260306	0.113340	0.267743
H105	H	1.343160	0.018723	0.216927
H106	H	1.260900	-0.000628	0.219965
H107	H	1.232069	0.323963	0.192508
H108	H	0.352113	1.550388	-0.099155
O109	O	0.519161	1.522455	-0.554792
C110	C	0.528092	1.636594	-0.620831
H111	H	0.465333	1.751969	-0.684065
H112	H	0.564732	1.616029	-0.682870
H113	H	0.561431	1.634080	-0.548962
O114	O	0.519192	1.522124	0.161104
C115	C	0.528133	1.458616	0.290654
H116	H	0.465379	1.514784	0.297768
H117	H	0.564801	1.477962	0.333301
H118	H	0.561449	1.331750	0.345650
H119	H	0.225656	1.761150	-0.106598
O120	O	0.244186	0.720997	0.203775
C121	C	0.236147	0.605273	0.261603
H122	H	0.173940	0.651365	0.271026
H123	H	0.286145	0.506913	0.360560
H124	H	0.241855	0.563964	0.199988
H125	H	0.225661	1.341742	-0.106601
H126	H	0.352139	1.326815	-0.099122
H127	H	0.239899	1.857356	0.014168
H128	H	1.105612	0.534686	0.185104
H129	H	0.507025	0.828869	0.149816
O130	O	1.106872	0.542785	0.389875
C131	C	1.149842	0.422485	0.378626
H132	H	1.188353	0.310004	0.478077
H133	H	1.191245	0.433874	0.324209
H134	H	1.104677	0.426297	0.324495
O135	O	1.244252	0.314270	0.610728
C136	C	1.287133	0.335587	0.671728
H137	H	1.241899	0.435505	0.674063
H138	H	1.325655	0.359672	0.616726
H139	H	1.328522	0.228826	0.773718
O140	O	0.106671	0.737487	0.195530
C141	C	0.028514	0.775054	0.176718
H142	H	-0.017694	0.894115	0.149650
H143	H	0.029279	0.690543	0.268758
H144	H	0.010759	0.770879	0.096539
O145	O	0.938578	0.562662	0.640797
C146	C	0.946636	0.490935	0.770399
H147	H	1.008853	0.374209	0.831609
H148	H	0.896653	0.478196	0.782521
H149	H	0.940919	0.562398	0.801866
H150	H	1.217871	0.227769	0.828878
H151	H	0.950679	0.553020	-0.063889
O152	O	0.350774	1.542233	-0.303977
C153	C	0.267381	1.622848	-0.321341
H154	H	0.230210	1.736629	-0.419856
H155	H	0.257669	1.642611	-0.244510
H156	H	0.246831	1.554494	-0.313697
H157	H	1.077197	0.342235	0.842639
H158	H	0.380531	1.742881	-0.756683
O159	O	-0.061514	1.278370	-0.075123
C160	C	-0.104389	1.291311	-0.170397
H161	H	-0.059148	1.210968	-0.192297
H162	H	-0.142942	1.412777	-0.260937
H163	H	-0.145746	1.260655	-0.135002
O164	O	0.213470	1.771223	-0.524785
C165	C	0.170580	1.927526	-0.585785
H166	H	0.215809	1.951745	-0.588105
H167	H	0.132047	1.963069	-0.530793
H168	H	0.129201	1.994154	-0.687780
H169	H	0.077164	1.241274	-0.056400
H170	H	0.380604	1.742797	0.142376
