data_functionalizedCrystal
_audit_creation_method	'MofGen! by Chris Wilmer'
_symmetry_space_group_name_H-M	'P1'
_symmetry_Int_Tables_number	1
_symmetry_cell_setting	triclinic
loop_
_symmetry_equiv_pos_as_xyz
  x,y,z
_cell_length_a	12.759394
_cell_length_b	12.759395
_cell_length_c	10.686551
_cell_angle_alpha	85.606366
_cell_angle_beta	85.593446
_cell_angle_gamma	90.014682
loop_
_atom_site_label
_atom_site_type_symbol
_atom_site_fract_x
_atom_site_fract_y
_atom_site_fract_z
Zn1	Zn	-0.372624	1.651851	-0.713391
Zn2	Zn	-0.561826	1.638259	-0.502387
Zn3	Zn	-0.386160	1.462668	-0.502413
Zn4	Zn	-0.548265	1.476138	-0.713343
O5	O	-0.467219	1.557229	-0.607884
O6	O	-0.397734	1.797070	-0.685410
O7	O	-0.549864	1.603641	-0.325809
O8	O	-0.237341	1.487815	-0.530431
O9	O	-0.536739	1.787083	-0.530386
O10	O	-0.227397	1.626807	-0.685436
O11	O	-0.420802	1.474635	-0.325829
O12	O	-0.407652	1.317434	-0.530385
O13	O	-0.513626	1.510772	-0.889931
O14	O	-0.526750	1.327330	-0.685354
O15	O	-0.384583	1.639868	-0.889966
O16	O	-0.707050	1.616702	-0.530339
O17	O	-0.697087	1.497592	-0.685328
C18	C	-0.467199	1.284261	-0.607868
C19	C	-0.467214	1.167485	-0.607891
C20	C	-0.322668	1.177881	-0.769579
C21	C	-0.250407	1.128219	-0.850433
C22	C	-0.250424	1.018499	-0.850449
C23	C	-0.322709	0.958437	-0.769599
C24	C	-0.394970	1.008099	-0.688745
C25	C	-0.394946	1.117823	-0.688741
C26	C	-0.539509	0.997703	-0.527053
C27	C	-0.539498	1.107424	-0.527042
C28	C	-0.611793	0.937641	-0.446204
C29	C	-0.684061	0.987304	-0.365354
C30	C	-0.684041	1.097031	-0.365343
C31	C	-0.611759	1.157086	-0.446188
C32	C	-0.740188	1.557164	-0.607853
C33	C	-0.856963	1.557235	-0.607882
C34	C	-0.867277	1.681372	-0.446613
C35	C	-0.927294	1.743469	-0.365993
C36	C	-1.037013	1.743533	-0.366028
C37	C	-1.086718	1.681495	-0.446693
C38	C	-1.026701	1.619399	-0.527313
C39	C	-0.916980	1.619339	-0.527267
C40	C	-1.016386	1.495269	-0.688586
C41	C	-0.906667	1.495198	-0.688548
C42	C	-1.066091	1.433231	-0.769252
C43	C	-1.006074	1.371127	-0.849867
C44	C	-0.896348	1.371065	-0.849828
C45	C	-0.846650	1.433101	-0.769167
C46	C	-0.193182	1.557325	-0.607942
C47	C	-0.076403	1.557366	-0.607967
C48	C	-0.446082	1.578339	-0.937014
C49	C	-0.437075	1.587335	-1.077270
C50	C	-0.467239	1.831263	-0.607900
C51	C	-0.467248	1.948041	-0.607907
C52	C	-0.488198	1.536262	-0.280034
C53	C	-0.496909	1.527470	-0.139779
H54	H	-0.611731	1.246426	-0.446180
F55	F	-0.611806	0.820866	-0.446217
F56	F	-1.058978	1.305117	-0.935715
H57	H	-0.555029	1.469338	-1.085995
F58	F	-0.361111	1.663334	-1.147572
F59	F	-0.173479	1.192148	-0.936473
F60	F	-0.322713	0.841662	-0.769606
F61	F	-0.173511	0.965643	-0.936494
F62	F	-0.322654	1.294657	-0.769583
H63	H	-0.847487	1.320503	-0.915484
H64	H	-0.886815	1.793982	-0.300318
H65	H	-0.777939	1.681312	-0.446561
H66	H	-0.742905	0.938393	-0.299528
F67	F	-0.729860	1.433297	-0.769407
F68	F	-1.100889	1.809628	-0.280230
H69	H	-0.742882	1.137459	-0.299497
H70	H	-1.176057	1.681563	-0.446725
F71	F	-1.182890	1.432926	-0.768868
