data_functionalizedCrystal
_audit_creation_method	'MofGen! by Chris Wilmer'
_symmetry_space_group_name_H-M	'P1'
_symmetry_Int_Tables_number	1
_symmetry_cell_setting	triclinic
loop_
_symmetry_equiv_pos_as_xyz
  x,y,z
_cell_length_a	16.109301
_cell_length_b	19.288865
_cell_length_c	18.366186
_cell_angle_alpha	89.990289
_cell_angle_beta	89.997193
_cell_angle_gamma	83.298864
loop_
_atom_site_label
_atom_site_type_symbol
_atom_site_fract_x
_atom_site_fract_y
_atom_site_fract_z
O1	O	-1.102828	-0.089280	0.060512
O2	O	-0.860728	-0.100391	0.060525
O3	O	-0.988773	0.006278	0.060504
O4	O	-0.974782	-0.195949	0.060533
O5	O	-0.988760	0.006281	-0.060596
O6	O	-0.860714	-0.100388	-0.060575
O7	O	-1.102814	-0.089278	-0.060587
Zn8	Zn	-0.981762	-0.094833	-0.079808
Zn9	Zn	-0.981780	-0.094836	0.079746
O10	O	-0.974769	-0.195947	-0.060566
C11	C	-0.829748	-0.099940	-0.000023
C12	C	-0.737457	-0.098590	-0.000019
C13	C	-0.988316	0.032157	-0.000048
C14	C	-0.986965	0.109264	-0.000054
C15	C	-1.133794	-0.089729	-0.000037
C16	C	-1.226085	-0.091078	-0.000037
C17	C	-0.514979	-0.158748	-0.000019
C18	C	-0.428263	-0.157475	-0.000024
C19	C	-0.448570	-0.030916	-0.000039
C20	C	-0.535284	-0.032190	-0.000040
C21	C	-0.568486	-0.096108	-0.000026
C22	C	-0.395056	-0.093561	-0.000030
C23	C	-0.301034	-0.092180	-0.000036
C24	C	-0.662513	-0.097489	-0.000022
C25	C	-0.975226	-0.221825	-0.000013
C26	C	-0.976577	-0.298932	-0.000002
N27	N	-0.981756	-0.094830	-0.188699
C28	C	-1.062096	0.153781	-0.000062
C29	C	-1.060827	0.226231	-0.000050
C30	C	-0.984421	0.254161	-0.000046
C31	C	-0.909280	0.209634	-0.000034
C32	C	-0.910552	0.137185	-0.000039
C33	C	-0.924353	0.362592	-0.042461
C34	C	-0.923085	0.435040	-0.042462
C35	C	-0.980496	0.477616	-0.000029
C36	C	-1.039190	0.447736	0.042393
C37	C	-1.040461	0.375288	0.042389
C38	C	-0.983034	0.332718	-0.000041
C39	C	-1.054256	0.600692	-0.000023
C40	C	-1.052983	0.673143	-0.000007
C41	C	-0.901434	0.656544	0.000001
C42	C	-0.902709	0.584095	-0.000007
C43	C	-0.979122	0.556173	-0.000023
C44	C	-1.038492	-0.047613	-0.773259
C45	C	-1.038493	-0.047615	-0.697031
C46	C	-0.981780	-0.094830	-0.658911
C47	C	-0.925076	-0.142059	-0.697024
C48	C	-0.925082	-0.142060	-0.773250
C49	C	-0.906021	-0.103919	-0.538151
C50	C	-0.906014	-0.103912	-0.461926
C51	C	-0.981761	-0.094828	-0.423803
C52	C	-1.057519	-0.085736	-0.461914
C53	C	-1.057526	-0.085738	-0.538140
C54	C	-0.981768	-0.094833	-0.576256
C55	C	-1.038467	-0.047607	-0.303044
C56	C	-1.038469	-0.047614	-0.226814
C57	C	-0.925044	-0.142054	-0.226809
C58	C	-0.925049	-0.142051	-0.303037
C59	C	-0.981760	-0.094824	-0.341150
N60	N	-0.981793	-0.094833	0.188637
H61	H	-0.542008	-0.210794	-0.000013
O62	O	-0.827192	0.683632	0.000136
C63	C	-0.697263	0.691562	0.062863
C64	C	-0.781324	0.660849	0.062806
H65	H	-0.660148	0.673142	0.113519
H66	H	-0.709207	0.750993	0.062914
H67	H	-0.660177	0.673248	0.012161
H68	H	-0.818454	0.679109	0.113499
H69	H	-0.769321	0.601421	0.062717
O70	O	-0.832447	-0.112627	-0.424872
C71	C	-0.742575	-0.063694	-0.338783
C72	C	-0.825906	-0.053721	-0.380716
H73	H	-0.737267	-0.016084	-0.303061
H74	H	-0.688397	-0.070161	-0.379084
H75	H	-0.740396	-0.112253	-0.303121
H76	H	-0.828166	-0.005161	-0.416379
H77	H	-0.880045	-0.047296	-0.340376
H78	H	-0.841529	0.547848	-0.000005
O79	O	-0.835008	0.236679	-0.000127
C80	C	-0.705105	0.244706	-0.062873
C81	C	-0.789183	0.214020	-0.062856
H82	H	-0.668038	0.226411	-0.113591
H83	H	-0.667940	0.226341	-0.012224
H84	H	-0.717120	0.304133	-0.062838
H85	H	-0.777243	0.154592	-0.062917
H86	H	-0.826320	0.232441	-0.113500
O87	O	-1.093468	-0.001579	-0.189910
C88	C	-1.142548	0.119256	-0.166896
C89	C	-1.080203	0.067154	-0.208670
H90	H	-1.131857	0.174838	-0.182060
H91	H	-1.132894	0.111306	-0.105837
H92	H	-1.209096	0.110189	-0.181905
H93	H	-1.013630	0.076190	-0.193723
H94	H	-1.089930	0.075117	-0.269720
O95	O	-1.131115	-0.076800	-0.424908
C96	C	-1.258681	-0.001786	-0.401569
C97	C	-1.175364	-0.011805	-0.443524
H98	H	-1.294487	0.050754	-0.416616
H99	H	-1.245689	-0.003307	-0.340538
H100	H	-1.297575	-0.045420	-0.416533
H101	H	-1.136428	0.031816	-0.428621
H102	H	-1.188416	-0.010312	-0.504545
O103	O	-1.128499	0.573594	0.000102
C104	C	-1.258433	0.565626	0.062819
C105	C	-1.174376	0.596345	0.062774
H106	H	-1.295557	0.584019	0.113476
H107	H	-1.246484	0.506195	0.062860
H108	H	-1.295515	0.583961	0.012119
H109	H	-1.137252	0.578063	0.113466
H110	H	-1.186385	0.655773	0.062695
H111	H	-1.122009	0.262483	-0.000054
O112	O	-0.376321	-0.218343	0.000115
C113	C	-0.332475	-0.326143	0.062848
C114	C	-0.391332	-0.257226	0.062791
H115	H	-0.344602	-0.357605	0.113508
H116	H	-0.264776	-0.314298	0.062890
H117	H	-0.344513	-0.357567	0.012151
H118	H	-0.379368	-0.225767	0.113479
H119	H	-0.459010	-0.269119	0.062711
H120	H	-0.844334	-0.111319	-0.569185
O121	O	-1.125949	0.716417	0.000118
C122	C	-1.212456	0.807854	0.062835
C123	C	-1.129800	0.758876	0.062792
H124	H	-1.215589	0.842205	0.113494
H125	H	-1.267316	0.775482	0.062870
H126	H	-1.215631	0.842170	0.012137
H127	H	-1.126544	0.724550	0.113482
H128	H	-1.074979	0.791289	0.062720
O129	O	-0.870035	-0.188018	-0.189822
C130	C	-0.820832	-0.308784	-0.166522
C131	C	-0.883189	-0.256803	-0.208444
H132	H	-0.831434	-0.364409	-0.181573
H133	H	-0.830565	-0.300737	-0.105485
H134	H	-0.754287	-0.299682	-0.181509
H135	H	-0.949758	-0.265874	-0.193517
H136	H	-0.873383	-0.264863	-0.269470
H137	H	-0.875289	0.459361	-0.077000
O138	O	-1.094935	0.489004	0.083721
C139	C	-1.147467	0.516960	0.204319
C140	C	-1.084306	0.470165	0.157605
H141	H	-1.138883	0.501756	0.264065
H142	H	-1.213748	0.509938	0.186471
H143	H	-1.136490	0.573872	0.197003
H144	H	-1.095206	0.413236	0.164898
H145	H	-1.018046	0.477247	0.175465
O146	O	-0.416177	0.031111	-0.000015
C147	C	-0.291590	0.089164	-0.000061
C148	C	-0.328160	0.018869	-0.000074
H149	H	-0.220423	0.079291	-0.000124
H150	H	-0.313590	0.120125	0.050627
H151	H	-0.313692	0.120120	-0.050732
H152	H	-0.306074	-0.012143	0.050563
H153	H	-0.306164	-0.012039	-0.050796
O154	O	-0.870098	-0.187952	-0.659917
C155	C	-0.852038	-0.282833	-0.573869
C156	C	-0.914390	-0.230883	-0.615832
H157	H	-0.887824	-0.317567	-0.538228
H158	H	-0.810625	-0.252872	-0.538145
H159	H	-0.811496	-0.316553	-0.614215
H160	H	-0.954988	-0.197150	-0.575539
H161	H	-0.955745	-0.260887	-0.651567
H162	H	-0.877600	0.327932	-0.077019
O163	O	-0.837511	0.094009	0.000061
C164	C	-0.708407	0.057609	0.062829
C165	C	-0.791086	0.106559	0.062799
H166	H	-0.670857	0.067728	0.113554
H167	H	-0.670726	0.067781	0.012188
H168	H	-0.722461	0.001037	0.062786
H169	H	-0.777108	0.163148	0.062868
H170	H	-0.828742	0.096326	0.113436
O171	O	-0.869883	-0.187860	-0.810236
C172	C	-0.725173	-0.228554	-0.833532
C173	C	-0.787596	-0.176638	-0.791612
H174	H	-0.658631	-0.219509	-0.818478
H175	H	-0.734844	-0.220443	-0.894568
H176	H	-0.735839	-0.284184	-0.818544
H177	H	-0.776968	-0.120987	-0.806538
H178	H	-0.777910	-0.184811	-0.730585
H179	H	-1.084671	-0.009160	-0.804288
O180	O	-0.587149	0.028727	-0.000013
C181	C	-0.598148	0.154391	-0.000073
C182	C	-0.539317	0.085460	-0.000082
H183	H	-0.559499	0.200278	-0.000145
H184	H	-0.639242	0.157003	0.050617
H185	H	-0.639265	0.156920	-0.050743
H186	H	-0.498147	0.082885	0.050553
H187	H	-0.498280	0.082877	-0.050806
O188	O	-1.136248	0.126543	-0.000099
C189	C	-1.205376	0.022290	-0.000055
C190	C	-1.121342	0.053045	-0.000034
H191	H	-1.193353	-0.037137	0.000013
H192	H	-1.242500	0.040584	-0.050747
H193	H	-1.242493	0.040662	0.050613
H194	H	-1.084157	0.034687	-0.050667
H195	H	-1.084281	0.034755	0.050692
O196	O	-1.093602	-0.001673	-0.660119
C197	C	-1.206122	0.091981	-0.668163
C198	C	-1.143746	0.040001	-0.710053
H199	H	-1.246692	0.125678	-0.708517
H200	H	-1.170390	0.126733	-0.632509
H201	H	-1.247503	0.061975	-0.632442
H202	H	-1.102350	0.069951	-0.745814
H203	H	-1.179530	0.005250	-0.745661
H204	H	-1.088250	0.350963	0.076933
O205	O	-1.131060	-0.077012	-0.575242
C206	C	-1.220958	-0.126018	-0.661255
C207	C	-1.137644	-0.135979	-0.619296
H208	H	-1.226316	-0.173690	-0.696871
H209	H	-1.223184	-0.077512	-0.697003
H210	H	-1.275085	-0.119492	-0.620906
H211	H	-1.083471	-0.142534	-0.659592
H212	H	-1.135491	-0.184471	-0.583537
H213	H	-1.084646	-0.009154	-0.334076
H214	H	-0.878876	-0.180500	-0.334063
