data_functionalizedCrystal
_audit_creation_method	'MofGen! by Chris Wilmer'
_symmetry_space_group_name_H-M	'P1'
_symmetry_Int_Tables_number	1
_symmetry_cell_setting	triclinic
loop_
_symmetry_equiv_pos_as_xyz
  x,y,z
_cell_length_a	17.699077
_cell_length_b	16.176319
_cell_length_c	17.699083
_cell_angle_alpha	90.004339
_cell_angle_beta	83.281795
_cell_angle_gamma	90.005422
loop_
_atom_site_label
_atom_site_type_symbol
_atom_site_fract_x
_atom_site_fract_y
_atom_site_fract_z
O1	O	1.004080	0.068737	0.095688
O2	O	1.504080	0.568737	0.595688
O3	O	0.783701	0.068741	0.108145
O4	O	1.283701	0.568741	0.608145
O5	O	0.900117	0.068732	-0.008273
O6	O	1.400117	0.568732	0.491727
O7	O	0.887665	0.068747	0.212106
O8	O	1.387665	0.568747	0.712106
O9	O	0.900104	-0.068761	-0.008273
O10	O	1.400104	0.431239	0.491727
O11	O	0.783688	-0.068752	0.108145
O12	O	1.283688	0.431248	0.608145
O13	O	1.004067	-0.068756	0.095688
O14	O	1.504067	0.431244	0.595688
Cu15	Cu	0.893876	-0.081308	0.101916
Cu16	Cu	1.393876	0.418692	0.601916
Cu17	Cu	0.893892	0.081294	0.101917
Cu18	Cu	1.393892	0.581294	0.601917
O19	O	0.887651	-0.068746	0.212106
O20	O	1.387651	0.431254	0.712106
C21	C	0.755498	-0.000005	0.107700
C22	C	1.255498	0.499995	0.607700
C23	C	0.671479	-0.000003	0.106363
C24	C	1.171479	0.499997	0.606363
N25	N	0.893870	-0.195673	0.101916
N26	N	1.393870	0.304327	0.601916
C27	C	0.632004	-0.074952	0.105733
C28	C	1.132004	0.425048	0.605733
C29	C	0.553062	-0.074953	0.104464
C30	C	1.053062	0.425047	0.604464
C31	C	0.513595	-0.000004	0.103832
C32	C	1.013595	0.499996	0.603832
C33	C	0.553076	0.074950	0.104460
C34	C	1.053076	0.574950	0.604460
C35	C	0.632017	0.074950	0.105722
C36	C	1.132017	0.574950	0.605722
C37	C	0.234712	0.074951	0.099366
C38	C	0.734712	0.574951	0.599366
C39	C	0.155765	0.074945	0.098106
C40	C	0.655765	0.574945	0.598106
C41	C	0.155757	-0.074952	0.098108
C42	C	0.655757	0.425048	0.598108
C43	C	0.234699	-0.074951	0.099371
C44	C	0.734699	0.425049	0.599371
C45	C	0.274173	0.000002	0.099995
C46	C	0.774173	0.500002	0.599995
C47	C	0.359772	0.000002	0.101369
C48	C	0.859772	0.500002	0.601369
C49	C	0.427997	-0.000004	0.102464
C50	C	0.927997	0.499996	0.602464
C51	C	0.939685	-0.238932	0.147763
C52	C	1.439685	0.261068	0.647763
C53	C	0.939693	-0.325479	0.147760
C54	C	1.439693	0.174521	0.647760
C55	C	0.893882	-0.368766	0.101913
C56	C	1.393882	0.131234	0.601913
C57	C	0.848065	-0.325502	0.056060
C58	C	1.348065	0.174498	0.556060
C59	C	0.848062	-0.238956	0.056060
C60	C	1.348062	0.261044	0.556060
C61	C	0.848079	-0.674530	0.056061
C62	C	1.348079	-0.174530	0.556061
C63	C	0.848084	-0.761081	0.056067
C64	C	1.348084	-0.261081	0.556067
C65	C	0.939711	-0.761052	0.147762
C66	C	1.439711	-0.261052	0.647762
C67	C	0.939707	-0.674507	0.147761
C68	C	1.439707	-0.174507	0.647761
C69	C	0.893894	-0.631250	0.101906
C70	C	1.393894	-0.131250	0.601906
C71	C	0.893887	-0.537406	0.101908
C72	C	1.393887	-0.037406	0.601908
C73	C	0.893884	-0.462608	0.101914
C74	C	1.393884	0.037392	0.601914
C75	C	1.032271	-0.000008	0.096133
C76	C	1.532271	0.499992	0.596133
C77	C	1.116289	-0.000004	0.097470
C78	C	1.616289	0.499996	0.597470
C79	C	0.899664	-0.000015	-0.036470
C80	C	1.399664	0.499985	0.463530
C81	C	0.898326	-0.000015	-0.120488
C82	C	1.398326	0.499985	0.379512
N83	N	0.893904	0.195659	0.101911
N84	N	1.393904	0.695659	0.601911
C85	C	0.966659	-0.000018	-0.169110
C86	C	1.466659	0.499982	0.330890
C87	C	0.965397	-0.000010	-0.248054
C88	C	1.465397	0.499990	0.251946
C89	C	0.895800	-0.000006	-0.278373
C90	C	1.395800	0.499994	0.221627
C91	C	0.827461	-0.000001	-0.229744
C92	C	1.327461	0.499999	0.270256
C93	C	0.828724	-0.000003	-0.150803
C94	C	1.328724	0.499997	0.349197
C95	C	0.822366	0.000005	-0.548107
C96	C	1.322366	0.500005	-0.048107
C97	C	0.821108	0.000004	-0.627055
C98	C	1.321108	0.500004	-0.127055
C99	C	0.959039	-0.000002	-0.645358
C100	C	1.459039	0.499998	-0.145358
C101	C	0.960302	-0.000003	-0.566417
C102	C	1.460302	0.499997	-0.066417
C103	C	0.891963	0.000006	-0.517795
C104	C	1.391963	0.500006	-0.017795
C105	C	0.893333	-0.000000	-0.432196
C106	C	1.393333	0.500000	0.067804
C107	C	0.894430	-0.000006	-0.363971
C108	C	1.394430	0.499994	0.136029
C109	C	0.888104	0.000002	0.240303
C110	C	1.388104	0.500002	0.740303
C111	C	0.889443	0.000008	0.324321
C112	C	1.389443	0.500008	0.824321
H113	H	0.520927	-0.135983	0.103939
H114	H	1.020927	0.364017	0.603939
H115	H	0.266828	-0.135982	0.099890
H116	H	0.766828	0.364018	0.599890
C117	C	0.750117	-0.070678	-0.051403
C118	C	1.250117	0.429322	0.448597
C119	C	0.753611	-0.000001	-0.097352
C120	C	1.253611	0.499999	0.402648
H121	H	0.703745	-0.070669	-0.018403
H122	H	1.203745	0.429331	0.481597
H123	H	0.752480	-0.118617	-0.082582
H124	H	1.252480	0.381383	0.417418
H125	H	0.791751	-0.070671	-0.022054
H126	H	1.291751	0.429329	0.477946
H127	H	0.711980	-0.000011	-0.126706
H128	H	1.211980	0.499989	0.373294
H129	H	0.751240	0.047950	-0.066170
H130	H	1.251240	0.547950	0.433830
C131	C	0.944231	-0.422807	0.249545
C132	C	1.444231	0.077193	0.749545
C133	C	0.990053	-0.373035	0.198155
C134	C	1.490053	0.126965	0.698155
H135	H	0.975325	-0.452170	0.280651
H136	H	1.475325	0.047830	0.780651
H137	H	0.909348	-0.389050	0.280604
H138	H	1.409348	0.110950	0.780604
H139	H	0.916952	-0.460965	0.222228
H140	H	1.416952	0.039035	0.722228
H141	H	1.017328	-0.334872	0.225471
H142	H	1.517328	0.165128	0.725471
H143	H	1.024949	-0.406795	0.167092
H144	H	1.524949	0.093205	0.667092
C145	C	0.807335	-0.458179	0.015387
C146	C	1.307335	0.041821	0.515387
C147	C	0.797705	-0.373078	0.005664
C148	C	1.297705	0.126922	0.505664
H149	H	0.776238	-0.487546	-0.015722
H150	H	1.276238	0.012454	0.484278
H151	H	0.859135	-0.472384	0.001280
H152	H	1.359135	0.027616	0.501280
H153	H	0.793150	-0.472321	0.067197
H154	H	1.293150	0.027679	0.567197
H155	H	0.811895	-0.358935	-0.046145
H156	H	1.311895	0.141065	0.453855
H157	H	0.745894	-0.358867	0.019767
H158	H	1.245894	0.141133	0.519767
H159	H	0.664157	0.135981	0.106237
H160	H	1.164157	0.635981	0.606237
C161	C	1.041476	-0.577153	0.152361
C162	C	1.541476	-0.077153	0.652361
C163	C	0.990061	-0.626922	0.198158
C164	C	1.490061	-0.126922	0.698158
H165	H	1.072559	-0.547772	0.183475
H166	H	1.572559	-0.047772	0.683475
H167	H	1.072557	-0.610913	0.117500
H168	H	1.572557	-0.110913	0.617500
H169	H	1.014179	-0.539009	0.125058
H170	H	1.514179	-0.039009	0.625058
H171	H	1.017358	-0.665070	0.225457
H172	H	1.517358	-0.165070	0.725457
H173	H	0.958976	-0.593158	0.233033
H174	H	1.458976	-0.093158	0.733033
H175	H	0.977016	-0.796282	0.185098
H176	H	1.477016	-0.296282	0.685098
C177	C	1.018360	0.000011	-0.774500
C178	C	1.518360	0.500011	-0.274500
C179	C	1.034160	0.000001	-0.698806
C180	C	1.534160	0.500001	-0.198806
H181	H	1.064736	0.000016	-0.807493
H182	H	1.564736	0.500016	-0.307493
H183	H	0.989817	-0.047931	-0.783679
H184	H	1.489817	0.452069	-0.283679
H185	H	0.989822	0.047963	-0.783663
H186	H	1.489822	0.547963	-0.283663
H187	H	1.062694	-0.047955	-0.689641
H188	H	1.562694	0.452045	-0.189641
H189	H	1.062715	0.047948	-0.689623
H190	H	1.562715	0.547948	-0.189623
H191	H	0.123633	0.135981	0.097590
H192	H	0.623633	0.635981	0.597590
C193	C	0.034742	-0.141524	0.096160
C194	C	0.534742	0.358476	0.596160
C195	C	0.112366	-0.157345	0.097410
C196	C	0.612366	0.342655	0.597410
H197	H	0.007958	-0.192390	0.095726
H198	H	0.507958	0.307610	0.595726
H199	H	0.015952	-0.110732	0.140069
H200	H	0.515952	0.389268	0.640069
H201	H	0.027673	-0.110732	0.051831
H202	H	0.527673	0.389268	0.551831
H203	H	0.119435	-0.188132	0.141743
H204	H	0.619435	0.311868	0.641743
H205	H	0.131162	-0.188150	0.053497
H206	H	0.631162	0.311850	0.553497
H207	H	0.266843	0.135983	0.099872
H208	H	0.766843	0.635983	0.599872
H209	H	0.520936	0.135974	0.103939
H210	H	1.020936	0.635974	0.603939
C211	C	0.757521	-0.752425	-0.034592
C212	C	1.257521	-0.252425	0.465408
C213	C	0.797732	-0.808666	0.005662
C214	C	1.297732	-0.308666	0.505662
H215	H	0.726442	-0.781804	-0.065711
H216	H	1.226442	-0.281804	0.434289
H217	H	0.726437	-0.718671	0.000272
H218	H	1.226437	-0.218671	0.500272
H219	H	0.792418	-0.718665	-0.065649
H220	H	1.292418	-0.218665	0.434351
H221	H	0.762834	-0.842422	0.036723
H222	H	1.262834	-0.342422	0.536723
H223	H	0.828818	-0.842434	-0.029206
H224	H	1.328818	-0.342434	0.470794
H225	H	0.810754	-0.203736	0.018726
H226	H	1.310754	0.296264	0.518726
H227	H	0.976986	-0.203693	0.185102
H228	H	1.476986	0.296307	0.685102
C229	C	0.746270	-0.577256	0.051491
C230	C	1.246270	-0.077256	0.551491
C231	C	0.797692	-0.627001	0.005679
C232	C	1.297692	-0.127001	0.505679
H233	H	0.715158	-0.547913	0.020388
H234	H	1.215158	-0.047913	0.520388
H235	H	0.715219	-0.611029	0.086368
H236	H	1.215219	-0.111029	0.586368
H237	H	0.773563	-0.539080	0.078776
H238	H	1.273563	-0.039080	0.578776
H239	H	0.770399	-0.665181	-0.021602
H240	H	1.270399	-0.165181	0.478398
H241	H	0.828746	-0.593226	-0.029212
H242	H	1.328746	-0.093226	0.470788
H243	H	1.023333	-0.000026	-0.144431
H244	H	1.523333	0.499974	0.355569
H245	H	1.021041	-0.000014	-0.287639
H246	H	1.521041	0.499986	0.212361
C247	C	1.096518	0.000001	-0.592440
C248	C	1.596518	0.500001	-0.092440
C249	C	1.036804	-0.000004	-0.533091
C250	C	1.536804	0.499996	-0.033091
H251	H	1.143748	0.000008	-0.571865
H252	H	1.643748	0.500008	-0.071865
H253	H	1.093156	-0.047944	-0.622850
H254	H	1.593156	0.452056	-0.122850
H255	H	1.093154	0.047950	-0.622848
H256	H	1.593154	0.547950	-0.122848
H257	H	1.040165	-0.047957	-0.502686
H258	H	1.540165	0.452043	-0.002686
H259	H	1.040168	0.047946	-0.502668
H260	H	1.540168	0.547946	-0.002668
H261	H	0.764431	0.000006	-0.651737
H262	H	1.264431	0.500006	-0.151737
H263	H	0.766721	0.000013	-0.508528
H264	H	1.266721	0.500013	-0.008528
H265	H	0.770794	0.000007	-0.254436
H266	H	1.270794	0.500007	0.245564
H267	H	0.664132	-0.135984	0.106254
H268	H	1.164132	0.364016	0.606254
