data_functionalizedCrystal
_audit_creation_method	'MofGen! by Chris Wilmer'
_symmetry_space_group_name_H-M	'P1'
_symmetry_Int_Tables_number	1
_symmetry_cell_setting	triclinic
loop_
_symmetry_equiv_pos_as_xyz
  x,y,z
_cell_length_a	13.635800
_cell_length_b	10.943632
_cell_length_c	10.943624
_cell_angle_alpha	88.228940
_cell_angle_beta	108.838799
_cell_angle_gamma	71.161120
loop_
_atom_site_label
_atom_site_type_symbol
_atom_site_fract_x
_atom_site_fract_y
_atom_site_fract_z
V1	V	2.057748	-0.178596	0.402520
O2	O	2.036602	0.008617	0.394890
O3	O	2.046723	-0.354159	0.399737
O4	O	2.046729	-0.175834	0.578087
O5	O	2.036596	-0.170943	0.215305
V6	V	2.296146	-0.156205	0.380131
O7	O	2.195753	-0.227713	0.451632
O8	O	2.383239	-0.107088	0.331020
O9	O	2.195568	0.019358	0.382915
O10	O	2.375990	-0.343418	0.387762
O11	O	2.375996	-0.163858	0.567347
O12	O	2.195562	-0.158967	0.204564
V13	V	2.557748	-0.178596	0.402520
O14	O	2.536602	0.008617	0.394890
O15	O	2.546723	-0.354159	0.399737
O16	O	2.546729	-0.175834	0.578087
O17	O	2.536596	-0.170943	0.215305
V18	V	2.796146	-0.156205	0.380131
O19	O	2.695753	-0.227713	0.451632
O20	O	2.883239	-0.107088	0.331020
O21	O	2.695568	0.019358	0.382915
O22	O	2.875990	-0.343418	0.387762
O23	O	2.875996	-0.163858	0.567347
O24	O	2.695562	-0.158967	0.204564
C25	C	1.972002	-0.396958	0.393379
C26	C	2.003719	-0.540484	0.392273
C27	C	1.926142	-0.617637	0.384920
C28	C	1.965560	-0.690292	0.280695
C29	C	2.020829	-0.723567	0.494542
C30	C	2.042696	-0.611235	0.287974
C31	C	2.097975	-0.644516	0.501916
C32	C	2.137447	-0.717134	0.397670
C33	C	1.972009	-0.169484	0.620881
C34	C	2.003729	-0.168388	0.764408
C35	C	2.101960	0.062151	0.389269
C36	C	2.059863	0.205675	0.390383
C37	C	2.101953	-0.165321	0.161764
C38	C	2.059851	-0.166411	0.018236
C39	C	2.472002	-0.396958	0.393379
C40	C	2.503719	-0.540484	0.392273
C41	C	2.472009	-0.169484	0.620881
C42	C	2.503729	-0.168388	0.764408
C43	C	1.926144	-0.161001	0.841556
C44	C	2.020823	-0.270645	0.947527
C45	C	1.965582	-0.056801	0.914178
C46	C	2.098013	-0.278134	0.868502
C47	C	2.042732	-0.064194	0.835129
C48	C	2.137480	-0.173869	0.941070
C49	C	2.601960	0.062151	0.389269
C50	C	2.559863	0.205675	0.390383
C51	C	2.601953	-0.165321	0.161764
C52	C	2.559851	-0.166411	0.018236
C53	C	2.426142	-0.617637	0.384920
C54	C	2.465560	-0.690292	0.280695
C55	C	2.520829	-0.723567	0.494542
C56	C	2.542696	-0.611235	0.287974
C57	C	2.597975	-0.644516	0.501916
C58	C	2.637447	-0.717134	0.397670
C59	C	2.426144	-0.161001	0.841556
C60	C	2.520823	-0.270645	0.947527
C61	C	2.465582	-0.056801	0.914178
C62	C	2.598013	-0.278134	0.868502
C63	C	2.542732	-0.064194	0.835129
C64	C	2.637480	-0.173869	0.941070
H65	H	1.836485	-0.574154	0.379408
H66	H	2.653588	-0.623718	0.595459
H67	H	2.051621	0.023090	0.786160
H68	H	2.011869	-0.772480	0.581812
O69	O	2.553493	0.039783	0.776652
C70	C	2.631143	-0.005026	0.713915
H71	H	2.688681	-0.108880	0.760985
H72	H	2.585771	-0.003954	0.606024
C73	C	2.628863	0.212426	0.669732
C74	C	2.699537	0.084874	0.727552
H75	H	2.671049	0.267883	0.678137
H76	H	2.576545	0.242616	0.711994
H77	H	2.591058	0.213301	0.579827
H78	H	2.737330	0.083998	0.817457
H79	H	2.751863	0.054686	0.685304
H80	H	2.409906	-0.711058	0.187152
H81	H	1.909908	0.036718	0.934956
O82	O	2.244428	-0.768812	0.404290
C83	C	2.306563	-0.862307	0.517713
H84	H	2.263615	-0.841441	0.592495
H85	H	2.313384	-0.964058	0.491669
C86	C	2.475986	-0.880797	0.483926
C87	C	2.423241	-0.855163	0.575779
H88	H	2.547961	-0.876397	0.519742
H89	H	2.434125	-0.817812	0.407508
H90	H	2.481659	-0.965589	0.462231
H91	H	2.417557	-0.770367	0.597461
H92	H	2.465104	-0.918134	0.652203
H93	H	2.511892	-0.357924	0.996461
O94	O	2.553439	-0.553290	0.183678
C95	C	2.591054	-0.648934	0.109700
H96	H	2.635282	-0.748283	0.174328
H97	H	2.517450	-0.652685	0.024748
C98	C	2.617504	-0.492117	-0.023030
C99	C	2.671835	-0.614137	0.056349
H100	H	2.667330	-0.470651	-0.055946
H101	H	2.592158	-0.427677	0.026806
H102	H	2.556169	-0.495258	-0.093814
H103	H	2.733160	-0.610990	0.127139
H104	H	2.697193	-0.678576	0.006523
H105	H	2.336485	-0.574154	0.379408
H106	H	2.051614	-0.562474	0.200587
H107	H	2.153588	-0.623718	0.595459
O108	O	2.010271	-0.374908	1.005795
C109	C	2.079133	-0.491326	0.981291
H110	H	2.096854	-0.470207	0.889491
H111	H	2.160326	-0.531892	1.067872
C112	C	1.998973	-0.618162	1.074325
C113	C	2.020731	-0.592226	0.961568
H114	H	1.962952	-0.680405	1.062164
H115	H	1.952582	-0.539730	1.090839
H116	H	2.066640	-0.651961	1.146464
H117	H	1.953064	-0.558413	0.889434
H118	H	2.067109	-0.670655	0.945041
O119	O	2.164300	-0.389941	0.843928
C120	C	2.098968	-0.459797	0.775057
H121	H	2.017600	-0.429639	0.794028
H122	H	2.081178	-0.437258	0.666024
C123	C	2.261487	-0.644328	0.798186
C124	C	2.161553	-0.607296	0.821495
H125	H	2.300093	-0.735313	0.826826
H126	H	2.305503	-0.597264	0.844582
H127	H	2.246647	-0.625536	0.707324
H128	H	2.176394	-0.626074	0.912357
H129	H	2.117541	-0.654367	0.775116
O130	O	2.399231	0.054707	0.939140
C131	C	2.430978	0.054789	1.075179
H132	H	2.476339	-0.049908	1.127946
H133	H	2.488080	0.113514	1.105864
C134	C	2.271533	0.245568	1.046240
C135	C	2.327238	0.116976	1.111049
H136	H	2.207543	0.283933	1.068367
H137	H	2.250146	0.245516	0.954587
H138	H	2.319129	0.294489	1.071817
H139	H	2.279647	0.068054	1.085459
H140	H	2.348615	0.117021	1.202699
H141	H	1.836543	-0.155706	0.798109
O142	O	2.244500	-0.180617	0.992647
C143	C	2.314252	-0.297364	0.969808
H144	H	2.270883	-0.371917	0.953911
H145	H	2.333835	-0.276771	0.879272
C146	C	2.475841	-0.260433	1.108161
C147	C	2.422579	-0.352004	1.088646
H148	H	2.542665	-0.294136	1.181462
H149	H	2.428849	-0.181776	1.123544
H150	H	2.492150	-0.243281	1.032705
H151	H	2.406259	-0.369143	1.164094
H152	H	2.469571	-0.430666	1.073278
O153	O	2.319197	-0.154452	0.789610
C154	C	2.257135	-0.041018	0.696115
H155	H	2.300024	0.033808	0.717164
H156	H	2.250510	-0.067026	0.594391
C157	C	2.087677	-0.074957	0.677114
C158	C	2.140350	0.016950	0.702973
H159	H	2.015637	-0.039201	0.681338
H160	H	2.129490	-0.151383	0.740100
H161	H	2.082167	-0.096622	0.592345
H162	H	2.145872	0.038601	0.787746
H163	H	2.098536	0.093381	0.640002
H164	H	2.653705	-0.371779	0.847941
O165	O	2.744428	-0.768812	0.404290
C166	C	2.806563	-0.862307	0.517713
H167	H	2.763615	-0.841441	0.592495
H168	H	2.813384	-0.964058	0.491669
C169	C	2.975986	-0.880797	0.483926
C170	C	2.923241	-0.855163	0.575779
H171	H	3.047961	-0.876397	0.519742
H172	H	2.934125	-0.817812	0.407508
H173	H	2.981659	-0.965589	0.462231
H174	H	2.917557	-0.770367	0.597461
H175	H	2.965104	-0.918134	0.652203
O176	O	2.744500	-0.180617	0.992647
C177	C	2.814252	-0.297364	0.969808
H178	H	2.770883	-0.371917	0.953911
H179	H	2.833835	-0.276771	0.879272
C180	C	2.975841	-0.260433	1.108161
C181	C	2.922579	-0.352004	1.088646
H182	H	3.042665	-0.294136	1.181462
H183	H	2.928849	-0.181776	1.123544
H184	H	2.992150	-0.243281	1.032705
H185	H	2.906259	-0.369143	1.164094
H186	H	2.969571	-0.430666	1.073278
H187	H	2.511869	-0.772480	0.581812
H188	H	1.909906	-0.711058	0.187152
