data_functionalizedCrystal
_audit_creation_method	'MofGen! by Chris Wilmer'
_symmetry_space_group_name_H-M	'P1'
_symmetry_Int_Tables_number	1
_symmetry_cell_setting	triclinic
loop_
_symmetry_equiv_pos_as_xyz
  x,y,z
_cell_length_a	10.908937
_cell_length_b	10.654550
_cell_length_c	9.730223
_cell_angle_alpha	90.004253
_cell_angle_beta	89.994794
_cell_angle_gamma	107.714557
loop_
_atom_site_label
_atom_site_type_symbol
_atom_site_fract_x
_atom_site_fract_y
_atom_site_fract_z
O1	O	1.702113	0.193586	-0.114329
O2	O	2.202113	0.693586	0.385671
O3	O	1.329124	0.095704	-0.114323
O4	O	1.829124	0.595704	0.385677
O5	O	1.524194	0.329248	-0.114317
O6	O	2.024194	0.829248	0.385683
O7	O	1.507043	-0.039959	-0.114334
O8	O	2.007043	0.460041	0.385666
O9	O	1.524182	0.329251	0.114263
O10	O	2.024182	0.829251	0.614263
O11	O	1.329111	0.095706	0.114257
O12	O	1.829111	0.595706	0.614257
O13	O	1.702100	0.193588	0.114251
O14	O	2.202100	0.693588	0.614251
Zn15	Zn	1.515604	0.144648	0.150546
Zn16	Zn	2.015604	0.644648	0.650546
Zn17	Zn	1.515620	0.144644	-0.150618
Zn18	Zn	2.015620	0.644644	0.349382
O19	O	1.507030	-0.039956	0.114246
O20	O	2.007030	0.460044	0.614246
C21	C	1.281358	0.086558	-0.000032
C22	C	1.781358	0.586558	0.499968
C23	C	1.139049	0.059316	-0.000030
C24	C	1.639049	0.559316	0.499970
C25	C	0.942073	0.130574	-0.000051
C26	C	1.442073	0.630574	0.499949
C27	C	1.089157	0.158732	-0.000033
C28	C	1.589157	0.658732	0.499967
C29	C	1.522929	0.375774	-0.000028
C30	C	2.022929	0.875774	0.499972
C31	C	1.519161	0.514398	-0.000030
C32	C	2.019161	1.014398	0.499970
C33	C	1.749866	0.202734	-0.000043
C34	C	2.249866	0.702734	0.499957
C35	C	1.892175	0.229976	-0.000054
C36	C	2.392175	0.729976	0.499946
C37	C	1.508296	-0.086482	-0.000047
C38	C	2.008296	0.413518	0.499953
C39	C	1.512064	-0.225106	-0.000054
C40	C	2.012064	0.274894	0.499946
N41	N	1.515602	0.144653	0.356082
N42	N	2.015602	0.644653	0.856082
C43	C	1.634015	0.618849	-0.000033
C44	C	2.134015	1.118849	0.499967
C45	C	1.630467	0.749099	-0.000049
C46	C	2.130467	1.249099	0.499951
C47	C	1.397201	0.670431	-0.000056
C48	C	1.897201	1.170431	0.499944
C49	C	1.400750	0.540184	-0.000049
C50	C	1.900750	1.040184	0.499951
N51	N	1.515633	0.144651	-0.356154
N52	N	2.015633	0.644651	0.143846
C53	C	1.602009	0.248036	0.428011
C54	C	2.102009	0.748036	0.928011
C55	C	1.602021	0.248039	0.571894
C56	C	2.102021	0.748039	1.071894
C57	C	1.429216	0.041262	0.571907
C58	C	1.929216	0.541262	1.071907
C59	C	1.429199	0.041265	0.428027
C60	C	1.929199	0.541265	0.928027
H61	H	1.072883	-0.046639	-0.000044
H62	H	1.572883	0.453361	0.499956
H63	H	0.958346	0.335923	-0.000052
H64	H	1.458346	0.835923	0.499948
H65	H	1.730433	0.597860	-0.000020
H66	H	2.230433	1.097860	0.499980
H67	H	1.300794	0.691443	-0.000068
H68	H	1.800794	1.191443	0.499932
C69	C	1.697066	0.361758	0.651016
C70	C	2.197066	0.861758	1.151016
H71	H	1.684696	0.346961	0.747010
H72	H	2.184696	0.846961	1.247010
H73	H	1.782722	0.365958	0.627418
H74	H	2.282722	0.865958	1.127418
H75	H	1.682397	0.442522	0.627445
H76	H	2.182397	0.942522	1.127445
H77	H	0.875901	0.024627	-0.000070
H78	H	1.375901	0.524627	0.499930
H79	H	1.307216	0.455132	-0.000051
H80	H	1.807216	0.955132	0.499949
H81	H	1.155324	0.264687	-0.000030
H82	H	1.655324	0.764687	0.499970
H83	H	1.358871	-0.042916	0.630499
H84	H	1.858871	0.457084	1.130499
C85	C	1.756807	0.863990	-0.000043
C86	C	2.256807	1.363990	0.499957
H87	H	1.827831	0.829972	-0.000021
H88	H	2.327831	1.329972	0.499979
H89	H	1.760285	0.916429	-0.079757
H90	H	2.260285	1.416429	0.420243
H91	H	1.760259	0.916439	0.079675
H92	H	2.260259	1.416439	0.579675
C93	C	1.334158	-0.072466	0.348894
C94	C	1.834158	0.427534	0.848894
H95	H	1.346517	-0.057649	0.252901
H96	H	1.846517	0.442351	0.752901
H97	H	1.348821	-0.153228	0.372456
H98	H	1.848821	0.346772	0.872456
H99	H	1.248495	-0.076665	0.372490
H100	H	1.748495	0.423335	0.872490
C101	C	1.697036	0.361766	0.348876
C102	C	2.197036	0.861766	0.848876
H103	H	1.748489	0.423343	0.412327
H104	H	2.248489	0.923343	0.912327
H105	H	1.750782	0.327791	0.292726
H106	H	2.250782	0.827791	0.792726
H107	H	1.650452	0.404349	0.292771
H108	H	2.150452	0.904349	0.792771
