data_functionalizedCrystal
_audit_creation_method	'MofGen! by Chris Wilmer'
_symmetry_space_group_name_H-M	'P1'
_symmetry_Int_Tables_number	1
_symmetry_cell_setting	triclinic
loop_
_symmetry_equiv_pos_as_xyz
  x,y,z
_cell_length_a	9.065215
_cell_length_b	16.992695
_cell_length_c	7.540329
_cell_angle_alpha	89.996528
_cell_angle_beta	89.996713
_cell_angle_gamma	87.841460
loop_
_atom_site_label
_atom_site_type_symbol
_atom_site_fract_x
_atom_site_fract_y
_atom_site_fract_z
O1	O	1.971077	0.115054	-0.147464
O2	O	1.542667	0.124495	-0.147472
O3	O	1.755155	0.005619	-0.147454
O4	O	1.758590	0.233929	-0.147482
O5	O	1.755137	0.005619	0.147511
O6	O	1.542650	0.124494	0.147493
O7	O	1.971059	0.115054	0.147501
Cu8	Cu	1.756853	0.119774	0.174429
Cu9	Cu	1.756874	0.119774	-0.174401
O10	O	1.758572	0.233929	0.147483
C11	C	1.487588	0.123588	0.000009
C12	C	1.323493	0.120876	0.000006
C13	C	1.750727	-0.023625	0.000028
C14	C	1.737544	-0.110762	0.000027
C15	C	1.864750	-0.160100	0.000031
C16	C	1.852353	-0.241975	0.000014
C17	C	1.712749	-0.274510	0.000006
C18	C	1.585534	-0.225166	-0.000004
C19	C	1.597932	-0.143293	0.000001
C20	C	1.661366	-0.518472	-0.000020
C21	C	1.648977	-0.600352	-0.000019
C22	C	1.915798	-0.617155	-0.000004
C23	C	1.928183	-0.535280	0.000011
C24	C	1.800968	-0.485943	-0.000008
N25	N	1.700075	-0.358199	-0.000006
N26	N	1.813644	-0.402256	-0.000008
C27	C	2.026139	0.115961	0.000015
C28	C	2.190234	0.118672	0.000006
C29	C	1.762999	0.263173	-0.000003
C30	C	1.776183	0.350311	-0.000014
N31	N	1.756849	0.119773	0.419778
N32	N	1.756876	0.119773	0.580251
H33	H	1.955938	-0.282143	0.000022
H34	H	1.471865	-0.251662	-0.000022
O35	O	1.474408	-0.095330	-0.000313
C36	C	1.473630	-0.047452	-0.153057
H37	H	1.545607	-0.076893	-0.259826
H38	H	1.355784	-0.039088	-0.204343
H39	H	1.518866	0.012339	-0.118517
O40	O	2.000476	-0.128629	-0.000043
C41	C	2.110091	-0.189736	-0.000005
H42	H	2.062141	-0.245632	-0.055846
H43	H	2.206979	-0.171957	-0.085645
H44	H	2.149789	-0.201032	0.141503
H45	H	2.019369	-0.657334	0.000008
O46	O	2.063832	-0.503719	-0.000295
C47	C	2.141993	-0.528848	-0.153031
H48	H	2.060539	-0.546430	-0.259818
H49	H	2.210672	-0.478817	-0.204293
H50	H	2.217970	-0.581616	-0.118491
O51	O	1.513328	-0.631923	-0.000357
C52	C	1.435204	-0.606792	-0.153114
H53	H	1.516682	-0.589194	-0.259875
H54	H	1.366560	-0.656827	-0.204402
H55	H	1.359196	-0.554034	-0.118591
O56	O	1.537833	-0.470524	-0.000341
C57	C	1.537035	-0.422646	-0.153086
H58	H	1.609019	-0.452081	-0.259856
H59	H	1.419186	-0.414293	-0.204367
H60	H	1.582253	-0.362850	-0.118549
