data_functionalizedCrystal
_audit_creation_method	'MofGen! by Chris Wilmer'
_symmetry_space_group_name_H-M	'P1'
_symmetry_Int_Tables_number	1
_symmetry_cell_setting	triclinic
loop_
_symmetry_equiv_pos_as_xyz
  x,y,z
_cell_length_a	13.635800
_cell_length_b	13.167930
_cell_length_c	9.582880
_cell_angle_alpha	83.023828
_cell_angle_beta	111.207034
_cell_angle_gamma	74.245432
loop_
_atom_site_label
_atom_site_type_symbol
_atom_site_fract_x
_atom_site_fract_y
_atom_site_fract_z
V1	V	2.069924	-0.148420	0.487212
O2	O	2.050599	0.007599	0.456664
O3	O	2.056842	-0.294741	0.504339
O4	O	2.065116	-0.145932	0.690367
O5	O	2.042267	-0.142240	0.269348
V6	V	2.307784	-0.129783	0.458668
O7	O	2.209110	-0.189303	0.549824
O8	O	2.393697	-0.088900	0.396055
O9	O	2.209263	0.016539	0.441540
O10	O	2.385808	-0.285802	0.489216
O11	O	2.394139	-0.135963	0.676531
O12	O	2.200989	-0.132271	0.255513
V13	V	2.569924	-0.148420	0.487212
O14	O	2.550599	0.007599	0.456664
O15	O	2.556842	-0.294741	0.504339
O16	O	2.565116	-0.145932	0.690367
O17	O	2.542267	-0.142240	0.269348
V18	V	2.807784	-0.129783	0.458668
O19	O	2.709110	-0.189303	0.549824
O20	O	2.893697	-0.088900	0.396055
O21	O	2.709263	0.016539	0.441540
O22	O	2.885808	-0.285802	0.489216
O23	O	2.894139	-0.135963	0.676531
O24	O	2.700989	-0.132271	0.255513
C25	C	1.981420	-0.330418	0.501933
C26	C	2.011496	-0.450036	0.517291
C27	C	1.999009	-0.644346	0.267797
C28	C	2.027267	-0.756738	0.282220
C29	C	2.096278	-0.787212	0.560559
C30	C	2.068020	-0.674820	0.546136
C31	C	2.019384	-0.603391	0.399750
C32	C	1.991118	-0.490998	0.385328
C33	C	2.060136	-0.521474	0.663666
C34	C	2.088394	-0.633865	0.678089
C35	C	1.991974	-0.140595	0.739228
C36	C	2.028758	-0.139529	0.905443
C37	C	2.116356	0.052209	0.443944
C38	C	2.075900	0.171827	0.428596
C39	C	2.105802	-0.137611	0.206645
C40	C	2.058636	-0.138671	0.040427
C41	C	2.481420	-0.330418	0.501933
C42	C	2.511496	-0.450036	0.517291
C43	C	2.491974	-0.140595	0.739228
C44	C	2.528758	-0.139529	0.905443
C45	C	2.616356	0.052209	0.443944
C46	C	2.575900	0.171827	0.428596
C47	C	2.605802	-0.137611	0.206645
C48	C	2.558636	-0.138671	0.040427
C49	C	2.617836	-0.511689	0.532741
C50	C	2.646116	-0.624086	0.547195
C51	C	2.568052	-0.674827	0.546187
C52	C	2.461705	-0.613166	0.530740
C53	C	2.433429	-0.500772	0.516297
C54	C	2.642054	0.233479	0.413149
C55	C	2.604047	0.345876	0.398703
C56	C	2.499888	0.396616	0.399714
C57	C	2.433728	0.334956	0.415157
C58	C	2.471732	0.222563	0.429592
H59	H	1.951511	-0.432840	0.266132
H60	H	2.348918	0.376286	0.415976
H61	H	2.417858	0.172372	0.442182
O62	O	2.007678	-0.796582	0.154100
C63	C	2.109564	-0.865900	0.161962
H64	H	2.181859	-0.844313	0.242068
H65	H	2.120443	-0.953998	0.208503
C66	C	2.019712	-0.878286	-0.098917
C67	C	2.108505	-0.851767	-0.000540
H68	H	2.019058	-0.869573	-0.199156
H69	H	1.951068	-0.831589	-0.104213
H70	H	2.028788	-0.951700	-0.060115
H71	H	2.099421	-0.778350	-0.039332
H72	H	2.177148	-0.898452	0.004746
O73	O	2.143669	-0.856727	0.702672
C74	C	2.249697	-0.927823	0.727164
H75	H	2.253172	-0.933148	0.611096
H76	H	2.317180	-0.895672	0.795770
C77	C	2.265393	-1.035186	0.960587
C78	C	2.269658	-1.041732	0.818030
H79	H	2.277710	-1.105449	1.016643
H80	H	2.193962	-0.987285	0.944091
H81	H	2.321629	-1.008388	1.017739
H82	H	2.213414	-1.068516	0.760873
H83	H	2.341081	-1.089641	0.834519
H84	H	2.681411	-0.470390	0.533555
H85	H	2.128000	-0.692038	0.797272
O86	O	2.749452	-0.683800	0.562103
C87	C	2.812283	-0.614906	0.559910
H88	H	2.753099	-0.527903	0.498873
H89	H	2.868003	-0.618027	0.683375
C90	C	2.958285	-0.759822	0.548147
C91	C	2.885594	-0.652964	0.473169
H92	H	3.003511	-0.783299	0.494648
H93	H	2.915957	-0.806238	0.549631
H94	H	3.004708	-0.762408	0.651031
H95	H	2.839163	-0.650382	0.370294
H96	H	2.927916	-0.606547	0.471666
H97	H	2.346834	-0.450581	0.503710
O98	O	2.462846	0.505821	0.385434
C99	C	2.361393	0.554860	0.252930
H100	H	2.355407	0.500307	0.168679
H101	H	2.288174	0.566668	0.287606
C102	C	2.364921	0.733169	0.278634
C103	C	2.357572	0.666170	0.175150
H104	H	2.362560	0.801833	0.230658
H105	H	2.433269	0.700132	0.367908
H106	H	2.303903	0.742997	0.307522
H107	H	2.418597	0.656332	0.146278
H108	H	2.289234	0.699209	0.085869
O109	O	2.080097	-0.481654	0.791830
C110	C	2.153400	-0.422730	0.799622
H111	H	2.203563	-0.451581	0.730456
H112	H	2.102907	-0.332281	0.749543
C113	C	2.172309	-0.406137	1.054164
C114	C	2.233926	-0.441580	0.969224
H115	H	2.221979	-0.417759	1.158782
H116	H	2.122920	-0.445831	1.048913
H117	H	2.130234	-0.330765	1.012414
H118	H	2.275988	-0.516952	1.010962
H119	H	2.283324	-0.401898	0.974485
O120	O	1.951823	-0.575109	0.125496
C121	C	1.939870	-0.635357	0.012117
H122	H	2.002147	-0.721844	0.066055
H123	H	1.851111	-0.637800	-0.036396
C124	C	1.886099	-0.474814	-0.185310
C125	C	1.962595	-0.581037	-0.119064
H126	H	1.900111	-0.441305	-0.266233
H127	H	1.894147	-0.434222	-0.108926
H128	H	1.812139	-0.476865	-0.225725
H129	H	2.036551	-0.578984	-0.078634
H130	H	1.954559	-0.621627	-0.195445
H131	H	2.398152	-0.654497	0.529922
O132	O	2.595543	-0.784034	0.560478
C133	C	2.587177	-0.833067	0.692986
H134	H	2.595414	-0.778508	0.777228
H135	H	2.502522	-0.844880	0.658312
C136	C	2.671153	-1.011380	0.667303
C137	C	2.681279	-0.944374	0.770777
H138	H	2.729195	-1.080041	0.715286
H139	H	2.676785	-0.978346	0.578027
H140	H	2.600602	-1.021212	0.638417
H141	H	2.751822	-0.934531	0.799647
H142	H	2.675660	-0.977408	0.860060
O143	O	2.743155	0.184284	0.411876
C144	C	2.743632	0.229572	0.271129
H145	H	2.653977	0.267379	0.179575
H146	H	2.784160	0.294954	0.287505
C147	C	2.920634	0.093216	0.331386
C148	C	2.810518	0.139643	0.218934
H149	H	2.961896	0.037746	0.299192
H150	H	2.920315	0.062706	0.426213
H151	H	2.954392	0.147711	0.345022
H152	H	2.776757	0.085152	0.205314
H153	H	2.810833	0.170142	0.124104
H154	H	2.657933	0.396064	0.386132
