data_functionalizedCrystal
_audit_creation_method	'MofGen! by Chris Wilmer'
_symmetry_space_group_name_H-M	'P1'
_symmetry_Int_Tables_number	1
_symmetry_cell_setting	triclinic
loop_
_symmetry_equiv_pos_as_xyz
  x,y,z
_cell_length_a	10.654562
_cell_length_b	10.540539
_cell_length_c	9.130313
_cell_angle_alpha	90.000859
_cell_angle_beta	89.996930
_cell_angle_gamma	84.507798
loop_
_atom_site_label
_atom_site_type_symbol
_atom_site_fract_x
_atom_site_fract_y
_atom_site_fract_z
O1	O	1.667888	0.178372	-0.121888
O2	O	1.302417	0.195342	-0.121869
O3	O	1.493490	0.002148	-0.121877
O4	O	1.476814	0.371566	-0.121880
O5	O	1.493488	0.002153	0.121721
O6	O	1.302415	0.195347	0.121730
O7	O	1.667885	0.178377	0.121711
Cu8	Cu	1.485150	0.186863	0.143963
Cu9	Cu	1.485153	0.186857	-0.144121
O10	O	1.476812	0.371571	0.121719
C11	C	1.255618	0.194095	-0.000068
C12	C	1.116174	0.190357	-0.000061
C13	C	1.050641	0.188617	0.132714
C14	C	0.919618	0.185114	0.132689
C15	C	0.919671	0.185099	-0.132896
C16	C	1.050693	0.188592	-0.132870
C17	C	1.116123	0.190382	0.265523
C18	C	1.050590	0.188642	0.398308
C19	C	0.919566	0.185140	0.398283
C20	C	0.854076	0.183377	0.265474
C21	C	1.492239	-0.045152	-0.000081
C22	C	1.488497	-0.186099	-0.000088
C23	C	1.714685	0.179624	-0.000094
C24	C	1.854128	0.183362	-0.000111
C25	C	1.345126	-0.369481	-0.000628
C26	C	1.348919	-0.222864	-0.000079
C27	C	1.555667	-0.247775	0.139015
C28	C	1.550903	-0.394318	0.139133
C29	C	1.553745	-0.394843	-0.137885
C30	C	1.555030	-0.247861	-0.139724
N31	N	1.485157	0.186866	0.346585
C32	C	1.478064	0.418871	-0.000081
C33	C	1.481805	0.559818	-0.000083
N34	N	1.485155	0.186843	-0.346744
C35	C	1.569786	0.101349	0.423234
C36	C	1.569783	0.101334	0.576570
C37	C	1.400517	0.272364	0.576597
C38	C	1.400515	0.272372	0.423263
C39	C	1.654428	0.015843	0.346556
C40	C	1.739065	-0.069680	0.423204
C41	C	1.739061	-0.069695	0.576541
C42	C	1.654421	0.015813	0.653230
H43	H	0.866214	0.183714	0.506403
C44	C	0.709946	0.179519	0.265455
N45	N	0.601388	0.176619	0.265443
C46	C	1.832148	-0.163750	0.338845
N47	N	1.902256	-0.234609	0.275306
H48	H	1.807967	-0.139340	0.638947
C49	C	1.122628	0.190608	0.544390
N50	N	1.176885	0.192101	0.654422
H51	H	1.290213	-0.399669	0.098572
C52	C	0.847624	0.183171	-0.278976
N53	N	0.793359	0.181724	-0.389006
H54	H	1.104050	0.190016	-0.240986
C55	C	1.654422	0.015791	0.821906
N56	N	1.654431	0.015779	0.948951
H57	H	1.651285	-0.442318	0.145438
C58	C	1.692513	-0.215194	-0.151076
N59	N	1.796072	-0.190593	-0.159612
H60	H	1.222808	0.193237	0.265558
C61	C	1.307421	0.366418	0.660960
N62	N	1.237301	0.437262	0.724502
H63	H	1.658169	-0.225453	0.144182
H64	H	1.296067	-0.180246	-0.099794
H65	H	1.331601	0.342007	0.360855
H66	H	1.289991	-0.398066	-0.100380
C67	C	1.277019	-0.166423	0.134867
N68	N	1.222862	-0.123913	0.236516
H69	H	1.501260	-0.422499	0.243120
C70	C	1.492623	-0.190213	0.278871
N71	N	1.445130	-0.146861	0.384207
H72	H	1.654441	0.015850	0.221701
H73	H	1.508571	-0.426384	-0.243317
H74	H	1.505883	-0.206990	-0.242629
C75	C	1.689939	-0.458693	-0.139163
N76	N	1.792516	-0.506793	-0.140116
