data_functionalizedCrystal
_audit_creation_method	'MofGen! by Chris Wilmer'
_symmetry_space_group_name_H-M	'P1'
_symmetry_Int_Tables_number	1
_symmetry_cell_setting	triclinic
loop_
_symmetry_equiv_pos_as_xyz
  x,y,z
_cell_length_a	10.489741
_cell_length_b	19.288864
_cell_length_c	18.366186
_cell_angle_alpha	90.022894
_cell_angle_beta	89.994090
_cell_angle_gamma	96.162290
loop_
_atom_site_label
_atom_site_type_symbol
_atom_site_fract_x
_atom_site_fract_y
_atom_site_fract_z
O1	O	0.159110	-0.922420	-0.060783
O2	O	0.180573	-0.720303	-0.060733
O3	O	-0.015860	-0.825960	-0.060755
O4	O	0.355543	-0.816762	-0.060761
O5	O	-0.015870	-0.825942	0.060344
O6	O	0.180564	-0.720285	0.060366
O7	O	0.159100	-0.922402	0.060316
Zn8	Zn	0.169830	-0.821340	0.079568
Zn9	Zn	0.169843	-0.821364	-0.079985
O10	O	0.355534	-0.816744	0.060338
C11	C	0.179878	-0.694413	-0.000177
C12	C	0.177805	-0.617295	-0.000158
C13	C	-0.063381	-0.825257	-0.000205
C14	C	-0.204964	-0.823178	-0.000206
C15	C	0.159796	-0.948292	-0.000241
C16	C	0.161869	-1.025409	-0.000265
C17	C	-0.271583	-0.755951	-0.000195
C18	C	-0.364429	-0.787700	0.059505
C19	C	-0.364394	-0.787734	-0.059889
C20	C	-0.295944	-0.854954	0.059543
C21	C	-0.295900	-0.854979	-0.059905
C22	C	-0.388719	-0.886776	-0.000190
C23	C	0.403055	-0.817448	-0.000213
C24	C	0.544637	-0.819526	-0.000217
N25	N	0.169821	-0.821329	0.188460
C26	C	0.293063	-0.573372	-0.000171
C27	C	0.291115	-0.500912	-0.000179
C28	C	0.173903	-0.472378	-0.000189
C29	C	0.058629	-0.516311	-0.000171
C30	C	0.060580	-0.588770	-0.000156
C31	C	0.081764	-0.363505	-0.042638
C32	C	0.079818	-0.291047	-0.042658
C33	C	0.167880	-0.248892	-0.000233
C34	C	0.257911	-0.279202	0.042203
C35	C	0.259862	-0.351661	0.042218
C36	C	0.171774	-0.393810	-0.000205
C37	C	0.281035	-0.126399	-0.000254
C38	C	0.279082	-0.053938	-0.000257
C39	C	0.046593	-0.069339	-0.000256
C40	C	0.048549	-0.141798	-0.000245
C41	C	0.165773	-0.170324	-0.000248
N42	N	0.169842	-0.821381	-0.188876
C43	C	0.082883	-0.868130	0.226550
C44	C	0.082877	-0.868134	0.302778
C45	C	0.169831	-0.821344	0.340912
C46	C	0.256776	-0.774535	0.302812
C47	C	0.256771	-0.774527	0.226586
C48	C	0.286045	-0.812826	0.461672
C49	C	0.286052	-0.812838	0.537897
C50	C	0.169847	-0.821364	0.576020
C51	C	0.053631	-0.829893	0.537908
C52	C	0.053626	-0.829885	0.461682
C53	C	0.169846	-0.821347	0.423567
C54	C	0.082896	-0.868172	0.696766
C55	C	0.082888	-0.868172	0.772995
C56	C	0.256799	-0.774576	0.773027
C57	C	0.256795	-0.774573	0.696800
C58	C	0.169845	-0.821375	0.658673
H59	H	-0.220682	-0.700678	-0.000121
H60	H	0.376486	-0.149625	-0.000245
H61	H	-0.033280	-0.624533	-0.000145
H62	H	-0.394801	-0.759247	0.109991
H63	H	-0.265759	-0.883367	0.110072
F64	F	-0.009654	-0.917982	0.813535
F65	F	-0.454958	-0.959086	-0.000166
H66	H	-0.045307	-0.177562	-0.000238
H67	H	-0.265494	-0.883407	-0.110393
H68	H	0.384976	-0.465143	-0.000188
F69	F	-0.070052	-0.838972	0.578475
H70	H	-0.394711	-0.759288	-0.110366
H71	H	0.327568	-0.736415	0.195572
H72	H	0.012079	-0.906246	0.333797
F73	F	0.349316	-0.724735	0.343398
F74	F	-0.009660	-0.917937	0.185975
H75	H	0.372944	-0.018175	-0.000264
H76	H	0.388516	-0.596592	-0.000175
F77	F	0.355672	-0.383917	0.087382
F78	F	0.351642	-0.234344	0.087358
H79	H	0.327594	-0.736466	0.665784
F80	F	-0.078155	-0.038976	-0.000259
F81	F	-0.015989	-0.258795	-0.087828
F82	F	-0.011972	-0.408363	-0.087795
F83	F	-0.066117	-0.485943	-0.000177
F84	F	-0.070056	-0.838955	0.421124
H85	H	0.012092	-0.906279	0.665722
F86	F	0.349334	-0.724775	0.813609
F87	F	0.409737	-0.803767	0.578451
H88	H	0.380678	-0.805871	0.430639
