data_functionalizedCrystal
_audit_creation_method	'MofGen! by Chris Wilmer'
_symmetry_space_group_name_H-M	'P1'
_symmetry_Int_Tables_number	1
_symmetry_cell_setting	triclinic
loop_
_symmetry_equiv_pos_as_xyz
  x,y,z
_cell_length_a	8.559649
_cell_length_b	14.519709
_cell_length_c	7.681481
_cell_angle_alpha	84.246308
_cell_angle_beta	94.913240
_cell_angle_gamma	76.729405
loop_
_atom_site_label
_atom_site_type_symbol
_atom_site_fract_x
_atom_site_fract_y
_atom_site_fract_z
O1	O	2.104962	-0.021482	-0.146399
O2	O	2.604962	0.478518	0.353601
O3	O	1.639893	0.026136	-0.146411
O4	O	2.139893	0.526136	0.353589
O5	O	1.884759	-0.132798	-0.146389
O6	O	2.384759	0.367202	0.353611
O7	O	1.860095	0.137451	-0.146421
O8	O	2.360095	0.637451	0.353579
O9	O	1.914898	-0.152399	0.146471
O10	O	2.414898	0.347601	0.646471
O11	O	1.670032	0.006535	0.146450
O12	O	2.170032	0.506535	0.646450
O13	O	2.135101	-0.041084	0.146461
O14	O	2.635101	0.458916	0.646461
Zn15	Zn	1.907351	-0.020387	0.192953
Zn16	Zn	2.407351	0.479613	0.692953
Zn17	Zn	1.867642	0.005439	-0.192903
Zn18	Zn	2.367642	0.505439	0.307097
O19	O	1.890234	0.117850	0.146439
O20	O	2.390234	0.617850	0.646439
C21	C	1.595442	0.019944	0.000018
C22	C	2.095442	0.519944	0.500018
C23	C	1.418093	0.030686	0.000014
C24	C	1.918093	0.530686	0.500014
C25	C	1.898680	-0.176876	0.000042
C26	C	2.398680	0.323124	0.500042
C27	C	1.895236	-0.279010	0.000042
C28	C	2.395236	0.220990	0.500042
C29	C	1.882552	-0.652993	-0.000004
C30	C	2.382552	-0.152993	0.499996
C31	C	1.886074	-0.548938	0.000010
C32	C	2.386074	-0.048938	0.500010
C33	C	1.888894	-0.466005	0.000021
C34	C	2.388894	0.033995	0.500021
C35	C	1.892416	-0.361944	0.000031
C36	C	2.392416	0.138056	0.500031
C37	C	2.179550	-0.034892	0.000028
C38	C	2.679550	0.465108	0.500028
C39	C	2.356899	-0.045633	0.000021
C40	C	2.856899	0.454367	0.500021
C41	C	1.876313	0.161928	0.000005
C42	C	2.376313	0.661928	0.500005
C43	C	1.879756	0.264063	-0.000008
C44	C	2.379756	0.764063	0.499992
N45	N	1.934464	-0.038014	0.456290
N46	N	2.434464	0.461986	0.956290
N47	N	1.840542	0.023058	-0.456240
N48	N	2.340542	0.523058	0.043760
H49	H	1.334795	0.104249	-0.000004
H50	H	1.834795	0.604249	0.499996
H51	H	1.440186	-0.119190	0.000021
H52	H	1.940186	0.380810	0.500021
O53	O	1.726355	0.097460	0.453860
O54	O	2.226355	0.597460	0.953860
C55	C	1.801318	0.155320	0.347231
C56	C	2.301318	0.655320	0.847231
H57	H	1.923342	0.111517	0.319776
H58	H	2.423342	0.611517	0.819776
H59	H	1.819777	0.217961	0.418167
H60	H	2.319777	0.717961	0.918167
C61	C	1.543565	0.246876	0.205742
C62	C	2.043565	0.746876	0.705742
C63	C	1.693430	0.193074	0.172009
C64	C	2.193430	0.693074	0.672009
H65	H	1.477013	0.270169	0.097659
H66	H	1.977013	0.770169	0.597659
H67	H	1.493059	0.207897	0.277584
H68	H	1.993059	0.707897	0.777584
H69	H	1.558969	0.299070	0.264859
H70	H	2.058969	0.799070	0.764859
H71	H	1.678026	0.140876	0.112913
H72	H	2.178026	0.640876	0.612913
H73	H	1.743931	0.232045	0.100153
H74	H	2.243931	0.732045	0.600153
H75	H	2.030356	-0.100348	0.531504
H76	H	2.530356	0.399652	1.031504
