data_functionalizedCrystal
_audit_creation_method	'MofGen! by Chris Wilmer'
_symmetry_space_group_name_H-M	'P1'
_symmetry_Int_Tables_number	1
_symmetry_cell_setting	triclinic
loop_
_symmetry_equiv_pos_as_xyz
  x,y,z
_cell_length_a	12.759401
_cell_length_b	12.594516
_cell_length_c	12.759393
_cell_angle_alpha	89.970826
_cell_angle_beta	89.980163
_cell_angle_gamma	90.017577
loop_
_atom_site_label
_atom_site_type_symbol
_atom_site_fract_x
_atom_site_fract_y
_atom_site_fract_z
Zn1	Zn	1.606245	-0.423635	-0.594038
Zn2	Zn	2.106245	0.076365	-0.094038
Zn3	Zn	1.606135	-0.601655	-0.418366
Zn4	Zn	2.106135	-0.101655	0.081634
Zn5	Zn	1.430547	-0.423696	-0.418373
Zn6	Zn	1.930547	0.076304	0.081627
Zn7	Zn	1.430532	-0.601577	-0.594003
Zn8	Zn	1.930532	-0.101577	-0.094003
O9	O	1.518365	-0.512641	-0.506195
O10	O	2.018365	-0.012641	-0.006195
O11	O	1.753252	-0.447258	-0.570746
O12	O	2.253252	0.052742	-0.070746
O13	O	1.582804	-0.578106	-0.271345
O14	O	2.082804	-0.078106	0.228655
O15	O	1.453906	-0.274742	-0.441693
O16	O	1.953906	0.225258	0.058307
O17	O	1.753171	-0.578048	-0.441680
O18	O	2.253171	-0.078048	0.058320
O19	O	1.582991	-0.274698	-0.570754
O20	O	2.082991	0.225302	-0.070754
O21	O	1.453800	-0.447360	-0.271351
O22	O	1.953800	0.052640	0.228649
O23	O	1.283524	-0.447285	-0.441659
O24	O	1.783524	0.052715	0.058341
O25	O	1.453880	-0.577915	-0.741029
O26	O	1.953880	-0.077915	-0.241029
O27	O	1.283513	-0.577973	-0.570694
O28	O	1.783513	-0.077973	-0.070694
O29	O	1.582976	-0.447182	-0.741054
O30	O	2.082976	0.052818	-0.241054
O31	O	1.582789	-0.750590	-0.441646
O32	O	2.082789	-0.250590	0.058354
O33	O	1.453773	-0.750533	-0.570686
O34	O	1.953773	-0.250533	-0.070686
C35	C	1.245397	-0.512628	-0.506174
C36	C	1.745397	-0.012628	-0.006174
C37	C	1.128621	-0.512648	-0.506190
C38	C	1.628621	-0.012648	-0.006190
C39	C	1.518296	-0.789182	-0.506185
C40	C	2.018296	-0.289182	-0.006185
C41	C	1.518363	-0.907487	-0.506215
C42	C	2.018363	-0.407487	-0.006215
C43	C	1.073780	-0.580801	-0.573272
C44	C	1.573780	-0.080801	-0.073272
C45	C	0.964056	-0.580805	-0.573293
C46	C	1.464056	-0.080805	-0.073293
C47	C	0.964023	-0.444500	-0.439140
C48	C	1.464023	0.055500	0.060860
C49	C	1.073745	-0.444491	-0.439125
C50	C	1.573745	0.055509	0.060875
C51	C	1.448184	-0.976748	-0.576351
C52	C	1.948184	-0.476748	-0.076351
C53	C	1.422585	-1.047619	-0.480484
C54	C	1.922585	-0.547619	0.019516
C55	C	1.544058	-1.047415	-0.602099
C56	C	2.044058	-0.547415	-0.102099
C57	C	1.492713	-0.976800	-0.410297
C58	C	1.992713	-0.476800	0.089703
C59	C	1.614230	-0.976590	-0.531977
C60	C	2.114230	-0.476590	-0.031977
C61	C	1.588667	-1.047429	-0.436044
C62	C	2.088667	-0.547429	0.063956
C63	C	1.792398	-0.512655	-0.506216
C64	C	2.292398	-0.012655	-0.006216
C65	C	1.909175	-0.512661	-0.506226
C66	C	2.409175	-0.012661	-0.006226
C67	C	1.518438	-0.512533	-0.780228
C68	C	2.018438	-0.012533	-0.280228
C69	C	1.518469	-0.512487	-0.897005
C70	C	2.018469	-0.012487	-0.397005
C71	C	1.518463	-0.235020	-0.506228
C72	C	2.018463	0.264980	-0.006228
C73	C	1.518504	-0.116714	-0.506242
C74	C	2.018504	0.383286	-0.006242
C75	C	1.451321	-0.444395	-0.951869
C76	C	1.951321	0.055605	-0.451869
C77	C	1.451346	-0.444363	-1.061594
C78	C	1.951346	0.055637	-0.561594
C79	C	1.585676	-0.580517	-1.061579
C80	C	2.085676	-0.080517	-0.561579
C81	C	1.585645	-0.580554	-0.951857
C82	C	2.085645	-0.080554	-0.451857
C83	C	1.518352	-0.512671	-0.233228
C84	C	2.018352	-0.012671	0.266772
C85	C	1.518524	-0.512417	-0.116451
C86	C	2.018524	-0.012417	0.383549
H87	H	1.118457	-0.636296	-0.627883
H88	H	1.618457	-0.136296	-0.127883
H89	H	0.919410	-0.636301	-0.627920
H90	H	1.419410	-0.136301	-0.127920
H91	H	1.640368	-0.635933	-1.106253
H92	H	2.140368	-0.135933	-0.606253
H93	H	1.396622	-0.388971	-0.907212
H94	H	1.896622	0.111029	-0.407212
Br95	Br	0.889542	-0.352006	-0.348128
Br96	Br	1.389542	0.147994	0.151872
Br97	Br	1.676774	-0.672979	-0.877391
Br98	Br	2.176774	-0.172979	-0.377391
Br99	Br	1.349098	-0.925016	-0.675067
Br100	Br	1.849098	-0.425016	-0.175067
H101	H	1.118397	-0.388986	-0.384499
H102	H	1.618397	0.111014	0.115501
H103	H	1.470943	-0.945909	-0.329198
H104	H	1.970943	-0.445909	0.170802
Br105	Br	1.287561	-1.099615	-0.444169
Br106	Br	1.787561	-0.599615	0.055831
H107	H	1.396666	-0.388916	-1.106259
H108	H	1.896666	0.111084	-0.606259
H109	H	1.695219	-0.945370	-0.553791
H110	H	2.195219	-0.445370	-0.053791
H111	H	1.648075	-1.078268	-0.376676
H112	H	2.148075	-0.578268	0.123324
Br113	Br	1.580183	-1.099124	-0.737228
Br114	Br	2.080183	-0.599124	-0.237228
