data_functionalizedCrystal
_audit_creation_method	'MofGen! by Chris Wilmer'
_symmetry_space_group_name_H-M	'P1'
_symmetry_Int_Tables_number	1
_symmetry_cell_setting	triclinic
loop_
_symmetry_equiv_pos_as_xyz
  x,y,z
_cell_length_a	16.974810
_cell_length_b	14.421503
_cell_length_c	16.992695
_cell_angle_alpha	90.004290
_cell_angle_beta	87.022613
_cell_angle_gamma	93.649471
loop_
_atom_site_label
_atom_site_type_symbol
_atom_site_fract_x
_atom_site_fract_y
_atom_site_fract_z
O1	O	-1.055458	-0.002129	-0.099891
O2	O	-0.826057	0.015096	-0.112625
O3	O	-0.939838	0.006545	0.007884
O4	O	-0.941677	0.006422	-0.220400
O5	O	-0.939819	-0.147677	0.007866
O6	O	-0.826038	-0.139126	-0.112643
O7	O	-1.055439	-0.156351	-0.099909
Cu8	Cu	-0.940737	-0.161820	-0.106278
Cu9	Cu	-0.940759	0.020565	-0.106256
O10	O	-0.941658	-0.147800	-0.220418
C11	C	-0.796559	-0.059801	-0.112151
C12	C	-0.708691	-0.053204	-0.110701
C13	C	-0.667405	-0.134173	-0.110028
C14	C	-0.584845	-0.127976	-0.108653
C15	C	-0.543572	-0.040810	-0.107957
C16	C	-0.584864	0.040165	-0.108628
C17	C	-0.667423	0.033968	-0.109997
C18	C	-0.296658	-0.013260	-0.103857
C19	C	-0.214092	-0.007069	-0.102490
C20	C	-0.214079	-0.175211	-0.102513
C21	C	-0.296640	-0.181401	-0.103887
C22	C	-0.337925	-0.100426	-0.104554
N23	N	-0.459182	-0.034474	-0.106555
N24	N	-0.422314	-0.106763	-0.105951
N25	N	-0.940727	-0.290101	-0.106292
C26	C	-0.888103	-0.535800	-0.161990
C27	C	-0.960507	-0.603038	-0.177129
C28	C	-0.940745	-0.479264	-0.106273
C29	C	-0.868361	-0.596121	-0.091153
C30	C	-0.940756	-0.661986	-0.106257
C31	C	-1.013187	-0.545144	-0.121447
C32	C	-0.920992	-0.538218	-0.035440
C33	C	-0.993445	-0.605432	-0.050549
C34	C	-0.940738	-0.374002	-0.106285
C35	C	-0.940772	-0.767246	-0.106245
C36	C	-0.084938	-0.081451	-0.100379
C37	C	-0.172806	-0.088038	-0.101817
C38	C	-0.937463	-0.070388	0.037085
C39	C	-0.930403	-0.069858	0.124121
N40	N	-0.940775	0.148845	-0.106236
C41	C	-0.944034	-0.070865	-0.249619
C42	C	-0.951093	-0.071389	-0.336655
C43	C	-0.998518	-0.074973	0.174437
C44	C	-0.991880	-0.074466	0.256216
C45	C	-0.917127	-0.068850	0.287678
C46	C	-0.849006	-0.063731	0.237356
C47	C	-0.855645	-0.064232	0.155578
C48	C	-0.889612	-0.066771	0.531245
C49	C	-0.882978	-0.066274	0.613029
C50	C	-1.025853	-0.077007	0.631884
C51	C	-1.032485	-0.077513	0.550104
C52	C	-0.964365	-0.072389	0.499789
N53	N	-0.910340	-0.068334	0.371269
N54	N	-0.971152	-0.072898	0.416199
H55	H	-0.180490	0.063916	-0.101925
C56	C	-1.106098	-0.083040	0.433118
C57	C	-1.114656	-0.083678	0.515523
H58	H	-1.156829	-0.086853	0.411771
H59	H	-1.077845	-0.027142	0.415851
H60	H	-1.077828	-0.134703	0.415847
H61	H	-1.142922	-0.032011	0.532794
H62	H	-1.142922	-0.139583	0.532797
H63	H	-1.059390	-0.079552	0.148827
C64	C	-1.133770	-0.085147	0.266639
C65	C	-1.066755	-0.080100	0.311523
H66	H	-1.179995	-0.088632	0.300785
H67	H	-1.133400	-0.031342	0.234356
H68	H	-1.133367	-0.138902	0.234344
H69	H	-1.067154	-0.026341	0.343814
H70	H	-1.067125	-0.133911	0.343820
H71	H	-1.038019	-0.635709	-0.003421
H72	H	-0.904253	-0.509771	0.024435
H73	H	-0.800178	-0.060066	0.114611
C74	C	-0.764517	-0.592435	-0.000282
C75	C	-0.785721	-0.626593	-0.073886
H76	H	-0.713500	-0.611251	0.010374
H77	H	-0.763803	-0.526527	-0.000649
H78	H	-0.801861	-0.616377	0.039349
H79	H	-0.748380	-0.602646	-0.113518
H80	H	-0.786429	-0.692515	-0.073525
C81	C	-0.814184	-0.140381	0.428334
C82	C	-0.814739	-0.061146	0.475940
H83	H	-0.767960	-0.136902	0.394185
H84	H	-0.814552	-0.194180	0.460624
H85	H	-0.859658	-0.143785	0.397899
H86	H	-0.769267	-0.057745	0.506381
H87	H	-0.814363	-0.007331	0.443647
C88	C	-0.394109	-0.286265	-0.038065
C89	C	-0.342003	-0.277219	-0.104643
H90	H	-0.422116	-0.345418	-0.038537
H91	H	-0.365045	-0.280592	0.008159
H92	H	-0.430513	-0.238927	-0.038673
H93	H	-0.305596	-0.324553	-0.104033
H94	H	-0.371069	-0.282901	-0.150879
H95	H	-1.081312	-0.081177	0.672859
H96	H	-0.822102	-0.061715	0.638642
H97	H	-0.788140	-0.059153	0.262978
H98	H	-0.180456	-0.241136	-0.101969
H99	H	-0.701003	-0.205153	-0.110601
H100	H	-0.843637	-0.505360	-0.209146
H101	H	-1.074423	-0.522687	-0.134301
C102	C	-0.593123	-0.294797	-0.108831
C103	C	-0.539463	-0.216980	-0.107921
H104	H	-0.565104	-0.349745	-0.108383
H105	H	-0.628468	-0.293962	-0.063668
H106	H	-0.622180	-0.293463	-0.155066
H107	H	-0.510410	-0.218310	-0.061682
H108	H	-0.504104	-0.217816	-0.153088
H109	H	-0.551253	0.111138	-0.108056
C110	C	-0.288366	0.153560	-0.103698
C111	C	-0.342031	0.075747	-0.104593
H112	H	-0.316382	0.208511	-0.104157
H113	H	-0.259309	0.152236	-0.057470
H114	H	-0.253020	0.152712	-0.148869
H115	H	-0.377373	0.076591	-0.059419
H116	H	-0.371101	0.077071	-0.150826
C117	C	-0.659148	0.200790	-0.109852
C118	C	-0.712808	0.122972	-0.110746
H119	H	-0.687167	0.255738	-0.110318
H120	H	-0.630095	0.199474	-0.063622
H121	H	-0.623798	0.199940	-0.155020
H122	H	-0.748154	0.123818	-0.065575
H123	H	-0.741874	0.124288	-0.156982
H124	H	-0.977224	-0.631462	-0.237024
