data_functionalizedCrystal
_audit_creation_method	'MofGen! by Chris Wilmer'
_symmetry_space_group_name_H-M	'P1'
_symmetry_Int_Tables_number	1
_symmetry_cell_setting	triclinic
loop_
_symmetry_equiv_pos_as_xyz
  x,y,z
_cell_length_a	16.992701
_cell_length_b	16.992695
_cell_length_c	8.140239
_cell_angle_alpha	90.003573
_cell_angle_beta	90.001604
_cell_angle_gamma	90.667696
loop_
_atom_site_label
_atom_site_type_symbol
_atom_site_fract_x
_atom_site_fract_y
_atom_site_fract_z
O1	O	1.050847	0.166905	0.136629
O2	O	1.384180	0.500239	0.469962
O3	O	1.717513	0.833572	0.803295
O4	O	0.822447	0.165076	0.136629
O5	O	1.155780	0.498409	0.469963
O6	O	1.489113	0.831743	0.803296
O7	O	0.935731	0.051791	0.136616
O8	O	1.269064	0.385124	0.469949
O9	O	1.602398	0.718457	0.803283
O10	O	0.937562	0.280191	0.136642
O11	O	1.270896	0.613524	0.469975
O12	O	1.604229	0.946857	0.803309
O13	O	0.935727	0.051790	-0.136611
O14	O	1.269061	0.385123	0.196722
O15	O	1.602394	0.718456	0.530056
O16	O	0.822443	0.165075	-0.136598
O17	O	1.155776	0.498408	0.196736
O18	O	1.489110	0.831742	0.530069
O19	O	1.050843	0.166904	-0.136598
O20	O	1.384176	0.500238	0.196735
O21	O	1.717509	0.833571	0.530068
Zn22	Zn	0.936642	0.165989	-0.179979
Zn23	Zn	1.269976	0.499323	0.153355
Zn24	Zn	1.603309	0.832656	0.486688
Zn25	Zn	0.936647	0.165991	0.180010
Zn26	Zn	1.269981	0.499324	0.513343
Zn27	Zn	1.603314	0.832658	0.846676
O28	O	0.937558	0.280190	-0.136585
O29	O	1.270892	0.613523	0.196748
O30	O	1.604225	0.946856	0.530082
C31	C	0.793085	0.162720	0.000016
C32	C	1.126418	0.496053	0.333349
C33	C	1.459751	0.829387	0.666682
C34	C	0.705600	0.155692	0.000016
C35	C	1.038933	0.489026	0.333349
C36	C	1.372267	0.822359	0.666682
C37	C	0.933373	0.022430	0.000003
C38	C	1.266707	0.355763	0.333336
C39	C	1.600040	0.689097	0.666669
C40	C	0.926345	-0.065055	0.000003
C41	C	1.259678	0.268279	0.333337
C42	C	1.593011	0.601612	0.666670
C43	C	0.213682	0.108471	0.000016
C44	C	0.547015	0.441804	0.333350
C45	C	0.880348	0.775137	0.666683
C46	C	0.295882	0.115080	0.000007
C47	C	0.629215	0.448414	0.333341
C48	C	0.962549	0.781747	0.666674
C49	C	0.332089	0.189508	0.000023
C50	C	0.665422	0.522841	0.333356
C51	C	0.998756	0.856175	0.666690
C52	C	0.286091	0.257331	0.000032
C53	C	0.619424	0.590664	0.333365
C54	C	0.952758	0.923997	0.666698
C55	C	0.203892	0.250720	0.000029
C56	C	0.537225	0.584054	0.333362
C57	C	0.870559	0.917387	0.666696
C58	C	0.577403	0.216905	0.000022
C59	C	0.910736	0.550238	0.333355
C60	C	1.244070	0.883571	0.666688
C61	C	0.659608	0.223510	0.000029
C62	C	0.992941	0.556843	0.333362
C63	C	1.326275	0.890176	0.666696
C64	C	0.669394	0.081258	0.000002
C65	C	1.002727	0.414592	0.333335
C66	C	1.336060	0.747925	0.666668
C67	C	0.587192	0.074655	0.000009
C68	C	0.920526	0.407988	0.333342
C69	C	1.253859	0.741321	0.666676
C70	C	0.541202	0.142477	0.000009
C71	C	0.874535	0.475811	0.333342
C72	C	1.207868	0.809144	0.666675
N73	N	0.416111	0.196266	0.000019
N74	N	0.749445	0.529599	0.333352
N75	N	1.082778	0.862933	0.666686
N76	N	0.457181	0.135719	0.000001
N77	N	0.790514	0.469052	0.333335
N78	N	1.123848	0.802386	0.666668
C79	C	0.994163	-0.111046	0.000001
C80	C	1.327496	0.222287	0.333335
C81	C	1.660829	0.555621	0.666668
C82	C	0.987554	-0.193247	0.000017
C83	C	1.320887	0.140087	0.333350
C84	C	1.654220	0.473420	0.666684
C85	C	0.913126	-0.229454	0.000023
C86	C	1.246459	0.103879	0.333356
C87	C	1.579793	0.437212	0.666689
C88	C	0.845303	-0.183457	0.000029
C89	C	1.178636	0.149877	0.333363
C90	C	1.511970	0.483210	0.666696
C91	C	0.851913	-0.101258	0.000026
C92	C	1.185246	0.232076	0.333359
C93	C	1.518579	0.565409	0.666692
C94	C	0.885732	-0.474768	0.000045
C95	C	1.219065	-0.141435	0.333379
C96	C	1.552398	0.191898	0.666712
C97	C	0.879127	-0.556974	0.000044
C98	C	1.212460	-0.223640	0.333378
C99	C	1.545794	0.109693	0.666711
C100	C	1.021378	-0.566758	0.000035
C101	C	1.354712	-0.233425	0.333368
C102	C	1.688045	0.099909	0.666701
C103	C	1.027981	-0.484557	0.000021
C104	C	1.361315	-0.151223	0.333354
C105	C	1.694648	0.182110	0.666688
C106	C	0.960158	-0.438566	0.000036
C107	C	1.293492	-0.105233	0.333370
C108	C	1.626825	0.228100	0.666703
N109	N	0.906369	-0.313476	0.000033
N110	N	1.239702	0.019857	0.333367
N111	N	1.573036	0.353190	0.666700
N112	N	0.966916	-0.354546	0.000037
N113	N	1.300250	-0.021212	0.333371
N114	N	1.633583	0.312121	0.666704
C115	C	1.080205	0.169260	0.000019
C116	C	1.413538	0.502594	0.333352
C117	C	1.746872	0.835927	0.666686
C118	C	1.167689	0.176288	0.000030
C119	C	1.501023	0.509622	0.333363
C120	C	1.834356	0.842955	0.666696
C121	C	0.939916	0.309550	0.000032
C122	C	1.273249	0.642884	0.333365
C123	C	1.606583	0.976217	0.666699
C124	C	0.946945	0.397035	0.000042
C125	C	1.280278	0.730368	0.333376
C126	C	1.613612	1.063702	0.666709
N127	N	0.936644	0.165988	-0.425661
N128	N	1.269978	0.499322	-0.092328
N129	N	1.603311	0.832655	0.241005
N130	N	0.936651	0.165986	0.425692
N131	N	1.269984	0.499319	0.759026
N132	N	1.603318	0.832653	1.092359
H133	H	0.184208	0.047863	0.000014
H134	H	0.517542	0.381197	0.333347
H135	H	0.850875	0.714530	0.666681
F136	F	0.813547	-0.425832	0.000066
F137	F	1.146881	-0.092499	0.333399
F138	F	1.480214	0.240834	0.666733
F139	F	0.799907	-0.595506	0.000042
F140	F	1.133241	-0.262173	0.333375
F141	F	1.466574	0.071160	0.666709
H142	H	0.706848	0.026041	-0.000000
H143	H	1.040181	0.359375	0.333333
H144	H	1.373515	0.692708	0.666666
F145	F	0.548665	-0.004562	0.000039
F146	F	0.881998	0.328772	0.333372
F147	F	1.215331	0.662105	0.666705
F148	F	0.698140	0.302730	0.000045
F149	F	1.031474	0.636063	0.333378
F150	F	1.364807	0.969396	0.666712
H151	H	0.539967	0.272131	0.000030
H152	H	0.873300	0.605464	0.333363
H153	H	1.206633	0.938798	0.666696
H154	H	0.315577	0.317932	0.000034
H155	H	0.648911	0.651265	0.333368
H156	H	0.982244	0.984598	0.666701
H157	H	0.784702	-0.212943	0.000044
H158	H	1.118036	0.120390	0.333378
H159	H	1.451369	0.453723	0.666711
F160	F	0.154944	0.322901	0.000034
F161	F	0.488277	0.656235	0.333368
F162	F	0.821611	0.989568	0.666701
H163	H	1.054770	-0.081572	-0.000013
H164	H	1.388103	0.251761	0.333320
H165	H	1.721436	0.585094	0.666653
F166	F	0.779731	-0.052310	0.000033
F167	F	1.113065	0.281023	0.333366
F168	F	1.446398	0.614357	0.666699
F169	F	0.344827	0.042899	-0.000016
F170	F	0.678160	0.376232	0.333318
F171	F	1.011494	0.709565	0.666651
F172	F	1.059735	-0.242191	0.000012
F173	F	1.393069	0.091142	0.333345
F174	F	1.726402	0.424476	0.666679
F175	F	1.107197	-0.446028	0.000057
F176	F	1.440531	-0.112695	0.333390
F177	F	1.773864	0.220638	0.666723
H178	H	1.076596	-0.604212	0.000025
H179	H	1.409929	-0.270879	0.333359
H180	H	1.743262	0.062455	0.666692
