data_functionalizedCrystal
_audit_creation_method	'MofGen! by Chris Wilmer'
_symmetry_space_group_name_H-M	'P1'
_symmetry_Int_Tables_number	1
_symmetry_cell_setting	triclinic
loop_
_symmetry_equiv_pos_as_xyz
  x,y,z
_cell_length_a	25.639242
_cell_length_b	25.639240
_cell_length_c	25.639243
_cell_angle_alpha	90.013927
_cell_angle_beta	90.014575
_cell_angle_gamma	90.027658
loop_
_atom_site_label
_atom_site_type_symbol
_atom_site_fract_x
_atom_site_fract_y
_atom_site_fract_z
Zn1	Zn	0.799210	-0.208347	0.295708
Zn2	Zn	1.299210	0.291653	0.795708
Zn3	Zn	0.799154	-0.295748	0.208261
Zn4	Zn	1.299154	0.204252	0.708261
Zn5	Zn	0.711797	-0.208321	0.208273
Zn6	Zn	1.211797	0.291679	0.708273
Zn7	Zn	0.711741	-0.295746	0.295652
Zn8	Zn	1.211741	0.204254	0.795652
O9	O	0.755476	-0.252040	0.251974
O10	O	1.255476	0.247960	0.751974
O11	O	0.872368	-0.219953	0.284126
O12	O	1.372368	0.280047	0.784126
O13	O	0.787566	-0.284140	0.135098
O14	O	1.287566	0.215860	0.635098
O15	O	0.723440	-0.135159	0.219900
O16	O	1.223440	0.364841	0.719900
O17	O	0.872326	-0.284166	0.219880
O18	O	1.372326	0.215834	0.719880
O19	O	0.787662	-0.135179	0.284138
O20	O	1.287662	0.364821	0.784138
O21	O	0.723385	-0.219908	0.135106
O22	O	1.223385	0.280092	0.635106
O23	O	0.638625	-0.219906	0.219845
O24	O	1.138625	0.280094	0.719845
O25	O	0.723344	-0.284163	0.368825
O26	O	1.223344	0.215837	0.868825
O27	O	0.638583	-0.284137	0.284042
O28	O	1.138583	0.215863	0.784042
O29	O	0.787607	-0.219951	0.368866
O30	O	1.287607	0.280049	0.868866
O31	O	0.787511	-0.368913	0.219826
O32	O	1.287511	0.131087	0.719826
O33	O	0.723289	-0.368911	0.284031
O34	O	1.223289	0.131089	0.784031
C35	C	0.619633	-0.252018	0.251939
C36	C	1.119633	0.247982	0.751939
C37	C	0.561519	-0.252022	0.251937
C38	C	1.061519	0.247978	0.751937
C39	C	0.310338	-0.218540	0.218604
C40	C	0.810338	0.281460	0.718604
C41	C	0.364943	-0.218535	0.218597
C42	C	0.864943	0.281465	0.718597
O43	O	0.393190	-0.190036	0.190227
O44	O	0.893190	0.309964	0.690227
N45	N	0.392245	-0.252028	0.251964
N46	N	0.892245	0.247972	0.751964
C47	C	0.364940	-0.285525	0.285343
C48	C	0.864940	0.214475	0.785343
O49	O	0.393177	-0.314012	0.313723
O50	O	0.893177	0.185988	0.813723
C51	C	0.310337	-0.285526	0.285351
C52	C	0.810337	0.214474	0.785351
C53	C	0.283037	-0.252035	0.251979
C54	C	0.783037	0.247965	0.751979
C55	C	0.283039	-0.185050	0.185235
C56	C	0.783039	0.314950	0.685235
C57	C	0.228438	-0.185056	0.185241
C58	C	0.728438	0.314944	0.685241
C59	C	0.201137	-0.218551	0.218616
C60	C	0.701137	0.281449	0.718616
C61	C	0.228437	-0.252040	0.251985
C62	C	0.728437	0.247960	0.751985
C63	C	0.283033	-0.319020	0.318733
C64	C	0.783033	0.180980	0.818733
C65	C	0.228426	-0.319018	0.318739
C66	C	0.728426	0.180982	0.818739
C67	C	0.201127	-0.285527	0.285367
C68	C	0.701127	0.214473	0.785367
C69	C	0.146535	-0.285541	0.285367
C70	C	0.646535	0.214459	0.785367
N71	N	0.119233	-0.252048	0.252000
N72	N	0.619233	0.247952	0.752000
C73	C	0.146534	-0.218553	0.218625
C74	C	0.646534	0.281447	0.718625
C75	C	0.479611	-0.285518	0.285322
C76	C	0.979611	0.214482	0.785322
C77	C	0.534213	-0.285519	0.285311
C78	C	1.034213	0.214481	0.785311
C79	C	0.534212	-0.218528	0.218566
C80	C	1.034212	0.281472	0.718566
C81	C	0.479609	-0.218530	0.218575
C82	C	0.979609	0.281470	0.718575
C83	C	0.452309	-0.252024	0.251956
C84	C	0.952309	0.247976	0.751956
C85	C	0.031869	-0.218567	0.218640
C86	C	0.531869	0.281433	0.718640
C87	C	-0.022737	-0.218578	0.218647
C88	C	0.477263	0.281422	0.718647
C89	C	-0.022730	-0.285566	0.285394
C90	C	0.477270	0.214434	0.785394
C91	C	0.031870	-0.285558	0.285385
C92	C	0.531870	0.214442	0.785385
C93	C	0.059169	-0.252055	0.252006
C94	C	0.559169	0.247945	0.752006
O95	O	0.118253	-0.314023	0.313724
O96	O	0.618253	0.185977	0.813724
O97	O	0.118291	-0.190065	0.190254
O98	O	0.618291	0.309935	0.690254
C99	C	0.755402	-0.387883	0.251933
C100	C	1.255402	0.112117	0.751933
C101	C	0.755418	-0.445997	0.251932
C102	C	1.255418	0.054003	0.751932
C103	C	0.788933	-0.806332	0.285483
C104	C	1.288933	-0.306332	0.785483
C105	C	0.788948	-0.860936	0.285493
C106	C	1.288948	-0.360936	0.785493
O107	O	0.817355	-0.889149	0.313977
O108	O	1.317355	-0.389149	0.813977
N109	N	0.755548	-0.888280	0.252024
N110	N	1.255548	-0.388280	0.752024
C111	C	0.722127	-0.861016	0.218546
C112	C	1.222127	-0.361016	0.718546
O113	O	0.693719	-0.889287	0.190079
O114	O	1.193719	-0.389287	0.690079
C115	C	0.722109	-0.806412	0.218538
C116	C	1.222109	-0.306412	0.718538
C117	C	0.755515	-0.779072	0.252006
C118	C	1.255515	-0.279072	0.752006
C119	C	0.822335	-0.778991	0.318948
C120	C	1.322335	-0.278991	0.818948
C121	C	0.822320	-0.724391	0.318937
C122	C	1.322320	-0.224391	0.818937
C123	C	0.788903	-0.697131	0.285460
C124	C	1.288903	-0.197131	0.785460
C125	C	0.755500	-0.724471	0.251994
C126	C	1.255500	-0.224471	0.751994
C127	C	0.688686	-0.779149	0.185063
C128	C	1.188686	-0.279149	0.685063
C129	C	0.688671	-0.724542	0.185059
C130	C	1.188671	-0.224542	0.685059
C131	C	0.722077	-0.697202	0.218526
C132	C	1.222077	-0.197202	0.718526
C133	C	0.722068	-0.642611	0.218506
C134	C	1.222068	-0.142611	0.718506
N135	N	0.755468	-0.615268	0.251975
N136	N	1.255468	-0.115268	0.751975
C137	C	0.788885	-0.642528	0.285452
C138	C	1.288885	-0.142528	0.785452
C139	C	0.722166	-0.975686	0.218565
C140	C	1.222166	-0.475686	0.718565
C141	C	0.722186	-1.030289	0.218570
C142	C	1.222186	-0.530289	0.718570
C143	C	0.789006	-1.030205	0.285518
C144	C	1.289006	-0.530205	0.785518
C145	C	0.788989	-0.975602	0.285510
C146	C	1.288989	-0.475602	0.785510
C147	C	0.755566	-0.948343	0.252034
C148	C	1.255566	-0.448343	0.752034
C149	C	0.788852	-0.527862	0.285425
C150	C	1.288852	-0.027862	0.785425
C151	C	0.788835	-0.473257	0.285409
C152	C	1.288835	0.026743	0.785409
C153	C	0.722013	-0.473345	0.218463
C154	C	1.222013	0.026655	0.718463
C155	C	0.722031	-0.527946	0.218477
C156	C	1.222031	-0.027946	0.718477
C157	C	0.755452	-0.555203	0.251962
C158	C	1.255452	-0.055203	0.751962
O159	O	0.693673	-0.614363	0.190039
O160	O	1.193673	-0.114363	0.690039
O161	O	0.817284	-0.614249	0.313919
O162	O	1.317284	-0.114249	0.813919
C163	C	0.891849	-0.252063	0.252008
C164	C	1.391849	0.247937	0.752008
C165	C	0.949963	-0.252073	0.252023
C166	C	1.449963	0.247927	0.752023
C167	C	0.755476	-0.252060	0.388346
C168	C	1.255476	0.247940	0.888346
C169	C	0.755476	-0.252068	0.446461
C170	C	1.255476	0.247932	0.946461
C171	C	0.755564	-0.115667	0.252026
C172	C	1.255564	0.384333	0.752026
C173	C	0.755602	-0.057553	0.252048
C174	C	1.255602	0.442447	0.752048
C175	C	0.788936	-0.218609	0.806851
C176	C	1.288936	0.281391	1.306851
C177	C	0.788936	-0.218606	0.861455
C178	C	1.288936	0.281394	1.361455
O179	O	0.817377	-0.190162	0.889715
O180	O	1.317377	0.309838	1.389715
N181	N	0.755479	-0.252038	0.888743
N182	N	1.255479	0.247962	1.388743
C183	C	0.722017	-0.285471	0.861424
C184	C	1.222017	0.214529	1.361424
O185	O	0.693559	-0.313907	0.889649
O186	O	1.193559	0.186093	1.389649
C187	C	0.722015	-0.285471	0.806821
C188	C	1.222015	0.214529	1.306821
C189	C	0.755478	-0.252041	0.779535
C190	C	1.255478	0.247959	1.279535
C191	C	0.822395	-0.185182	0.779565
C192	C	1.322395	0.314818	1.279565
C193	C	0.822396	-0.185185	0.724965
C194	C	1.322396	0.314815	1.224965
C195	C	0.788938	-0.218617	0.697649
C196	C	1.288938	0.281383	1.197649
C197	C	0.755478	-0.252045	0.724935
C198	C	1.255478	0.247955	1.224935
C199	C	0.688550	-0.318902	0.779503
C200	C	1.188550	0.181098	1.279503
C201	C	0.688551	-0.318898	0.724896
C202	C	1.188551	0.181102	1.224896
C203	C	0.722014	-0.285468	0.697610
C204	C	1.222014	0.214532	1.197610
C205	C	0.722020	-0.285481	0.643019
C206	C	1.222020	0.214519	1.143019
N207	N	0.755477	-0.252049	0.615731
N208	N	1.255477	0.247951	1.115731
C209	C	0.788936	-0.218617	0.643046
C210	C	1.288936	0.281383	1.143046
C211	C	0.722023	-0.285468	0.976095
C212	C	1.222023	0.214532	1.476095
C213	C	0.722027	-0.285471	1.030697
C214	C	1.222027	0.214529	1.530697
C215	C	0.788946	-0.218606	1.030724
C216	C	1.288946	0.281394	1.530724
C217	C	0.788944	-0.218606	0.976121
C218	C	1.288944	0.281394	1.476121
C219	C	0.755480	-0.252037	0.948807
C220	C	1.255480	0.247963	1.448807
C221	C	0.788935	-0.218628	0.528381
C222	C	1.288935	0.281372	1.028381
C223	C	0.788934	-0.218636	0.473776
C224	C	1.288934	0.281364	0.973776
C225	C	0.722014	-0.285500	0.473753
C226	C	1.222014	0.214500	0.973753
C227	C	0.722017	-0.285494	0.528354
C228	C	1.222017	0.214506	1.028354
C229	C	0.755479	-0.252054	0.555666
C230	C	1.255479	0.247946	1.055666
O231	O	0.693593	-0.313909	0.614725
O232	O	1.193593	0.186091	1.114725
O233	O	0.817384	-0.190181	0.614815
O234	O	1.317384	0.309819	1.114815
C235	C	0.755475	-0.252036	1.116131
C236	C	1.255475	0.247964	1.616131
C237	C	0.755484	-0.252037	1.058017
C238	C	1.255484	0.247963	1.558017
H239	H	0.556436	-0.312797	0.312480
H240	H	1.056436	0.187203	0.812480
H241	H	0.661483	-0.801401	0.157810
H242	H	1.161483	-0.301401	0.657810
O243	O	0.821541	-1.056668	0.317986
O244	O	1.321541	-0.556668	0.817986
C245	C	0.873658	-1.043285	0.306626
C246	C	1.373658	-0.543285	0.806626
H247	H	0.876332	-1.028287	0.264859
H248	H	1.376332	-0.528287	0.764859
H249	H	0.887295	-1.011572	0.334670
H250	H	1.387295	-0.511572	0.834670
C251	C	0.905271	-1.110188	0.364053
C252	C	1.405271	-0.610188	0.864053
C253	C	0.908556	-1.091770	0.312752
C254	C	1.408556	-0.591770	0.812752
H255	H	0.926798	-1.140094	0.367834
H256	H	1.426798	-0.640094	0.867834
H257	H	0.870159	-1.119203	0.371708
H258	H	1.370159	-0.619203	0.871708
H259	H	0.916634	-1.083755	0.387418
H260	H	1.416634	-0.583755	0.887418
H261	H	0.897187	-1.118200	0.289390
H262	H	1.397187	-0.618200	0.789390
H263	H	0.943667	-1.082760	0.305094
H264	H	1.443667	-0.582760	0.805094
H265	H	0.694775	-0.312721	0.451503
H266	H	1.194775	0.187279	0.951503
H267	H	0.816190	-0.953345	0.312763
H268	H	1.316190	-0.453345	0.812763
O269	O	-0.049282	-0.318024	0.317870
O270	O	0.450718	0.181976	0.817870
C271	C	-0.080849	-0.288305	0.351684
C272	C	0.419151	0.211695	0.851684
H273	H	-0.064368	-0.247133	0.354987
H274	H	0.435632	0.252867	0.854987
H275	H	-0.122235	-0.286474	0.335522
H276	H	0.377765	0.213526	0.835522
C277	C	-0.101932	-0.364500	0.401935
C278	C	0.398068	0.135500	0.901935
C279	C	-0.081687	-0.313933	0.405995
C280	C	0.418313	0.186067	0.905995
H281	H	-0.102451	-0.380309	0.435436
H282	H	0.397549	0.119691	0.935436
H283	H	-0.080666	-0.384523	0.379153
H284	H	0.419334	0.115477	0.879153
H285	H	-0.136418	-0.362967	0.388464
H286	H	0.363582	0.137033	0.888464
H287	H	-0.047199	-0.315467	0.419459
H288	H	0.452801	0.184533	0.919459
H289	H	-0.102947	-0.293911	0.428781
H290	H	0.397053	0.206089	0.928781
H291	H	0.816040	-0.450998	0.312663
H292	H	1.316040	0.049002	0.812663
H293	H	0.206201	-0.346293	0.345924
H294	H	0.706201	0.153707	0.845924
O295	O	0.058311	-0.318110	0.317849
O296	O	0.558311	0.181890	0.817849
C297	C	0.022503	-0.347685	0.347296
C298	C	0.522503	0.152315	0.847296
H299	H	-0.016413	-0.326279	0.349147
H300	H	0.483587	0.173721	0.849147
H301	H	0.016678	-0.387364	0.328075
H302	H	0.516678	0.112636	0.828075
C303	C	0.091622	-0.381600	0.400655
C304	C	0.591622	0.118400	0.900655
C305	C	0.043826	-0.355307	0.402932
C306	C	0.543826	0.144693	0.902932
H307	H	0.104776	-0.386304	0.434973
H308	H	0.604776	0.113696	0.934973
H309	H	0.115748	-0.361676	0.380815
H310	H	0.615748	0.138324	0.880815
H311	H	0.086762	-0.414663	0.384635
H312	H	0.586762	0.085337	0.884635
H313	H	0.048689	-0.322242	0.418946
H314	H	0.548689	0.177758	0.918946
H315	H	0.019702	-0.375225	0.422776
H316	H	0.519702	0.124775	0.922776
H317	H	0.305251	-0.346293	0.345908
H318	H	0.805251	0.153707	0.845908
O319	O	0.689774	-0.949151	0.186013
O320	O	1.189774	-0.449151	0.686013
C321	C	0.719558	-0.917567	0.152260
C322	C	1.219558	-0.417567	0.652260
H323	H	0.759162	-0.909342	0.170742
H324	H	1.259162	-0.409342	0.670742
H325	H	0.725345	-0.938626	0.113526
H326	H	1.225345	-0.438626	0.613526
C327	C	0.642136	-0.875833	0.120046
C328	C	1.142136	-0.375833	0.620046
C329	C	0.690776	-0.865727	0.142748
C330	C	1.190776	-0.365727	0.642748
H331	H	0.624382	-0.843856	0.114177
H332	H	1.124382	-0.343856	0.614177
H333	H	0.622070	-0.897113	0.142785
H334	H	1.122070	-0.397113	0.642785
H335	H	0.646966	-0.893383	0.087770
H336	H	1.146966	-0.393383	0.587770
H337	H	0.685946	-0.848183	0.175026
H338	H	1.185946	-0.348183	0.675026
H339	H	0.710841	-0.844442	0.120015
H340	H	1.210841	-0.344442	0.620015
O341	O	0.689690	-1.056763	0.186038
O342	O	1.189690	-0.556763	0.686038
C343	C	0.660205	-1.020987	0.156481
C344	C	1.160205	-0.520987	0.656481
H345	H	0.658370	-0.982057	0.177890
H346	H	1.158370	-0.482057	0.677890
H347	H	0.679383	-1.015181	0.116792
H348	H	1.179383	-0.515181	0.616792
C349	C	0.606823	-1.090151	0.122593
C350	C	1.106823	-0.590151	0.622593
C351	C	0.604565	-1.042338	0.148890
C352	C	1.104565	-0.542338	0.648890
H353	H	0.572502	-1.103322	0.117908
H354	H	1.072502	-0.603322	0.617908
H355	H	0.626689	-1.114255	0.142504
H356	H	1.126689	-0.614255	0.642504
H357	H	0.622807	-1.085306	0.089521
H358	H	1.122807	-0.585306	0.589521
H359	H	0.588587	-1.047185	0.181963
H360	H	1.088587	-0.547185	0.681963
H361	H	0.584695	-1.018236	0.128983
H362	H	1.084695	-0.518236	0.628983
O363	O	0.656119	-0.351402	0.698303
O364	O	1.156119	0.148598	1.198303
C365	C	0.685867	-0.385186	0.666731
C366	C	1.185867	0.114814	1.166731
H367	H	0.725502	-0.366753	0.658566
H368	H	1.225502	0.133247	1.158566
H369	H	0.691585	-0.423932	0.687770
H370	H	1.191585	0.076068	1.187770
C371	C	0.608416	-0.417292	0.624881
C372	C	1.108416	0.082708	1.124881
C373	C	0.657095	-0.394650	0.614849
C374	C	1.157095	0.105350	1.114849
H375	H	0.590667	-0.423132	0.592879
H376	H	1.090667	0.076868	1.092879
H377	H	0.588374	-0.394532	0.646153
H378	H	1.088374	0.105468	1.146153
H379	H	0.613188	-0.449577	0.642415
H380	H	1.113188	0.050423	1.142415
H381	H	0.652321	-0.362362	0.597322
H382	H	1.152321	0.137638	1.097322
H383	H	0.677135	-0.417405	0.593573
H384	H	1.177135	0.082595	1.093573
H385	H	0.816063	-0.550049	0.312696
H386	H	1.316063	-0.050049	0.812696
O387	O	0.854785	-0.697917	0.351499
O388	O	1.354785	-0.197917	0.851499
C389	C	0.884288	-0.733696	0.381036
C390	C	1.384288	-0.233696	0.881036
H391	H	0.862878	-0.772633	0.382824
H392	H	1.362878	-0.272633	0.882824
H393	H	0.924014	-0.739481	0.361934
H394	H	1.424014	-0.239481	0.861934
C395	C	0.918068	-0.664542	0.434494
C396	C	1.418068	-0.164542	0.934494
C397	C	0.891770	-0.712364	0.436694
C398	C	1.391770	-0.212364	0.936694
H399	H	0.922686	-0.651383	0.468825
H400	H	1.422686	-0.151383	0.968825
H401	H	0.898193	-0.640437	0.414593
H402	H	1.398193	-0.140437	0.914593
H403	H	0.951171	-0.669370	0.418573
H404	H	1.451171	-0.169370	0.918573
H405	H	0.858666	-0.707534	0.452608
H406	H	1.358666	-0.207534	0.952608
H407	H	0.911640	-0.736468	0.456598
H408	H	1.411640	-0.236468	0.956598
H409	H	0.694807	-0.451141	0.191205
H410	H	1.194807	0.048859	0.691205
H411	H	0.305261	-0.157772	0.158057
H412	H	0.805261	0.342228	0.658057
O413	O	0.201856	-0.152510	0.152890
O414	O	0.701856	0.347490	0.652890
C415	C	0.170295	-0.118781	0.182712
C416	C	0.670295	0.381219	0.682712
H417	H	0.162126	-0.137275	0.222307
H418	H	0.662126	0.362725	0.722307
H419	H	0.191346	-0.080035	0.188513
H420	H	0.691346	0.419965	0.688513
C421	C	0.128453	-0.086582	0.105332
C422	C	0.628453	0.413418	0.605332
C423	C	0.118415	-0.109298	0.153962
C424	C	0.618415	0.390702	0.653962
H425	H	0.096452	-0.080730	0.087597
H426	H	0.596452	0.419270	0.587597
H427	H	0.149717	-0.109304	0.085240
H428	H	0.649717	0.390696	0.585240
H429	H	0.145996	-0.054296	0.110174
H430	H	0.645996	0.445704	0.610174
H431	H	0.100878	-0.141586	0.149119
H432	H	0.600878	0.358414	0.649119
H433	H	0.097147	-0.086581	0.174052
H434	H	0.597147	0.413419	0.674052
H435	H	0.661452	-0.702351	0.157799
H436	H	1.161452	-0.202351	0.657799
O437	O	0.453151	-0.318036	0.317818
O438	O	0.953151	0.181964	0.817818
C439	C	0.466513	-0.306690	0.369948
C440	C	0.966513	0.193310	0.869948
H441	H	0.506166	-0.286587	0.371062
H442	H	1.006166	0.213413	0.871062
H443	H	0.435800	-0.279844	0.387619
H444	H	0.935800	0.220156	0.887619
C445	C	0.420333	-0.382406	0.400148
C446	C	0.920333	0.117594	0.900148
C447	C	0.469037	-0.357719	0.401517
C448	C	0.969037	0.142281	0.901517
H449	H	0.421887	-0.413883	0.419622
H450	H	0.921887	0.086117	0.919622
H451	H	0.411328	-0.390049	0.365027
H452	H	0.911328	0.109951	0.865027
H453	H	0.394743	-0.360030	0.414873
H454	H	0.894743	0.139970	0.914873
H455	H	0.494625	-0.380093	0.386786
H456	H	0.994625	0.119907	0.886786
H457	H	0.478046	-0.350081	0.436636
H458	H	0.978046	0.149919	0.936636
O459	O	0.655992	-0.351390	0.805918
O460	O	1.155992	0.148610	1.305918
C461	C	0.626471	-0.380899	0.770089
C462	C	1.126471	0.119101	1.270089
H463	H	0.624686	-0.359480	0.731172
H464	H	1.124686	0.140520	1.231172
H465	H	0.645587	-0.420614	0.764278
H466	H	1.145587	0.079386	1.264278
C467	C	0.573009	-0.414725	0.839172
C468	C	1.073009	0.085275	1.339172
C469	C	0.570812	-0.388416	0.791374
C470	C	1.070812	0.111584	1.291374
H471	H	0.538676	-0.419364	0.852302
H472	H	1.038676	0.080636	1.352302
H473	H	0.592898	-0.394846	0.863311
H474	H	1.092898	0.105154	1.363311
H475	H	0.588940	-0.447818	0.834322
H476	H	1.088940	0.052182	1.334322
H477	H	0.554886	-0.355321	0.796226
H478	H	1.054886	0.144679	1.296226
H479	H	0.550918	-0.408289	0.767236
H480	H	1.050918	0.091711	1.267236
H481	H	-0.044961	-0.191304	0.191470
H482	H	0.455039	0.308696	0.691470
O483	O	0.854825	-0.152646	0.806116
O484	O	1.354825	0.347354	1.306116
C485	C	0.825090	-0.118874	0.837712
C486	C	1.325090	0.381126	1.337712
H487	H	0.783909	-0.115639	0.821257
H488	H	1.283909	0.384361	1.321257
H489	H	0.823288	-0.135031	0.879094
H490	H	1.323288	0.364969	1.379094
C491	C	0.901249	-0.068499	0.858765
C492	C	1.401249	0.431501	1.358765
C493	C	0.850671	-0.064522	0.838551
C494	C	1.350671	0.435478	1.338551
H495	H	0.917030	-0.034973	0.859285
H496	H	1.417030	0.465027	1.359285
H497	H	0.921284	-0.091253	0.837480
H498	H	1.421284	0.408747	1.337480
H499	H	0.899741	-0.081965	0.893248
H500	H	1.399741	0.418035	1.393248
H501	H	0.852181	-0.051062	0.804067
H502	H	1.352181	0.448938	1.304067
H503	H	0.830638	-0.041764	0.859831
H504	H	1.330638	0.458236	1.359831
O505	O	0.854726	-0.805490	0.351524
O506	O	1.354726	-0.305490	0.851524
C507	C	0.824953	-0.837098	0.385265
C508	C	1.324953	-0.337098	0.885265
H509	H	0.783763	-0.820682	0.388450
H510	H	1.283763	-0.320682	0.888450
H511	H	0.823185	-0.878490	0.369108
H512	H	1.323185	-0.378490	0.869108
C513	C	0.901048	-0.858045	0.435730
C514	C	1.401048	-0.358045	0.935730
C515	C	0.850459	-0.837881	0.439646
C516	C	1.350459	-0.337881	0.939646
H517	H	0.916782	-0.858530	0.469274
H518	H	1.416782	-0.358530	0.969274
H519	H	0.921108	-0.836752	0.412997
H520	H	1.421108	-0.336752	0.912997
H521	H	0.899568	-0.892537	0.422264
H522	H	1.399568	-0.392537	0.922264
H523	H	0.851940	-0.803387	0.453105
H524	H	1.351940	-0.303387	0.953105
H525	H	0.830400	-0.859168	0.462382
H526	H	1.330400	-0.359168	0.962382
O527	O	0.689505	-0.318002	0.949644
O528	O	1.189505	0.181998	1.449644
C529	C	0.659971	-0.347499	0.985444
C530	C	1.159971	0.152501	1.485444
H531	H	0.681389	-0.349303	1.024370
H532	H	1.181389	0.150697	1.524370
H533	H	0.620273	-0.328350	0.991246
H534	H	1.120273	0.171650	1.491246
C535	C	0.626099	-0.400932	0.916317
C536	C	1.126099	0.099068	1.416317
C537	C	0.652407	-0.403152	0.964126
C538	C	1.152407	0.096848	1.464126
H539	H	0.621431	-0.435261	0.903167
H540	H	1.121431	0.064739	1.403167
H541	H	0.645994	-0.381058	0.892198
H542	H	1.145994	0.118942	1.392198
H543	H	0.593020	-0.384972	0.921159
H544	H	1.093020	0.115028	1.421159
H545	H	0.685488	-0.419105	0.959283
H546	H	1.185488	0.080895	1.459283
H547	H	0.632517	-0.423029	0.988244
H548	H	1.132517	0.076971	1.488244
H549	H	0.694834	-0.550207	0.191221
H550	H	1.194834	-0.050207	0.691221
H551	H	0.816186	-0.191413	0.451562
H552	H	1.316186	0.308587	0.951562
H553	H	0.816181	-0.191396	0.550613
H554	H	1.316181	0.308604	1.050613
O555	O	0.854914	-0.152658	0.698544
O556	O	1.354914	0.347342	1.198544
C557	C	0.884450	-0.123161	0.734372
C558	C	1.384450	0.376839	1.234372
H559	H	0.863032	-0.121355	0.773289
H560	H	1.363032	0.378645	1.273289
H561	H	0.924147	-0.142312	0.740185
H562	H	1.424147	0.357688	1.240185
C563	C	0.918323	-0.069732	0.665286
C564	C	1.418323	0.430268	1.165286
C565	C	0.892016	-0.067509	0.713083
C566	C	1.392016	0.432491	1.213083
H567	H	0.922993	-0.035404	0.652154
H568	H	1.422993	0.464596	1.152154
H569	H	0.898427	-0.089605	0.641148
H570	H	1.398427	0.410395	1.141148
H571	H	0.951402	-0.085693	0.670137
H572	H	1.451402	0.414307	1.170137
H573	H	0.858936	-0.051555	0.708231
H574	H	1.358936	0.448445	1.208231
H575	H	0.911907	-0.047632	0.737220
H576	H	1.411907	0.452368	1.237220
H577	H	0.054089	-0.191283	0.191462
H578	H	0.554089	0.308717	0.691462
O579	O	0.821393	-0.186139	1.057344
O580	O	1.321393	0.313861	1.557344
C581	C	0.814222	-0.193318	1.111388
C582	C	1.314222	0.306682	1.611388
H583	H	0.773863	-0.210442	1.118826
H584	H	1.273863	0.289558	1.618826
H585	H	0.845219	-0.221160	1.126889
H586	H	1.345219	0.278840	1.626889
C587	C	0.868602	-0.119384	1.130303
C588	C	1.368602	0.380616	1.630303
C589	C	0.819031	-0.140412	1.139437
C590	C	1.319031	0.359588	1.639437
H591	H	0.871572	-0.086750	1.147606
H592	H	1.371572	0.413250	1.647606
H593	H	0.873436	-0.114548	1.093892
H594	H	1.373436	0.385452	1.593892
H595	H	0.894428	-0.142591	1.143220
H596	H	1.394428	0.357409	1.643220
H597	H	0.793207	-0.117208	1.126514
H598	H	1.293207	0.382792	1.626514
H599	H	0.814194	-0.145242	1.175846
H600	H	1.314194	0.354758	1.675846
H601	H	0.457385	-0.191256	0.191402
H602	H	0.957385	0.308744	0.691402
O603	O	0.689602	-0.318008	1.057220
O604	O	1.189602	0.181992	1.557220
C605	C	0.719346	-0.351774	1.088814
C606	C	1.219346	0.148226	1.588814
H607	H	0.760525	-0.355006	1.072373
H608	H	1.260525	0.144994	1.572373
H609	H	0.721152	-0.335613	1.130203
H610	H	1.221152	0.164387	1.630203
C611	C	0.643196	-0.402157	1.109818
C612	C	1.143196	0.097843	1.609818
C613	C	0.693771	-0.406129	1.089622
C614	C	1.193771	0.093871	1.589622
H615	H	0.627419	-0.435685	1.110319
H616	H	1.127419	0.064315	1.610319
H617	H	0.623156	-0.379407	1.088535
H618	H	1.123156	0.120593	1.588535
H619	H	0.644707	-0.388687	1.144307
H620	H	1.144707	0.111313	1.644307
H621	H	0.692259	-0.419592	1.055132
H622	H	1.192259	0.080408	1.555132
H623	H	0.713810	-0.428882	1.110900
H624	H	1.213810	0.071118	1.610900
H625	H	0.816191	-0.191383	0.953909
H626	H	1.316191	0.308617	1.453909
H627	H	0.556450	-0.191254	0.191391
H628	H	1.056450	0.308746	0.691391
H629	H	0.694774	-0.312720	0.550571
H630	H	1.194774	0.187280	1.050571
