data_functionalizedCrystal
_audit_creation_method	'MofGen! by Chris Wilmer'
_symmetry_space_group_name_H-M	'P1'
_symmetry_Int_Tables_number	1
_symmetry_cell_setting	triclinic
loop_
_symmetry_equiv_pos_as_xyz
  x,y,z
_cell_length_a	10.686154
_cell_length_b	10.685741
_cell_length_c	10.686551
_cell_angle_alpha	89.636396
_cell_angle_beta	89.693980
_cell_angle_gamma	90.321389
loop_
_atom_site_label
_atom_site_type_symbol
_atom_site_fract_x
_atom_site_fract_y
_atom_site_fract_z
Zn1	Zn	-1.997321	-0.304149	-0.583886
Zn2	Zn	-1.999668	-0.529886	-0.390036
Zn3	Zn	-1.774064	-0.336043	-0.392444
Zn4	Zn	-1.805889	-0.527349	-0.615629
O5	O	-1.894235	-0.424357	-0.495499
O6	O	-2.172164	-0.321807	-0.543879
O7	O	-1.957404	-0.518581	-0.215825
O8	O	-1.789378	-0.157278	-0.405562
O9	O	-2.173888	-0.487655	-0.401459
O10	O	-1.953405	-0.133846	-0.546214
O11	O	-1.791654	-0.376166	-0.217594
O12	O	-1.603754	-0.373707	-0.436342
O13	O	-1.843620	-0.483332	-0.785948
O14	O	-1.627136	-0.514258	-0.600315
O15	O	-1.984264	-0.319348	-0.762627
O16	O	-1.988264	-0.704083	-0.432238
O17	O	-1.845895	-0.702220	-0.597980
C18	C	-1.570191	-0.447169	-0.522035
C19	C	-1.431568	-0.456956	-0.533419
C20	C	-1.920823	-0.748401	-0.518317
C21	C	-1.932315	-0.887017	-0.528111
C22	C	-1.917230	-0.397499	-0.820807
C23	C	-1.927029	-0.386055	-0.959434
C24	C	-1.219544	-0.401445	-0.468851
C25	C	-1.358167	-0.391652	-0.457472
C26	C	-1.867580	-0.099042	-0.472616
C27	C	-1.856220	0.039587	-0.462864
C28	C	-1.871395	-0.451015	-0.171444
C29	C	-1.861808	-0.462091	-0.032773
H30	H	-1.388354	-0.520364	-0.607149
H31	H	-1.990374	-0.312201	-1.002704
H32	H	-2.006158	0.069764	-0.591426
F33	F	-1.759706	0.096079	-0.380087
H34	H	-1.798477	-0.535948	-0.989508
H35	H	-1.401375	-0.328257	-0.383740
