data_functionalizedCrystal
_audit_creation_method	'MofGen! by Chris Wilmer'
_symmetry_space_group_name_H-M	'P1'
_symmetry_Int_Tables_number	1
_symmetry_cell_setting	triclinic
loop_
_symmetry_equiv_pos_as_xyz
  x,y,z
_cell_length_a	12.759401
_cell_length_b	12.594516
_cell_length_c	12.759393
_cell_angle_alpha	89.971602
_cell_angle_beta	90.019676
_cell_angle_gamma	89.972842
loop_
_atom_site_label
_atom_site_type_symbol
_atom_site_fract_x
_atom_site_fract_y
_atom_site_fract_z
Zn1	Zn	1.606179	0.423679	0.594000
Zn2	Zn	1.606033	0.601695	0.418327
Zn3	Zn	1.430477	0.423732	0.418339
Zn4	Zn	1.430432	0.601617	0.593968
O5	O	1.518280	0.512680	0.506158
O6	O	1.753180	0.447303	0.570705
O7	O	1.582703	0.578142	0.271307
O8	O	1.453864	0.274779	0.441660
O9	O	1.753073	0.578091	0.441638
O10	O	1.582951	0.274740	0.570717
O11	O	1.453723	0.447394	0.271316
O12	O	1.283450	0.447318	0.441628
O13	O	1.453788	0.577958	0.740993
O14	O	1.283417	0.578010	0.570662
O15	O	1.582908	0.447228	0.741017
O16	O	1.582659	0.750630	0.441607
O17	O	1.453646	0.750573	0.570650
C18	C	1.245313	0.512662	0.506143
C19	C	1.128536	0.512680	0.506162
C20	C	1.073731	0.444702	0.573471
C21	C	0.964007	0.444713	0.573478
C22	C	0.963903	0.580689	0.438864
C23	C	1.073625	0.580672	0.438853
C24	C	1.518160	0.789221	0.506146
C25	C	1.518205	0.907527	0.506176
C26	C	1.448016	0.976788	0.576313
C27	C	1.422401	1.047656	0.480446
C28	C	1.543877	1.047457	0.602058
C29	C	1.492541	0.976837	0.410259
C30	C	1.614060	0.976632	0.531936
C31	C	1.588483	1.047469	0.436003
C32	C	1.792313	0.512700	0.506174
C33	C	1.909090	0.512708	0.506180
C34	C	1.518359	0.512578	0.780192
C35	C	1.518392	0.512535	0.896969
C36	C	1.518383	1.235060	0.506192
C37	C	1.518308	1.116754	0.506202
C38	C	1.518262	0.512705	0.233191
C39	C	1.518432	0.512449	0.116415
C40	C	1.585630	0.444452	0.951845
C41	C	1.585648	0.444407	1.061569
C42	C	1.451187	0.580534	1.061531
C43	C	1.451165	0.580574	0.951809
H44	H	0.919182	0.636046	0.384065
F45	F	1.657177	0.372036	0.893483
F46	F	1.464095	0.936463	0.304255
H47	H	1.565548	1.078478	0.683135
F48	F	1.657219	0.371951	1.119967
H49	H	1.396455	0.635932	1.106196
F50	F	1.666127	1.087779	0.358406
H51	H	1.118249	0.636029	0.384037
H52	H	0.919389	0.389356	0.628285
H53	H	1.388569	0.945752	0.635539
H54	H	1.118436	0.389335	0.628275
F55	F	1.316506	1.088431	0.451972
F56	F	1.719927	0.935825	0.560445
H57	H	1.396404	0.636014	0.907128
