data_functionalizedCrystal
_audit_creation_method	'MofGen! by Chris Wilmer'
_symmetry_space_group_name_H-M	'P1'
_symmetry_Int_Tables_number	1
_symmetry_cell_setting	triclinic
loop_
_symmetry_equiv_pos_as_xyz
  x,y,z
_cell_length_a	19.077105
_cell_length_b	12.594516
_cell_length_c	19.076919
_cell_angle_alpha	87.722761
_cell_angle_beta	89.923776
_cell_angle_gamma	87.712633
loop_
_atom_site_label
_atom_site_type_symbol
_atom_site_fract_x
_atom_site_fract_y
_atom_site_fract_z
Zn1	Zn	1.058319	-0.514930	0.440450
Zn2	Zn	1.062975	-0.686069	0.322954
Zn3	Zn	0.945535	-0.500672	0.318243
Zn4	Zn	0.940797	-0.685427	0.435707
O5	O	1.001907	-0.596775	0.379338
O6	O	1.157269	-0.543868	0.428821
O7	O	1.051328	-0.655777	0.223998
O8	O	0.960531	-0.353620	0.334467
O9	O	1.160690	-0.669603	0.342497
O10	O	1.043393	-0.364096	0.424253
O11	O	0.965046	-0.519567	0.220536
O12	O	0.846574	-0.518944	0.329868
O13	O	0.952455	-0.668509	0.534668
O14	O	0.843093	-0.654683	0.416168
O15	O	1.038798	-0.543246	0.538153
O16	O	1.046733	-0.834927	0.337898
O17	O	0.956969	-0.834455	0.420737
C18	C	0.819337	-0.585197	0.371992
C19	C	0.741233	-0.580271	0.368866
C20	C	0.702747	-0.648728	0.412259
C21	C	0.629360	-0.644085	0.409325
C22	C	0.594459	-0.570991	0.362994
C23	C	0.632949	-0.502527	0.319600
C24	C	0.706335	-0.507165	0.322538
C25	C	0.375169	-0.549525	0.349400
C26	C	0.301778	-0.544895	0.346464
C27	C	0.298194	-0.686452	0.436191
C28	C	0.371582	-0.691088	0.439121
C29	C	0.410065	-0.622620	0.395730
N30	N	0.519445	-0.566246	0.359993
N31	N	0.485078	-0.627361	0.398735
C32	C	1.001861	-0.873312	0.379330
C33	C	1.001905	-0.991622	0.379352
C34	C	0.953079	-1.060655	0.424375
C35	C	0.938538	-1.126689	0.359570
C36	C	1.016509	-1.136391	0.444171
C37	C	0.987331	-1.056094	0.314511
C38	C	1.065330	-1.065794	0.399157
C39	C	1.050816	-1.131795	0.334309
C40	C	1.185189	-0.608398	0.386714
C41	C	1.263293	-0.613351	0.389857
C42	C	0.994578	-0.607396	0.562619
C43	C	0.991455	-0.611923	0.640723
C44	C	1.001971	-0.319159	0.379363
C45	C	1.001998	-0.200856	0.379374
C46	C	1.009247	-0.586120	0.196772
C47	C	1.012506	-0.581302	0.118675
C48	C	1.034940	-0.548834	0.679231
C49	C	1.031997	-0.553083	0.752617
C50	C	0.985572	-0.620426	0.787494
C51	C	0.942083	-0.683517	0.748980
C52	C	0.945023	-0.679262	0.675595
C53	C	0.971956	-0.640139	1.006776
C54	C	0.969021	-0.644391	1.080166
C55	C	1.058935	-0.513955	1.083799
C56	C	1.061873	-0.509711	1.010412
C57	C	1.018381	-0.572798	0.971905
N58	N	0.982565	-0.624772	0.862506
N59	N	1.021386	-0.568445	0.896894
H60	H	0.598028	-0.699830	0.444659
C61	C	1.182178	-1.118626	0.436398
C62	C	1.137661	-1.029423	0.421790
H63	H	1.226830	-1.096169	0.450381
H64	H	1.187222	-1.159037	0.395576
H65	H	1.162677	-1.161158	0.473155
H66	H	1.157160	-0.986895	0.385030
H67	H	1.132619	-0.988995	0.462617
C68	C	0.867206	-1.274237	0.336602
C69	C	0.866187	-1.163031	0.336961
H70	H	0.822539	-1.296667	0.322644
H71	H	0.877879	-1.302883	0.382329
H72	H	0.901883	-1.298577	0.304581
H73	H	0.831514	-1.138691	0.368987
H74	H	0.855505	-1.134374	0.291228
C75	C	1.021495	-1.045606	0.193328
C76	C	0.970621	-1.008870	0.240498
H77	H	1.011178	-1.016444	0.147639
H78	H	1.021441	-1.120988	0.192885
H79	H	1.066368	-1.024281	0.207466
H80	H	0.925748	-1.030202	0.226363
H81	H	0.970667	-0.933471	0.240939
C82	C	1.106593	-1.284925	0.283710
C83	C	1.106611	-1.173704	0.282865
H84	H	1.141040	-1.310797	0.251952
H85	H	1.061697	-1.306743	0.270042
H86	H	1.117044	-1.312662	0.329710
H87	H	1.096156	-1.145966	0.236866
H88	H	1.151518	-1.151876	0.296530
H89	H	1.028824	-1.171502	0.498979
H90	H	1.072746	-0.494000	0.650841
H91	H	0.399993	-0.750611	0.476847
C92	C	0.522046	-0.432562	0.275256
C93	C	0.594587	-0.422176	0.268674
H94	H	0.498366	-0.382959	0.243812
H95	H	0.508147	-0.419076	0.322000
H96	H	0.510428	-0.502693	0.264407
H97	H	0.606206	-0.352047	0.279529
H98	H	0.608491	-0.435654	0.221920
C99	C	1.121177	-0.423744	0.748837
C100	C	1.079802	-0.483741	0.794946
H101	H	1.150693	-0.380939	0.774971
H102	H	1.091720	-0.379428	0.718986
H103	H	1.149186	-0.470180	0.721292
H104	H	1.051789	-0.437305	0.822488
H105	H	1.109262	-0.528061	0.824810
H106	H	1.094343	-0.462592	1.115159
H107	H	0.266852	-0.742192	0.471519
H108	H	1.099679	-0.454876	0.982021
C109	C	0.938567	-0.816879	0.982797
C110	C	0.924142	-0.709480	0.964461
H111	H	0.909045	-0.859685	0.956670
H112	H	0.930182	-0.829037	1.031490
H113	H	0.986254	-0.834754	0.972655
H114	H	0.876456	-0.691602	0.974609
H115	H	0.932521	-0.697315	0.915757
H116	H	0.931215	-0.699232	1.108560
C117	C	0.897656	-0.747961	0.859859
C118	C	0.891051	-0.757542	0.787314
H119	H	0.866154	-0.793669	0.883523
H120	H	0.886906	-0.676501	0.871475
H121	H	0.944386	-0.767232	0.873779
H122	H	0.844322	-0.738263	0.773393
H123	H	0.901796	-0.829018	0.775693
H124	H	0.273363	-0.485360	0.308740
C125	C	0.855872	-0.808649	0.679371
C126	C	0.897235	-0.748630	0.633264
H127	H	0.826374	-0.851481	0.653237
H128	H	0.827851	-0.762235	0.706909
H129	H	0.885342	-0.852949	0.709230
H130	H	0.867765	-0.704323	0.603408
H131	H	0.925259	-0.795049	0.605714
C132	C	0.371330	-0.409139	0.260417
C133	C	0.417464	-0.474269	0.301703
H134	H	0.397445	-0.362680	0.230968
H135	H	0.341492	-0.368476	0.289934
H136	H	0.343774	-0.452093	0.232340
H137	H	0.445018	-0.431314	0.329784
H138	H	0.447315	-0.514934	0.272183
H139	H	0.737669	-0.451416	0.287206
H140	H	0.911720	-1.029418	0.462389
H141	H	0.731159	-0.708252	0.449984
