data_functionalizedCrystal
_audit_creation_method	'MofGen! by Chris Wilmer'
_symmetry_space_group_name_H-M	'P1'
_symmetry_Int_Tables_number	1
_symmetry_cell_setting	triclinic
loop_
_symmetry_equiv_pos_as_xyz
  x,y,z
_cell_length_a	31.640172
_cell_length_b	31.640172
_cell_length_c	14.628931
_cell_angle_alpha	59.992089
_cell_angle_beta	90.004023
_cell_angle_gamma	59.998920
loop_
_atom_site_label
_atom_site_type_symbol
_atom_site_fract_x
_atom_site_fract_y
_atom_site_fract_z
Zr1	Zr	0.407163	0.462619	-0.120015
O2	O	0.339669	0.550810	-0.266028
O3	O	0.427856	0.374433	-0.075232
O4	O	0.427852	0.462616	-0.265970
O5	O	0.339673	0.462627	0.075142
O6	O	0.497409	0.462607	-0.265950
O7	O	0.339673	0.462627	-0.075290
O8	O	0.497416	0.304864	0.075246
O9	O	0.339666	0.620370	-0.266054
O10	O	0.488587	0.410696	-0.056144
O11	O	0.436678	0.410703	0.056106
O12	O	0.436673	0.514527	-0.168464
O13	O	0.384764	0.514533	-0.056213
Zr14	Zr	0.518098	0.462604	0.119939
Zr15	Zr	0.518098	0.462605	-0.119983
Zr16	Zr	0.407163	0.462618	0.119907
Zr17	Zr	0.407158	0.573559	-0.120056
Zr18	Zr	0.518103	0.351664	0.119980
O19	O	0.497405	0.550790	0.075155
O20	O	0.497405	0.550790	-0.265983
O21	O	0.339669	0.550810	0.075110
O22	O	0.585592	0.374413	0.265952
O23	O	0.585591	0.374413	-0.075186
O24	O	0.427856	0.374433	0.265906
O25	O	0.585588	0.462596	-0.075219
O26	O	0.497409	0.462607	0.265894
O27	O	0.427852	0.462616	0.265874
O28	O	0.585588	0.462596	0.075213
O29	O	0.427845	0.620359	-0.266029
O30	O	0.497416	0.304864	0.265952
O31	O	0.585595	0.304853	0.265978
O32	O	0.585594	0.304853	0.075272
O33	O	0.339666	0.620370	-0.075348
O34	O	0.427845	0.620359	-0.075323
O35	O	0.488587	0.410696	0.168387
O36	O	0.540497	0.410690	0.056136
O37	O	0.488583	0.514520	-0.056183
O38	O	0.436673	0.514527	0.056068
C39	C	0.462636	0.323842	0.000013
C40	C	0.462638	0.276745	0.000031
C41	C	0.323867	0.462629	-0.000078
C42	C	0.276772	0.462635	-0.000092
C43	C	0.424310	0.023076	-0.082958
C44	C	0.424306	-0.153905	-0.082989
O45	O	0.391728	-0.144195	-0.153523
N46	N	0.462627	-0.214362	-0.000089
C47	C	0.500953	-0.230574	0.082821
O48	O	0.533550	-0.286058	0.153325
C49	C	0.500959	-0.053593	0.082846
C50	C	0.462633	0.006864	-0.000053
C51	C	0.385988	0.083530	-0.165851
C52	C	0.385987	0.127772	-0.165839
C53	C	0.424310	0.111560	-0.082934
C54	C	0.462633	0.051106	-0.000041
C55	C	0.539287	-0.069806	0.165750
C56	C	0.539286	-0.025554	0.165748
C57	C	0.500960	0.034903	0.082849
C58	C	0.500955	0.079136	0.082877
N59	N	0.462634	0.139593	-0.000024
C60	C	0.424312	0.155805	-0.082929
C61	C	0.500947	-0.323489	0.082803
C62	C	0.500945	-0.367734	0.082798
C63	C	0.424299	-0.291062	-0.083013
C64	C	0.424299	-0.246817	-0.083003
C65	C	0.462626	-0.263032	-0.000097
C66	C	0.424314	0.248714	-0.082897
C67	C	0.424316	0.292957	-0.082874
C68	C	0.500964	0.216281	0.082933
C69	C	0.500960	0.172042	0.082915
C70	C	0.462633	0.188263	-0.000010
O71	O	0.533519	0.069470	0.153366
O72	O	0.391726	0.211291	-0.153437
C73	C	0.424310	-0.021167	-0.082970
C74	C	0.462633	-0.081621	-0.000077
C75	C	0.500956	-0.097833	0.082828
C76	C	0.462631	-0.125866	-0.000082
C77	C	0.424309	-0.109654	-0.082987
C78	C	0.385988	-0.049197	-0.165887
C79	C	0.385988	-0.004955	-0.165875
C80	C	0.539276	-0.158290	0.165728
C81	C	0.539273	-0.202529	0.165710
C82	C	0.500951	-0.186317	0.082805
C83	C	0.011865	0.408407	0.058614
C84	C	-0.165120	0.408397	0.058636
O85	O	-0.164960	0.362303	0.108539
N86	N	-0.214349	0.462595	0.000005
C87	C	-0.219330	0.516800	-0.058630
O88	O	-0.265263	0.562898	-0.108489
C89	C	-0.042345	0.516809	-0.058644
C90	C	0.006882	0.462608	-0.000019
C91	C	0.061090	0.354210	0.117236
C92	C	0.105334	0.354213	0.117225
C93	C	0.100351	0.408414	0.058592
C94	C	0.051126	0.462611	-0.000030
C95	C	-0.047327	0.571013	-0.117272
C96	C	-0.003076	0.571011	-0.117268
C97	C	0.046152	0.516809	-0.058643
C98	C	0.090387	0.516814	-0.058674
N99	N	0.139615	0.462616	-0.000043
C100	C	0.144597	0.408416	0.058590
C101	C	-0.312248	0.516791	-0.058619
C102	C	-0.356494	0.516788	-0.058617
C103	C	-0.302281	0.408386	0.058650
C104	C	-0.258034	0.408389	0.058641
C105	C	-0.263019	0.462593	0.000012
C106	C	0.237510	0.408427	0.058561
C107	C	0.281754	0.408435	0.058541
C108	C	0.227538	0.516837	-0.058721
C109	C	0.183297	0.516829	-0.058706
C110	C	0.188286	0.462619	-0.000057
O111	O	0.090266	0.562884	-0.108541
O112	O	0.190534	0.362324	0.108462
C113	C	-0.032379	0.408404	0.058625
C114	C	-0.081604	0.462601	0.000003
C115	C	-0.086587	0.516802	-0.058630
C116	C	-0.125850	0.462599	0.000005
C117	C	-0.120868	0.408399	0.058638
C118	C	-0.071640	0.354201	0.117269
C119	C	-0.027396	0.354204	0.117258
C120	C	-0.135815	0.571000	-0.117261
C121	C	-0.180056	0.570992	-0.117246
C122	C	-0.175074	0.516792	-0.058613
C123	C	0.601394	0.462594	0.000002
C124	C	0.648489	0.462588	0.000015
C125	C	0.462630	0.462612	-0.300144
C126	C	0.462630	0.462612	-0.401997
C127	C	0.462625	0.601381	-0.000090
C128	C	0.462623	0.648478	-0.000107
C129	C	0.488383	0.411105	-0.391688
C130	C	0.488383	0.411104	-0.496958
C131	C	0.462631	0.462611	0.300068
C132	C	0.462631	0.462611	0.401921
C133	C	0.601400	0.323825	0.000053
C134	C	0.648496	0.276722	0.000084
C135	C	0.462636	0.323842	0.300119
C136	C	0.462638	0.276745	0.401990
C137	C	0.601400	0.323824	0.300159
C138	C	0.648497	0.276721	0.402043
C139	C	0.323861	0.601399	-0.300235
C140	C	0.276764	0.648502	-0.402119
C141	C	0.323861	0.601398	-0.000130
C142	C	0.276764	0.648501	-0.000161
C143	C	0.462624	0.601381	-0.300195
C144	C	0.462622	0.648478	-0.402066
C145	C	0.643517	0.254605	-0.058521
C146	C	0.687766	0.210353	-0.058514
C147	C	0.736993	0.188215	0.000105
C148	C	0.741971	0.210336	0.058712
C149	C	0.697723	0.254590	0.058698
C150	C	0.489736	0.254624	0.508448
C151	C	0.489736	0.210377	0.604176
C152	C	0.462641	0.188249	0.593442
C153	C	0.435540	0.210374	0.486972
C154	C	0.435538	0.254623	0.391247
C155	C	0.697715	0.254598	0.391295
C156	C	0.741972	0.210345	0.487017
C157	C	0.737009	0.188214	0.593486
C158	C	0.687786	0.210342	0.604231
C159	C	0.643530	0.254597	0.508511
C160	C	0.227546	0.670631	-0.391372
C161	C	0.183289	0.714897	-0.487093
C162	C	0.188251	0.737030	-0.593562
C163	C	0.237475	0.714899	-0.604308
C164	C	0.281731	0.670637	-0.508587
C165	C	0.281743	0.670623	0.058434
C166	C	0.237495	0.714887	0.058401
C167	C	0.188268	0.737026	-0.000221
C168	C	0.183290	0.714903	-0.058823
C169	C	0.227538	0.670643	-0.058796
C170	C	0.489722	0.670592	-0.391296
C171	C	0.489730	0.714839	-0.487005
C172	C	0.462635	0.736975	-0.593483
C173	C	0.435535	0.714856	-0.604251
C174	C	0.435530	0.670607	-0.508543
H175	H	0.393102	0.342185	-0.150379
F176	F	0.141180	0.784132	-0.000239
F177	F	0.130895	0.738470	-0.121206
F178	F	0.406707	0.186817	0.475565
H179	H	0.413474	0.272628	0.304567
F180	F	0.703008	0.278146	0.277992
H181	H	0.413475	0.732886	-0.690958
H182	H	0.511798	0.732843	-0.478216
H183	H	0.223495	0.652612	-0.304688
F184	F	0.784081	0.141115	0.000111
F185	F	0.462644	0.784070	-0.695335
H186	H	0.223477	0.652633	-0.106508
F187	F	0.591130	0.278159	-0.120919
F188	F	0.242748	0.738460	-0.717629
F189	F	0.794366	0.186768	0.121097
H190	H	0.782048	0.192333	0.478248
F191	F	0.345196	0.192113	-0.254074
H192	H	0.511786	0.652577	-0.304605
F193	F	-0.141127	0.628691	-0.179669
F194	F	0.130903	0.574516	-0.121122
H195	H	0.413460	0.652607	-0.517327
H196	H	0.143214	0.732908	-0.478322
F197	F	0.518577	0.278164	0.519898
H198	H	0.440583	0.506710	-0.606739
H199	H	0.510433	0.367007	-0.488306
F200	F	0.383522	0.265985	-0.171154
H201	H	0.773050	0.152180	0.671419
H202	H	0.354780	0.096741	-0.233368
F203	F	0.383513	-0.273815	-0.171248
F204	F	0.383508	-0.182475	-0.171236
F205	F	0.682513	0.186783	0.717552
H206	H	-0.007141	0.615151	-0.164998
F207	F	0.541731	-0.432075	0.171043
F208	F	0.141145	0.784138	-0.695428
H209	H	0.603456	0.272604	0.517277
H210	H	0.701784	0.272592	0.106427
H211	H	0.532160	-0.336702	0.150319
F212	F	0.334130	0.647070	0.120830
F213	F	0.580079	-0.134142	0.253986
H214	H	0.462647	0.152219	0.671396
F215	F	0.518583	0.186836	0.717478
F216	F	0.682457	0.186816	-0.120890
F217	F	0.242804	0.738422	0.120780
F218	F	0.580082	-0.042818	0.253987
H219	H	0.532164	0.203091	0.150435
F220	F	0.541748	0.107697	0.171152
H221	H	0.510428	0.367009	-0.304929
H222	H	0.321805	0.652620	-0.517351
F223	F	0.345201	-0.031951	-0.254118
F224	F	0.345196	0.059386	-0.254108
F225	F	0.580066	-0.266873	0.253955
F226	F	-0.205645	0.350700	0.121039
H227	H	0.321838	0.364295	0.106285
F228	F	0.580066	-0.175554	0.253974
F229	F	0.157722	0.296524	0.179630
F230	F	0.066404	0.296518	0.179650
F231	F	0.242827	0.350730	0.120982
F232	F	0.433808	0.520251	-0.515395
H233	H	-0.396574	0.560925	-0.106371
F234	F	-0.317562	0.574486	-0.121027
F235	F	-0.296986	0.350701	0.121051
H236	H	0.223490	0.560966	-0.106463
F237	F	-0.099712	0.628703	-0.179662
F238	F	0.024992	0.296515	0.179657
H239	H	-0.220139	0.615133	-0.164997
F240	F	-0.066345	0.296517	0.179666
