data_functionalizedCrystal
_audit_creation_method	'MofGen! by Chris Wilmer'
_symmetry_space_group_name_H-M	'P1'
_symmetry_Int_Tables_number	1
_symmetry_cell_setting	triclinic
loop_
_symmetry_equiv_pos_as_xyz
  x,y,z
_cell_length_a	10.489741
_cell_length_b	10.489746
_cell_length_c	9.130307
_cell_angle_alpha	89.996380
_cell_angle_beta	90.001169
_cell_angle_gamma	84.540238
loop_
_atom_site_label
_atom_site_type_symbol
_atom_site_fract_x
_atom_site_fract_y
_atom_site_fract_z
O1	O	1.694052	0.179965	-0.121710
O2	O	1.322856	0.196858	-0.121733
O3	O	1.516897	0.002814	-0.121710
O4	O	1.500011	0.374009	-0.121733
O5	O	1.516891	0.002812	0.121889
O6	O	1.322850	0.196856	0.121866
O7	O	1.694045	0.179963	0.121889
Cu8	Cu	1.508447	0.188410	0.144120
Cu9	Cu	1.508455	0.188412	-0.143964
O10	O	1.500005	0.374007	0.121866
C11	C	1.275321	0.195581	0.000064
C12	C	1.133692	0.191764	0.000055
C13	C	1.065550	0.068300	0.000077
C14	C	0.973427	0.126624	-0.120031
C15	C	0.973455	0.126652	0.120139
C16	C	1.043435	0.250139	-0.120152
C17	C	1.043472	0.250150	0.120126
C18	C	0.951377	0.308564	-0.000011
C19	C	1.515617	-0.044718	0.000089
C20	C	1.511797	-0.186347	0.000088
C21	C	1.386074	-0.339205	0.000062
C22	C	1.448934	-0.261812	-0.120038
C23	C	1.448957	-0.261855	0.120131
C24	C	1.567915	-0.361304	-0.120144
C25	C	1.567921	-0.361352	0.120133
C26	C	1.630868	-0.284008	0.000004
C27	C	1.741580	0.181240	0.000089
C28	C	1.883210	0.185057	0.000088
C29	C	1.501285	0.421540	0.000064
C30	C	1.505105	0.563169	0.000055
N31	N	1.508451	0.188407	0.346743
N32	N	1.508461	0.188404	-0.346587
C33	C	1.680345	0.016632	0.346753
C34	C	1.766300	-0.069252	0.423425
C35	C	1.766313	-0.069253	0.576758
C36	C	1.680359	0.016637	0.653423
C37	C	1.594403	0.102521	0.576752
C38	C	1.594402	0.102515	0.423415
C39	C	1.422505	0.274288	0.576741
C40	C	1.422497	0.274297	0.423408
C41	C	1.336551	0.360178	0.653406
C42	C	1.250600	0.446070	0.576735
C43	C	1.250591	0.446068	0.423392
C44	C	1.336541	0.360181	0.346736
H45	H	1.282572	-0.363924	-0.000064
H46	H	0.901955	0.410167	-0.000083
H47	H	1.618122	-0.404852	0.221682
H48	H	1.398688	-0.218336	-0.221583
H49	H	1.115237	-0.033196	-0.000067
H50	H	1.618132	-0.404584	-0.221796
Cl51	Cl	1.091028	0.330732	-0.277104
Cl52	Cl	1.874366	-0.177229	0.673148
H53	H	1.680364	0.016621	0.778276
H54	H	1.734448	-0.259533	-0.000056
Cl55	Cl	1.371341	-0.194779	0.276895
Cl56	Cl	1.336558	0.360174	0.846170
H57	H	1.180616	0.515990	0.639165
H58	H	1.680354	0.016635	0.221901
H59	H	1.074516	0.302347	0.221668
Cl60	Cl	1.142519	0.554037	0.327018
Cl61	Cl	1.874349	-0.177228	0.327044
H62	H	1.336547	0.360177	0.221884
Cl63	Cl	0.925547	0.045975	-0.276801
Cl64	Cl	0.925624	0.045966	0.276915
