data_functionalizedCrystal
_audit_creation_method	'MofGen! by Chris Wilmer'
_symmetry_space_group_name_H-M	'P1'
_symmetry_Int_Tables_number	1
_symmetry_cell_setting	triclinic
loop_
_symmetry_equiv_pos_as_xyz
  x,y,z
_cell_length_a	14.971486
_cell_length_b	14.971494
_cell_length_c	13.448316
_cell_angle_alpha	90.004885
_cell_angle_beta	90.001801
_cell_angle_gamma	83.615843
loop_
_atom_site_label
_atom_site_type_symbol
_atom_site_fract_x
_atom_site_fract_y
_atom_site_fract_z
O1	O	-1.186951	-0.116564	-0.082574
O2	O	-0.926551	-0.130523	-0.082600
O3	O	-1.063726	0.006656	-0.082584
O4	O	-1.049776	-0.253743	-0.082590
O5	O	-1.063709	0.006664	0.082800
O6	O	-0.926534	-0.130515	0.082784
O7	O	-1.186934	-0.116556	0.082810
Cu8	Cu	-1.056732	-0.123534	0.097898
Cu9	Cu	-1.056753	-0.123544	-0.097688
O10	O	-1.049758	-0.253735	0.082794
C11	C	-0.893218	-0.129895	0.000088
C12	C	-0.793921	-0.128024	0.000078
C13	C	-1.063093	0.039985	0.000106
C14	C	-1.061219	0.139281	0.000102
C15	C	-1.220267	-0.117184	0.000120
C16	C	-1.319564	-0.119055	0.000123
N17	N	-1.056724	-0.123527	0.235462
C18	C	-0.736698	-0.208613	0.000078
C19	C	-0.643398	-0.206850	0.000092
C20	C	-0.607323	-0.124497	0.000101
C21	C	-0.664554	-0.043902	0.000104
C22	C	-0.757851	-0.045666	0.000096
C23	C	-0.470091	-0.040231	0.000118
C24	C	-0.376787	-0.038466	0.000124
C25	C	-0.355638	-0.201415	0.000114
C26	C	-0.448936	-0.203179	0.000106
C27	C	-0.506160	-0.122583	0.000108
C28	C	-1.050392	-0.287064	0.000101
C29	C	-1.052266	-0.386360	0.000100
C30	C	-1.060350	0.185921	-0.090050
C31	C	-1.058584	0.279221	-0.090052
C32	C	-1.057693	0.325879	0.000100
C33	C	-1.058559	0.279232	0.090259
C34	C	-1.060319	0.185933	0.090259
C35	C	-1.054893	0.473695	0.090252
C36	C	-1.053135	0.567000	0.090252
C37	C	-1.053158	0.566982	-0.090059
C38	C	-1.054918	0.473684	-0.090059
C39	C	-1.055786	0.427043	0.000100
N40	N	-1.056768	-0.123545	-0.235252
C41	C	-1.117484	-0.062809	0.287510
C42	C	-1.117490	-0.062808	0.391613
C43	C	-1.056739	-0.123530	0.443667
C44	C	-0.995973	-0.184251	0.391612
C45	C	-0.995963	-0.184247	0.287510
C46	C	-0.995997	-0.184257	0.608592
C47	C	-0.996007	-0.184263	0.712700
C48	C	-1.117524	-0.062819	0.712694
C49	C	-1.117515	-0.062814	0.608593
C50	C	-1.056749	-0.123536	0.556545
H51	H	-0.766062	-0.275674	0.000070
H52	H	-0.804442	0.019958	0.000096
H53	H	-0.946485	-0.233688	0.245134
H54	H	-1.052402	0.604985	0.163661
H55	H	-1.055580	0.435721	0.163669
H56	H	-1.057880	0.317191	-0.163463
C57	C	-0.929137	-0.251038	0.448875
N58	N	-0.878795	-0.301343	0.492004
C59	C	-1.061277	0.134630	0.189433
N60	N	-1.061997	0.095989	0.264134
C61	C	-0.580456	-0.295504	0.000110
N62	N	-0.533049	-0.362283	0.000130
H63	H	-1.166959	-0.013366	0.245134
C64	C	-1.184310	0.004008	0.448860
N65	N	-1.234633	0.054345	0.491979
C66	C	-0.624868	0.046688	0.000115
N67	N	-0.594978	0.114922	0.000119
C68	C	-0.292690	-0.290071	0.000118
N69	N	-0.245274	-0.356844	0.000117
C70	C	-1.184364	0.003980	0.769949
N71	N	-1.234707	0.054289	0.813077
H72	H	-1.055650	0.435698	-0.163468
H73	H	-1.061080	0.147940	-0.163463
C74	C	-0.929173	-0.251055	0.769958
N75	N	-0.878831	-0.301363	0.813084
H76	H	-0.478304	-0.270238	0.000090
H77	H	-1.166987	-0.013374	0.566211
H78	H	-0.347418	0.028593	0.000132
H79	H	-0.516681	0.025399	0.000121
H80	H	-0.946512	-0.233701	0.566218
C81	C	-1.052198	0.618287	-0.189236
N82	N	-1.051477	0.656935	-0.263932
C83	C	-1.057572	0.330558	0.189427
N84	N	-1.056831	0.369216	0.264122
