data_functionalizedCrystal
_audit_creation_method	'MofGen! by Chris Wilmer'
_symmetry_space_group_name_H-M	'P1'
_symmetry_Int_Tables_number	1
_symmetry_cell_setting	triclinic
loop_
_symmetry_equiv_pos_as_xyz
  x,y,z
_cell_length_a	16.109301
_cell_length_b	16.109301
_cell_length_c	14.586319
_cell_angle_alpha	90.003802
_cell_angle_beta	90.000787
_cell_angle_gamma	83.461532
loop_
_atom_site_label
_atom_site_type_symbol
_atom_site_fract_x
_atom_site_fract_y
_atom_site_fract_z
O1	O	-1.103131	-0.106866	-0.076182
O2	O	-0.769798	0.226467	0.257151
O3	O	-0.436464	0.559801	0.590484
O4	O	-0.861069	-0.120165	-0.076197
O5	O	-0.527736	0.213168	0.257136
O6	O	-0.194402	0.546501	0.590470
O7	O	-0.988749	0.007515	-0.076183
O8	O	-0.655416	0.340849	0.257150
O9	O	-0.322083	0.674182	0.590483
O10	O	-0.975450	-0.234547	-0.076196
O11	O	-0.642117	0.098787	0.257137
O12	O	-0.308784	0.432120	0.590471
O13	O	-0.988741	0.007517	0.076298
O14	O	-0.655407	0.340850	0.409631
O15	O	-0.322074	0.674184	0.742964
O16	O	-0.861060	-0.120164	0.076284
O17	O	-0.527727	0.213170	0.409617
O18	O	-0.194393	0.546503	0.742950
O19	O	-1.103122	-0.106864	0.076298
O20	O	-0.769789	0.226469	0.409632
O21	O	-0.436455	0.559802	0.742965
Cu22	Cu	-0.982090	-0.113514	0.090214
Cu23	Cu	-0.648757	0.219820	0.423547
Cu24	Cu	-0.315424	0.553153	0.756880
Cu25	Cu	-0.982101	-0.113516	-0.090112
Cu26	Cu	-0.648767	0.219817	0.243221
Cu27	Cu	-0.315434	0.553151	0.576554
O28	O	-0.975441	-0.234545	0.076285
O29	O	-0.642108	0.098789	0.409618
O30	O	-0.308775	0.432122	0.742951
C31	C	-0.830090	-0.119626	0.000042
C32	C	-0.496756	0.213708	0.333375
C33	C	-0.163423	0.547041	0.666708
C34	C	-0.737794	-0.118011	0.000036
C35	C	-0.404461	0.215323	0.333370
C36	C	-0.071128	0.548656	0.666703
N37	N	-0.982089	-0.113512	0.217046
N38	N	-0.648756	0.219822	0.550379
N39	N	-0.315422	0.553155	0.883712
C40	C	-0.988206	0.038491	0.000057
C41	C	-0.654873	0.371824	0.333390
C42	C	-0.321540	0.705158	0.666723
C43	C	-0.986591	0.130786	0.000055
C44	C	-0.653258	0.464120	0.333389
C45	C	-0.319924	0.797453	0.666722
C46	C	-1.134101	-0.107404	0.000058
C47	C	-0.800768	0.225930	0.333391
C48	C	-0.467435	0.559263	0.666724
C49	C	-1.226397	-0.109019	0.000057
C50	C	-0.893063	0.224314	0.333391
C51	C	-0.559730	0.557648	0.666724
C52	C	-0.515522	-0.190018	0.000043
C53	C	-0.182189	0.143315	0.333376
C54	C	0.151145	0.476648	0.666710
C55	C	-0.428802	-0.188494	0.000049
C56	C	-0.095468	0.144839	0.333382
C57	C	0.237865	0.478172	0.666716
C58	C	-0.448676	-0.037006	0.000053
C59	C	-0.115342	0.296328	0.333387
C60	C	0.217991	0.629661	0.666720
C61	C	-0.535395	-0.038530	0.000054
C62	C	-0.202061	0.294803	0.333387
C63	C	0.131272	0.628136	0.666720
C64	C	-0.568815	-0.115039	0.000044
C65	C	-0.235482	0.218294	0.333377
C66	C	0.097852	0.551627	0.666711
C67	C	-0.395376	-0.111990	0.000049
C68	C	-0.062043	0.221343	0.333383
C69	C	0.271291	0.554676	0.666716
C70	C	-0.301350	-0.110337	0.000056
C71	C	0.031983	0.222996	0.333389
C72	C	0.365317	0.556329	0.666723
C73	C	-0.662847	-0.116693	0.000039
C74	C	-0.329514	0.216641	0.333373
C75	C	0.003820	0.549974	0.666706
C76	C	-0.975985	-0.265521	0.000043
C77	C	-0.642651	0.067813	0.333376
C78	C	-0.309318	0.401146	0.666709
C79	C	-0.977600	-0.357816	0.000038
C80	C	-0.644267	-0.024483	0.333371
C81	C	-0.310933	0.308851	0.666705
C82	C	-1.057074	0.439785	0.000044
C83	C	-0.723741	0.773118	0.333377
C84	C	-0.390408	1.106451	0.666710
C85	C	-1.058600	0.353064	0.000049
C86	C	-0.725266	0.686398	0.333383
C87	C	-0.391933	1.019731	0.666716
C88	C	-0.907111	0.333191	0.000052
C89	C	-0.573777	0.666524	0.333386
C90	C	-0.240444	0.999858	0.666719
C91	C	-0.905586	0.419910	0.000053
C92	C	-0.572253	0.753243	0.333387
C93	C	-0.238920	1.086577	0.666720
C94	C	-0.980571	0.473205	0.000045
C95	C	-0.647237	0.806538	0.333378
C96	C	-0.313904	1.139871	0.666711
C97	C	-0.983620	0.299766	0.000049
C98	C	-0.650287	0.633099	0.333382
C99	C	-0.316954	0.966432	0.666715
C100	C	-0.985274	0.205740	0.000055
C101	C	-0.651940	0.539073	0.333388
C102	C	-0.318607	0.872406	0.666721
C103	C	-0.978917	0.567237	0.000041
C104	C	-0.645584	0.900570	0.333374
C105	C	-0.312251	1.233903	0.666707
N106	N	-0.982109	-0.113511	-0.216944
N107	N	-0.648775	0.219822	0.116389
N108	N	-0.315442	0.553155	0.449723
C109	C	-1.038645	-0.056994	0.452058
C110	C	-0.705311	0.276340	0.785391
C111	C	-0.371978	0.609673	1.118725
C112	C	-1.038647	-0.056992	0.548039
C113	C	-0.705314	0.276342	0.881373
C114	C	-0.371980	0.609675	1.214706
C115	C	-0.925547	-0.170032	0.548037
C116	C	-0.592214	0.163301	0.881370
C117	C	-0.258880	0.496635	1.214703
C118	C	-0.925541	-0.170030	0.452057
C119	C	-0.592208	0.163304	0.785390
C120	C	-0.258875	0.496637	1.118724
C121	C	-0.982095	-0.113511	0.404070
C122	C	-0.648761	0.219822	0.737404
C123	C	-0.315428	0.553155	1.070737
C124	C	-0.982103	-0.113512	0.596031
C125	C	-0.648769	0.219822	0.929364
C126	C	-0.315436	0.553155	1.262698
C127	C	-0.982105	-0.113510	0.700098
C128	C	-0.648772	0.219823	1.033432
C129	C	-0.315438	0.553157	1.366765
C130	C	-0.982092	-0.113512	0.299997
C131	C	-0.648758	0.219822	0.633330
C132	C	-0.315425	0.553155	0.966663
H133	H	-0.542730	-0.252317	0.000042
H134	H	-0.209396	0.081017	0.333375
H135	H	0.123937	0.414350	0.666709
O136	O	-0.831317	0.452477	-0.000071
O137	O	-0.497984	0.785810	0.333263
O138	O	-0.164650	1.119143	0.666596
C139	C	-0.741662	0.538811	-0.079092
C140	C	-0.408328	0.872145	0.254242
C141	C	-0.074995	1.205478	0.587575
C142	C	-0.825803	0.502001	-0.079058
C143	C	-0.492469	0.835334	0.254275
C144	C	-0.159136	1.168667	0.587609
H145	H	-0.737168	0.578845	-0.142956
H146	H	-0.403835	0.912178	0.190378
H147	H	-0.070502	1.245512	0.523711
H148	H	-0.737149	0.578971	-0.015321
H149	H	-0.403816	0.912305	0.318012
H150	H	-0.070482	1.245638	0.651346
H151	H	-0.688345	0.485811	-0.079049
H152	H	-0.355012	0.819145	0.254285
H153	H	-0.021679	1.152478	0.587618
H154	H	-0.879167	0.554947	-0.079133
H155	H	-0.545834	0.888280	0.254200
H156	H	-0.212501	1.221614	0.587533
H157	H	-0.830242	0.461819	-0.142823
H158	H	-0.496909	0.795152	0.190510
H159	H	-0.163576	1.128485	0.523843
H160	H	-0.578788	0.022530	0.000057
H161	H	-0.245455	0.355864	0.333391
H162	H	0.087878	0.689197	0.666724
H163	H	-1.084694	-0.010969	0.587108
H164	H	-0.751361	0.322365	0.920442
H165	H	-0.418027	0.655698	1.253775
H166	H	-1.118131	0.483175	0.000037
H167	H	-0.784798	0.816509	0.333370
H168	H	-0.451465	1.149842	0.666703
H169	H	-1.084693	-0.010972	0.412990
H170	H	-0.751359	0.322362	0.746323
H171	H	-0.418026	0.655695	1.079656
H172	H	-0.879488	-0.216053	0.412983
H173	H	-0.546154	0.117280	0.746316
H174	H	-0.212821	0.450613	1.079650
H175	H	-0.879503	-0.216049	0.587117
H176	H	-0.546170	0.117284	0.920450
H177	H	-0.212837	0.450617	1.253784
O178	O	-0.834352	0.281301	0.000013
O179	O	-0.501019	0.614634	0.333346
O180	O	-0.167685	0.947967	0.666679
C181	C	-0.769561	0.138899	0.000062
C182	C	-0.436228	0.472232	0.333395
C183	C	-0.102895	0.805565	0.666729
C184	C	-0.852024	0.197566	0.000089
C185	C	-0.518690	0.530899	0.333422
C186	C	-0.185357	0.864233	0.666756
H187	H	-0.783820	0.071187	0.000143
H188	H	-0.450486	0.404520	0.333476
H189	H	-0.117153	0.737854	0.666810
H190	H	-0.731900	0.150984	-0.063765
H191	H	-0.398567	0.484317	0.269568
H192	H	-0.065233	0.817651	0.602902
H193	H	-0.731909	0.151101	0.063861
H194	H	-0.398576	0.484434	0.397194
H195	H	-0.065243	0.817767	0.730528
H196	H	-0.889742	0.185398	-0.063667
H197	H	-0.556409	0.518732	0.269667
H198	H	-0.223076	0.852065	0.603000
H199	H	-0.889622	0.185468	0.063958
H200	H	-0.556288	0.518801	0.397292
H201	H	-0.222955	0.852135	0.730625
H202	H	-0.385413	-0.249550	0.000050
H203	H	-0.052080	0.083783	0.333383
H204	H	0.281253	0.417117	0.666717
H205	H	-1.120896	0.325859	0.000050
H206	H	-0.787563	0.659192	0.333384
H207	H	-0.454230	0.992525	0.666717
O208	O	-0.416071	0.037239	0.000015
O209	O	-0.082737	0.370572	0.333348
O210	O	0.250596	0.703905	0.666681
C211	C	-0.291285	0.106727	0.000066
C212	C	0.042049	0.440061	0.333399
C213	C	0.375382	0.773394	0.666732
C214	C	-0.328095	0.022586	0.000091
C215	C	0.005238	0.355920	0.333425
C216	C	0.338571	0.689253	0.666758
H217	H	-0.220152	0.094910	0.000147
H218	H	0.113181	0.428243	0.333481
H219	H	0.446515	0.761577	0.666814
H220	H	-0.313177	0.143788	-0.063761
H221	H	0.020156	0.477121	0.269572
H222	H	0.353489	0.810455	0.602905
H223	H	-0.313283	0.143781	0.063865
H224	H	0.020050	0.477114	0.397198
H225	H	0.353384	0.810448	0.730531
H226	H	-0.306114	-0.014535	-0.063665
H227	H	0.027220	0.318798	0.269669
H228	H	0.360553	0.652132	0.603002
H229	H	-0.306207	-0.014411	0.063960
H230	H	0.027126	0.318922	0.397294
H231	H	0.360460	0.652256	0.730627
