data_functionalizedCrystal
_audit_creation_method	'MofGen! by Chris Wilmer'
_symmetry_space_group_name_H-M	'P1'
_symmetry_Int_Tables_number	1
_symmetry_cell_setting	triclinic
loop_
_symmetry_equiv_pos_as_xyz
  x,y,z
_cell_length_a	17.038272
_cell_length_b	12.837942
_cell_length_c	11.892095
_cell_angle_alpha	94.302569
_cell_angle_beta	85.824810
_cell_angle_gamma	92.970248
loop_
_atom_site_label
_atom_site_type_symbol
_atom_site_fract_x
_atom_site_fract_y
_atom_site_fract_z
O1	O	1.058821	0.220377	-0.093859
O2	O	0.830924	0.216777	-0.093892
O3	O	0.939819	0.067229	-0.093869
O4	O	0.949926	0.369925	-0.093881
O5	O	0.930738	0.079678	0.094137
O6	O	0.821843	0.229226	0.094114
O7	O	1.049740	0.232826	0.094147
Zn8	Zn	0.934350	0.233002	0.123980
Zn9	Zn	0.946314	0.216601	-0.123725
O10	O	0.940845	0.382374	0.094124
C11	C	0.931864	0.034532	0.000133
C12	C	0.921681	-0.081444	0.000129
C13	C	0.797011	0.219729	0.000107
C14	C	0.709489	0.209964	0.000094
C15	C	1.044099	-0.311607	0.000124
C16	C	1.034535	-0.420576	0.000120
C17	C	0.892991	-0.408355	0.000111
C18	C	0.902555	-0.299385	0.000115
C19	C	0.978111	-0.251015	0.000123
C20	C	0.987674	-0.142043	0.000134
C21	C	0.846131	-0.129824	0.000117
C22	C	0.836567	-0.238794	0.000114
C23	C	0.666071	0.299604	0.000091
C24	C	0.583834	0.290425	0.000107
C25	C	0.545017	0.191605	0.000118
C26	C	0.588440	0.101959	0.000124
C27	C	0.670676	0.111139	0.000116
C28	C	0.296834	0.159172	0.000150
C29	C	0.214594	0.149998	0.000154
C30	C	0.209992	0.338466	0.000139
C31	C	0.292230	0.347637	0.000125
C32	C	0.335646	0.257991	0.000137
C33	C	0.460957	0.182220	0.000131
C34	C	0.419703	0.267378	0.000132
C35	C	1.083654	0.229874	0.000146
C36	C	1.171176	0.239638	0.000151
C37	C	0.948800	0.415071	0.000120
C38	C	0.958983	0.531046	0.000116
N39	N	0.926190	0.244196	0.293033
N40	N	0.954480	0.205400	-0.292777
C41	C	1.011255	0.127451	0.529698
C42	C	1.005558	0.135283	0.648039
C43	C	0.909094	0.267686	0.648057
C44	C	0.914791	0.259854	0.529716
C45	C	0.965875	0.189735	0.470541
C46	C	0.971576	0.181909	0.352198
C47	C	0.875108	0.314306	0.352218
C48	C	0.869411	0.322138	0.470559
H49	H	1.049195	-0.102662	0.000144
F50	F	0.815045	0.396757	0.533547
F51	F	0.826813	0.380601	0.289247
H52	H	0.451312	0.347837	0.000130
F53	F	1.053857	0.068990	0.710995
F54	F	0.812586	-0.459853	0.000075
H55	H	0.332174	0.086176	0.000160
H56	H	0.775051	-0.278192	0.000103
H57	H	0.792398	-0.080478	0.000125
H58	H	1.013172	0.124818	0.304019
F59	F	0.707376	0.404782	0.000072
H60	H	0.548486	0.363420	0.000104
F61	F	1.124509	-0.260123	0.000156
F62	F	1.104768	-0.485059	0.000118
F63	F	0.547126	-0.003214	0.000143
F64	F	0.716884	0.015732	0.000123
F65	F	0.419638	0.077050	0.000138
H66	H	0.323829	0.428106	0.000103
F67	F	0.163780	0.433867	0.000129
F68	F	0.173282	0.044817	0.000185
H69	H	1.052855	0.070365	0.481517
F70	F	0.854723	0.342297	0.711048
