data_functionalizedCrystal
_audit_creation_method	'MofGen! by Chris Wilmer'
_symmetry_space_group_name_H-M	'P1'
_symmetry_Int_Tables_number	1
_symmetry_cell_setting	triclinic
loop_
_symmetry_equiv_pos_as_xyz
  x,y,z
_cell_length_a	17.699083
_cell_length_b	17.699083
_cell_length_c	16.176319
_cell_angle_alpha	89.996995
_cell_angle_beta	90.000050
_cell_angle_gamma	96.716986
loop_
_atom_site_label
_atom_site_type_symbol
_atom_site_fract_x
_atom_site_fract_y
_atom_site_fract_z
O1	O	-1.004078	0.095710	0.068619
O2	O	-0.783699	0.108162	0.068644
O3	O	-0.900115	-0.008253	0.068639
O4	O	-0.887662	0.212125	0.068624
O5	O	-0.900101	-0.008254	-0.068854
O6	O	-0.783686	0.108162	-0.068849
O7	O	-1.004064	0.095709	-0.068874
Cu8	Cu	-0.893874	0.101935	-0.081416
Cu9	Cu	-0.893890	0.101936	0.081186
O10	O	-0.887649	0.212125	-0.068869
C11	C	-0.755495	0.107716	-0.000099
C12	C	-0.671477	0.106377	-0.000088
C13	C	-0.899662	-0.036451	-0.000104
C14	C	-0.898323	-0.120469	-0.000092
C15	C	-1.032268	0.096156	-0.000129
C16	C	-1.116286	0.097494	-0.000134
C17	C	-0.888102	0.240322	-0.000124
C18	C	-0.889440	0.324340	-0.000131
C19	C	-0.622856	0.174710	-0.000093
C20	C	-0.543913	0.173448	-0.000104
C21	C	-0.513592	0.103852	-0.000104
C22	C	-0.562219	0.035513	-0.000101
C23	C	-0.641161	0.036776	-0.000097
C24	C	-0.243856	0.030418	-0.000121
C25	C	-0.164908	0.029160	-0.000124
C26	C	-0.146608	0.167090	-0.000129
C27	C	-0.225550	0.168353	-0.000124
C28	C	-0.274170	0.100015	-0.000126
C29	C	-0.359769	0.101384	-0.000116
C30	C	-0.427995	0.102481	-0.000108
N31	N	-0.893868	0.101935	-0.195781
C32	C	-0.821107	0.372961	-0.000123
C33	C	-0.822369	0.451904	-0.000113
C34	C	-0.891965	0.482225	-0.000117
C35	C	-0.960304	0.433598	-0.000123
C36	C	-0.959041	0.354656	-0.000126
C37	C	-0.965399	0.751961	-0.000107
C38	C	-0.966657	0.830909	-0.000106
C39	C	-0.828727	0.849209	-0.000094
C40	C	-0.827464	0.770267	-0.000097
C41	C	-0.895803	0.721647	-0.000098
C42	C	-0.894433	0.636048	-0.000107
C43	C	-0.893336	0.567823	-0.000115
C44	C	-0.939683	0.147783	-0.239050
C45	C	-0.939691	0.147781	-0.325598
C46	C	-0.893879	0.101933	-0.368874
C47	C	-0.848063	0.056079	-0.325598
C48	C	-0.848059	0.056078	-0.239053
C49	C	-0.848077	0.056080	-0.674626
C50	C	-0.848082	0.056085	-0.761178
C51	C	-0.939708	0.147782	-0.761171
C52	C	-0.939705	0.147781	-0.674626
C53	C	-0.893891	0.101925	-0.631358
C54	C	-0.893884	0.101927	-0.537514
C55	C	-0.893882	0.101933	-0.462716
N56	N	-0.893902	0.101931	0.195551
H57	H	-0.504328	0.229092	-0.000107
N58	N	-0.798645	0.006627	-0.192379
H59	H	-0.831669	-0.030460	-0.156473
H60	H	-0.769631	-0.022367	-0.232978
N61	N	-0.746043	0.340257	-0.000114
H62	H	-0.742439	0.307918	-0.051085
H63	H	-0.702989	0.383079	-0.000074
H64	H	-0.977006	0.185118	-0.639395
N65	N	-0.989125	0.197242	-0.807839
H66	H	-0.982181	0.190286	-0.869232
H67	H	-1.044196	0.182223	-0.792704
H68	H	-0.766725	0.491489	-0.000104
H69	H	-0.537526	-0.021154	-0.000113
H70	H	-0.680748	-0.018868	-0.000092
H71	H	-0.770792	0.745585	-0.000098
N72	N	-0.989092	0.197233	-0.192373
H73	H	-0.974062	0.252321	-0.207438
H74	H	-1.044169	0.182168	-0.207448
H75	H	-0.810775	0.018748	-0.796411
N76	N	-0.094168	0.240801	-0.000129
H77	H	-0.039557	0.229445	-0.000135
H78	H	-0.103975	0.271141	-0.051097
N79	N	-1.041728	0.863609	-0.000106
H80	H	-1.045325	0.895954	0.050861
H81	H	-1.045276	0.895918	-0.051111
N82	N	-0.755016	0.901650	-0.000101
H83	H	-0.766373	0.956260	-0.000101
H84	H	-0.724674	0.891845	0.050865
H85	H	-0.647537	0.231384	-0.000093
N86	N	-0.258253	0.243417	-0.000113
H87	H	-0.215472	0.286516	-0.000117
H88	H	-0.290613	0.246947	-0.051080
H89	H	-1.021045	0.712383	-0.000113
N90	N	-0.132203	-0.045908	-0.000124
H91	H	-0.174981	-0.089009	-0.000127
H92	H	-0.099847	-0.049428	-0.051095
N93	N	-0.798666	0.006622	-0.627965
H94	H	-0.769645	-0.022418	-0.668515
H95	H	-0.761604	0.039665	-0.592057
N96	N	-0.296291	-0.043286	-0.000129
H97	H	-0.265101	-0.087564	-0.000128
H98	H	-0.329445	-0.045773	0.050840
H99	H	-1.016971	0.458291	-0.000128
N100	N	-1.032743	0.302211	-0.000131
H101	H	-1.077024	0.333396	-0.000134
H102	H	-1.035220	0.269062	-0.051102
H103	H	-0.976999	0.185114	-0.360824
H104	H	-0.810766	0.018745	-0.360840
