data_functionalizedCrystal
_audit_creation_method	'MofGen! by Chris Wilmer'
_symmetry_space_group_name_H-M	'P1'
_symmetry_Int_Tables_number	1
_symmetry_cell_setting	triclinic
loop_
_symmetry_equiv_pos_as_xyz
  x,y,z
_cell_length_a	15.944545
_cell_length_b	23.532407
_cell_length_c	15.021413
_cell_angle_alpha	90.000652
_cell_angle_beta	90.004532
_cell_angle_gamma	83.172425
loop_
_atom_site_label
_atom_site_type_symbol
_atom_site_fract_x
_atom_site_fract_y
_atom_site_fract_z
O1	O	1.113913	0.073425	0.073984
O2	O	0.869287	0.082485	0.073999
O3	O	0.998977	-0.004948	0.073975
O4	O	0.984223	0.160858	0.074008
O5	O	0.998956	-0.004936	-0.074089
O6	O	0.869266	0.082497	-0.074065
O7	O	1.113893	0.073438	-0.074080
Zn8	Zn	0.991576	0.077969	-0.097581
Zn9	Zn	0.991603	0.077953	0.097500
O10	O	0.984203	0.160871	-0.074056
C11	C	0.837986	0.082115	-0.000031
C12	C	0.744749	0.080990	-0.000026
C13	C	0.474601	0.023431	-0.000047
C14	C	0.524939	0.051187	-0.073047
C15	C	0.409139	0.076975	-0.000042
C16	C	0.524939	0.051190	0.072933
C17	C	0.574036	0.078945	-0.000032
C18	C	0.458248	0.104717	-0.073102
C19	C	0.458246	0.104712	0.072943
C20	C	0.508550	0.132507	-0.000075
C21	C	0.314146	0.075839	-0.000048
C22	C	0.669025	0.080085	-0.000033
C23	C	0.998591	-0.026160	-0.000060
C24	C	0.997461	-0.089381	-0.000066
C25	C	1.067124	-0.488215	-0.000022
C26	C	1.066075	-0.547620	-0.000015
O27	O	1.130653	-0.584115	0.000014
N28	N	0.988974	-0.570543	-0.000011
C29	C	0.912918	-0.534059	-0.000004
O30	O	0.847241	-0.559012	0.000001
C31	C	0.913968	-0.474656	-0.000005
C32	C	0.991074	-0.451736	-0.000018
C33	C	1.144224	-0.465295	-0.000034
C34	C	1.145273	-0.405894	-0.000043
C35	C	1.069222	-0.369415	-0.000039
C36	C	0.992123	-0.392336	-0.000027
C37	C	0.837913	-0.438173	0.000008
C38	C	0.838970	-0.378766	0.000008
C39	C	0.916075	-0.355846	-0.000005
C40	C	0.917121	-0.296456	-0.000031
N41	N	0.994222	-0.273532	-0.000036
C42	C	1.070272	-0.310012	-0.000039
C43	C	0.910718	-0.658810	-0.000002
C44	C	0.909667	-0.718212	-0.000008
C45	C	1.062825	-0.731768	-0.000017
C46	C	1.063875	-0.672365	-0.000017
C47	C	0.987819	-0.635886	-0.000006
C48	C	1.072470	-0.185267	-0.000058
C49	C	1.073512	-0.125860	-0.000070
C50	C	0.920355	-0.112309	-0.000056
C51	C	0.919312	-0.171710	-0.000049
C52	C	0.995376	-0.208188	-0.000047
O53	O	0.852577	-0.259926	-0.000056
O54	O	1.135938	-0.285050	-0.000033
C55	C	1.145194	0.073807	-0.000048
C56	C	1.238431	0.074933	-0.000048
C57	C	0.984589	0.182082	-0.000020
C58	C	0.985718	0.245303	-0.000007
N59	N	0.991564	0.077980	-0.230719
C60	C	0.931586	0.118390	-0.470391
C61	C	1.007393	0.129445	-0.529727
C62	C	0.991585	0.077966	-0.412326
C63	C	0.915798	0.066924	-0.529731
C64	C	0.991599	0.077954	-0.587750
C65	C	1.067431	0.089047	-0.470356
C66	C	0.975786	0.026503	-0.470354
C67	C	1.051648	0.037536	-0.529664
C68	C	0.991576	0.077975	-0.311268
C69	C	0.991617	0.077944	-0.688805
N70	N	0.991622	0.077938	0.230638
H71	H	0.429240	0.127319	-0.134884
N72	N	0.454348	-0.037642	-0.000146
H73	H	0.479669	-0.058085	0.054421
H74	H	0.478735	-0.057754	-0.055385
N75	N	0.563516	0.021253	-0.154810
H76	H	0.538309	0.041066	-0.209939
H77	H	0.551472	-0.019923	-0.154695
N78	N	0.836148	-0.196431	-0.000041
H79	H	0.832307	-0.220770	0.054853
H80	H	0.832339	-0.220752	-0.054958
N81	N	0.419656	0.134635	0.154703
H82	H	0.444040	0.114360	0.209818
H83	H	0.356444	0.133974	0.153698
H84	H	1.020769	0.172961	-0.555806
H85	H	0.523653	0.178656	-0.000108
H86	H	0.554056	0.028562	0.134645
N87	N	1.156679	-0.101140	-0.000090
H88	H	1.204695	-0.133267	-0.000088
H89	H	1.160461	-0.076785	0.054795
H90	H	1.102449	0.003343	-0.555526
H91	H	0.880897	0.152603	-0.444365
N92	N	1.226257	-0.504635	-0.000039
H93	H	1.275250	-0.481092	-0.000048
H94	H	1.229151	-0.529575	-0.054932
N95	N	1.154508	-0.224605	-0.000056
H96	H	1.203503	-0.201063	-0.000067
H97	H	1.157403	-0.249549	-0.054943
H98	H	0.848781	-0.629111	-0.000000
N99	N	1.144852	-0.771122	-0.000009
H100	H	1.193860	-0.747592	-0.000014
H101	H	1.147742	-0.796066	-0.054896
H102	H	1.208060	-0.387239	-0.000050
H103	H	0.851701	0.057590	-0.555814
H104	H	1.126661	-0.653708	-0.000027
H105	H	0.846880	-0.736868	-0.000012
N106	N	1.152357	0.101477	-0.435965
H107	H	1.151820	0.101422	-0.368730
H108	H	1.164387	0.140205	-0.458151
N109	N	0.754742	-0.462876	0.000016
H110	H	0.721461	-0.449567	0.054908
H111	H	0.765664	-0.506040	-0.000018
N112	N	0.756936	-0.339421	0.000025
H113	H	0.707937	-0.362959	0.000034
H114	H	0.754021	-0.314481	-0.054867
N115	N	0.838332	-0.072958	-0.000076
H116	H	0.850703	-0.031850	-0.000086
H117	H	0.804706	-0.080371	0.054812
H118	H	0.962386	-0.016999	-0.444254
