data_functionalizedCrystal
_audit_creation_method	'MofGen! by Chris Wilmer'
_symmetry_space_group_name_H-M	'P1'
_symmetry_Int_Tables_number	1
_symmetry_cell_setting	triclinic
loop_
_symmetry_equiv_pos_as_xyz
  x,y,z
_cell_length_a	22.010155
_cell_length_b	14.044220
_cell_length_c	14.044220
_cell_angle_alpha	93.188878
_cell_angle_beta	90.003727
_cell_angle_gamma	89.995721
loop_
_atom_site_label
_atom_site_type_symbol
_atom_site_fract_x
_atom_site_fract_y
_atom_site_fract_z
O1	O	0.050463	-1.277174	-0.230155
O2	O	0.050478	-1.000502	-0.221849
O3	O	0.050465	-1.134685	-0.087666
O4	O	0.050476	-1.142991	-0.364338
O5	O	-0.050586	-1.134660	-0.087686
O6	O	-0.050572	-1.000478	-0.221869
O7	O	-0.050587	-1.277149	-0.230175
Cu8	Cu	-0.059806	-1.138811	-0.226024
Cu9	Cu	0.059697	-1.138840	-0.226000
O10	O	-0.050574	-1.142966	-0.364357
C11	C	-0.000045	-0.964868	-0.218223
C12	C	-0.000039	-0.858725	-0.207379
N13	N	-0.143859	-1.138797	-0.226040
C14	C	-0.000060	-1.131037	-0.052054
C15	C	-0.000061	-1.120193	0.054088
C16	C	-0.563644	-1.198261	-0.166594
C17	C	-0.627252	-1.198265	-0.166587
O18	O	-0.660148	-1.248786	-0.116053
N19	N	-0.659066	-1.138838	-0.225980
C20	C	-0.627269	-1.079396	-0.285376
O21	O	-0.660170	-1.028849	-0.335893
C22	C	-0.563663	-1.079388	-0.285377
C23	C	-0.531852	-1.138826	-0.225987
C24	C	-0.531833	-1.257693	-0.107208
C25	C	-0.468230	-1.257691	-0.107216
C26	C	-0.436438	-1.198256	-0.166609
C27	C	-0.468249	-1.138823	-0.225995
C28	C	-0.531867	-1.019942	-0.344767
C29	C	-0.468257	-1.019939	-0.344762
C30	C	-0.436446	-1.079377	-0.285372
C31	C	-0.372853	-1.079385	-0.285396
N32	N	-0.341039	-1.138812	-0.226003
C33	C	-0.372831	-1.198247	-0.166609
C34	C	-0.760847	-1.079417	-0.285369
C35	C	-0.824452	-1.079429	-0.285374
C36	C	-0.824431	-1.198297	-0.166584
C37	C	-0.760824	-1.198289	-0.166585
C38	C	-0.729033	-1.138844	-0.225976
C39	C	-0.239260	-1.198238	-0.166631
C40	C	-0.175651	-1.198232	-0.166647
C41	C	-0.175679	-1.079362	-0.285433
C42	C	-0.239282	-1.079370	-0.285421
C43	C	-0.271071	-1.138811	-0.226012
O44	O	-0.339916	-1.028888	-0.335901
O45	O	-0.339923	-1.248777	-0.116092
N46	N	0.143750	-1.138861	-0.225977
C47	C	-0.000063	-1.312783	-0.233800
C48	C	-0.000064	-1.418926	-0.244645
C49	C	-0.000052	-0.664388	-0.187553
C50	C	-0.000052	-0.613258	-0.264467
C51	C	-0.000059	-0.505122	-0.253435
C52	C	-0.000045	-0.772534	-0.198583
C53	C	-0.000047	-1.146614	-0.399969
C54	C	-0.000043	-1.157459	-0.506112
C55	C	-0.000051	-1.100366	0.248426
C56	C	-0.000053	-1.177281	0.299556
C57	C	-0.000048	-1.166249	0.407692
C58	C	-0.000056	-1.111397	0.140280
H59	H	-0.149753	-1.246637	-0.118285
H60	H	-0.000045	-1.026239	0.285863
H61	H	-0.265136	-1.246639	-0.118254
H62	H	-0.442333	-1.306087	-0.058853
H63	H	-0.000016	-1.251414	0.262117
F64	F	-0.000058	-0.615455	-0.090661
F65	F	-0.273136	-1.016120	-0.348642
H66	H	-0.557759	-0.971542	-0.393126
F67	F	-0.726974	-1.261549	-0.103373
F68	F	-0.565660	-1.320956	-0.043987
F69	F	-0.858278	-1.261551	-0.103371
F70	F	-0.858302	-1.016181	-0.348597
H71	H	-0.734966	-1.031013	-0.333741
F72	F	-0.434426	-0.956665	-0.407974
H73	H	-0.149783	-1.030973	-0.333793
F74	F	-0.000045	-0.662191	-0.361366
