data_functionalizedCrystal
_audit_creation_method	'MofGen! by Chris Wilmer'
_symmetry_space_group_name_H-M	'P1'
_symmetry_Int_Tables_number	1
_symmetry_cell_setting	triclinic
loop_
_symmetry_equiv_pos_as_xyz
  x,y,z
_cell_length_a	29.839134
_cell_length_b	16.120507
_cell_length_c	16.120297
_cell_angle_alpha	84.388175
_cell_angle_beta	92.868807
_cell_angle_gamma	87.070741
loop_
_atom_site_label
_atom_site_type_symbol
_atom_site_fract_x
_atom_site_fract_y
_atom_site_fract_z
Zn1	Zn	0.663643	0.356870	-0.489657
Zn2	Zn	1.163643	0.856870	0.010343
Zn3	Zn	0.663576	0.489560	-0.356963
Zn4	Zn	1.163576	0.989560	0.143037
Zn5	Zn	0.592530	0.349793	-0.349881
Zn6	Zn	1.092530	0.849793	0.150119
Zn7	Zn	0.584475	0.496587	-0.496659
Zn8	Zn	1.084475	0.996587	0.003341
O9	O	0.626056	0.423203	-0.423290
O10	O	1.126056	0.923203	0.076710
O11	O	0.726500	0.374493	-0.472089
O12	O	1.226500	0.874493	0.027911
O13	O	0.657495	0.465117	-0.239063
O14	O	1.157495	0.965117	0.260937
O15	O	0.605362	0.233767	-0.362528
O16	O	1.105362	0.733767	0.137472
O17	O	0.726451	0.471980	-0.374599
O18	O	1.226451	0.971980	0.125401
O19	O	0.657609	0.238967	-0.465221
O20	O	1.157609	0.738967	0.034779
O21	O	0.605297	0.362431	-0.233859
O22	O	1.105297	0.862431	0.266141
O23	O	0.528595	0.369245	-0.369317
O24	O	1.028595	0.869245	0.130683
O25	O	0.591634	0.483956	-0.612691
O26	O	1.091634	0.983956	-0.112691
O27	O	0.522678	0.477093	-0.477155
O28	O	1.022678	0.977093	0.022845
O29	O	0.649798	0.381306	-0.607547
O30	O	1.149798	0.881306	-0.107547
O31	O	0.649684	0.607457	-0.381388
O32	O	1.149684	1.107457	0.118612
O33	O	0.591569	0.612620	-0.484023
O34	O	1.091569	1.112620	0.015977
C35	C	0.509336	0.423164	-0.423228
C36	C	1.009336	0.923164	0.076772
C37	C	0.459402	0.423169	-0.423222
C38	C	0.959402	0.923169	0.076778
C39	C	0.146683	0.479435	-0.479380
C40	C	0.646683	0.979435	0.020620
C41	C	-0.040992	0.479461	-0.479418
C42	C	0.459008	0.979461	0.020582
O43	O	-0.067869	0.527259	-0.527127
O44	O	0.432131	1.027259	-0.027127
N45	N	-0.061389	0.423236	-0.423355
N46	N	0.438611	0.923236	0.076645
C47	C	-0.034864	0.366998	-0.367281
C48	C	0.465136	0.866998	0.132719
O49	O	-0.056520	0.319171	-0.319602
O50	O	0.443480	0.819171	0.180398
C51	C	0.152810	0.366970	-0.367247
C52	C	0.652810	0.866970	0.132753
C53	C	0.173204	0.423203	-0.423309
C54	C	0.673204	0.923203	0.076691
C55	C	0.167078	0.535663	-0.535437
C56	C	0.667078	1.035663	-0.035437
C57	C	0.213994	0.535660	-0.535424
C58	C	0.713994	1.035660	-0.035424
C59	C	0.240515	0.479427	-0.479353
C60	C	0.740515	0.979427	0.020647
C61	C	0.220120	0.423199	-0.423296
C62	C	0.720120	0.923199	0.076704
C63	C	0.179333	0.310728	-0.311179
C64	C	0.679333	0.810728	0.188821
C65	C	0.226255	0.310724	-0.311177
C66	C	0.726255	0.810724	0.188823
C67	C	0.246649	0.366958	-0.367238
C68	C	0.746649	0.866958	0.132762
C69	C	0.293557	0.366963	-0.367212
C70	C	0.793557	0.866963	0.132788
N71	N	0.313954	0.423187	-0.423275
N72	N	0.813954	0.923187	0.076725
C73	C	0.287433	0.479419	-0.479346
C74	C	0.787433	0.979419	0.020654
C75	C	-0.133396	0.367018	-0.367302
C76	C	0.366604	0.867018	0.132698
C77	C	-0.180314	0.367027	-0.367309
C78	C	0.319686	0.867027	0.132691
C79	C	-0.186438	0.479488	-0.479447
C80	C	0.313562	0.979488	0.020553
C81	C	-0.139519	0.479483	-0.479435
C82	C	0.360481	0.979483	0.020565
C83	C	-0.112999	0.423243	-0.423365
C84	C	0.387001	0.923243	0.076635
C85	C	0.385960	0.479407	-0.479314
C86	C	0.885960	0.979407	0.020686
C87	C	0.432881	0.479401	-0.479293
C88	C	0.932881	0.979401	0.020707
C89	C	0.439001	0.366937	-0.367158
C90	C	0.939001	0.866937	0.132842
C91	C	0.392085	0.366946	-0.367175
C92	C	0.892085	0.866946	0.132825
C93	C	0.365565	0.423184	-0.423260
C94	C	0.865565	0.923184	0.076740
O95	O	0.320462	0.319183	-0.319534
O96	O	0.820462	0.819183	0.180466
O97	O	0.309097	0.527227	-0.527030
O98	O	0.809097	1.027227	-0.027030
C99	C	0.099767	0.479439	-0.479393
C100	C	0.599767	0.979439	0.020607
C101	C	0.079372	0.423211	-0.423335
C102	C	0.579372	0.923211	0.076665
C103	C	0.105893	0.366979	-0.367265
C104	C	0.605893	0.866979	0.132735
C105	C	0.032454	0.423219	-0.423343
C106	C	0.532454	0.923219	0.076657
C107	C	0.005933	0.479451	-0.479413
C108	C	0.505933	0.979451	0.020587
C109	C	0.026330	0.535675	-0.535477
C110	C	0.526330	1.035675	-0.035477
C111	C	0.073246	0.535671	-0.535464
C112	C	0.573246	1.035671	-0.035464
C113	C	0.085496	0.310754	-0.311201
C114	C	0.585496	0.810754	0.188799
C115	C	0.038580	0.310764	-0.311218
C116	C	0.538580	0.810764	0.188782
C117	C	0.012059	0.366996	-0.367289
C118	C	0.512059	0.866996	0.132711
C119	C	0.619757	0.640367	-0.434252
C120	C	1.119757	1.140367	0.065748
C121	C	0.617102	0.733272	-0.438969
C122	C	1.117102	1.233272	0.061031
C123	C	0.639864	0.942186	-0.398947
C124	C	1.139864	1.442186	0.101053
C125	C	0.612264	0.903366	-0.447591
C126	C	1.112264	1.403366	0.052409
C127	C	0.614957	0.808717	-0.442793
C128	C	1.114957	1.308717	0.057207
C129	C	0.637171	1.036843	-0.403744
C130	C	1.137171	1.536843	0.096256
C131	C	0.743232	0.423242	-0.423353
C132	C	1.243232	0.923242	0.076647
C133	C	0.793165	0.423259	-0.423380
C134	C	1.293165	0.923259	0.076620
C135	C	0.619825	0.434204	-0.641293
C136	C	1.119825	0.934204	-0.141293
C137	C	0.617170	0.438893	-0.734194
C138	C	1.117170	0.938893	-0.234194
C139	C	0.632374	1.205191	-0.412291
C140	C	1.132374	1.705191	0.087709
C141	C	0.635024	1.112285	-0.407571
C142	C	1.135024	1.612285	0.092429
C143	C	0.612306	0.447433	-0.904282
C144	C	1.112306	0.947433	-0.404282
C145	C	0.639902	0.398721	-0.943138
C146	C	1.139902	0.898721	-0.443138
C147	C	0.637196	0.403474	-1.037780
C148	C	1.137196	0.903474	-0.537780
C149	C	0.615011	0.442682	-0.809630
C150	C	1.115011	0.942682	-0.309630
C151	C	0.632290	0.412183	-0.206132
C152	C	1.132290	0.912183	0.293868
C153	C	0.635039	0.407260	-0.113220
C154	C	1.135039	0.907260	0.386780
H155	H	0.449483	0.525196	-0.524946
H156	H	0.949483	1.025196	-0.024946
Cl157	Cl	0.012947	0.240064	-0.240731
Cl158	Cl	0.512947	0.740064	0.259269
H159	H	0.665560	0.353448	-0.905324
H160	H	1.165560	0.853448	-0.405324
Cl161	Cl	0.572696	0.517331	-0.962660
Cl162	Cl	1.072696	1.017331	-0.462660
H163	H	-0.111807	0.321219	-0.321639
H164	H	0.388193	0.821219	0.178361
H165	H	0.364374	0.525200	-0.524985
H166	H	0.864374	1.025200	-0.024985
Cl167	Cl	0.572658	0.961798	-0.517451
Cl168	Cl	1.072658	1.461798	-0.017451
H169	H	0.230595	0.581449	-0.581077
H170	H	0.730595	1.081449	-0.081077
H171	H	0.145489	0.581455	-0.581101
H172	H	0.645489	1.081455	-0.081101
H173	H	-0.122917	0.525272	-0.525087
H174	H	0.377083	1.025272	-0.025087
Cl175	Cl	-0.219788	0.550174	-0.549941
Cl176	Cl	0.280212	1.050174	-0.049941
H177	H	0.665513	0.904341	-0.353699
H178	H	1.165513	1.404341	0.146301
Cl179	Cl	0.259592	0.240017	-0.240685
Cl180	Cl	0.759592	0.740017	0.259315
Cl181	Cl	-0.205947	0.296340	-0.296818
Cl182	Cl	0.294053	0.796340	0.203182
H183	H	0.375479	0.321158	-0.321524
H184	H	0.875479	0.821158	0.178476
Cl185	Cl	0.153706	0.240024	-0.240702
Cl186	Cl	0.653706	0.740024	0.259298
Cl187	Cl	-0.007019	0.606369	-0.605962
Cl188	Cl	0.492981	1.106369	-0.105962
Cl189	Cl	0.118830	0.240054	-0.240706
Cl190	Cl	0.618830	0.740054	0.259294
Cl191	Cl	0.098878	0.606368	-0.605946
Cl192	Cl	0.598878	1.106368	-0.105946
Cl193	Cl	0.472350	0.296248	-0.296674
Cl194	Cl	0.972350	0.796248	0.203326
