data_functionalizedCrystal
_audit_creation_method	'MofGen! by Chris Wilmer'
_symmetry_space_group_name_H-M	'P1'
_symmetry_Int_Tables_number	1
_symmetry_cell_setting	triclinic
loop_
_symmetry_equiv_pos_as_xyz
  x,y,z
_cell_length_a	17.019372
_cell_length_b	17.038272
_cell_length_c	16.053802
_cell_angle_alpha	92.751609
_cell_angle_beta	91.293552
_cell_angle_gamma	87.242864
loop_
_atom_site_label
_atom_site_type_symbol
_atom_site_fract_x
_atom_site_fract_y
_atom_site_fract_z
O1	O	1.053070	0.099868	0.006217
O2	O	0.824994	0.111797	-0.010169
O3	O	0.937676	-0.007986	-0.002067
O4	O	0.940388	0.219651	-0.001885
O5	O	0.931472	-0.001420	0.136346
O6	O	0.818790	0.118363	0.128244
O7	O	1.046866	0.106434	0.144629
Zn8	Zn	0.931843	0.113441	0.158413
Zn9	Zn	0.940017	0.104790	-0.023952
O10	O	0.934184	0.226217	0.136528
C11	C	0.792565	0.114500	0.056931
C12	C	0.705180	0.112760	0.050653
C13	C	0.211122	0.102710	0.011306
C14	C	0.293229	0.104346	0.017216
C15	C	0.330892	0.108748	0.095621
C16	C	0.286445	0.111508	0.168120
C17	C	0.204339	0.109867	0.162210
C18	C	0.578627	0.113878	0.117242
C19	C	0.660738	0.115521	0.123147
C20	C	0.667517	0.108357	-0.027758
C21	C	0.585410	0.106721	-0.033661
C22	C	0.540970	0.109477	0.038838
C23	C	0.414819	0.110423	0.101663
C24	C	0.457045	0.107797	0.032794
C25	C	0.932108	-0.033837	0.066962
C26	C	0.924752	-0.120649	0.066434
C27	C	0.992294	-0.170592	0.071287
C28	C	0.985377	-0.252161	0.070782
C29	C	0.910918	-0.283783	0.065430
C30	C	0.843371	-0.233833	0.060574
C31	C	0.850288	-0.152267	0.061073
C32	C	0.886479	-0.529604	0.063663
C33	C	0.879566	-0.611176	0.063167
C34	C	1.021574	-0.629498	0.073373
C35	C	1.028485	-0.547929	0.073877
C36	C	0.960938	-0.497986	0.069016
C37	C	0.903846	-0.367159	0.064916
C38	C	0.968011	-0.414613	0.069524
C39	C	1.079295	0.103732	0.077528
C40	C	1.166680	0.105472	0.083800
C41	C	0.939752	0.252069	0.067496
C42	C	0.947108	0.338880	0.068020
N43	N	0.926270	0.119345	0.282872
N44	N	0.945596	0.098881	-0.148411
C45	C	0.974236	0.068395	0.330015
C46	C	0.970346	0.072532	0.417142
C47	C	0.918492	0.127623	0.457125
C48	C	0.870521	0.178575	0.409976
C49	C	0.874408	0.174434	0.322850
C50	C	0.901511	0.145691	0.717314
C51	C	0.897629	0.149830	0.804446
C52	C	0.997454	0.043786	0.811606
C53	C	1.001340	0.039653	0.724479
C54	C	0.953365	0.090602	0.677337
N55	N	0.914516	0.131855	0.546183
N56	N	0.957338	0.086366	0.588280
H57	H	0.445493	0.114009	0.165501
H58	H	0.795288	-0.111603	0.057120
O59	O	0.771088	-0.264648	0.055266
C60	C	0.766046	-0.314664	-0.017022
H61	H	0.827728	-0.335971	-0.036566
H62	H	0.735923	-0.281086	-0.069545
C63	C	0.642148	-0.359704	0.025370
C64	C	0.717906	-0.385879	0.001370
H65	H	0.612450	-0.403631	0.036713
H66	H	0.645543	-0.326005	0.074071
H67	H	0.617055	-0.331722	-0.018403
H68	H	0.743001	-0.413851	0.045147
H69	H	0.714514	-0.419584	-0.047323
O70	O	1.051052	-0.300598	0.075394
C71	C	1.099145	-0.289645	0.006928
H72	H	1.085046	-0.228949	-0.018060
H73	H	1.087668	-0.336660	-0.044259
C74	C	1.203545	-0.370707	0.065729
C75	C	1.186233	-0.296157	0.035043
H76	H	1.257266	-0.374727	0.083069
H77	H	1.171143	-0.378090	0.111854
H78	H	1.193976	-0.409878	0.023068
H79	H	1.195794	-0.256989	0.077707
H80	H	1.218639	-0.288768	-0.011075
H81	H	1.028636	-0.388863	0.073863
O82	O	0.831565	-0.397978	0.059617
C83	C	0.826525	-0.447991	-0.012673
H84	H	0.888208	-0.469288	-0.032224
H85	H	0.796393	-0.414415	-0.065192
C86	C	0.702637	-0.493052	0.029726
C87	C	0.778398	-0.519215	0.005718
H88	H	0.672948	-0.536985	0.041068
H89	H	0.706031	-0.459355	0.078428
H90	H	0.677538	-0.465071	-0.014044
H91	H	0.803499	-0.547186	0.049492
H92	H	0.775007	-0.552918	-0.042976
H93	H	0.329411	0.102092	-0.041816
O94	O	1.087263	-0.677899	0.078127
C95	C	1.154466	-0.632498	0.082933
H96	H	1.137407	-0.570428	0.108001
H97	H	1.180006	-0.629783	0.018150
C98	C	1.237373	-0.746653	0.111044
C99	C	1.216421	-0.670420	0.141840
H100	H	1.275591	-0.770046	0.147377
H101	H	1.192098	-0.777242	0.107803
H102	H	1.258651	-0.744380	0.057058
H103	H	1.195134	-0.672694	0.195820
H104	H	1.261694	-0.639832	0.145091
O105	O	0.535581	0.116603	0.187748
C106	C	0.586434	0.120827	0.258213
H107	H	0.644352	0.145678	0.240183
H108	H	0.598184	0.059429	0.282343
C109	C	0.476735	0.144284	0.349092
C110	C	0.547869	0.174814	0.326948
H111	H	0.452946	0.177583	0.391493
H112	H	0.442474	0.141436	0.301619
H113	H	0.486537	0.093120	0.369195
H114	H	0.538066	0.225973	0.306836
H115	H	0.582128	0.177672	0.374420
O116	O	0.174493	0.098574	-0.064838
C117	C	0.122808	0.165061	-0.073089
H118	H	0.142563	0.214881	-0.028718
H119	H	0.060661	0.149484	-0.057225
C120	C	0.099349	0.130244	-0.217966
C121	C	0.123617	0.191435	-0.163473
H122	H	0.099845	0.146512	-0.273720
H123	H	0.134168	0.085448	-0.212407
H124	H	0.047562	0.117268	-0.204735
H125	H	0.175407	0.204403	-0.176697
H126	H	0.088806	0.236234	-0.169036
O127	O	1.024627	0.014810	0.291310
C128	C	1.066141	-0.029259	0.351608
H129	H	1.031075	-0.027281	0.411402
H130	H	1.125831	-0.003263	0.365174
C131	C	1.121294	-0.117618	0.244939
C132	C	1.078222	-0.115193	0.318376
H133	H	1.128750	-0.170626	0.224439
H134	H	1.093328	-0.087927	0.204314
H135	H	1.171032	-0.095950	0.256254
H136	H	1.028483	-0.136852	0.307058
H137	H	1.106181	-0.144891	0.358998
H138	H	0.831477	-0.488949	0.059705
H139	H	0.828296	0.223429	0.442535
O140	O	1.016831	0.022965	0.462961
C141	C	0.969262	-0.022998	0.510136
H142	H	0.908338	-0.025747	0.479439
H143	H	0.963833	0.004596	0.575988
C144	C	1.081760	-0.103392	0.551882
C145	C	1.006934	-0.106774	0.514175
H146	H	1.104998	-0.155068	0.554378
H147	H	1.113809	-0.072424	0.520103
H148	H	1.077225	-0.080394	0.606755
H149	H	1.011470	-0.129762	0.459300
H150	H	0.974886	-0.137747	0.545946
H151	H	0.317117	0.115088	0.231959
O152	O	0.161282	0.112591	0.232713
C153	C	0.212130	0.116810	0.303183
H154	H	0.270049	0.141666	0.285161
H155	H	0.223880	0.055409	0.327308
C156	C	0.102423	0.140255	0.394054
C157	C	0.173558	0.170790	0.371920
H158	H	0.078630	0.173549	0.436456
H159	H	0.068166	0.137410	0.346578
H160	H	0.112225	0.089089	0.414152
H161	H	0.163754	0.221951	0.351812
H162	H	0.207814	0.173644	0.419395
H163	H	0.426377	0.104209	-0.031042
H164	H	0.835347	0.215921	0.284467
H165	H	1.043563	-0.005207	0.691927
O166	O	0.807223	-0.641868	0.057811
C167	C	0.768930	-0.619751	-0.016852
H168	H	0.814625	-0.605058	-0.063828
H169	H	0.727938	-0.565929	-0.003544
C170	C	0.664626	-0.706188	0.004770
C171	C	0.720750	-0.688149	-0.052930
H172	H	0.634903	-0.748377	-0.017484
H173	H	0.690423	-0.721087	0.055073
H174	H	0.630474	-0.661331	0.015855
H175	H	0.754907	-0.733002	-0.064006
H176	H	0.694957	-0.673259	-0.103237
O177	O	1.043969	-0.005672	0.857523
C178	C	1.029436	0.009806	0.942998
H179	H	0.968351	0.039423	0.950559
H180	H	1.075458	0.050325	0.971090
C181	C	1.108936	-0.104405	0.978916
C182	C	1.033907	-0.068035	0.988204
H183	H	1.111698	-0.152420	1.006803
H184	H	1.118730	-0.114832	0.921331
H185	H	1.147280	-0.070631	1.002326
H186	H	0.995567	-0.101805	0.964785
H187	H	1.024107	-0.057616	1.045786
O188	O	0.854885	0.195267	0.671655
C189	C	0.808275	0.244766	0.725631
H190	H	0.837803	0.248691	0.790047
H191	H	0.747758	0.219650	0.730602
C192	C	0.762954	0.322643	0.611743
C193	C	0.799225	0.327468	0.690858
H194	H	0.757368	0.373657	0.590292
H195	H	0.794354	0.289293	0.575377
H196	H	0.712528	0.301710	0.615896
H197	H	0.849654	0.348392	0.686702
H198	H	0.767834	0.360824	0.727222
H199	H	0.554751	0.103135	-0.097507
H200	H	0.855402	0.194695	0.836995
H201	H	1.052926	-0.144852	0.075650
H202	H	0.703709	0.106113	-0.086782
H203	H	1.089117	-0.522188	0.078235
O204	O	0.697424	0.119690	0.199266
C205	C	0.749087	0.053186	0.207520
H206	H	0.765785	0.027767	0.143001
H207	H	0.718847	0.006939	0.242705
C208	C	0.803303	0.108569	0.335407
C209	C	0.823818	0.077353	0.256163
H210	H	0.849399	0.123474	0.365415
H211	H	0.768495	0.153373	0.329848
H212	H	0.778102	0.070025	0.364717
H213	H	0.849009	0.115900	0.226851
H214	H	0.858632	0.032556	0.261718
