data_functionalizedCrystal
_audit_creation_method	'MofGen! by Chris Wilmer'
_symmetry_space_group_name_H-M	'P1'
_symmetry_Int_Tables_number	1
_symmetry_cell_setting	triclinic
loop_
_symmetry_equiv_pos_as_xyz
  x,y,z
_cell_length_a	10.654554
_cell_length_b	14.044220
_cell_length_c	9.730223
_cell_angle_alpha	89.997406
_cell_angle_beta	89.999030
_cell_angle_gamma	88.837860
loop_
_atom_site_label
_atom_site_type_symbol
_atom_site_fract_x
_atom_site_fract_y
_atom_site_fract_z
O1	O	1.681221	0.133249	-0.114319
O2	O	1.317018	0.145938	-0.114317
O3	O	1.493653	0.001573	-0.114304
O4	O	1.504586	0.277614	-0.114331
O5	O	1.493651	0.001576	0.114276
O6	O	1.317016	0.145941	0.114263
O7	O	1.681219	0.133253	0.114261
Zn8	Zn	1.499117	0.139598	0.150554
Zn9	Zn	1.499120	0.139593	-0.150610
O10	O	1.504584	0.277618	0.114248
C11	C	1.270126	0.145007	-0.000026
C12	C	1.130402	0.142217	-0.000025
C13	C	0.938771	0.051970	-0.000034
C14	C	1.070056	0.054591	-0.000020
C15	C	1.059456	0.227227	-0.000030
C16	C	0.928173	0.224605	-0.000034
C17	C	0.944893	-0.047700	-0.000035
C18	C	1.076178	-0.045079	-0.000021
C19	C	1.488866	-0.033771	-0.000014
C20	C	1.474590	-0.139091	-0.000012
C21	C	1.448492	-0.331924	-0.000031
C22	C	1.549740	-0.388891	-0.000036
C23	C	1.535218	-0.496190	-0.000047
C24	C	1.463011	-0.224615	-0.000021
C25	C	1.728111	0.134183	-0.000032
C26	C	1.867835	0.136974	-0.000043
C27	C	1.509371	0.312962	-0.000045
C28	C	1.523647	0.418282	-0.000056
N29	N	1.499125	0.139600	0.356090
N30	N	1.499121	0.139583	-0.356146
C31	C	1.577363	0.075697	0.428022
C32	C	1.577358	0.075686	0.571905
C33	C	1.420875	0.203489	0.571912
C34	C	1.420873	0.203495	0.428032
C35	C	1.667711	0.001914	0.428019
C36	C	1.667707	0.001903	0.571902
H37	H	1.108600	0.298573	-0.000021
C38	C	0.899918	-0.100352	0.129191
C39	C	0.996303	-0.140146	0.233379
C40	C	0.951328	-0.192796	0.362601
C41	C	0.809967	-0.205652	0.387635
C42	C	0.713573	-0.165858	0.283443
C43	C	0.758548	-0.113208	0.154221
H44	H	1.100955	-0.130630	0.214851
H45	H	1.022686	-0.222254	0.439731
H46	H	0.776673	-0.244627	0.483293
H47	H	0.608921	-0.175374	0.301972
H48	H	0.687190	-0.083749	0.077092
H49	H	1.647327	-0.357077	-0.000129
C50	C	1.316663	-0.374895	-0.000033
C51	C	1.302141	-0.483766	-0.000041
C52	C	1.170314	-0.526750	-0.000041
C53	C	1.053009	-0.460863	-0.000033
C54	C	1.067528	-0.351986	-0.000025
C55	C	1.199354	-0.309002	-0.000025
H56	H	1.388980	-0.532545	-0.000048
H57	H	1.159567	-0.607348	-0.000048
H58	H	0.955423	-0.492682	-0.000033
H59	H	0.980688	-0.303207	-0.000019
H60	H	1.210101	-0.228403	-0.000019
C61	C	1.334803	0.273781	0.348901
C62	C	1.248800	0.344111	0.428030
C63	C	1.162725	0.414398	0.348897
C64	C	1.162653	0.414356	0.190634
C65	C	1.248658	0.344024	0.111496
C66	C	1.334733	0.273736	0.190629
H67	H	1.248851	0.344144	0.545194
H68	H	1.099059	0.466463	0.407481
H69	H	1.098935	0.466387	0.132055
H70	H	1.248607	0.343990	-0.005667
H71	H	1.398400	0.221671	0.132045
H72	H	1.118789	-0.075195	0.098681
C73	C	1.794027	0.033127	0.367718
C74	C	1.915181	-0.023957	0.400921
C75	C	2.041495	0.007262	0.340622
C76	C	2.046655	0.095565	0.247119
C77	C	1.925497	0.152655	0.213912
C78	C	1.799183	0.121436	0.274211
H79	H	1.911365	-0.089329	0.470141
H80	H	2.131184	-0.035001	0.365205
H81	H	2.140160	0.118675	0.202482
H82	H	1.929313	0.218027	0.144691
H83	H	1.709494	0.163698	0.249628
H84	H	1.630270	-0.066997	0.616525
H85	H	0.906076	-0.079439	-0.098729
H86	H	0.870421	0.293823	-0.000024
C87	C	1.127506	-0.095807	-0.129241
C88	C	1.036242	-0.139344	-0.233432
C89	C	1.087571	-0.190068	-0.362647
C90	C	1.230163	-0.197255	-0.387670
C91	C	1.321436	-0.153717	-0.283476
C92	C	1.270107	-0.102992	-0.154262
H93	H	0.930679	-0.134025	-0.214910
H94	H	1.020004	-0.222299	-0.439778
H95	H	1.268159	-0.234805	-0.483323
H96	H	1.426999	-0.159036	-0.301998
H97	H	1.337674	-0.070762	-0.077130
H98	H	1.357164	0.255509	0.630502
H99	H	1.638942	-0.070996	0.388973
H100	H	1.765852	0.018156	0.610950
