data_functionalizedCrystal
_audit_creation_method	'MofGen! by Chris Wilmer'
_symmetry_space_group_name_H-M	'P1'
_symmetry_Int_Tables_number	1
_symmetry_cell_setting	triclinic
loop_
_symmetry_equiv_pos_as_xyz
  x,y,z
_cell_length_a	12.645331
_cell_length_b	12.645331
_cell_length_c	12.645330
_cell_angle_alpha	90.001564
_cell_angle_beta	89.982094
_cell_angle_gamma	90.006192
loop_
_atom_site_label
_atom_site_type_symbol
_atom_site_fract_x
_atom_site_fract_y
_atom_site_fract_z
Zn1	Zn	1.620557	0.599450	0.422302
Zn2	Zn	1.620490	0.422190	0.599508
Zn3	Zn	1.443323	0.422194	0.422259
Zn4	Zn	1.443254	0.599405	0.599524
O5	O	1.531906	0.510810	0.510898
O6	O	1.768896	0.575953	0.445819
O7	O	1.596990	0.273843	0.575971
O8	O	1.466891	0.445728	0.273918
O9	O	1.768846	0.445721	0.576012
O10	O	1.597104	0.575957	0.273949
O11	O	1.466826	0.273846	0.445747
O12	O	1.294967	0.445684	0.445763
O13	O	1.466772	0.747758	0.576040
O14	O	1.294916	0.575880	0.575999
O15	O	1.597036	0.747791	0.445835
O16	O	1.596922	0.445678	0.747857
O17	O	1.466707	0.575877	0.747869
C18	C	1.256476	0.510778	0.510879
C19	C	1.138646	0.510790	0.510896
C20	C	1.093761	0.429017	0.428838
C21	C	0.971201	0.429297	0.428535
C22	C	0.970784	0.622698	0.481156
C23	C	1.093383	0.622187	0.480542
C24	C	1.093440	0.481712	0.622941
C25	C	0.970833	0.479286	0.622354
C26	C	1.531904	0.787315	0.510944
C27	C	1.531903	0.905145	0.510963
C28	C	1.449652	1.072688	0.592566
C29	C	1.449903	0.950128	0.592913
C30	C	1.643590	0.949665	0.541302
C31	C	1.643103	1.072263	0.541870
C32	C	1.503413	1.072343	0.398741
C33	C	1.500956	0.949736	0.399357
C34	C	1.808411	0.510842	0.510918
C35	C	1.926241	0.510856	0.510927
C36	C	1.531829	0.510795	0.786328
C37	C	1.531893	0.510824	0.904158
C38	C	1.531896	1.235380	0.510892
C39	C	1.531885	1.117550	0.510920
C40	C	1.532013	0.510848	0.234393
C41	C	1.532058	0.510864	0.116563
C42	C	1.450312	0.592985	1.071774
C43	C	1.449895	0.592721	0.949214
C44	C	1.501680	0.399102	0.948701
C45	C	1.501182	0.399601	1.071299
C46	C	1.644185	0.539479	1.071260
C47	C	1.643497	0.541922	0.948654
H48	H	1.123079	0.685224	0.537739
N49	N	1.397389	1.113271	0.362145
H50	H	1.366738	1.161540	0.417921
H51	H	1.347898	1.051766	0.350019
H52	H	1.468716	0.920814	0.676048
H53	H	1.556493	0.919115	0.335279
N54	N	0.932221	0.705661	0.557903
H55	H	0.956579	0.687134	0.631670
H56	H	0.852423	0.708481	0.556130
H57	H	0.940219	0.534469	0.686733
N58	N	1.724863	0.460257	1.109613
H59	H	1.689016	0.406089	1.156105
H60	H	1.781417	0.498058	1.151454
N61	N	1.131886	0.560592	0.703924
H62	H	1.178359	0.614904	0.668268
H63	H	1.173770	0.522550	0.760276
H64	H	1.563309	1.101356	0.337909
N65	N	1.392090	0.911183	0.369040
H66	H	1.372625	0.940116	0.297191
H67	H	1.338970	0.936253	0.423171
N68	N	1.675073	1.110173	0.650487
H69	H	1.689348	1.047244	0.697549
H70	H	1.616097	1.154011	0.681785
N71	N	1.340193	0.910272	0.567760
H72	H	1.313267	0.866039	0.628579
H73	H	1.342630	0.865782	0.501473
H74	H	0.941082	0.346381	0.447103
H75	H	1.468794	0.675562	0.919098
H76	H	1.419217	0.375360	1.099980
H77	H	1.123188	0.345820	0.447191
N78	N	1.475098	0.703080	1.110791
H79	H	1.489436	0.750885	1.048429
H80	H	1.539538	0.700700	1.157895
H81	H	1.366569	1.102162	0.573790
N82	N	1.474321	1.113471	0.702046
H83	H	1.538530	1.160885	0.698984
H84	H	1.488979	1.051836	0.750671
N85	N	1.727027	1.111587	0.466538
H86	H	1.764176	1.049279	0.433112
H87	H	1.780051	1.155880	0.506597
H88	H	1.706521	0.920530	0.483687
N89	N	1.134347	0.375479	0.658969
H90	H	1.182606	0.345125	0.603018
H91	H	1.072832	0.325936	0.670859
H92	H	1.668157	0.918976	0.622418
N93	N	1.131288	0.654724	0.372072
H94	H	1.211146	0.654714	0.370587
H95	H	1.104343	0.728030	0.355389
H96	H	1.367705	0.574269	1.102666
N97	N	1.339790	0.567601	0.910465
H98	H	1.291337	0.556651	0.973026
H99	H	1.341698	0.501103	0.866268
N100	N	1.394243	0.366400	0.908143
H101	H	1.364988	0.423784	0.860928
H102	H	1.344870	0.354924	0.969880
N103	N	1.576621	0.315790	1.110556
H104	H	1.610048	0.278681	1.048217
H105	H	1.536646	0.262712	1.154885
N106	N	1.578042	0.315831	0.910046
H107	H	1.633087	0.349808	0.863175
H108	H	1.538202	0.260443	0.868532
H109	H	0.941718	0.396974	0.644812
H110	H	1.671752	0.619562	1.102141
H111	H	1.666282	0.624144	0.919542
H112	H	1.707606	0.486465	0.917978
H113	H	1.124582	0.448075	0.346283
H114	H	0.940097	0.647717	0.400179
N115	N	0.932357	0.454863	0.318570
H116	H	0.994876	0.466002	0.270107
H117	H	0.888174	0.521355	0.320790
