data_functionalizedCrystal
_audit_creation_method	'MofGen! by Chris Wilmer'
_symmetry_space_group_name_H-M	'P1'
_symmetry_Int_Tables_number	1
_symmetry_cell_setting	triclinic
loop_
_symmetry_equiv_pos_as_xyz
  x,y,z
_cell_length_a	17.640112
_cell_length_b	16.625546
_cell_length_c	17.640968
_cell_angle_alpha	78.766516
_cell_angle_beta	92.139080
_cell_angle_gamma	101.247770
loop_
_atom_site_label
_atom_site_type_symbol
_atom_site_fract_x
_atom_site_fract_y
_atom_site_fract_z
Zn1	Zn	1.247778	-0.023167	-0.195079
Zn2	Zn	1.747778	0.476833	0.304921
Zn3	Zn	1.222008	-0.189521	-0.068091
Zn4	Zn	1.722008	0.310479	0.431909
Zn5	Zn	1.095110	-0.075617	-0.093723
Zn6	Zn	1.595110	0.424383	0.406277
Zn7	Zn	1.120749	-0.178908	-0.220673
Zn8	Zn	1.620749	0.321092	0.279327
O9	O	1.171411	-0.116803	-0.144392
O10	O	1.671411	0.383197	0.355608
O11	O	1.350629	-0.027726	-0.156795
O12	O	1.850629	0.472274	0.343205
O13	O	1.183660	-0.200804	0.034783
O14	O	1.683660	0.299196	0.534783
O15	O	1.115417	0.044187	-0.107184
O16	O	1.615417	0.544187	0.392816
O17	O	1.331696	-0.149946	-0.063498
O18	O	1.831696	0.350054	0.436502
O19	O	1.227581	0.082722	-0.181650
O20	O	1.727581	0.582722	0.318350
O21	O	1.090428	-0.117119	0.015951
O22	O	1.590428	0.382881	0.515951
O23	O	0.992242	-0.106828	-0.132002
O24	O	1.492242	0.393172	0.367998
O25	O	1.159114	-0.131856	-0.323552
O26	O	1.659114	0.368144	0.176448
O27	O	1.011078	-0.182715	-0.225272
O28	O	1.511078	0.317285	0.274728
O29	O	1.252442	-0.017434	-0.304748
O30	O	1.752442	0.482566	0.195252
O31	O	1.208521	-0.300961	-0.088315
O32	O	1.708521	0.199039	0.411685
O33	O	1.134126	-0.293163	-0.200417
O34	O	1.634126	0.206837	0.299583
C35	C	0.974106	-0.149311	-0.184196
C36	C	1.474106	0.350689	0.315804
C37	C	0.889701	-0.163234	-0.201243
C38	C	1.389701	0.336766	0.298757
C39	C	1.171333	-0.326314	-0.144374
C40	C	1.671333	0.173686	0.355626
C41	C	1.171374	-0.415926	-0.144378
C42	C	1.671374	0.084074	0.355622
C43	C	0.563039	-0.011024	-0.014898
C44	C	1.063039	0.488976	0.485102
C45	C	0.483730	-0.024119	-0.030926
C46	C	0.983730	0.475881	0.469074
C47	C	0.503365	-0.103324	-0.127880
C48	C	1.003365	0.396676	0.372120
C49	C	0.582678	-0.090232	-0.111863
C50	C	1.082678	0.409768	0.388137
C51	C	0.612508	-0.044082	-0.055370
C52	C	1.112508	0.455918	0.444630
C53	C	0.632147	-0.123289	-0.152335
C54	C	1.132147	0.376711	0.347665
C55	C	0.711452	-0.110201	-0.136316
C56	C	1.211452	0.389799	0.363684
C57	C	0.741288	-0.064056	-0.079824
C58	C	1.241288	0.435944	0.420176
C59	C	0.691813	-0.030994	-0.039351
C60	C	1.191813	0.469006	0.460649
C61	C	0.602314	-0.169444	-0.208823
C62	C	1.102314	0.330556	0.291177
C63	C	0.651783	-0.202502	-0.249296
C64	C	1.151783	0.297498	0.250704
C65	C	0.731091	-0.189409	-0.233281
C66	C	1.231091	0.310591	0.266719
C67	C	0.760927	-0.143264	-0.176789
C68	C	1.260927	0.356736	0.323211
C69	C	0.780566	-0.222471	-0.273754
C70	C	1.280566	0.277529	0.226246
C71	C	0.859871	-0.209383	-0.257735
C72	C	1.359871	0.290617	0.242265
C73	C	0.840232	-0.130176	-0.160770
C74	C	1.340232	0.369824	0.339230
C75	C	1.171522	-0.744060	-0.144431
C76	C	1.671522	-0.244060	0.355569
C77	C	1.171479	-0.652763	-0.144419
C78	C	1.671479	-0.152763	0.355581
C79	C	1.171448	-0.579996	-0.144404
C80	C	1.671448	-0.079996	0.355596
C81	C	1.171406	-0.488693	-0.144393
C82	C	1.671406	0.011307	0.355607
C83	C	1.369487	-0.084169	-0.104432
C84	C	1.869487	0.415831	0.395568
C85	C	1.453895	-0.070262	-0.087404
C86	C	1.953895	0.429738	0.412596
C87	C	1.211513	-0.067611	-0.342476
C88	C	1.711513	0.432389	0.157524
C89	C	1.228602	-0.046647	-0.426888
C90	C	1.728602	0.453353	0.073112
C91	C	1.171514	0.093533	-0.144422
C92	C	1.671514	0.593533	0.355578
C93	C	1.171558	0.183166	-0.144434
C94	C	1.671558	0.683166	0.355566
C95	C	1.041880	-0.275571	-0.753453
C96	C	1.541880	0.224429	-0.253453
C97	C	1.057954	-0.255860	-0.832768
C98	C	1.557954	0.244140	-0.332768
C99	C	1.155128	-0.136723	-0.813179
C100	C	1.655128	0.363277	-0.313179
C101	C	1.139059	-0.156422	-0.733861
C102	C	1.639059	0.343578	-0.233861
C103	C	1.082435	-0.225847	-0.704005
C104	C	1.582435	0.274153	-0.204005
C105	C	1.179615	-0.106698	-0.684413
C106	C	1.679615	0.393302	-0.184413
C107	C	1.163551	-0.126397	-0.605102
C108	C	1.663551	0.373603	-0.105102
C109	C	1.106931	-0.195821	-0.575239
C110	C	1.606931	0.304179	-0.075239
C111	C	1.066371	-0.245547	-0.624694
C112	C	1.566371	0.254453	-0.124694
C113	C	1.236243	-0.037276	-0.714270
C114	C	1.736243	0.462724	-0.214270
C115	C	1.276798	0.012448	-0.664822
C116	C	1.776798	0.512448	-0.164822
C117	C	1.260730	-0.007248	-0.585510
C118	C	1.760730	0.492752	-0.085510
C119	C	1.204111	-0.076672	-0.555647
C120	C	1.704111	0.423328	-0.055647
C121	C	1.301290	0.042478	-0.536055
C122	C	1.801290	0.542478	-0.036055
C123	C	1.285226	0.022778	-0.456744
C124	C	1.785226	0.522778	0.043256
C125	C	1.188046	-0.096371	-0.476336
C126	C	1.688046	0.403629	0.023664
C127	C	1.131509	-0.165740	0.052931
C128	C	1.631509	0.334260	0.552931
C129	C	1.114568	-0.186451	0.137372
C130	C	1.614568	0.313549	0.637372
H131	H	0.864523	-0.092581	-0.114780
H132	H	1.364523	0.407419	0.385220
C133	C	1.363574	0.118844	-0.568909
C134	C	1.863574	0.618844	-0.068909
N135	N	1.410484	0.176367	-0.593654
N136	N	1.910484	0.676367	-0.093654
C137	C	0.747740	-0.273240	-0.335890
C138	C	1.247740	0.226760	0.164110
N139	N	0.723017	-0.311479	-0.382692
N140	N	1.223017	0.188521	0.117308
C141	C	0.979589	-0.351942	-0.720608
C142	C	1.479589	0.148058	-0.220608
N143	N	0.932677	-0.409465	-0.695868
N144	N	1.432677	0.090535	-0.195868
C145	C	0.470543	-0.154086	-0.190021
C146	C	0.970543	0.345914	0.309979
N147	N	0.445822	-0.192317	-0.236829
N148	N	0.945822	0.307683	0.263171
C149	C	1.004081	-0.321918	-0.591849
C150	C	1.504081	0.178082	-0.091849
N151	N	0.957168	-0.379440	-0.567108
N152	N	1.457168	0.120560	-0.067108
H153	H	0.900151	-0.236301	-0.290693
H154	H	1.400151	0.263699	0.209307
H155	H	0.716104	0.006601	0.006640
H156	H	1.216104	0.506601	0.506640
C157	C	0.618961	-0.253264	-0.311437
C158	C	1.118961	0.246736	0.188563
N159	N	0.594240	-0.291495	-0.358245
N160	N	1.094240	0.208505	0.141755
H161	H	1.141919	-0.152888	-0.452030
H162	H	1.641919	0.347112	0.047970
C163	C	0.828527	-0.049657	-0.062205
C164	C	1.328527	0.450343	0.437795
N165	N	0.894236	-0.038809	-0.048936
N166	N	1.394236	0.461191	0.451064
H167	H	1.201233	-0.080199	-0.837498
H168	H	1.701233	0.419801	-0.337498
H169	H	1.024924	-0.296357	-0.873027
H170	H	1.524924	0.203643	-0.373027
H171	H	1.318249	0.063269	-0.416482
H172	H	1.818249	0.563269	0.083518
C173	C	1.089259	-0.217491	-0.487995
C174	C	1.589259	0.282509	0.012005
N175	N	1.075947	-0.233811	-0.422282
N176	N	1.575947	0.266189	0.077718
H177	H	1.249322	-0.021240	-0.778850
H178	H	1.749322	0.478760	-0.278850
H179	H	1.322904	0.068973	-0.689141
H180	H	1.822904	0.568973	-0.189141
C181	C	0.429316	0.012252	0.013601
C182	C	0.929316	0.512252	0.513601
N183	N	0.388331	0.039645	0.047139
N184	N	0.888331	0.539645	0.547139
C185	C	0.595857	0.039748	0.047244
C186	C	1.095857	0.539748	0.547244
N187	N	0.620575	0.077985	0.094049
N188	N	1.120575	0.577985	0.594049
H189	H	0.537739	-0.180099	-0.221864
H190	H	1.037739	0.319901	0.278136
