data_functionalizedCrystal
_audit_creation_method	'MofGen! by Chris Wilmer'
_symmetry_space_group_name_H-M	'P1'
_symmetry_Int_Tables_number	1
_symmetry_cell_setting	triclinic
loop_
_symmetry_equiv_pos_as_xyz
  x,y,z
_cell_length_a	21.295418
_cell_length_b	17.077402
_cell_length_c	17.077395
_cell_angle_alpha	90.028524
_cell_angle_beta	89.965068
_cell_angle_gamma	89.961304
loop_
_atom_site_label
_atom_site_type_symbol
_atom_site_fract_x
_atom_site_fract_y
_atom_site_fract_z
Zn1	Zn	0.962334	0.312187	-0.444240
Zn2	Zn	1.295668	0.645520	-0.110906
Zn3	Zn	1.629001	0.978853	0.222427
Zn4	Zn	0.962267	0.443458	-0.312971
Zn5	Zn	1.295600	0.776792	0.020363
Zn6	Zn	1.628934	1.110125	0.353696
Zn7	Zn	0.857074	0.312247	-0.312944
Zn8	Zn	1.190407	0.645580	0.020390
Zn9	Zn	1.523740	0.978914	0.353723
Zn10	Zn	0.857041	0.443451	-0.444150
Zn11	Zn	1.190374	0.776784	-0.110817
Zn12	Zn	1.523708	1.110117	0.222516
O13	O	0.909679	0.377836	-0.378576
O14	O	1.243012	0.711169	-0.045243
O15	O	1.576346	1.044502	0.288091
O16	O	1.050415	0.329578	-0.426876
O17	O	1.383748	0.662911	-0.093542
O18	O	1.717082	0.996245	0.239791
O19	O	0.948298	0.426082	-0.203120
O20	O	1.281632	0.759415	0.130213
O21	O	1.614965	1.092748	0.463546
O22	O	0.871079	0.202392	-0.330386
O23	O	1.204412	0.535725	0.002947
O24	O	1.537745	0.869059	0.336280
O25	O	1.050365	0.426023	-0.330433
O26	O	1.383699	0.759356	0.002901
O27	O	1.717032	1.092690	0.336234
O28	O	0.948413	0.202348	-0.426849
O29	O	1.281747	0.535681	-0.093516
O30	O	1.615080	0.869014	0.239817
O31	O	0.871013	0.329681	-0.203100
O32	O	1.204347	0.663014	0.130233
O33	O	1.537680	0.996348	0.463567
O34	O	0.768980	0.329673	-0.330299
O35	O	1.102313	0.663007	0.003034
O36	O	1.435647	0.996340	0.336367
O37	O	0.871023	0.426009	-0.554009
O38	O	1.204356	0.759343	-0.220676
O39	O	1.537690	1.092676	0.112658
O40	O	0.768956	0.426068	-0.426696
O41	O	1.102289	0.759401	-0.093363
O42	O	1.435623	1.092735	0.239970
O43	O	0.948382	0.329570	-0.554075
O44	O	1.281715	0.662904	-0.220742
O45	O	1.615048	0.996237	0.112592
O46	O	0.948267	0.553304	-0.330346
O47	O	1.281600	0.886638	0.002987
O48	O	1.614933	1.219971	0.336321
O49	O	0.870958	0.553299	-0.426723
O50	O	1.204291	0.886632	-0.093389
O51	O	1.537624	1.219965	0.239944
C52	C	0.909618	0.581784	-0.378545
C53	C	1.242952	0.915117	-0.045211
C54	C	1.576285	1.248450	0.288122
C55	C	0.909650	0.669033	-0.378558
C56	C	1.242983	1.002367	-0.045224
C57	C	1.576317	1.335700	0.288109
C58	C	0.746127	0.377877	-0.378486
C59	C	1.079461	0.711210	-0.045152
C60	C	1.412794	1.044544	0.288181
C61	C	0.676159	0.377913	-0.378466
C62	C	1.009493	0.711247	-0.045132
C63	C	1.342826	1.044580	0.288201
C64	C	0.909706	0.377782	-0.583320
C65	C	1.243039	0.711116	-0.249987
C66	C	1.576373	1.044449	0.083346
C67	C	0.909718	0.377760	-0.670570
C68	C	1.243051	0.711093	-0.337237
C69	C	1.576384	1.044426	-0.003904
C70	C	0.643297	0.428173	-0.428585
C71	C	0.976630	0.761506	-0.095251
C72	C	1.309963	1.094839	0.238082
C73	C	0.577554	0.428153	-0.428620
C74	C	0.910887	0.761487	-0.095286
C75	C	1.244221	1.094820	0.238047
C76	C	0.544677	0.377883	-0.378522
C77	C	0.878010	0.711216	-0.045189
C78	C	1.211343	1.044550	0.288145
C79	C	0.577547	0.327614	-0.328400
C80	C	0.910881	0.660947	0.004934
C81	C	1.244214	0.994281	0.338267
C82	C	0.643289	0.327629	-0.328372
C83	C	0.976622	0.660963	0.004962
C84	C	1.309955	0.994296	0.338295
N85	N	0.441409	0.371751	-0.309865
N86	N	0.774742	0.705085	0.023468
N87	N	1.108075	1.038418	0.356801
N88	N	0.378957	0.371741	-0.309894
N89	N	0.712290	0.705075	0.023439
N90	N	1.045624	1.038408	0.356772
C91	C	0.346602	0.377833	-0.378605
C92	C	0.679935	0.711166	-0.045272
C93	C	1.013269	1.044500	0.288061
N94	N	0.379058	0.383950	-0.447288
N95	N	0.712391	0.717283	-0.113955
N96	N	1.045724	1.050617	0.219379
N97	N	0.441515	0.383964	-0.447258
N98	N	0.774848	0.717297	-0.113925
N99	N	1.108182	1.050631	0.219409
C100	C	0.473391	0.377861	-0.378548
C101	C	0.806725	0.711194	-0.045214
C102	C	1.140058	1.044527	0.288119
C103	C	0.242454	0.428074	-0.428767
C104	C	0.575787	0.761407	-0.095433
C105	C	0.909121	1.094741	0.237900
C106	C	0.176710	0.428049	-0.428803
C107	C	0.510044	0.761382	-0.095470
C108	C	0.843377	1.094716	0.237863
C109	C	0.176705	0.327514	-0.328576
C110	C	0.510038	0.660847	0.004757
C111	C	0.843371	0.994181	0.338090
C112	C	0.242447	0.327535	-0.328547
C113	C	0.575781	0.660868	0.004787
C114	C	0.909114	0.994201	0.338120
C115	C	0.275318	0.377819	-0.378641
C116	C	0.608651	0.711152	-0.045308
C117	C	0.941985	1.044485	0.288026
C118	C	1.073869	0.377795	-0.378667
C119	C	1.407203	0.711128	-0.045334
C120	C	1.740536	1.044461	0.287999
C121	C	1.143837	0.377777	-0.378706
C122	C	1.477171	0.711111	-0.045373
C123	C	1.810504	1.044444	0.287961
C124	C	0.909757	0.173091	-0.378625
C125	C	1.243091	0.506425	-0.045291
C126	C	1.576424	0.839758	0.288042
C127	C	0.909790	0.085841	-0.378645
C128	C	1.243124	0.419175	-0.045312
C129	C	1.576457	0.752508	0.288021
C130	C	0.949946	0.710000	-0.328428
C131	C	1.283279	1.043334	0.004905
C132	C	1.616612	1.376667	0.338239
C133	C	0.949977	0.791981	-0.328448
C134	C	1.283310	1.125314	0.004885
C135	C	1.616643	1.458647	0.338219
C136	C	0.909708	0.832993	-0.378594
C137	C	1.243041	1.166326	-0.045261
C138	C	1.576374	1.499659	0.288072
C139	C	0.869410	0.792020	-0.428729
C140	C	1.202743	1.125353	-0.095396
C141	C	1.536077	1.458686	0.237937
C142	C	0.869383	0.710041	-0.428713
C143	C	1.202716	1.043374	-0.095379
C144	C	1.536050	1.376708	0.237954
C145	C	0.869468	0.962890	-0.428759
C146	C	1.202802	1.296223	-0.095426
C147	C	1.536135	1.629556	0.237907
C148	C	0.869495	1.044874	-0.428775
C149	C	1.202828	1.378208	-0.095442
C150	C	1.536161	1.711541	0.237892
C151	C	0.950062	1.044830	-0.328495
C152	C	1.283395	1.378163	0.004839
C153	C	1.616729	1.711496	0.338172
C154	C	0.950035	0.962851	-0.328478
C155	C	1.283368	1.296184	0.004855
C156	C	1.616702	1.629517	0.338189
C157	C	0.909736	0.921884	-0.378612
C158	C	1.243070	1.255217	-0.045279
C159	C	1.576403	1.588550	0.288055
C160	C	0.950068	0.327437	-1.046420
C161	C	1.283401	0.660770	-0.713087
C162	C	1.616735	0.994104	-0.379754
C163	C	0.950055	0.327465	-0.964440
C164	C	1.283389	0.660798	-0.631107
C165	C	1.616722	0.994131	-0.297773
C166	C	0.909769	0.377685	-0.923419
C167	C	1.243103	0.711019	-0.590086
C168	C	1.576436	1.044352	-0.256753
C169	C	0.869498	0.427887	-0.964384
C170	C	1.202832	0.761221	-0.631050
C171	C	1.536165	1.094554	-0.297717
C172	C	0.869515	0.427863	-1.046363
C173	C	1.202848	0.761196	-0.713029
C174	C	1.536182	1.094530	-0.379696
C175	C	0.869466	0.427933	-0.793513
C176	C	1.202799	0.761266	-0.460180
C177	C	1.536133	1.094599	-0.126847
C178	C	0.869448	0.427956	-0.711529
C179	C	1.202782	0.761289	-0.378195
C180	C	1.536115	1.094623	-0.044862
C181	C	0.950006	0.327534	-0.711591
C182	C	1.283339	0.660868	-0.378257
C183	C	1.616673	0.994201	-0.044924
C184	C	0.950023	0.327510	-0.793570
C185	C	1.283356	0.660843	-0.460236
C186	C	1.616689	0.994177	-0.126903
C187	C	0.909751	0.377711	-0.834528
C188	C	1.243084	0.711045	-0.501195
C189	C	1.576417	1.044378	-0.167862
C190	C	0.909688	0.377832	-0.174628
C191	C	1.243022	0.711165	0.158705
C192	C	1.576355	1.044499	0.492038
C193	C	0.909799	0.377634	-0.087379
C194	C	1.243132	0.710967	0.245954
C195	C	1.576465	1.044300	0.579288
H196	H	0.670056	0.469117	-0.469376
H197	H	1.003389	0.802450	-0.136043
H198	H	1.336722	1.135784	0.197290
H199	H	0.982789	0.825333	-0.287627
H200	H	1.316122	1.158666	0.045706
H201	H	1.649456	1.491999	0.379040
H202	H	0.836700	0.468781	-0.930978
H203	H	1.170033	0.802115	-0.597645
H204	H	1.503367	1.135448	-0.264311
H205	H	0.836625	0.825418	-0.469563
H206	H	1.169959	1.158751	-0.136229
H207	H	1.503292	1.492085	0.197104
Br208	Br	0.132093	0.259281	-0.260593
Br209	Br	0.465426	0.592614	0.072741
Br210	Br	0.798760	0.925948	0.406074
Br211	Br	0.687891	0.259413	-0.260349
Br212	Br	1.021225	0.592747	0.072984
Br213	Br	1.354558	0.926080	0.406317
H214	H	0.269204	0.286612	-0.287731
H215	H	0.602538	0.619945	0.045603
H216	H	0.935871	0.953279	0.378936
Br217	Br	0.814779	0.907292	-0.496802
Br218	Br	1.148113	1.240625	-0.163469
Br219	Br	1.481446	1.573958	0.169864
Br220	Br	0.814865	0.495994	-1.101950
Br221	Br	1.148198	0.829327	-0.768617
Br222	Br	1.481532	1.162660	-0.435284
Br223	Br	1.004679	0.259427	-0.656006
Br224	Br	1.338013	0.592760	-0.322672
Br225	Br	1.671346	0.926093	0.010661
Br226	Br	0.814811	0.496065	-0.849100
Br227	Br	1.148145	0.829398	-0.515766
Br228	Br	1.481478	1.162731	-0.182433
H229	H	0.269219	0.469014	-0.469560
H230	H	0.602552	0.802348	-0.136227
H231	H	0.935885	1.135681	0.197106
H232	H	0.550792	0.469080	-0.469436
H233	H	0.884125	0.802413	-0.136102
H234	H	1.217459	1.135747	0.197231
H235	H	0.836571	0.676686	-0.469534
H236	H	1.169904	1.010019	-0.136201
H237	H	1.503237	1.343353	0.197132
H238	H	0.550775	0.286682	-0.287611
H239	H	0.884108	0.620016	0.045722
H240	H	1.217441	0.953349	0.379055
H241	H	0.982877	1.078189	-0.287676
H242	H	1.316210	1.411522	0.045657
H243	H	1.649544	1.744856	0.378991
H244	H	0.149954	0.468975	-0.469621
H245	H	0.483288	0.802308	-0.136288
H246	H	0.816621	1.135641	0.197046
Br247	Br	1.004594	0.654349	-0.260361
Br248	Br	1.337927	0.987683	0.072972
Br249	Br	1.671260	1.321016	0.406305
H250	H	0.982822	0.929459	-0.287641
H251	H	1.316155	1.262792	0.045692
H252	H	1.649488	1.596126	0.379025
H253	H	0.836716	1.078264	-0.469623
H254	H	1.170049	1.411597	-0.136290
H255	H	1.503383	1.744931	0.197043
Br256	Br	1.004711	0.259340	-0.908856
Br257	Br	1.338044	0.592674	-0.575523
Br258	Br	1.671377	0.926007	-0.242190
Br259	Br	1.004736	0.259266	-1.102083
Br260	Br	1.338069	0.592599	-0.768750
Br261	Br	1.671403	0.925933	-0.435417
H262	H	0.836630	0.468832	-0.678132
H263	H	1.169963	0.802165	-0.344799
H264	H	1.503296	1.135499	-0.011465
Br265	Br	1.004707	0.259366	-0.849241
Br266	Br	1.338040	0.592699	-0.515907
Br267	Br	1.671374	0.926033	-0.182574
