data_functionalizedCrystal
_audit_creation_method	'MofGen! by Chris Wilmer'
_symmetry_space_group_name_H-M	'P1'
_symmetry_Int_Tables_number	1
_symmetry_cell_setting	triclinic
loop_
_symmetry_equiv_pos_as_xyz
  x,y,z
_cell_length_a	29.839126
_cell_length_b	11.169417
_cell_length_c	11.169416
_cell_angle_alpha	89.988973
_cell_angle_beta	89.984604
_cell_angle_gamma	90.016564
loop_
_atom_site_label
_atom_site_type_symbol
_atom_site_fract_x
_atom_site_fract_y
_atom_site_fract_z
Zn1	Zn	-0.253996	-1.834925	-0.477871
Zn2	Zn	0.246004	-1.334925	0.022129
Zn3	Zn	-0.178877	-1.834827	-0.678556
Zn4	Zn	0.321123	-1.334827	-0.178556
Zn5	Zn	-0.178882	-1.634223	-0.477888
Zn6	Zn	0.321118	-1.134223	0.022112
Zn7	Zn	-0.253983	-1.634219	-0.678514
Zn8	Zn	0.246017	-1.134219	-0.178514
O9	O	-0.216435	-1.734548	-0.578207
O10	O	0.283565	-1.234548	-0.078207
O11	O	-0.244034	-2.002862	-0.504502
O12	O	0.255966	-1.502862	-0.004502
O13	O	-0.116011	-1.808176	-0.651961
O14	O	0.383989	-1.308176	-0.151961
O15	O	-0.188854	-1.660889	-0.309936
O16	O	0.311146	-1.160889	0.190064
O17	O	-0.188845	-2.002789	-0.651945
O18	O	0.311155	-1.502789	-0.151945
O19	O	-0.244039	-1.808344	-0.309924
O20	O	0.255961	-1.308344	0.190076
O21	O	-0.116015	-1.660793	-0.504532
O22	O	0.383985	-1.160793	-0.004532
O23	O	-0.188841	-1.466272	-0.504491
O24	O	0.311159	-0.966272	-0.004491
O25	O	-0.316852	-1.660883	-0.651873
O26	O	0.183148	-1.160883	-0.151873
O27	O	-0.244017	-1.466270	-0.651890
O28	O	0.255983	-0.966270	-0.151890
O29	O	-0.316861	-1.808341	-0.504462
O30	O	0.183139	-1.308341	-0.004462
O31	O	-0.188832	-1.808173	-0.846500
O32	O	0.311168	-1.308173	-0.346500
O33	O	-0.244012	-1.660788	-0.846469
O34	O	0.255988	-1.160788	-0.346469
C35	C	-0.216429	-1.422724	-0.578189
C36	C	0.283571	-0.922724	-0.078189
C37	C	-0.216437	-1.289324	-0.578210
C38	C	0.283563	-0.789324	-0.078210
C39	C	-0.216430	-1.734502	-0.890032
C40	C	0.283570	-1.234502	-0.390032
C41	C	-0.216443	-1.734592	-1.023432
C42	C	0.283557	-1.234592	-0.523432
C43	C	-0.333613	-1.734623	-0.578161
C44	C	0.166387	-1.234623	-0.078161
C45	C	-0.383547	-1.734654	-0.578141
C46	C	0.116453	-1.234654	-0.078141
C47	C	-0.693196	-1.657936	-0.501255
C48	C	-0.193196	-1.157936	-0.001255
C49	C	-0.880869	-1.657970	-0.501172
C50	C	-0.380869	-1.157970	-0.001172
O51	O	-0.905138	-1.592681	-0.435920
O52	O	-0.405138	-1.092681	0.064080
N53	N	-0.904333	-1.734711	-0.577916
N54	N	-0.404333	-1.234711	-0.077916
C55	C	-0.880875	-1.811444	-0.654693
C56	C	-0.380875	-1.311444	-0.154693
O57	O	-0.905139	-1.876709	-0.719976
O58	O	-0.405139	-1.376709	-0.219976
C59	C	-0.693203	-1.811403	-0.654781
C60	C	-0.193203	-1.311403	-0.154781
C61	C	-0.669742	-1.734665	-0.578023
C62	C	-0.169742	-1.234665	-0.078023
C63	C	-0.669734	-1.581204	-0.424504
C64	C	-0.169734	-1.081204	0.075496
C65	C	-0.622819	-1.581200	-0.424521
C66	C	-0.122819	-1.081200	0.075479
C67	C	-0.599365	-1.657930	-0.501289
C68	C	-0.099365	-1.157930	-0.001289
C69	C	-0.622826	-1.734662	-0.578040
C70	C	-0.122826	-1.234662	-0.078040
C71	C	-0.669746	-1.888129	-0.731563
C72	C	-0.169746	-1.388129	-0.231563
C73	C	-0.622825	-1.888110	-0.731581
C74	C	-0.122825	-1.388110	-0.231581
C75	C	-0.599364	-1.811372	-0.654822
C76	C	-0.099364	-1.311372	-0.154822
C77	C	-0.552457	-1.811388	-0.654825
C78	C	-0.052457	-1.311388	-0.154825
N79	N	-0.528993	-1.734647	-0.578080
N80	N	-0.028993	-1.234647	-0.078080
C81	C	-0.552447	-1.657918	-0.501312
C82	C	-0.052447	-1.157918	-0.001312
C83	C	-0.979406	-1.811462	-0.654639
C84	C	-0.479406	-1.311462	-0.154639
C85	C	-1.026324	-1.811474	-0.654616
C86	C	-0.526324	-1.311474	-0.154616
C87	C	-1.026314	-1.657998	-0.501096
C88	C	-0.526314	-1.157998	-0.001096
C89	C	-0.979395	-1.657993	-0.501114
C90	C	-0.479395	-1.157993	-0.001114
C91	C	-0.955942	-1.734720	-0.577895
C92	C	-0.455942	-1.234720	-0.077895
C93	C	-0.453921	-1.657918	-0.501353
C94	C	0.046079	-1.157918	-0.001353
C95	C	-0.407001	-1.657925	-0.501373
C96	C	0.092999	-1.157925	-0.001373
C97	C	-0.407015	-1.811396	-0.654897
C98	C	0.092985	-1.311396	-0.154897
C99	C	-0.453931	-1.811394	-0.654873
C100	C	0.046069	-1.311394	-0.154873
C101	C	-0.477382	-1.734645	-0.578097
C102	C	0.022618	-1.234645	-0.078097
O103	O	-0.528159	-1.876633	-0.720053
O104	O	-0.028159	-1.376633	-0.220053
O105	O	-0.528175	-1.592644	-0.436058
O106	O	-0.028175	-1.092644	0.063942
C107	C	-0.740111	-1.657939	-0.501238
C108	C	-0.240111	-1.157939	-0.001238
C109	C	-0.763573	-1.734672	-0.577989
C110	C	-0.263573	-1.234672	-0.077989
C111	C	-0.740118	-1.811401	-0.654757
C112	C	-0.240118	-1.311401	-0.154757
C113	C	-0.810490	-1.734683	-0.577966
C114	C	-0.310490	-1.234683	-0.077966
C115	C	-0.833945	-1.657954	-0.501198
C116	C	-0.333945	-1.157954	-0.001198
C117	C	-0.810481	-1.581213	-0.424453
C118	C	-0.310481	-1.081213	0.075547
C119	C	-0.763565	-1.581210	-0.424470
C120	C	-0.263565	-1.081210	0.075530
C121	C	-0.763582	-1.888142	-0.731502
C122	C	-0.263582	-1.388142	-0.231502
C123	C	-0.810498	-1.888140	-0.731478
C124	C	-0.310498	-1.388140	-0.231478
C125	C	-0.833952	-1.811411	-0.654710
C126	C	-0.333952	-1.311411	-0.154710
C127	C	-0.099712	-1.734543	-0.578166
C128	C	0.400288	-1.234543	-0.078166
C129	C	-0.049778	-1.734744	-0.577848
C130	C	0.450222	-1.234744	-0.077848
C131	C	-0.216441	-2.047591	-0.578226
C132	C	0.283559	-1.547591	-0.078226
C133	C	-0.216443	-2.180991	-0.578234
C134	C	0.283557	-1.680991	-0.078234
C135	C	-0.216449	-1.734628	-0.265165
C136	C	0.283551	-1.234628	0.234835
C137	C	-0.216455	-1.734662	-0.131765
C138	C	0.283545	-1.234662	0.368235
H139	H	-0.473010	-1.595423	-0.438834
H140	H	0.026990	-1.095423	0.061166
H141	H	-0.688826	-1.518715	-0.361989
H142	H	-0.188826	-1.018715	0.138011
N143	N	-0.597531	-1.970865	-0.814401
N144	N	-0.097531	-1.470865	-0.314401
H145	H	-0.619517	-2.019471	-0.863017
H146	H	-0.119517	-1.519471	-0.363017
H147	H	-0.578072	-2.026424	-0.765567
H148	H	-0.078072	-1.526424	-0.265567
N149	N	-0.954116	-1.894239	-0.737448
N150	N	-0.454116	-1.394239	-0.237448
H151	H	-0.934656	-1.949865	-0.688685
H152	H	-0.434656	-1.449865	-0.188685
H153	H	-0.934669	-1.845375	-0.793069
H154	H	-0.434669	-1.345375	-0.293069
N155	N	-0.479239	-1.894174	-0.737643
N156	N	0.020761	-1.394174	-0.237643
H157	H	-0.457259	-1.942784	-0.786273
H158	H	0.042741	-1.442784	-0.286273
H159	H	-0.498696	-1.845307	-0.793180
H160	H	0.001304	-1.345307	-0.293180
N161	N	-0.381714	-1.894155	-0.737690
N162	N	0.118286	-1.394155	-0.237690
H163	H	-0.348432	-1.882364	-0.726186
H164	H	0.151568	-1.382364	-0.226186
H165	H	-0.389961	-1.875575	-0.823392
H166	H	0.110039	-1.375575	-0.323392
H167	H	-0.960296	-1.595507	-0.438610
H168	H	-0.460296	-1.095507	0.061390
N169	N	-0.597524	-1.498431	-0.341719
N170	N	-0.097524	-0.998431	0.158281
H171	H	-0.605685	-1.412678	-0.360351
H172	H	-0.105685	-0.912678	0.139649
H173	H	-0.564249	-1.510152	-0.353393
H174	H	-0.064249	-1.010152	0.146607
N175	N	-0.695044	-1.970893	-0.814357
N176	N	-0.195044	-1.470893	-0.314357
H177	H	-0.673059	-2.019484	-0.862991
H178	H	-0.173059	-1.519484	-0.362991
H179	H	-0.714502	-1.922023	-0.869889
H180	H	-0.214502	-1.422023	-0.369889
H181	H	-1.045418	-1.595524	-0.438586
H182	H	-0.545418	-1.095524	0.061414
H183	H	-0.744467	-1.518722	-0.361965
H184	H	-0.244467	-1.018722	0.138035
H185	H	-0.829585	-1.518742	-0.361941
H186	H	-0.329585	-1.018742	0.138059
H187	H	-1.045422	-1.873975	-0.717107
H188	H	-0.545422	-1.373975	-0.217107
H189	H	-0.829596	-1.950641	-0.793982
H190	H	-0.329596	-1.450641	-0.293982
N191	N	-0.738289	-1.970902	-0.814308
N192	N	-0.238289	-1.470902	-0.314308
H193	H	-0.760276	-2.019512	-0.862916
H194	H	-0.260276	-1.519512	-0.362916
H195	H	-0.718831	-2.026458	-0.765465
H196	H	-0.218831	-1.526458	-0.265465
H197	H	-0.387901	-1.595436	-0.438862
H198	H	0.112099	-1.095436	0.061138
