data_functionalizedCrystal
_audit_creation_method	'MofGen! by Chris Wilmer'
_symmetry_space_group_name_H-M	'P1'
_symmetry_Int_Tables_number	1
_symmetry_cell_setting	triclinic
loop_
_symmetry_equiv_pos_as_xyz
  x,y,z
_cell_length_a	12.784890
_cell_length_b	10.489746
_cell_length_c	11.892095
_cell_angle_alpha	93.928761
_cell_angle_beta	86.513306
_cell_angle_gamma	78.823930
loop_
_atom_site_label
_atom_site_type_symbol
_atom_site_fract_x
_atom_site_fract_y
_atom_site_fract_z
O1	O	1.417105	-0.000924	-0.093968
O2	O	1.108069	0.053654	-0.093979
O3	O	1.269615	-0.160089	-0.093965
O4	O	1.255558	0.212819	-0.093982
O5	O	1.256146	-0.142292	0.094041
O6	O	1.094599	0.071451	0.094028
O7	O	1.403635	0.016872	0.094038
Zn8	Zn	1.246978	0.046987	0.123883
Zn9	Zn	1.264725	0.023539	-0.123824
O10	O	1.242089	0.230615	0.094024
C11	C	1.061761	0.066102	0.000023
C12	C	0.943849	0.076664	0.000020
C13	C	0.765888	0.209037	0.000012
C14	C	0.876677	0.199121	0.000012
C15	C	0.900225	-0.035886	0.000023
C16	C	0.789436	-0.025970	0.000023
C17	C	0.722271	0.096496	0.000019
C18	C	0.611480	0.106411	0.000026
C19	C	0.635030	-0.128595	0.000029
C20	C	0.745819	-0.138511	0.000029
C21	C	1.261817	-0.198593	0.000038
C22	C	1.258637	-0.339834	0.000037
C23	C	1.153968	-0.479929	0.000020
C24	C	1.212940	-0.417693	-0.092673
C25	C	1.199684	-0.400191	0.092686
C26	C	1.312004	-0.529272	-0.092757
C27	C	1.298728	-0.511766	0.092685
C28	C	1.357774	-0.449590	-0.000030
C29	C	1.449942	0.004424	0.000033
C30	C	1.567856	-0.006139	0.000030
C31	C	1.249886	0.269119	0.000019
C32	C	1.253067	0.410359	0.000012
N33	N	1.234874	0.062988	0.292936
N34	N	1.276838	0.007528	-0.292877
C35	C	1.361062	-0.103885	0.529595
C36	C	1.352609	-0.092692	0.647936
C37	C	1.209512	0.096559	0.647962
C38	C	1.217964	0.085367	0.529620
C39	C	1.293743	-0.014858	0.470441
C40	C	1.302201	-0.026044	0.352098
C41	C	1.159098	0.163201	0.352126
C42	C	1.150645	0.174394	0.470467
H43	H	0.954930	-0.135591	0.000018
C44	C	0.926107	-0.258060	0.000042
C45	C	0.819652	-0.273119	0.000041
H46	H	0.971684	-0.341164	0.000059
H47	H	0.944117	-0.217627	-0.065522
H48	H	0.934718	-0.205191	0.065602
H49	H	0.811038	-0.325980	-0.065524
H50	H	0.801636	-0.313571	0.065612
H51	H	0.599512	-0.220243	-0.000056
H52	H	1.176721	-0.376534	-0.171043
H53	H	0.556794	0.206130	0.000029
C54	C	0.992961	-0.451565	-0.097308
C55	C	1.037659	-0.499154	-0.000110
H56	H	0.921163	-0.463448	-0.097394
H57	H	0.994219	-0.361381	-0.097967
H58	H	1.033181	-0.497613	-0.162483
H59	H	0.997444	-0.453099	0.065065
H60	H	1.036395	-0.589355	0.000559
C61	C	1.331442	-0.555957	-0.295572
C62	C	1.376025	-0.604590	-0.198676
H63	H	1.370968	-0.602452	-0.360960
H64	H	1.259268	-0.566371	-0.295306
H65	H	1.333872	-0.466065	-0.296172
H66	H	1.373587	-0.694480	-0.198072
H67	H	1.448217	-0.594187	-0.198943
C68	C	1.437604	-0.205018	0.348171
C69	C	1.444388	-0.214010	0.464535
H70	H	1.489060	-0.272993	0.308010
H71	H	1.368030	-0.212924	0.328784
H72	H	1.451139	-0.123043	0.328802
H73	H	1.430844	-0.295982	0.483906
H74	H	1.513978	-0.206116	0.483930
H75	H	0.912185	0.290764	0.000009
C76	C	1.494904	-0.280881	0.636018
C77	C	1.426610	-0.190553	0.712958
H78	H	1.540592	-0.341294	0.676163
H79	H	1.453642	-0.326207	0.589874
H80	H	1.536807	-0.236398	0.589850
H81	H	1.384701	-0.235034	0.759122
H82	H	1.467876	-0.145222	0.759122
C83	C	1.023635	0.195082	0.684452
C84	C	1.126210	0.206700	0.713034
H85	H	0.972207	0.263071	0.724634
H86	H	1.019036	0.201184	0.605519
H87	H	1.010092	0.113116	0.703839
H88	H	1.139756	0.288662	0.693640
H89	H	1.130811	0.200610	0.791985
C90	C	1.532789	-0.496935	-0.097212
C91	C	1.474192	-0.430756	-0.000080
H92	H	1.604658	-0.485304	-0.097243
H93	H	1.531425	-0.587191	-0.097834
H94	H	1.502029	-0.463174	-0.162433
H95	H	1.504947	-0.464524	0.065142
H96	H	1.475561	-0.340483	0.000553
C97	C	1.288547	-0.501413	0.295464
C98	C	1.347570	-0.567372	0.198483
H99	H	1.318691	-0.535749	0.360784
H100	H	1.290332	-0.411235	0.296604
H101	H	1.216592	-0.512543	0.294783
H102	H	1.419524	-0.556234	0.199160
H103	H	1.345796	-0.657572	0.197342
H104	H	1.152217	-0.344225	0.171052
H105	H	1.088945	0.255992	0.518664
H106	H	1.104286	0.235697	0.303950
H107	H	0.711200	0.308755	0.000022
H108	H	1.363906	-0.107649	0.303915
