data_functionalizedCrystal
_audit_creation_method	'MofGen! by Chris Wilmer'
_symmetry_space_group_name_H-M	'P1'
_symmetry_Int_Tables_number	1
_symmetry_cell_setting	triclinic
loop_
_symmetry_equiv_pos_as_xyz
  x,y,z
_cell_length_a	17.077404
_cell_length_b	25.639240
_cell_length_c	17.077396
_cell_angle_alpha	89.961743
_cell_angle_beta	89.978556
_cell_angle_gamma	90.031004
loop_
_atom_site_label
_atom_site_type_symbol
_atom_site_fract_x
_atom_site_fract_y
_atom_site_fract_z
Zn1	Zn	1.200001	-0.208175	-0.443830
Zn2	Zn	1.700001	0.291825	0.056170
Zn3	Zn	1.199885	-0.295613	-0.312542
Zn4	Zn	1.699885	0.204387	0.187458
Zn5	Zn	1.068733	-0.208191	-0.312574
Zn6	Zn	1.568733	0.291809	0.187426
Zn7	Zn	1.068678	-0.295579	-0.443761
Zn8	Zn	1.568678	0.204421	0.056239
O9	O	1.134324	-0.251889	-0.378176
O10	O	1.634324	0.248111	0.121824
O11	O	1.309832	-0.219782	-0.426430
O12	O	1.809832	0.280218	0.073570
O13	O	1.182462	-0.284037	-0.202699
O14	O	1.682462	0.215963	0.297301
O15	O	1.086217	-0.135023	-0.330027
O16	O	1.586217	0.364977	0.169973
O17	O	1.309747	-0.284022	-0.329973
O18	O	1.809747	0.215978	0.170027
O19	O	1.182659	-0.135012	-0.426461
O20	O	1.682659	0.364988	0.073539
O21	O	1.086105	-0.219808	-0.202722
O22	O	1.586105	0.280192	0.297278
O23	O	0.958878	-0.219775	-0.329960
O24	O	1.458878	0.280225	0.170040
O25	O	1.086124	-0.283964	-0.553617
O26	O	1.586124	0.216036	-0.053617
O27	O	0.958838	-0.283979	-0.426343
O28	O	1.458838	0.216021	0.073657
O29	O	1.182606	-0.219749	-0.553668
O30	O	1.682606	0.280251	-0.053668
O31	O	1.182409	-0.368774	-0.329906
O32	O	1.682409	0.131226	0.170094
O33	O	1.086012	-0.368749	-0.426312
O34	O	1.586012	0.131251	0.073688
C35	C	0.930376	-0.251875	-0.378148
C36	C	1.430376	0.248125	0.121852
C37	C	0.843126	-0.251882	-0.378154
C38	C	1.343126	0.248118	0.121846
C39	C	0.467353	-0.218514	-0.428510
C40	C	0.967353	0.281486	0.071490
C41	C	0.549334	-0.218510	-0.428502
C42	C	1.049334	0.281490	0.071498
C43	C	0.590278	-0.251900	-0.378196
C44	C	1.090278	0.248100	0.121804
C45	C	0.549237	-0.285300	-0.327902
C46	C	1.049237	0.214700	0.172098
C47	C	0.467258	-0.285306	-0.327915
C48	C	0.967258	0.214694	0.172085
C49	C	0.720107	-0.285284	-0.327876
C50	C	1.220107	0.214716	0.172124
C51	C	0.802091	-0.285278	-0.327862
C52	C	1.302091	0.214722	0.172138
C53	C	0.802183	-0.218489	-0.428463
C54	C	1.302183	0.281511	0.071537
C55	C	0.720204	-0.218495	-0.428477
C56	C	1.220204	0.281505	0.071523
C57	C	0.679169	-0.251894	-0.378181
C58	C	1.179169	0.248106	0.121819
C59	C	1.134213	-0.387732	-0.378115
C60	C	1.634213	0.112268	0.121885
C61	C	1.134238	-0.445846	-0.378115
C62	C	1.634238	0.054154	0.121885
C63	C	1.184567	-0.806165	-0.428480
C64	C	1.684567	-0.306165	0.071520
C65	C	1.184590	-0.860769	-0.428496
C66	C	1.684590	-0.360769	0.071504
O67	O	1.227249	-0.888968	-0.471255
O68	O	1.727249	-0.388968	0.028745
N69	N	1.134433	-0.888128	-0.378252
N70	N	1.634433	-0.388128	0.121748
C71	C	1.084244	-0.860881	-0.327995
C72	C	1.584244	-0.360881	0.172005
O73	O	1.041584	-0.889166	-0.285261
O74	O	1.541584	-0.389166	0.214739
C75	C	1.084218	-0.806277	-0.327984
C76	C	1.584218	-0.306277	0.172016
C77	C	1.134383	-0.778921	-0.378225
C78	C	1.634383	-0.278921	0.121775
C79	C	1.234727	-0.778808	-0.478718
C80	C	1.734727	-0.278808	0.021282
C81	C	1.234705	-0.724207	-0.478701
C82	C	1.734705	-0.224207	0.021299
C83	C	1.184522	-0.696964	-0.428446
C84	C	1.684522	-0.196964	0.071554
C85	C	1.134361	-0.724320	-0.378208
C86	C	1.634361	-0.224320	0.121792
C87	C	1.034026	-0.779031	-0.277731
C88	C	1.534026	-0.279031	0.222269
C89	C	1.034003	-0.724424	-0.277724
C90	C	1.534003	-0.224424	0.222276
C91	C	1.084169	-0.697067	-0.327966
C92	C	1.584169	-0.197067	0.172034
C93	C	1.084156	-0.642476	-0.327936
C94	C	1.584156	-0.142476	0.172064
N95	N	1.134312	-0.615116	-0.378179
N96	N	1.634312	-0.115116	0.121821
C97	C	1.184495	-0.642360	-0.428434
C98	C	1.684495	-0.142360	0.071566
C99	C	1.084303	-0.975551	-0.328024
C100	C	1.584303	-0.475551	0.171976
C101	C	1.084333	-1.030154	-0.328031
C102	C	1.584333	-0.530154	0.171969
C103	C	1.184677	-1.030038	-0.428533
C104	C	1.684677	-0.530038	0.071467
C105	C	1.184651	-0.975435	-0.428521
C106	C	1.684651	-0.475435	0.071479
C107	C	1.134460	-0.948192	-0.378268
C108	C	1.634460	-0.448192	0.121732
C109	C	1.184445	-0.527695	-0.428394
C110	C	1.684445	-0.027695	0.071606
C111	C	1.184421	-0.473090	-0.428370
C112	C	1.684421	0.026910	0.071630
C113	C	1.084074	-0.473210	-0.327871
C114	C	1.584074	0.026790	0.172129
C115	C	1.084101	-0.527811	-0.327892
C116	C	1.584101	-0.027811	0.172108
C117	C	1.134289	-0.555052	-0.378160
C118	C	1.634289	-0.055052	0.121840
O119	O	1.041516	-0.614242	-0.285201
O120	O	1.541516	-0.114242	0.214799
O121	O	1.227141	-0.614068	-0.471169
O122	O	1.727141	-0.114068	0.028831
C123	C	1.339068	-0.251904	-0.378206
C124	C	1.839068	0.248096	0.121794
C125	C	1.426318	-0.251910	-0.378218
C126	C	1.926318	0.248090	0.121782
C127	C	1.134372	-0.251851	-0.582921
C128	C	1.634372	0.248149	-0.082921
C129	C	1.134392	-0.251834	-0.670171
C130	C	1.634392	0.248166	-0.170171
C131	C	1.134457	-0.115516	-0.378255
C132	C	1.634457	0.384484	0.121745
C133	C	1.134513	-0.057402	-0.378289
C134	C	1.634513	0.442598	0.121711
C135	C	1.184632	-0.218395	-0.711189
C136	C	1.684632	0.281605	-0.211189
C137	C	1.184641	-0.218377	-0.793169
C138	C	1.684641	0.281623	-0.293169
C139	C	1.134414	-0.251803	-0.834130
C140	C	1.634414	0.248197	-0.334130
C141	C	1.084168	-0.285244	-0.793107
C142	C	1.584168	0.214756	-0.293107
C143	C	1.084156	-0.285258	-0.711128
C144	C	1.584156	0.214742	-0.211128
C145	C	1.084200	-0.285212	-0.963977
C146	C	1.584200	0.214788	-0.463977
C147	C	1.084214	-0.285199	-1.045961
C148	C	1.584214	0.214801	-0.545961
C149	C	1.184686	-0.218332	-1.046018
C150	C	1.684686	0.281668	-0.546018
C151	C	1.184673	-0.218346	-0.964039
C152	C	1.684673	0.281654	-0.464039
C153	C	1.134428	-0.251788	-0.923021
C154	C	1.634428	0.248212	-0.423021
C155	C	1.134322	-0.251890	-0.174229
C156	C	1.634322	0.248110	0.325771
C157	C	1.134454	-0.251759	-0.086979
C158	C	1.634454	0.248241	0.413021
H159	H	0.582580	-0.312489	-0.286945
H160	H	1.082580	0.187511	0.213055
H161	H	1.043273	-0.312436	-0.930582
H162	H	1.543273	0.187564	-0.430582
C163	C	1.239833	-0.945348	-0.483793
C164	C	1.739833	-0.445348	0.016207
N165	N	1.281397	-0.922689	-0.525428
N166	N	1.781397	-0.422689	-0.025428
H167	H	1.043258	-0.550086	-0.286975
H168	H	1.543258	-0.050086	0.213025
H169	H	0.835598	-0.191293	-0.469415
H170	H	1.335598	0.308707	0.030585
H171	H	1.275552	-0.701937	-0.519614
H172	H	1.775552	-0.201937	-0.019614
H173	H	1.225554	-0.191149	-0.826562
H174	H	1.725554	0.308851	-0.326562
C175	C	1.289944	-0.808768	-0.534001
C176	C	1.789944	-0.308768	-0.034001
N177	N	1.331544	-0.831330	-0.575637
N178	N	1.831544	-0.331330	-0.075637
C179	C	1.028889	-0.322045	-0.666008
C180	C	1.528889	0.177955	-0.166008
N181	N	0.987259	-0.349753	-0.632025
N182	N	1.487259	0.150247	-0.132025
C183	C	0.847128	-0.322014	-0.272531
C184	C	1.347128	0.177986	0.227469
N185	N	0.881049	-0.349685	-0.230857
N186	N	1.381049	0.150315	0.269143
H187	H	1.043270	-0.312457	-0.826464
H188	H	1.543270	0.187543	-0.326464
C189	C	1.239660	-0.557653	-0.483686
C190	C	1.739660	-0.057653	0.016314
N191	N	1.281253	-0.580216	-0.525327
N192	N	1.781253	-0.080216	-0.025327
C193	C	1.239874	-1.060017	-0.483821
C194	C	1.739874	-0.560017	0.016179
N195	N	1.281445	-1.082598	-0.525462
N196	N	1.781445	-0.582598	-0.025462
C197	C	0.674970	-0.322025	-0.272547
C198	C	1.174970	0.177975	0.227453
N199	N	0.640973	-0.349695	-0.230870
N200	N	1.140973	0.150305	0.269130
H201	H	0.434023	-0.191321	-0.469470
H202	H	0.934023	0.308679	0.030530
H203	H	0.582741	-0.191318	-0.469458
H204	H	1.082741	0.308682	0.030542
C205	C	1.029153	-1.060240	-0.272755
C206	C	1.529153	-0.560240	0.227245
N207	N	0.987586	-1.082899	-0.231123
N208	N	1.487586	-0.582899	0.268877
C209	C	1.028872	-0.443231	-0.272597
C210	C	1.528872	0.056769	0.227403
N211	N	0.987288	-0.420650	-0.230968
N212	N	1.487288	0.079350	0.269032
C213	C	1.029088	-0.945589	-0.272734
C214	C	1.529088	-0.445589	0.227266
N215	N	0.987498	-0.923024	-0.231091
N216	N	1.487498	-0.423024	0.268909
C217	C	0.422119	-0.322043	-0.272587
C218	C	0.922119	0.177957	0.227413
N219	N	0.388122	-0.349715	-0.230914
N220	N	0.888122	0.150285	0.269086
C221	C	0.675167	-0.181763	-0.483814
C222	C	1.175167	0.318237	0.016186
N223	N	0.641246	-0.154098	-0.525497
N224	N	1.141246	0.345902	-0.025497
H225	H	1.225535	-0.191178	-0.677844
H226	H	1.725535	0.308822	-0.177844
C227	C	1.239611	-0.443001	-0.483639
C228	C	1.739611	0.056999	0.016361
N229	N	1.281179	-0.420340	-0.525267
N230	N	1.781179	0.079660	-0.025267
H231	H	0.993176	-0.801295	-0.236819
H232	H	1.493176	-0.301295	0.263181
C233	C	1.239924	-0.181576	-0.918984
C234	C	1.739924	0.318424	-0.418984
N235	N	1.281537	-0.153877	-0.885048
N236	N	1.781537	0.346123	-0.385048
H237	H	0.993129	-0.702245	-0.236802
H238	H	1.493129	-0.202245	0.263198
C239	C	1.239955	-0.181545	-1.091140
C240	C	1.739955	0.318455	-0.591140
N241	N	1.281585	-0.153840	-1.125129
N242	N	1.781585	0.346160	-0.625129
H243	H	1.043312	-0.312415	-1.079310
H244	H	1.543312	0.187585	-0.579310
