data_functionalizedCrystal
_audit_creation_method	'MofGen! by Chris Wilmer'
_symmetry_space_group_name_H-M	'P1'
_symmetry_Int_Tables_number	1
_symmetry_cell_setting	triclinic
loop_
_symmetry_equiv_pos_as_xyz
  x,y,z
_cell_length_a	23.196402
_cell_length_b	31.640172
_cell_length_c	23.196401
_cell_angle_alpha	90.017286
_cell_angle_beta	60.007332
_cell_angle_gamma	60.002544
loop_
_atom_site_label
_atom_site_type_symbol
_atom_site_fract_x
_atom_site_fract_y
_atom_site_fract_z
Zr1	Zr	0.630908	0.407215	-0.075557
O2	O	0.751182	0.339718	-0.167616
O3	O	0.510642	0.427901	-0.047339
O4	O	0.630905	0.427888	-0.167605
O5	O	0.630917	0.339747	0.047521
O6	O	0.630893	0.497446	-0.167592
O7	O	0.630919	0.339731	-0.047350
O8	O	0.415765	0.497467	0.047542
O9	O	0.846046	0.339726	-0.167613
O10	O	0.560097	0.488640	-0.035291
O11	O	0.560105	0.436743	0.035501
O12	O	0.701699	0.436728	-0.106097
O13	O	0.701707	0.384831	-0.035305
Zr14	Zr	0.630886	0.518177	0.075772
Zr15	Zr	0.630888	0.518151	-0.075537
Zr16	Zr	0.630905	0.407242	0.075752
Zr17	Zr	0.782205	0.407227	-0.075551
Zr18	Zr	0.479589	0.518166	0.075767
O19	O	0.751151	0.497492	0.047554
O20	O	0.751155	0.497454	-0.167588
O21	O	0.751178	0.339756	0.047526
O22	O	0.510612	0.585674	0.167832
O23	O	0.510615	0.585637	-0.047310
O24	O	0.510639	0.427938	0.167803
O25	O	0.630876	0.585645	-0.047306
O26	O	0.630888	0.497504	0.167820
O27	O	0.630900	0.427947	0.167807
O28	O	0.630875	0.585662	0.047566
O29	O	0.846031	0.427904	-0.167597
O30	O	0.415763	0.497488	0.167812
O31	O	0.415748	0.585667	0.167828
O32	O	0.415750	0.585646	0.047558
O33	O	0.846044	0.339747	-0.047342
O34	O	0.846029	0.427925	-0.047326
O35	O	0.560095	0.488665	0.106312
O36	O	0.560087	0.540562	0.035520
O37	O	0.701689	0.488650	-0.035286
O38	O	0.701697	0.436753	0.035506
C39	C	0.441647	0.462682	0.000101
C40	C	0.377417	0.462678	0.000098
C41	C	0.294981	0.501007	0.052366
C42	C	0.234621	0.501010	0.052372
C43	C	0.256702	0.462689	0.000100
C44	C	0.339152	0.424353	-0.052172
C45	C	0.399509	0.424347	-0.052173
C46	C	0.201117	0.450746	-0.063694
C47	C	0.140758	0.450755	-0.063693
C48	C	0.070540	0.462702	0.000103
C49	C	0.060678	0.474652	0.063903
C50	C	0.121036	0.474647	0.063902
C51	C	0.191259	0.462690	0.000096
C52	C	-0.077350	0.501038	0.052382
C53	C	-0.137709	0.501038	0.052389
C54	C	-0.033176	0.424382	-0.052161
C55	C	0.027181	0.424380	-0.052162
C56	C	0.005089	0.462710	0.000109
C57	C	0.630921	0.323933	0.000082
C58	C	0.630929	0.276838	0.000074
C59	C	0.556974	0.011929	0.037082
C60	C	0.556960	-0.165056	0.037096
O61	O	0.494098	-0.164896	0.068554
N62	N	0.630874	-0.214283	0.000135
C63	C	0.704797	-0.219263	-0.036828
O64	O	0.767666	-0.265194	-0.068259
C65	C	0.704811	-0.042278	-0.036837
C66	C	0.630892	0.006948	0.000120
C67	C	0.483061	0.061154	0.074037
C68	C	0.483066	0.105397	0.074030
C69	C	0.556983	0.100416	0.037068
C70	C	0.630896	0.051192	0.000113
C71	C	0.778733	-0.047259	-0.073796
C72	C	0.778730	-0.003007	-0.073794
C73	C	0.704811	0.046219	-0.036836
C74	C	0.704818	0.090454	-0.036856
N75	N	0.630903	0.139681	0.000105
C76	C	0.556986	0.144662	0.037067
C77	C	0.704785	-0.312180	-0.036822
C78	C	0.704782	-0.356426	-0.036820
C79	C	0.556945	-0.302216	0.037105
C80	C	0.556949	-0.257970	0.037099
C81	C	0.630871	-0.262953	0.000139
C82	C	0.557001	0.237574	0.037049
C83	C	0.557011	0.281819	0.037036
C84	C	0.704848	0.227605	-0.036886
C85	C	0.704838	0.183364	-0.036876
C86	C	0.630908	0.188352	0.000096
O87	O	0.767647	0.090334	-0.068292
O88	O	0.494127	0.190598	0.068506
C89	C	0.556970	-0.032314	0.037089
C90	C	0.630883	-0.081538	0.000134
C91	C	0.704800	-0.086519	-0.036828
C92	C	0.630880	-0.125784	0.000135
C93	C	0.556963	-0.120803	0.037097
C94	C	0.483048	-0.071576	0.074058
C95	C	0.483053	-0.027333	0.074051
C96	C	0.778715	-0.135746	-0.073789
C97	C	0.778704	-0.179987	-0.073779
C98	C	0.704787	-0.175007	-0.036818
C99	C	0.820147	0.462710	0.000115
C100	C	0.884376	0.462715	0.000117
C101	C	0.630900	0.462663	-0.189157
C102	C	0.630901	0.462652	-0.253391
C103	C	0.630873	0.601460	0.000133
C104	C	0.630865	0.648555	0.000141
C105	C	0.704813	0.435557	-0.320524
C106	C	0.704814	0.435570	-0.380879
C107	C	0.630899	0.462671	-0.374098
C108	C	0.556976	0.489772	-0.306953
C109	C	0.556977	0.489762	-0.246600
C110	C	0.574273	0.458818	-0.441418
C111	C	0.574275	0.458824	-0.501771
C112	C	0.630892	0.462704	-0.560245
C113	C	0.687521	0.466568	-0.558365
C114	C	0.687522	0.466558	-0.498012
C115	C	0.630889	0.462685	-0.439536
C116	C	0.704811	0.435622	-0.692825
C117	C	0.704809	0.435639	-0.753180
C118	C	0.556969	0.489837	-0.679251
C119	C	0.556973	0.489824	-0.618898
C120	C	0.630897	0.462713	-0.625690
C121	C	0.630894	0.462730	0.189372
C122	C	0.630893	0.462741	0.253607
C123	C	0.441623	0.601446	0.000126
C124	C	0.377385	0.648536	0.000132
C125	C	0.441644	0.462716	0.189365
C126	C	0.377413	0.462722	0.253597
C127	C	0.441620	0.601479	0.189390
C128	C	0.377381	0.648580	0.253631
C129	C	0.820173	0.323914	-0.189175
C130	C	0.884412	0.276812	-0.253416
C131	C	0.820170	0.323947	0.000090
C132	C	0.884408	0.276857	0.000083
C133	C	0.820150	0.462677	-0.189150
C134	C	0.884380	0.462671	-0.253382
C135	C	0.347224	0.643547	-0.036834
C136	C	0.286874	0.687789	-0.036842
C137	C	0.256683	0.737020	0.000120
C138	C	0.286850	0.742007	0.037087
C139	C	0.347203	0.697766	0.037091
C140	C	0.347245	0.489828	0.320730
C141	C	0.286902	0.489832	0.381089
C142	C	0.256724	0.462733	0.374313
C143	C	0.286899	0.435624	0.307173
C144	C	0.347245	0.435617	0.246816
C145	C	0.347210	0.697794	0.246846
C146	C	0.286859	0.742055	0.307202
C147	C	0.256677	0.737102	0.374341
C148	C	0.286854	0.687883	0.381124
C149	C	0.347208	0.643623	0.320769
C150	C	0.914591	0.227599	-0.246631
C151	C	0.974960	0.183337	-0.306986
C152	C	1.005146	0.188291	-0.374125
C153	C	0.974965	0.237510	-0.380909
C154	C	0.914601	0.281770	-0.320554
C155	C	0.914576	0.281846	0.037043
C156	C	0.974943	0.237603	0.037035
C157	C	1.005136	0.188373	0.000070
C158	C	0.974966	0.183386	-0.036894
C159	C	0.914604	0.227627	-0.036889
C160	C	0.914539	0.489775	-0.246583
C161	C	0.974882	0.489779	-0.306931
C162	C	1.005070	0.462675	-0.374076
C163	C	0.974906	0.435570	-0.380873
C164	C	0.914559	0.435570	-0.320526
H165	H	0.113004	0.484375	0.115850
C166	C	1.008170	0.242951	-0.454769
N167	N	1.033178	0.247047	-0.510402
C168	C	0.860027	-0.234136	-0.114440
N169	N	0.921278	-0.274918	-0.145059
C170	C	0.860053	-0.008495	-0.114456
N171	N	0.921305	-0.012629	-0.145086
H172	H	1.054298	0.152248	-0.423264
C173	C	0.881339	0.519596	-0.172729
N174	N	0.856332	0.542063	-0.117104
H175	H	0.999497	0.241675	0.067138
C176	C	1.008055	0.519595	-0.299438
N177	N	1.033041	0.542052	-0.293792
C178	C	0.881401	0.335905	-0.328029
N179	N	0.856397	0.376678	-0.333665
C180	C	0.253625	0.796166	0.077748
N181	N	0.228593	0.836959	0.108379
H182	H	0.276986	0.532218	0.094930
H183	H	0.422866	0.065218	0.104139
C184	C	0.190280	0.785794	0.440726
N185	N	0.140266	0.822472	0.490725
C186	C	0.253638	0.682442	0.454984
N187	N	0.228613	0.678346	0.510617
C188	C	1.008147	0.129202	-0.299509
N189	N	1.033141	0.088428	-0.293875
C190	C	0.749805	0.470815	-0.495942
N191	N	0.796714	0.474025	-0.494382
H192	H	0.262319	0.683718	-0.066945
H193	H	0.371800	0.413546	0.192155
H194	H	0.496815	0.321902	0.067133
H195	H	0.422860	0.012746	0.104147
H196	H	1.054286	0.152353	0.000073
C197	C	0.380427	0.589398	-0.077503
N198	N	0.405437	0.548614	-0.108141
H199	H	-0.095339	0.532246	0.094948
H200	H	0.371753	0.701835	0.067197
H201	H	0.262295	0.782128	0.301666
H202	H	1.054209	0.462680	-0.423208
C203	C	1.008176	0.129227	-0.077540
N204	N	1.033186	0.088434	-0.108149
C205	C	0.881403	0.222137	-0.172783
N206	N	0.856414	0.218018	-0.117163
H207	H	0.167489	0.532223	0.094937
C208	C	0.190287	0.785682	0.000114
N209	N	0.140275	0.822333	0.000110
C210	C	0.786152	0.129213	-0.077534
N211	N	0.847400	0.088429	-0.108152
H212	H	0.371776	0.701838	0.192184
C213	C	0.881378	0.335995	0.077706
N214	N	0.856382	0.376779	0.108331
C215	C	0.511986	0.454571	-0.503834
N216	N	0.465068	0.451367	-0.505386
H217	H	0.890043	0.223558	-0.066984
H218	H	0.999495	0.413503	-0.435550
H219	H	0.207587	0.462743	0.423466
H220	H	0.890011	0.413496	-0.326071
H221	H	0.003506	0.484377	0.115852
C222	C	-0.228396	0.543211	0.109883
N223	N	-0.296702	0.574979	0.153185
H224	H	0.262319	0.413561	0.301667
C225	C	0.380433	0.519638	0.328201
N226	N	0.405431	0.542089	0.333834
C227	C	0.860034	-0.141235	-0.114460
N228	N	0.921290	-0.145374	-0.145101
C229	C	0.117867	0.382219	-0.109668
N230	N	0.186174	0.350462	-0.152984
C231	C	-0.008883	0.382227	-0.109660
N232	N	0.009414	0.350474	-0.152970
C233	C	0.151620	0.437600	-0.133875
N234	N	0.159808	0.427685	-0.186739
H235	H	0.496786	0.511904	-0.673728
H236	H	0.258295	0.441012	-0.115649
H237	H	0.357126	0.393150	-0.094731
H238	H	0.466636	0.393133	-0.094735
C239	C	0.475673	0.243069	0.077714
N240	N	0.414417	0.247208	0.108339
H241	H	0.371766	0.603552	0.326303
H242	H	0.765030	0.223558	-0.066982
H243	H	0.422873	0.145476	0.104121
C244	C	0.475633	-0.203823	0.077759
N245	N	0.414382	-0.163040	0.108389
H246	H	0.496758	-0.298167	0.067196
H247	H	0.764975	-0.396505	-0.066924
C248	C	0.401739	-0.066106	0.114717
N249	N	0.340500	-0.061989	0.145344
H250	H	0.764985	-0.316246	-0.066924
C251	C	0.786127	0.405763	-0.454737
N252	N	0.847372	0.383311	-0.510364
H253	H	0.496794	0.511838	-0.301435
C254	C	0.786128	0.405806	-0.700294
N255	N	0.847376	0.383350	-0.705922
C256	C	0.475662	0.519624	-0.545047
N257	N	0.414415	0.542072	-0.489421
C258	C	0.749803	0.470838	-0.622684
N259	N	0.796713	0.474054	-0.671131
H260	H	0.765007	0.413484	-0.326061
C261	C	0.253713	0.519661	0.454936
N262	N	0.228715	0.542130	0.510556
C263	C	0.511988	0.454548	-0.377099
N264	N	0.465076	0.451331	-0.328655
H265	H	0.838926	-0.087334	-0.103890
H266	H	0.765000	0.413577	-0.807844
H267	H	0.496787	0.511827	-0.191935
