data_functionalizedCrystal
_audit_creation_method	'MofGen! by Chris Wilmer'
_symmetry_space_group_name_H-M	'P1'
_symmetry_Int_Tables_number	1
_symmetry_cell_setting	triclinic
loop_
_symmetry_equiv_pos_as_xyz
  x,y,z
_cell_length_a	10.654559
_cell_length_b	9.065218
_cell_length_c	8.140239
_cell_angle_alpha	89.998354
_cell_angle_beta	89.996006
_cell_angle_gamma	84.752271
loop_
_atom_site_label
_atom_site_type_symbol
_atom_site_fract_x
_atom_site_fract_y
_atom_site_fract_z
O1	O	1.668654	0.207296	-0.136627
O2	O	1.303255	0.227026	-0.136625
O3	O	1.493507	0.002478	-0.136621
O4	O	1.478402	0.431844	-0.136631
O5	O	1.493494	0.002477	0.136606
O6	O	1.303241	0.227025	0.136602
O7	O	1.668640	0.207295	0.136601
Zn8	Zn	1.485939	0.217160	0.179982
Zn9	Zn	1.485957	0.217161	-0.180007
O10	O	1.478388	0.431844	0.136596
C11	C	1.256445	0.225574	-0.000011
C12	C	1.116985	0.221231	-0.000011
C13	C	1.064905	0.084939	-0.000006
C14	C	0.933867	0.080867	-0.000021
C15	C	0.906998	0.349393	-0.000038
C16	C	1.038034	0.353463	-0.000035
C17	C	0.770935	-0.085995	-0.095743
C18	C	0.718852	-0.222295	-0.095710
C19	C	0.773235	-0.339511	0.000040
C20	C	0.879700	-0.320434	0.095797
C21	C	0.931776	-0.184132	0.095778
C22	C	0.877395	-0.066921	-0.000010
C23	C	1.200970	0.520316	0.095701
C24	C	1.253048	0.656619	0.095695
C25	C	1.198667	0.773848	-0.000045
C26	C	1.092196	0.754785	-0.095778
C27	C	1.040118	0.618482	-0.095771
C28	C	1.094509	0.501253	-0.000034
C29	C	1.492049	-0.052502	-0.000010
C30	C	1.487708	-0.216321	-0.000017
C31	C	1.715451	0.208747	-0.000017
C32	C	1.854911	0.213090	-0.000028
C33	C	1.479847	0.486823	-0.000018
C34	C	1.484188	0.650642	-0.000022
N35	N	1.485936	0.217159	0.425664
N36	N	1.485959	0.217158	0.574311
H37	H	1.245266	0.424859	0.173656
O38	O	0.717063	-0.486521	0.000077
H39	H	0.687571	-0.512824	0.126719
O40	O	0.604027	-0.242882	-0.198985
H41	H	0.574969	-0.138482	-0.265601
H42	H	0.953418	0.602969	-0.173722
O43	O	1.367885	0.677193	0.198949
H44	H	1.396967	0.572772	0.265510
H45	H	0.726655	0.009437	-0.173735
O46	O	1.150065	-0.057673	0.000002
H47	H	1.091830	-0.153129	-0.000013
O48	O	1.254808	0.920883	-0.000031
H49	H	1.284280	0.947234	-0.126668
H50	H	0.923963	-0.415883	0.173776
O51	O	1.046611	-0.163545	0.199017
H52	H	1.075687	-0.267956	0.265600
O53	O	0.821838	0.492005	-0.000026
H54	H	0.761487	0.496573	-0.111376
O55	O	1.033529	0.881216	-0.199054
H56	H	1.087636	0.979193	-0.182989
