data_functionalizedCrystal
_audit_creation_method	'MofGen! by Chris Wilmer'
_symmetry_space_group_name_H-M	'P1'
_symmetry_Int_Tables_number	1
_symmetry_cell_setting	triclinic
loop_
_symmetry_equiv_pos_as_xyz
  x,y,z
_cell_length_a	18.215407
_cell_length_b	10.686285
_cell_length_c	18.215399
_cell_angle_alpha	94.390852
_cell_angle_beta	90.017368
_cell_angle_gamma	85.629207
loop_
_atom_site_label
_atom_site_type_symbol
_atom_site_fract_x
_atom_site_fract_y
_atom_site_fract_z
Zn1	Zn	1.147644	-0.502447	0.393650
Zn2	Zn	1.647644	-0.002447	0.893650
Zn3	Zn	1.157032	-0.713463	0.261169
Zn4	Zn	1.657032	-0.213463	0.761169
Zn5	Zn	1.024578	-0.502477	0.270601
Zn6	Zn	1.524578	-0.002477	0.770601
Zn7	Zn	1.034018	-0.713382	0.384203
Zn8	Zn	1.534018	-0.213382	0.884203
O9	O	1.090818	-0.607942	0.327406
O10	O	1.590818	-0.107942	0.827406
O11	O	1.251874	-0.530460	0.376082
O12	O	1.751874	-0.030460	0.876082
O13	O	1.139439	-0.685522	0.159434
O14	O	1.639439	-0.185522	0.659434
O15	O	1.033023	-0.325897	0.294825
O16	O	1.533023	0.174103	0.794825
O17	O	1.258772	-0.685493	0.278749
O18	O	1.758772	-0.185493	0.778749
O19	O	1.123439	-0.325875	0.385229
O20	O	1.623439	0.174125	0.885229
O21	O	1.042126	-0.530511	0.166364
O22	O	1.542126	-0.030511	0.666364
O23	O	0.922845	-0.530433	0.285665
O24	O	1.422845	-0.030433	0.785665
O25	O	1.049113	-0.685354	0.488442
O26	O	1.549113	-0.185354	0.988442
O27	O	0.929781	-0.685384	0.369127
O28	O	1.429781	-0.185384	0.869127
O29	O	1.132593	-0.530381	0.495383
O30	O	1.632593	-0.030381	0.995383
O31	O	1.148594	-0.890028	0.269588
O32	O	1.648594	-0.390028	0.769588
O33	O	1.058216	-0.889969	0.359981
O34	O	1.558216	-0.389969	0.859981
C35	C	0.899610	-0.607904	0.327395
C36	C	1.399610	-0.107904	0.827395
C37	C	0.817812	-0.607917	0.327406
C38	C	1.317812	-0.107917	0.827406
C39	C	0.626033	-0.527358	0.378154
C40	C	1.126033	-0.027358	0.878154
C41	C	0.549174	-0.527369	0.378156
C42	C	1.049174	-0.027369	0.878156
C43	C	0.556357	-0.688562	0.276668
C44	C	1.056357	-0.188562	0.776668
C45	C	0.633213	-0.688544	0.276664
C46	C	1.133213	-0.188544	0.776664
C47	C	0.668049	-0.607944	0.327411
C48	C	1.168049	-0.107944	0.827411
C49	C	0.514334	-0.607973	0.327417
C50	C	1.014334	-0.107973	0.827417
C51	C	0.431001	-0.607985	0.327419
C52	C	0.931001	-0.107985	0.827419
C53	C	0.751388	-0.607929	0.327408
C54	C	1.251388	-0.107929	0.827408
C55	C	1.105468	-0.935783	0.312752
C56	C	1.605468	-0.435783	0.812752
C57	C	1.111803	-1.076034	0.306507
C58	C	1.611803	-0.576034	0.806507
C59	C	1.282772	-0.607982	0.327417
C60	C	1.782772	-0.107982	0.827417
C61	C	1.364572	-0.607999	0.327422
C62	C	1.864572	-0.107999	0.827422
C63	C	1.090859	-0.607855	0.519363
C64	C	1.590859	-0.107855	1.019363
C65	C	1.090876	-0.607818	0.601163
C66	C	1.590876	-0.107818	1.101163
C67	C	1.076131	-0.278822	0.342133
C68	C	1.576131	0.221178	0.842133
C69	C	1.069872	-0.138570	0.348409
C70	C	1.569872	0.361430	0.848409
C71	C	1.090815	-0.607938	0.136200
C72	C	1.590815	-0.107938	0.636200
C73	C	1.090924	-0.607620	0.054415
C74	C	1.590924	-0.107620	0.554415
C75	C	1.134358	-0.527048	0.792976
C76	C	1.634358	-0.027048	1.292976
C77	C	1.134365	-0.527011	0.869836
C78	C	1.634365	-0.027011	1.369836
C79	C	1.047438	-0.688393	0.862597
C80	C	1.547438	-0.188393	1.362597
C81	C	1.047427	-0.688423	0.785738
C82	C	1.547427	-0.188423	1.285738
C83	C	1.090891	-0.607752	0.750930
C84	C	1.590891	-0.107752	1.250930
C85	C	1.090909	-0.607686	0.904649
C86	C	1.590909	-0.107686	1.404649
C87	C	1.090917	-0.607647	0.987984
C88	C	1.590917	-0.107647	1.487984
C89	C	1.090883	-0.607789	0.667589
C90	C	1.590883	-0.107789	1.167589
H91	H	0.527984	-0.754185	0.235353
H92	H	1.027984	-0.254185	0.735353
H93	H	1.152545	-1.129797	0.265848
H94	H	1.652545	-0.629797	0.765848
F95	F	1.016615	-1.068309	0.401545
F96	F	1.516615	-0.568309	0.901545
H97	H	1.169758	-0.461292	0.904067
H98	H	1.669758	0.038708	1.404067
F99	F	1.180614	-0.441188	0.755933
F100	F	1.680614	0.058812	1.255933
H101	H	1.012052	-0.754075	0.890948
H102	H	1.512052	-0.254075	1.390948
F103	F	1.001158	-0.774317	0.740987
F104	F	1.501158	-0.274317	1.240987
H105	H	0.654393	-0.461724	0.419474
H106	H	1.154393	0.038276	0.919474
H107	H	0.667424	-0.754168	0.235338
H108	H	1.167424	-0.254168	0.735338
F109	F	0.504460	-0.441596	0.432164
F110	F	1.004460	0.058404	0.932164
