data_functionalizedCrystal
_audit_creation_method	'MofGen! by Chris Wilmer'
_symmetry_space_group_name_H-M	'P1'
_symmetry_Int_Tables_number	1
_symmetry_cell_setting	triclinic
loop_
_symmetry_equiv_pos_as_xyz
  x,y,z
_cell_length_a	12.645331
_cell_length_b	18.050589
_cell_length_c	12.645323
_cell_angle_alpha	89.974557
_cell_angle_beta	89.977324
_cell_angle_gamma	90.027200
loop_
_atom_site_label
_atom_site_type_symbol
_atom_site_fract_x
_atom_site_fract_y
_atom_site_fract_z
Zn1	Zn	1.620654	-0.295674	-0.599442
Zn2	Zn	1.620503	-0.419873	-0.422180
Zn3	Zn	1.443368	-0.295699	-0.422186
Zn4	Zn	1.443317	-0.419824	-0.599396
O5	O	1.531961	-0.357767	-0.510801
O6	O	1.768981	-0.312159	-0.575945
O7	O	1.596964	-0.403432	-0.273834
O8	O	1.466970	-0.191771	-0.445722
O9	O	1.768870	-0.403407	-0.445711
O10	O	1.597221	-0.191753	-0.575951
O11	O	1.466824	-0.312202	-0.273838
O12	O	1.295014	-0.312155	-0.445677
O13	O	1.466883	-0.403325	-0.747749
O14	O	1.294977	-0.403349	-0.575872
O15	O	1.597172	-0.312112	-0.747783
O16	O	1.596914	-0.523791	-0.445666
O17	O	1.466737	-0.523755	-0.575866
C18	C	1.256531	-0.357750	-0.510770
C19	C	1.138701	-0.357760	-0.510783
C20	C	0.971125	-0.300126	-0.429329
C21	C	1.093685	-0.300275	-0.428970
C22	C	1.094160	-0.435993	-0.480267
C23	C	0.971562	-0.435678	-0.479711
C24	C	0.971557	-0.337906	-0.623067
C25	C	1.094163	-0.336158	-0.622443
C26	C	1.531833	-0.550720	-0.510784
C27	C	1.531875	-0.633265	-0.510811
C28	C	1.461154	-0.832724	-0.581589
C29	C	1.435307	-0.882166	-0.484854
C30	C	1.531979	-0.784396	-0.510825
C31	C	1.557878	-0.882035	-0.607571
C32	C	1.532078	-0.930381	-0.510847
C33	C	1.506082	-0.832751	-0.414039
C34	C	1.628697	-0.832616	-0.536821
C35	C	1.602887	-0.882036	-0.440020
C36	C	1.531919	-0.700297	-0.510814
C37	C	1.532137	-1.014477	-0.510847
C38	C	1.808466	-0.357786	-0.510832
C39	C	1.926296	-0.357793	-0.510846
C40	C	1.532039	-0.357710	-0.787307
C41	C	1.532072	-0.357686	-0.905137
C42	C	1.532118	-0.164062	-0.510842
C43	C	1.532185	-0.081516	-0.510859
C44	C	1.449855	-0.414797	-1.072679
C45	C	1.450070	-0.415080	-0.950119
C46	C	1.643766	-0.378927	-0.949656
C47	C	1.643315	-0.379285	-1.072254
C48	C	1.503651	-0.279014	-1.072336
C49	C	1.501159	-0.279485	-0.949729
C50	C	1.531944	-0.357771	-0.235371
C51	C	1.532116	-0.357586	-0.117542
H52	H	1.122959	-0.313420	-0.345809
O53	O	1.132732	-0.259901	-0.652939
H54	H	1.183417	-0.237474	-0.588848
O55	O	1.727225	-0.326449	-1.111527
H56	H	1.689712	-0.282567	-1.160235
O57	O	1.397633	-0.253374	-1.113250
H58	H	1.400191	-0.250125	-1.200869
H59	H	1.418962	-0.263466	-0.920630
O60	O	1.134739	-0.387732	-0.707215
H61	H	1.066937	-0.415861	-0.745870
O62	O	1.574729	-0.220031	-0.909187
H63	H	1.634748	-0.245405	-0.856391
O64	O	1.586852	-0.910710	-0.715932
H65	H	1.527892	-0.890959	-0.774503
H66	H	1.563566	-0.236389	-1.101350
O67	O	1.327024	-0.910994	-0.455722
H68	H	1.296035	-0.945686	-0.521210
H69	H	1.468859	-0.473329	-0.920805
H70	H	0.942567	-0.379909	-0.683804
H71	H	1.710423	-0.810837	-0.558835
H72	H	1.667445	-0.436723	-1.100864
O73	O	1.133591	-0.223427	-0.454270
H74	H	1.065322	-0.185821	-0.466871
H75	H	1.123318	-0.480108	-0.537776
O76	O	0.932051	-0.223054	-0.454327
H77	H	0.880265	-0.225022	-0.525121
O78	O	1.476991	-0.804195	-0.305646
H79	H	1.535494	-0.824405	-0.246936
H80	H	1.367244	-0.401788	-0.920018
O81	O	1.339812	-0.397357	-1.111709
H82	H	1.283249	-0.438455	-1.079000
O83	O	0.930295	-0.317350	-0.319810
H84	H	0.878210	-0.366804	-0.323184
O85	O	0.933597	-0.458007	-0.371040
H86	H	1.002803	-0.468924	-0.319378
H87	H	1.668310	-0.435763	-0.918967
O88	O	0.932264	-0.494512	-0.554931
H89	H	1.000829	-0.523068	-0.591533
O90	O	1.682285	-0.910543	-0.360684
H91	H	1.660580	-0.890698	-0.280499
O92	O	1.474453	-0.491470	-1.113541
H93	H	1.545020	-0.489009	-1.165654
H94	H	1.401172	-0.811071	-0.641347
H95	H	1.124811	-0.453148	-0.399108
H96	H	1.706699	-0.338575	-0.920522
H97	H	0.940675	-0.281854	-0.650819
