data_functionalizedCrystal
_audit_creation_method	'MofGen! by Chris Wilmer'
_symmetry_space_group_name_H-M	'P1'
_symmetry_Int_Tables_number	1
_symmetry_cell_setting	triclinic
loop_
_symmetry_equiv_pos_as_xyz
  x,y,z
_cell_length_a	21.295417
_cell_length_b	14.908783
_cell_length_c	14.908308
_cell_angle_alpha	89.788727
_cell_angle_beta	93.260635
_cell_angle_gamma	93.321081
loop_
_atom_site_label
_atom_site_type_symbol
_atom_site_fract_x
_atom_site_fract_y
_atom_site_fract_z
Zn1	Zn	-0.220173	1.345261	-0.587798
Zn2	Zn	-0.319050	1.353817	-0.437424
Zn3	Zn	-0.219492	1.203574	-0.428769
Zn4	Zn	-0.331104	1.194840	-0.579044
O5	O	-0.272455	1.274373	-0.508259
O6	O	-0.228530	1.472225	-0.575136
O7	O	-0.300514	1.341124	-0.310453
O8	O	-0.131491	1.222444	-0.449907
O9	O	-0.301174	1.478511	-0.464657
O10	O	-0.131992	1.326540	-0.566744
O11	O	-0.227369	1.230741	-0.304095
O12	O	-0.239057	1.076587	-0.441418
O13	O	-0.321719	1.207557	-0.706027
O14	O	-0.321058	1.070170	-0.551824
O15	O	-0.240218	1.318071	-0.712459
O16	O	-0.408740	1.332654	-0.456168
O17	O	-0.417596	1.215854	-0.560216
C18	C	-0.281292	1.040752	-0.494732
C19	C	-0.285089	0.940807	-0.488967
C20	C	-0.216696	0.746441	-0.593351
C21	C	-0.220261	0.652533	-0.587937
C22	C	-0.295781	0.659082	-0.472721
C23	C	-0.292216	0.752990	-0.478135
C24	C	-0.252672	0.796666	-0.538453
C25	C	-0.249111	0.890575	-0.543871
C26	C	-0.324627	0.897123	-0.428651
C27	C	-0.328192	0.803215	-0.423237
C28	C	-0.436009	1.274258	-0.508202
C29	C	-0.505976	1.274289	-0.508213
C30	C	-0.534211	1.335155	-0.454097
C31	C	-0.599953	1.335196	-0.454120
C32	C	-0.637457	1.274356	-0.508248
C33	C	-0.609215	1.213486	-0.562374
C34	C	-0.543474	1.213453	-0.562357
N35	N	-0.743994	1.195300	-0.510548
N36	N	-0.806445	1.195335	-0.510559
C37	C	-0.835530	1.274454	-0.508305
N38	N	-0.799805	1.353539	-0.506021
N39	N	-0.737349	1.353504	-0.506005
C40	C	-0.708742	1.274386	-0.508273
C41	C	-0.935050	1.335369	-0.454211
C42	C	-1.000793	1.335411	-0.454240
C43	C	-1.010054	1.213693	-0.562489
C44	C	-0.944312	1.213658	-0.562466
C45	C	-0.906814	1.274495	-0.508322
C46	C	-0.108262	1.274512	-0.508337
C47	C	-0.038293	1.274571	-0.508370
C48	C	-0.282389	1.260885	-0.742780
C49	C	-0.286622	1.255138	-0.842719
C50	C	-0.263583	1.508906	-0.521838
C51	C	-0.259803	1.608850	-0.527625
C52	C	-0.209696	1.359412	-1.037213
C53	C	-0.213671	1.354015	-1.131115
C54	C	-0.298545	1.238941	-1.124425
C55	C	-0.294569	1.244339	-1.030524
C56	C	-0.250144	1.304577	-0.986921
C57	C	-0.246172	1.309979	-0.893018
C58	C	-0.331042	1.194901	-0.886330
C59	C	-0.335018	1.189503	-0.980231
C60	C	-0.262512	1.287860	-0.274653
C61	C	-0.258095	1.293782	-0.174725
H62	H	-0.327967	0.623505	-0.423603
C63	C	-0.492967	1.402082	-0.394552
H64	H	-0.519202	1.438343	-0.362332
H65	H	-0.466993	1.369964	-0.353351
H66	H	-0.467264	1.439244	-0.431247
C67	C	-0.631019	1.402144	-0.394583
H68	H	-0.599270	1.438366	-0.362330
H69	H	-0.656607	1.439330	-0.431275
H70	H	-0.656336	1.370030	-0.353397
C71	C	-0.371688	0.755166	-0.356896
H72	H	-0.368663	0.692044	-0.361537
H73	H	-0.359275	0.774021	-0.297393
H74	H	-0.413968	0.769783	-0.370845
H75	H	-0.180732	1.398665	-1.172060
C76	C	-0.205615	0.938618	-0.610215
H77	H	-0.184694	0.895253	-0.642128
H78	H	-0.229999	0.972998	-0.651444
H79	H	-0.175304	0.977232	-0.577995
C80	C	-0.173206	0.794487	-0.659701
H81	H	-0.152288	0.751124	-0.691621
H82	H	-0.197595	0.828867	-0.700923
H83	H	-0.142892	0.833101	-0.627486
H84	H	-0.190964	0.611643	-0.632639
C85	C	-1.051301	1.146774	-0.622034
H86	H	-1.094498	1.155508	-0.614293
H87	H	-1.042559	1.156405	-0.683212
H88	H	-1.042300	1.087119	-0.605322
C89	C	-0.197308	1.376235	-0.845052
H90	H	-0.200735	1.371604	-0.781924
H91	H	-0.156162	1.362222	-0.859697
H92	H	-0.204887	1.435762	-0.863935
H93	H	-0.371186	1.140457	-1.015745
C94	C	-0.364203	0.952372	-0.368261
H95	H	-0.356416	1.014556	-0.380120
H96	H	-0.407649	0.936205	-0.380423
H97	H	-0.352950	0.940449	-0.306980
H98	H	-0.520485	1.163888	-0.606425
C99	C	-0.913252	1.146695	-0.621982
H100	H	-0.945002	1.110460	-0.654216
H101	H	-0.887929	1.178787	-0.663169
H102	H	-0.887669	1.109510	-0.585271
C103	C	-0.347401	1.172677	-1.172398
H104	H	-0.343973	1.177319	-1.235525
H105	H	-0.339822	1.113156	-1.153513
H106	H	-0.388552	1.186688	-1.157763
H107	H	-0.363980	1.150252	-0.845371
H108	H	-0.173526	1.408466	-1.001712
H109	H	-0.639755	1.163951	-0.606447
H110	H	-0.904517	1.384908	-0.410126
H111	H	-1.023780	1.384980	-0.410175
