data_functionalizedCrystal
_audit_creation_method	'MofGen! by Chris Wilmer'
_symmetry_space_group_name_H-M	'P1'
_symmetry_Int_Tables_number	1
_symmetry_cell_setting	triclinic
loop_
_symmetry_equiv_pos_as_xyz
  x,y,z
_cell_length_a	27.440280
_cell_length_b	17.052993
_cell_length_c	17.052832
_cell_angle_alpha	62.965436
_cell_angle_beta	77.679800
_cell_angle_gamma	67.545568
loop_
_atom_site_label
_atom_site_type_symbol
_atom_site_fract_x
_atom_site_fract_y
_atom_site_fract_z
Zr1	Zr	0.558174	0.721066	0.052038
O2	O	0.511586	0.858519	-0.046118
O3	O	0.562581	0.583620	0.061323
O4	O	0.599018	0.721062	-0.076129
O5	O	0.457640	0.721079	0.223425
O6	O	0.679220	0.721051	-0.076136
O7	O	0.475149	0.721077	0.091334
O8	O	0.614040	0.475193	0.169740
O9	O	0.522820	0.966937	-0.022451
O10	O	0.636245	0.640143	0.090413
O11	O	0.563324	0.640152	0.188997
O12	O	0.606225	0.801973	0.027165
O13	O	0.533305	0.801982	0.125748
Zr14	Zr	0.658162	0.721052	0.262696
Zr15	Zr	0.686087	0.721050	0.052026
Zr16	Zr	0.530249	0.721069	0.262707
Zr17	Zr	0.576090	0.893981	0.089783
Zr18	Zr	0.640246	0.548137	0.224951
O19	O	0.653755	0.858499	0.253411
O20	O	0.693461	0.858495	-0.046134
O21	O	0.471880	0.858522	0.253427
O22	O	0.704750	0.583599	0.360852
O23	O	0.744456	0.583596	0.061306
O24	O	0.522875	0.583623	0.360868
O25	O	0.758696	0.721040	0.091309
O26	O	0.617318	0.721057	0.390863
O27	O	0.537116	0.721067	0.390870
O28	O	0.741187	0.721041	0.223400
O29	O	0.624493	0.966924	-0.022460
O30	O	0.591843	0.475194	0.337194
O31	O	0.693516	0.475181	0.337185
O32	O	0.715713	0.475179	0.169731
O33	O	0.500623	0.966939	0.145003
O34	O	0.602296	0.966926	0.144994
O35	O	0.610111	0.640146	0.287569
O36	O	0.683031	0.640137	0.188986
O37	O	0.653012	0.801966	0.125737
O38	O	0.580091	0.801975	0.224320
C39	C	0.585758	0.504770	0.110153
C40	C	0.578152	0.431363	0.094130
C41	C	0.546226	0.456621	0.026871
C42	C	0.539079	0.387657	0.011807
C43	C	0.563854	0.293429	0.064005
C44	C	0.595778	0.268170	0.131269
C45	C	0.602929	0.337140	0.146330
C46	C	0.620558	0.173948	0.183464
C47	C	0.652482	0.148689	0.250728
C48	C	0.659631	0.217654	0.265786
C49	C	0.634855	0.311882	0.213589
C50	C	0.613407	0.104978	0.168404
C51	C	0.670110	-0.014502	0.287863
C52	C	0.677257	0.054461	0.302926
C53	C	0.448169	0.721080	0.157381
C54	C	0.393867	0.721087	0.157386
C55	C	0.066812	0.721038	0.084591
C56	C	0.015794	0.721031	0.084589
O57	O	-0.002384	0.720995	0.022714
N58	N	-0.019370	0.721033	0.157358
C59	C	-0.003511	0.721033	0.230138
O60	O	-0.038104	0.721034	0.292034
C61	C	0.047508	0.721033	0.230141
C62	C	0.082668	0.721040	0.157364
C63	C	0.101971	0.721043	0.011820
C64	C	0.152986	0.721052	0.011821
C65	C	0.168842	0.721054	0.084594
C66	C	0.133683	0.721048	0.157365
C67	C	0.063368	0.721026	0.302923
C68	C	0.114391	0.721025	0.302921
C69	C	0.149551	0.721032	0.230143
C70	C	0.200553	0.721059	0.230140
N71	N	0.235716	0.721057	0.157371
C72	C	0.219861	0.721054	0.084598
C73	C	-0.110653	0.721032	0.230125
C74	C	-0.161672	0.721038	0.230119
C75	C	-0.142364	0.721034	0.084571
C76	C	-0.091345	0.721034	0.084575
C77	C	-0.075489	0.721029	0.157356
C78	C	0.326994	0.721073	0.084606
C79	C	0.378012	0.721085	0.084613
C80	C	0.358700	0.721084	0.230163
C81	C	0.307686	0.721077	0.230155
C82	C	0.291836	0.721068	0.157371
O83	O	0.218768	0.721091	0.291985
O84	O	0.254461	0.721041	0.022717
C85	C	0.768167	0.721038	0.157353
C86	C	0.822469	0.721031	0.157348
C87	C	0.643098	0.721056	-0.106149
C88	C	0.654953	0.721055	-0.195583
C89	C	0.630578	0.937349	0.204580
C90	C	0.638184	1.010755	0.220604
C91	C	0.511628	0.721067	-0.447663
C92	C	0.500490	0.721062	-0.363632
C93	C	0.539105	0.721061	-0.321616
C94	C	0.588860	0.721063	-0.363639
C95	C	0.600000	0.721061	-0.447675
C96	C	0.627477	0.721055	-0.321628
C97	C	0.677232	0.721058	-0.363650
C98	C	0.688370	0.721056	-0.447678
C99	C	0.649755	0.721057	-0.489695
C100	C	0.616336	0.721057	-0.237592
C101	C	0.704708	0.721051	-0.237603
C102	C	0.715846	0.721056	-0.321634
C103	C	0.573238	0.721062	0.420882
C104	C	0.561383	0.721063	0.510317
C105	C	0.745756	0.504748	0.110139
C106	C	0.792453	0.431335	0.094111
C107	C	0.550828	0.504773	0.373669
C108	C	0.531367	0.431367	0.447080
C109	C	0.710827	0.504751	0.373655
C110	C	0.745668	0.431339	0.447061
C111	C	0.505510	0.937367	-0.058921
C112	C	0.470668	1.010780	-0.132327
C113	C	0.470580	0.937370	0.204595
C114	C	0.423883	1.010784	0.220623
C115	C	0.665508	0.937346	-0.058935
C116	C	0.684969	1.010751	-0.132346
C117	C	0.789961	0.396862	0.035121
C118	C	0.833836	0.327892	0.020042
C119	C	0.880200	0.293390	0.063960
C120	C	0.882692	0.327869	0.122953
C121	C	0.838819	0.396843	0.138025
C122	C	0.546649	0.396891	0.533017
C123	C	0.528361	0.327928	0.602005
C124	C	0.494795	0.293438	0.585052
C125	C	0.479511	0.327920	0.499106
C126	C	0.497796	0.396886	0.430122
C127	C	0.800099	0.396858	0.430074
C128	C	0.832843	0.327889	0.499041
C129	C	0.811155	0.293396	0.584993
C130	C	0.756719	0.327883	0.601980
C131	C	0.723976	0.396856	0.533014
C132	C	0.416238	1.045268	-0.115338
C133	C	0.383496	1.114259	-0.184300
C134	C	0.405185	1.148756	-0.270252
C135	C	0.459620	1.114264	-0.287240
C136	C	0.492362	1.045279	-0.218277
C137	C	0.426377	1.045263	0.279606
C138	C	0.382508	1.114253	0.294665
C139	C	0.336143	1.148757	0.250745
C140	C	0.333651	1.114274	0.191756
C141	C	0.377522	1.045291	0.176693
C142	C	0.718535	1.045220	-0.115367
C143	C	0.736830	1.114183	-0.184338
C144	C	0.721555	1.148681	-0.270287
C145	C	0.687987	1.114206	-0.287266
C146	C	0.669696	1.045239	-0.218296
H147	H	0.513086	0.408229	-0.042959
H148	H	-0.190299	0.721047	0.289376
O149	O	0.744921	0.430531	-0.007586
C150	C	0.733132	0.527177	-0.058719
H151	H	0.752776	0.556425	-0.030699
H152	H	0.688558	0.562920	-0.057148
H153	H	0.748528	0.540337	-0.129655
O154	O	0.471394	1.011609	0.322367
C155	C	0.483199	0.914957	0.373478
H156	H	0.445602	0.896080	0.388492
H157	H	0.500250	0.895130	0.437862
H158	H	0.513289	0.875506	0.335411
H159	H	0.452179	0.299828	0.485316
H160	H	0.730977	1.017143	-0.045388
O161	O	0.373419	1.215673	-0.337330
C162	C	0.377463	1.181962	-0.400978
H163	H	0.416598	1.123300	-0.395429
H164	H	0.375584	1.240877	-0.469632
H165	H	0.343479	1.154452	-0.389341
H166	H	0.477275	1.142360	-0.357229
O167	O	0.482921	0.430233	0.346686
C168	C	0.449365	0.385009	0.346531
H169	H	0.456688	0.315107	0.406269
H170	H	0.457804	0.373100	0.283681
H171	H	0.406470	0.430250	0.349518
O172	O	0.742223	0.721134	-0.196865
C173	C	0.756962	0.801378	-0.248671
H174	H	0.747573	0.828175	-0.320174
H175	H	0.801108	0.783277	-0.244397
H176	H	0.734125	0.857569	-0.223334
H177	H	0.339174	1.142330	-0.170452
H178	H	0.679655	0.424921	0.546857
O179	O	0.395246	1.011639	-0.031804
C180	C	0.435811	0.943371	0.025440
H181	H	0.470844	0.913192	-0.013893
H182	H	0.420641	0.885354	0.077576
H183	H	0.448749	0.976362	0.058924
O184	O	0.374996	1.011866	0.119403
C185	C	0.324669	1.057133	0.083862
H186	H	0.295064	1.085565	0.130433
H187	H	0.311818	1.005402	0.075346
H188	H	0.326429	1.117035	0.017067
O189	O	0.673210	1.147580	-0.370770
C190	C	0.689969	1.073985	-0.397623
H191	H	0.724459	1.015338	-0.357213
H192	H	0.703039	1.100307	-0.470481
H193	H	0.655960	1.046802	-0.386891
H194	H	-0.062720	0.721039	0.025313
H195	H	0.536682	1.017199	-0.232121
H196	H	0.558035	0.237279	0.051734
H197	H	0.573980	0.424966	0.546837
O198	O	0.385015	1.147603	0.352032
C199	C	0.435347	1.102358	0.387554
H200	H	0.453953	1.032448	0.382469
H201	H	0.431322	1.090461	0.459711
H202	H	0.461467	1.147576	0.349209
O203	O	0.293569	1.215734	0.265517
C204	C	0.305722	1.238776	0.326983
H205	H	0.339340	1.178271	0.368175
H206	H	0.269426	1.253108	0.372011
H207	H	0.318228	1.303580	0.290467
O208	O	0.543285	0.294508	0.685427
C209	C	0.576828	0.339751	0.685589
H210	H	0.595892	0.368162	0.616798
H211	H	0.608867	0.288009	0.734551
H212	H	0.552848	0.399665	0.705547
O213	O	0.831310	0.294474	-0.037257
C214	C	0.780980	0.339728	-0.072788
H215	H	0.751375	0.368146	-0.026208
H216	H	0.768136	0.287992	-0.081307
H217	H	0.782732	0.399639	-0.139579
O218	O	0.769411	1.147599	-0.167673
C219	C	0.778971	1.102350	-0.077023
H220	H	0.745575	1.073939	-0.038429
H221	H	0.781092	1.154088	-0.054009
H222	H	0.817975	1.042436	-0.065329
O223	O	0.474191	0.720940	-0.488517
C224	C	0.492881	0.640664	-0.505731
H225	H	0.537877	0.613906	-0.507856
H226	H	0.478671	0.658709	-0.571878
H227	H	0.477209	0.584466	-0.451380
O228	O	0.690643	0.193281	0.331063
C229	C	0.691629	0.274357	0.333178
H230	H	0.681464	0.335115	0.266028
H231	H	0.732724	0.262412	0.349644
H232	H	0.661500	0.291103	0.385571
O233	O	0.452122	0.721230	-0.322921
C234	C	0.413075	0.801481	-0.374835
H235	H	0.431585	0.857574	-0.419859
H236	H	0.380707	0.828424	-0.330103
H237	H	0.395359	0.783337	-0.416521
H238	H	0.530034	0.721057	-0.253194
H239	H	0.295895	1.142378	0.156000
H240	H	0.642362	1.017182	-0.232133
O241	O	0.582335	0.129420	0.103190
C242	C	0.540330	0.093132	0.139830
H243	H	0.551833	0.030912	0.205715
H244	H	0.531408	0.069948	0.092963
H245	H	0.503784	0.149188	0.150437
O246	O	0.522246	0.548177	-0.023845
C247	C	0.560853	0.591630	-0.067616
H248	H	0.598596	0.550084	-0.029804
H249	H	0.545752	0.665411	-0.071304
H250	H	0.569428	0.594534	-0.137135
O251	O	0.764200	0.720886	-0.362430
C252	C	0.788167	0.640637	-0.379689
H253	H	0.770143	0.584543	-0.332432
H254	H	0.832372	0.613692	-0.370125
H255	H	0.781366	0.658783	-0.450463
O256	O	0.821256	0.430217	0.346628
C257	C	0.876315	0.384933	0.346430
H258	H	0.890654	0.356592	0.415185
H259	H	0.896782	0.436626	0.297378
H260	H	0.886030	0.324964	0.326568
O261	O	0.374062	0.720977	0.300949
C262	C	0.370631	0.640709	0.376592
H263	H	0.341303	0.613937	0.366361
H264	H	0.356702	0.658771	0.436105
H265	H	0.411113	0.584516	0.388476
H266	H	0.640672	0.368043	0.225850
H267	H	-0.155282	0.721030	0.025316
H268	H	0.658822	0.721065	-0.558121
O269	O	0.739383	1.215564	-0.337335
C270	C	0.768188	1.181874	-0.401012
H271	H	0.783310	1.102458	-0.369027
H272	H	0.803064	1.208959	-0.429132
H273	H	0.741483	1.206961	-0.456369
H274	H	0.690284	-0.091227	0.330368
O275	O	0.708200	0.029885	0.368372
C276	C	0.687545	-0.023326	0.449921
H277	H	0.643715	-0.007333	0.445009
H278	H	0.692965	-0.005061	0.503327
H279	H	0.709251	-0.100609	0.467372
O280	O	0.412108	0.721047	0.013859
C281	C	0.387165	0.721063	-0.050378
H282	H	0.353413	0.691720	-0.017573
H283	H	0.417004	0.676073	-0.083691
H284	H	0.370909	0.795408	-0.101811
H285	H	0.314096	0.721064	0.025340
O286	O	0.477104	0.226411	0.652163
C287	C	0.497784	0.203400	0.731649
H288	H	0.535346	0.222409	0.716490
H289	H	0.507278	0.125443	0.773985
H290	H	0.467453	0.243739	0.768747
H291	H	0.181612	0.721054	-0.047439
O292	O	0.885735	0.294493	0.482591
C293	C	0.912832	0.311344	0.531790
H294	H	0.885471	0.371787	0.548879
H295	H	0.948831	0.329634	0.491192
H296	H	0.926106	0.246239	0.595080
O297	O	0.842956	0.226512	0.652034
C298	C	0.838891	0.260204	0.715706
H299	H	0.824796	0.339620	0.683718
H300	H	0.879172	0.233117	0.743812
H301	H	0.809420	0.235119	0.771072
H302	H	-0.097749	0.721035	0.289392
O303	O	0.086652	0.721086	-0.058967
C304	C	0.128638	0.721066	-0.123176
H305	H	0.156729	0.750399	-0.113287
H306	H	0.112307	0.766064	-0.191663
H307	H	0.150827	0.646721	-0.116499
O308	O	0.029297	0.720970	0.373711
C309	C	0.054240	0.720987	0.437927
H310	H	0.098880	0.691660	0.428040
H311	H	0.041108	0.675982	0.506410
H312	H	0.042902	0.795330	0.431257
H313	H	0.279055	0.721084	0.289412
O314	O	0.129831	0.721151	0.373518
C315	C	0.143856	0.801428	0.346508
H316	H	0.154912	0.828187	0.272865
H317	H	0.178996	0.783385	0.384362
H318	H	0.109001	0.857626	0.360456
H319	H	0.575825	0.721054	-0.203384
O320	O	0.927678	0.294322	0.165758
C321	C	0.916774	0.254388	0.257493
H322	H	0.872960	0.285568	0.272724
H323	H	0.941011	0.269473	0.292329
H324	H	0.927533	0.175834	0.281605
O325	O	0.841155	0.430296	0.195411
C326	C	0.802207	0.413406	0.263974
H327	H	0.769407	0.404846	0.240469
H328	H	0.785082	0.474653	0.283608
H329	H	0.820638	0.347063	0.323285
H330	H	0.739066	0.299789	0.671971
O331	O	0.736725	0.720888	-0.488467
C332	C	0.760699	0.640639	-0.505725
H333	H	0.742676	0.584543	-0.458475
H334	H	0.804902	0.613698	-0.496152
H335	H	0.753905	0.658784	-0.576503
H336	H	0.915921	0.237226	0.051679
