data_functionalizedCrystal
_audit_creation_method	'MofGen! by Chris Wilmer'
_symmetry_space_group_name_H-M	'P1'
_symmetry_Int_Tables_number	1
_symmetry_cell_setting	triclinic
loop_
_symmetry_equiv_pos_as_xyz
  x,y,z
_cell_length_a	19.188925
_cell_length_b	19.188924
_cell_length_c	14.421503
_cell_angle_alpha	90.002214
_cell_angle_beta	89.991449
_cell_angle_gamma	83.142256
loop_
_atom_site_label
_atom_site_type_symbol
_atom_site_fract_x
_atom_site_fract_y
_atom_site_fract_z
O1	O	0.926149	0.087140	-0.077136
O2	O	0.722837	0.098878	-0.077134
O3	O	0.830363	-0.008647	-0.077124
O4	O	0.818624	0.194665	-0.077146
O5	O	0.830345	-0.008631	0.077099
O6	O	0.722819	0.098894	0.077090
O7	O	0.926132	0.087156	0.077088
Cu8	Cu	0.824474	0.093027	0.091170
Cu9	Cu	0.824495	0.093008	-0.091217
O10	O	0.818606	0.194681	0.077078
C11	C	0.696817	0.098507	-0.000022
C12	C	0.619313	0.097368	-0.000021
C13	C	0.057541	0.152832	-0.000029
C14	C	0.130364	0.153908	-0.000034
C15	C	0.175300	0.090816	-0.000025
C16	C	0.147408	0.026642	-0.000036
C17	C	0.074586	0.025568	-0.000040
N18	N	0.295972	0.045145	0.052478
N19	N	0.365150	0.046170	0.052484
C20	C	0.394709	0.094050	-0.000015
N21	N	0.352477	0.140877	-0.052508
N22	N	0.283293	0.139853	-0.052510
C23	C	0.254264	0.091974	-0.000021
C24	C	0.501557	0.159387	-0.000017
C25	C	0.574381	0.160461	-0.000027
C26	C	0.591424	0.033193	-0.000020
C27	C	0.518600	0.032121	-0.000018
C28	C	0.473671	0.095220	-0.000012
C29	C	0.829975	-0.034650	-0.000011
C30	C	0.828836	-0.112155	-0.000009
C31	C	0.828314	-0.148562	-0.084076
C32	C	0.827234	-0.221385	-0.084083
C33	C	0.826690	-0.257799	-0.000018
C34	C	0.827208	-0.221382	0.084060
C35	C	0.828281	-0.148560	0.084065
N36	N	0.864731	-0.377457	0.062549
N37	N	0.863713	-0.446635	0.062539
C38	C	0.823456	-0.477208	-0.000027
N39	N	0.784264	-0.435991	-0.062597
N40	N	0.785285	-0.366807	-0.062589
C41	C	0.825526	-0.336763	-0.000014
C42	C	0.821762	-0.592578	-0.084108
C43	C	0.820678	-0.665402	-0.084111
C44	C	0.820659	-0.665399	0.084035
C45	C	0.821736	-0.592576	0.084036
C46	C	0.822291	-0.556170	-0.000038
C47	C	0.952151	0.087528	-0.000027
C48	C	1.029656	0.088667	-0.000034
C49	C	0.818994	0.220684	-0.000037
C50	C	0.820133	0.298189	-0.000045
N51	N	0.824464	0.093040	0.219452
N52	N	0.824510	0.092989	-0.219498
C53	C	0.774736	0.142737	0.469101
C54	C	0.837784	0.156095	0.530901
C55	C	0.824481	0.093023	0.408613
C56	C	0.761449	0.079681	0.530907
C57	C	0.824492	0.093008	0.591335
C58	C	0.887561	0.106412	0.469053
C59	C	0.811185	0.029971	0.469053
C60	C	0.874279	0.043302	0.530825
C61	C	0.824474	0.093033	0.303352
C62	C	0.824506	0.092998	0.696593
H63	H	0.183999	-0.024728	-0.000031
H64	H	0.822210	-0.562935	-0.152566
H65	H	0.828764	-0.118925	-0.152536
H66	H	0.597083	0.212714	-0.000031
H67	H	0.732710	0.184812	0.441999
F68	F	0.044908	-0.042729	-0.000048
H69	H	0.940882	0.117754	0.441997
F70	F	0.929329	-0.011660	0.566032
F71	F	0.820076	-0.704148	0.173504
H72	H	0.849039	0.209410	0.558067
F73	F	0.796448	-0.039693	0.433514
H74	H	0.826805	-0.251033	-0.152543
H75	H	0.708140	0.068404	0.558079
F76	F	0.828835	-0.109811	0.173545
F77	F	0.009728	0.219988	-0.000032
F78	F	0.639243	-0.033955	-0.000023
F79	F	0.826624	-0.260137	0.173528
F80	F	0.453737	0.226541	-0.000013
F81	F	0.160048	0.222204	-0.000027
H82	H	0.820250	-0.695043	-0.152572
F83	F	0.822291	-0.553826	0.173513
H84	H	0.495897	-0.020129	-0.000017
