data_functionalizedCrystal
_audit_creation_method	'MofGen! by Chris Wilmer'
_symmetry_space_group_name_H-M	'P1'
_symmetry_Int_Tables_number	1
_symmetry_cell_setting	triclinic
loop_
_symmetry_equiv_pos_as_xyz
  x,y,z
_cell_length_a	14.971486
_cell_length_b	14.971486
_cell_length_c	13.448316
_cell_angle_alpha	89.993189
_cell_angle_beta	89.998199
_cell_angle_gamma	83.614129
loop_
_atom_site_label
_atom_site_type_symbol
_atom_site_fract_x
_atom_site_fract_y
_atom_site_fract_z
O1	O	1.186947	0.116565	-0.082578
O2	O	0.926547	0.130524	-0.082605
O3	O	1.063727	-0.006656	-0.082584
O4	O	1.049768	0.253744	-0.082599
O5	O	1.063709	-0.006664	0.082800
O6	O	0.926530	0.130515	0.082779
O7	O	1.186930	0.116556	0.082806
Cu8	Cu	1.056728	0.123535	0.097893
Cu9	Cu	1.056749	0.123545	-0.097692
O10	O	1.049751	0.253736	0.082784
C11	C	0.893214	0.129895	0.000083
C12	C	0.793917	0.128024	0.000073
C13	C	0.736692	0.208614	0.000070
C14	C	0.643392	0.206850	0.000085
C15	C	0.607320	0.124497	0.000096
C16	C	0.664552	0.043902	0.000102
C17	C	0.757850	0.045666	0.000095
C18	C	0.470090	0.040231	0.000116
C19	C	0.376786	0.038466	0.000122
C20	C	0.355632	0.201415	0.000106
C21	C	0.448930	0.203179	0.000099
C22	C	0.506156	0.122584	0.000103
C23	C	1.063094	-0.039985	0.000108
C24	C	1.061223	-0.139282	0.000107
C25	C	1.141812	-0.196507	0.000116
C26	C	1.140049	-0.289807	0.000106
C27	C	1.057696	-0.325879	0.000093
C28	C	0.977101	-0.268646	0.000081
C29	C	0.978865	-0.175349	0.000084
C30	C	0.973430	-0.463109	0.000077
C31	C	0.971665	-0.556413	0.000076
C32	C	1.134614	-0.577567	0.000099
C33	C	1.136378	-0.484269	0.000102
C34	C	1.055782	-0.427043	0.000091
C35	C	1.220263	0.117185	0.000115
C36	C	1.319561	0.119056	0.000119
C37	C	1.050384	0.287065	0.000091
C38	C	1.052254	0.386362	0.000085
N39	N	1.056721	0.123527	0.235457
N40	N	1.056764	0.123545	-0.235257
C41	C	1.117483	0.062809	0.287507
C42	C	1.117488	0.062809	0.391610
C43	C	1.056735	0.123531	0.443662
C44	C	0.995967	0.184252	0.391605
C45	C	0.995958	0.184248	0.287504
C46	C	0.995992	0.184258	0.608585
C47	C	0.996002	0.184264	0.712693
C48	C	1.117522	0.062819	0.712692
C49	C	1.117513	0.062815	0.608591
C50	C	1.056745	0.123537	0.556541
H51	H	0.347419	-0.028593	0.000133
Br52	Br	0.913516	0.266664	0.537949
Br53	Br	0.615598	-0.067865	0.000128
Br54	Br	0.547754	-0.069150	0.000127
Br55	Br	0.835515	-0.063710	0.000108
H56	H	0.766054	0.275675	0.000060
H57	H	0.309033	0.267039	0.000107
H58	H	0.946496	0.233690	0.433991
Br59	Br	1.199970	-0.019586	0.537946
Br60	Br	1.199995	-0.019585	0.783334
Br61	Br	1.248144	-0.435314	0.000116
H62	H	0.907800	-0.416517	0.000066
H63	H	0.946530	0.233709	0.755069
H64	H	1.166964	0.013367	0.433989
Br65	Br	0.865334	-0.317600	0.000048
Br66	Br	1.253584	-0.147562	0.000147
H67	H	0.596802	0.272474	0.000081
Br68	Br	0.497885	0.314946	0.000068
Br69	Br	1.249425	-0.367467	0.000118
H70	H	1.200238	-0.624165	0.000104
Br71	Br	0.859899	-0.605368	0.000064
H72	H	0.913240	-0.128756	0.000077
H73	H	1.166958	0.013366	0.245134
H74	H	0.946478	0.233689	0.245125
