data_functionalizedCrystal
_audit_creation_method	'MofGen! by Chris Wilmer'
_symmetry_space_group_name_H-M	'P1'
_symmetry_Int_Tables_number	1
_symmetry_cell_setting	triclinic
loop_
_symmetry_equiv_pos_as_xyz
  x,y,z
_cell_length_a	10.654546
_cell_length_b	10.489763
_cell_length_c	9.130313
_cell_angle_alpha	90.007547
_cell_angle_beta	90.010815
_cell_angle_gamma	84.515942
loop_
_atom_site_label
_atom_site_type_symbol
_atom_site_fract_x
_atom_site_fract_y
_atom_site_fract_z
O1	O	-1.667940	-0.179136	-0.122075
O2	O	-1.302470	-0.196210	-0.122023
O3	O	-1.493506	-0.002073	-0.122023
O4	O	-1.476904	-0.373273	-0.122076
O5	O	-1.493494	-0.002074	0.121576
O6	O	-1.302457	-0.196211	0.121576
O7	O	-1.667927	-0.179137	0.121523
Cu8	Cu	-1.485191	-0.187674	0.143792
Cu9	Cu	-1.485206	-0.187673	-0.144292
O10	O	-1.476891	-0.373274	0.121523
C11	C	-1.255665	-0.194958	-0.000217
C12	C	-1.116220	-0.191210	-0.000196
C13	C	-1.036796	-0.305514	-0.000227
C14	C	-0.905773	-0.301985	-0.000241
C15	C	-0.933610	-0.069837	-0.000198
C16	C	-1.064630	-0.073367	-0.000174
C17	C	-1.020724	-0.439543	-0.000258
C18	C	-0.889701	-0.436014	-0.000272
C19	C	-1.492240	0.045457	-0.000220
C20	C	-1.488471	0.187083	-0.000207
C21	C	-1.366905	0.255163	-0.000193
C22	C	-1.424315	0.347312	0.119914
C23	C	-1.424356	0.347288	-0.120255
C24	C	-1.545931	0.277368	0.119999
C25	C	-1.545956	0.277334	-0.120278
C26	C	-1.603454	0.369456	-0.000141
C27	C	-0.714732	-0.180392	-0.000265
C28	C	-0.854176	-0.184150	-0.000234
C29	C	-1.478137	0.579193	-0.000258
C30	C	-1.481847	0.437560	-0.000204
N31	N	-1.485190	-0.187674	0.346415
N32	N	-1.485217	-0.187663	-0.346914
C33	C	-1.569817	-0.101731	0.576405
C34	C	-1.569807	-0.101739	0.423068
C35	C	-1.400586	-0.273615	0.423106
C36	C	-1.400603	-0.273613	0.576440
C37	C	-1.667512	-0.002495	0.576381
C38	C	-1.667502	-0.002503	0.423044
H39	H	-1.050079	-0.491961	0.101683
Br40	Br	-1.285761	-0.390259	0.319080
H41	H	-0.891589	0.026107	-0.000203
H42	H	-1.703487	0.418929	-0.000084
H43	H	-1.636944	0.090144	0.623965
H44	H	-1.056409	-0.482219	-0.105439
Br45	Br	-1.200329	0.172327	0.000010
Br46	Br	-1.828399	-0.038897	0.645686
H47	H	-1.758708	-0.033558	0.375451
H48	H	-0.844047	-0.476520	0.104894
Br49	Br	-1.338580	0.398956	0.289179
Br50	Br	-1.631668	0.160906	0.353703
Br51	Br	-1.631629	0.225630	-0.289549
H52	H	-1.129293	0.019711	-0.000127
H53	H	-1.372909	0.378226	-0.221795
Br54	Br	-1.285809	-0.390259	0.680511
H55	H	-0.848001	-0.486514	-0.102229
H56	H	-1.597319	0.246561	0.221643
