data_functionalizedCrystal
_audit_creation_method	'MofGen! by Chris Wilmer'
_symmetry_space_group_name_H-M	'P1'
_symmetry_Int_Tables_number	1
_symmetry_cell_setting	triclinic
loop_
_symmetry_equiv_pos_as_xyz
  x,y,z
_cell_length_a	16.959455
_cell_length_b	12.594516
_cell_length_c	16.959447
_cell_angle_alpha	90.025146
_cell_angle_beta	90.014322
_cell_angle_gamma	90.013000
loop_
_atom_site_label
_atom_site_type_symbol
_atom_site_fract_x
_atom_site_fract_y
_atom_site_fract_z
Zn1	Zn	1.208406	-0.423808	0.446937
Zn2	Zn	1.208338	-0.601815	0.314770
Zn3	Zn	1.076234	-0.423841	0.314775
Zn4	Zn	1.076208	-0.601735	0.446909
O5	O	1.142297	-0.512800	0.380848
O6	O	1.319008	-0.447440	0.429415
O7	O	1.190796	-0.578253	0.204160
O8	O	1.093807	-0.274891	0.332320
O9	O	1.318958	-0.578221	0.332313
O10	O	1.190912	-0.274866	0.429419
O11	O	1.093740	-0.447497	0.204163
O12	O	0.965620	-0.447420	0.332293
O13	O	1.093762	-0.578085	0.557524
O14	O	0.965601	-0.578118	0.429371
O15	O	1.190887	-0.447363	0.557544
O16	O	1.190771	-0.750750	0.332286
O17	O	1.093696	-0.750692	0.429367
C18	C	0.936930	-0.512765	0.380830
C19	C	0.849074	-0.512775	0.380841
C20	C	0.477584	-0.444690	0.330405
C21	C	0.477613	-0.580998	0.431336
C22	C	0.560158	-0.580982	0.431332
C23	C	0.601421	-0.512821	0.380862
C24	C	0.560137	-0.444674	0.330396
C25	C	0.601448	-0.649135	0.481790
C26	C	0.683999	-0.649123	0.481787
C27	C	0.725263	-0.580955	0.431320
C28	C	0.683974	-0.512806	0.380854
C29	C	0.725237	-0.444644	0.330384
C30	C	0.683949	-0.376488	0.279920
C31	C	0.601401	-0.376507	0.279930
C32	C	0.807811	-0.580937	0.431311
C33	C	0.807790	-0.444629	0.330376
C34	C	1.142245	-0.789341	0.380840
C35	C	1.142295	-0.907646	0.380863
C36	C	1.089491	-0.976906	0.433629
C37	C	1.070239	-1.047768	0.361503
C38	C	1.161619	-1.047583	0.453001
C39	C	1.123005	-0.976950	0.308699
C40	C	1.214418	-0.976758	0.400246
C41	C	1.195194	-1.047589	0.328071
C42	C	1.348465	-0.512836	0.380866
C43	C	1.436321	-0.512851	0.380874
C44	C	1.142329	-0.512712	0.587016
C45	C	1.142343	-0.512674	0.674873
C46	C	1.142370	-0.235179	0.380873
C47	C	1.142401	-0.116873	0.380884
C48	C	1.142309	-0.512811	0.175482
C49	C	1.142448	-0.512548	0.087625
C50	C	1.091869	-0.580623	1.046340
C51	C	1.193006	-0.444501	1.046357
C52	C	1.192985	-0.444523	0.963811
C53	C	1.142406	-0.512598	0.922526
C54	C	1.091848	-0.580650	0.963787
C55	C	1.243548	-0.376480	0.922544
C56	C	1.243530	-0.376501	0.839993
C57	C	1.192946	-0.444571	0.798706
C58	C	1.142385	-0.512625	0.839972
C59	C	1.091806	-0.580699	0.798687
C60	C	1.041241	-0.648749	0.839952
C61	C	1.041265	-0.648720	0.922500
C62	C	1.192922	-0.444600	0.716158
C63	C	1.091785	-0.580726	0.716134
H64	H	1.044756	-0.945870	0.478186
O65	O	0.997527	-1.084859	0.341837
C66	C	0.894417	-1.089543	0.244114
C67	C	0.976761	-1.047449	0.266288
H68	H	0.877609	-1.059332	0.183026
H69	H	0.849371	-1.060483	0.289096
H70	H	0.895334	-1.180050	0.243790
H71	H	0.975920	-0.956944	0.266604
H72	H	1.021772	-1.076590	0.221302
O73	O	0.437412	-0.647107	0.480333
C74	C	0.310250	-0.707590	0.525037
C75	C	0.355682	-0.632647	0.469518
H76	H	0.244164	-0.695940	0.516301
H77	H	0.326440	-0.688998	0.588813
H78	H	0.326519	-0.793377	0.511059
H79	H	0.339437	-0.546834	0.483425
H80	H	0.339488	-0.651330	0.405759
O81	O	0.992224	-0.714928	0.799753
C82	C	0.981556	-0.858693	0.706556
C83	C	1.037151	-0.783798	0.752025
H84	H	1.017858	-0.914408	0.667970
H85	H	0.940250	-0.809887	0.667856
H86	H	0.945398	-0.907281	0.750233
H87	H	1.073360	-0.735194	0.708405
H88	H	1.078405	-0.832665	0.790737
O89	O	1.103449	-0.939920	0.235964
C90	C	1.081500	-0.786179	0.154340
C91	C	1.103643	-0.827973	0.236750
H92	H	1.081666	-0.695665	0.154944
H93	H	1.020234	-0.815985	0.137705
H94	H	1.126266	-0.815957	0.109341
H95	H	1.058929	-0.798212	0.281804
H96	H	1.164928	-0.798175	0.253318
H97	H	1.000100	-0.704125	0.956105
O98	O	1.042640	-0.646612	1.086383
C99	C	0.908180	-0.698292	1.111586
C100	C	0.963840	-0.623476	1.066203
H101	H	0.844459	-0.679628	1.095275
H102	H	0.916808	-0.686578	1.177688
H103	H	0.922076	-0.784117	1.095352
H104	H	0.949979	-0.537622	1.082371
H105	H	0.955202	-0.635282	1.000112
O106	O	1.241951	-0.378355	0.676108
C107	C	1.280405	-0.197325	0.650913
C108	C	1.224817	-0.272230	0.696303
H109	H	1.266583	-0.111509	0.667236
H110	H	1.271697	-0.208943	0.584812
H111	H	1.344135	-0.216086	0.667129
H112	H	1.161066	-0.253516	0.680154
H113	H	1.233593	-0.260599	0.762393
H114	H	1.050590	-0.636152	0.682525
H115	H	1.284703	-0.321090	0.806402
H116	H	1.234190	-0.389083	1.079976
O117	O	0.847835	-0.378530	0.281233
C118	C	0.873008	-0.326594	0.146843
C119	C	0.827623	-0.401530	0.202405
H120	H	0.856671	-0.345147	0.083099
H121	H	0.939110	-0.338295	0.155432
H122	H	0.856802	-0.240800	0.160873
H123	H	0.843763	-0.487352	0.188409
H124	H	0.761533	-0.389736	0.193805
O125	O	0.724001	-0.310396	0.230780
C126	C	0.749192	-0.258470	0.096390
C127	C	0.703794	-0.333395	0.151950
H128	H	0.732859	-0.277022	0.032645
H129	H	0.815292	-0.270184	0.104985
H130	H	0.732994	-0.172672	0.110417
H131	H	0.719926	-0.419220	0.137957
H132	H	0.637706	-0.321588	0.143344
H133	H	1.177920	-1.078609	0.513999
H134	H	1.239894	-1.078429	0.283406
O135	O	0.561336	-0.310155	0.230994
C136	C	0.536117	-0.129046	0.192818
C137	C	0.581526	-0.204066	0.248301
H138	H	0.552437	-0.043259	0.206779
H139	H	0.470019	-0.140671	0.201489
H140	H	0.552320	-0.147684	0.129063
H141	H	0.565389	-0.185475	0.312076
H142	H	0.647613	-0.192427	0.239561
H143	H	0.443964	-0.389196	0.289321
H144	H	0.841424	-0.636432	0.472394
O145	O	1.287082	-0.939563	0.419960
C146	C	1.389573	-0.933338	0.518286
C147	C	1.307267	-0.975514	0.496056
H148	H	1.405925	-0.962406	0.579803
H149	H	1.388982	-0.842828	0.517572
H150	H	1.434771	-0.963617	0.473908
H151	H	1.262023	-0.945313	0.540413
H152	H	1.307923	-1.066022	0.496746
O153	O	1.292610	-0.310401	0.962768
C154	C	1.337505	-0.250099	1.089953
C155	C	1.281885	-0.324968	1.044492
H156	H	1.328865	-0.261867	1.156034
H157	H	1.323655	-0.164248	1.073798
H158	H	1.401221	-0.268810	1.073672
H159	H	1.218150	-0.306354	1.060748
H160	H	1.295803	-0.410797	1.060651
H161	H	0.717608	-0.704619	0.522877
O162	O	0.561246	-0.715244	0.530786
C163	C	0.434082	-0.775714	0.575493
C164	C	0.479517	-0.700772	0.519976
H165	H	0.367996	-0.764055	0.566761
H166	H	0.450277	-0.757131	0.639269
H167	H	0.450344	-0.861502	0.561510
H168	H	0.463279	-0.614958	0.533888
H169	H	0.463318	-0.719447	0.456216
