data_functionalizedCrystal
_audit_creation_method	'MofGen! by Chris Wilmer'
_symmetry_space_group_name_H-M	'P1'
_symmetry_Int_Tables_number	1
_symmetry_cell_setting	triclinic
loop_
_symmetry_equiv_pos_as_xyz
  x,y,z
_cell_length_a	11.792254
_cell_length_b	9.065218
_cell_length_c	10.868271
_cell_angle_alpha	89.999075
_cell_angle_beta	90.005992
_cell_angle_gamma	84.607241
loop_
_atom_site_label
_atom_site_type_symbol
_atom_site_fract_x
_atom_site_fract_y
_atom_site_fract_z
O1	O	-1.508023	-0.202305	-0.102352
O2	O	-1.177800	-0.223126	-0.102346
O3	O	-1.349737	0.001991	-0.102346
O4	O	-1.336086	-0.427421	-0.102351
O5	O	-1.349720	0.001981	0.102298
O6	O	-1.177782	-0.223136	0.102299
O7	O	-1.508006	-0.202314	0.102293
Zn8	Zn	-1.342891	-0.212726	0.134788
Zn9	Zn	-1.342914	-0.212714	-0.134841
O10	O	-1.336068	-0.427431	0.102293
C11	C	-1.135493	-0.221819	-0.000023
C12	C	-1.009458	-0.217894	-0.000021
C13	C	-0.907104	-0.214704	-0.000024
C14	C	-0.778695	-0.210715	-0.000021
C15	C	-0.550313	-0.203621	-0.000027
C16	C	-0.676347	-0.207547	-0.000019
N17	N	-1.342884	-0.212734	0.318802
C18	C	-1.348416	0.056960	-0.000026
C19	C	-1.344494	0.220767	-0.000032
C20	C	-1.337389	-0.482401	-0.000030
C21	C	-1.341312	-0.646207	-0.000032
C22	C	-1.342892	-0.212736	0.430139
C23	C	-1.342906	-0.212724	0.569817
N24	N	-1.342923	-0.212706	0.681145
