data_functionalizedCrystal
_audit_creation_method	'MofGen! by Chris Wilmer'
_symmetry_space_group_name_H-M	'P1'
_symmetry_Int_Tables_number	1
_symmetry_cell_setting	triclinic
loop_
_symmetry_equiv_pos_as_xyz
  x,y,z
_cell_length_a	13.897449
_cell_length_b	25.639239
_cell_length_c	13.897441
_cell_angle_alpha	90.034859
_cell_angle_beta	90.023394
_cell_angle_gamma	90.040111
loop_
_atom_site_label
_atom_site_type_symbol
_atom_site_fract_x
_atom_site_fract_y
_atom_site_fract_z
Zn1	Zn	1.474558	-0.208123	0.545421
Zn2	Zn	1.807891	0.125211	0.878754
Zn3	Zn	2.141225	0.458544	1.212088
Zn4	Zn	1.474391	-0.295565	0.384110
Zn5	Zn	1.807724	0.037768	0.717444
Zn6	Zn	2.141058	0.371102	1.050777
Zn7	Zn	1.313247	-0.208147	0.384132
Zn8	Zn	1.646580	0.125187	0.717465
Zn9	Zn	1.979914	0.458520	1.050799
Zn10	Zn	1.313168	-0.295530	0.545356
Zn11	Zn	1.646501	0.037803	0.878689
Zn12	Zn	1.979835	0.371137	1.212022
O13	O	1.393841	-0.251841	0.464755
O14	O	1.727174	0.081492	0.798088
O15	O	2.060508	0.414826	1.131421
O16	O	1.609517	-0.219727	0.524041
O17	O	1.942851	0.113607	0.857375
O18	O	2.276184	0.446940	1.190708
O19	O	1.452978	-0.283994	0.249132
O20	O	1.786312	0.049340	0.582465
O21	O	2.119645	0.382673	0.915798
O22	O	1.334748	-0.134978	0.405564
O23	O	1.668082	0.198355	0.738897
O24	O	2.001415	0.531688	1.072230
O25	O	1.609395	-0.283970	0.405527
O26	O	1.942728	0.049363	0.738860
O27	O	2.276062	0.382696	1.072194
O28	O	1.453263	-0.134961	0.524062
O29	O	1.786596	0.198373	0.857395
O30	O	2.119929	0.531706	1.190729
O31	O	1.334586	-0.219768	0.249147
O32	O	1.667920	0.113566	0.582481
O33	O	2.001253	0.446899	0.915814
O34	O	1.178255	-0.219734	0.405500
O35	O	1.511588	0.113600	0.738834
O36	O	1.844922	0.446933	1.072167
O37	O	1.334613	-0.283910	0.680346
O38	O	1.667947	0.049423	1.013679
O39	O	2.001280	0.382756	1.347013
O40	O	1.178197	-0.283934	0.523950
O41	O	1.511530	0.049399	0.857284
O42	O	1.844864	0.382733	1.190617
O43	O	1.453186	-0.219693	0.680394
O44	O	1.786519	0.113641	1.013727
O45	O	2.119853	0.446974	1.347061
O46	O	1.452902	-0.368726	0.405464
O47	O	1.786235	-0.035392	0.738797
O48	O	2.119568	0.297941	1.072130
O49	O	1.334452	-0.368700	0.523930
O50	O	1.667785	-0.035367	0.857263
O51	O	2.001118	0.297967	1.190596
C52	C	1.143227	-0.251833	0.464721
C53	C	1.476560	0.081500	0.798054
C54	C	1.809893	0.414834	1.131388
C55	C	1.036013	-0.251842	0.464730
C56	C	1.369346	0.081491	0.798063
C57	C	1.702679	0.414824	1.131396
C58	C	0.948943	-0.251844	0.464746
C59	C	1.282276	0.081489	0.798079
C60	C	1.615610	0.414823	1.131412
C61	C	0.839711	-0.251848	0.464775
C62	C	1.173044	0.081486	0.798108
C63	C	1.506377	0.414819	1.131442
C64	C	1.393676	-0.387684	0.464708
C65	C	1.727010	-0.054350	0.798041
C66	C	2.060343	0.278983	1.131375
C67	C	1.393694	-0.445798	0.464720
C68	C	1.727027	-0.112464	0.798054
C69	C	2.060361	0.220869	1.131387
C70	C	1.332152	-0.696990	0.526420
C71	C	1.665486	-0.363657	0.859754
C72	C	1.998819	-0.030324	1.193087
C73	C	1.332117	-0.642386	0.526409
C74	C	1.665450	-0.309053	0.859743
C75	C	1.998783	0.024281	1.193076
O76	O	1.279634	-0.614148	0.578837
O77	O	1.612967	-0.280815	0.912170
O78	O	1.946300	0.052518	1.245503
N79	N	1.393815	-0.615072	0.464771
N80	N	1.727149	-0.281738	0.798104
N81	N	2.060482	0.051595	1.131438
C82	C	1.455560	-0.642364	0.403147
C83	C	1.788894	-0.309031	0.736480
C84	C	2.122227	0.024302	1.069813
O85	O	1.508037	-0.614118	0.350718
O86	O	1.841371	-0.280784	0.684051
O87	O	2.174704	0.052549	1.017385
C88	C	1.455600	-0.696968	0.403163
C89	C	1.788934	-0.363634	0.736497
C90	C	2.122267	-0.030301	1.069830
C91	C	1.393891	-0.724279	0.464799
C92	C	1.727224	-0.390946	0.798132
C93	C	2.060558	-0.057613	1.131466
C94	C	1.270449	-0.724302	0.588052
C95	C	1.603782	-0.390968	0.921385
C96	C	1.937115	-0.057635	1.254718
C97	C	1.270483	-0.778902	0.588061
C98	C	1.603817	-0.445569	0.921395
C99	C	1.937150	-0.112236	1.254728
C100	C	1.332222	-0.806191	0.526440
C101	C	1.665555	-0.472858	0.859773
C102	C	1.998889	-0.139525	1.193106
C103	C	1.393926	-0.778880	0.464809
C104	C	1.727259	-0.445546	0.798142
C105	C	2.060592	-0.112213	1.131475
C106	C	1.517350	-0.724260	0.341545
C107	C	1.850683	-0.390926	0.674878
C108	C	2.184016	-0.057593	1.008212
C109	C	1.517385	-0.778867	0.341567
C110	C	1.850718	-0.445533	0.674901
C111	C	2.184051	-0.112200	1.008234
C112	C	1.455675	-0.806178	0.403203
C113	C	1.789009	-0.472845	0.736536
C114	C	2.122342	-0.139511	1.069870
C115	C	1.455699	-0.860769	0.403197
C116	C	1.789032	-0.527436	0.736530
C117	C	2.122365	-0.194103	1.069863
N118	N	1.394000	-0.888084	0.464835
N119	N	1.727333	-0.554750	0.798168
N120	N	2.060667	-0.221417	1.131502
C121	C	1.332262	-0.860795	0.526457
C122	C	1.665595	-0.527461	0.859790
C123	C	1.998928	-0.194128	1.193123
C124	C	1.455473	-0.527694	0.403117
C125	C	1.788807	-0.194361	0.736451
C126	C	2.122140	0.138973	1.069784
C127	C	1.455429	-0.473092	0.403095
C128	C	1.788763	-0.139758	0.736428
C129	C	2.122096	0.193575	1.069762
C130	C	1.331986	-0.473117	0.526359
C131	C	1.665320	-0.139783	0.859692
C132	C	1.998653	0.193550	1.193026
C133	C	1.332026	-0.527720	0.526376
C134	C	1.665360	-0.194387	0.859709
C135	C	1.998693	0.138947	1.193042
C136	C	1.393775	-0.555008	0.464756
C137	C	1.727108	-0.221675	0.798089
C138	C	2.060441	0.111659	1.131422
C139	C	1.332339	-0.975460	0.526472
C140	C	1.665672	-0.642126	0.859805
C141	C	1.999005	-0.308793	1.193138
C142	C	1.332376	-1.030065	0.526473
C143	C	1.665709	-0.696732	0.859806
C144	C	1.999043	-0.363398	1.193140
C145	C	1.455822	-1.030035	0.403213
C146	C	1.789155	-0.696702	0.736546
C147	C	2.122489	-0.363368	1.069880
C148	C	1.455781	-0.975434	0.403208
C149	C	1.789115	-0.642101	0.736541
C150	C	2.122448	-0.308768	1.069874
C151	C	1.394037	-0.948148	0.464845
C152	C	1.727370	-0.614815	0.798178
C153	C	2.060703	-0.281481	1.131511
O154	O	1.508158	-0.889041	0.350799
O155	O	1.841491	-0.555708	0.684132
O156	O	2.174825	-0.222375	1.017466
O157	O	1.279803	-0.889048	0.578885
O158	O	1.613136	-0.555715	0.912219
O159	O	1.946469	-0.222381	1.245552
C160	C	1.645434	-0.251850	0.464789
C161	C	1.978767	0.081484	0.798122
C162	C	2.312101	0.414817	1.131456
C163	C	1.752648	-0.251853	0.464804
C164	C	2.085981	0.081480	0.798137
C165	C	2.419315	0.414813	1.131470
C166	C	1.393909	-0.251795	0.716348
C167	C	1.727243	0.081538	1.049681
C168	C	2.060576	0.414872	1.383015
C169	C	1.393939	-0.251775	0.823562
C170	C	1.727272	0.081558	1.156895
C171	C	2.060605	0.414891	1.490229
C172	C	1.394033	-0.115468	0.464823
C173	C	1.727366	0.217865	0.798156
C174	C	2.060699	0.551199	1.131489
C175	C	1.394115	-0.057354	0.464852
C176	C	1.727448	0.275979	0.798185
C177	C	2.060781	0.609313	1.131518
C178	C	1.393828	-0.251849	0.214140
C179	C	1.727162	0.081484	0.547474
C180	C	2.060495	0.414817	0.880807
C181	C	1.393986	-0.251722	0.106927
C182	C	1.727320	0.081611	0.440260
C183	C	2.060653	0.414945	0.773594
C184	C	1.393965	-0.251740	1.019857
C185	C	1.727298	0.081593	1.353190
C186	C	2.060632	0.414927	1.686524
C187	C	1.393947	-0.251761	0.910625
C188	C	1.727281	0.081572	1.243958
C189	C	2.060614	0.414906	1.577291
H190	H	1.282123	-1.052300	0.576666
H191	H	1.615456	-0.718966	0.910000
H192	H	1.948789	-0.385633	1.243333
O193	O	1.584006	-0.808296	0.275118
O194	O	1.917340	-0.474962	0.608452
O195	O	2.250673	-0.141629	0.941785
H196	H	1.573682	-0.850854	0.285487
H197	H	1.907016	-0.517521	0.618821
H198	H	2.240349	-0.184187	0.952154
O199	O	1.522439	-1.059472	0.336779
O200	O	1.855772	-0.726139	0.670113
O201	O	2.189106	-0.392806	1.003446
H202	H	1.512108	-1.102029	0.347165
H203	H	1.845441	-0.768696	0.680498
H204	H	2.178774	-0.435362	1.013832
H205	H	1.282062	-0.953249	0.576663
H206	H	1.615395	-0.619916	0.909997
H207	H	1.948728	-0.286583	1.243330
O208	O	1.521986	-0.443640	0.336611
O209	O	1.855319	-0.110307	0.669944
O210	O	2.188653	0.223027	1.003277
H211	H	1.571021	-0.418718	0.379826
H212	H	1.904354	-0.085384	0.713160
H213	H	2.237687	0.247949	1.046493
O214	O	1.522339	-0.945966	0.336743
O215	O	1.855672	-0.612633	0.670076
O216	O	2.189005	-0.279299	1.003410
H217	H	1.505861	-0.956477	0.261017
H218	H	1.839194	-0.623144	0.594351
H219	H	2.172527	-0.289811	0.927684
O220	O	1.203935	-0.808357	0.654549
O221	O	1.537269	-0.475024	0.987882
O222	O	1.870602	-0.141691	1.321216
H223	H	1.161012	-0.780201	0.697398
H224	H	1.494346	-0.446867	1.030731
H225	H	1.827679	-0.113534	1.364065
O226	O	1.203853	-0.694871	0.654516
O227	O	1.537186	-0.361538	0.987850
O228	O	1.870520	-0.028204	1.321183
H229	H	1.154787	-0.670040	0.611285
H230	H	1.488121	-0.336707	0.944619
H231	H	1.821454	-0.003374	1.277952
O232	O	1.265385	-0.443681	0.592821
O233	O	1.598719	-0.110348	0.926155
O234	O	1.932052	0.222986	1.259488
H235	H	1.281884	-0.454122	0.668546
H236	H	1.615217	-0.120788	1.001880
H237	H	1.948550	0.212545	1.335213
H238	H	1.505754	-0.549908	0.352931
H239	H	1.839088	-0.216575	0.686264
H240	H	2.172421	0.116758	1.019597
H241	H	1.281782	-0.549954	0.576570
H242	H	1.615116	-0.216620	0.909903
H243	H	1.948449	0.116713	1.243237
H244	H	1.567600	-0.702030	0.291356
H245	H	1.900933	-0.368697	0.624690
H246	H	2.234266	-0.035363	0.958023
