data_functionalizedCrystal
_audit_creation_method	'MofGen! by Chris Wilmer'
_symmetry_space_group_name_H-M	'P1'
_symmetry_Int_Tables_number	1
_symmetry_cell_setting	triclinic
loop_
_symmetry_equiv_pos_as_xyz
  x,y,z
_cell_length_a	19.077105
_cell_length_b	16.959454
_cell_length_c	19.076919
_cell_angle_alpha	87.724511
_cell_angle_beta	89.923776
_cell_angle_gamma	87.716588
loop_
_atom_site_label
_atom_site_type_symbol
_atom_site_fract_x
_atom_site_fract_y
_atom_site_fract_z
Zn1	Zn	1.058295	-0.382399	0.440440
Zn2	Zn	1.062944	-0.509490	0.322940
Zn3	Zn	0.945513	-0.371810	0.318233
Zn4	Zn	0.940765	-0.509013	0.435693
O5	O	1.001879	-0.443178	0.379326
O6	O	1.157244	-0.403889	0.428810
O7	O	1.051298	-0.486995	0.223984
O8	O	0.960515	-0.262606	0.334460
O9	O	1.160659	-0.497262	0.342484
O10	O	1.043376	-0.270386	0.424245
O11	O	0.965022	-0.385842	0.220526
O12	O	0.846551	-0.385379	0.329857
O13	O	0.952424	-0.496450	0.534654
O14	O	0.843063	-0.486182	0.416155
O15	O	1.038773	-0.403426	0.538142
O16	O	1.046695	-0.620035	0.337881
O17	O	0.956931	-0.619685	0.420720
C18	C	0.819311	-0.434581	0.371980
C19	C	0.741206	-0.430922	0.368854
C20	C	0.702718	-0.481759	0.412246
C21	C	0.629330	-0.478312	0.409312
C22	C	0.594433	-0.424030	0.362983
C23	C	0.632926	-0.373188	0.319590
C24	C	0.706312	-0.376632	0.322528
C25	C	0.375144	-0.408090	0.349389
C26	C	0.301753	-0.404651	0.346453
C27	C	0.298162	-0.509774	0.436177
C28	C	0.371550	-0.513217	0.439107
C29	C	0.410037	-0.462372	0.395717
N30	N	0.519419	-0.420507	0.359981
N31	N	0.485049	-0.465892	0.398723
C32	C	1.001821	-0.648541	0.379312
C33	C	1.001859	-0.736400	0.379332
C34	C	0.955205	-1.107727	0.422458
C35	C	1.048747	-1.108038	0.336274
C36	C	1.048723	-1.025491	0.336266
C37	C	1.001938	-0.984058	0.379355
C38	C	0.955178	-1.025172	0.422451
C39	C	1.095477	-0.984370	0.293166
C40	C	1.095454	-0.901818	0.293156
C41	C	1.048672	-0.860383	0.336249
C42	C	1.001911	-0.901503	0.379347
C43	C	0.955126	-0.860069	0.422436
C44	C	0.908367	-0.901187	0.465538
C45	C	0.908396	-0.983737	0.465543
C46	C	1.048644	-0.777834	0.336244
C47	C	0.955099	-0.777514	0.422428
C48	C	1.185161	-0.451810	0.386702
C49	C	1.263265	-0.455488	0.389844
C50	C	0.994550	-0.451066	0.562607
C51	C	0.991427	-0.454427	0.640710
C52	C	1.001956	-0.237015	0.379357
C53	C	1.001989	-0.149160	0.379370
C54	C	1.009220	-0.435266	0.196760
C55	C	1.012479	-0.431688	0.118663
C56	C	1.034915	-0.407577	0.679220
C57	C	1.031972	-0.410731	0.752606
C58	C	0.985544	-0.460742	0.787481
C59	C	0.942052	-0.507595	0.748966
C60	C	0.944992	-0.504435	0.675581
C61	C	0.971927	-0.475381	1.006763
C62	C	0.968992	-0.478539	1.080153
C63	C	1.058911	-0.381674	1.083788
C64	C	1.061850	-0.378523	1.010402
C65	C	1.018355	-0.425372	0.971893
N66	N	0.982536	-0.463970	0.862493
N67	N	1.021360	-0.422140	0.896882
H68	H	0.273341	-0.360439	0.308731
H69	H	1.094322	-0.343531	1.115150
C70	C	1.136952	-0.775417	0.254874
C71	C	1.146852	-0.856624	0.245783
H72	H	1.168681	-0.747517	0.225625
H73	H	1.145307	-0.764388	0.302501
H74	H	1.090154	-0.759271	0.242650
H75	H	1.193649	-0.872771	0.258012
H76	H	1.138502	-0.867659	0.198145
H77	H	0.936521	-0.513541	0.975418
H78	H	0.406472	-0.366694	0.314052
H79	H	0.266818	-0.551169	0.471504
H80	H	0.604506	-0.328988	0.281870
C81	C	1.065355	-0.279476	0.776581
C82	C	1.079779	-0.359229	0.794929
H83	H	1.094875	-0.247679	0.802705
H84	H	1.017672	-0.266205	0.786712
H85	H	1.073749	-0.270457	0.727882
H86	H	1.071381	-0.368250	0.843627
H87	H	1.127473	-0.372505	0.784803
C88	C	0.702495	-0.272389	0.233534
C89	C	0.748621	-0.320757	0.274824
H90	H	0.728616	-0.237897	0.204082
H91	H	0.672663	-0.242183	0.263049
H92	H	0.674931	-0.304288	0.205461
H93	H	0.776182	-0.288859	0.302901
H94	H	0.778466	-0.350966	0.245306
C95	C	1.106236	-0.330618	0.899522
C96	C	1.112852	-0.323511	0.972068
H97	H	1.137718	-0.296649	0.875858
H98	H	1.059503	-0.316341	0.885615
H99	H	1.117013	-0.383684	0.887895
H100	H	1.102070	-0.270446	0.983696
H101	H	1.159595	-0.337783	0.985980
H102	H	0.931183	-0.519265	1.108546
H103	H	0.399959	-0.557420	0.476832
H104	H	0.904247	-0.548311	0.777367
C105	C	0.862640	-0.785499	0.507624
C106	C	0.903671	-0.731974	0.469794
H107	H	0.830889	-0.757383	0.536862
H108	H	0.892171	-0.820257	0.535759
H109	H	0.837022	-0.815150	0.475904
H110	H	0.929292	-0.702328	0.501515
H111	H	0.874136	-0.697203	0.441657
H112	H	0.909572	-0.542578	0.644227
C113	C	0.894803	-1.080171	0.559659
C114	C	0.856998	-1.028938	0.512911
H115	H	0.863070	-1.108082	0.588896
H116	H	0.924301	-1.050534	0.587794
H117	H	0.922669	-1.116653	0.533988
H118	H	0.829135	-0.992453	0.538582
H119	H	0.827488	-1.058578	0.484773
C120	C	0.691789	-0.585314	0.500644
C121	C	0.741074	-0.541426	0.463175
H122	H	0.715469	-0.622145	0.532091
H123	H	0.664381	-0.612833	0.468838
H124	H	0.662102	-0.550728	0.526425
H125	H	0.770758	-0.576012	0.437390
H126	H	0.768494	-0.513905	0.494986
C127	C	0.941617	-1.204145	0.516586
C128	C	0.903809	-1.152921	0.469833
H129	H	0.909886	-1.232049	0.545830
H130	H	0.971117	-1.174502	0.544714
H131	H	0.969481	-1.240633	0.490920
H132	H	0.875948	-1.116430	0.495500
H133	H	0.874297	-1.182567	0.441702
H134	H	0.597996	-0.519710	0.444645
H135	H	0.870272	-0.867443	0.500618
H136	H	1.086833	-1.141778	0.301189
C137	C	1.136951	-1.111044	0.254811
C138	C	1.146830	-1.029907	0.245730
H139	H	1.168639	-1.139156	0.225505
H140	H	1.090142	-1.121906	0.242660
H141	H	1.145386	-1.127098	0.302427
H142	H	1.138391	-1.013852	0.198115
H143	H	1.193651	-1.019040	0.257877
H144	H	1.086711	-0.744359	0.301147
H145	H	1.072724	-0.366855	0.650831
