data_functionalizedCrystal
_audit_creation_method	'MofGen! by Chris Wilmer'
_symmetry_space_group_name_H-M	'P1'
_symmetry_Int_Tables_number	1
_symmetry_cell_setting	triclinic
loop_
_symmetry_equiv_pos_as_xyz
  x,y,z
_cell_length_a	17.699083
_cell_length_b	11.804365
_cell_length_c	17.699083
_cell_angle_alpha	101.805355
_cell_angle_beta	96.716985
_cell_angle_gamma	101.817837
loop_
_atom_site_label
_atom_site_type_symbol
_atom_site_fract_x
_atom_site_fract_y
_atom_site_fract_z
O1	O	1.019369	0.098859	-0.080427
O2	O	1.519369	0.598859	0.419573
O3	O	0.798996	0.098899	-0.092873
O4	O	1.298996	0.598899	0.407127
O5	O	0.915407	0.098867	0.023537
O6	O	1.415407	0.598867	0.523537
O7	O	0.902958	0.098890	-0.196838
O8	O	1.402958	0.598890	0.303162
O9	O	0.884760	-0.099180	-0.007078
O10	O	1.384760	0.400820	0.492922
O11	O	0.768350	-0.099149	-0.123489
O12	O	1.268350	0.400851	0.376511
O13	O	0.988722	-0.099189	-0.111043
O14	O	1.488722	0.400811	0.388957
Cu15	Cu	0.875738	-0.117252	-0.120061
Cu16	Cu	1.375738	0.382748	0.379939
Cu17	Cu	0.911981	0.116962	-0.083855
Cu18	Cu	1.411981	0.616962	0.416145
O19	O	0.872312	-0.099157	-0.227453
O20	O	1.372312	0.400843	0.272547
C21	C	0.755477	-0.000120	-0.107734
C22	C	1.255477	0.499880	0.392266
C23	C	0.671461	-0.000106	-0.106393
C24	C	1.171461	0.499894	0.393607
C25	C	0.622841	-0.000099	-0.174726
C26	C	1.122841	0.499901	0.325274
C27	C	0.543895	-0.000114	-0.173466
C28	C	1.043895	0.499886	0.326534
C29	C	0.513572	-0.000128	-0.103872
C30	C	1.013572	0.499872	0.396128
C31	C	0.562198	-0.000139	-0.035535
C32	C	1.062198	0.499861	0.464465
C33	C	0.641141	-0.000132	-0.036797
C34	C	1.141141	0.499868	0.463203
C35	C	0.243830	-0.000169	-0.030444
C36	C	0.743830	0.499831	0.469556
C37	C	0.164882	-0.000172	-0.029187
C38	C	0.664882	0.499828	0.470813
C39	C	0.146585	-0.000151	-0.167113
C40	C	0.646585	0.499849	0.332887
C41	C	0.225528	-0.000144	-0.168375
C42	C	0.725528	0.499856	0.331625
C43	C	0.274145	-0.000161	-0.100040
C44	C	0.774145	0.499839	0.399960
C45	C	0.359747	-0.000146	-0.101407
C46	C	0.859747	0.499854	0.398593
C47	C	0.427974	-0.000134	-0.102502
C48	C	0.927974	0.499866	0.397498
N49	N	0.850252	-0.281986	-0.145527
N50	N	1.350252	0.218014	0.354473
C51	C	0.998673	-0.655974	0.002782
C52	C	1.498673	-0.155974	0.502782
C53	C	1.017952	-0.531318	0.022050
C54	C	1.517952	-0.031318	0.522050
C55	C	0.976029	-0.468979	-0.019842
C56	C	1.476029	0.031021	0.480158
C57	C	0.914823	-0.531308	-0.081006
C58	C	1.414823	-0.031308	0.418994
C59	C	0.895546	-0.655977	-0.100279
C60	C	1.395546	-0.155977	0.399721
C61	C	0.872901	-0.468982	-0.122904
C62	C	1.372901	0.031018	0.377096
C63	C	0.811696	-0.531311	-0.184068
C64	C	1.311696	-0.031311	0.315932
C65	C	0.792422	-0.655968	-0.203338
C66	C	1.292422	-0.155968	0.296662
C67	C	0.834345	-0.718307	-0.161445
C68	C	1.334345	-0.218307	0.338555
C69	C	0.892178	-0.344313	-0.103631
C70	C	1.392178	0.155687	0.396369
C71	C	0.789051	-0.344315	-0.206693
C72	C	1.289051	0.155685	0.293307
C73	C	0.769772	-0.468972	-0.225960
C74	C	1.269772	0.031028	0.274040
C75	C	1.032242	-0.000167	-0.096181
C76	C	1.532242	0.499833	0.403819
C77	C	1.116259	-0.000174	-0.097521
C78	C	1.616259	0.499826	0.402479
C79	C	0.899637	-0.000157	0.036426
C80	C	1.399637	0.499843	0.536426
C81	C	0.898299	-0.000157	0.120444
C82	C	1.398299	0.499843	0.620444
N83	N	0.937472	0.281696	-0.058384
N84	N	1.437472	0.781696	0.441616
C85	C	0.888081	-0.000131	-0.240342
C86	C	1.388081	0.499869	0.259658
C87	C	0.889421	-0.000123	-0.324359
C88	C	1.389421	0.499877	0.175641
C89	C	0.966630	-0.000171	0.169063
C90	C	1.466630	0.499829	0.669063
C91	C	0.965369	-0.000160	0.248008
C92	C	1.465369	0.499840	0.748008
C93	C	0.895775	-0.000144	0.278331
C94	C	1.395775	0.499856	0.778331
C95	C	0.827439	-0.000126	0.229707
C96	C	1.327439	0.499874	0.729707
C97	C	0.828702	-0.000129	0.150765
C98	C	1.328702	0.499871	0.650765
C99	C	0.822346	-0.000116	0.548072
C100	C	1.322346	0.499884	1.048072
C101	C	0.821088	-0.000117	0.627019
C102	C	1.321088	0.499883	1.127019
C103	C	0.959013	-0.000147	0.645315
C104	C	1.459013	0.499853	1.145315
C105	C	0.960276	-0.000149	0.566373
C106	C	1.460276	0.499851	1.066373
C107	C	0.891941	-0.000126	0.517756
C108	C	1.391941	0.499874	1.017756
C109	C	0.893309	-0.000135	0.432156
C110	C	1.393309	0.499865	0.932156
C111	C	0.894405	-0.000143	0.363929
C112	C	1.394405	0.499857	0.863929
H113	H	0.680727	-0.000137	0.018847
H114	H	1.180727	0.499863	0.518847
H115	H	1.014655	-0.000160	0.684909
H116	H	1.514655	0.499840	1.184909
C117	C	1.085295	-0.462759	0.089299
C118	C	1.585295	0.037241	0.589299
H119	H	1.090785	-0.379587	0.094764
H120	H	1.590785	0.120413	0.594764
H121	H	1.074046	-0.483172	0.136659
H122	H	1.574046	0.016828	0.636659
H123	H	1.132619	-0.483206	0.077947
H124	H	1.632619	0.016794	0.577947
C125	C	0.131526	-0.000199	0.047369
C126	C	0.631526	0.499801	0.547369
H127	H	0.171785	-0.000220	0.087885
H128	H	0.671785	0.499780	0.587885
H129	H	0.111791	0.068861	0.061408
H130	H	0.611791	0.568861	0.561408
H131	H	0.090429	-0.069275	0.040041
H132	H	0.590429	0.430725	0.540041
C133	C	0.747183	-0.000089	0.494601
C134	C	1.247183	0.499911	0.994601
H135	H	0.757900	-0.000076	0.443244
H136	H	1.257900	0.499924	0.943244
H137	H	0.707949	-0.069144	0.493103
H138	H	1.207949	0.430856	0.993103
H139	H	0.729336	0.068992	0.514460
H140	H	1.229336	0.568992	1.014460
C141	C	0.297301	-0.000179	0.044723
C142	C	0.797301	0.499821	0.544723
H143	H	0.267935	-0.000175	0.086351
H144	H	0.767935	0.499825	0.586351
H145	H	0.317796	-0.069241	0.036424
H146	H	0.817796	0.430759	0.536424
H147	H	0.339158	0.068895	0.057778
H148	H	0.839158	0.568895	0.557778
C149	C	0.528845	-0.000152	0.041018
C150	C	1.028845	0.499848	0.541018
H151	H	0.474868	-0.000142	0.031986
H152	H	0.974868	0.499858	0.531986
H153	H	0.534861	-0.069217	0.058473
H154	H	1.034861	0.430783	0.558473
H155	H	0.556226	0.068919	0.079823
H156	H	1.056226	0.568919	0.579823
C157	C	0.750887	-0.000112	0.263060
C158	C	1.250887	0.499888	0.763060
H159	H	0.759918	-0.000126	0.317037
H160	H	1.259918	0.499874	0.817037
H161	H	0.733442	0.068955	0.257037
H162	H	1.233442	0.568955	0.757037
H163	H	0.712072	-0.069181	0.235686
H164	H	1.212072	0.430819	0.735686
H165	H	0.647523	-0.000087	-0.231397
H166	H	1.147523	0.499913	0.268603
C167	C	0.753538	-0.000116	0.097284
C168	C	1.253538	0.499884	0.597284
H169	H	0.711907	-0.000117	0.126646
H170	H	1.211907	0.499883	0.626646
H171	H	0.761851	0.068947	0.076781
H172	H	1.261851	0.568947	0.576781
H173	H	0.740474	-0.069189	0.055434
H174	H	1.240474	0.430811	0.555434
C175	C	0.702455	-0.537543	-0.293242
C176	C	1.202455	-0.037543	0.206758
H177	H	0.696986	-0.620713	-0.298720
H178	H	1.196986	-0.120713	0.201280
H179	H	0.655117	-0.517124	-0.281930
H180	H	1.155117	-0.017124	0.218070
H181	H	0.713743	-0.517108	-0.340589
H182	H	1.213743	-0.017108	0.159411
C183	C	0.725103	-0.724533	-0.270620
C184	C	1.225103	-0.224533	0.229380
H185	H	0.719632	-0.807704	-0.276102
H186	H	1.219632	-0.307704	0.223898
H187	H	0.677766	-0.704112	-0.259306
H188	H	1.177766	-0.204112	0.240694
H189	H	0.736391	-0.704094	-0.317966
H190	H	1.236391	-0.204094	0.182034
H191	H	0.250213	-0.000128	-0.225045
H192	H	0.750213	0.499872	0.274955
H193	H	0.504312	-0.000107	-0.229109
H194	H	1.004312	0.499893	0.270891
C195	C	0.093101	-0.000149	-0.242285
C196	C	0.593101	0.499851	0.257715
H197	H	0.041740	-0.000169	-0.231572
H198	H	0.541740	0.499831	0.268428
H199	H	0.112958	0.068920	-0.260150
H200	H	0.612958	0.568920	0.239850
H201	H	0.091601	-0.069215	-0.281505
H202	H	0.591601	0.430785	0.218495
H203	H	0.754914	-0.293560	-0.240807
H204	H	1.254914	0.206440	0.259193
H205	H	0.991728	-0.367478	-0.004152
H206	H	1.491728	0.132522	0.495848
C207	C	0.959502	-0.275759	-0.036361
C208	C	1.459502	0.224241	0.463639
H209	H	0.964987	-0.192586	-0.030885
H210	H	1.464987	0.307414	0.469115
H211	H	0.948228	-0.296194	0.010986
H212	H	1.448228	0.203806	0.510986
H213	H	1.006836	-0.296190	-0.047691
H214	H	1.506836	0.203810	0.452309
H215	H	1.032806	-0.706739	0.036882
H216	H	1.532806	-0.206739	0.536882
H217	H	0.818646	-0.819812	-0.177131
H218	H	1.318646	-0.319812	0.322869
H219	H	1.021011	-0.000174	0.287591
H220	H	1.521011	0.499826	0.787591
C221	C	1.043184	-0.000188	0.135715
C222	C	1.543184	0.499812	0.635715
H223	H	1.083701	-0.000184	0.175981
H224	H	1.583701	0.499816	0.675981
H225	H	1.035860	-0.069252	0.094626
H226	H	1.535860	0.430748	0.594626
H227	H	1.057232	0.068884	0.115976
H228	H	1.557232	0.568884	0.615976
C229	C	1.036829	-0.000162	0.533022
C230	C	1.536829	0.499838	1.033022
H231	H	1.077348	-0.000157	0.573287
H232	H	1.577348	0.499843	1.073287
H233	H	1.029505	-0.069224	0.491932
H234	H	1.529505	0.430776	0.991932
H235	H	1.050873	0.068912	0.513284
H236	H	1.550873	0.568912	1.013284
C237	C	0.744533	-0.000084	0.660376
C238	C	1.244533	0.499916	1.160376
H239	H	0.704018	-0.000057	0.620118
H240	H	1.204018	0.499943	1.120118
H241	H	0.730482	-0.069144	0.680118
H242	H	1.230482	0.430856	1.180118
H243	H	0.751874	0.068991	0.701466
H244	H	1.251874	0.568991	1.201466
