data_functionalizedCrystal
_audit_creation_method	'MofGen! by Chris Wilmer'
_symmetry_space_group_name_H-M	'P1'
_symmetry_Int_Tables_number	1
_symmetry_cell_setting	triclinic
loop_
_symmetry_equiv_pos_as_xyz
  x,y,z
_cell_length_a	14.908558
_cell_length_b	21.295416
_cell_length_c	14.908308
_cell_angle_alpha	93.263115
_cell_angle_beta	89.824401
_cell_angle_gamma	93.274638
loop_
_atom_site_label
_atom_site_type_symbol
_atom_site_fract_x
_atom_site_fract_y
_atom_site_fract_z
Zn1	Zn	1.345219	0.328518	0.587537
Zn2	Zn	1.353775	0.428084	0.437167
Zn3	Zn	1.203536	0.316425	0.428537
Zn4	Zn	1.194802	0.427335	0.578820
O5	O	1.274333	0.375091	0.508016
O6	O	1.472178	0.347100	0.574850
O7	O	1.341081	0.408526	0.310198
O8	O	1.222405	0.229945	0.449665
O9	O	1.478465	0.420251	0.464374
O10	O	1.326498	0.238829	0.566482
O11	O	1.230702	0.326490	0.303858
O12	O	1.076553	0.325763	0.441213
O13	O	1.207519	0.418973	0.705801
O14	O	1.070136	0.407248	0.551625
O15	O	1.318029	0.346373	0.712205
O16	O	1.332612	0.516070	0.455922
O17	O	1.215816	0.515519	0.559994
C18	C	1.040719	0.365113	0.494538
C19	C	0.940777	0.360860	0.488793
C20	C	0.803223	0.312386	0.423305
C21	C	0.897127	0.316379	0.428699
C22	C	0.890516	0.401351	0.543499
C23	C	0.796611	0.397358	0.538105
C24	C	0.752968	0.352875	0.478005
C25	C	0.659062	0.348886	0.472607
C26	C	0.652451	0.433855	0.587411
C27	C	0.746356	0.437847	0.592805
C28	C	1.274218	0.538636	0.507969
C29	C	1.274250	0.608606	0.507984
C30	C	1.335113	0.641743	0.453858
C31	C	1.335154	0.707488	0.453884
C32	C	1.274316	0.740093	0.508027
C33	C	1.213448	0.706948	0.562164
C34	C	1.213415	0.641204	0.562143
N35	N	1.195263	0.840263	0.510350
N36	N	1.195298	0.902716	0.510365
C37	C	1.274414	0.938174	0.508097
N38	N	1.353497	0.908818	0.505795
N39	N	1.353462	0.846359	0.505775
C40	C	1.274346	0.811380	0.508057
C41	C	1.335327	1.042600	0.453997
C42	C	1.335369	1.108346	0.454030
C43	C	1.213655	1.107805	0.562305
C44	C	1.213621	1.042060	0.562277
C45	C	1.274456	1.009461	0.508118
C46	C	1.508859	0.385108	0.521547
C47	C	1.608800	0.389377	0.527313
C48	C	1.260846	0.383938	0.742540
C49	C	1.255098	0.387709	0.842481
C50	C	1.274472	1.210909	0.508099
C51	C	1.274532	1.140947	0.508174
C52	C	1.287820	0.366234	0.274407
C53	C	1.293741	0.362294	0.174477
C54	C	1.359370	0.319180	1.036949
C55	C	1.353972	0.322721	1.130852
C56	C	1.238902	0.398327	1.124191
C57	C	1.244299	0.394786	1.030288
C58	C	1.304536	0.355212	0.986671
C59	C	1.309938	0.351676	0.892766
C60	C	1.194863	0.427278	0.886106
C61	C	1.189466	0.430818	0.980009
H62	H	0.781903	0.474063	0.641739
Br63	Br	1.391690	0.297972	0.833571
Br64	Br	1.441129	0.265485	0.977750
Br65	Br	1.107717	0.484521	1.039212
H66	H	1.398621	0.293378	1.171786
H67	H	0.767688	0.276167	0.374367
H68	H	0.623529	0.312665	0.423671
Br69	Br	1.417761	0.752470	0.380422
H70	H	1.384937	1.135326	0.409956
Br71	Br	0.965329	0.261424	0.354464
Br72	Br	1.157150	0.452023	1.183401
Br73	Br	1.417686	0.597505	0.380370
Br74	Br	0.949762	0.461724	0.625043
Br75	Br	0.584243	0.488805	0.661657
Br76	Br	1.130888	0.751196	0.635652
H77	H	1.163851	0.614224	0.606220
Br78	Br	1.417884	0.998354	0.380495
Br79	Br	1.131096	1.152047	0.635795
H80	H	1.164056	1.015077	0.606347
H81	H	1.150216	0.456620	0.845159
