data_functionalizedCrystal
_audit_creation_method	'MofGen! by Chris Wilmer'
_symmetry_space_group_name_H-M	'P1'
_symmetry_Int_Tables_number	1
_symmetry_cell_setting	triclinic
loop_
_symmetry_equiv_pos_as_xyz
  x,y,z
_cell_length_a	11.792241
_cell_length_b	16.109301
_cell_length_c	10.868271
_cell_angle_alpha	90.002838
_cell_angle_beta	90.000156
_cell_angle_gamma	83.827448
loop_
_atom_site_label
_atom_site_type_symbol
_atom_site_fract_x
_atom_site_fract_y
_atom_site_fract_z
O1	O	-1.505910	-0.113950	-0.102207
O2	O	-1.005910	0.386050	0.397793
O3	O	-1.175466	-0.125694	-0.102236
O4	O	-0.675466	0.374306	0.397764
O5	O	-1.349765	0.001166	-0.102208
O6	O	-0.849765	0.501166	0.397792
O7	O	-1.331610	-0.240811	-0.102235
O8	O	-0.831610	0.259189	0.397765
O9	O	-1.349749	0.001162	0.102436
O10	O	-0.849749	0.501162	0.602436
O11	O	-1.175450	-0.125698	0.102409
O12	O	-0.675450	0.374302	0.602409
O13	O	-1.505894	-0.113954	0.102438
O14	O	-1.005894	0.386046	0.602438
Zn15	Zn	-1.340669	-0.119827	0.134915
Zn16	Zn	-0.840669	0.380173	0.634915
Zn17	Zn	-1.340690	-0.119822	-0.134713
Zn18	Zn	-0.840690	0.380178	0.365287
O19	O	-1.331594	-0.240815	0.102410
O20	O	-0.831594	0.259185	0.602410
C21	C	-1.133173	-0.124959	0.000083
C22	C	-0.633173	0.375041	0.500083
C23	C	-1.007179	-0.122751	0.000072
C24	C	-0.507179	0.377249	0.500072
C25	C	-1.548186	-0.114690	0.000116
C26	C	-1.048186	0.385310	0.500116
C27	C	-1.674181	-0.116898	0.000119
C28	C	-1.174181	0.383102	0.500119
C29	C	-1.349022	0.032142	0.000115
C30	C	-0.849022	0.532142	0.500115
C31	C	-1.346817	0.124448	0.000116
C32	C	-0.846817	0.624448	0.500116
C33	C	-0.776502	-0.118690	0.000108
C34	C	-0.276502	0.381310	0.500108
C35	C	-0.904868	-0.120946	0.000088
C36	C	-0.404868	0.379054	0.500088
C37	C	-1.332338	-0.271791	0.000084
C38	C	-0.832338	0.228209	0.500084
C39	C	-1.334542	-0.364097	0.000074
C40	C	-0.834542	0.135903	0.500074
N41	N	-1.340663	-0.119830	0.318929
N42	N	-0.840663	0.380170	0.818929
C43	C	-1.445116	0.346258	0.000105
C44	C	-0.945116	0.846258	0.500105
C45	C	-1.443036	0.432988	0.000095
C46	C	-0.943036	0.932988	0.500095
C47	C	-1.236235	0.414087	0.000082
C48	C	-0.736235	0.914087	0.500082
C49	C	-1.238317	0.327358	0.000083
C50	C	-0.738317	0.827358	0.500083
C51	C	-1.342761	0.293446	0.000101
C52	C	-0.842761	0.793446	0.500101
C53	C	-1.338599	0.466905	0.000089
C54	C	-0.838599	0.966905	0.500089
C55	C	-1.336342	0.560942	0.000078
C56	C	-0.836342	1.060942	0.500078
C57	C	-1.345018	0.199404	0.000110
C58	C	-0.845018	0.699404	0.500110
N59	N	-1.340705	-0.119812	-0.318727
N60	N	-0.840705	0.380188	0.181273
C61	C	-1.340672	-0.119831	0.430267
C62	C	-0.840672	0.380169	0.930267
C63	C	-1.340687	-0.119823	0.569944
C64	C	-0.840687	0.380177	1.069944
H65	H	-1.530161	0.318650	0.000117
H66	H	-1.030161	0.818650	0.500117
O67	O	-1.542540	0.484203	-0.000061
O68	O	-1.042540	0.984203	0.499939
C69	C	-1.605946	0.468764	-0.106056
C70	C	-1.105946	0.968764	0.393944
H71	H	-1.578055	0.403105	-0.141389
H72	H	-1.078055	0.903105	0.358611
H73	H	-1.700606	0.474441	-0.082210
H74	H	-1.200606	0.974441	0.417790
H75	H	-1.590449	0.516262	-0.180278
H76	H	-1.090449	1.016262	0.319722
O77	O	-1.134855	0.447131	-0.000089
O78	O	-0.634855	0.947131	0.499911
C79	C	-1.127455	0.496714	-0.106090
C80	C	-0.627455	0.996714	0.393910
H81	H	-1.216919	0.517910	-0.141422
H82	H	-0.716919	1.017910	0.358578
H83	H	-1.082231	0.553703	-0.082252
H84	H	-0.582231	1.053703	0.417748
H85	H	-1.077232	0.458625	-0.180309
H86	H	-0.577232	0.958625	0.319691
H87	H	-1.154962	0.284357	0.000076
H88	H	-0.654962	0.784357	0.500076
