data_functionalizedCrystal
_audit_creation_method	'MofGen! by Chris Wilmer'
_symmetry_space_group_name_H-M	'P1'
_symmetry_Int_Tables_number	1
_symmetry_cell_setting	triclinic
loop_
_symmetry_equiv_pos_as_xyz
  x,y,z
_cell_length_a	6.817900
_cell_length_b	19.551823
_cell_length_c	16.015572
_cell_angle_alpha	78.350504
_cell_angle_beta	104.485554
_cell_angle_gamma	101.663376
loop_
_atom_site_label
_atom_site_type_symbol
_atom_site_fract_x
_atom_site_fract_y
_atom_site_fract_z
V1	V	-3.988979	-0.028153	-0.269511
O2	O	-3.986496	0.071758	-0.263965
O3	O	-3.931824	-0.123535	-0.268067
O4	O	-3.928173	0.003172	-0.386871
O5	O	-3.990172	-0.055827	-0.144338
V6	V	-4.475348	-0.019853	-0.254490
O7	O	-4.243992	-0.046360	-0.302459
O8	O	-4.670532	-0.001645	-0.221542
O9	O	-4.309296	0.075530	-0.255934
O10	O	-4.595228	-0.119763	-0.260036
O11	O	-4.591552	0.007822	-0.379663
O12	O	-4.312947	-0.051178	-0.137130
C13	C	-3.775096	-0.147753	-0.263918
C14	C	-3.809570	-0.225530	-0.263520
C15	C	-3.770439	0.013876	-0.415464
C16	C	-3.801950	0.038857	-0.511410
C17	C	-4.007075	-0.264526	-0.267649
C18	C	-4.039470	-0.337605	-0.267283
C19	C	-3.874342	-0.371687	-0.262771
C20	C	-3.676811	-0.332682	-0.258647
C21	C	-3.644425	-0.259603	-0.259021
C22	C	-3.766899	-0.492090	-0.208041
C23	C	-3.799290	-0.565168	-0.207661
C24	C	-3.974226	-0.597086	-0.261621
C25	C	-4.116797	-0.555918	-0.315949
C26	C	-4.084410	-0.482839	-0.316324
C27	C	-3.909440	-0.450929	-0.262366
C28	C	-4.206871	-0.715322	-0.265355
C29	C	-4.239261	-0.788402	-0.264995
C30	C	-3.876593	-0.783478	-0.256350
C31	C	-3.844212	-0.710399	-0.256719
C32	C	-4.009357	-0.676326	-0.261217
C33	C	-4.070233	-0.182873	-0.889969
C34	C	-4.099849	-0.159377	-0.980120
C35	C	-4.034018	-0.037816	-0.954905
C36	C	-4.004386	-0.061302	-0.864750
C37	C	-4.022499	-0.133831	-0.832290
C38	C	-3.956652	-0.012261	-0.807070
C39	C	-3.927034	-0.035745	-0.716923
C40	C	-3.945149	-0.108271	-0.684456
C41	C	-3.992881	-0.157315	-0.742142
C42	C	-3.938554	0.060268	-0.839533
C43	C	-3.890821	0.109310	-0.781853
C44	C	-3.861187	0.085826	-0.691704
C45	C	-3.879302	0.013300	-0.659236
C46	C	-3.813455	0.134870	-0.634017
C47	C	-3.783836	0.111386	-0.543870
C48	C	-3.849683	-0.010185	-0.569089
C49	C	-4.129366	0.099743	-0.260081
C50	C	-4.074130	0.177521	-0.260484
C51	C	-4.134024	-0.061885	-0.108532
C52	C	-4.081752	-0.086863	-0.012586
H53	H	-4.141554	-0.236788	-0.271318
C54	C	-3.731321	0.165334	-0.480419
N55	N	-3.691771	0.205970	-0.432627
C56	C	-3.694948	-0.820965	-0.251389
N57	N	-3.558130	-0.849202	-0.247655
H58	H	-4.200496	-0.449323	-0.360561
H59	H	-3.483591	-0.227853	-0.255659
H60	H	-3.798733	0.193923	-0.660461
C61	C	-4.152369	-0.213333	-1.043567
N62	N	-4.191934	-0.253972	-1.091355
H63	H	-4.341341	-0.687579	-0.269017
C64	C	-4.256748	-0.380510	-0.271818
N65	N	-4.420401	-0.412824	-0.275231
H66	H	-3.921036	-0.127391	-0.611051
H67	H	-4.007603	-0.216375	-0.715711
C68	C	-4.014081	0.041964	-0.990623
N69	N	-3.999051	0.102056	-1.017523
C70	C	-4.309244	-0.591022	-0.375307
N71	N	-4.454195	-0.617466	-0.420011
C72	C	-3.642501	-0.610450	-0.147872
N73	N	-3.524415	-0.644557	-0.102829
C74	C	-3.626933	-0.667504	-0.252163
N75	N	-3.463269	-0.635195	-0.248731
H76	H	-4.400099	-0.820151	-0.268363
C77	C	-3.870884	0.189090	-0.817571
N78	N	-3.855854	0.249182	-0.844471
H79	H	-3.624430	-0.466109	-0.164103
C80	C	-3.869593	-0.089970	-0.533378
N81	N	-3.884592	-0.150062	-0.506480
C82	C	-4.090143	-0.262659	-0.854258
N83	N	-4.105142	-0.322751	-0.827359
H84	H	-3.542366	-0.360436	-0.254975
H85	H	-3.962642	0.079387	-0.912937
