data_functionalizedCrystal
_audit_creation_method	'MofGen! by Chris Wilmer'
_symmetry_space_group_name_H-M	'P1'
_symmetry_Int_Tables_number	1
_symmetry_cell_setting	triclinic
loop_
_symmetry_equiv_pos_as_xyz
  x,y,z
_cell_length_a	17.699097
_cell_length_b	23.532407
_cell_length_c	16.776229
_cell_angle_alpha	89.988688
_cell_angle_beta	89.989262
_cell_angle_gamma	83.068554
loop_
_atom_site_label
_atom_site_type_symbol
_atom_site_fract_x
_atom_site_fract_y
_atom_site_fract_z
O1	O	1.003707	0.072056	-0.066363
O2	O	1.503707	0.572056	0.433637
O3	O	0.783282	0.081418	-0.066351
O4	O	1.283282	0.581418	0.433649
O5	O	0.900141	-0.006176	-0.066342
O6	O	1.400141	0.493824	0.433658
O7	O	0.886847	0.159649	-0.066371
O8	O	1.386847	0.659649	0.433629
O9	O	0.900126	-0.006181	0.066234
O10	O	1.400126	0.493819	0.566234
O11	O	0.783267	0.081412	0.066226
O12	O	1.283267	0.581412	0.566226
O13	O	1.003691	0.072050	0.066214
O14	O	1.503691	0.572050	0.566214
Zn15	Zn	0.893476	0.076731	0.087269
Zn16	Zn	1.393476	0.576731	0.587269
Zn17	Zn	0.893497	0.076738	-0.087406
Zn18	Zn	1.393497	0.576738	0.412594
O19	O	0.886832	0.159644	0.066206
O20	O	1.386832	0.659644	0.566206
C21	C	0.755079	0.081078	-0.000061
C22	C	1.255079	0.581078	0.499939
C23	C	0.671067	0.080068	-0.000056
C24	C	1.171067	0.580068	0.499944
C25	C	0.155388	0.073879	-0.072354
C26	C	0.655388	0.573879	0.427646
C27	C	0.234328	0.074824	-0.072350
C28	C	0.734328	0.574824	0.427650
C29	C	0.273783	0.075295	-0.000080
C30	C	0.773783	0.575295	0.499920
C31	C	0.234296	0.074814	0.072192
C32	C	0.734296	0.574814	0.572192
C33	C	0.155359	0.073865	0.072187
C34	C	0.655359	0.573865	0.572187
C35	C	0.552640	0.078642	0.072212
C36	C	1.052640	0.578642	0.572212
C37	C	0.631583	0.079594	0.072211
C38	C	1.131583	0.579594	0.572211
C39	C	0.631609	0.079602	-0.072325
C40	C	1.131609	0.579602	0.427675
C41	C	0.552672	0.078652	-0.072330
C42	C	1.052672	0.578652	0.427670
C43	C	0.513193	0.078169	-0.000059
C44	C	1.013193	0.578169	0.499941
C45	C	0.427598	0.077143	-0.000064
C46	C	0.927598	0.577143	0.499936
C47	C	0.359375	0.076325	-0.000074
C48	C	0.859375	0.576325	0.499926
C49	C	0.899795	-0.027395	-0.000052
C50	C	1.399795	0.472605	0.499948
C51	C	0.898777	-0.090615	-0.000046
C52	C	1.398777	0.409385	0.499954
C53	C	0.961548	-0.489536	-0.000093
C54	C	1.461548	0.010464	0.499907
C55	C	0.960603	-0.548939	-0.000099
C56	C	1.460603	-0.048939	0.499901
O57	O	1.018792	-0.585514	-0.000132
O58	O	1.518792	-0.085514	0.499868
N59	N	0.891130	-0.571767	-0.000095
N60	N	1.391130	-0.071767	0.499905
C61	C	0.822598	-0.535189	-0.000092
C62	C	1.322598	-0.035189	0.499908
O63	O	0.763419	-0.560060	-0.000090
O64	O	1.263419	-0.060060	0.499910
C65	C	0.823545	-0.475787	-0.000092
C66	C	1.323545	0.024213	0.499908
C67	C	0.893022	-0.452962	-0.000088
C68	C	1.393022	0.047038	0.499912
C69	C	1.031020	-0.466710	-0.000090
C70	C	1.531020	0.033290	0.499910
C71	C	1.031965	-0.407311	-0.000083
C72	C	1.531965	0.092689	0.499917
C73	C	0.963439	-0.370738	-0.000078
C74	C	1.463439	0.129262	0.499922
C75	C	0.893967	-0.393563	-0.000081
C76	C	1.393967	0.106437	0.499919
C77	C	0.755014	-0.439210	-0.000096
C78	C	1.255014	0.060790	0.499904
C79	C	0.755966	-0.379804	-0.000096
C80	C	1.255966	0.120196	0.499904
C81	C	0.825443	-0.356980	-0.000092
C82	C	1.325443	0.143020	0.499908
C83	C	0.826386	-0.297591	-0.000069
C84	C	1.326386	0.202409	0.499931
N85	N	0.895858	-0.274763	-0.000073
N86	N	1.395858	0.225237	0.499927
C87	C	0.964385	-0.311336	-0.000078
C88	C	1.464385	0.188664	0.499922
C89	C	0.820616	-0.659937	-0.000094
C90	C	1.320616	-0.159937	0.499906
C91	C	0.819669	-0.719338	-0.000089
C92	C	1.319669	-0.219338	0.499911
C93	C	0.957674	-0.733084	-0.000097
C94	C	1.457674	-0.233084	0.499903
C95	C	0.958620	-0.673682	-0.000097
C96	C	1.458620	-0.173682	0.499903
C97	C	0.890089	-0.637109	-0.000099
C98	C	1.390089	-0.137109	0.499901
C99	C	0.966365	-0.186594	-0.000061
C100	C	1.466365	0.313406	0.499939
C101	C	0.967304	-0.127189	-0.000050
C102	C	1.467304	0.372811	0.499950
C103	C	0.829299	-0.113448	-0.000047
C104	C	1.329299	0.386552	0.499953
C105	C	0.828360	-0.172848	-0.000053
C106	C	1.328360	0.327152	0.499947
C107	C	0.896899	-0.209420	-0.000063
C108	C	1.396899	0.290580	0.499937
O109	O	0.768227	-0.260981	-0.000039
O110	O	1.268227	0.239019	0.499961
O111	O	1.023554	-0.286456	-0.000091
O112	O	1.523554	0.213544	0.499909
C113	C	1.031894	0.072390	-0.000078
C114	C	1.531894	0.572390	0.499922
C115	C	1.115906	0.073400	-0.000088
C116	C	1.615906	0.573400	0.499912
C117	C	0.887178	0.180864	-0.000086
C118	C	1.387178	0.680864	0.499914
C119	C	0.888196	0.244084	-0.000098
C120	C	1.388196	0.744084	0.499902
N121	N	0.893468	0.076725	0.206481
N122	N	1.393468	0.576725	0.706481
N123	N	0.893511	0.076738	-0.206617
N124	N	1.393511	0.576738	0.293383
C125	C	0.945229	0.037955	0.248201
C126	C	1.445229	0.537955	0.748201
C127	C	0.945233	0.037954	0.331653
C128	C	1.445233	0.537954	0.831653
C129	C	0.893480	0.076728	0.373383
C130	C	1.393480	0.576728	0.873383
C131	C	0.841713	0.115500	0.331657
C132	C	1.341713	0.615500	0.831657
C133	C	0.841706	0.115497	0.248206
C134	C	1.341706	0.615497	0.748206
C135	C	0.841741	0.115511	0.668204
C136	C	1.341741	0.615511	1.168204
C137	C	0.841753	0.115512	0.751660
C138	C	1.341753	0.615512	1.251660
C139	C	0.945268	0.037968	0.751651
C140	C	1.445268	0.537968	1.251651
C141	C	0.945260	0.037966	0.668201
C142	C	1.445260	0.537966	1.168201
C143	C	0.893492	0.076736	0.626481
C144	C	1.393492	0.576736	1.126481
C145	C	0.893487	0.076735	0.535993
C146	C	1.393487	0.576735	1.035993
C147	C	0.893487	0.076731	0.463870
C148	C	1.393487	0.576731	0.963870
H149	H	0.266471	0.075210	-0.131197
H150	H	0.766471	0.575210	0.368803
H151	H	0.987405	0.006395	0.634227
H152	H	1.487405	0.506395	1.134227
F153	F	0.754415	-0.197140	-0.000043
F154	F	1.254415	0.302860	0.499957
H155	H	0.698438	-0.457783	-0.000104
H156	H	1.198438	0.042217	0.499896
F157	F	0.683023	-0.340884	-0.000100
F158	F	1.183023	0.159116	0.499900
H159	H	0.987380	0.006384	0.365622
H160	H	1.487380	0.506384	0.865622
H161	H	0.663705	0.079977	0.131066
H162	H	1.163705	0.579977	0.631066
F163	F	0.786667	0.156781	0.796071
F164	F	1.286667	0.656781	1.296071
F165	F	0.786613	0.156761	0.203805
F166	F	1.286613	0.656761	0.703805
H167	H	0.799590	0.147080	0.634243
H168	H	1.299590	0.647080	1.134243
H169	H	0.799571	0.147068	0.365638
H170	H	1.299571	0.647068	0.865638
H171	H	0.773507	-0.083659	-0.000040
H172	H	1.273507	0.416341	0.499960
H173	H	0.123269	0.073500	-0.131205
H174	H	0.623269	0.573500	0.368795
H175	H	0.520551	0.078272	-0.131180
H176	H	1.020551	0.578272	0.368820
H177	H	0.763094	-0.737916	-0.000078
H178	H	1.263094	-0.237916	0.499922
H179	H	0.663764	0.079993	-0.131172
H180	H	1.163764	0.579993	0.368828
F181	F	0.510631	0.078140	0.149130
F182	F	1.010631	0.578140	0.649130
F183	F	1.000363	-0.003297	0.796058
F184	F	1.500363	0.496703	1.296058
H185	H	0.266427	0.075194	0.131036
H186	H	0.766427	0.575194	0.631036
H187	H	1.023883	-0.108609	-0.000045
H188	H	1.523883	0.391391	0.499955
H189	H	1.086826	-0.496483	-0.000097
H190	H	1.586826	0.003517	0.499903
H191	H	0.987376	0.006384	0.214230
H192	H	1.487376	0.506384	0.714230
H193	H	1.088540	-0.388734	-0.000083
H194	H	1.588540	0.111266	0.499917
F195	F	0.113340	0.073351	0.149103
F196	F	0.613340	0.573351	0.649103
H197	H	1.022175	-0.216364	-0.000072
H198	H	1.522175	0.283636	0.499928
F199	F	1.030606	-0.772019	-0.000106
F200	F	1.530606	-0.272019	0.499894
H201	H	0.764806	-0.630162	-0.000089
H202	H	1.264806	-0.130162	0.499911
F203	F	1.032566	-0.649396	-0.000093
F204	F	1.532566	-0.149396	0.499907
