data_functionalizedCrystal
_audit_creation_method	'MofGen! by Chris Wilmer'
_symmetry_space_group_name_H-M	'P1'
_symmetry_Int_Tables_number	1
_symmetry_cell_setting	triclinic
loop_
_symmetry_equiv_pos_as_xyz
  x,y,z
_cell_length_a	6.817900
_cell_length_b	11.168121
_cell_length_c	17.110486
_cell_angle_alpha	95.206488
_cell_angle_beta	99.060439
_cell_angle_gamma	108.508496
loop_
_atom_site_label
_atom_site_type_symbol
_atom_site_fract_x
_atom_site_fract_y
_atom_site_fract_z
V1	V	-4.002456	-0.174329	-0.246727
O2	O	-3.964089	0.008764	-0.242023
O3	O	-3.979476	-0.346036	-0.245046
O4	O	-3.931896	-0.171477	-0.354330
O5	O	-4.011998	-0.167003	-0.131983
V6	V	-4.485662	-0.152449	-0.233002
O7	O	-4.264411	-0.222324	-0.276834
O8	O	-4.673904	-0.104453	-0.202895
O9	O	-4.285436	0.019259	-0.234683
O10	O	-4.641426	-0.335541	-0.237705
O11	O	-4.593517	-0.159774	-0.347746
O12	O	-4.333015	-0.155300	-0.125399
C13	C	-3.831377	-0.387900	-0.241155
C14	C	-3.893727	-0.528273	-0.240498
C15	C	-3.770684	-0.165231	-0.380557
C16	C	-3.794445	-0.164036	-0.468523
C17	C	-4.094729	-0.596960	-0.243958
C18	C	-4.159175	-0.742042	-0.243279
C19	C	-3.987827	-0.169777	-0.513881
C20	C	-4.010141	-0.168653	-0.596534
C21	C	-3.839074	-0.161798	-0.633829
C22	C	-3.645674	-0.156053	-0.588464
C23	C	-3.623358	-0.157168	-0.505812
C24	C	-3.897332	-0.158109	-0.883183
C25	C	-3.919665	-0.156998	-0.965842
C26	C	-4.284131	-0.169596	-0.973907
C27	C	-4.261801	-0.170718	-0.891253
C28	C	-4.068401	-0.164966	-0.845895
C29	C	-3.861880	-0.160653	-0.718314
C30	C	-4.045594	-0.166102	-0.761410
C31	C	-4.096877	0.061117	-0.238571
C32	C	-4.013765	0.201488	-0.239233
C33	C	-4.157571	-0.161550	-0.099167
C34	C	-4.113048	-0.162739	-0.011200
H35	H	-4.331364	-0.801086	-0.246232
O36	O	-4.446303	-0.178110	-0.851024
H37	H	-4.403814	-0.092475	-0.805104
H38	H	-4.441590	-0.174277	-1.010845
O39	O	-3.414757	-0.150959	-0.456896
H40	H	-3.354857	-0.064700	-0.410608
O41	O	-4.259507	-0.532601	-0.248558
H42	H	-4.337081	-0.547533	-0.196156
H43	H	-3.769354	-0.576877	-0.237038
H44	H	-3.841567	-0.739473	-0.236268
O45	O	-3.461158	-0.148666	-0.628683
H46	H	-3.509167	-0.148871	-0.693779
H47	H	-3.722602	-0.155076	-0.748689
O48	O	-4.172338	-0.177156	-0.473660
H49	H	-4.305038	-0.266402	-0.499913
O50	O	-4.218704	-0.174817	-0.645457
H51	H	-4.333910	-0.179777	-0.605638
H52	H	-3.780349	-0.151412	-0.996204
O53	O	-3.688757	-0.151923	-0.834267
H54	H	-3.573568	-0.146987	-0.874091
O55	O	-4.230105	-0.173490	-0.721193
H56	H	-4.269672	-0.260754	-0.692184
