data_functionalizedCrystal
_audit_creation_method	'MofGen! by Chris Wilmer'
_symmetry_space_group_name_H-M	'P1'
_symmetry_Int_Tables_number	1
_symmetry_cell_setting	triclinic
loop_
_symmetry_equiv_pos_as_xyz
  x,y,z
_cell_length_a	13.033808
_cell_length_b	13.031981
_cell_length_c	12.827885
_cell_angle_alpha	82.783254
_cell_angle_beta	97.153975
_cell_angle_gamma	105.194505
loop_
_atom_site_label
_atom_site_type_symbol
_atom_site_fract_x
_atom_site_fract_y
_atom_site_fract_z
Zn1	Zn	1.570119	-0.216338	-0.364242
Zn2	Zn	1.547455	-0.394034	-0.169784
Zn3	Zn	1.392495	-0.238984	-0.209160
Zn4	Zn	1.369940	-0.416537	-0.364132
O5	O	1.470002	-0.316473	-0.276830
O6	O	1.715740	-0.221015	-0.322014
O7	O	1.526853	-0.373526	-0.028769
O8	O	1.434982	-0.087307	-0.246258
O9	O	1.699088	-0.351567	-0.179146
O10	O	1.565482	-0.070669	-0.360196
O11	O	1.413005	-0.259611	-0.057699
O12	O	1.240876	-0.281432	-0.246151
O13	O	1.396540	-0.389920	-0.510385
O14	O	1.224305	-0.411879	-0.360008
O15	O	1.543611	-0.242835	-0.510466
O16	O	1.504982	-0.545691	-0.179039
O17	O	1.374563	-0.562224	-0.321826
C18	C	1.194053	-0.351555	-0.307341
C19	C	1.075998	-0.366589	-0.320416
C20	C	1.434895	-0.592503	-0.246167
C21	C	1.419973	-0.710578	-0.233074
C22	C	0.909533	-0.324183	-0.283537
C23	C	1.031549	-0.308645	-0.270019
C24	C	1.477847	-0.754909	-0.283678
C25	C	1.462425	-0.876945	-0.270147
C26	C	1.747029	-0.281255	-0.246200
C27	C	1.865081	-0.266247	-0.233147
C28	C	1.470087	-0.316362	-0.549403
C29	C	1.470124	-0.316315	-0.665558
C30	C	1.505276	-0.039361	-0.307632
C31	C	1.520307	0.078727	-0.320757
C32	C	1.542908	-0.243519	-0.717383
C33	C	1.542947	-0.243468	-0.837435
C34	C	1.469988	-0.316499	-0.005318
C35	C	1.470196	-0.316221	0.110825
H36	H	0.857257	-0.385291	-0.336680
H37	H	1.407883	-0.378551	-0.844612
H38	H	1.359003	-0.762972	-0.179738
C39	C	1.627051	-0.159367	-0.657260
N40	N	1.690431	-0.095982	-0.611977
H41	H	1.023727	-0.427700	-0.373566
H42	H	1.605263	-0.181148	-0.882003
C43	C	1.102163	-0.226087	-0.198217
N44	N	1.155351	-0.163902	-0.144139
C45	C	0.935698	-0.183692	-0.161348
N46	N	0.988886	-0.121508	-0.107270
C47	C	1.560211	-0.684133	-0.355741
N48	N	1.622251	-0.630825	-0.410018
C49	C	1.385974	-0.400460	-0.725682
N50	N	1.322590	-0.463840	-0.770967
H51	H	1.581273	-0.868885	-0.374107
C52	C	1.380083	-0.947715	-0.198051
N53	N	1.318075	-1.001018	-0.143739
