data_functionalizedCrystal
_audit_creation_method	'MofGen! by Chris Wilmer'
_symmetry_space_group_name_H-M	'P1'
_symmetry_Int_Tables_number	1
_symmetry_cell_setting	triclinic
loop_
_symmetry_equiv_pos_as_xyz
  x,y,z
_cell_length_a	21.395362
_cell_length_b	21.395361
_cell_length_c	21.395355
_cell_angle_alpha	89.978489
_cell_angle_beta	89.956060
_cell_angle_gamma	90.046585
loop_
_atom_site_label
_atom_site_type_symbol
_atom_site_fract_x
_atom_site_fract_y
_atom_site_fract_z
Zn1	Zn	0.957859	-0.249246	-0.354573
Zn2	Zn	1.457859	0.250754	0.145427
Zn3	Zn	0.957762	-0.354005	-0.249790
Zn4	Zn	1.457762	0.145995	0.250210
Zn5	Zn	0.853074	-0.249275	-0.249774
Zn6	Zn	1.353074	0.250725	0.250226
Zn7	Zn	0.853044	-0.354018	-0.354494
Zn8	Zn	1.353044	0.145982	0.145506
O9	O	0.905435	-0.301636	-0.302158
O10	O	1.405435	0.198364	0.197842
O11	O	1.045524	-0.263125	-0.340712
O12	O	1.545524	0.236875	0.159288
O13	O	0.943847	-0.340119	-0.162110
O14	O	1.443847	0.159881	0.337890
O15	O	0.867028	-0.161593	-0.263702
O16	O	1.367028	0.338407	0.236298
O17	O	1.045453	-0.340091	-0.263729
O18	O	1.545453	0.159909	0.236271
O19	O	0.944013	-0.161572	-0.340697
O20	O	1.444013	0.338428	0.159303
O21	O	0.866934	-0.263174	-0.162098
O22	O	1.366934	0.236826	0.337902
O23	O	0.765392	-0.263187	-0.263626
O24	O	1.265392	0.236813	0.236374
O25	O	0.866976	-0.340113	-0.442183
O26	O	1.366976	0.159887	0.057817
O27	O	0.765370	-0.340141	-0.340564
O28	O	1.265370	0.159859	0.159436
O29	O	0.943983	-0.263137	-0.442240
O30	O	1.443983	0.236863	0.057760
O31	O	0.943817	-0.441685	-0.263653
O32	O	1.443817	0.058315	0.236347
O33	O	0.866881	-0.441695	-0.340579
O34	O	1.366881	0.058305	0.159421
C35	C	0.742647	-0.301669	-0.302085
C36	C	1.242647	0.198331	0.197915
C37	C	0.673006	-0.301698	-0.302069
C38	C	1.173006	0.198302	0.197931
C39	C	0.640297	-0.341822	-0.342070
C40	C	1.140297	0.158178	0.157930
C41	C	0.574862	-0.341806	-0.342098
C42	C	1.074862	0.158194	0.157902
C43	C	0.542138	-0.301674	-0.302113
C44	C	1.042138	0.198326	0.197887
C45	C	0.574854	-0.261543	-0.262109
C46	C	1.074854	0.238457	0.237891
C47	C	0.640288	-0.261555	-0.262087
C48	C	1.140288	0.238445	0.237913
C49	C	0.438413	-0.296627	-0.245708
C50	C	0.938413	0.203373	0.254292
C51	C	0.372980	-0.296619	-0.245730
C52	C	0.872980	0.203381	0.254270
C53	C	0.340317	-0.301633	-0.302182
C54	C	0.840317	0.198367	0.197818
C55	C	0.373095	-0.306668	-0.358616
C56	C	0.873095	0.193332	0.141384
C57	C	0.438529	-0.306681	-0.358594
C58	C	0.938529	0.193319	0.141406
C59	C	0.471185	-0.301656	-0.302133
C60	C	0.971185	0.198344	0.197867
C61	C	0.236656	-0.341742	-0.342218
C62	C	0.736656	0.158258	0.157782
C63	C	0.171219	-0.341723	-0.342247
C64	C	0.671219	0.158277	0.157753
C65	C	0.171213	-0.261462	-0.262252
C66	C	0.671213	0.238538	0.237748
C67	C	0.236648	-0.261479	-0.262229
C68	C	0.736648	0.238521	0.237771
C69	C	0.269366	-0.301622	-0.302211
C70	C	0.769366	0.198378	0.197789
C71	C	0.905352	-0.464424	-0.302123
C72	C	1.405352	0.035576	0.197877
C73	C	0.905374	-0.534065	-0.302129
C74	C	1.405374	-0.034065	0.197871
C75	C	0.945470	-0.566752	-0.262114
C76	C	1.445470	-0.066752	0.237886
C77	C	0.945499	-0.632188	-0.262128
C78	C	1.445499	-0.132188	0.237872
C79	C	0.905421	-0.664933	-0.302150
C80	C	1.405421	-0.164933	0.197850
C81	C	0.865322	-0.632238	-0.342172
C82	C	1.365322	-0.132238	0.157828
C83	C	0.865299	-0.566804	-0.342162
C84	C	1.365299	-0.066804	0.157838
C85	C	0.849006	-0.768664	-0.307041
C86	C	1.349006	-0.268664	0.192959
C87	C	0.849029	-0.834097	-0.307047
C88	C	1.349029	-0.334097	0.192953
C89	C	0.905494	-0.866754	-0.302187
C90	C	1.405494	-0.366754	0.197813
C91	C	0.961939	-0.833970	-0.297307
C92	C	1.461939	-0.333970	0.202693
C93	C	0.961915	-0.768536	-0.297296
C94	C	1.461915	-0.268536	0.202704
C95	C	0.905443	-0.735886	-0.302167
C96	C	1.405443	-0.235886	0.197833
C97	C	0.945625	-0.970394	-0.262186
C98	C	1.445625	-0.470394	0.237814
C99	C	0.945655	-1.035830	-0.262204
C100	C	1.445655	-0.535830	0.237796
C101	C	0.865473	-1.035879	-0.342245
C102	C	1.365473	-0.535879	0.157755
C103	C	0.865448	-0.970444	-0.342230
C104	C	1.365448	-0.470444	0.157770
C105	C	0.905524	-0.937705	-0.302197
C106	C	1.405524	-0.437705	0.197803
C107	C	1.068858	-0.301603	-0.302231
C108	C	1.568858	0.198397	0.197769
C109	C	1.138499	-0.301589	-0.302262
C110	C	1.638499	0.198411	0.197738
C111	C	0.905487	-0.301623	-0.465581
C112	C	1.405487	0.198377	0.034419
C113	C	0.905509	-0.301618	-0.535222
C114	C	1.405509	0.198382	-0.035222
C115	C	0.905535	-0.138213	-0.302206
C116	C	1.405535	0.361787	0.197794
C117	C	0.905578	-0.068571	-0.302227
C118	C	1.405578	0.431429	0.197773
C119	C	0.945605	-0.261535	-0.567966
C120	C	1.445605	0.238465	-0.067966
C121	C	0.945604	-0.261508	-0.633402
C122	C	1.445604	0.238492	-0.133402
C123	C	0.905514	-0.301575	-0.666091
C124	C	1.405514	0.198425	-0.166091
C125	C	0.865410	-0.341661	-0.633339
C126	C	1.365410	0.158339	-0.133339
C127	C	0.865407	-0.341682	-0.567904
C128	C	1.365407	0.158318	-0.067904
C129	C	0.900538	-0.357992	-0.769752
C130	C	1.400538	0.142008	-0.269752
C131	C	0.900545	-0.357972	-0.835185
C132	C	1.400545	0.142028	-0.335185
C133	C	0.905518	-0.301509	-0.867911
C134	C	1.405518	0.198491	-0.367911
C135	C	0.910497	-0.245065	-0.835197
C136	C	1.410497	0.254935	-0.335197
C137	C	0.910495	-0.245086	-0.769763
C138	C	1.410495	0.254914	-0.269763
C139	C	0.905512	-0.301556	-0.737043
C140	C	1.405512	0.198444	-0.237043
C141	C	0.945615	-0.261393	-0.971608
C142	C	1.445615	0.238607	-0.471608
C143	C	0.945610	-0.261365	-1.037045
C144	C	1.445610	0.238635	-0.537045
C145	C	0.865419	-0.341524	-1.036980
C146	C	1.365419	0.158476	-0.536980
C147	C	0.865421	-0.341547	-0.971545
C148	C	1.365421	0.158453	-0.471545
C149	C	0.905522	-0.301482	-0.938863
C150	C	1.405522	0.198518	-0.438863
C151	C	0.905419	-0.301603	-0.139370
C152	C	1.405419	0.198397	0.360630
C153	C	0.905518	-0.301432	-0.069729
C154	C	1.405518	0.198568	0.430271
H155	H	0.548226	-0.374479	-0.374674
H156	H	1.048226	0.125521	0.125326
C157	C	0.676283	-0.385970	-0.386055
C158	C	1.176283	0.114030	0.113945
H159	H	0.647428	-0.409860	-0.409887
H160	H	1.147428	0.090140	0.090113
H161	H	0.701758	-0.413239	-0.362032
H162	H	1.201758	0.086761	0.137968
H163	H	0.701860	-0.362042	-0.413394
H164	H	1.201860	0.137958	0.086606
H165	H	0.803022	-0.742081	-0.311001
H166	H	1.303022	-0.242081	0.188999
C167	C	0.474583	-0.312209	-0.420665
C168	C	0.974583	0.187791	0.079335
H169	H	0.445763	-0.315190	-0.454292
H170	H	0.945763	0.184810	0.045708
H171	H	0.500074	-0.348529	-0.419777
H172	H	1.000074	0.151471	0.080223
H173	H	0.500148	-0.276307	-0.426224
H174	H	1.000148	0.223693	0.073776
H175	H	0.832795	-0.943828	-0.374811
H176	H	1.332795	-0.443828	0.125189
H177	H	0.896321	-0.403959	-0.743111
H178	H	1.396321	0.096041	-0.243111
H179	H	0.978103	-0.540098	-0.229519
H180	H	1.478103	-0.040098	0.270481
H181	H	0.144569	-0.228783	-0.229699
H182	H	0.644569	0.271217	0.270301
H183	H	0.896494	-0.403932	-0.861815
H184	H	1.396494	0.096068	-0.361815
H185	H	0.978153	-0.658807	-0.229544
H186	H	1.478153	-0.158807	0.270456
H187	H	0.832766	-0.374282	-0.659958
H188	H	1.332766	0.125718	-0.159958
C189	C	0.272629	-0.217351	-0.218219
C190	C	0.772629	0.282649	0.281781
H191	H	0.243770	-0.193450	-0.194404
H192	H	0.743770	0.306550	0.305596
H193	H	0.298211	-0.190091	-0.242225
H194	H	0.798211	0.309909	0.257775
H195	H	0.298098	-0.241289	-0.190864
H196	H	0.798098	0.258711	0.309136
H197	H	0.803068	-0.860785	-0.311015
H198	H	1.303068	-0.360785	0.188985
H199	H	0.832843	-1.062540	-0.374834
H200	H	1.332843	-0.562540	0.125166
C201	C	0.821309	-0.385785	-0.531885
C202	C	1.321309	0.114215	-0.031885
H203	H	0.797434	-0.409648	-0.560722
H204	H	1.297434	0.090352	-0.060722
H205	H	0.794023	-0.361837	-0.506334
H206	H	1.294023	0.138163	-0.006334
H207	H	0.845269	-0.413089	-0.506381
H208	H	1.345269	0.086911	-0.006381
H209	H	0.832691	-0.658904	-0.374760
H210	H	1.332691	-0.158904	0.125240
H211	H	0.978310	-1.062443	-0.229621
H212	H	1.478310	-0.562443	0.270379
H213	H	0.346502	-0.310751	-0.404585
H214	H	0.846502	0.189249	0.095415
H215	H	0.914548	-0.199088	-0.861842
H216	H	1.414548	0.300912	-0.361842
H217	H	0.978259	-0.943737	-0.229590
H218	H	1.478259	-0.443737	0.270410
C219	C	0.272648	-0.385890	-0.386201
C220	C	0.772648	0.114110	0.113799
H221	H	0.243794	-0.409778	-0.410037
H222	H	0.743794	0.090222	0.089963
H223	H	0.298119	-0.413161	-0.362176
H224	H	0.798119	0.086839	0.137824
H225	H	0.298228	-0.361963	-0.413537
H226	H	0.798228	0.138037	0.086463
H227	H	1.007873	-0.741844	-0.293325
H228	H	1.507873	-0.241844	0.206675
C229	C	0.336927	-0.291125	-0.183655
C230	C	0.836927	0.208875	0.316345
H231	H	0.293279	-0.291857	-0.191750
H232	H	0.793279	0.208143	0.308250
H233	H	0.347649	-0.252963	-0.163661
H234	H	0.847649	0.247037	0.336339
H235	H	0.347605	-0.325189	-0.157257
H236	H	0.847605	0.174811	0.342743
H237	H	0.832647	-0.540189	-0.374747
H238	H	1.332647	-0.040189	0.125253
C239	C	0.135240	-0.385869	-0.386242
C240	C	0.635240	0.114131	0.113758
H241	H	0.164099	-0.409784	-0.410041
H242	H	0.664099	0.090216	0.089959
H243	H	0.109764	-0.361949	-0.413601
H244	H	0.609764	0.138051	0.086399
H245	H	0.109664	-0.413125	-0.362218
H246	H	0.609664	0.086875	0.137782
C247	C	0.474336	-0.291076	-0.183609
C248	C	0.974336	0.208924	0.316391
H249	H	0.445445	-0.288075	-0.150005
H250	H	0.945445	0.211925	0.349995
H251	H	0.499887	-0.254756	-0.184503
H252	H	0.999887	0.245244	0.315497
H253	H	0.499832	-0.326973	-0.178007
H254	H	0.999832	0.173027	0.321993
H255	H	0.548206	-0.228866	-0.229554
H256	H	1.048206	0.271134	0.270446
C257	C	0.676269	-0.217421	-0.218080
C258	C	1.176269	0.282579	0.281920
H259	H	0.647410	-0.193518	-0.194267
H260	H	1.147410	0.306482	0.305733
H261	H	0.701852	-0.190164	-0.242088
H262	H	1.201852	0.309836	0.257912
H263	H	0.701737	-0.241359	-0.190724
H264	H	1.201737	0.258641	0.309276
C265	C	0.989710	-0.217461	-0.532019
C266	C	1.489710	0.282539	-0.032019
H267	H	1.013586	-0.193581	-0.560896
H268	H	1.513586	0.306419	-0.060896
H269	H	1.016993	-0.241429	-0.506510
H270	H	1.516993	0.258571	-0.006510
H271	H	0.965755	-0.190170	-0.506480
H272	H	1.465755	0.309830	-0.006480
C273	C	0.989717	-0.217420	-0.669428
C274	C	1.489717	0.282580	-0.169428
H275	H	1.013602	-0.193565	-0.640592
H276	H	1.513602	0.306435	-0.140592
H277	H	0.965773	-0.190115	-0.694941
H278	H	1.465773	0.309885	-0.194941
H279	H	1.017001	-0.241385	-0.694969
H280	H	1.517001	0.258615	-0.194969
C281	C	0.915964	-0.183005	-0.733777
C282	C	1.415964	0.316995	-0.233777
H283	H	0.915254	-0.191108	-0.690121
H284	H	1.415254	0.308892	-0.190121
H285	H	0.881897	-0.156653	-0.744476
H286	H	1.381897	0.343347	-0.244476
H287	H	0.954124	-0.162958	-0.744526
H288	H	1.454124	0.337042	-0.244526
H289	H	1.007918	-0.860558	-0.293349
H290	H	1.507918	-0.360558	0.206651
C291	C	0.989714	-0.217315	-0.935655
C292	C	1.489714	0.282685	-0.435655
H293	H	1.013586	-0.193430	-0.964531
H294	H	1.513586	0.306570	-0.464531
H295	H	1.017001	-0.241280	-0.910147
H296	H	1.517001	0.258720	-0.410147
H297	H	0.965753	-0.190029	-0.910115
H298	H	1.465753	0.309971	-0.410115
C299	C	0.989719	-0.217272	-1.073064
C300	C	1.489719	0.282728	-0.573064
H301	H	1.013604	-0.193420	-1.044225
H302	H	1.513604	0.306580	-0.544225
H303	H	0.965772	-0.189965	-1.098572
H304	H	1.465772	0.310035	-0.598572
H305	H	1.017003	-0.241233	-1.098608
H306	H	1.517003	0.258767	-0.598608
C307	C	0.821324	-0.385602	-1.072930
C308	C	1.321324	0.114398	-0.572930
H309	H	0.827071	-0.379853	-1.116591
H310	H	1.327071	0.120147	-0.616591
H311	H	0.779230	-0.376450	-1.062177
H312	H	1.279230	0.123550	-0.562177
H313	H	0.830477	-0.427702	-1.062210
H314	H	1.330477	0.072298	-0.562210
C315	C	0.821319	-0.385643	-0.935525
C316	C	1.321319	0.114357	-0.435525
H317	H	0.797445	-0.409506	-0.964363
H318	H	1.297445	0.090494	-0.464363
H319	H	0.794034	-0.361690	-0.909979
H320	H	1.294034	0.138310	-0.409979
H321	H	0.845273	-0.412949	-0.910016
H322	H	1.345273	0.087051	-0.410016
