data_functionalizedCrystal
_audit_creation_method	'MofGen! by Chris Wilmer'
_symmetry_space_group_name_H-M	'P1'
_symmetry_Int_Tables_number	1
_symmetry_cell_setting	triclinic
loop_
_symmetry_equiv_pos_as_xyz
  x,y,z
_cell_length_a	12.594517
_cell_length_b	11.169416
_cell_length_c	12.594509
_cell_angle_alpha	89.975638
_cell_angle_beta	89.978673
_cell_angle_gamma	90.004038
loop_
_atom_site_label
_atom_site_type_symbol
_atom_site_fract_x
_atom_site_fract_y
_atom_site_fract_z
Zn1	Zn	1.627354	-0.477777	-0.601889
Zn2	Zn	2.127354	0.022223	-0.101889
Zn3	Zn	1.627282	-0.678500	-0.423922
Zn4	Zn	2.127282	-0.178500	0.076078
Zn5	Zn	1.449358	-0.477829	-0.423918
Zn6	Zn	1.949358	0.022171	0.076082
Zn7	Zn	1.449377	-0.678416	-0.601852
Zn8	Zn	1.949377	-0.178416	-0.101852
O9	O	1.538343	-0.578131	-0.512895
O10	O	2.038343	-0.078131	-0.012895
O11	O	1.776291	-0.504417	-0.578298
O12	O	2.276291	-0.004417	-0.078298
O13	O	1.603642	-0.651937	-0.274976
O14	O	2.103642	-0.151937	0.225024
O15	O	1.472992	-0.309872	-0.447539
O16	O	1.972992	0.190128	0.052461
O17	O	1.776237	-0.651887	-0.447547
O18	O	2.276237	-0.151887	0.052453
O19	O	1.603765	-0.309834	-0.578294
O20	O	2.103765	0.190166	-0.078294
O21	O	1.472922	-0.504505	-0.274972
O22	O	1.972922	-0.004505	0.225028
O23	O	1.300415	-0.504424	-0.447504
O24	O	1.800415	-0.004424	0.052496
O25	O	1.473024	-0.651745	-0.750803
O26	O	1.973024	-0.151745	-0.250803
O27	O	1.300429	-0.651795	-0.578232
O28	O	1.800429	-0.151795	-0.078232
O29	O	1.603784	-0.504336	-0.750830
O30	O	2.103784	-0.004336	-0.250830
O31	O	1.603660	-0.846438	-0.447512
O32	O	2.103660	-0.346438	0.052488
O33	O	1.472954	-0.846377	-0.578236
O34	O	1.972954	-0.346377	-0.078236
C35	C	1.261802	-0.578106	-0.512864
C36	C	1.761802	-0.078106	-0.012864
C37	C	1.143496	-0.578125	-0.512876
C38	C	1.643496	-0.078125	-0.012876
C39	C	1.538385	-0.265088	-0.512920
C40	C	2.038385	0.234912	-0.012920
C41	C	1.538402	-0.131688	-0.512931
C42	C	2.038402	0.368312	-0.012931
C43	C	1.538330	-0.889955	-0.512894
C44	C	2.038330	-0.389955	-0.012894
C45	C	1.538422	-1.023355	-0.512929
C46	C	2.038422	-0.523355	-0.012929
C47	C	1.074205	-0.497861	-0.441908
C48	C	1.574205	0.002139	0.058092
C49	C	1.003414	-0.607337	-0.415735
C50	C	1.503414	-0.107337	0.084265
C51	C	1.003488	-0.468703	-0.539067
C52	C	1.503488	0.031297	-0.039067
C53	C	1.074264	-0.687659	-0.486651
C54	C	1.574264	-0.187659	0.013349
C55	C	1.074344	-0.548951	-0.610029
C56	C	1.574344	-0.048951	-0.110029
C57	C	1.003586	-0.658503	-0.583892
C58	C	1.503586	-0.158503	-0.083892
C59	C	1.815964	-0.578156	-0.512927
C60	C	2.315964	-0.078156	-0.012927
C61	C	1.934269	-0.578166	-0.512941
C62	C	2.434269	-0.078166	-0.012941
C63	C	1.538414	-0.578025	-0.790516
C64	C	2.038414	-0.078025	-0.290516
C65	C	1.538445	-0.577981	-0.908822
C66	C	2.038445	-0.077981	-0.408822
C67	C	1.467347	-0.658111	-0.978060
C68	C	1.967347	-0.158111	-0.478060
C69	C	1.564473	-0.687435	-1.048853
C70	C	2.064473	-0.187435	-0.548853
C71	C	1.441394	-0.548583	-1.048829
C72	C	1.941394	-0.048583	-0.548829
C73	C	1.635621	-0.607363	-0.978056
C74	C	2.135621	-0.107363	-0.478056
C75	C	1.512477	-0.468460	-0.978026
C76	C	2.012477	0.031540	-0.478026
C77	C	1.609670	-0.497743	-1.048786
C78	C	2.109670	0.002257	-0.548786
C79	C	1.538333	-0.578149	-0.236354
C80	C	2.038333	-0.078149	0.263646
C81	C	1.538509	-0.577855	-0.118049
C82	C	2.038509	-0.077855	0.381951
H83	H	1.105213	-0.430050	-0.381820
H84	H	1.605213	0.069950	0.118180
C85	C	1.116479	-0.515529	-0.720950
C86	C	1.616479	-0.015529	-0.220950
N87	N	1.148219	-0.490341	-0.804495
N88	N	1.648219	0.009659	-0.304495
H89	H	1.490450	-0.375921	-0.946892
H90	H	1.990450	0.124079	-0.446892
C91	C	1.594190	-0.812485	-1.090887
C92	C	2.094190	-0.312485	-0.590887
N93	N	1.616565	-0.906675	-1.122546
N94	N	2.116565	-0.406675	-0.622546
H95	H	1.105222	-0.780241	-0.464435
H96	H	1.605222	-0.280241	0.035565
H97	H	0.972260	-0.632039	-0.333602
H98	H	1.472260	-0.132039	0.166398
C99	C	0.961946	-0.750330	-0.665002
C100	C	1.461946	-0.250330	-0.165002
N101	N	0.930578	-0.819498	-0.726088
N102	N	1.430578	-0.319498	-0.226088
C103	C	0.961494	-0.343665	-0.568963
C104	C	1.461494	0.156335	-0.068963
N105	N	0.929868	-0.249484	-0.591474
N106	N	1.429868	0.250516	-0.091474
C107	C	1.330479	-0.515058	-1.090822
C108	C	1.830479	-0.015058	-0.590822
N109	N	1.246935	-0.489814	-1.122447
N110	N	1.746935	0.010186	-0.622447
H111	H	1.407269	-0.725979	-0.947007
H112	H	1.907269	-0.225979	-0.447007
H113	H	1.717746	-0.632280	-0.947098
H114	H	2.217746	-0.132280	-0.447098
H115	H	1.669892	-0.429926	-1.079644
H116	H	2.169892	0.070074	-0.579644
