data_functionalizedCrystal
_audit_creation_method	'MofGen! by Chris Wilmer'
_symmetry_space_group_name_H-M	'P1'
_symmetry_Int_Tables_number	1
_symmetry_cell_setting	triclinic
loop_
_symmetry_equiv_pos_as_xyz
  x,y,z
_cell_length_a	6.817900
_cell_length_b	12.200863
_cell_length_c	17.110486
_cell_angle_alpha	95.510113
_cell_angle_beta	99.060439
_cell_angle_gamma	107.143441
loop_
_atom_site_label
_atom_site_type_symbol
_atom_site_fract_x
_atom_site_fract_y
_atom_site_fract_z
V1	V	-3.995375	-0.158371	-0.246800
V2	V	-3.495375	0.341629	0.253200
O3	O	-3.964445	0.007962	-0.242020
O4	O	-3.464445	0.507962	0.257980
O5	O	-3.965419	-0.314361	-0.245192
O6	O	-3.465419	0.185639	0.254808
O7	O	-3.924930	-0.155780	-0.354402
O8	O	-3.424930	0.344220	0.145598
O9	O	-4.005214	-0.151716	-0.132053
O10	O	-3.505214	0.348284	0.367947
V11	V	-4.479469	-0.138494	-0.233066
V12	V	-3.979469	0.361506	0.266934
O13	O	-4.255380	-0.201973	-0.276928
O14	O	-3.755380	0.298027	0.223072
O15	O	-4.669661	-0.094892	-0.202939
O16	O	-4.169661	0.405108	0.297061
O17	O	-4.286218	0.017496	-0.234674
O18	O	-3.786218	0.517496	0.265326
O19	O	-4.627796	-0.304826	-0.237847
O20	O	-4.127796	0.195174	0.262153
O21	O	-4.587027	-0.145148	-0.347813
O22	O	-4.087027	0.354852	0.152187
O23	O	-4.326707	-0.141084	-0.125464
O24	O	-3.826707	0.358916	0.374536
C25	C	-3.815620	-0.352392	-0.241319
C26	C	-3.315620	0.147608	0.258681
C27	C	-3.872268	-0.479915	-0.240721
C28	C	-3.372268	0.020085	0.259279
C29	C	-3.975943	-0.713393	-0.239633
C30	C	-3.475943	-0.213393	0.260367
C31	C	-3.918243	-0.583469	-0.240239
C32	C	-3.418243	-0.083469	0.259761
C33	C	-3.763972	-0.150106	-0.380627
C34	C	-3.263972	0.349894	0.119373
C35	C	-3.787781	-0.149020	-0.468592
C36	C	-3.287781	0.350980	0.031408
C37	C	-3.980931	-0.154236	-0.513953
C38	C	-3.480931	0.345764	-0.013953
C39	C	-4.003290	-0.153215	-0.596605
C40	C	-3.503290	0.346785	-0.096605
C41	C	-3.832502	-0.146987	-0.633897
C42	C	-3.332502	0.353013	-0.133897
C43	C	-3.639335	-0.141768	-0.588530
C44	C	-3.139335	0.358232	-0.088530
C45	C	-3.616974	-0.142781	-0.505878
C46	C	-3.116974	0.357219	-0.005878
C47	C	-3.890910	-0.143636	-0.883250
C48	C	-3.390910	0.356364	-0.383250
C49	C	-3.913288	-0.142627	-0.965909
C50	C	-3.413288	0.357373	-0.465909
C51	C	-4.277242	-0.154071	-0.973978
C52	C	-3.777242	0.345929	-0.473978
C53	C	-4.254867	-0.155090	-0.891325
C54	C	-3.754867	0.344910	-0.391325
C55	C	-4.061700	-0.149865	-0.845965
C56	C	-3.561700	0.350135	-0.345965
C57	C	-3.855354	-0.145947	-0.718382
C58	C	-3.355354	0.354053	-0.218382
C59	C	-4.038847	-0.150897	-0.761481
C60	C	-3.538847	0.349103	-0.261481
C61	C	-4.099360	0.055522	-0.238545
C62	C	-3.599360	0.555522	0.261455
C63	C	-4.021950	0.183044	-0.239148
C64	C	-3.521950	0.683044	0.260852
C65	C	-4.151009	-0.146762	-0.099236
C66	C	-3.651009	0.353238	0.400764
C67	C	-4.106437	-0.147842	-0.011269
C68	C	-3.606437	0.352158	0.488731
H69	H	-4.120014	-0.159314	-0.483597
H70	H	-3.620014	0.340686	0.016403
F71	F	-3.731500	-0.135998	-1.005595
F72	F	-3.231500	0.364002	-0.505595
H73	H	-4.393945	-0.160161	-0.860968
H74	H	-3.893945	0.339839	-0.360968
F75	F	-3.685339	-0.138099	-0.834987
F76	F	-3.185339	0.361901	-0.334987
H77	H	-3.500274	-0.136690	-0.618899
H78	H	-3.000274	0.363310	-0.118899
F79	F	-3.673603	-0.139333	-0.758079
F80	F	-3.173603	0.360667	-0.258079
F81	F	-3.411394	-0.137222	-0.457601
F82	F	-2.911394	0.362778	0.042399
F83	F	-4.208871	-0.158777	-0.644879
F84	F	-3.708871	0.341223	-0.144879
F85	F	-4.220604	-0.157522	-0.721790
F86	F	-3.720604	0.342478	-0.221790
F87	F	-4.482810	-0.159629	-1.022259
F88	F	-3.982810	0.340371	-0.522259
