data_functionalizedCrystal
_audit_creation_method	'MofGen! by Chris Wilmer'
_symmetry_space_group_name_H-M	'P1'
_symmetry_Int_Tables_number	1
_symmetry_cell_setting	triclinic
loop_
_symmetry_equiv_pos_as_xyz
  x,y,z
_cell_length_a	10.654550
_cell_length_b	11.792241
_cell_length_c	9.730223
_cell_angle_alpha	89.998500
_cell_angle_beta	89.996251
_cell_angle_gamma	84.339159
loop_
_atom_site_label
_atom_site_type_symbol
_atom_site_fract_x
_atom_site_fract_y
_atom_site_fract_z
O1	O	1.667383	0.159415	-0.114404
O2	O	1.301862	0.174603	-0.114382
O3	O	1.493493	0.001859	-0.114383
O4	O	1.475752	0.332159	-0.114402
O5	O	1.493490	0.001863	0.114196
O6	O	1.301859	0.174608	0.114198
O7	O	1.667381	0.159419	0.114176
Zn8	Zn	1.484620	0.167014	0.150479
Zn9	Zn	1.484623	0.167008	-0.150685
O10	O	1.475750	0.332163	0.114178
C11	C	1.255066	0.173490	-0.000089
C12	C	1.115632	0.170154	-0.000080
C13	C	1.035858	0.271863	-0.000106
C14	C	0.904847	0.268721	-0.000129
C15	C	0.933394	0.062152	-0.000107
C16	C	1.064404	0.065295	-0.000074
C17	C	1.087087	0.376722	-0.000112
C18	C	1.007312	0.478439	-0.000139
C19	C	0.876300	0.475297	-0.000163
C20	C	0.825063	0.370438	-0.000159
C21	C	1.492377	-0.040432	-0.000094
C22	C	1.489042	-0.166454	-0.000095
C23	C	1.482908	-0.397180	-0.000118
C24	C	1.486316	-0.268787	-0.000105
C25	C	1.714177	0.160532	-0.000120
C26	C	1.853611	0.163869	-0.000137
C27	C	1.476865	0.374455	-0.000114
C28	C	1.480201	0.500476	-0.000122
N29	N	1.484627	0.167017	0.356016
N30	N	1.484625	0.166996	-0.356221
C31	C	1.569503	0.090552	0.427941
C32	C	1.569500	0.090539	0.571824
C33	C	1.399740	0.243465	0.571844
C34	C	1.399739	0.243472	0.427963
C35	C	1.654391	0.014098	0.355993
C36	C	1.739275	-0.062373	0.427919
C37	C	1.739272	-0.062387	0.571802
C38	C	1.654385	0.014070	0.643759
H39	H	1.129358	-0.017526	-0.000057
H40	H	1.654381	0.014044	0.760918
H41	H	1.330630	0.305714	0.630441
C42	C	1.654247	0.014330	0.199778
C43	C	1.561768	0.097680	0.152187
C44	C	1.561613	0.097943	0.008291
H45	H	1.636533	-0.058288	0.167041
H46	H	1.734593	0.030609	0.167187
H47	H	1.481441	0.081393	0.184764
H48	H	1.579462	0.170310	0.184886
H49	H	1.641958	0.114223	-0.024300
H50	H	1.543901	0.025322	-0.024432
H51	H	1.498875	0.154502	-0.024018
C52	C	1.307538	0.326622	0.350111
C53	C	1.233228	0.393604	0.443911
C54	C	1.148286	0.470223	0.372244
H55	H	1.254869	0.285484	0.293979
H56	H	1.353003	0.374315	0.294011
H57	H	1.187766	0.345918	0.499987
H58	H	1.285862	0.434767	0.500046
H59	H	1.193751	0.517916	0.316144
H60	H	1.095626	0.429075	0.316115
H61	H	1.097864	0.515686	0.435876
H62	H	1.193762	0.379291	-0.000099
C63	C	1.831324	-0.145303	0.349552
C64	C	1.813163	-0.128928	0.208152
C65	C	1.897924	-0.205316	0.135922
H66	H	1.817206	-0.221204	0.372990
H67	H	1.915268	-0.132309	0.373020
H68	H	1.729239	-0.141931	0.184694
H69	H	1.827291	-0.053043	0.184673
H70	H	1.981868	-0.192322	0.159390
H71	H	1.883799	-0.281212	0.159371
H72	H	1.885622	-0.194209	0.039975
C73	C	1.831360	-0.145593	0.649718
C74	C	1.810273	-0.257300	0.614682
C75	C	1.895098	-0.333978	0.686414
H76	H	1.819294	-0.134812	0.745734
H77	H	1.915281	-0.132622	0.626105
H78	H	1.726373	-0.270266	0.638305
H79	H	1.822349	-0.268117	0.518678
H80	H	1.979018	-0.321007	0.662800
H81	H	1.883025	-0.323187	0.782427
H82	H	1.880810	-0.409779	0.662643
C83	C	1.063178	0.592168	-0.000212
C84	C	1.194985	0.573154	-0.000225
C85	C	1.246487	0.677896	-0.000311
H86	H	1.035966	0.634184	0.079468
H87	H	1.035929	0.634094	-0.079964
H88	H	1.222223	0.531245	0.079519
H89	H	1.222231	0.531155	-0.079899
H90	H	1.219238	0.719823	-0.080063
H91	H	1.219267	0.719905	0.079370
H92	H	1.335923	0.665010	-0.000333
C93	C	0.789539	0.585640	-0.000404
C94	C	0.713501	0.589848	-0.118003
C95	C	0.633553	0.691475	-0.118272
H96	H	0.838661	0.648627	-0.000474
H97	H	0.737744	0.588726	0.079254
H98	H	0.765289	0.586773	-0.197641
H99	H	0.664352	0.526884	-0.117958
H100	H	0.581758	0.694561	-0.038614
H101	H	0.682685	0.754454	-0.118338
H102	H	0.581943	0.694339	-0.198054
H103	H	0.718383	0.367888	-0.000157
H104	H	0.891666	-0.023220	-0.000127
