data_functionalizedCrystal
_audit_creation_method	'MofGen! by Chris Wilmer'
_symmetry_space_group_name_H-M	'P1'
_symmetry_Int_Tables_number	1
_symmetry_cell_setting	triclinic
loop_
_symmetry_equiv_pos_as_xyz
  x,y,z
_cell_length_a	17.699083
_cell_length_b	16.992695
_cell_length_c	16.176319
_cell_angle_alpha	89.993125
_cell_angle_beta	89.998611
_cell_angle_gamma	86.975619
loop_
_atom_site_label
_atom_site_type_symbol
_atom_site_fract_x
_atom_site_fract_y
_atom_site_fract_z
O1	O	1.010252	0.099146	-0.068631
O2	O	0.790676	0.112045	-0.068658
O3	O	0.899584	-0.008546	-0.068638
O4	O	0.901344	0.219736	-0.068651
O5	O	0.899567	-0.008553	0.068855
O6	O	0.790660	0.112037	0.068835
O7	O	1.010235	0.099138	0.068862
Cu8	Cu	0.900446	0.105587	0.081403
Cu9	Cu	0.900465	0.105596	-0.081199
O10	O	0.901328	0.219729	0.068842
C11	C	0.762442	0.111579	0.000085
C12	C	0.678338	0.110192	0.000075
C13	C	0.634124	0.180976	0.000071
C14	C	0.555099	0.179669	0.000082
C15	C	0.520290	0.107576	0.000091
C16	C	0.564510	0.036787	0.000097
C17	C	0.643533	0.038095	0.000092
C18	C	0.245818	0.031509	0.000118
C19	C	0.166789	0.030206	0.000120
C20	C	0.157384	0.173082	0.000108
C21	C	0.236408	0.174391	0.000103
C22	C	0.280621	0.103602	0.000113
C23	C	0.366308	0.105020	0.000103
C24	C	0.434604	0.106157	0.000095
C25	C	0.897311	-0.037758	0.000108
C26	C	0.890554	-0.124789	0.000107
C27	C	0.955751	-0.175154	0.000116
C28	C	0.949398	-0.256928	0.000107
C29	C	0.877846	-0.288336	0.000096
C30	C	0.812643	-0.237965	0.000084
C31	C	0.818998	-0.156192	0.000087
C32	C	0.851510	-0.531884	0.000081
C33	C	0.845160	-0.613663	0.000081
C34	C	0.981915	-0.632621	0.000102
C35	C	0.988263	-0.550845	0.000110
C36	C	0.923061	-0.500481	0.000094
N37	N	0.871350	-0.371923	0.000090
N38	N	0.929558	-0.416897	0.000095
C39	C	1.038469	0.099604	0.000117
C40	C	1.122574	0.100991	0.000122
C41	C	0.903601	0.248941	0.000094
C42	C	0.910358	0.335972	0.000090
N43	N	0.900438	0.105580	0.195768
N44	N	0.900479	0.105597	-0.195564
C45	C	0.948679	0.052204	0.239041
C46	C	0.948683	0.052203	0.325588
C47	C	0.900449	0.105583	0.368861
C48	C	0.852202	0.158961	0.325582
C49	C	0.852195	0.158957	0.239036
C50	C	0.852229	0.158976	0.674610
C51	C	0.852242	0.158977	0.761161
C52	C	0.948717	0.052222	0.761162
C53	C	0.948709	0.052218	0.674617
C54	C	0.900461	0.105593	0.631345
C55	C	0.900456	0.105593	0.537501
C56	C	0.900457	0.105588	0.462703
H57	H	0.264745	0.233096	0.000092
H58	H	0.987960	0.008740	0.203814
H59	H	0.765906	-0.115186	0.000080
C60	C	0.735024	-0.272215	0.000114
C61	C	0.743412	-0.354608	0.000138
C62	C	0.671925	-0.386183	0.000180
H63	H	0.707913	-0.255000	-0.047823
H64	H	0.707956	-0.254966	0.048077
H65	H	0.770469	-0.371850	-0.047820
H66	H	0.770510	-0.371845	0.048072
H67	H	0.644857	-0.368935	0.048143
H68	H	0.644819	-0.368963	-0.047758
H69	H	0.677606	-0.442090	0.000204
C70	C	0.293945	-0.045261	0.000156
C71	C	0.370602	-0.028694	0.000172
C72	C	0.414962	-0.099398	0.000215
H73	H	0.283018	-0.074878	-0.047778
H74	H	0.282972	-0.074841	0.048122
H75	H	0.381570	0.000873	-0.047789
H76	H	0.381552	0.000912	0.048103
H77	H	0.403988	-0.128978	0.048181
H78	H	0.404028	-0.129010	-0.047720
H79	H	0.466978	-0.088167	0.000234
H80	H	0.536162	-0.021912	0.000116
C81	C	0.691503	-0.038781	-0.000079
C82	C	0.675133	-0.082187	-0.070823
C83	C	0.719314	-0.153007	-0.071011
H84	H	0.680526	-0.068446	0.047814
H85	H	0.743560	-0.027710	-0.000126
H86	H	0.623087	-0.093261	-0.070768
H87	H	0.686113	-0.052547	-0.118728
H88	H	0.771372	-0.141935	-0.071058
H89	H	0.708334	-0.182664	-0.023115
H90	H	0.708219	-0.182463	-0.119013
H91	H	1.034999	-0.673635	0.000114
C92	C	1.033458	-0.141101	-0.000044
C93	C	1.073162	-0.166687	-0.070790
C94	C	1.144745	-0.135327	-0.070975
H95	H	1.060600	-0.158382	0.047848
H96	H	1.027938	-0.085183	-0.000088
H97	H	1.078684	-0.222593	-0.070738
H98	H	1.046042	-0.149407	-0.118693
H99	H	1.139225	-0.079410	-0.071018
H100	H	1.171880	-0.152611	-0.023079
H101	H	1.171690	-0.152677	-0.118978
C102	C	1.001153	-0.005773	0.372421
C103	C	1.043414	-0.052499	0.316001
C104	C	1.091769	-0.105908	0.359113
H105	H	0.972055	-0.038455	0.406198
H106	H	1.034397	0.022382	0.406152
H107	H	1.010173	-0.080652	0.282284
H108	H	1.072527	-0.019838	0.282222
H109	H	1.125014	-0.077753	0.392844
H110	H	1.062666	-0.138585	0.392888
H111	H	1.120454	-0.137613	0.320839
H112	H	0.987989	0.008755	0.639387
C113	C	0.109418	0.249967	-0.000066
C114	C	0.125786	0.293374	-0.070821
C115	C	0.081609	0.364197	-0.071018
H116	H	0.120401	0.279628	0.047820
H117	H	0.057359	0.238899	-0.000103
H118	H	0.177832	0.304444	-0.070776
H119	H	0.114800	0.263737	-0.118718
H120	H	0.029551	0.353130	-0.071055
H121	H	0.092596	0.393851	-0.023129
H122	H	0.092704	0.393654	-0.119028
C123	C	1.020119	-0.311706	0.000245
C124	C	1.020445	-0.359234	0.070966
C125	C	1.085578	-0.409714	0.071111
H126	H	1.063701	-0.281391	0.000298
H127	H	1.020490	-0.344036	-0.047681
H128	H	1.020080	-0.326908	0.118879
H129	H	0.976878	-0.389566	0.070928
H130	H	1.085949	-0.442044	0.023185
H131	H	1.129155	-0.379392	0.071162
H132	H	1.085804	-0.441973	0.119090
C133	C	0.799789	0.216790	0.372669
C134	C	0.750960	0.175087	0.422386
C135	C	0.702673	0.228335	0.465782
H136	H	0.770982	0.248601	0.334597
H137	H	0.828967	0.249382	0.406467
H138	H	0.721784	0.142509	0.388591
H139	H	0.779745	0.143279	0.460474
H140	H	0.731852	0.260927	0.499581
H141	H	0.673872	0.260143	0.427704
H142	H	0.669542	0.200047	0.499526
H143	H	0.988001	0.008758	0.796403
C144	C	0.767403	-0.647613	0.000016
C145	C	0.711660	-0.586005	-0.000023
C146	C	0.640026	-0.617250	-0.000095
H147	H	0.761963	-0.679112	0.047948
H148	H	0.762058	-0.679092	-0.047952
H149	H	0.717002	-0.554540	0.047940
H150	H	0.717075	-0.554501	-0.047951
H151	H	0.634681	-0.648729	-0.048063
H152	H	0.634594	-0.648749	0.047838
H153	H	0.602196	-0.575455	-0.000129
C154	C	0.799781	0.216964	0.807996
C155	C	0.757509	0.263692	0.751578
C156	C	0.709171	0.317108	0.794691
H157	H	0.828892	0.249645	0.841751
H158	H	0.766543	0.188815	0.841749
H159	H	0.790742	0.291839	0.717838
H160	H	0.728382	0.231033	0.717821
H161	H	0.675933	0.288959	0.828445
H162	H	0.738288	0.349783	0.828445
H163	H	0.680478	0.348814	0.756419
H164	H	0.812945	0.202437	0.639385
C165	C	0.799792	0.216999	0.192200
C166	C	0.757567	0.263763	0.248618
C167	C	0.709289	0.317245	0.205504
H168	H	0.766517	0.188926	0.158445
H169	H	0.828968	0.249643	0.158446
H170	H	0.728394	0.231123	0.282357
H171	H	0.790822	0.291853	0.282374
H172	H	0.738465	0.349889	0.171750
H173	H	0.676019	0.289165	0.171750
H174	H	0.680639	0.348985	0.243776
H175	H	0.662460	0.239682	0.000064
H176	H	0.519103	0.237308	0.000078
H177	H	0.138450	-0.028504	0.000128
H178	H	1.046528	-0.525279	0.000120
H179	H	0.798417	-0.490887	0.000069
