data_functionalizedCrystal
_audit_creation_method	'MofGen! by Chris Wilmer'
_symmetry_space_group_name_H-M	'P1'
_symmetry_Int_Tables_number	1
_symmetry_cell_setting	triclinic
loop_
_symmetry_equiv_pos_as_xyz
  x,y,z
_cell_length_a	14.044220
_cell_length_b	19.188930
_cell_length_c	13.101039
_cell_angle_alpha	93.345801
_cell_angle_beta	86.340132
_cell_angle_gamma	88.166830
loop_
_atom_site_label
_atom_site_type_symbol
_atom_site_fract_x
_atom_site_fract_y
_atom_site_fract_z
O1	O	1.262233	0.164759	-0.085127
O2	O	0.986290	0.158685	-0.085152
O3	O	1.132223	0.060581	-0.085119
O4	O	1.116300	0.262863	-0.085160
O5	O	1.121753	0.067633	0.085309
O6	O	0.975820	0.165737	0.085275
O7	O	1.251762	0.171810	0.085300
Zn8	Zn	1.112128	0.169893	0.112347
Zn9	Zn	1.125924	0.160602	-0.112199
O10	O	1.105829	0.269914	0.085267
C11	C	0.945752	0.159553	0.000059
C12	C	0.840559	0.151623	0.000050
C13	C	0.647957	0.137129	0.000073
C14	C	0.590091	0.193363	0.000066
C15	C	0.482920	0.185298	0.000079
C16	C	0.755137	0.145193	0.000060
C17	C	1.126472	0.038063	0.000098
C18	C	1.124923	-0.039541	0.000106
C19	C	1.210553	-0.078939	0.000119
C20	C	1.209099	-0.151857	0.000103
C21	C	1.122010	-0.185374	0.000094
C22	C	1.036370	-0.145968	0.000075
C23	C	1.037827	-0.073051	0.000082
N24	N	1.051878	-0.295275	0.058088
N25	N	1.050500	-0.364543	0.058084
C26	C	1.117617	-0.405067	0.000073
N27	N	1.186177	-0.373707	-0.057921
N28	N	1.187558	-0.304433	-0.057913
C29	C	1.120421	-0.264440	0.000086
C30	C	1.201676	-0.523532	0.000066
C31	C	1.200219	-0.596452	0.000043
C32	C	1.027487	-0.590560	0.000026
C33	C	1.028947	-0.517642	0.000039
C34	C	1.116043	-0.484132	0.000064
C35	C	1.292301	0.170943	0.000087
C36	C	1.397494	0.178872	0.000089
C37	C	1.111580	0.292433	0.000048
C38	C	1.113129	0.370037	0.000033
N39	N	1.102720	0.176234	0.265593
N40	N	1.135340	0.154257	-0.265445
C41	C	1.089920	0.184867	0.474633
C42	C	1.148137	0.145626	0.525522
C43	C	1.141014	0.150429	0.641839
C44	C	1.097041	0.180064	0.358306
H45	H	1.281474	-0.051660	0.000136
H46	H	0.621038	0.247564	0.000050
C47	C	1.221478	0.095821	0.467137
C48	C	1.174624	0.047507	0.405678
C49	C	1.242105	0.001559	0.351923
H50	H	1.256990	0.071770	0.514349
H51	H	1.263518	0.121480	0.425132
H52	H	1.132601	0.021851	0.447680
H53	H	1.139118	0.071539	0.358447
H54	H	1.284145	0.027218	0.309917
H55	H	1.277612	-0.022488	0.399142
H56	H	1.210325	-0.031224	0.310210
C57	C	0.936080	-0.474742	-0.000016
C58	C	0.955996	-0.403713	-0.000035
C59	C	0.870468	-0.364173	-0.000105
H60	H	0.896635	-0.482944	0.059394
H61	H	0.904003	-0.487894	-0.059477
H62	H	0.988057	-0.390565	0.059420
H63	H	0.995427	-0.395489	-0.059441
H64	H	0.838392	-0.377325	-0.059566
H65	H	0.831029	-0.372381	0.059306
H66	H	0.883970	-0.315976	-0.000127
C67	C	1.016435	0.234460	0.533197
C68	C	1.023921	0.229443	0.638594
C69	C	0.956256	0.275125	0.692588
H70	H	0.954197	0.222337	0.515810
H71	H	1.027709	0.280980	0.515727
H72	H	1.012640	0.182932	0.656057
H73	H	1.086145	0.241572	0.656011
H74	H	0.967530	0.321646	0.675117
H75	H	0.894022	0.262998	0.675192
H76	H	0.961332	0.271732	0.764104
H77	H	1.269952	-0.628529	0.000048
H78	H	0.617011	0.082932	0.000090
C79	C	1.302171	-0.194519	0.000172
C80	C	1.378755	-0.149564	0.000218
C81	C	1.464506	-0.188835	0.000297
H82	H	1.308983	-0.225545	-0.059243
H83	H	1.301583	-0.220619	0.059628
H84	H	1.379345	-0.123476	-0.059232
H85	H	1.371976	-0.118537	0.059629
H86	H	1.463918	-0.214935	0.059752
H87	H	1.471307	-0.219861	-0.059120
H88	H	1.516477	-0.158340	0.000337
H89	H	0.968095	-0.040974	0.000072
C90	C	1.296335	-0.487276	0.000020
C91	C	1.371020	-0.537392	-0.000014
C92	C	1.458234	-0.504022	-0.000076
H93	H	1.296986	-0.456505	0.059438
H94	H	1.304190	-0.461423	-0.059434
H95	H	1.363167	-0.563234	0.059433
H96	H	1.370400	-0.568165	-0.059428
H97	H	1.466089	-0.478169	-0.059529
H98	H	1.458874	-0.473253	0.059343
H99	H	1.508918	-0.538021	-0.000108
H100	H	0.965462	-0.173262	0.000066
C101	C	0.933025	-0.627068	0.000063
C102	C	0.950073	-0.699358	0.000080
C103	C	0.863075	-0.733014	0.000121
H104	H	0.901359	-0.616438	-0.059356
H105	H	0.894114	-0.611498	0.059515
H106	H	0.988968	-0.714922	-0.059366
H107	H	0.981724	-0.710008	0.059495
H108	H	0.824164	-0.717444	0.059573
H109	H	0.831416	-0.722379	-0.059299
H110	H	0.874630	-0.782065	0.000142
