data_functionalizedCrystal
_audit_creation_method	'MofGen! by Chris Wilmer'
_symmetry_space_group_name_H-M	'P1'
_symmetry_Int_Tables_number	1
_symmetry_cell_setting	triclinic
loop_
_symmetry_equiv_pos_as_xyz
  x,y,z
_cell_length_a	14.519709
_cell_length_b	14.044209
_cell_length_c	12.996460
_cell_angle_alpha	90.008693
_cell_angle_beta	90.000034
_cell_angle_gamma	91.565951
loop_
_atom_site_label
_atom_site_type_symbol
_atom_site_fract_x
_atom_site_fract_y
_atom_site_fract_z
O1	O	1.233892	-0.124273	-0.085439
O2	O	1.733892	0.375727	0.414561
O3	O	0.966595	-0.138907	-0.085471
O4	O	1.466595	0.361093	0.414529
O5	O	1.096232	0.006401	-0.085441
O6	O	1.596232	0.506401	0.414559
O7	O	1.104254	-0.269582	-0.085469
O8	O	1.604254	0.230418	0.414531
O9	O	1.096217	0.006409	0.085693
O10	O	1.596217	0.506409	0.585693
O11	O	0.966580	-0.138899	0.085663
O12	O	1.466580	0.361101	0.585663
O13	O	1.233876	-0.124265	0.085695
O14	O	1.733876	0.375735	0.585695
Cu15	Cu	1.100227	-0.131581	0.101305
Cu16	Cu	1.600227	0.368419	0.601305
Cu17	Cu	1.100245	-0.131591	-0.101081
Cu18	Cu	1.600245	0.368409	0.398919
O19	O	1.104239	-0.269574	0.085665
O20	O	1.604239	0.230426	0.585665
C21	C	0.932173	-0.138221	0.000092
C22	C	1.432173	0.361779	0.500092
C23	C	0.829626	-0.136178	0.000080
C24	C	1.329626	0.363822	0.500080
C25	C	1.092712	0.041726	0.000127
C26	C	1.592712	0.541726	0.500127
C27	C	1.082236	0.146969	0.000131
C28	C	1.582236	0.646969	0.500131
C29	C	0.454124	-0.128654	0.000128
C30	C	0.954124	0.371346	0.500128
C31	C	0.558600	-0.130743	0.000114
C32	C	1.058600	0.369257	0.500114
C33	C	0.641872	-0.132415	0.000103
C34	C	1.141872	0.367585	0.500103
C35	C	0.746355	-0.134505	0.000091
C36	C	1.246355	0.365495	0.500091
C37	C	1.063083	0.339664	0.000120
C38	C	1.563083	0.839664	0.500120
C39	C	1.137392	0.397171	0.000127
C40	C	1.637392	0.897171	0.500127
C41	C	1.126735	0.504392	0.000121
C42	C	1.626735	1.004392	0.500121
C43	C	1.073739	0.232432	0.000126
C44	C	1.573739	0.732432	0.500126
C45	C	1.268299	-0.124951	0.000130
C46	C	1.768299	0.375049	0.500130
C47	C	1.370845	-0.126995	0.000135
C48	C	1.870845	0.373005	0.500135
N49	N	1.100220	-0.131574	0.243652
N50	N	1.600220	0.368426	0.743652
C51	C	1.107761	0.695102	0.000103
C52	C	1.607761	1.195102	0.500103
C53	C	1.118243	0.589859	0.000117
C54	C	1.618243	1.089859	0.500117
N55	N	1.100258	-0.131591	-0.243428
N56	N	1.600258	0.368409	0.256572
C57	C	1.100244	-0.131592	0.663466
C58	C	1.600244	0.368408	1.163466
C59	C	1.100235	-0.131590	0.546661
C60	C	1.600235	0.368410	1.046661
C61	C	1.100232	-0.131584	0.453563
C62	C	1.600232	0.368416	0.953563
C63	C	1.100223	-0.131581	0.336750
C64	C	1.600223	0.368419	0.836750
H65	H	1.209013	0.365878	0.000066
H66	H	1.709013	0.865878	0.500066
Br67	Br	0.943716	0.391817	0.000099
Br68	Br	1.443716	0.891817	0.500099
