data_functionalizedCrystal
_audit_creation_method	'MofGen! by Chris Wilmer'
_symmetry_space_group_name_H-M	'P1'
_symmetry_Int_Tables_number	1
_symmetry_cell_setting	triclinic
loop_
_symmetry_equiv_pos_as_xyz
  x,y,z
_cell_length_a	9.065218
_cell_length_b	7.088929
_cell_length_c	9.065218
_cell_angle_alpha	96.314275
_cell_angle_beta	85.015885
_cell_angle_gamma	83.703834
loop_
_atom_site_label
_atom_site_type_symbol
_atom_site_fract_x
_atom_site_fract_y
_atom_site_fract_z
O1	O	1.945457	0.158984	0.231322
O2	O	2.278791	0.492318	0.564656
O3	O	2.612124	0.825651	0.897989
O4	O	1.516172	0.158986	0.249069
O5	O	1.849505	0.492320	0.582402
O6	O	2.182839	0.825653	0.915736
O7	O	1.739688	0.158981	0.025553
O8	O	2.073022	0.492315	0.358886
O9	O	2.406355	0.825648	0.692220
O10	O	1.721941	0.158989	0.454839
O11	O	2.055274	0.492322	0.788172
O12	O	2.388608	0.825656	1.121505
O13	O	1.769558	-0.158995	-0.004386
O14	O	2.102891	0.174339	0.328947
O15	O	2.436225	0.507672	0.662280
O16	O	1.546042	-0.158990	0.219130
O17	O	1.879375	0.174344	0.552463
O18	O	2.212709	0.507677	0.885797
O19	O	1.975327	-0.158992	0.201383
O20	O	2.308660	0.174342	0.534717
O21	O	2.641994	0.507675	0.868050
Cu22	Cu	1.763412	-0.188024	0.207523
Cu23	Cu	2.096745	0.145309	0.540856
Cu24	Cu	2.430078	0.478642	0.874190
Cu25	Cu	1.728087	0.188019	0.242929
Cu26	Cu	2.061421	0.521352	0.576263
Cu27	Cu	2.394754	0.854686	0.909596
O28	O	1.751811	-0.158987	0.424899
O29	O	2.085144	0.174347	0.758233
O30	O	2.418477	0.507680	1.091566
C31	C	1.476120	-0.000001	0.232394
C32	C	1.809454	0.333332	0.565727
C33	C	2.142787	0.666665	0.899061
C34	C	1.312277	-0.000000	0.227294
C35	C	1.645611	0.333333	0.560628
C36	C	1.978944	0.666666	0.893961
N37	N	1.788268	-0.452513	0.182619
N38	N	2.121601	-0.119180	0.515952
N39	N	2.454935	0.214154	0.849286
C40	C	2.015378	0.000000	0.218059
C41	C	2.348712	0.333333	0.551392
C42	C	2.682045	0.666667	0.884725
C43	C	2.179220	0.000012	0.223160
C44	C	2.512553	0.333345	0.556493
C45	C	2.845887	0.666678	0.889826
C46	C	1.752917	-0.000004	-0.044403
C47	C	2.086251	0.333330	0.288930
C48	C	2.419584	0.666663	0.622264
C49	C	1.747817	0.000006	-0.208245
C50	C	2.081150	0.333339	0.125088
C51	C	2.414483	0.666672	0.458422
N52	N	1.703243	0.452507	0.267822
N53	N	2.036576	0.785841	0.601155
N54	N	2.369909	1.119174	0.934488
C55	C	1.738581	0.000002	0.494856
C56	C	2.071915	0.333336	0.828189
C57	C	2.405248	0.666669	1.161522
C58	C	1.743681	0.000006	0.658699
C59	C	2.077014	0.333339	0.992032
C60	C	2.410347	0.666672	1.325366
H61	H	1.615124	-0.465844	0.356116
H62	H	1.948457	-0.132511	0.689449
H63	H	2.281791	0.200822	1.022783
H64	H	1.876403	-0.534171	0.094330
H65	H	2.209737	-0.200837	0.427663
H66	H	2.543070	0.132496	0.760996
