data_functionalizedCrystal
_audit_creation_method	'MofGen! by Chris Wilmer'
_symmetry_space_group_name_H-M	'P1'
_symmetry_Int_Tables_number	1
_symmetry_cell_setting	triclinic
loop_
_symmetry_equiv_pos_as_xyz
  x,y,z
_cell_length_a	6.817900
_cell_length_b	9.582860
_cell_length_c	17.078481
_cell_angle_alpha	94.514419
_cell_angle_beta	99.306161
_cell_angle_gamma	111.206767
loop_
_atom_site_label
_atom_site_type_symbol
_atom_site_fract_x
_atom_site_fract_y
_atom_site_fract_z
V1	V	-4.019535	-0.206706	-0.247216
V2	V	-3.519535	0.293294	0.252784
O3	O	-3.966058	0.010293	-0.242660
O4	O	-3.466058	0.510293	0.257340
O5	O	-4.010657	-0.410210	-0.245382
O6	O	-3.510657	0.089790	0.254618
O7	O	-3.949937	-0.203369	-0.355102
O8	O	-3.449937	0.296631	0.144898
O9	O	-4.027199	-0.197980	-0.132181
O10	O	-3.527199	0.302020	0.367819
V11	V	-4.500789	-0.180770	-0.233475
V12	V	-4.000789	0.319230	0.266525
O13	O	-4.285772	-0.263601	-0.277360
O14	O	-3.785772	0.236399	0.222640
O15	O	-4.684750	-0.123875	-0.203331
O16	O	-4.184750	0.376125	0.296669
O17	O	-4.286461	0.022734	-0.235309
O18	O	-3.786461	0.522734	0.264691
O19	O	-4.671663	-0.397769	-0.238031
O20	O	-4.171663	0.102231	0.261969
O21	O	-4.610522	-0.189496	-0.348511
O22	O	-4.110522	0.310504	0.151489
O23	O	-4.347181	-0.184107	-0.125589
O24	O	-3.847181	0.315893	0.374411
C25	C	-3.865958	-0.459825	-0.241445
C26	C	-3.365958	0.040175	0.258555
C27	C	-3.939845	-0.626190	-0.240664
C28	C	-3.439845	-0.126190	0.259336
C29	C	-3.788503	-0.195977	-0.381402
C30	C	-3.288503	0.304023	0.118598
C31	C	-3.813143	-0.194595	-0.469598
C32	C	-3.313143	0.305405	0.030402
C33	C	-4.007502	-0.201416	-0.515069
C34	C	-3.507502	0.298584	-0.015069
C35	C	-4.030643	-0.200116	-0.597938
C36	C	-3.530643	0.299884	-0.097938
C37	C	-3.859426	-0.192006	-0.635336
C38	C	-3.359426	0.307994	-0.135336
C39	C	-3.665049	-0.185180	-0.589858
C40	C	-3.165049	0.314820	-0.089858
C41	C	-3.641907	-0.186469	-0.506990
C42	C	-3.141907	0.313531	-0.006990
C43	C	-3.909036	-0.187341	-0.882742
C44	C	-3.409036	0.312659	-0.382742
C45	C	-3.932197	-0.186057	-0.965617
C46	C	-3.432197	0.313943	-0.465617
C47	C	-4.297788	-0.200991	-0.973691
C48	C	-3.797788	0.299009	-0.473691
C49	C	-4.274632	-0.202288	-0.890822
C50	C	-3.774632	0.297712	-0.390822
C51	C	-4.080254	-0.195454	-0.845351
C52	C	-3.580254	0.304546	-0.345351
N53	N	-3.883077	-0.190682	-0.720041
N54	N	-3.383077	0.309318	-0.220041
N55	N	-4.056601	-0.196767	-0.760646
N56	N	-3.556601	0.303233	-0.260646
C57	C	-4.094504	0.072341	-0.239244
C58	C	-3.594504	0.572341	0.260756
C59	C	-3.999855	0.238705	-0.240030
C60	C	-3.499855	0.738705	0.259970
C61	C	-4.171959	-0.191504	-0.099285
C62	C	-3.671959	0.308496	0.400715
C63	C	-4.126556	-0.192879	-0.011088
C64	C	-3.626556	0.307121	0.488912
H65	H	-4.146935	-0.208030	-0.484627
H66	H	-3.646935	0.291970	0.015373
O67	O	-3.699400	-0.179991	-0.833711
O68	O	-3.199400	0.320009	-0.333711
H69	H	-3.712048	-0.182234	-0.769802
H70	H	-3.212048	0.317766	-0.269802
H71	H	-4.414058	-0.208891	-0.860379
H72	H	-3.914058	0.291109	-0.360379
H73	H	-4.456043	-0.206553	-1.010722
H74	H	-3.956043	0.293447	-0.510722
O75	O	-3.747443	-0.177143	-1.005944
O76	O	-3.247443	0.322857	-0.505944
H77	H	-3.608357	-0.172535	-0.960398
H78	H	-3.108357	0.327465	-0.460398
H79	H	-4.188903	-0.205662	-0.634957
H80	H	-3.688903	0.294338	-0.134957
H81	H	-3.525640	-0.178568	-0.620313
H82	H	-3.025640	0.321432	-0.120313
O83	O	-3.432282	-0.179123	-0.457941
O84	O	-2.932282	0.320877	0.042059
H85	H	-3.317118	-0.173282	-0.497867
H86	H	-2.817118	0.326718	0.002133
