data_functionalizedCrystal
_audit_creation_method	'MofGen! by Chris Wilmer'
_symmetry_space_group_name_H-M	'P1'
_symmetry_Int_Tables_number	1
_symmetry_cell_setting	triclinic
loop_
_symmetry_equiv_pos_as_xyz
  x,y,z
_cell_length_a	17.699077
_cell_length_b	19.188930
_cell_length_c	16.176319
_cell_angle_alpha	89.988074
_cell_angle_beta	89.993140
_cell_angle_gamma	83.212679
loop_
_atom_site_label
_atom_site_type_symbol
_atom_site_fract_x
_atom_site_fract_y
_atom_site_fract_z
O1	O	1.003965	0.088275	-0.068745
O2	O	1.337299	0.421608	0.264588
O3	O	1.670632	0.754941	0.597922
O4	O	0.783571	0.099766	-0.068750
O5	O	1.116905	0.433100	0.264583
O6	O	1.450238	0.766433	0.597916
O7	O	0.900128	-0.007628	-0.068731
O8	O	1.233462	0.325705	0.264602
O9	O	1.566795	0.659038	0.597935
O10	O	0.887408	0.195669	-0.068764
O11	O	1.220742	0.529002	0.264569
O12	O	1.554075	0.862336	0.597903
O13	O	0.900112	-0.007635	0.068762
O14	O	1.233446	0.325698	0.402095
O15	O	1.566779	0.659032	0.735429
O16	O	0.783555	0.099759	0.068743
O17	O	1.116889	0.433093	0.402076
O18	O	1.450222	0.766426	0.735410
O19	O	1.003949	0.088268	0.068748
O20	O	1.337283	0.421601	0.402082
O21	O	1.670616	0.754934	0.735415
Cu22	Cu	0.893751	0.094013	0.081300
Cu23	Cu	1.227084	0.427346	0.414633
Cu24	Cu	1.560418	0.760680	0.747967
Cu25	Cu	0.893770	0.094021	-0.081302
Cu26	Cu	1.227103	0.427354	0.252032
Cu27	Cu	1.560436	0.760688	0.585365
O28	O	0.887392	0.195662	0.068729
O29	O	1.220726	0.528996	0.402063
O30	O	1.554059	0.862329	0.735396
C31	C	0.755367	0.099352	-0.000004
C32	C	1.088700	0.432685	0.333329
C33	C	1.422033	0.766018	0.666663
C34	C	0.671350	0.098119	-0.000005
C35	C	1.004683	0.431452	0.333328
C36	C	1.338017	0.764785	0.666661
C37	C	0.631875	0.097534	0.074943
C38	C	0.965208	0.430867	0.408277
C39	C	1.298541	0.764200	0.741610
C40	C	0.552934	0.096364	0.074944
C41	C	0.886267	0.429697	0.408278
C42	C	1.219600	0.763031	0.741611
C43	C	0.513469	0.095784	-0.000004
C44	C	0.846802	0.429117	0.333329
C45	C	1.180135	0.762451	0.666663
C46	C	0.552950	0.096367	-0.074958
C47	C	0.886283	0.429700	0.258375
C48	C	1.219617	0.763033	0.591708
C49	C	0.631890	0.097532	-0.074959
C50	C	0.965224	0.430865	0.258375
C51	C	1.298557	0.764198	0.591708
C52	C	0.234593	0.091668	-0.074959
C53	C	0.567926	0.425001	0.258374
C54	C	0.901259	0.758335	0.591707
C55	C	0.155647	0.090505	-0.074953
C56	C	0.488980	0.423839	0.258380
C57	C	0.822313	0.757172	0.591713
C58	C	0.155636	0.090501	0.074944
C59	C	0.488970	0.423834	0.408277
C60	C	0.822303	0.757167	0.741610
C61	C	0.234577	0.091665	0.074943
C62	C	0.567910	0.424999	0.408277
C63	C	0.901243	0.758332	0.741610
C64	C	0.274051	0.092244	-0.000010
C65	C	0.607385	0.425578	0.333323
C66	C	0.940718	0.758911	0.666656
C67	C	0.359648	0.093512	-0.000011
C68	C	0.692982	0.426845	0.333323
C69	C	1.026315	0.760178	0.666656
C70	C	0.427872	0.094522	-0.000005
C71	C	0.761206	0.427855	0.333329
C72	C	1.094539	0.761188	0.666662
C73	C	0.899708	-0.033643	0.000018
C74	C	1.233042	0.299690	0.333351
C75	C	1.566375	0.633024	0.666684
C76	C	0.898472	-0.111149	0.000025
C77	C	1.231805	0.222184	0.333358
C78	C	1.565139	0.555518	0.666691
C79	C	0.966864	-0.155998	0.000030
C80	C	1.300197	0.177336	0.333364
C81	C	1.633531	0.510669	0.666697
C82	C	0.965702	-0.228823	0.000017
C83	C	1.299036	0.104511	0.333350
C84	C	1.632369	0.437844	0.666684
C85	C	0.896145	-0.256796	0.000015
C86	C	1.229478	0.076537	0.333348
C87	C	1.562811	0.409871	0.666682
C88	C	0.827744	-0.211937	0.000005
C89	C	1.161077	0.121396	0.333338
C90	C	1.494410	0.454729	0.666671
C91	C	0.828907	-0.139114	0.000010
C92	C	1.162241	0.194219	0.333343
C93	C	1.495574	0.527553	0.666676
N94	N	0.842971	-0.364862	0.046805
N95	N	1.176304	-0.031528	0.380138
N96	N	1.509637	0.301805	0.713472
N97	N	0.841870	-0.434041	0.046802
N98	N	1.175203	-0.100708	0.380135
N99	N	1.508537	0.232625	0.713469
C100	C	0.892634	-0.476208	-0.000002
C101	C	1.225968	-0.142875	0.333331
C102	C	1.559301	0.190458	0.666665
N103	N	0.944553	-0.446583	-0.046793
N104	N	1.277886	-0.113250	0.286541
N105	N	1.611219	0.220083	0.619874
N106	N	0.945656	-0.377397	-0.046786
N107	N	1.278989	-0.044064	0.286547
N108	N	1.612322	0.289269	0.619881
C109	C	0.894875	-0.335760	0.000009
C110	C	1.228208	-0.002426	0.333342
C111	C	1.561542	0.330907	0.666676
C112	C	0.959771	-0.600023	-0.000012
C113	C	1.293105	-0.266689	0.333321
C114	C	1.626438	0.066644	0.666655
C115	C	0.958607	-0.672849	-0.000030
C116	C	1.291940	-0.339516	0.333303
C117	C	1.625274	-0.006182	0.666636
C118	C	0.820646	-0.655962	-0.000035
C119	C	1.153980	-0.322629	0.333299
C120	C	1.487313	0.010705	0.666632
C121	C	0.821813	-0.583137	-0.000024
C122	C	1.155146	-0.249804	0.333309
C123	C	1.488480	0.083529	0.666642
C124	C	0.891378	-0.555173	-0.000009
C125	C	1.224711	-0.221839	0.333324
C126	C	1.558044	0.111494	0.666657
C127	C	1.032154	0.088682	0.000000
C128	C	1.365487	0.422016	0.333334
C129	C	1.698821	0.755349	0.666667
C130	C	1.116171	0.089915	-0.000004
C131	C	1.449504	0.423249	0.333330
C132	C	1.782837	0.756582	0.666663
C133	C	0.887812	0.221677	-0.000021
C134	C	1.221145	0.555010	0.333312
C135	C	1.554479	0.888344	0.666645
C136	C	0.889049	0.299183	-0.000034
C137	C	1.222382	0.632516	0.333299
C138	C	1.555715	0.965850	0.666633
N139	N	0.893743	0.094007	0.195665
N140	N	1.227076	0.427340	0.528998
N141	N	1.560410	0.760674	0.862332
N142	N	0.893784	0.094022	-0.195667
N143	N	1.227117	0.427355	0.137666
N144	N	1.560450	0.760688	0.471000
C145	C	0.945370	0.046472	0.238938
C146	C	1.278703	0.379805	0.572271
C147	C	1.612037	0.713139	0.905604
C148	C	0.945374	0.046471	0.325485
C149	C	1.278707	0.379805	0.658818
C150	C	1.612041	0.713138	0.992151
C151	C	0.893754	0.094009	0.368758
C152	C	1.227087	0.427343	0.702091
C153	C	1.560420	0.760676	1.035424
C154	C	0.842121	0.141546	0.325479
C155	C	1.175455	0.474880	0.658812
C156	C	1.508788	0.808213	0.992146
C157	C	0.842115	0.141543	0.238934
C158	C	1.175448	0.474877	0.572267
C159	C	1.508781	0.808210	0.905600
C160	C	0.842147	0.141560	0.674507
C161	C	1.175481	0.474893	1.007841
C162	C	1.508814	0.808226	1.341174
C163	C	0.842160	0.141560	0.761059
C164	C	1.175493	0.474894	1.094392
C165	C	1.508826	0.808227	1.427726
C166	C	0.945407	0.046488	0.761058
C167	C	1.278740	0.379821	1.094392
C168	C	1.612073	0.713154	1.427725
C169	C	0.945400	0.046484	0.674513
C170	C	1.278733	0.379818	1.007846
C171	C	1.612066	0.713151	1.341180
C172	C	0.893765	0.094019	0.631242
C173	C	1.227098	0.427352	0.964575
C174	C	1.560432	0.760685	1.297909
C175	C	0.893761	0.094018	0.537398
C176	C	1.227094	0.427351	0.870731
C177	C	1.560427	0.760685	1.204064
C178	C	0.893761	0.094014	0.462600
C179	C	1.227095	0.427347	0.795934
C180	C	1.560428	0.760680	1.129267
H181	H	0.123517	0.090032	-0.135989
H182	H	0.456850	0.423366	0.197344
H183	H	0.790183	0.756699	0.530678
F184	F	1.000359	-0.004106	0.807117
F185	F	1.333693	0.329228	1.140450
F186	F	1.667026	0.662561	1.473784
F187	F	0.673869	0.098156	0.154715
F188	F	1.007202	0.431489	0.488048
F189	F	1.340535	0.764822	0.821382
H190	H	0.520798	0.095876	0.135975
H191	H	0.854131	0.429209	0.469308
H192	H	1.187465	0.762543	0.802642
H193	H	1.021397	-0.265345	0.000018
H194	H	1.354730	0.067988	0.333352
H195	H	1.688064	0.401321	0.666685
F196	F	1.031403	-0.720581	-0.000030
F197	F	1.364736	-0.387248	0.333304
F198	F	1.698070	-0.053914	0.666637
F199	F	1.000320	-0.004121	0.371539
F200	F	1.333653	0.329212	0.704872
F201	F	1.666987	0.662545	1.038206
H202	H	0.266705	0.092141	0.135974
H203	H	0.600038	0.425474	0.469307
H204	H	0.933371	0.758808	0.802641
H205	H	0.123487	0.090026	0.135975
H206	H	0.456820	0.423359	0.469308
H207	H	0.790154	0.756693	0.802641
F208	F	0.787215	0.192159	0.807112
F209	F	1.120548	0.525492	1.140445
F210	F	1.453882	0.858825	1.473778
F211	F	0.746617	-0.685728	-0.000041
F212	F	1.079951	-0.352395	0.333292
F213	F	1.413284	-0.019061	0.666626
H214	H	0.266724	0.092137	-0.135991
H215	H	0.600057	0.425471	0.197342
H216	H	0.933391	0.758804	0.530675
H217	H	0.771109	-0.234718	0.000001
H218	H	1.104443	0.098616	0.333334
H219	H	1.437776	0.431949	0.666668
F220	F	0.510949	0.095728	-0.154724
F221	F	0.844283	0.429061	0.178609
F222	F	1.177616	0.762395	0.511942
H223	H	0.773213	-0.102597	0.000005
H224	H	1.106546	0.230736	0.333339
H225	H	1.439879	0.564069	0.666672
H226	H	0.766121	-0.546620	-0.000024
H227	H	1.099454	-0.213287	0.333309
H228	H	1.432787	0.120046	0.666642
F229	F	1.033807	-0.570258	0.000008
F230	F	1.367140	-0.236925	0.333342
F231	F	1.700474	0.096409	0.666675
F232	F	0.673903	0.098151	-0.154729
F233	F	1.007236	0.431485	0.178604
F234	F	1.340569	0.764818	0.511938
H235	H	0.987436	0.007777	0.639283
H236	H	1.320769	0.341110	0.972616
H237	H	1.654103	0.674444	1.305950
F238	F	0.787197	0.192150	0.628462
F239	F	1.120530	0.525483	0.961795
F240	F	1.453863	0.858817	1.295128
F241	F	0.787179	0.192137	0.371534
F242	F	1.120512	0.525471	0.704867
F243	F	1.453846	0.858804	1.038201
F244	F	1.040901	-0.126240	0.000029
F245	F	1.374234	0.207094	0.333362
F246	F	1.707568	0.540427	0.666695
H247	H	0.987408	0.007764	0.203710
H248	H	1.320742	0.341097	0.537044
H249	H	1.654075	0.674431	0.870377
H250	H	0.800074	0.180250	0.203702
H251	H	1.133407	0.513583	0.537035
H252	H	1.466740	0.846917	0.870368
