data_functionalizedCrystal
_audit_creation_method	'MofGen! by Chris Wilmer'
_symmetry_space_group_name_H-M	'P1'
_symmetry_Int_Tables_number	1
_symmetry_cell_setting	triclinic
loop_
_symmetry_equiv_pos_as_xyz
  x,y,z
_cell_length_a	17.077404
_cell_length_b	21.295417
_cell_length_c	17.077396
_cell_angle_alpha	90.034796
_cell_angle_beta	90.017060
_cell_angle_gamma	90.030732
loop_
_atom_site_label
_atom_site_type_symbol
_atom_site_fract_x
_atom_site_fract_y
_atom_site_fract_z
Zn1	Zn	1.199994	-0.250595	0.443817
Zn2	Zn	1.199889	-0.355871	0.312540
Zn3	Zn	1.068732	-0.250621	0.312565
Zn4	Zn	1.068676	-0.355831	0.443764
O5	O	1.134323	-0.303230	0.378171
O6	O	1.309827	-0.264567	0.426415
O7	O	1.182470	-0.341937	0.202697
O8	O	1.086211	-0.162528	0.330008
O9	O	1.309750	-0.341913	0.329966
O10	O	1.182649	-0.162509	0.426439
O11	O	1.086109	-0.264610	0.202715
O12	O	0.958877	-0.264571	0.329957
O13	O	1.086117	-0.341844	0.553618
O14	O	0.958837	-0.341868	0.426348
O15	O	1.182595	-0.264528	0.553657
O16	O	1.182417	-0.443956	0.329915
O17	O	1.086015	-0.443926	0.426324
C18	C	0.930375	-0.303218	0.378150
C19	C	0.843125	-0.303229	0.378159
C20	C	0.802135	-0.343538	0.428270
C21	C	0.720154	-0.343540	0.428282
C22	C	0.679166	-0.303234	0.378180
C23	C	0.720162	-0.262920	0.328067
C24	C	0.802141	-0.262916	0.328059
C25	C	0.549292	-0.262932	0.328086
C26	C	0.467308	-0.262937	0.328093
C27	C	0.467305	-0.343556	0.428309
C28	C	0.549284	-0.343552	0.428301
C29	C	0.590275	-0.303239	0.378187
C30	C	1.134220	-0.466781	0.378128
C31	C	1.134248	-0.536749	0.378136
C32	C	1.184489	-0.569611	0.327987
C33	C	1.184525	-0.635353	0.328004
C34	C	1.134307	-0.668232	0.378163
C35	C	1.084063	-0.635363	0.428321
C36	C	1.084033	-0.569622	0.428308
N37	N	1.065638	-0.771498	0.384140
N38	N	1.065669	-0.833949	0.384148
C39	C	1.134395	-0.866307	0.378208
N40	N	1.203092	-0.833853	0.372244
N41	N	1.203060	-0.771396	0.372231
C42	C	1.134334	-0.739517	0.378183
C43	C	1.184680	-0.970453	0.328075
C44	C	1.184718	-1.036197	0.328098
C45	C	1.084249	-1.036205	0.428411
C46	C	1.084218	-0.970463	0.428392
C47	C	1.134432	-0.937591	0.378220
C48	C	1.339067	-0.303242	0.378194
C49	C	1.426317	-0.303247	0.378203
C50	C	1.134362	-0.303179	0.582916
C51	C	1.134378	-0.303157	0.670166
C52	C	1.134448	-0.139039	0.378232
C53	C	1.134501	-0.069071	0.378258
C54	C	1.134329	-0.303235	0.174224
C55	C	1.134465	-0.303079	0.086974
C56	C	1.184625	-0.343348	1.045973
C57	C	1.184605	-0.343366	0.963993
C58	C	1.134429	-0.303113	0.923015
C59	C	1.084264	-0.262842	0.964022
C60	C	1.084280	-0.262827	1.046001
C61	C	1.084234	-0.262875	0.793151
C62	C	1.084218	-0.262888	0.711167
C63	C	1.184559	-0.343414	0.711144
C64	C	1.184576	-0.343399	0.793123
C65	C	1.134411	-0.303127	0.834124
H66	H	0.582655	-0.376376	0.469094
C67	C	1.239101	-0.534035	0.273495
C68	C	1.283125	-0.576890	0.229596
C69	C	1.333451	-0.544140	0.179401
H70	H	1.209175	-0.508427	0.239190
H71	H	1.273316	-0.508363	0.303535
H72	H	1.248914	-0.602552	0.199559
H73	H	1.313067	-0.602500	0.263881
H74	H	1.367667	-0.518467	0.209441
H75	H	1.303519	-0.518533	0.145101
H76	H	1.363332	-0.573212	0.149615
C77	C	1.029637	-0.671024	0.482911
C78	C	1.046690	-0.654986	0.560590
C79	C	0.996577	-0.687830	0.610904
H80	H	0.976868	-0.660321	0.471478
H81	H	1.036855	-0.714890	0.475788
H82	H	1.039465	-0.611130	0.567709
H83	H	1.099449	-0.665690	0.572047
H84	H	1.003796	-0.731696	0.603782
H85	H	0.943812	-0.677125	0.599465
H86	H	1.008146	-0.676958	0.663616
C87	C	0.675619	-0.219261	0.273576
C88	C	0.628529	-0.254855	0.223170
C89	C	0.587494	-0.214659	0.172955
H90	H	0.643603	-0.191855	0.303582
H91	H	0.711749	-0.195262	0.243685
H92	H	0.592404	-0.278844	0.253058
H93	H	0.660526	-0.282260	0.193147
H94	H	0.623624	-0.190660	0.143064
H95	H	0.555483	-0.187254	0.202967
H96	H	0.555544	-0.238803	0.138744
C97	C	0.846507	-0.219131	0.273562
C98	C	0.793067	-0.183846	0.229668
C99	C	0.833907	-0.143509	0.179450
H100	H	0.878519	-0.191675	0.303560
H101	H	0.878441	-0.243163	0.239260
H102	H	0.761146	-0.159816	0.263966
H103	H	0.761053	-0.211286	0.199654
H104	H	0.865841	-0.167542	0.145148
H105	H	0.865918	-0.116057	0.209454
H106	H	0.797654	-0.119568	0.149657
H107	H	1.043120	-0.542865	0.469146
C108	C	1.239150	-0.671082	0.273670
C109	C	1.289469	-0.708761	0.318151
C110	C	1.339796	-0.741679	0.268121
H111	H	1.209220	-0.696815	0.239445
H112	H	1.269098	-0.642116	0.243793
H113	H	1.259524	-0.737724	0.348015
H114	H	1.319415	-0.683044	0.352375
H115	H	1.369744	-0.712712	0.238243
H116	H	1.309860	-0.767408	0.233897
H117	H	1.373948	-0.767243	0.298293
C118	C	1.239286	-0.934872	0.273579
C119	C	1.283313	-0.977725	0.229681
C120	C	1.333629	-0.944973	0.179478
H121	H	1.209352	-0.909270	0.239273
H122	H	1.273499	-0.909193	0.303613
H123	H	1.249104	-1.003393	0.199650
H124	H	1.313263	-1.003328	0.263966
H125	H	1.367842	-0.919294	0.209511
H126	H	1.303689	-0.919372	0.145177
H127	H	1.363513	-0.974044	0.149692
C128	C	1.239443	-1.071877	0.273821
C129	C	1.289761	-1.109499	0.318376
C130	C	1.340226	-1.142356	0.268421
H131	H	1.209613	-1.097642	0.239547
H132	H	1.269385	-1.042874	0.243992
H133	H	1.259823	-1.138499	0.348191
H134	H	1.319608	-1.083749	0.352648
H135	H	1.370167	-1.113352	0.238593
H136	H	1.310389	-1.168118	0.234149
H137	H	1.374377	-1.167882	0.298645
C138	C	1.029603	-0.219272	0.666711
C139	C	0.951931	-0.232991	0.686617
C140	C	0.901595	-0.192833	0.645670
H141	H	1.041011	-0.176949	0.680127
H142	H	1.036731	-0.225058	0.612009
H143	H	0.944806	-0.227200	0.741307
H144	H	0.940498	-0.275306	0.673199
H145	H	0.908723	-0.198618	0.590968
H146	H	0.913010	-0.150512	0.659089
H147	H	0.848889	-0.202139	0.659165
C148	C	1.029758	-1.072008	0.482789
C149	C	1.040526	-1.136616	0.472058
C150	C	0.990337	-1.169619	0.522134
H151	H	1.041161	-1.061266	0.535570
H152	H	0.977000	-1.061317	0.471244
H153	H	1.093271	-1.147302	0.483608
H154	H	1.029117	-1.147376	0.419287
H155	H	0.937580	-1.158929	0.510589
H156	H	1.001744	-1.158872	0.574912
H157	H	0.997631	-1.213459	0.514855
H158	H	1.043406	-0.230070	0.930651
H159	H	1.043436	-0.230036	1.079383
H160	H	1.225440	-0.376165	0.930613
C161	C	1.029574	-0.934894	0.482862
C162	C	0.985587	-0.977757	0.526779
C163	C	0.935232	-0.945014	0.576960
H164	H	1.059479	-0.909202	0.517157
H165	H	0.995338	-0.909307	0.452812
H166	H	1.019819	-1.003333	0.556827
H167	H	0.955666	-1.003450	0.492505
H168	H	0.900996	-0.919427	0.546910
H169	H	0.965143	-0.919323	0.611250
H170	H	0.905376	-0.974091	0.606759
C171	C	1.239082	-0.387171	0.837474
C172	C	1.282995	-0.422455	0.784023
C173	C	1.333206	-0.462791	0.824850
H174	H	1.273378	-0.363157	0.869472
H175	H	1.209053	-0.414622	0.869420
H176	H	1.313022	-0.395007	0.752089
H177	H	1.248720	-0.446481	0.752022
H178	H	1.303177	-0.490243	0.856797
H179	H	1.367497	-0.438773	0.856847
H180	H	1.363002	-0.486740	0.788590
C181	C	1.239232	-0.387017	1.090359
C182	C	1.316904	-0.373333	1.070414
C183	C	1.367228	-0.413556	1.111275
H184	H	1.232168	-0.381283	1.145067
H185	H	1.227752	-0.429324	1.076884
H186	H	1.328380	-0.331036	1.083893
H187	H	1.323992	-0.379071	1.015712
H188	H	1.355748	-0.455862	1.097800
H189	H	1.360158	-0.407818	1.165981
H190	H	1.419934	-0.404280	1.097742
C191	C	1.238935	-0.387118	0.666491
C192	C	1.228165	-0.378532	0.585926
C193	C	1.278235	-0.418783	0.544765
H194	H	1.291719	-0.377946	0.679838
H195	H	1.227408	-0.429423	0.679863
H196	H	1.239697	-0.336236	0.572560
H197	H	1.175392	-0.387708	0.572555
H198	H	1.266708	-0.461088	0.558137
H199	H	1.331016	-0.409608	0.558119
H200	H	1.270930	-0.412967	0.490098
C201	C	0.675545	-0.387343	0.482555
C202	C	0.628422	-0.427631	0.438015
C203	C	0.587307	-0.467987	0.487986
H204	H	0.711603	-0.411412	0.512410
H205	H	0.643548	-0.363317	0.516806
H206	H	0.660416	-0.451655	0.403778
H207	H	0.592349	-0.403580	0.408162
H208	H	0.555311	-0.443961	0.522237
H209	H	0.623371	-0.492051	0.517838
H210	H	0.555324	-0.495323	0.457774
C211	C	0.846491	-0.387323	0.482755
C212	C	0.793042	-0.422612	0.526658
C213	C	0.833871	-0.462946	0.576869
H214	H	0.878446	-0.414777	0.452751
H215	H	0.878481	-0.363288	0.517051
H216	H	0.761065	-0.446645	0.492366
H217	H	0.761085	-0.395175	0.556678
H218	H	0.865862	-0.438911	0.611165
H219	H	0.865825	-0.490395	0.546858
H220	H	0.797613	-0.486890	0.606668
C221	C	0.422843	-0.387430	0.482621
C222	C	0.442724	-0.449694	0.465360
C223	C	0.401769	-0.490129	0.515362
H224	H	0.436271	-0.378358	0.535413
H225	H	0.368143	-0.381701	0.475445
H226	H	0.497412	-0.455421	0.472543
H227	H	0.429294	-0.458786	0.412578
H228	H	0.347068	-0.484400	0.508186
H229	H	0.415199	-0.481052	0.568151
H230	H	0.415246	-0.532380	0.503653
H231	H	0.433937	-0.230109	0.287304
C232	C	1.029676	-0.219255	0.837711
C233	C	0.979328	-0.254882	0.884740
C234	C	0.929057	-0.214720	0.925792
H235	H	1.059644	-0.191813	0.869770
H236	H	0.999746	-0.195291	0.801592
H237	H	1.009255	-0.278834	0.920855
H238	H	0.949342	-0.282322	0.852700
H239	H	0.899127	-0.190757	0.889673
H240	H	0.959032	-0.187281	0.957846
H241	H	0.894886	-0.238887	0.957700
H242	H	0.582664	-0.230099	0.287285
