data_functionalizedCrystal
_audit_creation_method	'MofGen! by Chris Wilmer'
_symmetry_space_group_name_H-M	'P1'
_symmetry_Int_Tables_number	1
_symmetry_cell_setting	triclinic
loop_
_symmetry_equiv_pos_as_xyz
  x,y,z
_cell_length_a	14.853568
_cell_length_b	14.853567
_cell_length_c	13.330367
_cell_angle_alpha	90.000844
_cell_angle_beta	90.004747
_cell_angle_gamma	83.635059
loop_
_atom_site_label
_atom_site_type_symbol
_atom_site_fract_x
_atom_site_fract_y
_atom_site_fract_z
O1	O	-1.196368	-0.117706	-0.083350
O2	O	-0.933909	-0.131727	-0.083365
O3	O	-1.072149	0.006513	-0.083360
O4	O	-1.058128	-0.255946	-0.083355
O5	O	-1.072129	0.006516	0.083487
O6	O	-0.933889	-0.131724	0.083482
O7	O	-1.196348	-0.117703	0.083498
Cu8	Cu	-1.065117	-0.124713	0.098724
Cu9	Cu	-1.065141	-0.124717	-0.098592
O10	O	-1.058108	-0.255943	0.083493
C11	C	-0.900310	-0.131090	0.000057
C12	C	-0.800227	-0.129186	0.000050
C13	C	-0.387693	-0.039019	0.000072
C14	C	-0.366412	-0.203252	0.000075
C15	C	-0.460446	-0.205043	0.000071
C16	C	-0.518107	-0.123820	0.000067
C17	C	-0.481736	-0.040807	0.000066
C18	C	-0.496825	-0.288054	0.000062
C19	C	-0.590864	-0.289848	0.000057
C20	C	-0.648527	-0.208624	0.000060
C21	C	-0.612150	-0.125608	0.000060
C22	C	-0.669812	-0.044385	0.000056
C23	C	-0.633437	0.038632	0.000063
C24	C	-0.539399	0.040416	0.000069
C25	C	-0.742565	-0.210409	0.000055
C26	C	-0.763855	-0.046173	0.000049
N27	N	-1.065107	-0.124710	0.237506
C28	C	-1.071504	0.040103	0.000061
C29	C	-1.069600	0.140187	0.000052
C30	C	-0.229947	-0.118340	0.000075
C31	C	-0.330031	-0.120242	0.000077
C32	C	-1.058753	-0.289534	0.000070
C33	C	-1.060657	-0.389617	0.000072
C34	C	-0.979435	0.552721	0.000066
C35	C	-1.143667	0.574002	0.000075
C36	C	-1.145457	0.479968	0.000070
C37	C	-1.064235	0.422306	0.000063
C38	C	-0.981222	0.458678	0.000063
C39	C	-1.228469	0.443589	0.000080
C40	C	-1.230262	0.349550	0.000075
C41	C	-1.149039	0.291886	0.000062
C42	C	-1.066023	0.328263	0.000061
C43	C	-0.984800	0.270602	0.000054
C44	C	-0.901783	0.306977	0.000046
C45	C	-0.899999	0.401015	0.000050
C46	C	-1.150823	0.197849	0.000058
C47	C	-0.986588	0.176559	0.000052
N48	N	-1.065158	-0.124713	-0.237373
C49	C	-1.003925	-0.185906	0.710127
C50	C	-1.126380	-0.063521	0.710099
C51	C	-1.126370	-0.063518	0.605081
C52	C	-1.065137	-0.124711	0.552580
C53	C	-1.003915	-0.185907	0.605098
C54	C	-1.187598	-0.002330	0.552555
C55	C	-1.187591	-0.002326	0.447530
C56	C	-1.126353	-0.063515	0.395028
C57	C	-1.065127	-0.124712	0.447552
C58	C	-1.003894	-0.185905	0.395052
C59	C	-0.942664	-0.247098	0.447575
C60	C	-0.942677	-0.247096	0.552596
C61	C	-1.126340	-0.063518	0.290006
C62	C	-1.003884	-0.185906	0.290024
H63	H	-0.772178	-0.278000	0.000051
H64	H	-0.920445	0.129616	0.000042
H65	H	-0.954069	-0.235726	0.752893
H66	H	-0.358072	0.028571	0.000082
C67	C	-0.821619	-0.368061	0.542074
C68	C	-0.875375	-0.314354	0.610329
H69	H	-0.780067	-0.409578	0.577721
H70	H	-0.859174	-0.400564	0.501106
H71	H	-0.789147	-0.330463	0.501117
H72	H	-0.907852	-0.351952	0.651282
H73	H	-0.837815	-0.281849	0.651315
C74	C	-0.831613	0.153371	0.000041
C75	C	-0.812504	0.243589	0.000037
H76	H	-0.776497	0.114237	0.000029
H77	H	-0.865632	0.142343	0.058225
H78	H	-0.865658	0.142344	-0.058142
H79	H	-0.778464	0.254617	0.058224
H80	H	-0.778471	0.254621	-0.058153
C81	C	-0.751544	0.131885	-0.085720
C82	C	-0.696828	0.127909	0.000056
H83	H	-0.790684	0.186997	-0.085720
H84	H	-0.714413	0.129180	-0.143886
H85	H	-0.786654	0.082181	-0.085717
H86	H	-0.661712	0.177609	0.000049
H87	H	-0.733963	0.130623	0.058237
C88	C	-1.392423	0.380041	0.000078
C89	C	-1.321511	0.309570	0.000073
H90	H	-1.448756	0.355356	0.000068
H91	H	-1.388306	0.416269	0.058262
H92	H	-1.388307	0.416283	-0.058105
H93	H	-1.325624	0.273332	0.058260
H94	H	-1.325631	0.273327	-0.058117
C95	C	-0.725561	-0.365517	0.000022
C96	C	-0.630845	-0.381096	0.000035
H97	H	-0.750243	-0.421852	-0.000002
H98	H	-0.745341	-0.332088	0.058207
H99	H	-0.745335	-0.332059	-0.058160
H100	H	-0.611070	-0.414549	0.058221
H101	H	-0.611057	-0.414540	-0.058156
C102	C	-0.212812	-0.273429	0.000088
C103	C	-0.303033	-0.292529	0.000083
H104	H	-0.173683	-0.328548	0.000102
H105	H	-0.201781	-0.239407	-0.058094
H106	H	-0.201782	-0.239390	0.058273
H107	H	-0.314064	-0.326562	-0.058106
H108	H	-0.314068	-0.326565	0.058271
H109	H	-0.832411	0.430641	0.000044
H110	H	-1.176239	-0.013704	0.752848
H111	H	-0.911844	0.582342	0.000055
C112	C	-1.306184	0.585593	0.000082
C113	C	-1.232945	0.637379	0.000083
H114	H	-1.361301	0.624725	0.000090
H115	H	-1.303471	0.548478	-0.058101
H116	H	-1.303456	0.548467	0.058266
H117	H	-1.235669	0.674501	-0.058106
H118	H	-1.235659	0.674510	0.058271
C119	C	-1.248117	0.104442	-0.085703
C120	C	-1.242063	0.157858	0.000068
H121	H	-1.304446	0.079750	-0.085693
H122	H	-1.244023	0.140691	-0.143873
H123	H	-1.199994	0.056648	-0.085702
H124	H	-1.290182	0.205656	0.000063
H125	H	-1.246166	0.121607	0.058253
H126	H	-0.954017	-0.235733	0.247285
C127	C	-0.404697	0.116076	0.000062
C128	C	-0.499413	0.131662	0.000066
H129	H	-0.380011	0.172408	0.000052
H130	H	-0.384917	0.082638	0.058244
H131	H	-0.384929	0.082624	-0.058123
H132	H	-0.519182	0.165109	0.058255
H133	H	-0.519201	0.165115	-0.058122
H134	H	-1.294595	0.490543	0.000094
C135	C	-1.241973	0.052011	0.713535
C136	C	-1.254902	0.064929	0.610263
H137	H	-1.283522	0.093541	0.749163
H138	H	-1.251836	-0.008170	0.730738
H139	H	-1.181794	0.061916	0.730743
H140	H	-1.315079	0.055017	0.593054
H141	H	-1.245045	0.125124	0.593053
H142	H	-0.892811	-0.296926	0.404817
C143	C	-1.240222	0.153689	0.415470
C144	C	-1.254883	0.065042	0.389926
H145	H	-1.281761	0.195309	0.379938
H146	H	-1.248925	0.162334	0.485546
H147	H	-1.180040	0.163546	0.398232
H148	H	-1.315064	0.055183	0.407171
H149	H	-1.246188	0.056394	0.319834
C150	C	-1.179107	0.092449	0.257630
C151	C	-1.193636	0.003728	0.232257
H152	H	-1.220652	0.133961	0.221968
H153	H	-1.187891	0.101211	0.327679
H154	H	-1.118926	0.102347	0.240433
H155	H	-1.253815	-0.006173	0.249461
H156	H	-1.184859	-0.005038	0.162192
H157	H	-0.810798	0.019969	0.000050
H158	H	-0.449870	-0.354181	0.000055
