data_functionalizedCrystal
_audit_creation_method	'MofGen! by Chris Wilmer'
_symmetry_space_group_name_H-M	'P1'
_symmetry_Int_Tables_number	1
_symmetry_cell_setting	triclinic
loop_
_symmetry_equiv_pos_as_xyz
  x,y,z
_cell_length_a	19.121102
_cell_length_b	19.121725
_cell_length_c	19.120904
_cell_angle_alpha	94.952502
_cell_angle_beta	90.088173
_cell_angle_gamma	85.251956
loop_
_atom_site_label
_atom_site_type_symbol
_atom_site_fract_x
_atom_site_fract_y
_atom_site_fract_z
Zn1	Zn	1.068879	-0.344788	-0.457366
Zn2	Zn	1.402212	-0.011455	-0.124033
Zn3	Zn	1.735545	0.321878	0.209301
Zn4	Zn	1.078400	-0.457852	-0.345148
Zn5	Zn	1.411733	-0.124519	-0.011815
Zn6	Zn	1.745067	0.208815	0.321519
Zn7	Zn	0.956239	-0.334763	-0.334705
Zn8	Zn	1.289573	-0.001430	-0.001372
Zn9	Zn	1.622906	0.331904	0.331962
Zn10	Zn	0.956192	-0.457378	-0.457329
Zn11	Zn	1.289525	-0.124045	-0.123996
Zn12	Zn	1.622859	0.209288	0.209337
O13	O	1.014927	-0.398695	-0.398637
O14	O	1.348261	-0.065362	-0.065304
O15	O	1.681594	0.267971	0.268030
O16	O	1.168426	-0.364180	-0.446866
O17	O	1.501759	-0.030847	-0.113533
O18	O	1.835093	0.302486	0.219801
O19	O	1.066200	-0.437527	-0.245480
O20	O	1.399533	-0.104193	0.087853
O21	O	1.732866	0.229140	0.421186
O22	O	0.967216	-0.237460	-0.346621
O23	O	1.300550	0.095873	-0.013288
O24	O	1.633883	0.429206	0.320045
O25	O	1.175421	-0.447248	-0.364420
O26	O	1.508754	-0.113915	-0.031086
O27	O	1.842088	0.219419	0.302247
O28	O	1.049972	-0.244826	-0.436740
O29	O	1.383305	0.088507	-0.103406
O30	O	1.716639	0.421841	0.229927
O31	O	0.976449	-0.347094	-0.237808
O32	O	1.309782	-0.013760	0.095525
O33	O	1.643116	0.319573	0.428859
O34	O	0.857949	-0.346634	-0.346586
O35	O	1.191282	-0.013301	-0.013252
O36	O	1.524616	0.320033	0.320081
O37	O	0.967136	-0.446440	-0.555616
O38	O	1.300469	-0.113107	-0.222283
O39	O	1.633802	0.220226	0.111050
O40	O	0.857914	-0.436719	-0.436677
O41	O	1.191247	-0.103386	-0.103344
O42	O	1.524581	0.229948	0.229990
O43	O	1.049926	-0.363721	-0.555644
O44	O	1.383259	-0.030388	-0.222310
O45	O	1.716593	0.302946	0.111023
O46	O	1.066154	-0.556422	-0.364384
O47	O	1.399487	-0.223088	-0.031051
O48	O	1.732820	0.110245	0.302283
O49	O	0.976368	-0.556074	-0.446803
O50	O	1.309701	-0.222740	-0.113470
O51	O	1.643035	0.110593	0.219864
C52	C	0.832448	-0.390538	-0.390494
C53	C	1.165781	-0.057205	-0.057161
C54	C	1.499114	0.276129	0.276172
C55	C	0.754382	-0.387066	-0.387028
C56	C	1.087715	-0.053732	-0.053695
C57	C	1.421048	0.279601	0.279638
C58	C	0.717712	-0.432402	-0.432238
C59	C	1.051046	-0.099069	-0.098905
C60	C	1.384379	0.234265	0.234428
C61	C	0.644361	-0.429130	-0.428985
C62	C	0.977694	-0.095797	-0.095651
C63	C	1.311027	0.237536	0.237682
C64	C	0.607680	-0.380525	-0.380517
C65	C	0.941014	-0.047192	-0.047184
C66	C	1.274347	0.286141	0.286150
C67	C	0.644355	-0.335184	-0.335305
C68	C	0.977688	-0.001851	-0.001972
C69	C	1.311022	0.331482	0.331361
C70	C	0.717705	-0.338453	-0.338563
C71	C	1.051038	-0.005120	-0.005230
C72	C	1.384371	0.328214	0.328104
C73	C	0.386210	-0.368303	-0.368341
C74	C	0.719544	-0.034970	-0.035008
C75	C	1.052877	0.298364	0.298326
C76	C	0.312855	-0.365039	-0.365085
C77	C	0.646189	-0.031706	-0.031752
C78	C	0.979522	0.301628	0.301581
C79	C	0.312866	-0.458985	-0.458766
C80	C	0.646199	-0.125651	-0.125433
C81	C	0.979533	0.207682	0.207900
C82	C	0.386218	-0.462252	-0.462017
C83	C	0.719551	-0.128919	-0.128683
C84	C	1.052884	0.204415	0.204650
C85	C	0.422886	-0.416908	-0.416807
C86	C	0.756219	-0.083575	-0.083474
C87	C	1.089552	0.249758	0.249859
C88	C	0.532703	-0.377182	-0.377189
C89	C	0.866037	-0.043848	-0.043855
C90	C	1.199370	0.289485	0.289478
C91	C	0.497861	-0.420249	-0.420140
C92	C	0.831194	-0.086916	-0.086806
C93	C	1.164528	0.246417	0.246527
C94	C	1.022307	-0.581823	-0.406739
C95	C	1.355641	-0.248490	-0.073406
C96	C	1.688974	0.084843	0.259928
C97	C	1.025528	-0.660170	-0.410231
C98	C	1.358861	-0.326837	-0.076898
C99	C	1.692194	0.006496	0.256435
C100	C	0.983996	-0.693206	-0.364925
C101	C	1.317330	-0.359873	-0.031592
C102	C	1.650663	-0.026539	0.301742
C103	C	0.987029	-0.766822	-0.368210
C104	C	1.320362	-0.433488	-0.034876
C105	C	1.653696	-0.100155	0.298457
C106	C	1.031590	-0.807400	-0.416805
C107	C	1.364923	-0.474067	-0.083472
C108	C	1.698257	-0.140733	0.249862
C109	C	1.073126	-0.774359	-0.462113
C110	C	1.406459	-0.441026	-0.128780
C111	C	1.739793	-0.107693	0.204553
C112	C	1.070096	-0.700745	-0.458825
C113	C	1.403430	-0.367412	-0.125491
C114	C	1.736763	-0.034078	0.207842
C115	C	1.042895	-1.029856	-0.429080
C116	C	1.376228	-0.696523	-0.095747
C117	C	1.709561	-0.363190	0.237586
C118	C	1.045920	-1.103475	-0.432367
C119	C	1.379253	-0.770142	-0.099034
C120	C	1.712586	-0.436809	0.234300
C121	C	0.959823	-1.095933	-0.338462
C122	C	1.293156	-0.762599	-0.005129
C123	C	1.626490	-0.429266	0.328205
C124	C	0.956794	-1.022317	-0.335181
C125	C	1.290128	-0.688984	-0.001847
C126	C	1.623461	-0.355651	0.331486
C127	C	0.998333	-0.989283	-0.380487
C128	C	1.331666	-0.655950	-0.047153
C129	C	1.665000	-0.322616	0.286180
C130	C	1.034690	-0.882647	-0.420165
C131	C	1.368023	-0.549314	-0.086832
C132	C	1.701356	-0.215980	0.246502
C133	C	0.995237	-0.914037	-0.377122
C134	C	1.328570	-0.580704	-0.043789
C135	C	1.661903	-0.247371	0.289544
C136	C	1.198120	-0.406885	-0.406812
C137	C	1.531453	-0.073552	-0.073478
C138	C	1.864787	0.259781	0.259855
C139	C	1.276186	-0.410375	-0.410295
C140	C	1.609519	-0.077042	-0.076962
C141	C	1.942852	0.256291	0.256371
C142	C	1.007463	-0.406146	-0.581826
C143	C	1.340797	-0.072813	-0.248493
C144	C	1.674130	0.260521	0.084841
C145	C	1.004283	-0.409321	-0.659890
C146	C	1.337616	-0.075988	-0.326557
C147	C	1.670949	0.257345	0.006776
C148	C	1.007537	-0.214854	-0.390520
C149	C	1.340871	0.118480	-0.057186
C150	C	1.674204	0.451813	0.276147
C151	C	1.004388	-0.136511	-0.387061
C152	C	1.337722	0.196822	-0.053727
C153	C	1.671055	0.530155	0.279606
C154	C	1.045891	-0.367747	-0.696580
C155	C	1.379224	-0.034414	-0.363247
C156	C	1.712557	0.298919	-0.029914
C157	C	1.042893	-0.370728	-0.769929
C158	C	1.376227	-0.037394	-0.436596
C159	C	1.709560	0.295939	-0.103263
C160	C	0.998291	-0.415286	-0.806588
C161	C	1.331625	-0.081953	-0.473254
C162	C	1.664958	0.251381	-0.139921
C163	C	0.956679	-0.456861	-0.769892
C164	C	1.290012	-0.123528	-0.436559
C165	C	1.623345	0.209805	-0.103226
C166	C	0.959673	-0.453877	-0.696544
C167	C	1.293006	-0.120544	-0.363211
C168	C	1.626339	0.212790	-0.029878
C169	C	0.987091	-0.426448	-1.028050
C170	C	1.320424	-0.093115	-0.694717
C171	C	1.653758	0.240219	-0.361384
C172	C	0.984102	-0.429431	-1.101404
C173	C	1.317435	-0.096098	-0.768070
C174	C	1.650768	0.237236	-0.434737
C175	C	1.070316	-0.343296	-1.101436
C176	C	1.403649	-0.009962	-0.768102
C177	C	1.736982	0.323371	-0.434769
C178	C	1.073309	-0.340318	-1.028086
C179	C	1.406642	-0.006985	-0.694753
C180	C	1.739976	0.326348	-0.361420
C181	C	1.031694	-0.381891	-0.991397
C182	C	1.365027	-0.048558	-0.658064
C183	C	1.698360	0.284776	-0.324731
C184	C	0.995228	-0.418335	-0.881562
C185	C	1.328561	-0.085002	-0.548229
C186	C	1.661895	0.248332	-0.214896
C187	C	1.034754	-0.378838	-0.916424
C188	C	1.368087	-0.045505	-0.583090
C189	C	1.701420	0.287829	-0.249757
C190	C	1.022401	-0.391225	-0.216160
C191	C	1.355734	-0.057891	0.117173
C192	C	1.689068	0.275442	0.450506
C193	C	1.025710	-0.387857	-0.138094
C194	C	1.359043	-0.054524	0.195240
C195	C	1.692376	0.278810	0.528573
H196	H	0.527729	-0.459820	-0.459605
H197	H	0.861062	-0.126487	-0.126271
H198	H	1.194396	0.206846	0.207062
Br199	Br	0.263099	-0.520522	-0.520116
Br200	Br	0.596433	-0.187188	-0.186782
Br201	Br	0.929766	0.146145	0.146551
Br202	Br	0.482917	-0.311217	-0.311415
Br203	Br	0.816250	0.022116	0.021918
Br204	Br	1.149583	0.355450	0.355252
Br205	Br	1.133608	-0.829429	-0.528060
Br206	Br	1.466941	-0.496096	-0.194727
Br207	Br	1.800274	-0.162763	0.138606
H208	H	0.947707	-0.660172	-0.325356
H209	H	1.281040	-0.326838	0.007977
H210	H	1.614373	0.006495	0.341310
Br211	Br	1.095273	-0.318358	-0.866672
Br212	Br	1.428607	0.014975	-0.533338
Br213	Br	1.761940	0.348309	-0.200005
H214	H	0.920509	-0.989280	-0.295611
H215	H	1.253843	-0.655946	0.037723
H216	H	1.587176	-0.322613	0.371056
H217	H	1.070970	-0.915694	-0.459733
H218	H	1.404303	-0.582361	-0.126399
H219	H	1.737637	-0.249028	0.206934
Br220	Br	0.435994	-0.528222	-0.527793
Br221	Br	0.769327	-0.194889	-0.194459
Br222	Br	1.102660	0.138444	0.138874
H223	H	0.747572	-0.471984	-0.471704
H224	H	1.080906	-0.138650	-0.138370
H225	H	1.414239	0.194683	0.194963
Br226	Br	1.126468	-0.655910	-0.520310
Br227	Br	1.459801	-0.322576	-0.186976
Br228	Br	1.793135	0.010757	0.146357
Br229	Br	0.767471	-0.276919	-0.277208
Br230	Br	1.100805	0.056414	0.056126
Br231	Br	1.434138	0.389748	0.389459
H232	H	1.109631	-0.304036	-0.998244
H233	H	1.442964	0.029297	-0.664911
H234	H	1.776297	0.362630	-0.331578
Br235	Br	1.126789	-0.286878	-1.151231
Br236	Br	1.460122	0.046456	-0.817898
Br237	Br	1.793456	0.379789	-0.484565
H238	H	0.282992	-0.325451	-0.325621
H239	H	0.616325	0.007882	0.007712
H240	H	0.949658	0.341216	0.341045
Br241	Br	0.930664	-0.811654	-0.306718
Br242	Br	1.263997	-0.478320	0.026615
Br243	Br	1.597330	-0.144987	0.359948
H244	H	0.947779	-0.465717	-1.131249
H245	H	1.281113	-0.132384	-0.797915
H246	H	1.614446	0.200949	-0.464582
Br247	Br	1.106431	-0.307278	-0.646837
Br248	Br	1.439764	0.026055	-0.313504
Br249	Br	1.773097	0.359389	0.019829
Br250	Br	0.594597	-0.490659	-0.490346
Br251	Br	0.927930	-0.157326	-0.157012
Br252	Br	1.261264	0.176007	0.176321
H253	H	0.958958	-0.880996	-0.337554
H254	H	1.292291	-0.547663	-0.004220
H255	H	1.625625	-0.214330	0.329113
H256	H	0.926005	-1.122837	-0.301576
H257	H	1.259339	-0.789504	0.031757
H258	H	1.592672	-0.456171	0.365091
Br259	Br	0.594575	-0.269213	-0.269533
Br260	Br	0.927908	0.064121	0.063800
Br261	Br	1.261241	0.397454	0.397133
H262	H	0.416057	-0.331386	-0.331523
H263	H	0.749390	0.001947	0.001810
H264	H	1.082724	0.335281	0.335143
Br265	Br	1.106405	-1.158547	-0.498317
Br266	Br	1.439738	-0.825213	-0.164983
Br267	Br	1.773072	-0.491880	0.168350
H268	H	1.076716	-1.002966	-0.465972
H269	H	1.410049	-0.669632	-0.132638
H270	H	1.743382	-0.336299	0.200695
Br271	Br	0.930612	-0.482867	-0.978267
Br272	Br	1.263945	-0.149534	-0.644934
Br273	Br	1.597278	0.183799	-0.311600
H274	H	1.076777	-0.336875	-0.799799
H275	H	1.410110	-0.003542	-0.466466
H276	H	1.743443	0.329791	-0.133133
Br277	Br	0.896142	-0.517330	-0.819641
Br278	Br	1.229475	-0.183996	-0.486308
Br279	Br	1.562809	0.149337	-0.152975
Br280	Br	0.903198	-0.510296	-0.646749
Br281	Br	1.236531	-0.176963	-0.313416
Br282	Br	1.569865	0.156370	0.019917
H283	H	0.958916	-0.454618	-0.911418
H284	H	1.292250	-0.121285	-0.578084
H285	H	1.625583	0.212049	-0.244751
