data_functionalizedCrystal
_audit_creation_method	'MofGen! by Chris Wilmer'
_symmetry_space_group_name_H-M	'P1'
_symmetry_Int_Tables_number	1
_symmetry_cell_setting	triclinic
loop_
_symmetry_equiv_pos_as_xyz
  x,y,z
_cell_length_a	15.944551
_cell_length_b	15.944551
_cell_length_c	9.130313
_cell_angle_alpha	90.004256
_cell_angle_beta	89.997799
_cell_angle_gamma	83.498738
loop_
_atom_site_label
_atom_site_type_symbol
_atom_site_fract_x
_atom_site_fract_y
_atom_site_fract_z
O1	O	0.108328	1.114519	-0.121650
O2	O	0.121685	0.869970	-0.121687
O3	O	-0.007268	0.998923	-0.121654
O4	O	0.237281	0.985566	-0.121682
O5	O	-0.007265	0.998921	0.121945
O6	O	0.121688	0.869968	0.121912
O7	O	0.108332	1.114518	0.121949
Cu8	Cu	0.115010	0.992243	0.144173
Cu9	Cu	0.115006	0.992245	-0.143911
O10	O	0.237285	0.985565	0.121916
C11	C	0.121132	0.838675	0.000108
C12	C	0.119470	0.745429	0.000095
C13	C	0.035565	0.530572	0.000133
C14	C	0.074526	0.469553	-0.119979
C15	C	0.116462	0.574703	0.000112
C16	C	0.074548	0.469574	0.120190
C17	C	0.113551	0.409790	0.000136
C18	C	0.155445	0.514912	-0.120099
C19	C	0.155456	0.514939	0.120179
C20	C	0.194476	0.453937	0.000038
C21	C	0.118137	0.669705	0.000097
C22	C	0.111883	0.314789	0.000140
C23	C	-0.038561	0.998367	0.000146
C24	C	-0.131807	0.996705	0.000146
C25	C	-0.346663	0.912801	0.000113
C26	C	-0.407679	0.951762	0.120228
C27	C	-0.302533	0.993698	0.000134
C28	C	-0.407666	0.951783	-0.119941
C29	C	-0.467445	0.990787	0.000117
C30	C	-0.362320	1.032682	0.120348
C31	C	-0.362300	1.032691	-0.119929
C32	C	-0.423298	1.071711	0.000215
C33	C	-0.207530	0.995372	0.000146
C34	C	-0.562446	0.989119	0.000116
C35	C	0.268577	0.986120	0.000114
C36	C	0.361823	0.987782	0.000103
C37	C	0.108885	1.145813	0.000151
C38	C	0.110547	1.239059	0.000155
N39	N	0.115013	0.992248	0.346796
N40	N	0.114997	0.992247	-0.346533
C41	C	0.057931	1.049362	0.423462
C42	C	0.057921	1.049360	0.576799
C43	C	0.172081	0.935126	0.576790
C44	C	0.172086	0.935124	0.423456
C45	C	-0.007975	1.115317	0.423469
C46	C	-0.007985	1.115315	0.576806
H47	H	-0.031573	0.563905	-0.000008
H48	H	0.189634	0.534900	-0.221754
N49	N	-0.434271	0.906449	-0.254455
H50	H	-0.474322	0.946213	-0.314636
H51	H	-0.463431	0.856247	-0.223704
H52	H	0.011956	1.176129	0.375917
H53	H	-0.427786	0.917545	0.221766
N54	N	0.029222	0.442962	0.254703
H55	H	-0.020980	0.413761	0.224071
H56	H	0.009338	0.494422	0.315215
H57	H	0.218559	0.888610	0.361035
H58	H	0.005849	1.179743	0.618430
N59	N	0.233634	0.873515	0.659473
H60	H	0.224969	0.882179	0.768243
H61	H	0.293232	0.883213	0.632680
N62	N	-0.467226	1.160732	0.000304
H63	H	-0.450751	1.191169	0.091067
H64	H	-0.530354	1.159060	-0.000613
H65	H	-0.342171	1.066879	-0.221471
N66	N	-0.302542	0.823857	0.000240
H67	H	-0.318919	0.793408	0.091049
H68	H	-0.239434	0.825673	-0.000746
H69	H	0.040308	0.449443	-0.221517
N70	N	0.200738	0.541622	0.254679
H71	H	0.251574	0.569839	0.224074
H72	H	0.219646	0.490321	0.316230
N73	N	-0.335849	1.077971	0.255007
H74	H	-0.272605	1.078789	0.254206
H75	H	-0.352792	1.047619	0.345536
H76	H	0.261683	0.420779	-0.000037
H77	H	-0.068823	1.095434	0.624356
H78	H	-0.072418	1.101534	0.381854
