data_functionalizedCrystal
_audit_creation_method	'MofGen! by Chris Wilmer'
_symmetry_space_group_name_H-M	'P1'
_symmetry_Int_Tables_number	1
_symmetry_cell_setting	triclinic
loop_
_symmetry_equiv_pos_as_xyz
  x,y,z
_cell_length_a	9.065215
_cell_length_b	16.109304
_cell_length_c	7.540329
_cell_angle_alpha	89.999220
_cell_angle_beta	89.997574
_cell_angle_gamma	84.238668
loop_
_atom_site_label
_atom_site_type_symbol
_atom_site_fract_x
_atom_site_fract_y
_atom_site_fract_z
O1	O	1.957454	0.121893	-0.147449
O2	O	1.527927	0.131895	-0.147456
O3	O	1.754487	0.005954	-0.147454
O4	O	1.730893	0.247835	-0.147452
O5	O	1.754474	0.005952	0.147511
O6	O	1.527913	0.131894	0.147509
O7	O	1.957440	0.121892	0.147516
Cu8	Cu	1.742675	0.126893	0.174445
Cu9	Cu	1.742691	0.126895	-0.174385
O10	O	1.730879	0.247833	0.147513
C11	C	1.472956	0.130934	0.000025
C12	C	1.309183	0.128061	0.000022
C13	C	1.753524	-0.025029	0.000025
C14	C	1.750657	-0.117346	0.000013
C15	C	1.744039	-0.329733	-0.160766
C16	C	1.741331	-0.416474	-0.160765
C17	C	1.741324	-0.416473	0.160823
C18	C	1.744021	-0.329733	0.160819
C19	C	1.745386	-0.286366	0.000019
C20	C	1.739981	-0.459847	0.000024
C21	C	1.737045	-0.553895	0.000027
C22	C	1.748320	-0.192311	0.000016
C23	C	2.012410	0.122853	0.000030
C24	C	2.176184	0.125726	0.000022
C25	C	1.731843	0.278816	0.000031
C26	C	1.734710	0.371133	0.000031
N27	N	1.742675	0.126891	0.419793
N28	N	1.742703	0.126890	-0.419734
H29	H	1.745146	-0.294426	-0.291700
F30	F	1.739894	-0.462625	-0.331895
F31	F	1.739870	-0.462635	0.331947
F32	F	1.745441	-0.283575	0.331958
