data_functionalizedCrystal
_audit_creation_method	'MofGen! by Chris Wilmer'
_symmetry_space_group_name_H-M	'P1'
_symmetry_Int_Tables_number	1
_symmetry_cell_setting	triclinic
loop_
_symmetry_equiv_pos_as_xyz
  x,y,z
_cell_length_a	10.723023
_cell_length_b	10.967829
_cell_length_c	9.798715
_cell_angle_alpha	77.868973
_cell_angle_beta	89.996770
_cell_angle_gamma	84.591615
loop_
_atom_site_label
_atom_site_type_symbol
_atom_site_fract_x
_atom_site_fract_y
_atom_site_fract_z
O1	O	1.657190	0.175021	-0.154635
O2	O	1.294038	0.191776	-0.158581
O3	O	1.483988	0.001821	-0.113899
O4	O	1.467239	0.364977	-0.199318
O5	O	1.483974	0.001820	0.113083
O6	O	1.294023	0.191775	0.068401
O7	O	1.657176	0.175021	0.072347
Zn8	Zn	1.475597	0.183398	0.106412
Zn9	Zn	1.475616	0.183399	-0.192647
O10	O	1.467225	0.364976	0.027665
C11	C	1.247531	0.190557	-0.044804
C12	C	1.108977	0.186909	-0.043948
C13	C	1.047197	0.185283	0.074017
C14	C	0.903994	0.181513	0.074904
C15	C	1.482761	-0.044680	0.010526
C16	C	1.479112	-0.183235	0.043108
C17	C	1.477493	-0.245001	-0.059952
C18	C	1.473721	-0.388205	-0.026280
C19	C	1.703683	0.176240	-0.041433
C20	C	1.842237	0.179888	-0.042298
C21	C	1.468452	0.411476	-0.096764
C22	C	1.472101	0.550032	-0.129354
N23	N	1.475594	0.183397	0.310512
N24	N	1.475630	0.183390	-0.396744
C25	C	1.555349	0.103289	0.397133
C26	C	1.555369	0.103284	0.554296
H27	H	1.100324	0.186674	0.174356
H28	H	1.407349	0.251982	0.528845
Br29	Br	1.361795	0.297699	0.380824
H30	H	1.478893	-0.191862	-0.173113
H31	H	1.472307	-0.441338	0.086888
H32	H	0.850864	0.180122	0.175898
H33	H	1.473492	-0.396835	-0.242524
H34	H	0.895357	0.181293	-0.143301
Br35	Br	1.476754	-0.271787	0.231724
H36	H	1.623655	0.034705	0.628713
Br37	Br	1.020445	0.184564	-0.211191
Br38	Br	1.668819	-0.011340	0.326898
