data_functionalizedCrystal
_audit_creation_method	'MofGen! by Chris Wilmer'
_symmetry_space_group_name_H-M	'P1'
_symmetry_Int_Tables_number	1
_symmetry_cell_setting	triclinic
loop_
_symmetry_equiv_pos_as_xyz
  x,y,z
_cell_length_a	10.654551
_cell_length_b	10.654541
_cell_length_c	9.730223
_cell_angle_alpha	89.999800
_cell_angle_beta	90.002278
_cell_angle_gamma	84.484600
loop_
_atom_site_label
_atom_site_type_symbol
_atom_site_fract_x
_atom_site_fract_y
_atom_site_fract_z
O1	O	1.667837	0.176396	0.114272
O2	O	1.302358	0.193201	0.114278
O3	O	1.493502	0.002059	0.114266
O4	O	1.476693	0.367538	0.114283
O5	O	1.493490	0.002070	-0.114313
O6	O	1.302346	0.193212	-0.114302
O7	O	1.667825	0.176407	-0.114308
Zn8	Zn	1.485083	0.184811	-0.150597
Zn9	Zn	1.485100	0.184797	0.150567
O10	O	1.476681	0.367549	-0.114296
C11	C	1.255554	0.191972	-0.000011
C12	C	1.116111	0.188280	-0.000009
C13	C	1.492263	-0.044734	-0.000023
C14	C	1.488572	-0.184177	-0.000020
C15	C	0.919573	0.183068	-0.124609
C16	C	1.050593	0.186548	-0.124610
C17	C	1.050601	0.186543	0.124601
C18	C	0.919582	0.183072	0.124600
C19	C	0.854063	0.181324	-0.249218
C20	C	0.919564	0.183062	-0.373828
C21	C	1.050584	0.186543	-0.373829
C22	C	1.116103	0.188285	-0.249219
C23	C	1.717136	-0.212148	-0.000042
C24	C	1.829679	-0.291641	-0.000055
C25	C	1.826204	-0.422659	-0.000051
C26	C	1.710173	-0.474185	-0.000029
C27	C	1.597630	-0.394691	-0.000015
C28	C	1.601118	-0.263672	-0.000024
C29	C	1.369068	-0.366721	0.000016
C30	C	1.372541	-0.235703	0.000002
C31	C	1.253037	-0.418247	0.000038
C32	C	1.140491	-0.338753	0.000041
C33	C	1.143972	-0.207727	0.000036
C34	C	1.259998	-0.156209	0.000015
C35	C	1.714629	0.177635	-0.000016
C36	C	1.854072	0.181328	-0.000009
C37	C	1.477920	0.414341	-0.000004
C38	C	1.481611	0.553785	0.000002
N39	N	1.485081	0.184820	-0.356133
C40	C	1.561910	0.261695	-0.428070
C41	C	1.561929	0.261671	-0.571953
C42	C	1.408279	0.107894	-0.571950
C43	C	1.408268	0.107912	-0.428069
C44	C	1.638724	0.338602	-0.356134
C45	C	1.715558	0.415484	-0.428071
C46	C	1.715577	0.415461	-0.571954
C47	C	1.638761	0.338555	-0.643900
N48	N	1.485111	0.184778	0.356103
H49	H	0.747380	0.178487	-0.249232
H50	H	1.778105	0.478091	-0.369483
H51	H	1.778147	0.478053	-0.630522
H52	H	1.222787	0.191133	-0.249229
H53	H	1.707353	-0.580868	-0.000009
H54	H	1.638795	0.338530	-0.761059
H55	H	1.262843	-0.049529	0.000002
H56	H	1.345738	0.045283	-0.630540
H57	H	1.924150	-0.249675	-0.000085
H58	H	1.103957	0.187961	0.226052
H59	H	1.638714	0.338633	-0.238978
H60	H	1.103910	0.187971	-0.475292
H61	H	1.917846	-0.487384	-0.000051
H62	H	1.046028	-0.380716	0.000068
H63	H	0.866208	0.181654	-0.475281
H64	H	0.866249	0.181659	0.226060
H65	H	1.719978	-0.105467	-0.000064
H66	H	1.250215	-0.524930	0.000050
H67	H	1.345705	0.045316	-0.369497
H68	H	1.052325	-0.143009	0.000053
