data_functionalizedCrystal
_audit_creation_method	'MofGen! by Chris Wilmer'
_symmetry_space_group_name_H-M	'P1'
_symmetry_Int_Tables_number	1
_symmetry_cell_setting	triclinic
loop_
_symmetry_equiv_pos_as_xyz
  x,y,z
_cell_length_a	10.654550
_cell_length_b	10.654550
_cell_length_c	9.730223
_cell_angle_alpha	89.999854
_cell_angle_beta	90.000043
_cell_angle_gamma	95.515070
loop_
_atom_site_label
_atom_site_type_symbol
_atom_site_fract_x
_atom_site_fract_y
_atom_site_fract_z
O1	O	-1.667839	0.176399	-0.114173
O2	O	-1.302361	0.193205	-0.114197
O3	O	-1.493503	0.002062	-0.114190
O4	O	-1.476697	0.367541	-0.114180
O5	O	-1.493490	0.002057	0.114390
O6	O	-1.302348	0.193199	0.114383
O7	O	-1.667827	0.176393	0.114407
Zn8	Zn	-1.485085	0.184796	0.150687
Zn9	Zn	-1.485102	0.184802	-0.150477
O10	O	-1.476684	0.367536	0.114400
C11	C	-1.255556	0.191968	0.000090
C12	C	-1.116113	0.188276	0.000080
C13	C	-1.492263	-0.044738	0.000095
C14	C	-1.488571	-0.184181	0.000082
C15	C	-1.714631	0.177630	0.000117
C16	C	-1.854074	0.181322	0.000118
C17	C	-1.036628	0.300818	0.000087
C18	C	-0.905607	0.297341	0.000111
C19	C	-0.933570	0.068772	0.000115
C20	C	-1.064588	0.072250	0.000101
N21	N	-1.485083	0.184790	0.356223
C22	C	-1.477925	0.414336	0.000112
C23	C	-1.481616	0.553779	0.000116
C24	C	-1.369075	0.633265	0.000105
C25	C	-1.372551	0.764286	0.000083
C26	C	-1.601121	0.736323	0.000089
C27	C	-1.597643	0.605304	0.000101
N28	N	-1.485114	0.184798	-0.356013
C29	C	-1.569750	0.100188	0.428152
C30	C	-1.569763	0.100189	0.572035
C31	C	-1.400438	0.269404	0.572048
C32	C	-1.400420	0.269396	0.428167
H33	H	-1.078574	0.395294	0.000080
C34	C	-1.661489	0.008191	0.650202
C35	C	-1.593940	-0.069341	0.732787
C36	C	-1.678397	-0.154120	0.804799
H37	H	-1.714193	0.053712	0.706435
H38	H	-1.711886	-0.042268	0.586787
H39	H	-1.543565	-0.018888	0.796195
H40	H	-1.541240	-0.114890	0.676589
H41	H	-1.728794	-0.204580	0.741384
H42	H	-1.731097	-0.108589	0.861024
H43	H	-1.632578	-0.206743	0.860832
C44	C	-1.661745	0.008496	0.349931
C45	C	-1.739221	0.076059	0.267295
C46	C	-1.823964	-0.008384	0.195220
H47	H	-1.616195	-0.044207	0.293727
H48	H	-1.712245	-0.041904	0.413308
H49	H	-1.688727	0.126437	0.203925
H50	H	-1.784799	0.128757	0.323465
H51	H	-1.874464	-0.058784	0.258598
H52	H	-1.778404	-0.061082	0.139024
H53	H	-1.876550	0.037445	0.139153
C54	C	-1.308468	0.361064	0.650342
C55	C	-1.231048	0.293449	0.732991
C56	C	-1.146324	0.377847	0.805147
H57	H	-1.257915	0.411484	0.587055
H58	H	-1.354073	0.413750	0.706536
H59	H	-1.185447	0.240785	0.676802
H60	H	-1.281566	0.243033	0.796304
H61	H	-1.191928	0.430534	0.861341
H62	H	-1.095780	0.428263	0.741850
H63	H	-1.093792	0.331983	0.861242
C64	C	-1.727178	0.792093	0.000294
C65	C	-1.795293	0.751767	0.117878
C66	C	-1.911432	0.803097	0.118107
H67	H	-1.713317	0.881504	0.000358
H68	H	-1.773631	0.764833	-0.079374
H69	H	-1.748850	0.779034	0.197526
H70	H	-1.809188	0.662362	0.117839
H71	H	-1.957885	0.775837	0.038438
H72	H	-1.897558	0.892507	0.118167
H73	H	-1.957667	0.775735	0.197878
C74	C	-1.308694	0.361325	0.349889
C75	C	-1.376249	0.438802	0.267244
C76	C	-1.291796	0.523483	0.195102
H77	H	-1.258247	0.411842	0.413184
H78	H	-1.256038	0.315688	0.293693
H79	H	-1.428883	0.484435	0.323435
H80	H	-1.426691	0.388320	0.203923
H81	H	-1.239140	0.477846	0.138906
H82	H	-1.241354	0.573991	0.258407
H83	H	-1.337619	0.576053	0.139009
H84	H	-0.840894	0.388984	0.000120
H85	H	-0.891602	-0.025693	0.000140
H86	H	-1.129309	-0.019401	0.000099
H87	H	-1.689294	0.540583	0.000104
C88	C	-1.243071	0.577391	-0.000180
C89	C	-1.174994	0.617662	-0.117807
C90	C	-1.058919	0.566208	-0.118131
H91	H	-1.196525	0.604579	0.079431
H92	H	-1.257062	0.487972	-0.000244
H93	H	-1.160999	0.707063	-0.117730
H94	H	-1.221502	0.590476	-0.197436
H95	H	-1.072910	0.476788	-0.118195
H96	H	-1.012384	0.593399	-0.038516
H97	H	-1.012719	0.593514	-0.197945
H98	H	-1.280908	0.828999	0.000073
