data_functionalizedCrystal
_audit_creation_method	'MofGen! by Chris Wilmer'
_symmetry_space_group_name_H-M	'P1'
_symmetry_Int_Tables_number	1
_symmetry_cell_setting	triclinic
loop_
_symmetry_equiv_pos_as_xyz
  x,y,z
_cell_length_a	10.723024
_cell_length_b	15.944493
_cell_length_c	9.198806
_cell_angle_alpha	90.002690
_cell_angle_beta	89.996352
_cell_angle_gamma	83.971457
loop_
_atom_site_label
_atom_site_type_symbol
_atom_site_fract_x
_atom_site_fract_y
_atom_site_fract_z
O1	O	1.655663	0.117811	-0.120862
O2	O	1.292365	0.129088	-0.120865
O3	O	1.483972	0.001228	-0.120876
O4	O	1.464055	0.245671	-0.120852
O5	O	1.483957	0.001228	0.120909
O6	O	1.292349	0.129088	0.120920
O7	O	1.655648	0.117811	0.120923
Cu8	Cu	1.473997	0.123449	0.142998
Cu9	Cu	1.474015	0.123450	-0.142941
O10	O	1.464040	0.245670	0.120933
C11	C	1.245868	0.128267	0.000027
C12	C	1.107346	0.125812	0.000025
C13	C	0.916575	0.049543	0.000014
C14	C	1.059746	0.052079	0.000017
C15	C	1.483151	-0.030071	0.000011
C16	C	1.480710	-0.123334	-0.000008
C17	C	1.593495	-0.358448	0.000021
C18	C	1.532682	-0.409364	-0.119192
C19	C	1.476188	-0.294081	0.000010
C20	C	1.532640	-0.409341	0.119189
C21	C	1.471829	-0.459015	0.000033
C22	C	1.415407	-0.343768	-0.119301
C23	C	1.415381	-0.343741	0.119187
C24	C	1.354482	-0.394625	-0.000054
C25	C	1.478703	-0.199066	-0.000005
C26	C	1.469305	-0.554027	0.000038
C27	C	1.702144	0.118632	0.000028
C28	C	1.840667	0.121087	0.000020
C29	C	1.464862	0.276970	0.000044
C30	C	1.467302	0.370233	0.000053
N31	N	1.473994	0.123448	0.344112
N32	N	1.474029	0.123444	-0.344055
C33	C	1.554447	0.069527	0.416305
C34	C	1.554467	0.069524	0.583717
H35	H	1.042128	0.187062	0.000024
H36	H	1.582228	-0.438026	-0.219978
F37	F	0.862986	-0.032973	0.000015
F38	F	1.383997	0.183792	0.574812
H39	H	1.405124	0.169607	0.406244
F40	F	1.644240	0.009039	0.335100
H41	H	1.694540	-0.342241	-0.000098
H42	H	0.881672	0.184215	0.000036
H43	H	1.365901	-0.315232	-0.220193
F44	F	1.222308	-0.415600	-0.000136
F45	F	1.144996	-0.027978	-0.000001
H46	H	1.623351	0.023363	0.645800
F47	F	1.597413	-0.446783	0.250916
H48	H	1.365877	-0.315064	0.219977
