data_functionalizedCrystal
_audit_creation_method	'MofGen! by Chris Wilmer'
_symmetry_space_group_name_H-M	'P1'
_symmetry_Int_Tables_number	1
_symmetry_cell_setting	triclinic
loop_
_symmetry_equiv_pos_as_xyz
  x,y,z
_cell_length_a	12.759401
_cell_length_b	16.625546
_cell_length_c	12.759393
_cell_angle_alpha	89.963806
_cell_angle_beta	89.981433
_cell_angle_gamma	90.021512
loop_
_atom_site_label
_atom_site_type_symbol
_atom_site_fract_x
_atom_site_fract_y
_atom_site_fract_z
Zn1	Zn	1.606199	-0.320975	-0.593950
Zn2	Zn	1.606069	-0.455831	-0.418255
Zn3	Zn	1.430501	-0.321014	-0.418289
Zn4	Zn	1.430465	-0.455767	-0.593897
O5	O	1.518308	-0.388397	-0.506098
O6	O	1.753202	-0.338874	-0.570651
O7	O	1.582740	-0.437991	-0.271239
O8	O	1.453876	-0.208177	-0.441627
O9	O	1.753107	-0.437953	-0.441570
O10	O	1.582961	-0.208147	-0.570684
O11	O	1.453751	-0.338942	-0.271263
O12	O	1.283475	-0.338879	-0.441575
O13	O	1.453816	-0.437843	-0.740925
O14	O	1.283449	-0.437881	-0.570594
O15	O	1.582927	-0.338811	-0.740964
O16	O	1.582706	-0.568655	-0.441519
O17	O	1.453691	-0.568608	-0.570561
C18	C	1.245341	-0.388378	-0.506083
C19	C	1.128564	-0.388389	-0.506102
C20	C	1.518209	-0.597888	-0.506054
C21	C	1.518263	-0.687509	-0.506070
C22	C	1.073745	-0.336896	-0.573419
C23	C	0.964021	-0.336912	-0.573425
C24	C	0.963945	-0.439920	-0.438795
C25	C	1.073668	-0.439900	-0.438784
C26	C	1.073788	-0.277428	-0.651150
C27	C	0.964064	-0.277443	-0.651156
C28	C	1.518446	-1.015684	-0.506179
C29	C	1.518392	-0.924376	-0.506152
C30	C	1.518353	-0.851599	-0.506124
C31	C	1.518301	-0.760285	-0.506098
C32	C	1.792342	-0.388416	-0.506113
C33	C	1.909118	-0.388425	-0.506119
C34	C	1.518382	-0.388315	-0.780131
C35	C	1.518413	-0.388281	-0.896908
C36	C	1.518437	-0.178088	-0.506165
C37	C	1.518492	-0.088467	-0.506193
C38	C	1.585650	-0.336710	-0.951792
C39	C	1.585675	-0.336681	-1.061516
C40	C	1.451223	-0.439800	-1.061462
C41	C	1.451194	-0.439824	-0.951740
C42	C	1.663279	-0.277178	-0.951823
C43	C	1.663304	-0.277149	-1.061548
C44	C	1.518296	-0.388420	-0.233130
C45	C	1.518468	-0.388227	-0.116354
H46	H	1.118297	-0.481823	-0.383958
N47	N	0.907884	-0.492548	-0.370040
N48	N	0.956846	-0.538523	-0.309943
H49	H	0.917256	-0.575694	-0.261383
H50	H	1.641521	-0.214734	-0.922074
H51	H	1.103566	-0.214954	-0.629502
N52	N	1.760212	-0.305264	-0.909130
N53	N	1.832827	-0.326275	-0.968911
H54	H	1.901286	-0.346114	-0.938759
H55	H	1.396493	-0.481763	-1.106120
H56	H	1.634200	-0.217817	-1.095602
N57	N	0.926717	-0.298537	-0.753172
N58	N	0.830404	-0.302118	-0.770445
H59	H	0.804026	-0.317016	-0.842490
N60	N	1.382491	-0.492496	-0.895693
N61	N	1.322481	-0.538509	-0.944667
H62	H	1.273955	-0.575710	-0.905084
N63	N	1.765376	-0.298113	-1.098919
N64	N	1.842669	-0.255630	-1.075273
H65	H	1.914755	-0.270432	-1.101669
H66	H	1.107849	-0.299862	-0.728385
N67	N	0.921378	-0.202998	-0.614768
N68	N	0.981166	-0.147234	-0.587514
H69	H	0.951019	-0.094660	-0.561810
