data_functionalizedCrystal
_audit_creation_method	'MofGen! by Chris Wilmer'
_symmetry_space_group_name_H-M	'P1'
_symmetry_Int_Tables_number	1
_symmetry_cell_setting	triclinic
loop_
_symmetry_equiv_pos_as_xyz
  x,y,z
_cell_length_a	16.992694
_cell_length_b	22.010155
_cell_length_c	23.532407
_cell_angle_alpha	89.995744
_cell_angle_beta	93.241514
_cell_angle_gamma	90.003362
loop_
_atom_site_label
_atom_site_type_symbol
_atom_site_fract_x
_atom_site_fract_y
_atom_site_fract_z
O1	O	1.039457	0.050468	-0.120707
O2	O	1.539457	0.550468	0.379293
O3	O	0.811182	0.050486	-0.119383
O4	O	1.311182	0.550486	0.380617
O5	O	0.932203	0.050460	-0.037455
O6	O	1.432203	0.550460	0.462545
O7	O	0.918436	0.050495	-0.202635
O8	O	1.418436	0.550495	0.297365
O9	O	0.932181	-0.050591	-0.037467
O10	O	1.432181	0.449409	0.462533
O11	O	0.811160	-0.050564	-0.119395
O12	O	1.311160	0.449436	0.380605
O13	O	1.039435	-0.050582	-0.120719
O14	O	1.539435	0.449418	0.379281
Cu15	Cu	0.925296	-0.059800	-0.120058
Cu16	Cu	1.425296	0.440200	0.379942
Cu17	Cu	0.925321	0.059704	-0.120044
Cu18	Cu	1.425321	0.559704	0.379956
O19	O	0.918414	-0.050556	-0.202647
O20	O	1.418414	0.449444	0.297353
C21	C	0.781972	-0.000037	-0.117685
C22	C	1.281972	0.499963	0.382315
C23	C	0.694967	-0.000031	-0.112602
C24	C	1.194967	0.499969	0.387398
N25	N	0.925283	-0.143852	-0.120068
N26	N	1.425283	0.356148	0.379932
C27	C	0.644345	-0.000021	-0.161648
C28	C	1.144345	0.499979	0.338352
C29	C	0.562595	-0.000031	-0.156869
C30	C	1.062595	0.499969	0.343131
C31	C	0.531470	-0.000046	-0.103042
C32	C	1.031470	0.499954	0.396958
C33	C	0.582099	-0.000058	-0.053992
C34	C	1.082099	0.499942	0.446008
C35	C	0.663847	-0.000052	-0.058773
C36	C	1.163847	0.499948	0.441227
C37	C	0.288027	-0.000066	-0.083231
C38	C	0.788027	0.499934	0.416769
C39	C	0.206272	-0.000069	-0.078454
C40	C	0.706272	0.499931	0.421546
C41	C	0.186774	-0.000044	-0.181331
C42	C	0.686774	0.499956	0.318669
C43	C	0.268525	-0.000035	-0.186106
C44	C	0.768525	0.499965	0.313894
C45	C	0.319146	-0.000050	-0.137056
C46	C	0.819146	0.499950	0.362944
N47	N	0.447909	-0.000053	-0.098156
N48	N	0.947909	0.499947	0.401844
N49	N	0.402705	-0.000047	-0.141944
N50	N	0.902705	0.499953	0.358056
C51	C	0.978913	-0.563643	-0.083772
C52	C	1.478913	-0.063643	0.416228
C53	C	0.978916	-0.627251	-0.083768
C54	C	1.478916	-0.127251	0.416232
O55	O	1.024483	-0.660152	-0.052914
O56	O	1.524483	-0.160152	0.447086
N57	N	0.925321	-0.659059	-0.120032
N58	N	1.425321	-0.159059	0.379968
C59	C	0.871713	-0.627257	-0.156298
C60	C	1.371713	-0.127257	0.343702
O61	O	0.826126	-0.660153	-0.187143
O62	O	1.326126	-0.160153	0.312857
C63	C	0.871707	-0.563651	-0.156298
C64	C	1.371707	-0.063651	0.343702
C65	C	0.925311	-0.531845	-0.120036
C66	C	1.425311	-0.031845	0.379964
C67	C	1.032512	-0.531838	-0.047512
C68	C	1.532512	-0.031838	0.452488
C69	C	1.032509	-0.468235	-0.047517
C70	C	1.532509	0.031765	0.452483
C71	C	0.978907	-0.436437	-0.083781
C72	C	1.478907	0.063563	0.416219
C73	C	0.925308	-0.468242	-0.120041
C74	C	1.425308	0.031758	0.379959
C75	C	0.818096	-0.531849	-0.192561
C76	C	1.318096	-0.031849	0.307439
C77	C	0.818093	-0.468238	-0.192558
C78	C	1.318093	0.031762	0.307442
C79	C	0.871697	-0.436433	-0.156296
C80	C	1.371697	0.063567	0.343704
C81	C	0.871703	-0.372841	-0.156310
C82	C	1.371703	0.127159	0.343690
N83	N	0.925298	-0.341033	-0.120046
N84	N	1.425298	0.158967	0.379954
C85	C	0.978900	-0.372831	-0.083782
C86	C	1.478900	0.127169	0.416218
C87	C	0.871731	-0.760835	-0.156294
C88	C	1.371731	-0.260835	0.343706
C89	C	0.871741	-0.824440	-0.156297
C90	C	1.371741	-0.324440	0.343703
C91	C	0.978943	-0.824430	-0.083766
C92	C	1.478943	-0.324430	0.416234
C93	C	0.978936	-0.760823	-0.083766
C94	C	1.478936	-0.260823	0.416234
C95	C	0.925326	-0.729026	-0.120030
C96	C	1.425326	-0.229026	0.379970
C97	C	0.978890	-0.239259	-0.083795
C98	C	1.478890	0.260741	0.416205
C99	C	0.978885	-0.175650	-0.083804
C100	C	1.478885	0.324350	0.416196
C101	C	0.871680	-0.175666	-0.156332
C102	C	1.371680	0.324334	0.343668
C103	C	0.871688	-0.239270	-0.156325
C104	C	1.371688	0.260730	0.343675
C105	C	0.925296	-0.271064	-0.120052
C106	C	1.425296	0.228936	0.379948
O107	O	0.826158	-0.339899	-0.187147
O108	O	1.326158	0.160101	0.312853
O109	O	1.024473	-0.339927	-0.052937
O110	O	1.524473	0.160073	0.447063
C111	C	1.068645	-0.000058	-0.122417
C112	C	1.568645	0.499942	0.377583
C113	C	1.155650	-0.000059	-0.127500
C114	C	1.655650	0.499941	0.372500
C115	C	0.931841	-0.000069	-0.016228
C116	C	1.431841	0.499931	0.483772
C117	C	0.930787	-0.000078	0.047042
C118	C	1.430787	0.499922	0.547042
N119	N	0.925340	0.143756	-0.120030
N120	N	1.425340	0.643756	0.379970
C121	C	0.918776	-0.000026	-0.223875
C122	C	1.418776	0.499974	0.276125
C123	C	0.919830	-0.000013	-0.287144
C124	C	1.419830	0.499987	0.212856
C125	C	0.854823	-0.000034	0.316979
C126	C	1.354823	0.499966	0.816979
C127	C	0.855802	-0.000039	0.257530
C128	C	1.355802	0.499961	0.757530
O129	O	0.795540	-0.000015	0.223776
O130	O	1.295540	0.499985	0.723776
N131	N	0.927749	-0.000051	0.231333
N132	N	1.427749	0.499949	0.731333
C133	C	0.998722	-0.000053	0.264589
C134	C	1.498722	0.499947	0.764589
O135	O	1.060008	-0.000063	0.236848
O136	O	1.560008	0.499937	0.736848
C137	C	0.997742	-0.000044	0.324037
C138	C	1.497742	0.499956	0.824037
C139	C	0.925790	-0.000037	0.350230
C140	C	1.425790	0.499963	0.850230
C141	C	0.782877	-0.000027	0.343172
C142	C	1.282877	0.499973	0.843172
C143	C	0.781898	-0.000023	0.402617
C144	C	1.281898	0.499977	0.902617
C145	C	0.852865	-0.000027	0.435868
C146	C	1.352865	0.499973	0.935868
C147	C	0.924811	-0.000034	0.409675
C148	C	1.424811	0.499966	0.909675
C149	C	1.068713	-0.000041	0.357291
C150	C	1.568713	0.499959	0.857291
C151	C	1.067727	-0.000032	0.416743
C152	C	1.567727	0.499968	0.916743
C153	C	0.995775	-0.000025	0.442936
C154	C	1.495775	0.499975	0.942936
C155	C	0.994799	-0.000034	0.502371
C156	C	1.494799	0.499966	1.002371
N157	N	0.922852	-0.000021	0.528567
N158	N	1.422852	0.499979	1.028567
C159	C	0.851885	-0.000018	0.495316
C160	C	1.351885	0.499982	0.995316
C161	C	1.000774	-0.000071	0.139745
C162	C	1.500774	0.499929	0.639745
C163	C	1.001755	-0.000084	0.080298
C164	C	1.501755	0.499916	0.580298
C165	C	0.858835	-0.000069	0.073243
C166	C	1.358835	0.499931	0.573243
C167	C	0.857855	-0.000060	0.132691
C168	C	1.357855	0.499940	0.632691
C169	C	0.928827	-0.000058	0.165941
C170	C	1.428827	0.499942	0.665941
C171	C	0.849835	-0.000011	0.620154
C172	C	1.349835	0.499989	1.120154
C173	C	0.848863	-0.000010	0.679605
C174	C	1.348863	0.499990	1.179605
C175	C	0.991782	-0.000022	0.686655
C176	C	1.491782	0.499978	1.186655
C177	C	0.992755	-0.000026	0.627210
C178	C	1.492755	0.499974	1.127210
C179	C	0.921775	-0.000018	0.593960
C180	C	1.421775	0.499982	1.093960
O181	O	1.055029	-0.000055	0.536161
O182	O	1.555029	0.499945	1.036161
O183	O	0.790609	0.000001	0.523064
O184	O	1.290609	0.500001	1.023064
H185	H	0.669680	-0.000009	-0.205480
H186	H	1.169680	0.499991	0.294520
H187	H	0.828047	-0.265166	-0.185859
H188	H	1.328047	0.234834	0.314141
Cl189	Cl	0.123132	-0.000027	-0.242990
Cl190	Cl	0.623132	0.499973	0.257010
Cl191	Cl	0.760602	-0.000003	0.578365
Cl192	Cl	1.260602	0.499997	1.078365
Cl193	Cl	0.498958	-0.000014	-0.218530
Cl194	Cl	0.998958	0.499986	0.281470
H195	H	0.705063	-0.000060	-0.018834
H196	H	1.205063	0.499940	0.481166
H197	H	0.180934	-0.000081	-0.034620
H198	H	0.680934	0.499919	0.465380
Cl199	Cl	1.046279	-0.135670	-0.038215
Cl200	Cl	1.546279	0.364330	0.461785
H201	H	1.051344	-0.000040	0.605882
H202	H	1.551344	0.499960	1.105882
H203	H	0.774435	-0.442352	-0.222087
H204	H	1.274435	0.057648	0.277913
H205	H	1.022542	-0.265140	-0.054257
H206	H	1.522542	0.234860	0.445743
H207	H	1.022588	-0.850331	-0.054237
H208	H	1.522588	-0.350331	0.445763
Cl209	Cl	0.307647	-0.000012	-0.253777
Cl210	Cl	0.807647	0.499988	0.246223
H211	H	1.076156	-0.442343	-0.017988
H212	H	1.576156	0.057657	0.482012
Cl213	Cl	1.099906	-0.571802	-0.001917
Cl214	Cl	1.599906	-0.071802	0.498083
Cl215	Cl	0.351655	-0.000084	-0.021567
Cl216	Cl	0.851655	0.499916	0.478433
H217	H	0.556750	-0.000078	-0.010166
H218	H	1.056750	0.499922	0.489834
Cl219	Cl	1.046325	-0.720847	-0.038177
Cl220	Cl	1.546325	-0.220847	0.461823
Cl221	Cl	1.156955	-0.000028	0.458540
Cl222	Cl	1.656955	0.499972	0.958540
H223	H	1.127304	-0.000046	0.335976
H224	H	1.627304	0.499954	0.835976
H225	H	0.828100	-0.850331	-0.185831
H226	H	1.328100	-0.350331	0.314169
H227	H	0.828077	-0.734949	-0.185828
H228	H	1.328077	-0.234949	0.314172
Cl229	Cl	0.804298	-0.135682	-0.201920
Cl230	Cl	1.304298	0.364318	0.298080
H231	H	0.790268	-0.000007	0.700928
H232	H	1.290268	0.499993	1.200928
H233	H	0.774446	-0.557736	-0.222088
H234	H	1.274446	-0.057736	0.277912
H235	H	0.723308	-0.000013	0.423938
H236	H	1.223308	0.499987	0.923938
H237	H	0.725084	-0.000022	0.316105
H238	H	1.225084	0.499978	0.816105
H239	H	0.799266	-0.000057	0.154013
H240	H	1.299266	0.499943	0.654013
H241	H	0.801050	-0.000067	0.046159
H242	H	1.301050	0.499933	0.546159
H243	H	1.060345	-0.000099	0.058977
H244	H	1.560345	0.499901	0.558977
H245	H	1.058572	-0.000074	0.166814
H246	H	1.558572	0.499926	0.666814
H247	H	1.049561	-0.000027	0.713738
H248	H	1.549561	0.499973	1.213738
