data_functionalizedCrystal
_audit_creation_method	'MofGen! by Chris Wilmer'
_symmetry_space_group_name_H-M	'P1'
_symmetry_Int_Tables_number	1
_symmetry_cell_setting	triclinic
loop_
_symmetry_equiv_pos_as_xyz
  x,y,z
_cell_length_a	14.421503
_cell_length_b	11.792241
_cell_length_c	11.792241
_cell_angle_alpha	84.193416
_cell_angle_beta	90.004173
_cell_angle_gamma	89.996519
loop_
_atom_site_label
_atom_site_type_symbol
_atom_site_fract_x
_atom_site_fract_y
_atom_site_fract_z
O1	O	0.077022	-1.506916	-0.155552
O2	O	0.077044	-1.176575	-0.171585
O3	O	0.077026	-1.349761	0.001602
O4	O	0.077040	-1.333729	-0.328739
O5	O	-0.077198	-1.349733	0.001576
O6	O	-0.077180	-1.176546	-0.171611
O7	O	-0.077201	-1.506887	-0.155578
Cu8	Cu	-0.091272	-1.341714	-0.163597
Cu9	Cu	0.091115	-1.341748	-0.163566
O10	O	-0.077184	-1.333700	-0.328765
C11	C	-0.000065	-1.134269	-0.170591
C12	C	-0.000057	-1.008255	-0.167576
N13	N	-0.219554	-1.341698	-0.163618
C14	C	-0.000086	-1.348740	0.043880
C15	C	-0.000084	-1.345726	0.169894
C16	C	-0.469199	-1.261602	-0.243663
C17	C	-0.531008	-1.364297	-0.266324
C18	C	-0.408715	-1.341726	-0.163591
C19	C	-0.531001	-1.239057	-0.140956
C20	C	-0.591437	-1.341743	-0.163567
C21	C	-0.469163	-1.444473	-0.186303
C22	C	-0.469150	-1.319165	-0.060891
C23	C	-0.530931	-1.421934	-0.083508
C24	C	-0.303454	-1.341714	-0.163607
C25	C	-0.696695	-1.341766	-0.163550
N26	N	0.219396	-1.341772	-0.163537
C27	C	-0.000090	-1.549192	-0.156572
C28	C	-0.000092	-1.675206	-0.159587
C29	C	-0.000084	-0.777543	-0.162034
C30	C	-0.000069	-0.905928	-0.165113
C31	C	-0.000070	-1.334721	-0.371043
C32	C	-0.000065	-1.337736	-0.497057
C33	C	-0.000069	-1.340183	0.400606
C34	C	-0.000077	-1.343262	0.272221
H35	H	-0.442094	-1.193914	-0.311433
H36	H	-0.557866	-1.489774	-0.015780
Br37	Br	-0.576293	-1.396135	-0.411062
H38	H	-0.441959	-1.300034	0.025923
H39	H	-0.442114	-1.531325	-0.205540
H40	H	-0.558166	-1.152225	-0.121823
