data_functionalizedCrystal
_audit_creation_method	'MofGen! by Chris Wilmer'
_symmetry_space_group_name_H-M	'P1'
_symmetry_Int_Tables_number	1
_symmetry_cell_setting	triclinic
loop_
_symmetry_equiv_pos_as_xyz
  x,y,z
_cell_length_a	10.654551
_cell_length_b	10.654549
_cell_length_c	9.730223
_cell_angle_alpha	89.997731
_cell_angle_beta	89.997362
_cell_angle_gamma	84.485103
loop_
_atom_site_label
_atom_site_type_symbol
_atom_site_fract_x
_atom_site_fract_y
_atom_site_fract_z
O1	O	0.176396	1.667840	-0.114252
O2	O	0.193203	1.302362	-0.114262
O3	O	0.002060	1.493503	-0.114254
O4	O	0.367539	1.476699	-0.114260
O5	O	0.002055	1.493491	0.114326
O6	O	0.193198	1.302349	0.114318
O7	O	0.176391	1.667828	0.114328
Zn8	Zn	0.184793	1.485087	0.150615
Zn9	Zn	0.184800	1.485103	-0.150549
O10	O	0.367533	1.476686	0.114320
C11	C	0.191966	1.255557	0.000027
C12	C	0.188275	1.116114	0.000024
C13	C	-0.044740	1.492263	0.000034
C14	C	-0.184183	1.488570	0.000027
C15	C	0.297338	0.905600	0.000027
C16	C	0.300816	1.036621	0.000019
C17	C	0.072247	1.064581	0.000023
C18	C	0.068770	0.933563	0.000021
C19	C	0.442867	1.198883	-0.080067
C20	C	0.558892	1.250411	-0.080047
C21	C	0.658663	1.195542	0.000048
C22	C	0.642414	1.089146	0.080156
C23	C	0.526387	1.037624	0.080147
C24	C	0.426621	1.092491	0.000021
C25	C	-0.073273	0.771297	0.080119
C26	C	-0.189301	0.719773	0.080120
C27	C	-0.289083	0.774642	0.000034
C28	C	-0.272846	0.881044	-0.080053
C29	C	-0.156818	0.932567	-0.080055
C30	C	-0.057036	0.877690	0.000029
C31	C	-0.249684	1.486844	-0.124573
C32	C	-0.380705	1.483364	-0.124574
C33	C	-0.380712	1.483342	0.124636
C34	C	-0.249693	1.486813	0.124636
C35	C	-0.550773	1.405181	-0.274274
C36	C	-0.616281	1.403476	-0.398881
C37	C	-0.582739	1.478075	-0.508890
C38	C	-0.483693	1.554409	-0.494297
C39	C	-0.418193	1.556125	-0.369688
C40	C	-0.451731	1.481497	-0.259684
C41	C	-0.079623	1.565007	0.274328
C42	C	-0.014122	1.566732	0.398938
C43	C	-0.047663	1.492140	0.508958
C44	C	-0.146715	1.415825	0.494379
C45	C	-0.212216	1.414100	0.369769
C46	C	-0.178666	1.488689	0.259748
C47	C	0.414334	1.477927	0.000029
C48	C	0.553777	1.481619	0.000026
C49	C	0.177628	1.714632	0.000036
C50	C	0.181319	1.854075	0.000030
N51	N	0.184788	1.485085	0.356151
N52	N	0.184796	1.485115	-0.356085
C53	C	0.100186	1.569751	0.428081
C54	C	0.100187	1.569764	0.571964
C55	C	0.269402	1.400439	0.571975
C56	C	0.269394	1.400421	0.428095
H57	H	0.388983	0.840884	0.000034
H58	H	0.031295	1.638705	0.630525
H59	H	-0.196350	1.488271	-0.226037
H60	H	-0.174002	1.355059	0.583954
Cl61	Cl	0.505954	0.903879	0.180844
H62	H	-0.052293	1.625738	0.184739
Cl63	Cl	0.375764	1.294015	0.662425
Cl64	Cl	-0.441546	1.648211	-0.632597
Cl65	Cl	0.767845	1.020184	0.180868
Cl66	Cl	0.804520	1.260324	0.000071
Cl67	Cl	0.579318	1.384160	-0.180754
Cl68	Cl	-0.293688	1.652078	-0.351335
Cl69	Cl	-0.069235	1.164517	0.000025
Cl70	Cl	-0.434954	0.709876	0.000054
Cl71	Cl	0.052171	0.702310	0.180806
Cl72	Cl	0.317452	1.267849	-0.180799
Cl73	Cl	-0.136407	1.066335	-0.180735
H74	H	-0.292867	1.351952	0.357903
H75	H	-0.202524	0.633152	0.145362
Cl76	Cl	-0.398291	0.950033	-0.180731
H77	H	-0.636084	1.476685	-0.610348
Cl78	Cl	-0.740787	1.307512	-0.417226
Cl79	Cl	-0.592932	1.311369	-0.135987
Cl80	Cl	0.375753	1.293969	0.337660
Cl81	Cl	-0.463076	1.481133	0.281278
Cl82	Cl	0.034672	1.494325	0.665620
Cl83	Cl	0.110390	1.662688	0.417272
Cl84	Cl	-0.006181	1.676180	0.337643
