data_functionalizedCrystal
_audit_creation_method	'MofGen! by Chris Wilmer'
_symmetry_space_group_name_H-M	'P1'
_symmetry_Int_Tables_number	1
_symmetry_cell_setting	triclinic
loop_
_symmetry_equiv_pos_as_xyz
  x,y,z
_cell_length_a	6.817900
_cell_length_b	19.551823
_cell_length_c	9.514088
_cell_angle_alpha	92.277325
_cell_angle_beta	118.843545
_cell_angle_gamma	101.663376
loop_
_atom_site_label
_atom_site_type_symbol
_atom_site_fract_x
_atom_site_fract_y
_atom_site_fract_z
V1	V	-4.208673	-0.097915	-0.501504
O2	O	-4.201670	0.003431	-0.491184
O3	O	-4.150342	-0.192924	-0.498817
O4	O	-4.243536	-0.096969	-0.719888
O5	O	-4.107831	-0.093189	-0.268583
V6	V	-4.682799	-0.085727	-0.473554
O7	O	-4.490545	-0.124651	-0.562813
O8	O	-4.851125	-0.058991	-0.412245
O9	O	-4.517924	0.009281	-0.476241
O10	O	-4.807199	-0.187073	-0.483873
O11	O	-4.901039	-0.090454	-0.706475
O12	O	-4.424730	-0.086674	-0.255170
C13	C	-3.990233	-0.216068	-0.491097
C14	C	-4.024381	-0.293742	-0.490356
C15	C	-4.225252	-0.333807	-0.498039
C16	C	-4.257350	-0.406791	-0.497359
C17	C	-4.088544	-0.439705	-0.488963
C18	C	-3.887651	-0.399632	-0.481288
C19	C	-3.855569	-0.326650	-0.481985
C20	C	-3.936486	-0.545941	-0.387121
C21	C	-3.968567	-0.618921	-0.386415
C22	C	-4.187490	-0.664806	-0.486822
C23	C	-4.374347	-0.637701	-0.587916
C24	C	-4.342266	-0.564719	-0.588613
C25	C	-4.123310	-0.518842	-0.488208
C26	C	-4.423178	-0.784009	-0.493771
C27	C	-4.455275	-0.856996	-0.493101
C28	C	-4.085560	-0.849834	-0.477013
C29	C	-4.053479	-0.776850	-0.477700
C30	C	-4.222291	-0.743942	-0.486072
C31	C	-4.109110	-0.093666	-0.773093
C32	C	-4.218832	-0.093521	-0.951628
C33	C	-4.341374	0.032421	-0.483956
C34	C	-4.286467	0.110095	-0.484708
C35	C	-4.222495	-0.089979	-0.201957
C36	C	-4.092011	-0.090121	-0.023420
H37	H	-4.420928	-0.439418	-0.503615
H38	H	-4.560634	-0.757214	-0.500585
H39	H	-4.618859	-0.889616	-0.499368
H40	H	-3.816419	-0.640983	-0.304088
C41	C	-3.770102	-0.087260	-0.758867
C42	C	-3.832132	-0.086367	-0.922030
H43	H	-3.609659	-0.084945	-0.696271
H44	H	-3.856942	-0.129689	-0.749851
H45	H	-3.801604	-0.047742	-0.719819
H46	H	-3.800646	-0.125888	-0.961083
H47	H	-3.745264	-0.043933	-0.931055
C48	C	-4.525216	-0.039064	-0.995452
C49	C	-4.478745	-0.097302	-1.053025
H50	H	-4.685676	-0.041404	-1.058045
H51	H	-4.438445	0.003366	-1.004520
H52	H	-4.483074	-0.039668	-0.884748
H53	H	-4.520871	-0.096695	-1.163726
H54	H	-4.565546	-0.139743	-1.043971
C55	C	-4.498376	-0.498832	-0.807713
C56	C	-4.547633	-0.534922	-0.699738
H57	H	-4.625157	-0.480433	-0.876312
H58	H	-4.473193	-0.530511	-0.872058
H59	H	-4.363389	-0.461068	-0.747992
H60	H	-4.682611	-0.572690	-0.759459
H61	H	-4.572845	-0.503241	-0.635386
H62	H	-3.691995	-0.294030	-0.475729
C63	C	-3.538615	-0.534706	-0.187829
C64	C	-3.695833	-0.495507	-0.276727
H65	H	-3.390060	-0.503569	-0.119672
H66	H	-3.530254	-0.567153	-0.260548
H67	H	-3.588896	-0.559972	-0.122956
H68	H	-3.645562	-0.470245	-0.341610
H69	H	-3.704188	-0.463048	-0.203999
C70	C	-3.492497	-0.406241	-0.328581
C71	C	-3.702086	-0.435807	-0.472053
H72	H	-3.377936	-0.428572	-0.322892
H73	H	-3.512728	-0.413060	-0.237647
H74	H	-3.444672	-0.357042	-0.327919
H75	H	-3.749921	-0.485005	-0.472710
H76	H	-3.681857	-0.428995	-0.563011
H77	H	-4.552517	-0.675071	-0.669899
C78	C	-4.313783	-0.246142	-0.369377
C79	C	-4.410827	-0.297639	-0.507259
H80	H	-4.428360	-0.223818	-0.375071
H81	H	-4.189584	-0.211834	-0.364911
H82	H	-4.257624	-0.267854	-0.274638
H83	H	-4.466971	-0.275926	-0.601998
H84	H	-4.535068	-0.331953	-0.511742
H85	H	-3.889903	-0.744228	-0.471433
C86	C	-3.970565	-0.958525	-0.468787
C87	C	-3.899992	-0.886005	-0.467777
H88	H	-3.855993	-0.980855	-0.463078
H89	H	-4.112738	-0.978568	-0.566115
H90	H	-3.990788	-0.965333	-0.377833
H91	H	-3.879786	-0.879197	-0.558739
H92	H	-3.757779	-0.865956	-0.370439
