data_functionalizedCrystal
_audit_creation_method	'MofGen! by Chris Wilmer'
_symmetry_space_group_name_H-M	'P1'
_symmetry_Int_Tables_number	1
_symmetry_cell_setting	triclinic
loop_
_symmetry_equiv_pos_as_xyz
  x,y,z
_cell_length_a	15.944493
_cell_length_b	17.038274
_cell_length_c	15.021413
_cell_angle_alpha	90.003767
_cell_angle_beta	89.993251
_cell_angle_gamma	92.706585
loop_
_atom_site_label
_atom_site_type_symbol
_atom_site_fract_x
_atom_site_fract_y
_atom_site_fract_z
O1	O	1.121743	-0.100610	-0.074037
O2	O	1.621743	0.399390	0.425963
O3	O	0.878078	-0.113089	-0.074043
O4	O	1.378078	0.386911	0.425957
O5	O	0.998462	0.006966	-0.074015
O6	O	1.498462	0.506966	0.425985
O7	O	1.001359	-0.220665	-0.074064
O8	O	1.501359	0.279335	0.425936
O9	O	0.998443	0.006949	0.074049
O10	O	1.498443	0.506949	0.574049
O11	O	0.878058	-0.113106	0.074021
O12	O	1.378058	0.386894	0.574021
O13	O	1.121724	-0.100627	0.074028
O14	O	1.621724	0.399373	0.574028
Zn15	Zn	0.999888	-0.106869	0.097533
Zn16	Zn	1.499888	0.393131	0.597533
Zn17	Zn	0.999913	-0.106847	-0.097548
Zn18	Zn	1.499913	0.393153	0.402452
O19	O	1.001339	-0.220682	0.074000
O20	O	1.501339	0.279318	0.574000
C21	C	0.846737	-0.112588	-0.000011
C22	C	1.346737	0.387412	0.499989
C23	C	0.753379	-0.111059	-0.000013
C24	C	1.253379	0.388941	0.499987
C25	C	0.522665	-0.181726	-0.000029
C26	C	1.022665	0.318274	0.499971
C27	C	0.469376	-0.143626	0.072987
C28	C	0.969376	0.356374	0.572987
C29	C	0.582456	-0.108225	-0.000010
C30	C	1.082456	0.391775	0.499990
C31	C	0.469398	-0.143592	-0.072993
C32	C	0.969398	0.356408	0.427007
C33	C	0.417351	-0.105494	-0.000012
C34	C	0.917351	0.394506	0.499988
C35	C	0.530397	-0.070145	0.073065
C36	C	1.030397	0.429855	0.573065
C37	C	0.530423	-0.070122	-0.072980
C38	C	1.030423	0.429878	0.427020
C39	C	0.477163	-0.031968	0.000053
C40	C	0.977163	0.468032	0.500053
C41	C	0.677568	-0.109801	-0.000009
C42	C	1.177568	0.390199	0.499991
C43	C	0.322241	-0.103912	-0.000007
C44	C	0.822241	0.396088	0.499993
C45	C	0.995818	0.036086	0.000021
C46	C	1.495818	0.536086	0.500021
C47	C	0.987958	0.122880	0.000034
C48	C	1.487958	0.622880	0.500034
C49	C	1.060117	0.172986	0.000044
C50	C	1.560117	0.672986	0.500044
C51	C	1.052727	0.254538	0.000048
C52	C	1.552727	0.754538	0.500048
C53	C	0.973178	0.285981	0.000049
C54	C	1.473178	0.785981	0.500049
C55	C	0.901014	0.235867	0.000036
C56	C	1.401014	0.735867	0.500036
C57	C	0.908405	0.154318	0.000025
C58	C	1.408405	0.654318	0.500025
C59	C	0.947068	0.531741	0.000074
C60	C	1.447068	1.031741	0.500074
C61	C	0.939683	0.613297	0.000087
C62	C	1.439683	1.113297	0.500087
C63	C	1.091396	0.631962	0.000097
C64	C	1.591396	1.131962	0.500097
C65	C	1.098780	0.550410	0.000092
C66	C	1.598780	1.050410	0.500092
C67	C	1.026616	0.500304	0.000075
C68	C	1.526616	1.000304	0.500075
C69	C	0.965622	0.369339	0.000055
C70	C	1.465622	0.869339	0.500055
C71	C	1.034172	0.416947	0.000062
C72	C	1.534172	0.916947	0.500062
C73	C	1.153065	-0.101128	-0.000006
C74	C	1.653065	0.398872	0.499994
C75	C	1.246422	-0.102658	-0.000011
C76	C	1.746422	0.397342	0.499989
C77	C	1.003983	0.750198	0.000000
C78	C	1.503983	1.250198	0.500000
C79	C	1.011841	0.663404	0.000097
C80	C	1.511841	1.163404	0.500097
N81	N	0.999877	-0.106884	0.230670
N82	N	1.499877	0.393116	0.730670
N83	N	0.999931	-0.106826	-0.230686
N84	N	1.499931	0.393174	0.269314
C85	C	0.944200	-0.162372	0.470341
C86	C	1.444200	0.337628	0.970341
C87	C	1.021185	-0.177536	0.529673
C88	C	1.521185	0.322464	1.029673
C89	C	0.999897	-0.106865	0.412277
C90	C	1.499897	0.393135	0.912277
C91	C	0.922933	-0.091718	0.529687
C92	C	1.422933	0.408282	1.029687
C93	C	0.999910	-0.106848	0.587701
C94	C	1.499910	0.393152	1.087701
C95	C	1.076923	-0.122064	0.470303
C96	C	1.576923	0.377936	0.970303
C97	C	0.978619	-0.036216	0.470311
C98	C	1.478619	0.463784	0.970311
C99	C	1.055657	-0.051350	0.529617
C100	C	1.555657	0.448650	1.029617
C101	C	0.999888	-0.106877	0.311220
C102	C	1.499888	0.393123	0.811220
C103	C	0.999927	-0.106835	0.688756
C104	C	1.499927	0.393165	1.188756
H105	H	0.442685	-0.174640	-0.134713
H106	H	0.942685	0.325360	0.365287
Cl107	Cl	0.571467	-0.022263	0.168467
Cl108	Cl	1.071467	0.477737	0.668467
Cl109	Cl	0.446290	0.065852	0.000139
Cl110	Cl	0.946290	0.565852	0.500139
Cl111	Cl	0.871564	-0.234899	0.430151
Cl112	Cl	1.371564	0.265101	0.930151
Cl113	Cl	1.160127	0.133467	0.000053
Cl114	Cl	1.660127	0.633467	0.500053
H115	H	1.111486	0.295332	0.000058
H116	H	1.611486	0.795332	0.500058
Cl117	Cl	0.822438	-0.071948	0.569961
Cl118	Cl	1.322438	0.428052	1.069961
Cl119	Cl	0.817687	0.091326	0.000010
Cl120	Cl	1.317687	0.591326	0.500010
Cl121	Cl	0.553777	-0.279472	0.000056
Cl122	Cl	1.053777	0.220528	0.500056
Cl123	Cl	0.571723	-0.022231	-0.168268
Cl124	Cl	1.071723	0.477769	0.331732
Cl125	Cl	0.428106	-0.191559	0.168268
Cl126	Cl	0.928106	0.308441	0.668268
Cl127	Cl	1.198789	0.510888	0.000063
Cl128	Cl	1.698789	1.010888	0.500063
Cl129	Cl	1.128467	0.021137	0.569556
Cl130	Cl	1.628467	0.521137	1.069556
H131	H	1.150148	0.672766	0.000110
H132	H	1.650148	1.172766	0.500110
Cl133	Cl	0.839670	0.652824	0.000093
Cl134	Cl	1.339670	1.152824	0.500093
Cl135	Cl	0.801009	0.275396	0.000025
Cl136	Cl	1.301009	0.775396	0.500025
Cl137	Cl	0.856346	0.468761	0.000050
Cl138	Cl	1.356346	0.968761	0.500050
Cl139	Cl	1.134173	0.377417	0.000057
Cl140	Cl	1.634173	0.877417	0.500057
Cl141	Cl	0.865620	0.408874	0.000051
Cl142	Cl	1.365620	0.908874	0.500051
Cl143	Cl	1.048991	-0.269766	0.569932
Cl144	Cl	1.548991	0.230234	1.069932
H145	H	1.142034	-0.134939	0.444328
H146	H	1.642034	0.365061	0.944328
H147	H	0.960588	0.023504	0.444216
H148	H	1.460588	0.523504	0.944216
