data_functionalizedCrystal
_audit_creation_method	'MofGen! by Chris Wilmer'
_symmetry_space_group_name_H-M	'P1'
_symmetry_Int_Tables_number	1
_symmetry_cell_setting	triclinic
loop_
_symmetry_equiv_pos_as_xyz
  x,y,z
_cell_length_a	21.295419
_cell_length_b	21.295417
_cell_length_c	21.295411
_cell_angle_alpha	90.020597
_cell_angle_beta	90.024539
_cell_angle_gamma	90.044503
loop_
_atom_site_label
_atom_site_type_symbol
_atom_site_fract_x
_atom_site_fract_y
_atom_site_fract_z
Zn1	Zn	0.962359	-0.250432	0.355916
Zn2	Zn	1.212359	-0.000432	0.605916
Zn3	Zn	1.462359	0.249568	0.855916
Zn4	Zn	1.712359	0.499568	1.105916
Zn5	Zn	0.962263	-0.355684	0.250643
Zn6	Zn	1.212263	-0.105684	0.500643
Zn7	Zn	1.462263	0.144316	0.750643
Zn8	Zn	1.712263	0.394316	1.000643
Zn9	Zn	0.857082	-0.250460	0.250661
Zn10	Zn	1.107082	-0.000460	0.500661
Zn11	Zn	1.357082	0.249540	0.750661
Zn12	Zn	1.607082	0.499540	1.000661
Zn13	Zn	0.857053	-0.355695	0.355875
Zn14	Zn	1.107053	-0.105695	0.605875
Zn15	Zn	1.357053	0.144305	0.855875
Zn16	Zn	1.607053	0.394305	1.105875
O17	O	0.909689	-0.303068	0.303274
O18	O	1.159689	-0.053068	0.553274
O19	O	1.409689	0.196932	0.803274
O20	O	1.659689	0.446932	1.053274
O21	O	1.050436	-0.264378	0.341961
O22	O	1.300436	-0.014378	0.591961
O23	O	1.550436	0.235622	0.841961
O24	O	1.800436	0.485622	1.091961
O25	O	0.948282	-0.341733	0.162556
O26	O	1.198282	-0.091733	0.412556
O27	O	1.448282	0.158267	0.662556
O28	O	1.698282	0.408267	0.912556
O29	O	0.871100	-0.162367	0.264648
O30	O	1.121100	0.087633	0.514648
O31	O	1.371100	0.337633	0.764648
O32	O	1.621100	0.587633	1.014648
O33	O	1.050365	-0.341706	0.264617
O34	O	1.300365	-0.091706	0.514617
O35	O	1.550365	0.158294	0.764617
O36	O	1.800365	0.408294	1.014617
O37	O	0.948446	-0.162347	0.341978
O38	O	1.198446	0.087653	0.591978
O39	O	1.448446	0.337653	0.841978
O40	O	1.698446	0.587653	1.091978
O41	O	0.871007	-0.264425	0.162569
O42	O	1.121007	-0.014425	0.412569
O43	O	1.371007	0.235575	0.662569
O44	O	1.621007	0.485575	0.912569
O45	O	0.768989	-0.264436	0.264608
O46	O	1.018989	-0.014436	0.514608
O47	O	1.268989	0.235564	0.764608
O48	O	1.518989	0.485564	1.014608
O49	O	0.871050	-0.341724	0.443970
O50	O	1.121050	-0.091724	0.693970
O51	O	1.371050	0.158276	0.943970
O52	O	1.621050	0.408276	1.193970
O53	O	0.768968	-0.341751	0.341908
O54	O	1.018968	-0.091751	0.591908
O55	O	1.268968	0.158249	0.841908
O56	O	1.518968	0.408249	1.091908
O57	O	0.948418	-0.264388	0.444000
O58	O	1.198418	-0.014388	0.694000
O59	O	1.448418	0.235612	0.944000
O60	O	1.698418	0.485612	1.194000
O61	O	0.948254	-0.443775	0.264578
O62	O	1.198254	-0.193775	0.514578
O63	O	1.448254	0.056225	0.764578
O64	O	1.698254	0.306225	1.014578
O65	O	0.870957	-0.443783	0.341891
O66	O	1.120957	-0.193783	0.591891
O67	O	1.370957	0.056217	0.841891
O68	O	1.620957	0.306217	1.091891
C69	C	0.746138	-0.303098	0.303256
C70	C	0.996138	-0.053098	0.553256
C71	C	1.246138	0.196902	0.803256
C72	C	1.496138	0.446902	1.053256
C73	C	0.676170	-0.303126	0.303263
C74	C	0.926170	-0.053126	0.553263
C75	C	1.176170	0.196874	0.803263
C76	C	1.426170	0.446874	1.053263
C77	C	0.643362	-0.262927	0.343598
C78	C	0.893362	-0.012927	0.593598
C79	C	1.143362	0.237073	0.843598
C80	C	1.393362	0.487073	1.093598
C81	C	0.577620	-0.262910	0.343601
C82	C	0.827620	-0.012910	0.593601
C83	C	1.077620	0.237090	0.843601
C84	C	1.327620	0.487090	1.093601
C85	C	0.544687	-0.303104	0.303275
C86	C	0.794687	-0.053104	0.553275
C87	C	1.044687	0.196896	0.803275
C88	C	1.294687	0.446896	1.053275
C89	C	0.577502	-0.343305	0.262932
C90	C	0.827502	-0.093305	0.512932
C91	C	1.077502	0.156695	0.762932
C92	C	1.327502	0.406695	1.012932
C93	C	0.643244	-0.343317	0.262926
C94	C	0.893244	-0.093317	0.512926
C95	C	1.143244	0.156683	0.762926
C96	C	1.393244	0.406683	1.012926
N97	N	0.441412	-0.358181	0.298356
N98	N	0.691412	-0.108181	0.548356
N99	N	0.941412	0.141819	0.798356
N100	N	1.191412	0.391819	1.048356
N101	N	0.378961	-0.358168	0.298365
N102	N	0.628961	-0.108168	0.548365
N103	N	0.878961	0.141832	0.798365
N104	N	1.128961	0.391832	1.048365
C105	C	0.346612	-0.303071	0.303289
C106	C	0.596612	-0.053071	0.553289
C107	C	0.846612	0.196929	0.803289
C108	C	1.096612	0.446929	1.053289
N109	N	0.379074	-0.247985	0.308215
N110	N	0.629074	0.002015	0.558215
N111	N	0.879074	0.252015	0.808215
N112	N	1.129074	0.502015	1.058215
N113	N	0.441532	-0.247999	0.308209
N114	N	0.691532	0.002001	0.558209
N115	N	0.941532	0.252001	0.808209
N116	N	1.191532	0.502001	1.058209
C117	C	0.473402	-0.303095	0.303276
C118	C	0.723402	-0.053095	0.553276
C119	C	0.973402	0.196905	0.803276
C120	C	1.223402	0.446905	1.053276
C121	C	0.242519	-0.262850	0.343628
C122	C	0.492519	-0.012850	0.593628
C123	C	0.742519	0.237150	0.843628
C124	C	0.992519	0.487150	1.093628
C125	C	0.176776	-0.262832	0.343626
C126	C	0.426776	-0.012832	0.593626
C127	C	0.676776	0.237168	0.843626
C128	C	0.926776	0.487168	1.093626
C129	C	0.176660	-0.343233	0.262961
C130	C	0.426660	-0.093233	0.512961
C131	C	0.676660	0.156767	0.762961
C132	C	0.926660	0.406767	1.012961
C133	C	0.242402	-0.343245	0.262960
C134	C	0.492402	-0.093245	0.512960
C135	C	0.742402	0.156755	0.762960
C136	C	0.992402	0.406755	1.012960
C137	C	0.275328	-0.303055	0.303297
C138	C	0.525328	-0.053055	0.553297
C139	C	0.775328	0.196945	0.803297
C140	C	1.025328	0.446945	1.053297
C141	C	0.909609	-0.466619	0.303242
C142	C	1.159609	-0.216619	0.553242
C143	C	1.409609	0.033381	0.803242
C144	C	1.659609	0.283381	1.053242
C145	C	0.909632	-0.536588	0.303249
C146	C	1.159632	-0.286588	0.553249
C147	C	1.409632	-0.036588	0.803249
C148	C	1.659632	0.213412	1.053249
C149	C	0.949884	-0.569386	0.343544
C150	C	1.199884	-0.319386	0.593544
C151	C	1.449884	-0.069386	0.843544
C152	C	1.699884	0.180614	1.093544
C153	C	0.949906	-0.635129	0.343559
C154	C	1.199906	-0.385129	0.593559
C155	C	1.449906	-0.135129	0.843559
C156	C	1.699906	0.114871	1.093559
C157	C	0.909683	-0.668070	0.303269
C158	C	1.159683	-0.418070	0.553269
C159	C	1.409683	-0.168070	0.803269
C160	C	1.659683	0.081930	1.053269
C161	C	0.869424	-0.635263	0.262971
C162	C	1.119424	-0.385263	0.512971
C163	C	1.369424	-0.135263	0.762971
C164	C	1.619424	0.114737	1.012971
C165	C	0.869399	-0.569522	0.262962
C166	C	1.119399	-0.319522	0.512962
C167	C	1.369399	-0.069522	0.762962
C168	C	1.619399	0.180478	1.012962
N169	N	0.904924	-0.771324	0.248178
N170	N	1.154924	-0.521324	0.498178
N171	N	1.404924	-0.271324	0.748178
N172	N	1.654924	-0.021324	0.998178
N173	N	0.904952	-0.833775	0.248189
N174	N	1.154952	-0.583775	0.498189
N175	N	1.404952	-0.333775	0.748189
N176	N	1.654952	-0.083775	0.998189
C177	C	0.909757	-0.866145	0.303297
C178	C	1.159757	-0.616145	0.553297
C179	C	1.409757	-0.366145	0.803297
C180	C	1.659757	-0.116145	1.053297
N181	N	0.914545	-0.833704	0.358395
N182	N	1.164545	-0.583704	0.608395
N183	N	1.414545	-0.333704	0.858395
N184	N	1.664545	-0.083704	1.108395
N185	N	0.914521	-0.771247	0.358383
N186	N	1.164521	-0.521247	0.608383
N187	N	1.414521	-0.271247	0.858383
N188	N	1.664521	-0.021247	1.108383
C189	C	0.909706	-0.739355	0.303276
C190	C	1.159706	-0.489355	0.553276
C191	C	1.409706	-0.239355	0.803276
C192	C	1.659706	0.010645	1.053276
C193	C	0.950034	-0.970229	0.343612
C194	C	1.200034	-0.720229	0.593612
C195	C	1.450034	-0.470229	0.843612
C196	C	1.700034	-0.220229	1.093612
C197	C	0.950052	-1.035973	0.343629
C198	C	1.200052	-0.785973	0.593629
C199	C	1.450052	-0.535973	0.843629
C200	C	1.700052	-0.285973	1.093629
C201	C	0.869574	-1.036106	0.263035
C202	C	1.119574	-0.786106	0.513035
C203	C	1.369574	-0.536106	0.763035
C204	C	1.619574	-0.286106	1.013035
C205	C	0.869553	-0.970363	0.263024
C206	C	1.119553	-0.720363	0.513024
C207	C	1.369553	-0.470363	0.763024
C208	C	1.619553	-0.220363	1.013024
C209	C	0.909786	-0.937429	0.303312
C210	C	1.159786	-0.687429	0.553312
C211	C	1.409786	-0.437429	0.803312
C212	C	1.659786	-0.187429	1.053312
C213	C	1.073880	-0.303038	0.303292
C214	C	1.323880	-0.053038	0.553292
C215	C	1.573880	0.196962	0.803292
C216	C	1.823880	0.446962	1.053292
C217	C	1.143848	-0.303025	0.303299
C218	C	1.393848	-0.053025	0.553299
C219	C	1.643848	0.196975	0.803299
C220	C	1.893848	0.446975	1.053299
C221	C	0.909742	-0.303055	0.467464
C222	C	1.159742	-0.053055	0.717464
C223	C	1.409742	0.196945	0.967464
C224	C	1.659742	0.446945	1.217464
C225	C	0.909764	-0.303049	0.537432
C226	C	1.159764	-0.053049	0.787432
C227	C	1.409764	0.196951	1.037432
C228	C	1.659764	0.446951	1.287432
C229	C	0.909787	-0.138878	0.303319
C230	C	1.159787	0.111122	0.553319
C231	C	1.409787	0.361122	0.803319
C232	C	1.659787	0.611122	1.053319
C233	C	0.909829	-0.068909	0.303339
C234	C	1.159829	0.181091	0.553339
C235	C	1.409829	0.431091	0.803339
C236	C	1.659829	0.681091	1.053339
C237	C	0.909674	-0.303036	0.139722
C238	C	1.159674	-0.053036	0.389722
C239	C	1.409674	0.196964	0.639722
C240	C	1.659674	0.446964	0.889722
C241	C	0.909773	-0.302864	0.069754
C242	C	1.159773	-0.052864	0.319754
C243	C	1.409773	0.197136	0.569754
C244	C	1.659773	0.447136	0.819754
C245	C	0.950048	-0.262778	0.570315
C246	C	1.200048	-0.012778	0.820315
C247	C	1.450048	0.237222	1.070315
C248	C	1.700048	0.487222	1.320315
C249	C	0.950047	-0.262751	0.636058
C250	C	1.200047	-0.012751	0.886058
C251	C	1.450047	0.237249	1.136058
C252	C	1.700047	0.487249	1.386058
C253	C	0.909769	-0.303006	0.668915
C254	C	1.159769	-0.053006	0.918915
C255	C	1.409769	0.196994	1.168915
C256	C	1.659769	0.446994	1.418915
C257	C	0.869477	-0.343279	0.636023
C258	C	1.119477	-0.093279	0.886023
C259	C	1.369477	0.156721	1.136023
C260	C	1.619477	0.406721	1.386023
C261	C	0.869475	-0.343301	0.570282
C262	C	1.119475	-0.093301	0.820282
C263	C	1.369475	0.156699	1.070282
C264	C	1.619475	0.406699	1.320282
N265	N	0.904913	-0.358075	0.772131
N266	N	1.154913	-0.108075	1.022131
N267	N	1.404913	0.141925	1.272131
N268	N	1.654913	0.391925	1.522131
N269	N	0.904919	-0.358052	0.834582
N270	N	1.154919	-0.108052	1.084582
N271	N	1.404919	0.141948	1.334582
N272	N	1.654919	0.391948	1.584582
C273	C	0.909773	-0.302942	0.866989
C274	C	1.159773	-0.052942	1.116989
C275	C	1.409773	0.197058	1.366989
C276	C	1.659773	0.447058	1.616989
N277	N	0.914633	-0.247853	0.834586
N278	N	1.164633	0.002147	1.084586
N279	N	1.414633	0.252147	1.334586
N280	N	1.664633	0.502147	1.584586
N281	N	0.914630	-0.247876	0.772128
N282	N	1.164630	0.002124	1.022128
N283	N	1.414630	0.252124	1.272128
N284	N	1.664630	0.502124	1.522128
C285	C	0.909767	-0.302986	0.740200
C286	C	1.159767	-0.052986	0.990200
C287	C	1.409767	0.197014	1.240200
C288	C	1.659767	0.447014	1.490200
C289	C	0.950058	-0.262638	0.971158
C290	C	1.200058	-0.012638	1.221158
C291	C	1.450058	0.237362	1.471158
C292	C	1.700058	0.487362	1.721158
C293	C	0.950052	-0.262610	1.036902
C294	C	1.200052	-0.012610	1.286902
C295	C	1.450052	0.237390	1.536902
C296	C	1.700052	0.487390	1.786902
C297	C	0.869486	-0.343143	1.036866
C298	C	1.119486	-0.093143	1.286866
C299	C	1.369486	0.156857	1.536866
C300	C	1.619486	0.406857	1.786866
C301	C	0.869488	-0.343166	0.971124
C302	C	1.119488	-0.093166	1.221124
C303	C	1.369488	0.156834	1.471124
C304	C	1.619488	0.406834	1.721124
C305	C	0.909777	-0.302914	0.938274
C306	C	1.159777	-0.052914	1.188274
C307	C	1.409777	0.197086	1.438274
C308	C	1.659777	0.447086	1.688274
H309	H	0.149847	-0.375959	0.230127
H310	H	0.399847	-0.125959	0.480127
H311	H	0.649847	0.124041	0.730127
H312	H	0.899847	0.374041	0.980127
Br313	Br	0.814830	-0.679967	0.208297
Br314	Br	1.064830	-0.429967	0.458297
Br315	Br	1.314830	-0.179967	0.708297
Br316	Br	1.564830	0.070033	0.958297
H317	H	0.836685	-0.375913	1.063618
H318	H	1.086685	-0.125913	1.313618
H319	H	1.336685	0.124087	1.563618
H320	H	1.586685	0.374087	1.813618
H321	H	0.982678	-0.661839	0.376379
H322	H	1.232678	-0.411839	0.626379
H323	H	1.482678	-0.161839	0.876379
H324	H	1.732678	0.088161	1.126379
H325	H	0.836621	-0.542817	0.230148
H326	H	1.086621	-0.292817	0.480148
H327	H	1.336621	-0.042817	0.730148
H328	H	1.586621	0.207183	0.980148
H329	H	0.982855	-0.229813	1.063675
H330	H	1.232855	0.020187	1.313675
H331	H	1.482855	0.270187	1.563675
H332	H	1.732855	0.520187	1.813675
Br333	Br	1.004674	-1.080487	0.398330
Br334	Br	1.254674	-0.830487	0.648330
Br335	Br	1.504674	-0.580487	0.898330
Br336	Br	1.754674	-0.330487	1.148330
Br337	Br	0.814815	-0.397823	0.926493
Br338	Br	1.064815	-0.147823	1.176493
Br339	Br	1.314815	0.102177	1.426493
Br340	Br	1.564815	0.352177	1.676493
Br341	Br	1.004723	-0.208149	0.525736
Br342	Br	1.254723	0.041851	0.775736
Br343	Br	1.504723	0.291851	1.025736
Br344	Br	1.754723	0.541851	1.275736
Br345	Br	1.004706	-0.208078	0.680695
Br346	Br	1.254706	0.041922	0.930695
Br347	Br	1.504706	0.291922	1.180695
Br348	Br	1.754706	0.541922	1.430695
Br349	Br	0.814922	-0.925847	0.208337
Br350	Br	1.064922	-0.675847	0.458337
Br351	Br	1.314922	-0.425847	0.708337
Br352	Br	1.564922	-0.175847	0.958337
H353	H	0.836681	-0.376052	0.662779
H354	H	1.086681	-0.126052	0.912779
H355	H	1.336681	0.123948	1.162779
H356	H	1.586681	0.373948	1.412779
Br357	Br	0.532810	-0.397849	0.208199
Br358	Br	0.782810	-0.147849	0.458199
Br359	Br	1.032810	0.102151	0.708199
Br360	Br	1.282810	0.352151	0.958199
H361	H	0.670166	-0.230200	0.376443
H362	H	0.920166	0.019800	0.626443
H363	H	1.170166	0.269800	0.876443
H364	H	1.420166	0.519800	1.126443
Br365	Br	1.004634	-0.925529	0.398288
Br366	Br	1.254634	-0.675529	0.648288
Br367	Br	1.504634	-0.425529	0.898288
Br368	Br	1.754634	-0.175529	1.148288
Br369	Br	0.687771	-0.397873	0.208178
Br370	Br	0.937771	-0.147873	0.458178
Br371	Br	1.187771	0.102127	0.708178
Br372	Br	1.437771	0.352127	0.958178
H373	H	0.836668	-0.376093	0.543509
H374	H	1.086668	-0.126093	0.793509
H375	H	1.336668	0.123907	1.043509
H376	H	1.586668	0.373907	1.293509
Br377	Br	0.533085	-0.208349	0.398343
Br378	Br	0.783085	0.041651	0.648343
Br379	Br	1.033085	0.291651	0.898343
Br380	Br	1.283085	0.541651	1.148343
Br381	Br	1.004732	-0.208010	0.926572
Br382	Br	1.254732	0.041990	1.176572
Br383	Br	1.504732	0.291990	1.426572
Br384	Br	1.754732	0.541990	1.676572
H385	H	0.269329	-0.230121	0.376469
H386	H	0.519329	0.019879	0.626469
H387	H	0.769329	0.269879	0.876469
H388	H	1.019329	0.519879	1.126469
Br389	Br	0.814982	-1.080804	0.208358
Br390	Br	1.064982	-0.830804	0.458358
Br391	Br	1.314982	-0.580804	0.708358
Br392	Br	1.564982	-0.330804	0.958358
H393	H	0.150065	-0.230094	0.376471
H394	H	0.400065	0.019906	0.626471
H395	H	0.650065	0.269906	0.876471
H396	H	0.900065	0.519906	1.126471
H397	H	0.982642	-0.542573	0.376350
H398	H	1.232642	-0.292573	0.626350
H399	H	1.482642	-0.042573	0.876350
H400	H	1.732642	0.207427	1.126350
H401	H	0.269114	-0.375982	0.230117
H402	H	0.519114	-0.125982	0.480117
H403	H	0.769114	0.124018	0.730117
H404	H	1.019114	0.374018	0.980117
