data_functionalizedCrystal
_audit_creation_method	'MofGen! by Chris Wilmer'
_symmetry_space_group_name_H-M	'P1'
_symmetry_Int_Tables_number	1
_symmetry_cell_setting	triclinic
loop_
_symmetry_equiv_pos_as_xyz
  x,y,z
_cell_length_a	18.215407
_cell_length_b	12.594516
_cell_length_c	18.215399
_cell_angle_alpha	90.022106
_cell_angle_beta	90.019833
_cell_angle_gamma	90.016501
loop_
_atom_site_label
_atom_site_type_symbol
_atom_site_fract_x
_atom_site_fract_y
_atom_site_fract_z
Zn1	Zn	1.125117	-0.423740	0.416146
Zn2	Zn	1.125045	-0.601738	0.293092
Zn3	Zn	1.002050	-0.423775	0.293093
Zn4	Zn	1.002035	-0.601679	0.416117
O5	O	1.063561	-0.512733	0.354612
O6	O	1.228092	-0.447362	0.399834
O7	O	1.108705	-0.578170	0.190108
O8	O	1.018412	-0.274825	0.309429
O9	O	1.228038	-0.578136	0.309427
O10	O	1.108829	-0.274799	0.399835
O11	O	1.018341	-0.447422	0.190109
O12	O	0.899063	-0.447364	0.309401
O13	O	1.018386	-0.578035	0.519105
O14	O	0.899052	-0.578069	0.399786
O15	O	1.108814	-0.447305	0.519126
O16	O	1.108690	-0.750676	0.309399
O17	O	1.018315	-0.750632	0.399785
C18	C	0.872355	-0.512715	0.354591
C19	C	0.790556	-0.512733	0.354599
C20	C	0.602376	-0.580898	0.401604
C21	C	0.525517	-0.580901	0.401613
C22	C	0.525499	-0.444588	0.307636
C23	C	0.602356	-0.444580	0.307631
C24	C	0.640793	-0.512741	0.354614
C25	C	0.487077	-0.512752	0.354628
C26	C	0.403743	-0.512755	0.354638
C27	C	0.724132	-0.512737	0.354606
C28	C	1.063513	-0.789274	0.354605
C29	C	1.063560	-0.907579	0.354626
C30	C	1.014400	-0.976847	0.403753
C31	C	0.996471	-1.047706	0.336600
C32	C	1.081556	-1.047520	0.421791
C33	C	1.045595	-0.976880	0.287438
C34	C	1.130712	-0.976687	0.372674
C35	C	1.112808	-1.047514	0.305475
C36	C	1.255514	-0.512752	0.354634
C37	C	1.337313	-0.512760	0.354643
C38	C	1.063606	-0.512660	0.546565
C39	C	1.063625	-0.512628	0.628364
C40	C	1.063630	-0.235112	0.354635
C41	C	1.063659	-0.116807	0.354645
C42	C	1.063559	-0.512729	0.163406
C43	C	1.063683	-0.512461	0.081607
C44	C	1.110728	-0.444493	0.816570
C45	C	1.110737	-0.444462	0.893429
C46	C	1.016575	-0.580599	0.893396
C47	C	1.016563	-0.580624	0.816538
C48	C	1.063644	-0.512572	0.778127
C49	C	1.063664	-0.512517	0.931844
C50	C	1.063674	-0.512483	1.015177
C51	C	1.063634	-0.512604	0.694788
H52	H	0.494195	-0.389095	0.269384
H53	H	1.096738	-1.078549	0.478583
N54	N	0.968452	-0.650154	0.777266
N55	N	0.900548	-0.643080	0.785838
H56	H	0.866568	-0.692179	0.758102
H57	H	0.939728	-1.078924	0.321350
N58	N	0.486277	-0.650545	0.449598
N59	N	0.443372	-0.718328	0.423627
H60	H	0.415659	-0.767519	0.457518
N61	N	1.158812	-0.374960	0.777345
N62	N	1.153948	-0.276744	0.785943
H63	H	1.187907	-0.227630	0.758243
H64	H	1.030348	-0.945979	0.230630
N65	N	1.158834	-0.374908	0.932685
N66	N	1.200861	-0.314153	0.898378
H67	H	1.234831	-0.265025	0.926102
N68	N	0.641604	-0.374940	0.259640
N69	N	0.633039	-0.276735	0.264637
H70	H	0.660758	-0.227550	0.230748
N71	N	0.641627	-0.650528	0.449597
N72	N	0.607313	-0.711377	0.491548
H73	H	0.635031	-0.760555	0.525446
N74	N	1.165011	-1.086188	0.253304
N75	N	1.158301	-1.063339	0.186868
H76	H	1.195166	-1.090654	0.150019
N77	N	0.968489	-0.650100	0.932644
N78	N	0.968505	-0.650070	1.001266
H79	H	0.934545	-0.699158	1.028985
N80	N	0.962151	-0.937928	0.455792
N81	N	0.895709	-0.960741	0.448968
H82	H	0.858806	-0.933254	0.485718
H83	H	1.187442	-0.945472	0.387956
