data_functionalizedCrystal
_audit_creation_method	'MofGen! by Chris Wilmer'
_symmetry_space_group_name_H-M	'P1'
_symmetry_Int_Tables_number	1
_symmetry_cell_setting	triclinic
loop_
_symmetry_equiv_pos_as_xyz
  x,y,z
_cell_length_a	19.902436
_cell_length_b	23.196402
_cell_length_c	23.196402
_cell_angle_alpha	60.002163
_cell_angle_beta	89.998068
_cell_angle_gamma	60.000604
loop_
_atom_site_label
_atom_site_type_symbol
_atom_site_fract_x
_atom_site_fract_y
_atom_site_fract_z
Zr1	Zr	0.647227	0.631085	-0.075706
O2	O	0.539942	0.751344	-0.167744
O3	O	0.680118	0.510819	-0.047493
O4	O	0.680111	0.631089	-0.167760
O5	O	0.539951	0.631074	0.047394
O6	O	0.790677	0.631100	-0.167771
O7	O	0.539948	0.631075	-0.047477
O8	O	0.790688	0.415960	0.047364
O9	O	0.539940	0.846215	-0.167742
O10	O	0.776657	0.560298	-0.035467
O11	O	0.694145	0.560289	0.035342
O12	O	0.694137	0.701891	-0.106257
O13	O	0.611625	0.701883	-0.035447
Zr14	Zr	0.823571	0.631103	0.075584
Zr15	Zr	0.823567	0.631103	-0.075724
Zr16	Zr	0.647231	0.631085	0.075602
Zr17	Zr	0.647223	0.782393	-0.075703
Zr18	Zr	0.823575	0.479795	0.075581
O19	O	0.790680	0.751369	0.047371
O20	O	0.790674	0.751369	-0.167769
O21	O	0.539948	0.751344	0.047397
O22	O	0.930856	0.510844	0.167622
O23	O	0.930850	0.510845	-0.047518
O24	O	0.680124	0.510819	0.167647
O25	O	0.930847	0.631114	-0.047516
O26	O	0.790687	0.631100	0.167638
O27	O	0.680121	0.631089	0.167650
O28	O	0.930850	0.631114	0.047355
O29	O	0.680106	0.846229	-0.167756
O30	O	0.790692	0.415960	0.167634
O31	O	0.930858	0.415974	0.167620
O32	O	0.930855	0.415974	0.047350
O33	O	0.539943	0.846215	-0.047472
O34	O	0.680110	0.846229	-0.047486
O35	O	0.776661	0.560297	0.106135
O36	O	0.859173	0.560306	0.035326
O37	O	0.776653	0.701899	-0.035464
O38	O	0.694141	0.701891	0.035345
C39	C	0.735403	0.441831	-0.000065
C40	C	0.735405	0.377597	-0.000066
C41	C	0.778471	-0.085241	-0.037010
C42	C	0.778469	-0.024883	-0.037017
C43	C	0.735400	0.005295	-0.000055
C44	C	0.692312	-0.024876	0.036902
C45	C	0.692309	-0.085228	0.036901
C46	C	0.741556	0.067323	0.061849
C47	C	0.741565	0.127670	0.061852
C48	C	0.735406	0.191443	-0.000054
C49	C	0.729254	0.194854	-0.061962
C50	C	0.729250	0.134502	-0.061963
C51	C	0.735398	0.070737	-0.000050
C52	C	0.778484	0.287059	-0.037019
C53	C	0.778476	0.347423	-0.037027
C54	C	0.692325	0.347422	0.036897
C55	C	0.692327	0.287066	0.036899
C56	C	0.735411	0.256885	-0.000058
C57	C	0.514825	0.631072	-0.000039
C58	C	0.439964	0.631064	-0.000031
C59	C	0.167916	0.631104	-0.000071
C60	C	0.248461	0.541785	0.044372
C61	C	0.326364	0.541729	0.044622
C62	C	0.302882	0.631084	-0.000051
C63	C	0.248763	0.675442	0.032523
C64	C	0.171201	0.674871	0.032848
C65	C	0.170058	0.676706	-0.077106
C66	C	0.248936	0.675027	-0.076984
C67	C	0.379157	0.631077	-0.000041
C68	C	0.091639	0.631114	-0.000079
C69	C	0.955973	0.631117	-0.000083
C70	C	1.030834	0.631124	-0.000091
C71	C	0.735393	0.631094	-0.189324
C72	C	0.735392	0.631094	-0.253558
C73	C	0.735394	0.820357	-0.000057
C74	C	0.735393	0.884591	-0.000056
C75	C	0.674489	0.631098	-0.716392
C76	C	0.674489	0.631092	-0.656035
C77	C	0.735400	0.631099	-0.625859
C78	C	0.796328	0.631091	-0.656035
C79	C	0.796331	0.631088	-0.716388
C80	C	0.754380	0.678608	-0.553994
C81	C	0.754371	0.678616	-0.493645
C82	C	0.735395	0.631103	-0.439710
C83	C	0.716409	0.583594	-0.446136
C84	C	0.716413	0.583591	-0.506489
C85	C	0.735404	0.631101	-0.560417
C86	C	0.674474	0.631099	-0.344091
C87	C	0.674479	0.631089	-0.283730
C88	C	0.796315	0.631096	-0.283736
C89	C	0.796313	0.631098	-0.344092
C90	C	0.735388	0.631104	-0.374268
C91	C	0.735405	0.631094	0.189202
C92	C	0.735406	0.631094	0.253436
C93	C	0.955978	0.441854	-0.000087
C94	C	1.030840	0.377627	-0.000096
C95	C	0.735409	0.441831	0.189198
C96	C	0.735412	0.377597	0.253431
C97	C	0.955983	0.441853	0.189176
C98	C	1.030847	0.377627	0.253401
C99	C	0.514815	0.820335	-0.189298
C100	C	0.439951	0.884562	-0.253523
C101	C	0.514820	0.820335	-0.000035
C102	C	0.439958	0.884561	-0.000026
C103	C	0.735389	0.820357	-0.189320
C104	C	0.735385	0.884591	-0.253553
C105	C	1.022923	0.347461	-0.037059
C106	C	1.093258	0.287122	-0.037082
C107	C	1.171508	0.256946	-0.000136
C108	C	1.179423	0.287117	0.036828
C109	C	1.109089	0.347460	0.036846
C110	C	0.778487	0.347436	0.320555
C111	C	0.778487	0.287090	0.380914
C112	C	0.735417	0.256901	0.374148
C113	C	0.692338	0.287068	0.307017
C114	C	0.692333	0.347417	0.246659
C115	C	1.109082	0.347470	0.246600
C116	C	1.179432	0.287131	0.306941
C117	C	1.171545	0.256945	0.374082
C118	C	1.093302	0.287108	0.380881
C119	C	1.022954	0.347451	0.320541
C120	C	0.361716	0.914726	-0.246722
C121	C	0.291366	0.975084	-0.307063
C122	C	0.299253	1.005272	-0.374204
C123	C	0.377496	0.975105	-0.381003
C124	C	0.447844	0.914753	-0.320663
C125	C	0.447875	0.914733	0.036931
C126	C	0.377540	0.975089	0.036937
C127	C	0.299290	1.005268	-0.000011
C128	C	0.291375	0.975093	-0.036972
C129	C	0.361709	0.914743	-0.036982
C130	C	0.778464	0.914761	-0.246764
C131	C	0.778476	0.975108	-0.307112
C132	C	0.735406	1.005288	-0.374248
C133	C	0.692327	0.975113	-0.381035
C134	C	0.692319	0.914763	-0.320688
H135	H	0.724237	0.246781	-0.112373
H136	H	0.813537	0.890198	-0.192104
H137	H	0.365752	0.506938	0.022763
H138	H	0.813570	0.262535	0.435569
Cl139	Cl	0.778221	0.738354	-0.485579
H140	H	0.227655	0.999674	-0.067054
H141	H	1.243134	0.262578	0.301392
H142	H	0.959215	0.372030	-0.067154
Cl143	Cl	1.119019	0.385410	0.162202
H144	H	0.383908	0.999693	-0.435676
Cl145	Cl	0.872918	0.631085	-0.754321
Cl146	Cl	1.259991	0.181084	0.449932
H147	H	0.813556	0.999670	-0.301572
H148	H	0.657236	0.890205	-0.326225
Cl149	Cl	0.351779	0.876787	-0.162324
H150	H	0.657260	0.999695	-0.435705
Cl151	Cl	0.735421	1.081160	-0.450106
Cl152	Cl	1.083289	0.249201	-0.083552
H153	H	0.657260	0.371966	0.192006
H154	H	1.086892	0.262523	0.435555
H155	H	0.845924	0.631095	-0.631463
H156	H	0.227664	0.999636	-0.301513
Cl157	Cl	0.924604	0.385350	0.329103
H158	H	0.724239	0.137284	-0.112371
Cl159	Cl	0.832640	0.385373	0.329079
H160	H	0.241965	1.054415	-0.423331
Cl161	Cl	0.546238	0.876811	0.083382
Cl162	Cl	0.638150	-0.123156	0.083363
H163	H	0.511545	0.890193	-0.326209
H164	H	0.813550	-0.109811	-0.067104
Cl165	Cl	0.210878	1.081137	0.000010
Cl166	Cl	0.387509	1.013007	0.083411
Cl167	Cl	0.386639	0.487663	0.132359
Cl168	Cl	0.306558	0.625089	-0.114555
Cl169	Cl	0.351742	0.876814	-0.083442
H170	H	1.228771	0.207810	-0.000156
H171	H	0.250156	0.506723	0.022638
Cl172	Cl	0.749295	-0.012845	0.139681
Cl173	Cl	1.277801	0.249169	0.083275
H174	H	0.813549	-0.000316	-0.067111
Cl175	Cl	0.692552	0.523864	-0.514565
H176	H	0.249212	0.506901	0.100857
Cl177	Cl	0.832650	0.249111	-0.083474
H178	H	0.657271	0.262479	0.301519
Cl179	Cl	0.597903	0.631099	-0.754324
Cl180	Cl	0.832629	0.385355	-0.083496
H181	H	0.657252	0.262499	0.066995
Cl182	Cl	0.749316	0.123367	0.139682
Cl183	Cl	0.638171	0.385362	0.083357
H184	H	0.171398	0.643348	0.089536
Cl185	Cl	0.638165	0.013063	0.083365
Cl186	Cl	1.119056	0.385369	0.083325
H187	H	0.286219	0.644635	0.088673
Cl188	Cl	0.083136	0.776046	-0.013901
H189	H	0.228995	0.741142	0.001712
H190	H	0.845915	0.631100	-0.368662
H191	H	0.167069	0.648121	-0.104316
Cl192	Cl	0.082406	0.778295	-0.128470
Cl193	Cl	0.597899	0.631098	-0.618099
Cl194	Cl	0.220319	0.775682	-0.132411
H195	H	0.700954	0.544906	-0.402222
H196	H	0.624875	0.631087	-0.259161
Cl197	Cl	0.597887	0.631100	-0.382024
H198	H	0.845913	0.631097	-0.259165
Cl199	Cl	0.735432	0.181031	0.450035
Cl200	Cl	0.778251	0.738334	-0.621790
