data_functionalizedCrystal
_audit_creation_method	'MofGen! by Chris Wilmer'
_symmetry_space_group_name_H-M	'P1'
_symmetry_Int_Tables_number	1
_symmetry_cell_setting	triclinic
loop_
_symmetry_equiv_pos_as_xyz
  x,y,z
_cell_length_a	12.811457
_cell_length_b	10.489716
_cell_length_c	11.295471
_cell_angle_alpha	85.862435
_cell_angle_beta	88.714315
_cell_angle_gamma	84.284886
loop_
_atom_site_label
_atom_site_type_symbol
_atom_site_fract_x
_atom_site_fract_y
_atom_site_fract_z
O1	O	1.390324	0.176207	-0.051131
O2	O	1.087201	0.192066	-0.018395
O3	O	1.245674	-0.001440	-0.035505
O4	O	1.231852	0.369713	-0.034021
O5	O	1.231744	0.015519	-0.232052
O6	O	1.073272	0.209025	-0.214942
O7	O	1.376395	0.193166	-0.247679
Cu8	Cu	1.223561	0.202644	-0.249257
Cu9	Cu	1.240035	0.182588	-0.016817
O10	O	1.217922	0.386672	-0.230568
C11	C	1.041422	0.199137	-0.112476
C12	C	0.925766	0.194925	-0.099985
C13	C	0.693250	0.205478	-0.290813
C14	C	0.584581	0.201521	-0.279083
C15	C	0.599758	0.183044	-0.064795
C16	C	0.708427	0.187002	-0.076526
C17	C	0.755169	0.198221	-0.189539
C18	C	0.863839	0.202187	-0.201268
C19	C	0.879014	0.183702	0.013019
C20	C	0.770345	0.179744	0.024749
C21	C	1.237671	-0.040497	-0.133663
C22	C	1.234565	-0.182139	-0.133317
C23	C	1.331744	-0.279481	-0.143823
C24	C	1.287260	-0.365378	-0.041372
C25	C	1.273504	-0.348621	-0.235150
C26	C	1.190126	-0.266178	-0.030790
C27	C	1.176379	-0.249408	-0.224657
C28	C	1.131824	-0.335259	-0.122174
C29	C	1.422174	0.186095	-0.153594
C30	C	1.537831	0.190306	-0.166078
C31	C	1.225925	0.425728	-0.132408
C32	C	1.229032	0.567370	-0.132746
N33	N	1.211983	0.216750	-0.412743
C34	C	1.128696	0.318424	-0.590773
C35	C	1.137427	0.307745	-0.467052
C36	C	1.277810	0.136427	-0.482165
C37	C	1.269078	0.147107	-0.605886
C38	C	1.194520	0.238110	-0.660185
C39	C	1.185795	0.248795	-0.783910
C40	C	1.326171	0.077472	-0.799020
C41	C	1.334903	0.066792	-0.675299
N42	N	1.251621	0.168472	0.146669
H43	H	0.534170	0.207437	-0.361552
H44	H	1.395604	-0.007304	-0.631074
C45	C	1.103786	0.348889	-0.843644
H46	H	1.108017	0.343758	-0.927270
H47	H	1.035596	0.332217	-0.815877
H48	H	1.117164	0.432454	-0.824648
H49	H	0.732273	0.170604	0.116761
C50	C	0.548330	0.170737	0.059507
H51	H	0.600769	0.166985	0.118148
H52	H	0.498866	0.243044	0.069304
H53	H	0.513642	0.094579	0.067762
H54	H	1.338506	0.062326	-0.437937
C55	C	0.947126	0.175728	0.124426
H56	H	1.018541	0.179689	0.101257
H57	H	0.925036	0.245512	0.171157
H58	H	0.939833	0.097051	0.169583
C59	C	1.142609	-0.217442	0.086000
H60	H	1.144937	-0.127136	0.085099
H61	H	1.071836	-0.236898	0.093930
H62	H	1.181764	-0.258213	0.151026
H63	H	0.901894	0.211330	-0.293288
H64	H	1.416281	-0.254524	-0.152853
H65	H	1.334089	-0.415802	0.036126
H66	H	1.379773	0.012078	-0.855551
H67	H	1.129584	-0.198961	-0.302161
C68	C	1.046696	0.418525	-0.650512
H69	H	1.050929	0.413389	-0.734138
H70	H	0.978502	0.401867	-0.622747
H71	H	1.060083	0.502088	-0.631520
H72	H	1.047234	-0.359983	-0.112986
C73	C	1.321097	-0.397596	-0.351816
H74	H	1.392080	-0.378861	-0.359351
H75	H	1.318176	-0.487782	-0.351095
H76	H	1.282408	-0.356331	-0.416980
H77	H	0.731306	0.214630	-0.382833
C78	C	1.065026	0.396096	-0.390702
H79	H	1.019379	0.451827	-0.440765
H80	H	1.024732	0.345381	-0.337734
H81	H	1.106303	0.445613	-0.346516
