data_functionalizedCrystal
_audit_creation_method	'MofGen! by Chris Wilmer'
_symmetry_space_group_name_H-M	'P1'
_symmetry_Int_Tables_number	1
_symmetry_cell_setting	triclinic
loop_
_symmetry_equiv_pos_as_xyz
  x,y,z
_cell_length_a	11.792241
_cell_length_b	13.101039
_cell_length_c	14.044220
_cell_angle_alpha	93.667477
_cell_angle_beta	91.308853
_cell_angle_gamma	93.376518
loop_
_atom_site_label
_atom_site_type_symbol
_atom_site_fract_x
_atom_site_fract_y
_atom_site_fract_z
O1	O	1.524822	0.085117	-0.124790
O2	O	1.858155	0.418450	0.208543
O3	O	2.191489	0.751784	0.541877
O4	O	1.195740	0.085141	-0.138185
O5	O	1.529073	0.418474	0.195148
O6	O	1.862407	0.751808	0.528482
O7	O	1.355341	0.085119	0.006522
O8	O	1.688674	0.418452	0.339855
O9	O	2.022007	0.751786	0.673188
O10	O	1.365221	0.085139	-0.269497
O11	O	1.698555	0.418472	0.063836
O12	O	2.031888	0.751805	0.397170
O13	O	1.343891	-0.085309	-0.003878
O14	O	1.677225	0.248024	0.329455
O15	O	2.010558	0.581358	0.662789
O16	O	1.184291	-0.085287	-0.148585
O17	O	1.517624	0.248046	0.184748
O18	O	1.850957	0.581379	0.518082
O19	O	1.513372	-0.085311	-0.135190
O20	O	1.846706	0.248022	0.198143
O21	O	2.180039	0.581355	0.531477
Zn22	Zn	1.347014	-0.112359	-0.143539
Zn23	Zn	1.680347	0.220975	0.189795
Zn24	Zn	2.013680	0.554308	0.523128
Zn25	Zn	1.362099	0.112188	-0.129836
Zn26	Zn	1.695432	0.445521	0.203497
Zn27	Zn	2.028766	0.778855	0.536830
O28	O	1.353772	-0.085290	-0.279897
O29	O	1.687105	0.248044	0.053437
O30	O	2.020438	0.581377	0.386770
C31	C	1.147646	-0.000070	-0.142543
C32	C	1.480979	0.333263	0.190790
C33	C	1.814312	0.666597	0.524123
C34	C	1.021396	-0.000061	-0.140024
C35	C	1.354729	0.333272	0.193309
C36	C	1.688063	0.666605	0.526643
N37	N	1.336727	-0.265606	-0.152889
N38	N	1.670060	0.067728	0.180444
N39	N	2.003393	0.401061	0.513777
C40	C	0.790247	-0.000091	-0.135394
C41	C	1.123580	0.333242	0.197939
C42	C	1.456914	0.666576	0.531272
C43	C	0.918875	-0.000075	-0.137967
C44	C	1.252208	0.333259	0.195367
C45	C	1.585542	0.666592	0.528700
C46	C	1.322732	-0.474646	-0.165620
C47	C	1.656065	-0.141313	0.167713
C48	C	1.989399	0.192020	0.501046
C49	C	1.386386	-0.525531	-0.107750
C50	C	1.719719	-0.192197	0.225583
C51	C	2.053052	0.141136	0.558916
C52	C	1.378599	-0.641848	-0.114834
C53	C	1.711932	-0.308515	0.218499
C54	C	2.045265	0.024819	0.551833
C55	C	1.330517	-0.358318	-0.158538
C56	C	1.663851	-0.024985	0.174795
C57	C	1.997184	0.308348	0.508129
C58	C	1.561467	-0.000098	-0.130832
C59	C	1.894800	0.333235	0.202502
C60	C	2.228134	0.666569	0.535835
C61	C	1.687717	-0.000100	-0.133350
C62	C	2.021050	0.333233	0.199983
C63	C	2.354384	0.666566	0.533316
C64	C	1.345292	-0.000095	0.036659
C65	C	1.678625	0.333238	0.369992
C66	C	2.011958	0.666572	0.703325
C67	C	1.332393	-0.000095	0.141951
C68	C	1.665726	0.333238	0.475284
C69	C	1.999059	0.666571	0.808617
N70	N	1.372394	0.265435	-0.120478
N71	N	1.705727	0.598769	0.212855
N72	N	2.039061	0.932102	0.546189
C73	C	1.363821	-0.000073	-0.310033
C74	C	1.697154	0.333260	0.023300
C75	C	2.030488	0.666594	0.356633
C76	C	1.376720	-0.000066	-0.415325
C77	C	1.710054	0.333267	-0.081992
C78	C	2.043387	0.666601	0.251342
C79	C	1.308812	-0.000079	0.334734
C80	C	1.642145	0.333254	0.668068
C81	C	1.975478	0.666588	1.001401
C82	C	1.400296	-0.000083	0.391897
C83	C	1.733630	0.333251	0.725230
C84	C	2.066963	0.666584	1.058564
C85	C	1.387176	-0.000073	0.499168
C86	C	1.720509	0.333260	0.832502
C87	C	2.053842	0.666593	1.165835
C88	C	1.321931	-0.000088	0.227453
C89	C	1.655264	0.333245	0.560786
C90	C	1.988597	0.666579	0.894119
H91	H	1.446730	-0.481737	-0.052887
H92	H	1.780063	-0.148403	0.280447
H93	H	2.113397	0.184930	0.613780
H94	H	1.262393	-0.518435	-0.220481
H95	H	1.595726	-0.185102	0.112852
H96	H	1.929059	0.148232	0.446185
N97	N	1.517101	-0.000114	0.350021
N98	N	1.850434	0.333220	0.683354
N99	N	2.183768	0.666553	1.016687
H100	H	1.564012	0.063058	0.375737
H101	H	1.897345	0.396391	0.709070
H102	H	2.230678	0.729724	1.042403
H103	H	1.509949	-0.000161	0.278219
H104	H	1.843282	0.333172	0.611552
H105	H	2.176616	0.666505	0.944885
H106	H	1.220642	-0.000070	0.366357
H107	H	1.553976	0.333263	0.699690
H108	H	1.887309	0.666597	1.033024
