data_functionalizedCrystal
_audit_creation_method	'MofGen! by Chris Wilmer'
_symmetry_space_group_name_H-M	'P1'
_symmetry_Int_Tables_number	1
_symmetry_cell_setting	triclinic
loop_
_symmetry_equiv_pos_as_xyz
  x,y,z
_cell_length_a	6.817900
_cell_length_b	17.253917
_cell_length_c	12.200875
_cell_angle_alpha	97.954686
_cell_angle_beta	107.143593
_cell_angle_gamma	102.659311
loop_
_atom_site_label
_atom_site_type_symbol
_atom_site_fract_x
_atom_site_fract_y
_atom_site_fract_z
V1	V	-4.070544	-0.111482	-0.368567
O2	O	-4.054936	0.005169	-0.350347
O3	O	-4.023963	-0.220870	-0.376822
O4	O	-4.040235	-0.109850	-0.524395
O5	O	-4.038551	-0.106619	-0.201752
V6	V	-4.551593	-0.097520	-0.347305
O7	O	-4.337231	-0.142111	-0.415206
O8	O	-4.735103	-0.066892	-0.300667
O9	O	-4.374968	0.011868	-0.339051
O10	O	-4.684598	-0.214171	-0.365525
O11	O	-4.700983	-0.102383	-0.514121
O12	O	-4.358696	-0.099152	-0.191477
C13	C	-3.868820	-0.247534	-0.373788
C14	C	-3.912142	-0.336960	-0.381576
C15	C	-3.879811	-0.367431	-0.279057
C16	C	-3.920536	-0.451457	-0.286379
C17	C	-3.993578	-0.505011	-0.396220
C18	C	-4.025916	-0.474535	-0.498747
C19	C	-3.985205	-0.390511	-0.491425
C20	C	-4.120997	-0.757547	-0.429506
C21	C	-4.161701	-0.841576	-0.436820
C22	C	-4.056321	-0.818492	-0.224451
C23	C	-4.015602	-0.734467	-0.217138
C24	C	-4.047955	-0.703999	-0.319665
N25	N	-4.035201	-0.590899	-0.403706
N26	N	-4.006346	-0.618112	-0.312178
C27	C	-3.889576	-0.105916	-0.562031
C28	C	-3.946090	-0.105305	-0.689493
C29	C	-4.049520	-0.104188	-0.922858
C30	C	-3.991956	-0.104809	-0.792997
C31	C	-4.193452	0.038527	-0.342082
C32	C	-4.129369	0.127953	-0.334301
C33	C	-4.172696	-0.103089	-0.153835
C34	C	-4.095420	-0.103696	-0.026372
H35	H	-4.085405	-0.518146	-0.588183
H36	H	-3.894211	-0.476262	-0.202897
N37	N	-3.936658	-0.676703	-0.098661
H38	H	-3.922303	-0.708756	-0.034822
H39	H	-4.041730	-0.644090	-0.095093
N40	N	-4.020085	-0.357641	-0.601998
H41	H	-4.072531	-0.404316	-0.672694
H42	H	-3.881135	-0.320493	-0.599423
H43	H	-3.820319	-0.323832	-0.189611
H44	H	-4.029989	-0.843309	-0.140979
H45	H	-4.221172	-0.885179	-0.526271
N46	N	-4.155874	-0.724690	-0.540083
H47	H	-4.208309	-0.771367	-0.610774
H48	H	-4.016917	-0.687543	-0.537503
