data_functionalizedCrystal
_audit_creation_method	'MofGen! by Chris Wilmer'
_symmetry_space_group_name_H-M	'P1'
_symmetry_Int_Tables_number	1
_symmetry_cell_setting	triclinic
loop_
_symmetry_equiv_pos_as_xyz
  x,y,z
_cell_length_a	15.944499
_cell_length_b	15.944493
_cell_length_c	14.421503
_cell_angle_alpha	90.010165
_cell_angle_beta	89.989779
_cell_angle_gamma	83.476327
loop_
_atom_site_label
_atom_site_type_symbol
_atom_site_fract_x
_atom_site_fract_y
_atom_site_fract_z
O1	O	1.114534	0.108117	-0.077155
O2	O	1.447867	0.441450	0.256178
O3	O	1.781201	0.774783	0.589512
O4	O	0.869975	0.121519	-0.077143
O5	O	1.203309	0.454852	0.256190
O6	O	1.536642	0.788185	0.589524
O7	O	0.998958	-0.007462	-0.077157
O8	O	1.332292	0.325871	0.256176
O9	O	1.665625	0.659205	0.589510
O10	O	0.985551	0.237097	-0.077141
O11	O	1.318884	0.570430	0.256192
O12	O	1.652218	0.903764	0.589526
O13	O	0.998937	-0.007443	0.077066
O14	O	1.332270	0.325891	0.410400
O15	O	1.665604	0.659224	0.743733
O16	O	0.869954	0.121538	0.077080
O17	O	1.203287	0.454871	0.410414
O18	O	1.536621	0.788204	0.743747
O19	O	1.114512	0.108136	0.077068
O20	O	1.447846	0.441469	0.410402
O21	O	1.781179	0.774802	0.743735
Cu22	Cu	0.992231	0.114839	0.091156
Cu23	Cu	1.325565	0.448172	0.424490
Cu24	Cu	1.658898	0.781505	0.757823
Cu25	Cu	0.992257	0.114816	-0.091231
Cu26	Cu	1.325590	0.448149	0.242102
Cu27	Cu	1.658923	0.781482	0.575436
O28	O	0.985530	0.237116	0.077082
O29	O	1.318863	0.570449	0.410416
O30	O	1.652196	0.903783	0.743749
C31	C	0.838670	0.120979	-0.000030
C32	C	1.172004	0.454313	0.333303
C33	C	1.505337	0.787646	0.666637
C34	C	0.745422	0.119334	-0.000026
C35	C	1.078756	0.452668	0.333307
C36	C	1.412089	0.786001	0.666640
C37	C	0.453871	0.194269	-0.000035
C38	C	0.787204	0.527602	0.333298
C39	C	1.120537	0.860935	0.666632
C40	C	0.514918	0.155307	-0.076080
C41	C	0.848252	0.488640	0.257254
C42	C	1.181585	0.821973	0.590587
C43	C	0.409787	0.113358	-0.000048
C44	C	0.743120	0.446691	0.333285
C45	C	1.076454	0.780025	0.666619
C46	C	0.514883	0.155304	0.075973
C47	C	0.848217	0.488637	0.409306
C48	C	1.181550	0.821970	0.742639
C49	C	0.574695	0.116299	-0.000036
C50	C	0.908028	0.449632	0.333298
C51	C	1.241362	0.782965	0.666631
C52	C	0.469607	0.074373	-0.076155
C53	C	0.802940	0.407707	0.257178
C54	C	1.136273	0.741040	0.590511
C55	C	0.469565	0.074382	0.075965
C56	C	0.802898	0.407715	0.409299
C57	C	1.136232	0.741049	0.742632
C58	C	0.530595	0.035361	-0.000098
C59	C	0.863929	0.368694	0.333236
C60	C	1.197262	0.702028	0.666569
C61	C	0.314787	0.111666	-0.000056
C62	C	0.648121	0.445000	0.333277
C63	C	0.981454	0.778333	0.666611
C64	C	0.669694	0.117984	-0.000035
C65	C	1.003027	0.451318	0.333299
C66	C	1.336360	0.784651	0.666632
C67	C	0.998400	-0.038747	-0.000049
C68	C	1.331733	0.294586	0.333284
C69	C	1.665066	0.627920	0.666617
C70	C	0.996757	-0.131995	-0.000061
C71	C	1.330090	0.201338	0.333272
C72	C	1.663423	0.534671	0.666606
C73	C	1.072679	-0.367769	-0.000047
C74	C	1.406012	-0.034436	0.333286
C75	C	1.739346	0.298897	0.666620
C76	C	1.031748	-0.418339	-0.076085
C77	C	1.365081	-0.085006	0.257248
C78	C	1.698414	0.248328	0.590582
C79	C	0.993713	-0.302716	-0.000050
C80	C	1.327046	0.030618	0.333284
C81	C	1.660379	0.363951	0.666617
C82	C	1.031708	-0.418296	0.075967
C83	C	1.365041	-0.084963	0.409301
C84	C	1.698375	0.248370	0.742634
C85	C	0.990778	-0.467625	-0.000034
C86	C	1.324111	-0.134291	0.333299
C87	C	1.657445	0.199042	0.666632
C88	C	0.952802	-0.352057	-0.076150
C89	C	1.286136	-0.018724	0.257183
C90	C	1.619469	0.314609	0.590517
C91	C	0.952775	-0.352011	0.075971
C92	C	1.286108	-0.018678	0.409304
C93	C	1.619441	0.314656	0.742637
C94	C	0.911785	-0.402548	-0.000086
C95	C	1.245118	-0.069215	0.333248
C96	C	1.578452	0.264118	0.666581
C97	C	0.995405	-0.207716	-0.000059
C98	C	1.328739	0.125617	0.333274
C99	C	1.662072	0.458951	0.666608
C100	C	0.989079	-0.562622	-0.000031
C101	C	1.322412	-0.229288	0.333302
C102	C	1.655746	0.104045	0.666635
C103	C	1.145818	0.108675	-0.000047
C104	C	1.479151	0.442008	0.333287
C105	C	1.812484	0.775342	0.666620
C106	C	1.239066	0.110320	-0.000057
C107	C	1.572399	0.443653	0.333277
C108	C	1.905732	0.776987	0.666610
C109	C	0.986088	0.268401	-0.000027
C110	C	1.319422	0.601735	0.333306
C111	C	1.652755	0.935068	0.666639
C112	C	0.987731	0.361650	-0.000022
C113	C	1.321064	0.694983	0.333312
C114	C	1.654398	1.028316	0.666645
N115	N	0.992220	0.114854	0.219437
N116	N	1.325553	0.448187	0.552771
N117	N	1.658886	0.781521	0.886104
N118	N	0.992275	0.114794	-0.219512
N119	N	1.325608	0.448127	0.113821
N120	N	1.658942	0.781460	0.447155
C121	C	0.932567	0.174468	0.469098
C122	C	1.265901	0.507801	0.802431
C123	C	1.599234	0.841134	1.135764
C124	C	1.008466	0.190761	0.530898
C125	C	1.341799	0.524095	0.864231
C126	C	1.675133	0.857428	1.197565
C127	C	0.992240	0.114834	0.408599
C128	C	1.325573	0.448167	0.741932
C129	C	1.658907	0.781501	1.075266
C130	C	0.916361	0.098560	0.530892
C131	C	1.249695	0.431893	0.864226
C132	C	1.583028	0.765227	1.197559
C133	C	0.992253	0.114816	0.591320
C134	C	1.325586	0.448150	0.924654
C135	C	1.658920	0.781483	1.257987
C136	C	1.068177	0.131165	0.469038
C137	C	1.401510	0.464499	0.802372
C138	C	1.734844	0.797832	1.135705
C139	C	0.976022	0.038931	0.469027
C140	C	1.309356	0.372264	0.802361
C141	C	1.642689	0.705598	1.135694
C142	C	1.051976	0.055192	0.530800
C143	C	1.385309	0.388526	0.864133
C144	C	1.718642	0.721859	1.197467
C145	C	0.992231	0.114846	0.303338
C146	C	1.325565	0.448179	0.636671
C147	C	1.658898	0.781513	0.970004
C148	C	0.992270	0.114804	0.696579
C149	C	1.325604	0.448137	1.029913
C150	C	1.658937	0.781470	1.363246
H151	H	0.535018	0.189523	-0.140361
H152	H	0.868352	0.522857	0.192972
H153	H	1.201685	0.856190	0.526306
Cl154	Cl	0.438792	0.021565	-0.175521
Cl155	Cl	0.772126	0.354898	0.157812
Cl156	Cl	1.105459	0.688232	0.491146
H157	H	1.065105	-0.447299	-0.140373
H158	H	1.398438	-0.113966	0.192960
H159	H	1.731772	0.219368	0.526293
H160	H	0.563787	-0.031847	-0.000143
H161	H	0.897120	0.301486	0.333191
H162	H	1.230453	0.634820	0.666524
H163	H	0.449446	0.040196	0.140252
H164	H	0.782780	0.373529	0.473586
H165	H	1.116113	0.706863	0.806919
H166	H	0.534943	0.189547	0.140260
H167	H	0.868276	0.522881	0.473593
H168	H	1.201609	0.856214	0.806927
Cl169	Cl	1.177694	-0.343655	-0.000166
Cl170	Cl	1.511027	-0.010322	0.333167
Cl171	Cl	1.844360	0.323011	0.666500
H172	H	1.065064	-0.447226	0.140247
H173	H	1.398398	-0.113892	0.473581
H174	H	1.731731	0.219441	0.806914
H175	H	1.022195	0.254943	0.558074
H176	H	1.355529	0.588277	0.891407
H177	H	1.688862	0.921610	1.224740
Cl178	Cl	0.901361	-0.307571	-0.175510
Cl179	Cl	1.234695	0.025763	0.157824
Cl180	Cl	1.568028	0.359096	0.491157
H181	H	0.843713	-0.418002	-0.000124
H182	H	1.177046	-0.084668	0.333209
H183	H	1.510379	0.248665	0.666543
Cl184	Cl	0.901335	-0.307253	0.175232
Cl185	Cl	1.234668	0.026081	0.508565
Cl186	Cl	1.568001	0.359414	0.841899
H187	H	0.420527	0.261416	-0.000104
H188	H	0.753860	0.594750	0.333229
H189	H	1.087193	0.928083	0.666562
Cl190	Cl	0.817282	0.077318	0.572843
Cl191	Cl	1.150615	0.410651	0.906176
Cl192	Cl	1.483948	0.743984	1.239509
H193	H	1.132366	0.144999	0.441983
H194	H	1.465699	0.478333	0.775316
H195	H	1.799032	0.811666	1.108650
Cl196	Cl	0.854737	0.252387	0.427262
Cl197	Cl	1.188070	0.585720	0.760595
Cl198	Cl	1.521403	0.919053	1.093928
Cl199	Cl	1.129977	-0.022683	0.572374
Cl200	Cl	1.463310	0.310650	0.905708
Cl201	Cl	1.796644	0.643983	1.239041
Cl202	Cl	0.954788	-0.060130	0.427032
Cl203	Cl	1.288122	0.273203	0.760365
Cl204	Cl	1.621455	0.606537	1.093699
