data_functionalizedCrystal
_audit_creation_method	'MofGen! by Chris Wilmer'
_symmetry_space_group_name_H-M	'P1'
_symmetry_Int_Tables_number	1
_symmetry_cell_setting	triclinic
loop_
_symmetry_equiv_pos_as_xyz
  x,y,z
_cell_length_a	19.288840
_cell_length_b	27.731996
_cell_length_c	18.366186
_cell_angle_alpha	89.987769
_cell_angle_beta	89.983729
_cell_angle_gamma	82.873701
loop_
_atom_site_label
_atom_site_type_symbol
_atom_site_fract_x
_atom_site_fract_y
_atom_site_fract_z
O1	O	0.920972	0.060244	-0.060681
O2	O	1.420972	0.560244	0.439319
O3	O	0.718656	0.068391	-0.060657
O4	O	1.218656	0.568391	0.439343
O5	O	0.826116	-0.006063	-0.060654
O6	O	1.326116	0.493937	0.439346
O7	O	0.813511	0.134697	-0.060684
O8	O	1.313511	0.634697	0.439316
O9	O	0.826098	-0.006066	0.060446
O10	O	1.326098	0.493934	0.560446
O11	O	0.718638	0.068387	0.060443
O12	O	1.218638	0.568387	0.560443
O13	O	0.920954	0.060240	0.060419
O14	O	1.420954	0.560240	0.560419
Zn15	Zn	0.819793	0.064313	0.079658
Zn16	Zn	1.319793	0.564313	0.579658
Zn17	Zn	0.819817	0.064318	-0.079896
Zn18	Zn	1.319817	0.564318	0.420104
O19	O	0.813493	0.134694	0.060416
O20	O	1.313493	0.634694	0.560416
C21	C	0.692772	0.068129	-0.000104
C22	C	1.192772	0.568129	0.499896
C23	C	0.615672	0.067348	-0.000094
C24	C	1.115672	0.567348	0.499906
C25	C	0.579481	0.066975	-0.066107
C26	C	1.079481	0.566975	0.433893
C27	C	0.507039	0.066236	-0.066116
C28	C	1.007039	0.566236	0.433884
C29	C	0.470793	0.065860	-0.000108
C30	C	0.970793	0.565860	0.499892
C31	C	0.506992	0.066236	0.065914
C32	C	1.006992	0.566236	0.565914
C33	C	0.579432	0.066980	0.065921
C34	C	1.079432	0.566980	0.565921
C35	C	0.361649	0.036367	0.050460
C36	C	0.861649	0.536367	0.550460
C37	C	0.289212	0.035620	0.050450
C38	C	0.789212	0.535620	0.550450
C39	C	0.247364	0.063568	-0.000126
C40	C	0.747364	0.563568	0.499874
C41	C	0.277964	0.092256	-0.050705
C42	C	0.777964	0.592256	0.449295
C43	C	0.350404	0.093000	-0.050698
C44	C	0.850404	0.593000	0.449302
C45	C	0.392244	0.065054	-0.000108
C46	C	0.892244	0.565054	0.499892
C47	C	0.132623	0.062394	-0.066153
C48	C	0.632623	0.562394	0.433847
C49	C	0.060179	0.061658	-0.066159
C50	C	0.560179	0.561658	0.433841
C51	C	0.060134	0.061653	0.065873
C52	C	0.560134	0.561653	0.565873
C53	C	0.132576	0.062394	0.065877
C54	C	0.632576	0.562394	0.565877
C55	C	0.168816	0.062762	-0.000138
C56	C	0.668816	0.562762	0.499862
C57	C	0.825848	-0.024073	-0.000101
C58	C	1.325848	0.475927	0.499899
C59	C	0.825068	-0.077731	-0.000094
C60	C	1.325068	0.422269	0.499906
C61	C	0.820171	-0.410460	-0.066140
C62	C	1.320171	0.089540	0.433860
C63	C	0.817210	-0.612127	-0.066153
C64	C	1.317210	-0.112127	0.433847
O65	O	0.816805	-0.638197	-0.122293
O66	O	1.316805	-0.138197	0.377707
N67	N	0.816832	-0.637347	-0.000142
N68	N	1.316832	-0.137347	0.499858
C69	C	0.817190	-0.612147	0.065877
C70	C	1.317190	-0.112147	0.565877
O71	O	0.816794	-0.638225	0.122022
O72	O	1.316794	-0.138225	0.622022
C73	C	0.820147	-0.410481	0.065888
C74	C	1.320147	0.089519	0.565888
C75	C	0.820532	-0.385264	-0.000127
C76	C	1.320532	0.114736	0.499873
C77	C	0.820555	-0.385243	-0.132150
C78	C	1.320555	0.114757	0.367850
C79	C	0.821299	-0.334830	-0.132146
C80	C	1.321299	0.165170	0.367854
C81	C	0.821660	-0.309633	-0.066133
C82	C	1.321660	0.190367	0.433867
C83	C	0.821276	-0.334850	-0.000123
C84	C	1.321276	0.165150	0.499877
C85	C	0.820500	-0.385281	0.131906
C86	C	1.320500	0.114719	0.631906
C87	C	0.821237	-0.334861	0.131903
C88	C	1.321237	0.165139	0.631903
C89	C	0.821622	-0.309644	0.065888
C90	C	1.321622	0.190356	0.565888
C91	C	0.822380	-0.259241	0.065894
C92	C	1.322380	0.240759	0.565894
N93	N	0.822758	-0.234020	-0.000116
N94	N	1.322758	0.265980	0.499884
C95	C	0.822398	-0.259217	-0.066130
C96	C	1.322398	0.240783	0.433870
C97	C	0.815639	-0.718025	0.065866
C98	C	1.315639	-0.218025	0.565866
C99	C	0.814901	-0.768442	0.065863
C100	C	1.314901	-0.268442	0.565863
C101	C	0.814920	-0.768418	-0.066166
C102	C	1.314920	-0.268418	0.433834
C103	C	0.815663	-0.718001	-0.066163
C104	C	1.315663	-0.218001	0.433837
C105	C	0.816017	-0.692805	-0.000145
C106	C	1.316017	-0.192805	0.499855
C107	C	0.823961	-0.153345	-0.066117
C108	C	1.323961	0.346655	0.433883
C109	C	0.824708	-0.102928	-0.066107
C110	C	1.324708	0.397072	0.433893
C111	C	0.824686	-0.102955	0.065922
C112	C	1.324686	0.397045	0.565922
C113	C	0.823943	-0.153369	0.065912
C114	C	1.323943	0.346631	0.565912
C115	C	0.823578	-0.178562	-0.000113
C116	C	1.323578	0.321438	0.499887
O117	O	0.822777	-0.233139	0.122005
O118	O	1.322777	0.266861	0.622005
O119	O	0.822779	-0.233129	-0.122267
O120	O	1.322779	0.266871	0.377733
C121	C	0.819427	-0.460873	-0.066144
C122	C	1.319427	0.039127	0.433856
C123	C	0.819043	-0.486090	-0.000134
C124	C	1.319043	0.013910	0.499866
C125	C	0.819403	-0.460894	0.065879
C126	C	1.319403	0.039106	0.565879
C127	C	0.818305	-0.536507	-0.000137
C128	C	1.318305	-0.036507	0.499863
C129	C	0.817945	-0.561703	-0.066150
C130	C	1.317945	-0.061703	0.433850
C131	C	0.818323	-0.536483	-0.132161
C132	C	1.318323	-0.036483	0.367839
C133	C	0.819067	-0.486070	-0.132157
C134	C	1.319067	0.013930	0.367843
C135	C	0.819026	-0.486114	0.131890
C136	C	1.319026	0.013886	0.631890
C137	C	0.818282	-0.536528	0.131881
C138	C	1.318282	-0.036528	0.631881
C139	C	0.817922	-0.561724	0.065867
C140	C	1.317922	-0.061724	0.565867
C141	C	0.946838	0.060502	-0.000136
C142	C	1.446838	0.560502	0.499864
C143	C	1.023937	0.061283	-0.000150
C144	C	1.523937	0.561283	0.499850
C145	C	0.813761	0.152703	-0.000138
C146	C	1.313761	0.652703	0.499862
C147	C	0.814541	0.206362	-0.000150
C148	C	1.314541	0.706362	0.499850
N149	N	0.819782	0.064309	0.188549
N150	N	1.319782	0.564309	0.688549
N151	N	0.819833	0.064318	-0.188787
N152	N	1.319833	0.564318	0.311213
C153	C	0.867380	0.031358	0.226651
C154	C	1.367380	0.531358	0.726651
C155	C	0.867385	0.031355	0.302879
C156	C	1.367385	0.531355	0.802879
C157	C	0.819797	0.064313	0.341002
C158	C	1.319797	0.564313	0.841002
C159	C	0.772189	0.097268	0.302891
C160	C	1.272189	0.597268	0.802891
C161	C	0.772182	0.097266	0.226664
C162	C	1.272182	0.597266	0.726664
C163	C	0.810212	0.108358	0.461753
C164	C	1.310212	0.608358	0.961753
C165	C	0.810225	0.108361	0.537978
C166	C	1.310225	0.608361	1.037978
C167	C	0.819817	0.064320	0.576109
C168	C	1.319817	0.564320	1.076109
C169	C	0.829411	0.020274	0.538006
C170	C	1.329411	0.520274	1.038006
C171	C	0.829403	0.020272	0.461779
C172	C	1.329403	0.520272	0.961779
C173	C	0.819800	0.064319	0.423656
C174	C	1.319800	0.564319	0.923656
C175	C	0.867423	0.031363	0.696866
C176	C	1.367423	0.531363	1.196866
C177	C	0.867423	0.031360	0.773095
C178	C	1.367423	0.531360	1.273095
C179	C	0.772230	0.097276	0.773106
C180	C	1.272230	0.597276	1.273106
C181	C	0.772227	0.097275	0.696878
C182	C	1.272227	0.597275	1.196878
C183	C	0.819827	0.064319	0.658763
C184	C	1.319827	0.564319	1.158763
H185	H	0.030712	0.061357	-0.119917
H186	H	0.530712	0.561357	0.380083
C187	C	0.823521	-0.181109	0.138526
C188	C	1.323521	0.318891	0.638526
H189	H	0.823839	-0.158880	0.177841
H190	H	1.323839	0.341120	0.677841
H191	H	0.863747	-0.204561	0.141270
H192	H	1.363747	0.295439	0.641270
H193	H	0.782700	-0.196990	0.141271
H194	H	1.282700	0.303010	0.641271
H195	H	0.608983	0.067275	-0.119861
H196	H	1.108983	0.567275	0.380139
C197	C	0.839967	-0.028175	0.579936
C198	C	1.339967	0.471825	1.079936
H199	H	0.845686	-0.054405	0.546326
H200	H	1.345686	0.445595	1.046326
H201	H	0.800315	-0.030788	0.609689
H202	H	1.300315	0.469212	1.109689
H203	H	0.880430	-0.029224	0.609654
H204	H	1.380430	0.470776	1.109654
C205	C	0.231942	0.123003	-0.106340
C206	C	0.731942	0.623003	0.393660
H207	H	0.184416	0.118457	-0.099097
H208	H	0.684416	0.618457	0.400903
H209	H	0.245810	0.113172	-0.154261
H210	H	0.745810	0.613172	0.345739
H211	H	0.237196	0.156350	-0.099974
H212	H	0.737196	0.656350	0.400026
C213	C	0.919769	-0.004892	0.654932
C214	C	1.419769	0.495108	1.154932
H215	H	0.912953	-0.000171	0.604077
H216	H	1.412953	0.499829	1.104077
H217	H	0.912581	-0.037139	0.667440
H218	H	1.412581	0.462861	1.167440
H219	H	0.966071	0.000273	0.667404
H220	H	1.466071	0.500273	1.167404
H221	H	0.395717	0.013607	0.091649
H222	H	0.895717	0.513607	0.591649
C223	C	0.799665	0.156806	0.419817
C224	C	1.299665	0.656806	0.919817
H225	H	0.793965	0.183037	0.453425
H226	H	1.293965	0.683037	0.953425
H227	H	0.759209	0.157861	0.390094
H228	H	1.259209	0.657861	0.890094
H229	H	0.839328	0.159411	0.390067
H230	H	1.339328	0.659411	0.890067
H231	H	0.820259	-0.405752	-0.185909
H232	H	1.320259	0.094248	0.314091
C233	C	0.020275	0.061242	0.138482
C234	C	0.520275	0.561242	0.638482
H235	H	0.052207	0.061573	0.177800
H236	H	0.552207	0.561573	0.677800
H237	H	-0.002373	0.032771	0.141232
H238	H	0.497627	0.532771	0.641232
H239	H	-0.013597	0.089140	0.141216
H240	H	0.486403	0.589140	0.641216
H241	H	0.906181	0.004524	0.804118
H242	H	1.406181	0.504524	1.304118
C243	C	0.172390	0.062798	0.138492
C244	C	0.672390	0.562798	0.638492
H245	H	0.140430	0.062465	0.177804
H246	H	0.640430	0.562465	0.677804
H247	H	0.195034	0.091270	0.141234
H248	H	0.695034	0.591270	0.641234
H249	H	0.206261	0.034902	0.141243
H250	H	0.706261	0.534902	0.641243
C251	C	0.719884	0.133530	0.815032
C252	C	1.219884	0.633530	1.315032
H253	H	0.726708	0.128814	0.865888
H254	H	1.226708	0.628814	1.365888
H255	H	0.673586	0.128365	0.802560
H256	H	1.173586	0.628365	1.302560
H257	H	0.727074	0.165779	0.802525
H258	H	1.227074	0.665779	1.302525
C259	C	0.821709	-0.307096	-0.204763
C260	C	1.321709	0.192904	0.295237
H261	H	0.821380	-0.329328	-0.244073
H262	H	1.321380	0.170672	0.255927
H263	H	0.862516	-0.291205	-0.207523
H264	H	1.362516	0.208795	0.292477
H265	H	0.781469	-0.283651	-0.207500
H266	H	1.281469	0.216349	0.292500
C267	C	0.384053	0.124620	-0.106245
C268	C	0.884053	0.624620	0.393755
H269	H	0.433184	0.121076	-0.098973
H270	H	0.933184	0.621076	0.401027
H271	H	0.365521	0.157708	-0.099803
H272	H	0.865521	0.657708	0.400197
H273	H	0.374218	0.114597	-0.154207
H274	H	0.874218	0.614597	0.345793
H275	H	0.824983	-0.082432	0.119668
H276	H	1.324983	0.417568	0.619668
C277	C	0.172488	0.062808	-0.138765
C278	C	0.672488	0.562808	0.361235
H279	H	0.140554	0.062488	-0.178083
H280	H	0.640554	0.562488	0.321917
H281	H	0.206362	0.034916	-0.141505
H282	H	0.706362	0.534916	0.358495
H283	H	0.195132	0.091284	-0.141507
H284	H	0.695132	0.591284	0.358493
C285	C	0.255556	0.004055	0.106070
C286	C	0.755556	0.504055	0.606070
H287	H	0.206422	0.007607	0.098814
H288	H	0.706422	0.507607	0.598814
H289	H	0.265421	0.014125	0.153996
H290	H	0.765421	0.514125	0.653996
H291	H	0.274057	-0.029047	0.099700
H292	H	0.774057	0.470953	0.599700
C293	C	0.820070	-0.413008	0.204524
C294	C	1.320070	0.086992	0.704524
H295	H	0.820380	-0.390774	0.243833
H296	H	1.320380	0.109226	0.743833
H297	H	0.860298	-0.436457	0.207277
H298	H	1.360298	0.063543	0.707277
H299	H	0.779251	-0.428892	0.207269
H300	H	1.279251	0.071108	0.707269
H301	H	0.477476	0.065931	0.119658
H302	H	0.977476	0.565931	0.619658
H303	H	0.608898	0.067284	0.119679
H304	H	1.108898	0.567284	0.619679
H305	H	0.825023	-0.082398	-0.119867
H306	H	1.325023	0.417602	0.380133
H307	H	0.823660	-0.173851	-0.119881
H308	H	1.323660	0.326149	0.380119
C309	C	0.817856	-0.564263	0.204500
C310	C	1.317856	-0.064263	0.704500
H311	H	0.817363	-0.597899	0.195051
H312	H	1.317363	-0.097899	0.695051
H313	H	0.777450	-0.552219	0.231621
H314	H	1.277450	-0.052219	0.731621
H315	H	0.858497	-0.559786	0.231624
H316	H	1.358497	-0.059786	0.731624
C317	C	0.467217	0.065823	-0.138731
C318	C	0.967217	0.565823	0.361269
H319	H	0.418884	0.065329	-0.129278
H320	H	0.918884	0.565329	0.370722
H321	H	0.484713	0.037761	-0.165845
H322	H	0.984713	0.537761	0.334155
H323	H	0.473480	0.094130	-0.165863
H324	H	0.973480	0.594130	0.334137
H325	H	0.733441	0.124102	0.333935
H326	H	1.233441	0.624102	0.833935
C327	C	0.816079	-0.690266	-0.138778
C328	C	1.316079	-0.190266	0.361222
H329	H	0.815755	-0.712497	-0.178090
H330	H	1.315755	-0.212497	0.321910
H331	H	0.856886	-0.674375	-0.141531
H332	H	1.356886	-0.174375	0.358469
H333	H	0.775839	-0.666821	-0.141520
H334	H	1.275839	-0.166821	0.358480
C335	C	0.814517	-0.796139	-0.138780
C336	C	1.314517	-0.296139	0.361220
H337	H	0.814016	-0.829776	-0.129320
H338	H	1.314016	-0.329776	0.370680
H339	H	0.855158	-0.791655	-0.165918
H340	H	1.355158	-0.291655	0.334082
H341	H	0.774111	-0.784094	-0.165891
H342	H	1.274111	-0.284094	0.334109
C343	C	0.817936	-0.564204	-0.204776
C344	C	1.317936	-0.064204	0.295224
H345	H	0.818277	-0.541969	-0.244095
H346	H	1.318277	-0.041969	0.255905
H347	H	0.777130	-0.580094	-0.207518
H348	H	1.277130	-0.080094	0.292482
H349	H	0.858177	-0.587649	-0.207515
H350	H	1.358177	-0.087649	0.292485
C351	C	0.814484	-0.796175	0.138479
C352	C	1.314484	-0.296175	0.638479
H353	H	0.814798	-0.773944	0.177791
H354	H	1.314798	-0.273944	0.677791
H355	H	0.854715	-0.819623	0.141225
H356	H	1.354715	-0.319623	0.641225
H357	H	0.773668	-0.812062	0.141227
H358	H	1.273668	-0.312062	0.641227
C359	C	0.839945	-0.028173	0.419866
C360	C	1.339945	0.471827	0.919866
H361	H	0.845755	-0.054403	0.453486
H362	H	1.345755	0.445597	0.953486
H363	H	0.880338	-0.029197	0.390031
H364	H	1.380338	0.470803	0.890031
H365	H	0.800234	-0.030809	0.390230
H366	H	1.300234	0.469191	0.890230
H367	H	0.821516	-0.314348	0.185664
H368	H	1.321516	0.185652	0.685664
C369	C	0.816039	-0.690316	0.138490
C370	C	1.316039	-0.190316	0.638490
H371	H	0.815716	-0.712562	0.177798
H372	H	1.315716	-0.212562	0.677798
H373	H	0.775807	-0.666869	0.141251
H374	H	1.275807	-0.166869	0.641251
H375	H	0.856854	-0.674431	0.141231
H376	H	1.356854	-0.174431	0.641231
C377	C	0.799676	0.156808	0.579885
C378	C	1.299676	0.656808	1.079885
H379	H	0.793951	0.183036	0.546260
H380	H	1.293951	0.683036	1.046260
H381	H	0.839338	0.159420	0.609601
H382	H	1.339338	0.659420	1.109601
H383	H	0.759222	0.157859	0.609639
H384	H	1.259222	0.657859	1.109639
C385	C	0.819483	-0.458337	-0.204774
C386	C	1.319483	0.041663	0.295226
H387	H	0.819155	-0.480569	-0.244085
H388	H	1.319155	0.019431	0.255915
H389	H	0.860292	-0.442447	-0.207530
H390	H	1.360292	0.057553	0.292470
H391	H	0.779245	-0.434891	-0.207516
H392	H	1.279245	0.065109	0.292484
H393	H	0.906147	0.004521	0.333907
H394	H	1.406147	0.504521	0.833907
C395	C	0.919731	-0.004898	0.184728
C396	C	1.419731	0.495102	0.684728
H397	H	0.948076	-0.024526	0.218342
H398	H	1.448076	0.475474	0.718342
H399	H	0.948448	0.012435	0.154970
H400	H	1.448448	0.512435	0.654970
H401	H	0.894960	-0.024978	0.155014
H402	H	1.394960	0.475022	0.655014
H403	H	0.819320	-0.465605	0.185647
H404	H	1.319320	0.034395	0.685647
C405	C	0.719882	0.133530	0.654961
C406	C	1.219882	0.633530	1.154961
H407	H	0.726692	0.128808	0.604104
H408	H	1.226692	0.628808	1.104104
H409	H	0.727075	0.165777	0.667441
H410	H	1.227075	0.665777	1.167441
H411	H	0.673581	0.128367	0.667470
H412	H	1.173581	0.628367	1.167470
C413	C	0.719826	0.133518	0.184751
C414	C	1.219826	0.633518	0.684751
H415	H	0.691486	0.153149	0.218370
H416	H	1.191486	0.653149	0.718370
H417	H	0.691104	0.116183	0.155029
H418	H	1.191104	0.616183	0.655029
H419	H	0.744593	0.153596	0.155002
H420	H	1.244593	0.653596	0.655002
