data_functionalizedCrystal
_audit_creation_method	'MofGen! by Chris Wilmer'
_symmetry_space_group_name_H-M	'P1'
_symmetry_Int_Tables_number	1
_symmetry_cell_setting	triclinic
loop_
_symmetry_equiv_pos_as_xyz
  x,y,z
_cell_length_a	6.817900
_cell_length_b	10.992421
_cell_length_c	19.453030
_cell_angle_alpha	94.462411
_cell_angle_beta	101.707737
_cell_angle_gamma	108.764763
loop_
_atom_site_label
_atom_site_type_symbol
_atom_site_fract_x
_atom_site_fract_y
_atom_site_fract_z
V1	V	-4.033975	-0.179098	-0.218989
O2	O	-3.993628	0.007230	-0.214830
O3	O	-4.012107	-0.353798	-0.217481
O4	O	-3.976556	-0.176947	-0.314502
O5	O	-4.029424	-0.170845	-0.117138
V6	V	-4.515334	-0.156740	-0.206808
O7	O	-4.299981	-0.228143	-0.245709
O8	O	-4.699526	-0.107695	-0.180088
O9	O	-4.313996	0.017960	-0.208315
O10	O	-4.673079	-0.343068	-0.210966
O11	O	-4.637282	-0.164993	-0.308658
O12	O	-4.349547	-0.158891	-0.111295
C13	C	-3.863854	-0.396367	-0.214024
C14	C	-3.927200	-0.539190	-0.213428
C15	C	-3.796625	-0.734448	-0.208625
C16	C	-3.730418	-0.585806	-0.208967
C17	C	-4.021820	-0.577425	-0.147927
C18	C	-4.086310	-0.725964	-0.147233
C19	C	-4.168595	-0.765366	-0.281508
C20	C	-4.099020	-0.616861	-0.282929
C21	C	-3.818504	-0.170775	-0.337783
C22	C	-3.853017	-0.170172	-0.415865
C23	C	-3.926344	-0.287609	-0.462564
C24	C	-3.958798	-0.287056	-0.535932
C25	C	-3.917880	-0.169058	-0.562597
C26	C	-3.844553	-0.051606	-0.515888
C27	C	-3.812121	-0.052163	-0.442522
N28	N	-3.812154	-0.076544	-0.668096
N29	N	-3.842962	-0.076022	-0.737791
C30	C	-4.015595	-0.167374	-0.783644
N31	N	-4.156241	-0.259285	-0.757170
N32	N	-4.125423	-0.259809	-0.687469
C33	C	-3.953042	-0.168441	-0.642149
C34	C	-4.124120	-0.284220	-0.909898
C35	C	-4.156585	-0.283663	-0.983267
C36	C	-4.042316	-0.048208	-0.963222
C37	C	-4.009874	-0.048769	-0.889854
C38	C	-4.050770	-0.166779	-0.863197
C39	C	-4.125593	0.060522	-0.211770
C40	C	-4.041484	0.203344	-0.212371
C41	C	-4.170942	-0.165067	-0.088010
C42	C	-4.115667	-0.165664	-0.009927
H43	H	-3.699109	-0.754703	-0.158766
Br44	Br	-3.818941	-0.486505	-0.062165
Br45	Br	-4.127768	-0.848410	-0.364118
H46	H	-4.009012	0.047868	-0.984932
H47	H	-4.262559	-0.766847	-0.147130
H48	H	-3.753752	-0.781152	-0.255138
H49	H	-3.959658	-0.383702	-0.440865
Br50	Br	-3.789037	0.108535	-0.552075
H51	H	-4.347186	-0.806504	-0.284941
Br52	Br	-4.344210	-0.566595	-0.295125
Br53	Br	-4.179615	-0.444370	-0.873715
Br54	Br	-3.712575	0.107230	-0.379140
Br55	Br	-4.264090	-0.527042	-0.149181
Br56	Br	-4.256135	-0.443057	-1.046648
H57	H	-4.018505	-0.382691	-0.573961
Br58	Br	-3.606590	-0.543331	-0.286971
H59	H	-3.950153	0.046861	-0.851831
H60	H	-3.600029	-0.533059	-0.159066
Br61	Br	-3.933421	-0.754635	-0.060551
H62	H	-4.032256	-0.593261	-0.331390
