data_functionalizedCrystal
_audit_creation_method	'MofGen! by Chris Wilmer'
_symmetry_space_group_name_H-M	'P1'
_symmetry_Int_Tables_number	1
_symmetry_cell_setting	triclinic
loop_
_symmetry_equiv_pos_as_xyz
  x,y,z
_cell_length_a	17.019372
_cell_length_b	16.098678
_cell_length_c	10.967829
_cell_angle_alpha	104.868202
_cell_angle_beta	84.882204
_cell_angle_gamma	83.409482
loop_
_atom_site_label
_atom_site_type_symbol
_atom_site_fract_x
_atom_site_fract_y
_atom_site_fract_z
O1	O	1.046657	0.017264	0.160321
O2	O	0.816113	0.036923	0.182187
O3	O	0.938033	0.000232	-0.012571
O4	O	0.924736	0.053955	0.355079
O5	O	0.945119	-0.140413	-0.023910
O6	O	0.823198	-0.103722	0.170848
O7	O	1.053742	-0.123381	0.148982
Zn8	Zn	0.939595	-0.135882	0.158115
Zn9	Zn	0.930260	0.049424	0.173054
O10	O	0.931822	-0.086691	0.343740
C11	C	0.790160	-0.031373	0.175913
C12	C	0.702274	-0.025335	0.174098
C13	C	0.205014	0.012708	0.164105
C14	C	0.287593	0.007024	0.165809
C15	C	0.332736	-0.072484	0.160490
C16	C	0.295297	-0.146313	0.153452
C17	C	0.212721	-0.140630	0.151739
C18	C	0.582258	-0.093481	0.165347
C19	C	0.664840	-0.099159	0.167065
C20	C	0.657130	0.054178	0.179419
C21	C	0.574552	0.059856	0.177713
C22	C	0.537121	-0.013974	0.170669
C23	C	0.417145	-0.078295	0.162236
C24	C	0.452714	-0.008163	0.168913
N25	N	0.945972	-0.262350	0.147918
C26	C	0.894214	-0.290386	0.230550
C27	C	0.898698	-0.378919	0.223411
C28	C	0.954937	-0.439415	0.133633
C29	C	1.006700	-0.411374	0.050997
C30	C	1.002220	-0.322841	0.058143
C31	C	0.971171	-0.707537	0.107751
C32	C	0.975647	-0.796075	0.100609
C33	C	0.867645	-0.763613	0.273026
C34	C	0.863166	-0.675081	0.280158
C35	C	0.914932	-0.647047	0.197527
C36	C	0.959520	-0.529911	0.126331
C37	C	0.910352	-0.556552	0.204835
C38	C	1.079694	-0.055084	0.155256
C39	C	1.167580	-0.061116	0.157071
C40	C	0.941144	-0.076808	-0.065270
C41	C	0.939847	-0.096823	-0.205404
N42	N	0.923889	0.175889	0.183241
C43	C	0.935598	-0.032887	-0.261999
C44	C	0.934257	-0.053573	-0.406835
C45	C	0.928711	-0.009649	0.396439
C46	C	0.930008	0.010372	0.536573
H47	H	0.332060	-0.211051	0.149113
H48	H	0.453910	-0.143030	0.157908
H49	H	1.021446	-0.845329	0.027495
H50	H	0.182242	-0.200743	0.146025
H51	H	1.052495	-0.460635	-0.022099
H52	H	0.537802	0.124599	0.182043
H53	H	0.551794	-0.153603	0.159593
H54	H	0.856554	-0.401744	0.290698
H55	H	1.044367	-0.300017	-0.009144
H56	H	0.927353	0.080430	-0.404659
H57	H	0.318068	0.067138	0.171529
H58	H	0.942486	-0.166874	-0.264175
H59	H	0.168263	0.077453	0.168445
H60	H	0.848415	-0.241134	0.303652
H61	H	0.687616	0.114287	0.185153
H62	H	0.817372	-0.625826	0.353263
H63	H	0.825500	-0.786447	0.340302
H64	H	1.013320	-0.684719	0.040466
H65	H	0.864565	-0.507293	0.277937
H66	H	0.701593	-0.163905	0.162742
H67	H	0.415956	0.056570	0.173239
H68	H	1.005310	-0.579175	0.053230
H69	H	0.932949	0.037165	-0.203227
H70	H	0.936897	-0.123629	-0.465601
