data_functionalizedCrystal
_audit_creation_method	'MofGen! by Chris Wilmer'
_symmetry_space_group_name_H-M	'P1'
_symmetry_Int_Tables_number	1
_symmetry_cell_setting	triclinic
loop_
_symmetry_equiv_pos_as_xyz
  x,y,z
_cell_length_a	21.395361
_cell_length_b	11.169417
_cell_length_c	21.395355
_cell_angle_alpha	90.023022
_cell_angle_beta	89.978489
_cell_angle_gamma	89.971070
loop_
_atom_site_label
_atom_site_type_symbol
_atom_site_fract_x
_atom_site_fract_y
_atom_site_fract_z
Zn1	Zn	-0.249541	-1.834809	-0.354223
Zn2	Zn	0.250459	-1.334809	0.145777
Zn3	Zn	-0.354301	-1.834622	-0.249440
Zn4	Zn	0.145699	-1.334622	0.250560
Zn5	Zn	-0.249538	-1.634090	-0.249462
Zn6	Zn	0.250462	-1.134090	0.250538
Zn7	Zn	-0.354281	-1.634031	-0.354183
Zn8	Zn	0.145719	-1.134031	0.145817
O9	O	-0.301915	-1.734388	-0.301827
O10	O	0.198085	-1.234388	0.198173
O11	O	-0.263447	-2.002734	-0.340330
O12	O	0.236553	-1.502734	0.159670
O13	O	-0.340410	-1.807967	-0.161765
O14	O	0.159590	-1.307967	0.338235
O15	O	-0.161860	-1.660818	-0.263385
O16	O	0.338140	-1.160818	0.236615
O17	O	-0.340413	-2.002596	-0.263347
O18	O	0.159587	-1.502596	0.236653
O19	O	-0.161863	-1.808286	-0.340352
O20	O	0.338137	-1.308286	0.159648
O21	O	-0.263442	-1.660637	-0.161781
O22	O	0.236558	-1.160637	0.338219
O23	O	-0.263423	-1.466132	-0.263346
O24	O	0.236577	-0.966132	0.236654
O25	O	-0.340380	-1.660718	-0.441866
O26	O	0.159620	-1.160718	0.058134
O27	O	-0.340377	-1.466089	-0.340284
O28	O	0.159623	-0.966089	0.159716
O29	O	-0.263428	-1.808228	-0.441895
O30	O	0.236572	-1.308228	0.058105
O31	O	-0.441976	-1.807910	-0.263308
O32	O	0.058024	-1.307910	0.236692
O33	O	-0.441962	-1.660537	-0.340262
O34	O	0.058038	-1.160537	0.159738
C35	C	-0.464703	-1.734229	-0.301792
C36	C	0.035297	-1.234229	0.198208
C37	C	-0.534344	-1.734271	-0.301798
C38	C	-0.034344	-1.234271	0.198202
C39	C	-0.301898	-1.422563	-0.301814
C40	C	0.198102	-0.922563	0.198186
C41	C	-0.301906	-1.289163	-0.301823
C42	C	0.198094	-0.789163	0.198177
C43	C	-0.567044	-1.811077	-0.261769
C44	C	-0.067044	-1.311077	0.238231
C45	C	-0.632479	-1.811132	-0.261783
C46	C	-0.132479	-1.311132	0.238217
C47	C	-0.665212	-1.734361	-0.301820
C48	C	-0.165212	-1.234361	0.198180
C49	C	-0.632505	-1.657551	-0.341856
C50	C	-0.132505	-1.157551	0.158144
C51	C	-0.567071	-1.657506	-0.341846
C52	C	-0.067071	-1.157506	0.158154
C53	C	-0.768926	-1.626297	-0.306731
C54	C	-0.268926	-1.126297	0.193269
C55	C	-0.834359	-1.626341	-0.306737
C56	C	-0.334359	-1.126341	0.193263
C57	C	-0.867033	-1.734501	-0.301856
C58	C	-0.367033	-1.234501	0.198144
C59	C	-0.834266	-1.842622	-0.296956
C60	C	-0.334266	-1.342622	0.203044
C61	C	-0.768832	-1.842577	-0.296945
C62	C	-0.268832	-1.342577	0.203055
C63	C	-0.736165	-1.734402	-0.301836
C64	C	-0.236165	-1.234402	0.198164
C65	C	-0.970685	-1.811374	-0.261840
C66	C	-0.470685	-1.311374	0.238160
C67	C	-1.036122	-1.811431	-0.261859
C68	C	-0.536122	-1.311431	0.238141
C69	C	-1.036146	-1.657839	-0.341929
C70	C	-0.536146	-1.157839	0.158071
C71	C	-0.970711	-1.657792	-0.341914
C72	C	-0.470711	-1.157792	0.158086
C73	C	-0.937984	-1.734558	-0.301866
C74	C	-0.437984	-1.234558	0.198134
C75	C	-0.138492	-1.734579	-0.301876
C76	C	0.361508	-1.234579	0.198124
C77	C	-0.068851	-1.734661	-0.301896
C78	C	0.431149	-1.234661	0.198104
C79	C	-0.301902	-1.734487	-0.465250
C80	C	0.198098	-1.234487	0.034750
C81	C	-0.301897	-1.734530	-0.534892
C82	C	0.198103	-1.234530	-0.034892
C83	C	-0.301927	-1.047430	-0.301836
C84	C	0.198073	-0.547430	0.198164
C85	C	-0.301916	-1.180830	-0.301830
C86	C	0.198084	-0.680830	0.198170
C87	C	-0.261826	-1.811335	-0.567621
C88	C	0.238174	-1.311335	-0.067621
C89	C	-0.261799	-1.811334	-0.633056
C90	C	0.238201	-1.311334	-0.133056
C91	C	-0.301854	-1.734539	-0.665760
C92	C	0.198146	-1.234539	-0.165760
C93	C	-0.341928	-1.657719	-0.633023
C94	C	0.158072	-1.157719	-0.133023
C95	C	-0.341949	-1.657714	-0.567588
C96	C	0.158051	-1.157714	-0.067588
C97	C	-0.358270	-1.725008	-0.769423
C98	C	0.141730	-1.225008	-0.269423
C99	C	-0.358249	-1.725021	-0.834856
C100	C	0.141751	-1.225021	-0.334856
C101	C	-0.301788	-1.734547	-0.867581
C102	C	0.198212	-1.234547	-0.367581
C103	C	-0.245346	-1.744085	-0.834865
C104	C	0.254654	-1.244085	-0.334865
C105	C	-0.245367	-1.744080	-0.769431
C106	C	0.254633	-1.244080	-0.269431
C107	C	-0.301835	-1.734535	-0.736712
C108	C	0.198165	-1.234535	-0.236712
C109	C	-0.261685	-1.811354	-0.971263
C110	C	0.238315	-1.311354	-0.471263
C111	C	-0.261657	-1.811344	-1.036699
C112	C	0.238343	-1.311344	-0.536699
C113	C	-0.341791	-1.657736	-1.036664
C114	C	0.158209	-1.157736	-0.536664
C115	C	-0.341813	-1.657739	-0.971229
C116	C	0.158187	-1.157739	-0.471229
C117	C	-0.301761	-1.734555	-0.938532
C118	C	0.198239	-1.234555	-0.438532
C119	C	-0.301883	-1.734358	-0.139039
C120	C	0.198117	-1.234358	0.360961
C121	C	-0.301711	-1.734548	-0.069398
C122	C	0.198289	-1.234548	0.430602
H123	H	-0.540400	-1.873587	-0.229162
H124	H	-0.040400	-1.373587	0.270838
H125	H	-0.540446	-1.594960	-0.374443
H126	H	-0.040446	-1.094960	0.125557
H127	H	-0.659160	-1.595045	-0.374455
H128	H	-0.159160	-1.095045	0.125545
H129	H	-0.659108	-1.873681	-0.229187
H130	H	-0.159108	-1.373681	0.270813
H131	H	-0.742155	-1.930612	-0.292957
H132	H	-0.242155	-1.430612	0.207043
Br133	Br	-0.878601	-1.989422	-0.290321
Br134	Br	-0.378601	-1.489422	0.209679
H135	H	-0.374447	-1.595203	-0.944580
H136	H	0.125553	-1.095203	-0.444580
H137	H	-0.374539	-1.595188	-0.659654
H138	H	0.125461	-1.095188	-0.159654
H139	H	-0.199370	-1.751843	-0.861508
H140	H	0.300630	-1.251843	-0.361508
Br141	Br	-0.724589	-1.479495	-0.313358
Br142	Br	-0.224589	-0.979495	0.186642
Br143	Br	-0.207468	-1.915580	-0.523249
Br144	Br	0.292532	-1.415580	-0.023249
Br145	Br	-0.434849	-1.712093	-0.879249
Br146	Br	0.065151	-1.212093	-0.379249
Br147	Br	-0.396334	-1.553468	-0.523167
Br148	Br	0.103666	-1.053468	-0.023167
H149	H	-0.229023	-1.873887	-1.063347
H150	H	0.270977	-1.373887	-0.563347
H151	H	-0.404235	-1.716929	-0.742783
H152	H	0.095765	-1.216929	-0.242783
H153	H	-0.229165	-1.873875	-0.659710
H154	H	0.270835	-1.373875	-0.159710
Br155	Br	-0.926267	-1.915549	-0.207490
Br156	Br	-0.426267	-1.415549	0.292510
Br157	Br	-0.168771	-1.757018	-0.725032
Br158	Br	0.331229	-1.257018	-0.225032
H159	H	-0.229068	-1.873896	-0.944640
H160	H	0.270932	-1.373896	-0.444640
Br161	Br	-1.080502	-1.915689	-0.207535
Br162	Br	-0.580502	-1.415689	0.292465
H163	H	-1.062797	-1.595336	-0.374530
H164	H	-0.562797	-1.095336	0.125470
Br165	Br	-0.926329	-1.553547	-0.396240
Br166	Br	-0.426329	-1.053547	0.103760
H167	H	-0.374398	-1.595196	-1.063291
H168	H	0.125602	-1.095196	-0.563291
Br169	Br	-0.878821	-1.479607	-0.313384
Br170	Br	-0.378821	-0.979607	0.186616
