data_functionalizedCrystal
_audit_creation_method	'MofGen! by Chris Wilmer'
_symmetry_space_group_name_H-M	'P1'
_symmetry_Int_Tables_number	1
_symmetry_cell_setting	triclinic
loop_
_symmetry_equiv_pos_as_xyz
  x,y,z
_cell_length_a	23.096457
_cell_length_b	14.560438
_cell_length_c	14.560438
_cell_angle_alpha	90.001334
_cell_angle_beta	60.001285
_cell_angle_gamma	59.998547
loop_
_atom_site_label
_atom_site_type_symbol
_atom_site_fract_x
_atom_site_fract_y
_atom_site_fract_z
Zr1	Zr	0.633747	0.884740	-0.120497
O2	O	0.754540	0.738084	-0.267144
O3	O	0.512956	0.929701	-0.075545
O4	O	0.633749	0.929692	-0.267146
O5	O	0.633746	0.738097	0.075597
O6	O	0.633748	1.080832	-0.267144
O7	O	0.633748	0.738093	-0.075543
O8	O	0.417673	1.080848	0.075595
O9	O	0.849821	0.738081	-0.267141
O10	O	0.562638	1.061667	-0.056369
O11	O	0.562638	0.948876	0.056425
O12	O	0.704855	0.948865	-0.169161
O13	O	0.704854	0.836074	-0.056367
Zr14	Zr	0.633743	1.125798	0.120557
Zr15	Zr	0.633746	1.125791	-0.120495
Zr16	Zr	0.633745	0.884746	0.120555
Zr17	Zr	0.785710	0.884735	-0.120493
Zr18	Zr	0.481781	1.125803	0.120553
O19	O	0.754534	1.080837	0.075605
O20	O	0.754538	1.080828	-0.267140
O21	O	0.754536	0.738093	0.075601
O22	O	0.512951	1.272453	0.267204
O23	O	0.512954	1.272445	-0.075541
O24	O	0.512953	0.929710	0.267200
O25	O	0.633744	1.272441	-0.075537
O26	O	0.633742	1.080846	0.267205
O27	O	0.633743	0.929706	0.267204
O28	O	0.633743	1.272445	0.075603
O29	O	0.849820	0.929685	-0.267139
O30	O	0.417671	1.080853	0.267199
O31	O	0.417670	1.272457	0.267201
O32	O	0.417672	1.272452	0.075597
O33	O	0.849819	0.738086	-0.075537
O34	O	0.849818	0.929690	-0.075535
O35	O	0.562636	1.061673	0.169220
O36	O	0.562636	1.174464	0.056427
O37	O	0.704853	1.061662	-0.056365
O38	O	0.704852	0.948871	0.056429
C39	C	0.443663	1.005275	0.000024
C40	C	0.379151	1.005277	0.000022
C41	C	0.633747	0.703751	0.000027
C42	C	0.633748	0.601418	0.000026
C43	C	-0.081367	1.064147	-0.058828
C44	C	-0.020747	1.064144	-0.058839
C45	C	0.009566	1.005270	0.000039
C46	C	-0.020732	0.946370	0.058907
C47	C	-0.081345	0.946366	0.058906
N48	N	0.071958	1.013446	0.095857
N49	N	0.129537	1.013456	0.095855
C50	C	0.192191	1.005279	0.000042
N51	N	0.195084	0.997111	-0.095768
N52	N	0.137498	0.997107	-0.095765
C53	C	0.075291	1.005268	0.000045
C54	C	0.288217	1.064165	-0.058840
C55	C	0.348842	1.064154	-0.058854
C56	C	0.348849	0.946388	0.058903
C57	C	0.288232	0.946391	0.058905
C58	C	0.257916	1.005286	0.000036
C59	C	0.633750	0.553340	-0.083241
C60	C	0.633745	0.457192	-0.083235
C61	C	0.633738	0.457207	0.083309
C62	C	0.633737	0.553357	0.083307
C63	C	0.823827	1.005263	0.000036
C64	C	0.888340	1.005260	0.000038
C65	C	0.633748	1.005261	-0.301489
C66	C	0.633750	1.005259	-0.403822
C67	C	0.633743	1.306787	0.000033
C68	C	0.633743	1.409120	0.000034
C69	C	0.707984	0.946378	-0.510775
C70	C	0.707980	0.946392	-0.606924
C71	C	0.559501	1.064167	-0.489154
C72	C	0.559506	1.064159	-0.393008
C73	C	0.633742	1.005277	0.301549
C74	C	0.633741	1.005279	0.403882
C75	C	0.443661	1.306794	0.000028
C76	C	0.379149	1.409128	0.000027
C77	C	0.443660	1.005283	0.301544
C78	C	0.379147	1.005288	0.403875
C79	C	0.443658	1.306801	0.301547
C80	C	0.379144	1.409139	0.403879
C81	C	0.823832	0.703737	-0.301487
C82	C	0.888346	0.601399	-0.403819
C83	C	0.823829	0.703744	0.000032
C84	C	0.888342	0.601410	0.000033
C85	C	0.823831	1.005255	-0.301484
C86	C	0.888344	1.005250	-0.403815
C87	C	0.348854	1.398307	-0.058862
C88	C	0.288246	1.494452	-0.058885
C89	C	0.257929	1.601417	-0.000012
C90	C	0.288230	1.612237	0.058878
C91	C	0.348841	1.516093	0.058894
C92	C	0.348850	1.064169	0.510819
C93	C	0.288241	1.064169	0.606979
C94	C	0.257927	1.005294	0.596193
C95	C	0.288230	0.946405	0.489237
C96	C	0.348841	0.946399	0.393079
C97	C	0.348848	1.516083	0.393058
C98	C	0.288239	1.612249	0.489201
C99	C	0.257923	1.601468	0.596164
C100	C	0.288225	1.494512	0.606982
C101	C	0.348837	1.398348	0.510841
C102	C	0.918650	0.494455	-0.392999
C103	C	0.979278	0.398289	-0.489141
C104	C	1.009597	0.409070	-0.596104
C105	C	0.979291	0.516026	-0.606922
C106	C	0.918668	0.612189	-0.510781
C107	C	0.918643	0.612231	0.058912
C108	C	0.979268	0.516086	0.058909
C109	C	1.009586	0.409120	0.000032
C110	C	0.979283	0.398301	-0.058854
C111	C	0.918663	0.494445	-0.058856
C112	C	0.918639	1.064137	-0.392992
C113	C	0.979248	1.064154	-0.489134
C114	C	1.009565	1.005278	-0.596097
C115	C	0.979263	0.946390	-0.606917
C116	C	0.918651	0.946379	-0.510777
H117	H	-0.106046	1.112099	-0.106766
H118	H	1.003985	0.524791	-0.694022
H119	H	0.263539	0.898471	0.480471
H120	H	0.373537	1.311219	-0.106817
H121	H	0.263582	1.485621	-0.106841
H122	H	0.373501	0.898455	0.306004
H123	H	0.893965	1.112081	-0.305906
H124	H	1.003977	0.311197	-0.106789
H125	H	0.373500	1.524919	0.106855
H126	H	-0.106010	0.898411	0.106843
H127	H	0.208575	1.679695	-0.000034
H128	H	1.058947	0.330843	0.000044
H129	H	1.003931	0.524917	0.106865
H130	H	0.208569	1.679780	0.674439
H131	H	0.633746	0.418050	-0.151037
H132	H	0.263576	1.112127	0.694057
H133	H	0.263538	1.699341	0.106810
H134	H	0.768438	0.898418	-0.519587
H135	H	0.893994	0.485618	-0.106799
H136	H	0.373533	0.898445	0.106835
H137	H	1.058919	1.005295	-0.674372
H138	H	1.003942	0.311210	-0.480311
H139	H	0.373525	1.112112	0.519623
H140	H	0.263573	1.699329	0.480372
H141	H	1.003913	1.112106	-0.480302
H142	H	0.633731	0.418065	0.151114
H143	H	0.633732	0.592508	0.151118
H144	H	1.058960	0.330758	-0.674379
H145	H	0.893962	0.699319	0.106863
H146	H	0.768429	0.898447	-0.694006
H147	H	0.208573	1.005308	0.674499
H148	H	1.003957	0.898454	-0.694020
H149	H	0.373523	1.524883	0.305973
H150	H	0.893992	0.898422	-0.519605
H151	H	0.263533	1.485750	0.694084
H152	H	0.373497	1.311273	0.519667
H153	H	0.893967	0.485655	-0.305913
H154	H	0.893996	0.699266	-0.519604
H155	H	0.499052	1.112112	-0.305916
H156	H	0.003923	1.112098	-0.106776
H157	H	0.003954	0.898432	0.106843
H158	H	0.263536	1.112116	-0.106779
H159	H	0.499054	1.112120	-0.480362
H160	H	0.373511	1.112101	-0.106796
H161	H	0.263563	0.898445	0.106846
H162	H	0.633757	0.592470	-0.151052
