data_functionalizedCrystal
_audit_creation_method	'MofGen! by Chris Wilmer'
_symmetry_space_group_name_H-M	'P1'
_symmetry_Int_Tables_number	1
_symmetry_cell_setting	triclinic
loop_
_symmetry_equiv_pos_as_xyz
  x,y,z
_cell_length_a	20.919309
_cell_length_b	21.606444
_cell_length_c	21.606444
_cell_angle_alpha	60.000398
_cell_angle_beta	89.997904
_cell_angle_gamma	57.440098
loop_
_atom_site_label
_atom_site_type_symbol
_atom_site_fract_x
_atom_site_fract_y
_atom_site_fract_z
Zr1	Zr	0.641757	0.629092	-0.057033
O2	O	0.535385	0.766228	-0.159861
O3	O	0.674367	0.497515	-0.025514
O4	O	0.674367	0.626637	-0.154631
O5	O	0.535385	0.637104	0.071110
O6	O	0.783996	0.618376	-0.150503
O7	O	0.535386	0.637106	-0.030744
O8	O	0.783997	0.387401	0.080464
O9	O	0.535384	0.868079	-0.159857
O10	O	0.770089	0.543411	-0.008987
O11	O	0.688273	0.549574	0.063944
O12	O	0.688273	0.701598	-0.088075
O13	O	0.606457	0.707761	-0.015144
Zr14	Zr	0.816603	0.615913	0.111995
Zr15	Zr	0.816604	0.615917	-0.050449
Zr16	Zr	0.641756	0.629088	0.105411
Zr17	Zr	0.641756	0.791532	-0.057028
Zr18	Zr	0.816605	0.453472	0.111990
O19	O	0.783993	0.747489	0.080476
O20	O	0.783995	0.747495	-0.150499
O21	O	0.535384	0.766222	0.071114
O22	O	0.922975	0.478777	0.214822
O23	O	0.922977	0.478782	-0.016152
O24	O	0.674366	0.497510	0.205460
O25	O	0.922975	0.607901	-0.016148
O26	O	0.783994	0.618368	0.209593
O27	O	0.674364	0.626629	0.205464
O28	O	0.922975	0.607898	0.085705
O29	O	0.674364	0.857606	-0.154624
O30	O	0.783997	0.387398	0.209585
O31	O	0.922976	0.376926	0.214819
O32	O	0.922977	0.376929	0.085698
O33	O	0.535383	0.868076	-0.030736
O34	O	0.674363	0.857603	-0.025503
O35	O	0.770088	0.543407	0.143036
O36	O	0.851904	0.537244	0.070106
O37	O	0.770087	0.695431	-0.008982
O38	O	0.688272	0.701594	0.063949
C39	C	0.729183	0.419314	0.027474
C40	C	0.729183	0.350354	0.027472
C41	C	0.771889	0.314739	-0.010598
C42	C	0.771892	0.249939	-0.010593
C43	C	0.729184	0.220759	0.027478
C44	C	0.686477	0.256377	0.065553
C45	C	0.686480	0.321171	0.065552
C46	C	0.686468	-0.004932	0.065559
C47	C	0.686467	-0.069729	0.065556
C48	C	0.771880	-0.076164	-0.010586
C49	C	0.771882	-0.011369	-0.010587
C50	C	0.729179	0.024239	0.027491
C51	C	0.729178	0.094501	0.027486
C52	C	0.729180	0.150503	0.027479
C53	C	0.510474	0.638982	0.019245
C54	C	0.436247	0.644575	0.016450
C55	C	0.444080	0.564633	0.056416
C56	C	0.374333	0.569894	0.053788
C57	C	0.296754	0.655098	0.011189
C58	C	0.288922	0.735046	-0.028778
C59	C	0.358668	0.729784	-0.026146
C60	C	0.084028	0.675116	0.001178
C61	C	0.014281	0.680371	-0.001454
C62	C	0.099697	0.515219	0.081113
C63	C	0.169440	0.509965	0.083739
C64	C	0.161603	0.589913	0.043775
C65	C	0.225460	0.660477	0.008499
C66	C	0.232896	0.584532	0.046469
C67	C	0.947887	0.606022	0.035716
C68	C	1.022114	0.600429	0.038512
C69	C	0.729182	0.622507	-0.175712
C70	C	0.729182	0.622509	-0.244674
C71	C	0.729178	0.825691	0.027487
C72	C	0.729177	0.894651	0.027489
C73	C	0.789578	0.617959	-0.274798
C74	C	0.789580	0.617953	-0.339591
C75	C	0.729183	0.622503	-0.374262
C76	C	0.668784	0.627049	-0.344132
C77	C	0.668786	0.627049	-0.279337
C78	C	0.668777	0.627049	-0.605442
C79	C	0.668779	0.627052	-0.670243
C80	C	0.789572	0.617953	-0.665696
C81	C	0.789573	0.617953	-0.600901
C82	C	0.729177	0.622495	-0.570775
C83	C	0.729176	0.622500	-0.500518
C84	C	0.729180	0.622504	-0.444520
C85	C	0.729179	0.622498	0.230673
C86	C	0.729179	0.622496	0.299635
C87	C	0.947889	0.402834	0.035710
C88	C	1.022117	0.328281	0.038503
C89	C	0.729181	0.419309	0.230667
C90	C	0.729182	0.350348	0.299626
C91	C	0.947888	0.402829	0.238903
C92	C	1.022115	0.328274	0.310657
C93	C	0.510473	0.842175	-0.183941
C94	C	0.436245	0.916730	-0.255696
C95	C	0.510471	0.842170	0.019251
C96	C	0.436244	0.916724	0.016458
C97	C	0.729179	0.825695	-0.175705
C98	C	0.729179	0.894657	-0.244665
C99	C	1.014269	0.296489	-0.001478
C100	C	1.084007	0.226447	0.001131
C101	C	1.161593	0.188195	0.043725
C102	C	1.169440	0.219994	0.083707
C103	C	1.099702	0.290038	0.081094
C104	C	0.771888	0.314743	0.373303
C105	C	0.771886	0.249956	0.438104
C106	C	0.729180	0.220769	0.429227
C107	C	0.686468	0.256380	0.355542
C108	C	0.686467	0.321171	0.290743
C109	C	1.099688	0.290045	0.306285
C110	C	1.169439	0.220001	0.373700
C111	C	1.161616	0.188184	0.445487
C112	C	1.084035	0.226420	0.449857
C113	C	1.014286	0.296467	0.382443
C114	C	0.358673	0.954968	-0.251324
C115	C	0.288922	1.025032	-0.318739
C116	C	0.296745	1.056852	-0.390525
C117	C	0.374325	1.018612	-0.394896
C118	C	0.444075	0.948554	-0.327481
C119	C	0.444092	0.948523	0.056432
C120	C	0.374354	1.018582	0.053806
C121	C	0.296768	1.056837	0.011209
C122	C	0.288921	1.025035	-0.028770
C123	C	0.358659	0.954981	-0.026147
C124	C	0.771893	0.923823	-0.235763
C125	C	0.771908	0.988610	-0.300551
C126	C	0.729205	1.024235	-0.374240
C127	C	0.686490	0.995063	-0.383141
C128	C	0.686480	0.930272	-0.318353
H129	H	0.806662	0.338497	-0.041604
H130	H	0.651699	0.232606	0.348326
C131	C	0.818862	-0.115346	-0.052466
N132	N	0.854247	-0.144857	-0.084010
H133	H	0.619594	0.630755	-0.698471
C134	C	0.350011	0.920001	-0.070115
N135	N	0.343492	0.893656	-0.103233
C136	C	0.203591	1.067082	-0.313914
N137	N	0.139322	1.098753	-0.310278
C138	C	0.639523	0.034199	0.107475
N139	N	0.604173	0.063664	0.139060
H140	H	0.651722	1.024079	-0.443147
H141	H	0.239990	1.113878	0.009080
C142	C	0.203569	1.067113	-0.075612
N143	N	0.139279	1.098802	-0.110885
C144	C	0.639476	0.898210	-0.328159
N145	N	0.604068	0.874066	-0.335550
H146	H	0.619606	0.630752	-0.254810
H147	H	0.951126	0.327585	0.386013
H148	H	0.380685	1.044529	-0.453353
H149	H	0.162287	0.729851	-0.026184
C150	C	1.108313	0.325035	0.227326
N151	N	1.114816	0.351390	0.167857
H152	H	0.352288	0.929064	-0.192878
C153	C	0.818895	1.020692	-0.290744
N154	N	0.854285	1.044854	-0.283355
H155	H	0.838759	0.614248	-0.364117
H156	H	1.218371	0.131160	0.045848
C157	C	1.254770	0.177946	0.368876
N158	N	1.319039	0.146269	0.365239
H159	H	1.077602	0.200566	-0.031428
C160	C	0.818865	0.020723	-0.052467
N161	N	0.854257	0.044890	-0.084009
H162	H	0.729220	1.076992	-0.426988
H163	H	0.806666	0.220941	-0.041592
H164	H	0.651688	-0.093485	0.096560
C165	C	0.203581	0.828772	-0.075641
N166	N	0.139302	0.899368	-0.110942
C167	C	0.529430	0.906459	0.103291
N168	N	0.593705	0.874786	0.138583
H169	H	0.651709	0.232609	0.096556
C170	C	0.383004	1.053543	0.097795
N171	N	0.389521	1.079872	0.130929
H172	H	0.651702	0.350170	0.096551
H173	H	0.507245	0.495251	0.091108
C174	C	0.818883	0.210786	0.519150
N175	N	0.854284	0.181283	0.580192
H176	H	0.380718	0.504797	0.086333
H177	H	0.232606	0.440582	0.118412
C178	C	0.639493	0.360319	0.209700
N179	N	0.604112	0.389800	0.148659
C180	C	0.075397	0.763062	-0.042798
N181	N	0.068896	0.829307	-0.075927
C182	C	0.856021	0.612954	-0.236665
N183	N	0.906071	0.609179	-0.207943
C184	C	0.318234	0.490811	0.093323
N185	N	0.382517	0.420219	0.128609
C186	C	0.602353	0.632041	-0.382266
N187	N	0.552316	0.635801	-0.410988
H188	H	1.218417	0.131146	0.500374
H189	H	0.838752	0.614253	-0.572676
H190	H	0.106069	0.450129	0.113650
C191	C	0.856016	0.612945	-0.698835
N192	N	0.906059	0.609173	-0.723795
H193	H	1.077678	0.200504	0.508315
C194	C	1.254792	0.177899	0.130565
N195	N	1.319081	0.146187	0.165863
C196	C	0.602250	0.632218	-0.572398
N197	N	0.552107	0.636174	-0.547538
H198	H	0.239944	1.113898	-0.445413
C199	C	0.928930	0.338558	-0.048343
N200	N	0.864655	0.370246	-0.083648
H201	H	0.507236	0.917421	-0.331050
H202	H	1.106104	0.315914	0.113656
H203	H	0.729188	0.168011	0.481997
H204	H	-0.048890	0.749758	-0.036147
H205	H	0.806664	0.338500	0.380545
H206	H	0.352285	0.794882	-0.058681
H207	H	0.806666	0.894827	-0.175767
