data_functionalizedCrystal
_audit_creation_method	'MofGen! by Chris Wilmer'
_symmetry_space_group_name_H-M	'P1'
_symmetry_Int_Tables_number	1
_symmetry_cell_setting	triclinic
loop_
_symmetry_equiv_pos_as_xyz
  x,y,z
_cell_length_a	13.033304
_cell_length_b	13.032721
_cell_length_c	13.032268
_cell_angle_alpha	76.710373
_cell_angle_beta	90.922231
_cell_angle_gamma	105.183092
loop_
_atom_site_label
_atom_site_type_symbol
_atom_site_fract_x
_atom_site_fract_y
_atom_site_fract_z
Zn1	Zn	-1.451133	0.335813	-0.818131
Zn2	Zn	-1.117800	0.669147	-0.484798
Zn3	Zn	-0.784466	1.002480	-0.151465
Zn4	Zn	-1.451019	0.490910	-0.663066
Zn5	Zn	-1.117685	0.824244	-0.329733
Zn6	Zn	-0.784352	1.157577	0.003600
Zn7	Zn	-1.301797	0.330110	-0.623681
Zn8	Zn	-0.968464	0.663443	-0.290348
Zn9	Zn	-0.635131	0.996777	0.042985
Zn10	Zn	-1.250931	0.535896	-0.818005
Zn11	Zn	-0.917597	0.869230	-0.484672
Zn12	Zn	-0.584264	1.202563	-0.151338
O13	O	-1.363720	0.423183	-0.730721
O14	O	-1.030387	0.756516	-0.397388
O15	O	-0.697053	1.089849	-0.064054
O16	O	-1.597353	0.339947	-0.814097
O17	O	-1.264019	0.673281	-0.480764
O18	O	-0.930686	1.006614	-0.147431
O19	O	-1.452464	0.448366	-0.511621
O20	O	-1.119131	0.781700	-0.178288
O21	O	-0.785798	1.115033	0.155045
O22	O	-1.342943	0.179836	-0.633046
O23	O	-1.009609	0.513169	-0.299712
O24	O	-0.676276	0.846502	0.033621
O25	O	-1.597269	0.453897	-0.700172
O26	O	-1.263936	0.787230	-0.366838
O27	O	-0.930602	1.120563	-0.033505
O28	O	-1.452659	0.184026	-0.775907
O29	O	-1.119326	0.517359	-0.442574
O30	O	-0.785992	0.850692	-0.109241
O31	O	-1.342832	0.330227	-0.482685
O32	O	-1.009499	0.663560	-0.149352
O33	O	-0.676165	0.996894	0.183981
O34	O	-1.148815	0.373848	-0.632923
O35	O	-0.815481	0.707181	-0.299590
O36	O	-0.482148	1.040515	0.033744
O37	O	-1.256248	0.530569	-0.964242
O38	O	-0.922914	0.863902	-0.630909
O39	O	-0.589581	1.197235	-0.297576
O40	O	-1.111443	0.525038	-0.775692
O41	O	-0.778110	0.858372	-0.442358
O42	O	-0.444777	1.191705	-0.109025
O43	O	-1.403335	0.383568	-0.964335
O44	O	-1.070002	0.716902	-0.631002
O45	O	-0.736669	1.050235	-0.297668
O46	O	-1.403141	0.647909	-0.700049
O47	O	-1.069808	0.981242	-0.366716
O48	O	-0.736474	1.314576	-0.033383
O49	O	-1.256137	0.680960	-0.813882
O50	O	-0.922804	1.014293	-0.480549
O51	O	-0.589470	1.347627	-0.147215
C52	C	-1.092212	0.453707	-0.700021
C53	C	-0.758878	0.787040	-0.366687
C54	C	-0.425545	1.120373	-0.033354
C55	C	-0.976052	0.466795	-0.686914
C56	C	-0.642719	0.800128	-0.353581
C57	C	-0.309385	1.133461	-0.020248
C58	C	-0.924277	0.416366	-0.737549
C59	C	-0.590944	0.749699	-0.404215
C60	C	-0.257610	1.083033	-0.070882
C61	C	-0.804220	0.429892	-0.724004
C62	C	-0.470887	0.763225	-0.390671
C63	C	-0.137553	1.096558	-0.057337
C64	C	-1.324132	0.703595	-0.761252
C65	C	-0.990799	1.036929	-0.427918
C66	C	-0.657465	1.370262	-0.094585
C67	C	-1.307287	0.823551	-0.774359
C68	C	-0.973953	1.156885	-0.441025
C69	C	-0.640620	1.490218	-0.107692
C70	C	-1.324130	0.462723	-1.003262
C71	C	-0.990797	0.796056	-0.669929
C72	C	-0.657464	1.129389	-0.336595
C73	C	-1.307259	0.479572	-1.119403
C74	C	-0.973926	0.812906	-0.786070
C75	C	-0.640593	1.146239	-0.452736
C76	C	-0.636290	0.392534	-0.761534
C77	C	-0.302957	0.725867	-0.428201
C78	C	0.030377	1.059200	-0.094868
C79	C	-0.752448	0.379456	-0.774646
C80	C	-0.419114	0.712789	-0.441312
C81	C	-0.085781	1.046123	-0.107979
C82	C	-1.403488	0.141675	-0.700097
C83	C	-1.070154	0.475008	-0.366764
C84	C	-0.736821	0.808342	-0.033431
C85	C	-1.420434	0.021713	-0.687047
C86	C	-1.087101	0.355047	-0.353714
C87	C	-0.753768	0.688380	-0.020380
C88	C	-1.372560	0.860644	-0.723934
C89	C	-1.039227	1.193978	-0.390600
C90	C	-0.705894	1.527311	-0.057267
C91	C	-1.355151	0.984625	-0.737479
C92	C	-1.021818	1.317958	-0.404146
C93	C	-0.688485	1.651292	-0.070812
C94	C	-1.372514	0.414352	-1.171228
C95	C	-1.039181	0.747685	-0.837895
C96	C	-0.705847	1.081018	-0.504561
C97	C	-1.355079	0.431765	-1.291266
C98	C	-1.021746	0.765098	-0.957932
C99	C	-0.688412	1.098432	-0.624599
C100	C	-1.403227	0.383712	-0.459238
C101	C	-1.069893	0.717045	-0.125905
C102	C	-0.736560	1.050378	0.207428
C103	C	-1.420343	0.366535	-0.343088
C104	C	-1.087009	0.699869	-0.009755
C105	C	-0.753676	1.033202	0.323579
H106	H	-0.759669	0.483080	-0.670621
H107	H	-0.426336	0.816414	-0.337287
H108	H	-0.093003	1.149747	-0.003954
H109	H	-1.286294	0.500493	-1.335758
H110	H	-0.952960	0.833826	-1.002425
H111	H	-0.619627	1.167160	-0.669091
H112	H	-1.286379	1.044652	-0.790686
H113	H	-0.953045	1.377985	-0.457353
H114	H	-0.619712	1.711318	-0.124019
H115	H	-1.489214	0.961688	-0.633849
H116	H	-1.155881	1.295021	-0.300516
H117	H	-0.822548	1.628355	0.032818
H118	H	-0.968833	0.363174	-0.790922
H119	H	-0.635500	0.696507	-0.457589
H120	H	-0.302167	1.029841	-0.124255
H121	H	-1.441285	0.345619	-1.126729
H122	H	-1.107952	0.678952	-0.793396
H123	H	-0.774619	1.012286	-0.460063
H124	H	-0.796999	0.326258	-0.828021
H125	H	-0.463666	0.659592	-0.494688
H126	H	-0.130332	0.992925	-0.161355
H127	H	-1.238519	0.883581	-0.827562
H128	H	-0.905185	1.216914	-0.494228
H129	H	-0.571852	1.550247	-0.160895
H130	H	-1.489117	0.297795	-1.298594
H131	H	-1.155784	0.631129	-0.965261
H132	H	-0.822451	0.964462	-0.631928
N133	N	-0.920155	0.533505	-0.619944
N134	N	-0.586822	0.866838	-0.286610
N135	N	-0.253489	1.200172	0.046723
N136	N	-0.822709	0.544393	-0.609031
N137	N	-0.489376	0.877726	-0.275697
N138	N	-0.156043	1.211059	0.057636
H139	H	-0.783233	0.591507	-0.561730
H140	H	-0.449899	0.924840	-0.228396
H141	H	-0.116566	1.258173	0.104937
N142	N	-1.220965	0.565778	-1.175213
N143	N	-0.887632	0.899112	-0.841880
N144	N	-0.554299	1.232445	-0.508547
N145	N	-1.150956	0.544055	-1.224467
N146	N	-0.817623	0.877389	-0.891133
N147	N	-0.484289	1.210722	-0.557800
H148	H	-1.090007	0.604938	-1.263882
H149	H	-0.756673	0.938272	-0.930549
H150	H	-0.423340	1.271605	-0.597215
N151	N	-1.458843	0.785334	-0.657213
N152	N	-1.125510	1.118667	-0.323880
N153	N	-0.792177	1.452000	0.009453
N154	N	-1.472869	0.684727	-0.646313
N155	N	-1.139536	1.018060	-0.312979
N156	N	-0.806202	1.351394	0.020354
H157	H	-1.533811	0.631538	-0.599193
H158	H	-1.200478	0.964872	-0.265860
H159	H	-0.867144	1.298205	0.067474
