data_functionalizedCrystal
_audit_creation_method	'MofGen! by Chris Wilmer'
_symmetry_space_group_name_H-M	'P1'
_symmetry_Int_Tables_number	1
_symmetry_cell_setting	triclinic
loop_
_symmetry_equiv_pos_as_xyz
  x,y,z
_cell_length_a	18.215407
_cell_length_b	18.215405
_cell_length_c	12.759393
_cell_angle_alpha	89.963505
_cell_angle_beta	89.980045
_cell_angle_gamma	90.022344
loop_
_atom_site_label
_atom_site_type_symbol
_atom_site_fract_x
_atom_site_fract_y
_atom_site_fract_z
Zn1	Zn	1.125094	-0.292999	-0.593949
Zn2	Zn	1.625094	0.207001	-0.093949
Zn3	Zn	1.124996	-0.416083	-0.418250
Zn4	Zn	1.624996	0.083917	0.081750
Zn5	Zn	1.002020	-0.293029	-0.418287
Zn6	Zn	1.502020	0.206971	0.081713
Zn7	Zn	1.001993	-0.416022	-0.593891
Zn8	Zn	1.501993	0.083978	-0.093891
O9	O	1.063526	-0.354533	-0.506094
O10	O	1.563526	0.145467	-0.006094
O11	O	1.228065	-0.309338	-0.570651
O12	O	1.728065	0.190662	-0.070651
O13	O	1.108653	-0.399797	-0.271234
O14	O	1.608653	0.100203	0.228766
O15	O	1.018399	-0.190041	-0.441628
O16	O	1.518399	0.309959	0.058372
O17	O	1.227993	-0.399768	-0.441566
O18	O	1.727993	0.100232	0.058434
O19	O	1.108821	-0.190018	-0.570686
O20	O	1.608821	0.309982	-0.070686
O21	O	1.018304	-0.309390	-0.271261
O22	O	1.518304	0.190610	0.228739
O23	O	0.899032	-0.309332	-0.441572
O24	O	1.399032	0.190668	0.058428
O25	O	1.018352	-0.399665	-0.740919
O26	O	1.518352	0.100335	-0.240919
O27	O	0.899012	-0.399695	-0.570587
O28	O	1.399012	0.100305	-0.070587
O29	O	1.108794	-0.309280	-0.740962
O30	O	1.608794	0.190720	-0.240962
O31	O	1.108627	-0.519059	-0.441510
O32	O	1.608627	-0.019059	0.058490
O33	O	1.018257	-0.519015	-0.570552
O34	O	1.518257	-0.019015	-0.070552
C35	C	0.872319	-0.354511	-0.506078
C36	C	1.372319	0.145489	-0.006078
C37	C	0.790521	-0.354519	-0.506096
C38	C	1.290521	0.145481	-0.006096
C39	C	0.525472	-0.401662	-0.573180
C40	C	1.025472	0.098338	-0.073180
C41	C	0.602330	-0.401656	-0.573175
C42	C	1.102330	0.098344	-0.073175
C43	C	0.602321	-0.307421	-0.439027
C44	C	1.102321	0.192579	0.060973
C45	C	0.525464	-0.307431	-0.439027
C46	C	1.025464	0.192569	0.060973
C47	C	0.487041	-0.354551	-0.506110
C48	C	0.987041	0.145449	-0.006110
C49	C	0.640757	-0.354534	-0.506104
C50	C	1.140757	0.145466	-0.006104
C51	C	0.724091	-0.354527	-0.506098
C52	C	1.224091	0.145473	-0.006098
C53	C	0.403702	-0.354559	-0.506115
C54	C	0.903702	0.145441	-0.006115
C55	C	1.063448	-0.545739	-0.506044
C56	C	1.563448	-0.045739	-0.006044
C57	C	1.063482	-0.627538	-0.506057
C58	C	1.563482	-0.127538	-0.006057
C59	C	1.110648	-0.815731	-0.438989
C60	C	1.610648	-0.315731	0.061011
C61	C	1.110681	-0.892590	-0.439014
C62	C	1.610681	-0.392590	0.060986
C63	C	1.016497	-0.892583	-0.573275
C64	C	1.516497	-0.392583	-0.073275
C65	C	1.016469	-0.815726	-0.573254
C66	C	1.516469	-0.315726	-0.073254
C67	C	1.063543	-0.777302	-0.506105
C68	C	1.563543	-0.277302	-0.006105
C69	C	1.063605	-0.931018	-0.506151
C70	C	1.563605	-0.431018	-0.006151
C71	C	1.063640	-1.014351	-0.506179
C72	C	1.563640	-0.514351	-0.006179
C73	C	1.063509	-0.693963	-0.506078
C74	C	1.563509	-0.193963	-0.006078
C75	C	1.255479	-0.354556	-0.506111
C76	C	1.755479	0.145444	-0.006111
C77	C	1.337277	-0.354566	-0.506118
C78	C	1.837277	0.145434	-0.006118
C79	C	1.063581	-0.354463	-0.780128
C80	C	1.563581	0.145537	-0.280128
C81	C	1.063604	-0.354432	-0.896904
C82	C	1.563604	0.145568	-0.396904
C83	C	1.063624	-0.162580	-0.506168
C84	C	1.563624	0.337420	-0.006168
C85	C	1.063666	-0.080781	-0.506199
C86	C	1.563666	0.419219	-0.006199
C87	C	1.110701	-0.307361	-0.951790
C88	C	1.610701	0.192639	-0.451790
C89	C	1.110713	-0.307330	-1.061514
C90	C	1.610713	0.192670	-0.561514
C91	C	1.016530	-0.401446	-1.061457
C92	C	1.516530	0.098554	-0.561457
C93	C	1.016515	-0.401474	-0.951735
C94	C	1.516515	0.098526	-0.451735
C95	C	1.063513	-0.354550	-0.233127
C96	C	1.563513	0.145450	0.266873
C97	C	1.063632	-0.354373	-0.116351
C98	C	1.563632	0.145627	0.383649
H99	H	0.633614	-0.269056	-0.384412
H100	H	1.133614	0.230944	0.115588
H101	H	0.633617	-0.440020	-0.627789
H102	H	1.133617	0.059980	-0.127789
H103	H	0.978110	-0.784435	-0.627914
H104	H	1.478110	-0.284435	-0.127914
H105	H	1.149040	-0.923875	-0.384362
H106	H	1.649040	-0.423875	0.115638
H107	H	1.149042	-0.269055	-0.907150
H108	H	1.649042	0.230945	-0.407150
H109	H	0.978193	-0.439747	-1.106114
H110	H	1.478193	0.060253	-0.606114
H111	H	0.494172	-0.269066	-0.384405
H112	H	0.994172	0.230934	0.115595
C113	C	1.162525	-0.255549	-1.121884
C114	C	1.662525	0.244451	-0.621884
N115	N	1.201553	-0.216546	-1.167353
N116	N	1.701553	0.283454	-0.667353
C117	C	0.964700	-0.453256	-0.891357
C118	C	1.464700	0.046744	-0.391357
N119	N	0.925672	-0.492255	-0.845880
N120	N	1.425672	0.007745	-0.345880
C121	C	1.162435	-0.773467	-0.365128
C122	C	1.662435	-0.273467	0.134872
N123	N	1.201445	-0.741636	-0.309497
N124	N	1.701445	-0.241636	0.190503
C125	C	0.964710	-0.934857	-0.647124
C126	C	1.464710	-0.434857	-0.147124
N127	N	0.925700	-0.966697	-0.702744
N128	N	1.425700	-0.466697	-0.202744
H129	H	0.494190	-0.440031	-0.627803
H130	H	0.994190	0.059969	-0.127803
