data_functionalizedCrystal
_audit_creation_method	'MofGen! by Chris Wilmer'
_symmetry_space_group_name_H-M	'P1'
_symmetry_Int_Tables_number	1
_symmetry_cell_setting	triclinic
loop_
_symmetry_equiv_pos_as_xyz
  x,y,z
_cell_length_a	12.837943
_cell_length_b	16.992695
_cell_length_c	15.455313
_cell_angle_alpha	87.152573
_cell_angle_beta	92.962828
_cell_angle_gamma	92.748581
loop_
_atom_site_label
_atom_site_type_symbol
_atom_site_fract_x
_atom_site_fract_y
_atom_site_fract_z
O1	O	-1.396731	-0.201999	-0.072117
O2	O	-1.094086	-0.191867	-0.072122
O3	O	-1.244195	-0.082700	-0.072113
O4	O	-1.246622	-0.311166	-0.072127
O5	O	-1.235608	-0.088914	0.072149
O6	O	-1.085500	-0.198081	0.072139
O7	O	-1.388144	-0.208213	0.072144
Cu8	Cu	-1.236038	-0.203714	0.085314
Cu9	Cu	-1.246192	-0.196365	-0.085292
O10	O	-1.238036	-0.317380	0.072135
C11	C	-1.050889	-0.191551	0.000008
C12	C	-0.934966	-0.181343	0.000006
C13	C	-1.431342	-0.208528	0.000012
C14	C	-1.547265	-0.218737	0.000008
C15	C	-0.704174	-0.304064	0.000011
C16	C	-0.595254	-0.294477	0.000010
C17	C	-0.608204	-0.152580	0.000009
C18	C	-0.717124	-0.162168	0.000010
C19	C	-0.765105	-0.237912	0.000010
C20	C	-0.874027	-0.247499	0.000005
C21	C	-0.886974	-0.105603	0.000010
C22	C	-0.778054	-0.096016	0.000009
C23	C	-1.236780	-0.056361	0.000018
C24	C	-1.227467	0.031379	0.000017
C25	C	-1.245450	-0.343718	0.000002
C26	C	-1.254764	-0.431458	-0.000003
N27	N	-1.228904	-0.208883	0.205309
C28	C	-1.317330	0.074905	0.000020
C29	C	-1.308573	0.157346	0.000011
C30	C	-1.209952	0.196260	0.000007
C31	C	-1.120082	0.152728	0.000002
C32	C	-1.128840	0.070289	0.000004
C33	C	-1.173653	0.442570	-0.000006
C34	C	-1.164901	0.525016	-0.000005
C35	C	-1.353393	0.529629	0.000002
C36	C	-1.362142	0.447187	0.000010
C37	C	-1.272273	0.403663	0.000000
N38	N	-1.200998	0.280528	0.000001
N39	N	-1.281228	0.319396	-0.000000
N40	N	-1.253334	-0.191191	-0.205287
C41	C	-1.292700	-0.162526	0.250707
C42	C	-1.287315	-0.166443	0.341515
C43	C	-1.218138	-0.216722	0.386922
C44	C	-1.154334	-0.263081	0.341518
C45	C	-1.159715	-0.259159	0.250712
C46	C	-1.194911	-0.233628	0.658502
C47	C	-1.189538	-0.237548	0.749315
C48	C	-1.322518	-0.140908	0.749305
C49	C	-1.327897	-0.136995	0.658497
C50	C	-1.264089	-0.183351	0.613101
N51	N	-1.212634	-0.220729	0.479742
N52	N	-1.269589	-0.179339	0.520283
H53	H	-0.913092	-0.309175	0.000006
H54	H	-0.569114	-0.090915	0.000081
H55	H	-0.738972	-0.034347	0.000020
H56	H	-1.442450	0.415510	0.000014
H57	H	-1.397637	0.043228	0.000029
H58	H	-1.426559	0.565075	0.000009
H59	H	-1.084587	0.556696	0.000005
H60	H	-0.936597	-0.051737	0.000003
N61	N	-1.090904	-0.309163	0.201750
H62	H	-1.135884	-0.345465	0.164058
H63	H	-1.044466	-0.273860	0.164142
H64	H	-1.381749	0.192782	0.000015
N65	N	-1.076727	0.395632	-0.000013
H66	H	-1.012924	0.432795	-0.000011
H67	H	-1.073070	0.359026	0.053467
H68	H	-1.039783	0.184418	-0.000007
H69	H	-1.055664	0.034850	0.000002
N70	N	-1.114917	-0.291771	0.798301
H71	H	-1.155440	-0.331327	0.835960
H72	H	-1.075322	-0.320490	0.755716
H73	H	-1.374466	-0.103167	0.786275
N74	N	-1.126088	-0.283619	0.609546
H75	H	-1.081451	-0.316065	0.652093
H76	H	-1.171130	-0.319875	0.571850
N77	N	-1.367320	-0.108301	0.201735
H78	H	-1.406916	-0.079528	0.244277
H79	H	-1.326734	-0.068793	0.164071
H80	H	-1.098003	-0.304016	0.378494
N81	N	-1.356162	-0.116473	0.390481
H82	H	-1.400819	-0.084041	0.347936
H83	H	-1.402525	-0.151802	0.428126
N84	N	-0.755927	-0.385756	-0.000001
H85	H	-0.730962	-0.417411	0.053473
H86	H	-0.834163	-0.381726	-0.000035
N87	N	-0.529531	-0.365827	0.000045
H88	H	-0.576458	-0.415263	0.000056
H89	H	-0.487223	-0.362658	-0.053425
N90	N	-1.402511	-0.082766	0.609523
H91	H	-1.442109	-0.053992	0.652063
H92	H	-1.361923	-0.043259	0.571860
