data_functionalizedCrystal
_audit_creation_method	'MofGen! by Chris Wilmer'
_symmetry_space_group_name_H-M	'P1'
_symmetry_Int_Tables_number	1
_symmetry_cell_setting	triclinic
loop_
_symmetry_equiv_pos_as_xyz
  x,y,z
_cell_length_a	16.959455
_cell_length_b	16.625545
_cell_length_c	16.625539
_cell_angle_alpha	89.976096
_cell_angle_beta	90.016328
_cell_angle_gamma	89.973622
loop_
_atom_site_label
_atom_site_type_symbol
_atom_site_fract_x
_atom_site_fract_y
_atom_site_fract_z
Zn1	Zn	1.208359	0.321027	0.455908
Zn2	Zn	1.708359	0.821027	0.955908
Zn3	Zn	1.208262	0.455866	0.321081
Zn4	Zn	1.708262	0.955866	0.821081
Zn5	Zn	1.076183	0.321050	0.321090
Zn6	Zn	1.576183	0.821050	0.821090
Zn7	Zn	1.076136	0.455820	0.455873
Zn8	Zn	1.576136	0.955820	0.955873
O9	O	1.142235	0.388441	0.388488
O10	O	1.642235	0.888441	0.888488
O11	O	1.318957	0.338924	0.438034
O12	O	1.818957	0.838924	0.938034
O13	O	1.190720	0.438011	0.208250
O14	O	1.690720	0.938011	0.708250
O15	O	1.093777	0.208214	0.338993
O16	O	1.593777	0.708214	0.838993
O17	O	1.318885	0.437989	0.338977
O18	O	1.818885	0.937989	0.838977
O19	O	1.190886	0.208198	0.438043
O20	O	1.690886	0.708198	0.938043
O21	O	1.093683	0.338962	0.208256
O22	O	1.593683	0.838962	0.708256
O23	O	0.965566	0.338918	0.338958
O24	O	1.465566	0.838918	0.838958
O25	O	1.093696	0.437911	0.568710
O26	O	1.593696	0.937911	1.068710
O27	O	0.965531	0.437933	0.437982
O28	O	1.465531	0.937933	0.937982
O29	O	1.190840	0.338879	0.568736
O30	O	1.690840	0.838879	1.068736
O31	O	1.190674	0.568692	0.338943
O32	O	1.690674	1.068692	0.838943
O33	O	1.093602	0.568659	0.437974
O34	O	1.593602	1.068659	0.937974
C35	C	0.936869	0.388423	0.388468
C36	C	1.436869	0.888423	0.888468
C37	C	0.849012	0.388435	0.388479
C38	C	1.349012	0.888435	0.888479
C39	C	0.807699	0.439941	0.336831
C40	C	1.307699	0.939941	0.836831
C41	C	0.807771	0.336936	0.440133
C42	C	1.307771	0.836936	0.940133
C43	C	0.725226	0.336943	0.440142
C44	C	1.225226	0.836943	0.940142
C45	C	0.683913	0.388448	0.388495
C46	C	1.183913	0.888448	0.888495
C47	C	0.725146	0.439947	0.336837
C48	C	1.225146	0.939947	0.836837
C49	C	0.683987	0.285439	0.491793
C50	C	1.183987	0.785439	0.991793
C51	C	0.601436	0.285442	0.491804
C52	C	1.101436	0.785442	0.991804
C53	C	0.560121	0.336953	0.440160
C54	C	1.060121	0.836953	0.940160
C55	C	0.601359	0.388454	0.388501
C56	C	1.101359	0.888454	0.888501
C57	C	0.560046	0.439960	0.336853
C58	C	1.060046	0.939960	0.836853
C59	C	0.601283	0.491466	0.285198
C60	C	1.101283	0.991466	0.785198
C61	C	0.683831	0.491457	0.285193
C62	C	1.183831	0.991457	0.785193
C63	C	0.477573	0.336961	0.440165
C64	C	0.977573	0.836961	0.940165
C65	C	0.477493	0.439966	0.336860
C66	C	0.977493	0.939966	0.836860
C67	C	1.142144	0.597932	0.388471
C68	C	1.642144	1.097932	0.888471
C69	C	1.142177	0.687553	0.388491
C70	C	1.642177	1.187553	0.888491
C71	C	1.142206	0.760335	0.388510
C72	C	1.642206	1.260335	0.888510
C73	C	1.142250	0.851644	0.388531
C74	C	1.642250	1.351644	0.888531
C75	C	1.142290	0.924420	0.388545
C76	C	1.642290	1.424420	0.888545
C77	C	1.142333	1.015734	0.388565
C78	C	1.642333	1.515734	0.888565
C79	C	1.348403	0.388459	0.388508
C80	C	1.848403	0.888459	0.888508
C81	C	1.436260	0.388467	0.388517
C82	C	1.936260	0.888467	0.888517
C83	C	1.142274	0.388388	0.598797
C84	C	1.642274	0.888388	1.098797
C85	C	1.142290	0.388365	0.688418
C86	C	1.642290	0.888365	1.188418
C87	C	1.142342	1.178132	0.388533
C88	C	1.642342	1.678132	0.888533
C89	C	1.142372	1.088511	0.388578
C90	C	1.642372	1.588511	0.888578
C91	C	1.142242	0.388436	0.178997
C92	C	1.642242	0.888436	0.678997
C93	C	1.142378	0.388231	0.089376
C94	C	1.642378	0.888231	0.589376
C95	C	1.142303	0.388347	0.761201
C96	C	1.642303	0.888347	1.261201
C97	C	1.142322	0.388317	0.852509
C98	C	1.642322	0.888317	1.352509
C99	C	1.142340	0.388289	0.925286
C100	C	1.642340	0.888289	1.425286
C101	C	1.142360	0.388260	1.016600
C102	C	1.642360	0.888260	1.516600
H103	H	0.443861	0.481912	0.294805
H104	H	0.943861	0.981912	0.794805
H105	H	0.567635	0.533398	0.243144
H106	H	1.067635	1.033398	0.743144
C107	C	0.432216	0.280308	0.496981
C108	C	0.932216	0.780308	0.996981
N109	N	0.398055	0.237635	0.539781
N110	N	0.898055	0.737635	1.039781
H111	H	0.717413	0.533389	0.243136
H112	H	1.217413	1.033389	0.743136
H113	H	0.841277	0.481878	0.294777
H114	H	1.341277	0.981878	0.794777
H115	H	0.841413	0.294999	0.482178
H116	H	1.341413	0.794999	0.982178
H117	H	0.567868	0.243504	0.533866
H118	H	1.067868	0.743504	1.033866
H119	H	0.717630	0.243503	0.533838
H120	H	1.217630	0.743503	1.033838
