data_functionalizedCrystal
_audit_creation_method	'MofGen! by Chris Wilmer'
_symmetry_space_group_name_H-M	'P1'
_symmetry_Int_Tables_number	1
_symmetry_cell_setting	triclinic
loop_
_symmetry_equiv_pos_as_xyz
  x,y,z
_cell_length_a	16.992697
_cell_length_b	9.730217
_cell_length_c	10.654541
_cell_angle_alpha	90.003041
_cell_angle_beta	92.423810
_cell_angle_gamma	90.005041
loop_
_atom_site_label
_atom_site_type_symbol
_atom_site_fract_x
_atom_site_fract_y
_atom_site_fract_z
O1	O	-1.041835	0.114090	0.266433
O2	O	-0.813534	0.114137	0.263509
O3	O	-0.932935	0.114104	0.082685
O4	O	-0.922434	0.114123	0.447257
O5	O	-0.932931	-0.114476	0.082683
O6	O	-0.813530	-0.114444	0.263507
O7	O	-1.041831	-0.114490	0.266431
Zn8	Zn	-0.927680	-0.150759	0.264968
Zn9	Zn	-0.927685	0.150405	0.264971
O10	O	-0.922431	-0.114457	0.447255
C11	C	-0.784299	-0.000148	0.259748
C12	C	-0.697194	-0.000130	0.248528
N13	N	-0.927683	-0.356295	0.264966
C14	C	-0.647542	-0.000124	0.356779
C15	C	-0.565698	-0.000142	0.346229
C16	C	-0.533508	-0.000155	0.227428
C17	C	-0.583167	-0.000165	0.119169
C18	C	-0.665009	-0.000157	0.129720
C19	C	-0.289673	-0.000188	0.183700
C20	C	-0.207824	-0.000191	0.173158
C21	C	-0.190361	-0.000171	0.400219
C22	C	-0.272205	-0.000155	0.410759
C23	C	-0.321857	-0.000172	0.302500
N24	N	-0.449850	-0.000169	0.216642
N25	N	-0.405513	-0.000168	0.313288
C26	C	-1.033455	-0.356315	0.104900
C27	C	-1.086347	-0.428264	0.024871
C28	C	-1.086355	-0.572144	0.024871
C29	C	-1.033464	-0.644078	0.104906
C30	C	-0.980573	-0.572128	0.184935
C31	C	-0.980572	-0.428245	0.184929
C32	C	-0.874797	-0.572109	0.344993
C33	C	-0.874792	-0.428229	0.345001
C34	C	-0.821906	-0.644042	0.425028
C35	C	-0.769017	-0.572092	0.505065
C36	C	-0.769012	-0.428204	0.505063
C37	C	-0.821900	-0.356279	0.425030
C38	C	-0.071066	-0.000196	0.270191
C39	C	-0.158172	-0.000186	0.281408
C40	C	-0.932162	-0.000185	0.035819
C41	C	-0.929857	-0.000182	-0.103823
N42	N	-0.927689	0.355942	0.264964
C43	C	-1.072633	-0.000229	-0.119455
C44	C	-1.142934	-0.000255	-0.192874
C45	C	-1.140763	-0.000250	-0.324080
C46	C	-1.068283	-0.000215	-0.381869
C47	C	-0.997981	-0.000189	-0.308450
C48	C	-1.000160	-0.000198	-0.177242
C49	C	-0.855207	-0.000133	-0.292818
C50	C	-0.857376	-0.000148	-0.161612
C51	C	-0.782727	-0.000099	-0.350607
C52	C	-0.712423	-0.000083	-0.277188
C53	C	-0.714598	-0.000089	-0.145975
C54	C	-0.787075	-0.000122	-0.088194
C55	C	-0.923203	-0.000165	0.494120
C56	C	-0.925509	-0.000159	0.633763
H57	H	-0.673744	-0.000113	0.453520
F58	F	-0.173568	-0.000229	0.046707
H59	H	-0.725938	-0.369630	0.570227
H60	H	-1.033461	-0.239160	0.104903
H61	H	-1.066521	-0.000194	-0.488704
F62	F	-0.137513	-0.000156	0.515427
F63	F	-0.306458	-0.000133	0.537204
H64	H	-1.201946	-0.000295	-0.145808
H65	H	-0.525274	-0.000136	0.434379
H66	H	-0.330090	-0.000203	0.095548
F67	F	-0.548906	-0.000188	-0.007269
F68	F	-0.717853	-0.000168	0.014504
H69	H	-1.129409	-0.369684	-0.040295
F70	F	-0.635293	-0.000031	-0.338699
F71	F	-0.780418	-0.000023	-0.490248
F72	F	-1.142645	-0.648719	-0.060311
H73	H	-1.033467	-0.761232	0.104890
F74	F	-0.712729	-0.648654	0.590227
H75	H	-0.788852	-0.000136	0.018640
F76	F	-0.821902	-0.203149	0.425026
F77	F	-0.821911	-0.797172	0.425022
F78	F	-1.074949	-0.000261	0.020185
F79	F	-1.215585	-0.000266	-0.402220
H80	H	-0.657349	-0.000062	-0.086204
