data_functionalizedCrystal
_audit_creation_method	'MofGen! by Chris Wilmer'
_symmetry_space_group_name_H-M	'P1'
_symmetry_Int_Tables_number	1
_symmetry_cell_setting	triclinic
loop_
_symmetry_equiv_pos_as_xyz
  x,y,z
_cell_length_a	8.559649
_cell_length_b	10.654550
_cell_length_c	7.681481
_cell_angle_alpha	84.203385
_cell_angle_beta	94.913240
_cell_angle_gamma	77.131784
loop_
_atom_site_label
_atom_site_type_symbol
_atom_site_fract_x
_atom_site_fract_y
_atom_site_fract_z
O1	O	2.104699	-0.029228	-0.146401
O2	O	1.640212	0.035560	-0.146409
O3	O	1.883136	-0.180677	-0.146398
O4	O	1.861776	0.187009	-0.146412
O5	O	1.913035	-0.207346	0.146461
O6	O	1.670112	0.008891	0.146450
O7	O	2.134598	-0.055897	0.146458
Zn8	Zn	1.907102	-0.027737	0.192952
Zn9	Zn	1.867709	0.007400	-0.192903
O10	O	1.891675	0.160340	0.146447
C11	C	1.595686	0.027135	0.000019
C12	C	1.418468	0.041750	0.000016
C13	C	1.896517	-0.240647	0.000029
C14	C	1.891824	-0.379605	0.000023
C15	C	2.034854	-0.473866	0.000031
C16	C	2.030434	-0.604430	0.000018
C17	C	1.739944	-0.546457	-0.000002
C18	C	1.744364	-0.415896	-0.000003
C19	C	2.182315	-0.437576	0.000056
C20	C	2.325356	-0.531840	0.000066
C21	C	2.320937	-0.662403	0.000054
C22	C	2.173475	-0.698703	0.000032
C23	C	2.179124	-0.047472	0.000026
C24	C	2.356341	-0.062085	0.000018
C25	C	1.878293	0.220311	0.000016
C26	C	1.882985	0.359270	0.000011
N27	N	1.933999	-0.051719	0.456287
N28	N	1.840824	0.031371	-0.456238
H29	H	2.185930	-0.331269	0.000072
H30	H	1.627896	-0.339145	-0.000007
O31	O	1.454521	-0.181482	-0.000289
C32	C	1.520579	-0.370366	-0.151951
C33	C	1.409288	-0.235155	-0.151842
H34	H	1.484028	-0.413813	-0.274449
H35	H	1.650807	-0.361345	-0.152063
H36	H	1.509223	-0.436083	-0.029332
H37	H	1.420503	-0.169365	-0.274439
H38	H	1.279106	-0.244277	-0.151638
O39	O	2.047392	-0.153052	0.545807
C40	C	2.143822	-0.385326	0.602636
C41	C	2.015332	-0.270688	0.501114
H42	H	2.117928	-0.480462	0.566567
H43	H	2.268251	-0.378242	0.566434
H44	H	2.140350	-0.382133	0.750180
H45	H	2.018656	-0.273809	0.353547
H46	H	1.890961	-0.277813	0.537463
O47	O	1.727514	0.132700	0.454139
C48	C	1.630957	0.364969	0.397479
C49	C	1.759405	0.250333	0.499067
H50	H	1.656675	0.460102	0.433793
H51	H	1.634448	0.361952	0.249904
H52	H	1.506571	0.357707	0.433624
H53	H	1.883852	0.257519	0.463069
H54	H	1.755771	0.253388	0.646617
H55	H	1.336070	0.141835	0.000003
H56	H	2.445409	-0.502271	0.000040
H57	H	2.437406	-0.739149	0.000044
H58	H	2.169886	-0.805017	0.000003
H59	H	1.619888	-0.576025	-0.000018
