data_functionalizedCrystal
_audit_creation_method	'MofGen! by Chris Wilmer'
_symmetry_space_group_name_H-M	'P1'
_symmetry_Int_Tables_number	1
_symmetry_cell_setting	triclinic
loop_
_symmetry_equiv_pos_as_xyz
  x,y,z
_cell_length_a	20.919309
_cell_length_b	19.851628
_cell_length_c	20.919327
_cell_angle_alpha	58.215610
_cell_angle_beta	86.849798
_cell_angle_gamma	57.435097
loop_
_atom_site_label
_atom_site_type_symbol
_atom_site_fract_x
_atom_site_fract_y
_atom_site_fract_z
Zr1	Zr	0.645056	0.684482	-0.058894
O2	O	0.544752	0.833250	-0.165027
O3	O	0.675816	0.541417	-0.026357
O4	O	0.683441	0.681332	-0.159623
O5	O	0.531099	0.693831	0.073361
O6	O	0.792828	0.672360	-0.155362
O7	O	0.537127	0.693335	-0.031761
O8	O	0.779188	0.422078	0.083027
O9	O	0.544739	0.944114	-0.165028
O10	O	0.770555	0.591454	-0.009302
O11	O	0.684422	0.598520	0.065969
O12	O	0.693399	0.763252	-0.090935
O13	O	0.607266	0.770318	-0.015664
Zr14	Zr	0.809900	0.670965	0.115559
Zr15	Zr	0.819515	0.670174	-0.052098
Zr16	Zr	0.635441	0.685274	0.108763
Zr17	Zr	0.645034	0.861298	-0.058896
Zr18	Zr	0.809922	0.494150	0.115561
O19	O	0.779139	0.814031	0.083022
O20	O	0.792810	0.812905	-0.155364
O21	O	0.531081	0.834376	0.073359
O22	O	0.910203	0.522198	0.221692
O23	O	0.923874	0.521072	-0.016694
O24	O	0.662145	0.542543	0.212029
O25	O	0.923857	0.661616	-0.016696
O26	O	0.771514	0.674116	0.216288
O27	O	0.662128	0.683087	0.212027
O28	O	0.917828	0.662113	0.088426
O29	O	0.683410	0.932741	-0.159626
O30	O	0.771546	0.422707	0.216291
O31	O	0.910217	0.411334	0.221693
O32	O	0.917859	0.410704	0.088429
O33	O	0.537096	0.944743	-0.031764
O34	O	0.675767	0.933370	-0.026362
O35	O	0.761556	0.592195	0.147600
O36	O	0.847689	0.585129	0.072329
O37	O	0.770534	0.756927	-0.009304
O38	O	0.684401	0.763993	0.065967
C39	C	0.727505	0.456555	0.028336
C40	C	0.727515	0.381492	0.028337
C41	C	0.774450	0.196305	-0.012713
C42	C	0.802484	0.093853	0.062308
C43	C	0.727490	0.244088	0.028336
C44	C	0.699470	0.212790	-0.046677
C45	C	0.727468	0.111364	0.028329
C46	C	0.755567	0.142575	0.103402
C47	C	0.652513	0.261569	-0.005638
C48	C	0.680526	0.159125	0.069426
C49	C	0.727505	0.320546	0.028339
C50	C	0.727453	0.034902	0.028333
C51	C	0.509257	0.695622	0.019832
C52	C	0.435194	0.701696	0.016947
C53	C	0.440672	0.614876	0.058199
C54	C	0.371080	0.620589	0.055486
C55	C	0.296011	0.713124	0.011516
C56	C	0.290535	0.799951	-0.029737
C57	C	0.360126	0.794237	-0.027019
C58	C	0.083876	0.734864	0.001183
C59	C	0.014283	0.740572	-0.001534
C60	C	0.094833	0.561209	0.083691
C61	C	0.164422	0.555503	0.086401
C62	C	0.158940	0.642330	0.045151
C63	C	0.224876	0.718966	0.008740
C64	C	0.230074	0.636487	0.047932
C65	C	0.945699	0.659826	0.036833
C66	C	1.019761	0.653751	0.039718
C67	C	0.739504	0.676733	-0.181380
C68	C	0.743586	0.676397	-0.252554
C69	C	0.727450	0.898893	0.028329
C70	C	0.727441	0.973955	0.028328
C71	C	0.685244	0.681181	-0.288342
C72	C	0.689081	0.680873	-0.355221
C73	C	0.751264	0.675775	-0.386309
C74	C	0.809609	0.670994	-0.350518
C75	C	0.805768	0.671309	-0.283643
C76	C	0.765873	0.674584	-0.588115
C77	C	0.769711	0.674267	-0.654993
C78	C	0.649182	0.684148	-0.659693
C79	C	0.645349	0.684456	-0.592813
C80	C	0.703692	0.679680	-0.557031
C81	C	0.755189	0.675457	-0.454670
C82	C	0.699763	0.680005	-0.488675
C83	C	0.715451	0.678714	0.238045
C84	C	0.711369	0.679050	0.309219
C85	C	0.945727	0.438657	0.036836
C86	C	1.019798	0.357520	0.039723
C87	C	0.715479	0.457545	0.238048
C88	C	0.711406	0.382819	0.309223
C89	C	0.933700	0.439647	0.246549
C90	C	1.003690	0.358846	0.320609
C91	C	0.521256	0.915800	-0.189884
C92	C	0.451266	0.996601	-0.263944
C93	C	0.509229	0.916791	0.019829
C94	C	0.435157	0.997928	0.016942
C95	C	0.739477	0.897902	-0.181383
C96	C	0.743549	0.972629	-0.252558
C97	C	1.014320	0.322719	-0.001540
C98	C	1.083912	0.246492	0.001156
C99	C	1.158982	0.205063	0.045119
C100	C	1.164459	0.239871	0.086383
C101	C	1.094867	0.316102	0.083682
C102	C	0.749757	0.344425	0.385265
C103	C	0.745927	0.274221	0.452149
C104	C	0.703751	0.242408	0.442988
C105	C	0.665395	0.280809	0.366938
C106	C	0.669221	0.351017	0.300056
C107	C	1.081526	0.317212	0.316099
C108	C	1.147296	0.241301	0.385680
C109	C	1.135228	0.207019	0.459772
C110	C	1.057384	0.248661	0.464280
C111	C	0.991616	0.324576	0.394700
C112	C	0.373430	1.038244	-0.259434
C113	C	0.307660	1.114178	-0.329015
C114	C	0.319727	1.148463	-0.403107
C115	C	0.397571	1.106817	-0.407615
C116	C	0.463340	1.030889	-0.338035
C117	C	0.440636	1.032737	0.058198
C118	C	0.371045	1.108983	0.055483
C119	C	0.295975	1.150414	0.011518
C120	C	0.290498	1.115602	-0.029742
C121	C	0.360089	1.039362	-0.027032
C122	C	0.785732	1.004419	-0.243372
C123	C	0.789574	1.074622	-0.310242
C124	C	0.751228	1.113039	-0.386297
C125	C	0.709043	1.081241	-0.395482
C126	C	0.705207	1.011035	-0.328613
H127	H	0.640810	0.142784	0.104187
H128	H	1.079437	0.218161	-0.032446
H129	H	1.047570	0.220738	0.524615
H130	H	1.215641	0.142991	0.047313
H131	H	1.210674	0.207403	0.381995
H132	H	0.229367	1.149347	-0.065538
H133	H	1.188788	0.145203	0.516423
H134	H	0.589130	0.333232	-0.034390
H135	H	0.601682	0.688037	-0.688834
H136	H	1.099339	0.344427	0.117287
H137	H	0.677823	1.112531	-0.457415
H138	H	0.631056	0.254896	0.359491
H139	H	0.777164	0.242963	0.514066
H140	H	0.637993	0.382268	0.238142
H141	H	0.865882	0.022204	0.091044
H142	H	1.091367	0.345113	0.255776
H143	H	0.355617	1.011024	-0.060625
H144	H	0.928241	0.358465	0.398383
H145	H	0.244282	1.148074	-0.325329
H146	H	0.675781	0.241708	-0.110111
H147	H	0.634611	0.685326	-0.263032
H148	H	0.784101	0.370319	0.392739
H149	H	0.501793	0.539523	0.094007
H150	H	0.526716	0.996984	-0.341717
H151	H	1.225590	0.206129	0.122176
H152	H	0.266168	1.210288	-0.459758
H153	H	0.363589	1.010334	-0.199111
H154	H	0.813379	0.670693	-0.558984
H155	H	0.501755	0.999009	0.094004
H156	H	0.407388	1.134741	-0.467949
H157	H	0.670853	0.985159	-0.336103
H158	H	0.099287	0.490519	0.117275
H159	H	0.700642	0.185240	0.497454
H160	H	0.375520	1.137313	0.089086
H161	H	0.239316	1.212493	0.009318
H162	H	0.953201	0.356449	-0.037349
H163	H	0.375547	0.549890	0.089079
H164	H	0.225544	0.480151	0.122191
H165	H	0.816959	0.973151	-0.181450
H166	H	0.823924	1.100504	-0.302749
H167	H	0.754358	1.170206	-0.440740
H168	H	-0.046842	0.815929	-0.037343
H169	H	0.820352	0.670114	-0.680301
H170	H	0.779328	0.113513	0.166868
H171	H	0.814213	0.212682	-0.047361
H172	H	0.229407	0.875295	-0.065534
H173	H	0.079403	0.805565	-0.032420
H174	H	0.860238	0.666849	-0.375837
H175	H	0.355660	0.864936	-0.060602
H176	H	0.291198	0.561145	0.083735
H177	H	0.853275	0.667416	-0.254506
H178	H	0.163747	0.794309	-0.027060
H179	H	0.641575	0.684769	-0.384360
H180	H	0.594715	0.688607	-0.567503
H181	H	0.805821	0.671304	-0.479986
H182	H	0.649131	0.684161	-0.463364
