data_functionalizedCrystal
_audit_creation_method	'MofGen! by Chris Wilmer'
_symmetry_space_group_name_H-M	'P1'
_symmetry_Int_Tables_number	1
_symmetry_cell_setting	triclinic
loop_
_symmetry_equiv_pos_as_xyz
  x,y,z
_cell_length_a	19.188930
_cell_length_b	27.732048
_cell_length_c	17.666332
_cell_angle_alpha	89.988553
_cell_angle_beta	89.976766
_cell_angle_gamma	82.893716
loop_
_atom_site_label
_atom_site_type_symbol
_atom_site_fract_x
_atom_site_fract_y
_atom_site_fract_z
O1	O	0.925765	0.060348	-0.063200
O2	O	1.425765	0.560348	0.436800
O3	O	0.722402	0.068472	-0.063149
O4	O	1.222402	0.568472	0.436851
O5	O	0.830399	-0.005968	-0.063161
O6	O	1.330399	0.494032	0.436839
O7	O	0.817767	0.134787	-0.063187
O8	O	1.317767	0.634787	0.436813
O9	O	0.830380	-0.005971	0.062735
O10	O	1.330380	0.494029	0.562735
O11	O	0.722383	0.068468	0.062748
O12	O	1.222383	0.568468	0.562748
O13	O	0.925746	0.060344	0.062697
O14	O	1.425746	0.560344	0.562697
Cu15	Cu	0.824063	0.064406	0.074218
Cu16	Cu	1.324063	0.564406	0.574218
Cu17	Cu	0.824085	0.064410	-0.074670
Cu18	Cu	1.324085	0.564410	0.425330
O19	O	0.817748	0.134783	0.062710
O20	O	1.317748	0.634783	0.562710
C21	C	0.696383	0.068207	-0.000194
C22	C	1.196383	0.568207	0.499806
C23	C	0.618883	0.067417	-0.000174
C24	C	1.118883	0.567417	0.499826
C25	C	0.573681	0.111096	-0.000194
C26	C	1.073681	0.611096	0.499806
C27	C	0.500862	0.110354	-0.000202
C28	C	1.000862	0.610354	0.499798
C29	C	0.473249	0.065931	-0.000205
C30	C	0.973249	0.565931	0.499795
C31	C	0.518461	0.022246	-0.000181
C32	C	1.018461	0.522246	0.499819
C33	C	0.591278	0.022990	-0.000165
C34	C	1.091278	0.522990	0.499835
N35	N	0.365491	0.031976	-0.043078
N36	N	0.865491	0.531976	0.456922
N37	N	0.296317	0.031273	-0.043094
N38	N	0.796317	0.531273	0.456906
C39	C	0.253854	0.063689	-0.000251
C40	C	0.753854	0.563689	0.499749
N41	N	0.283177	0.096841	0.042600
N42	N	0.783177	0.596841	0.542600
N43	N	0.352357	0.097546	0.042613
N44	N	0.852357	0.597546	0.542613
C45	C	0.394291	0.065120	-0.000222
C46	C	0.894291	0.565120	0.499778
C47	C	0.129692	0.106566	-0.000279
C48	C	0.629692	0.606566	0.499721
C49	C	0.056872	0.105822	-0.000282
C50	C	0.556872	0.605822	0.499718
C51	C	0.074473	0.017714	-0.000269
C52	C	0.574473	0.517714	0.499731
C53	C	0.147292	0.018459	-0.000258
C54	C	0.647292	0.518459	0.499742
C55	C	0.174897	0.062886	-0.000267
C56	C	0.674897	0.562886	0.499733
C57	C	0.830125	-0.023977	-0.000211
C58	C	1.330125	0.476023	0.499789
C59	C	0.829326	-0.077635	-0.000204
C60	C	1.329326	0.422365	0.499796
C61	C	0.888119	-0.416270	-0.000258
C62	C	1.388119	0.083730	0.499742
C63	C	0.885157	-0.617939	-0.000268
C64	C	1.385157	-0.117939	0.499732
O65	O	0.938918	-0.649030	-0.000314
O66	O	1.438918	-0.149030	0.499686
N67	N	0.821118	-0.637258	-0.000251
N68	N	1.321118	-0.137258	0.499749
C69	C	0.757816	-0.606157	-0.000237
C70	C	1.257816	-0.106157	0.499763
O71	O	0.703280	-0.627217	-0.000231
O72	O	1.203280	-0.127217	0.499769
C73	C	0.760780	-0.404489	-0.000233
C74	C	1.260780	0.095511	0.499767
C75	C	0.824822	-0.385173	-0.000242
C76	C	1.324822	0.114827	0.499758
C77	C	0.952156	-0.396953	-0.000268
C78	C	1.452156	0.103047	0.499732
C79	C	0.952896	-0.346539	-0.000261
C80	C	1.452896	0.153461	0.499739
C81	C	0.889599	-0.315441	-0.000245
C82	C	1.389599	0.184559	0.499755
C83	C	0.825562	-0.334759	-0.000235
C84	C	1.325562	0.165241	0.499765
C85	C	0.697478	-0.373389	-0.000224
C86	C	1.197478	0.126611	0.499776
C87	C	0.698225	-0.322969	-0.000225
C88	C	1.198225	0.177031	0.499775
C89	C	0.762267	-0.303653	-0.000234
C90	C	1.262267	0.196347	0.499766
C91	C	0.763005	-0.253247	-0.000212
C92	C	1.263005	0.246753	0.499788
N93	N	0.827043	-0.233928	-0.000229
N94	N	1.327043	0.266072	0.499771
C95	C	0.890340	-0.265025	-0.000245
C96	C	1.390340	0.234975	0.499755
C97	C	0.756265	-0.712036	-0.000238
C98	C	1.256265	-0.212036	0.499762
C99	C	0.755524	-0.762452	-0.000238
C100	C	1.255524	-0.262452	0.499762
C101	C	0.882865	-0.774231	-0.000270
C102	C	1.382865	-0.274231	0.499730
C103	C	0.883605	-0.723813	-0.000265
C104	C	1.383605	-0.223813	0.499735
C105	C	0.820303	-0.692716	-0.000254
C106	C	1.320303	-0.192716	0.499746
C107	C	0.891889	-0.159151	-0.000231
C108	C	1.391889	0.340849	0.499769
C109	C	0.892623	-0.108732	-0.000221
C110	C	1.392623	0.391268	0.499779
C111	C	0.765283	-0.096958	-0.000193
C112	C	1.265283	0.403042	0.499807
C113	C	0.764549	-0.147373	-0.000198
C114	C	1.264549	0.352627	0.499802
C115	C	0.827857	-0.178468	-0.000220
C116	C	1.327857	0.321532	0.499780
O117	O	0.709272	-0.222127	-0.000174
O118	O	1.209272	0.277873	0.499826
O119	O	0.944868	-0.243956	-0.000268
O120	O	1.444868	0.256044	0.499732
C121	C	0.887379	-0.466684	-0.000265
C122	C	1.387379	0.033316	0.499735
C123	C	0.823342	-0.486001	-0.000255
C124	C	1.323342	0.013999	0.499745
C125	C	0.760045	-0.454904	-0.000238
C126	C	1.260045	0.045096	0.499762
C127	C	0.822601	-0.536418	-0.000254
C128	C	1.322601	-0.036418	0.499746
C129	C	0.885898	-0.567515	-0.000271
C130	C	1.385898	-0.067515	0.499729
C131	C	0.949936	-0.548195	-0.000288
C132	C	1.449936	-0.048195	0.499712
C133	C	0.950676	-0.497781	-0.000281
C134	C	1.450676	0.002219	0.499719
C135	C	0.696007	-0.474223	-0.000222
C136	C	1.196007	0.025777	0.499778
C137	C	0.695272	-0.524638	-0.000227
C138	C	1.195272	-0.024638	0.499773
C139	C	0.758569	-0.555735	-0.000244
C140	C	1.258569	-0.055735	0.499756
C141	C	0.951765	0.060609	-0.000260
C142	C	1.451765	0.560609	0.499740
C143	C	1.029264	0.061399	-0.000285
C144	C	1.529264	0.561399	0.499715
C145	C	0.818023	0.152793	-0.000243
C146	C	1.318023	0.652793	0.499757
C147	C	0.818821	0.206450	-0.000254
C148	C	1.318821	0.706450	0.499746
N149	N	0.824052	0.064402	0.178937
N150	N	1.324052	0.564402	0.678937
N151	N	0.824101	0.064410	-0.179389
N152	N	1.324101	0.564410	0.320611
C153	C	0.871889	0.031456	0.218541
C154	C	1.371889	0.531456	0.718541
C155	C	0.871893	0.031454	0.297789
C156	C	1.371893	0.531454	0.797789
C157	C	0.824067	0.064406	0.337429
C158	C	1.324067	0.564406	0.837429
C159	C	0.776221	0.097354	0.297816
C160	C	1.276221	0.597354	0.797816
C161	C	0.776214	0.097352	0.218570
C162	C	1.276214	0.597352	0.718570
N163	N	0.814718	0.107196	0.461842
N164	N	1.314718	0.607196	0.961842
N165	N	0.814729	0.107196	0.537122
N166	N	1.314729	0.607196	1.037122
C167	C	0.824085	0.064412	0.576193
C168	C	1.324085	0.564412	1.076193
N169	N	0.833444	0.021627	0.537140
N170	N	1.333444	0.521627	1.037140
N171	N	0.833436	0.021628	0.461853
N172	N	1.333436	0.521628	0.961853
C173	C	0.824069	0.064411	0.423359
C174	C	1.324069	0.564411	0.923359
C175	C	0.871929	0.031462	0.701727
C176	C	1.371929	0.531462	1.201727
C177	C	0.871928	0.031459	0.780976
C178	C	1.371928	0.531459	1.280976
C179	C	0.776260	0.097363	0.781001
C180	C	1.276260	0.597363	1.281001
C181	C	0.776257	0.097361	0.701754
C182	C	1.276257	0.597361	1.201754
C183	C	0.824096	0.064411	0.662121
C184	C	1.324096	0.564411	1.162121
H185	H	0.596152	0.147272	-0.000202
H186	H	1.096152	0.647272	0.499798
N187	N	0.923537	-0.004069	0.823696
N188	N	1.423537	0.495931	1.323696
H189	H	0.953845	-0.024937	0.786561
H190	H	1.453845	0.475063	1.286561
H191	H	0.954193	0.014398	0.856545
H192	H	1.454193	0.514398	1.356545
N193	N	0.697017	-0.063411	-0.000185
N194	N	1.197017	0.436589	0.499815
H195	H	0.656332	-0.083295	-0.000181
H196	H	1.156332	0.416705	0.499819
H197	H	0.694541	-0.042241	0.046486
H198	H	1.194541	0.457759	0.546486
H199	H	0.703375	-0.778175	-0.000217
H200	H	1.203375	-0.278175	0.499783
H201	H	0.737259	0.124181	0.186323
H202	H	1.237259	0.624181	0.686323
N203	N	0.724670	0.132901	0.823744
N204	N	1.224670	0.632901	1.323744
H205	H	0.731930	0.127902	0.879957
H206	H	1.231930	0.627902	1.379957
H207	H	0.732359	0.167179	0.809877
H208	H	1.232359	0.667179	1.309877
H209	H	0.495974	-0.013923	-0.000195
H210	H	0.995974	0.486077	0.499805
H211	H	1.003703	-0.422268	-0.000284
H212	H	1.503703	0.077732	0.499716
H213	H	0.464051	0.145923	-0.000216
H214	H	0.964051	0.645923	0.499784
H215	H	0.934404	-0.799559	-0.000283
H216	H	1.434404	-0.299559	0.499717
H217	H	0.910848	0.004625	0.330041
H218	H	1.410848	0.504625	0.830041
N219	N	0.640036	-0.024124	-0.000156
N220	N	1.140036	0.475876	0.499844
H221	H	0.690355	-0.016912	-0.000149
H222	H	1.190355	0.483088	0.499851
H223	H	0.631128	-0.043493	0.046517
H224	H	1.131128	0.456507	0.546517
H225	H	0.737307	0.124191	0.669506
H226	H	1.237307	0.624191	1.169506
N227	N	0.687987	-0.678497	-0.000215
N228	N	1.187987	-0.178497	0.499785
H229	H	0.685454	-0.657311	-0.046884
H230	H	1.185454	-0.157311	0.453116
H231	H	0.647351	-0.698424	-0.000173
H232	H	1.147351	-0.198424	0.499827
H233	H	0.646676	-0.297652	-0.000217
H234	H	1.146676	0.202348	0.499783
N235	N	0.628404	-0.394215	-0.000204
N236	N	1.128404	0.105785	0.499796
H237	H	0.588424	-0.366858	-0.000195
H238	H	1.088424	0.133142	0.499805
H239	H	0.625323	-0.414871	-0.046875
H240	H	1.125323	0.085129	0.453125
H241	H	0.712400	-0.163101	-0.000170
H242	H	1.212400	0.336899	0.499830
N243	N	0.159474	0.154481	-0.000284
N244	N	0.659474	0.654481	0.499716
H245	H	0.119785	0.182040	-0.000291
H246	H	0.619785	0.682040	0.499709
H247	H	0.189280	0.156706	0.046391
H248	H	0.689280	0.656706	0.546391
N249	N	0.960170	-0.192685	-0.000254
N250	N	1.460170	0.307315	0.499746
H251	H	1.000844	-0.172791	-0.000258
H252	H	1.500844	0.327209	0.499742
H253	H	0.962631	-0.213867	0.046416
H254	H	1.462631	0.286133	0.546416
H255	H	0.020068	0.141392	-0.000294
H256	H	0.520068	0.641392	0.499706
H257	H	1.002826	-0.482059	-0.000289
H258	H	1.502826	0.017941	0.499711
N259	N	1.018205	-0.581744	-0.000301
N260	N	1.518205	-0.081744	0.499699
H261	H	1.020736	-0.602917	-0.046974
H262	H	1.520736	-0.102917	0.453026
H263	H	1.058853	-0.561829	-0.000279
H264	H	1.558853	-0.061829	0.499721
N265	N	0.044701	-0.030201	-0.000265
N266	N	0.544701	0.469799	0.499735
H267	H	-0.008288	-0.024045	-0.000275
H268	H	0.491712	0.475955	0.499725
H269	H	0.061296	-0.049308	-0.046930
H270	H	0.561296	0.450692	0.453070
H271	H	0.910880	0.004630	0.669457
H272	H	1.410880	0.504630	1.169457
H273	H	0.184097	-0.017109	-0.000246
H274	H	0.684097	0.482891	0.499754
N275	N	0.626193	-0.545469	-0.000205
N276	N	1.126193	-0.045469	0.499795
H277	H	0.586211	-0.518115	-0.000193
H278	H	1.086211	-0.018115	0.499807
H279	H	0.623116	-0.566123	-0.046878
H280	H	1.123116	-0.066123	0.453122
N281	N	0.923479	-0.004085	0.175798
N282	N	1.423479	0.495915	0.675798
H283	H	0.916219	0.000912	0.119585
H284	H	1.416219	0.500912	0.619585
H285	H	0.972947	0.001418	0.189622
H286	H	1.472947	0.501418	0.689622
H287	H	0.737280	0.124183	0.330095
H288	H	1.237280	0.624183	0.830095
H289	H	0.644461	-0.448908	-0.000210
H290	H	1.144461	0.051092	0.499790
H291	H	0.944776	-0.093007	-0.000226
H292	H	1.444776	0.406993	0.499774
N293	N	0.952680	-0.702983	-0.000277
N294	N	1.452680	-0.202983	0.499723
H295	H	0.955839	-0.682323	-0.046947
H296	H	1.455839	-0.182323	0.453053
H297	H	0.955777	-0.682358	0.046424
H298	H	1.455777	-0.182358	0.546424
H299	H	1.005046	-0.330816	-0.000272
H300	H	1.505046	0.169184	0.499728
