data_functionalizedCrystal
_audit_creation_method	'MofGen! by Chris Wilmer'
_symmetry_space_group_name_H-M	'P1'
_symmetry_Int_Tables_number	1
_symmetry_cell_setting	triclinic
loop_
_symmetry_equiv_pos_as_xyz
  x,y,z
_cell_length_a	15.944551
_cell_length_b	19.188930
_cell_length_c	15.021413
_cell_angle_alpha	89.998889
_cell_angle_beta	89.997174
_cell_angle_gamma	83.321760
loop_
_atom_site_label
_atom_site_type_symbol
_atom_site_fract_x
_atom_site_fract_y
_atom_site_fract_z
O1	O	1.114192	0.090039	-0.073949
O2	O	0.869601	0.101141	-0.073973
O3	O	0.998955	-0.006048	-0.073943
O4	O	0.984838	0.197227	-0.073979
O5	O	0.998934	-0.006033	0.074121
O6	O	0.869580	0.101156	0.074091
O7	O	1.114171	0.090054	0.074115
Zn8	Zn	0.991873	0.095607	0.097611
Zn9	Zn	0.991900	0.095587	-0.097470
O10	O	0.984817	0.197242	0.074085
C11	C	0.838298	0.100687	0.000056
C12	C	0.745057	0.099306	0.000048
C13	C	0.530462	0.029563	0.000078
C14	C	0.469331	0.061941	-0.072931
C15	C	0.574341	0.096806	0.000059
C16	C	0.469332	0.061972	0.073048
C17	C	0.409437	0.094386	0.000074
C18	C	0.514438	0.129203	-0.073010
C19	C	0.514446	0.129225	0.073035
C20	C	0.453332	0.161652	0.000008
C21	C	0.669338	0.098198	0.000050
C22	C	0.314441	0.093000	0.000076
C23	C	0.998487	-0.032052	0.000091
C24	C	0.997115	-0.109560	0.000099
C25	C	1.073016	-0.154288	0.000111
C26	C	1.071726	-0.227115	0.000096
C27	C	0.994532	-0.255211	0.000088
C28	C	0.918622	-0.210474	0.000072
C29	C	0.919913	-0.137648	0.000077
N30	N	0.935519	-0.363364	0.050472
N31	N	0.934298	-0.432546	0.050468
C32	C	0.990637	-0.474630	0.000070
N33	N	1.048256	-0.444921	-0.050314
N34	N	1.049480	-0.375733	-0.050307
C35	C	0.993123	-0.334178	0.000082
C36	C	1.065145	-0.598326	0.000064
C37	C	1.063852	-0.671154	0.000044
C38	C	0.910745	-0.654511	0.000029
C39	C	0.912040	-0.581685	0.000040
C40	C	0.989242	-0.553597	0.000062
C41	C	1.145474	0.090507	0.000083
C42	C	1.238715	0.091889	0.000086
C43	C	0.985285	0.223247	0.000048
C44	C	0.986657	0.300755	0.000035
N45	N	0.991860	0.095621	0.230749
N46	N	0.991919	0.095568	-0.230607
C47	C	0.932038	0.145161	0.470418
C48	C	1.007887	0.158716	0.529757
C49	C	0.991882	0.095603	0.412356
C50	C	0.916053	0.082064	0.529759
C51	C	0.991896	0.095588	0.587780
C52	C	1.067770	0.109189	0.470388
C53	C	0.975885	0.032510	0.470384
C54	C	1.051789	0.046038	0.529697
C55	C	0.991872	0.095614	0.311299
C56	C	0.991914	0.095577	0.688835
H57	H	0.419965	0.217516	-0.000043
H58	H	1.125662	-0.707571	0.000049
H59	H	0.855769	-0.233354	0.000063
C60	C	0.541122	0.167005	0.155432
C61	C	0.518557	0.131567	0.231675
C62	C	0.543130	0.166337	0.307602
H63	H	0.513671	0.213668	0.156075
H64	H	0.600558	0.167955	0.154583
H65	H	0.459132	0.130625	0.232524
H66	H	0.546005	0.084906	0.231062
H67	H	0.602566	0.167287	0.306753
H68	H	0.515678	0.213000	0.308236
H69	H	0.527831	0.142295	0.359341
H70	H	0.449335	0.033494	-0.134646
H71	H	0.858103	-0.101230	0.000068
C72	C	1.025972	0.229790	0.564718
C73	C	1.026512	0.228623	0.657914
C74	C	1.043170	0.294082	0.690148
H75	H	0.983435	0.265015	0.544523
H76	H	1.079457	0.239754	0.543570
H77	H	0.973035	0.218668	0.679053
H78	H	1.069049	0.193412	0.678133
H79	H	1.096655	0.304046	0.669000
H80	H	1.000631	0.329302	0.669947
H81	H	1.043546	0.293297	0.753384
C82	C	0.826992	-0.685101	-0.000122
C83	C	0.821799	-0.726432	-0.076293
C84	C	0.744660	-0.754632	-0.076462
H85	H	0.781900	-0.648100	-0.000171
H86	H	0.823288	-0.713208	0.051480
H87	H	0.825495	-0.698326	-0.127882
H88	H	0.866873	-0.763443	-0.076260
H89	H	0.740956	-0.782739	-0.024859
H90	H	0.699575	-0.717627	-0.076508
H91	H	0.741130	-0.782683	-0.128138
H92	H	0.564003	-0.026244	-0.000002
C93	C	0.957851	-0.038565	0.435398
C94	C	0.958873	-0.037789	0.342202
C95	C	0.942264	-0.103252	0.309939
H96	H	0.903924	-0.048181	0.455594
H97	H	0.999833	-0.073884	0.456526
H98	H	0.916894	-0.002481	0.321083
H99	H	1.012794	-0.028185	0.321983
H100	H	0.984246	-0.138571	0.331067
H101	H	0.888337	-0.112863	0.330141
H102	H	0.942963	-0.102737	0.246704
H103	H	0.850233	-0.545266	0.000035
H104	H	1.128007	-0.575456	0.000078
H105	H	0.449344	0.033525	0.134770
H106	H	0.534328	0.157617	-0.134801
H107	H	1.135880	-0.131424	0.000125
H108	H	0.881481	0.187105	0.444391
H109	H	1.133536	-0.263540	0.000102
C110	C	1.153212	0.124617	0.435596
C111	C	1.152179	0.124517	0.342394
C112	C	1.230856	0.138762	0.310310
H113	H	1.195851	0.089665	0.456253
H114	H	1.164636	0.169311	0.456387
H115	H	1.140764	0.079829	0.321611
H116	H	1.109556	0.159469	0.321713
H117	H	1.242280	0.183456	0.331102
H118	H	1.273490	0.103809	0.330974
H119	H	1.230163	0.138703	0.247070
H120	H	0.851919	0.070620	0.555840
C121	C	1.119474	-0.009770	0.564145
C122	C	1.198683	0.004730	0.533917
C123	C	1.261056	-0.046655	0.565644
H124	H	1.108677	-0.054502	0.542936
H125	H	1.118858	-0.009721	0.627388
H126	H	1.199298	0.004674	0.470686
H127	H	1.209507	0.049453	0.555123
H128	H	1.260440	-0.046606	0.628888
H129	H	1.250252	-0.091384	0.544434
H130	H	1.314808	-0.036820	0.545146
