data_functionalizedCrystal
_audit_creation_method	'MofGen! by Chris Wilmer'
_symmetry_space_group_name_H-M	'P1'
_symmetry_Int_Tables_number	1
_symmetry_cell_setting	triclinic
loop_
_symmetry_equiv_pos_as_xyz
  x,y,z
_cell_length_a	19.188930
_cell_length_b	19.188924
_cell_length_c	17.766277
_cell_angle_alpha	89.991559
_cell_angle_beta	89.976758
_cell_angle_gamma	83.143372
loop_
_atom_site_label
_atom_site_type_symbol
_atom_site_fract_x
_atom_site_fract_y
_atom_site_fract_z
O1	O	0.926147	0.087169	-0.062840
O2	O	1.426147	0.587169	0.437160
O3	O	0.722836	0.098903	-0.062788
O4	O	1.222836	0.598903	0.437212
O5	O	0.830361	-0.008620	-0.062807
O6	O	1.330361	0.491380	0.437193
O7	O	0.818622	0.194692	-0.062821
O8	O	1.318622	0.694692	0.437179
O9	O	0.830342	-0.008625	0.062382
O10	O	1.330342	0.491375	0.562382
O11	O	0.722817	0.098898	0.062400
O12	O	1.222817	0.598898	0.562400
O13	O	0.926129	0.087164	0.062349
O14	O	1.426129	0.587164	0.562349
Cu15	Cu	0.824471	0.093030	0.073805
Cu16	Cu	1.324471	0.593030	0.573805
Cu17	Cu	0.824493	0.093037	-0.074245
Cu18	Cu	1.324493	0.593037	0.425755
O19	O	0.818603	0.194687	0.062367
O20	O	1.318603	0.694687	0.562367
C21	C	0.696815	0.098521	-0.000188
C22	C	1.196815	0.598521	0.499812
C23	C	0.619311	0.097380	-0.000168
C24	C	1.119311	0.597380	0.499832
C25	C	0.574386	0.160471	-0.000184
C26	C	1.074386	0.660471	0.499816
C27	C	0.501562	0.159399	-0.000192
C28	C	1.001562	0.659399	0.499808
C29	C	0.473667	0.095233	-0.000199
C30	C	0.973667	0.595233	0.499801
C31	C	0.518602	0.032134	-0.000179
C32	C	1.018602	0.532134	0.499821
C33	C	0.591424	0.033207	-0.000163
C34	C	1.091424	0.533207	0.499837
N35	N	0.365694	0.046188	-0.042833
N36	N	0.865694	0.546188	0.457167
N37	N	0.296516	0.045172	-0.042850
N38	N	0.796516	0.545172	0.457150
C39	C	0.254258	0.091995	-0.000245
C40	C	0.754258	0.591995	0.499755
N41	N	0.283791	0.139882	0.042367
N42	N	0.783791	0.639882	0.542367
N43	N	0.352976	0.140899	0.042381
N44	N	0.852976	0.640899	0.542381
C45	C	0.394704	0.094062	-0.000216
C46	C	0.894704	0.594062	0.499784
C47	C	0.130368	0.153928	-0.000269
C48	C	0.630368	0.653928	0.499731
C49	C	0.057543	0.152854	-0.000273
C50	C	0.557543	0.652854	0.499727
C51	C	0.074585	0.025586	-0.000267
C52	C	0.574585	0.525586	0.499733
C53	C	0.147409	0.026663	-0.000255
C54	C	0.647409	0.526663	0.499745
C55	C	0.175295	0.090835	-0.000260
C56	C	0.675295	0.590835	0.499740
C57	C	0.829973	-0.034634	-0.000212
C58	C	1.329973	0.465366	0.499788
C59	C	0.828834	-0.112138	-0.000209
C60	C	1.328834	0.387862	0.499791
C61	C	0.828313	-0.148534	-0.068450
C62	C	1.328313	0.351466	0.431550
C63	C	0.827233	-0.221357	-0.068455
C64	C	1.327233	0.278643	0.431545
C65	C	0.826688	-0.257783	-0.000216
C66	C	1.326688	0.242217	0.499784
C67	C	0.827205	-0.221378	0.068033
C68	C	1.327205	0.278622	0.568033
C69	C	0.828278	-0.148555	0.068037
C70	C	1.328278	0.351445	0.568037
N71	N	0.864728	-0.377448	0.050563
N72	N	1.364728	0.122552	0.550563
N73	N	0.863710	-0.446627	0.050555
N74	N	1.363710	0.053373	0.550555
C75	C	0.823454	-0.477192	-0.000223
C76	C	1.323454	0.022808	0.499777
N77	N	0.784262	-0.435967	-0.051003
N78	N	1.284262	0.064033	0.448997
N79	N	0.785283	-0.366783	-0.050997
N80	N	1.285283	0.133217	0.449003
C81	C	0.825524	-0.336746	-0.000212
C82	C	1.325524	0.163254	0.499788
C83	C	0.821761	-0.592551	-0.068474
C84	C	1.321761	-0.092551	0.431526
C85	C	0.820676	-0.665374	-0.068476
C86	C	1.320676	-0.165374	0.431524
C87	C	0.820656	-0.665394	0.068014
C88	C	1.320656	-0.165394	0.568014
C89	C	0.821734	-0.592571	0.068014
C90	C	1.321734	-0.092571	0.568014
C91	C	0.822289	-0.556154	-0.000231
C92	C	1.322289	-0.056154	0.499769
C93	C	0.952149	0.087546	-0.000254
C94	C	1.452149	0.587546	0.499746
C95	C	1.029654	0.088687	-0.000278
C96	C	1.529654	0.588687	0.499722
C97	C	0.818992	0.220700	-0.000230
C98	C	1.318992	0.720700	0.499770
C99	C	0.820131	0.298205	-0.000237
C100	C	1.320131	0.798205	0.499763
N101	N	0.824461	0.093025	0.177936
N102	N	1.324461	0.593025	0.677936
N103	N	0.824510	0.093036	-0.178375
N104	N	1.324510	0.593036	0.321625
C105	C	0.872088	0.045437	0.217314
C106	C	1.372088	0.545437	0.717314
C107	C	0.872092	0.045434	0.296116
C108	C	1.372092	0.545434	0.796116
C109	C	0.824475	0.093031	0.335536
C110	C	1.324475	0.593031	0.835536
C111	C	0.776839	0.140622	0.296148
C112	C	1.276839	0.640622	0.796148
C113	C	0.776831	0.140620	0.217347
C114	C	1.276831	0.640620	0.717347
C115	C	0.815131	0.156647	0.460371
C116	C	1.315131	0.656647	0.960371
C117	C	0.815144	0.156651	0.539170
C118	C	1.315144	0.656651	1.039170
C119	C	0.824494	0.093039	0.578582
C120	C	1.324494	0.593039	1.078582
C121	C	0.833847	0.029421	0.539187
C122	C	1.333847	0.529421	1.039187
C123	C	0.833840	0.029418	0.460386
C124	C	1.333840	0.529418	0.960386
C125	C	0.824478	0.093039	0.420982
C126	C	1.324478	0.593039	0.920982
C127	C	0.872129	0.045444	0.703407
C128	C	1.372129	0.545444	1.203407
C129	C	0.872128	0.045440	0.782211
C130	C	1.372128	0.545440	1.282211
C131	C	0.776878	0.140634	0.782241
C132	C	1.276878	0.640634	1.282241
C133	C	0.776875	0.140632	0.703439
C134	C	1.276875	0.640632	1.203439
C135	C	0.824504	0.093038	0.664027
C136	C	1.324504	0.593038	1.164027
H137	H	0.051874	-0.026659	-0.000319
H138	H	0.551874	0.473341	0.499681
C139	C	0.452135	0.228807	-0.000219
C140	C	0.952135	0.728807	0.499781
N141	N	0.414908	0.281085	-0.000243
N142	N	0.914908	0.781085	0.499757
H143	H	0.183988	-0.024713	-0.000246
H144	H	0.683988	0.475287	0.499754
C145	C	0.828856	-0.108519	0.143110
C146	C	1.328856	0.391481	0.643110
N147	N	0.829293	-0.078363	0.199656
N148	N	1.329293	0.421637	0.699656
C149	C	0.724531	0.193034	0.660120
C150	C	1.224531	0.693034	1.160120
N151	N	0.685118	0.232521	0.627493
N152	N	1.185118	0.732521	1.127493
H153	H	0.820207	-0.695051	0.123575
H154	H	1.320207	-0.195051	0.623575
H155	H	0.841453	-0.022381	0.428314
H156	H	1.341453	0.477619	0.928314
H157	H	0.910878	0.006681	0.328184
H158	H	1.410878	0.506681	0.828184
C159	C	0.820138	-0.705414	-0.143550
C160	C	1.320138	-0.205414	0.356450
N161	N	0.819747	-0.735575	-0.200097
N162	N	1.319747	-0.235575	0.299903
H163	H	0.495885	-0.020111	-0.000194
H164	H	0.995885	0.479889	0.499806
C165	C	0.828917	-0.108479	-0.143522
C166	C	1.328917	0.391521	0.356478
N167	N	0.829371	-0.078308	-0.200068
N168	N	1.329371	0.421692	0.299932
C169	C	0.822314	-0.552535	0.143085
C170	C	1.322314	-0.052535	0.643085
N171	N	0.822751	-0.522380	0.199632
N172	N	1.322751	-0.022380	0.699632
H173	H	0.910869	0.006682	0.185228
H174	H	1.410869	0.506682	0.685228
H175	H	0.807532	0.208452	0.571240
H176	H	1.307532	0.708452	1.071240
C177	C	0.724499	0.192992	0.825598
C178	C	1.224499	0.692992	1.325598
N179	N	0.685045	0.232429	0.858258
N180	N	1.185045	0.732429	1.358258
C181	C	0.640845	-0.036201	-0.000150
C182	C	1.140845	0.463799	0.499850
N183	N	0.678069	-0.088481	-0.000142
N184	N	1.178069	0.411519	0.499858
H185	H	0.807505	0.208451	0.428288
H186	H	1.307505	0.708451	0.928288
C187	C	0.161046	0.224519	-0.000265
C188	C	0.661046	0.724519	0.499735
N189	N	0.184151	0.277688	-0.000261
N190	N	0.684151	0.777688	0.499739
C191	C	0.008124	0.222263	-0.000280
C192	C	0.508124	0.722263	0.499720
N193	N	-0.029099	0.274543	-0.000283
N194	N	0.470901	0.774543	0.499717
C195	C	0.724457	0.192976	0.339511
C196	C	1.224457	0.692976	0.839511
N197	N	0.684999	0.232408	0.372173
N198	N	1.184999	0.732408	0.872173
C199	C	0.822361	-0.552488	-0.143545
C200	C	1.322361	-0.052488	0.356455
N201	N	0.822812	-0.522315	-0.200089
N202	N	1.322812	-0.022315	0.299911
C203	C	0.826655	-0.261400	-0.143528
C204	C	1.326655	0.238600	0.356472
N205	N	0.826219	-0.291558	-0.200073
N206	N	1.326219	0.208442	0.299927
H207	H	0.826760	-0.251040	0.123593
H208	H	1.326760	0.248960	0.623593
C209	C	0.844131	-0.040557	0.582535
C210	C	1.344131	0.459443	1.082535
N211	N	0.851878	-0.093263	0.615188
N212	N	1.351878	0.406737	1.115188
H213	H	0.910909	0.006687	0.671317
H214	H	1.410909	0.506687	1.171317
C215	C	0.924513	-0.006926	0.825527
C216	C	1.424513	0.493074	1.325527
N217	N	0.963967	-0.046371	0.858154
N218	N	1.463967	0.453629	1.358154
H219	H	0.738046	0.179372	0.185284
H220	H	1.238046	0.679372	0.685284
H221	H	0.597086	0.212725	-0.000189
H222	H	1.097086	0.712725	0.499811
