data_functionalizedCrystal
_audit_creation_method	'MofGen! by Chris Wilmer'
_symmetry_space_group_name_H-M	'P1'
_symmetry_Int_Tables_number	1
_symmetry_cell_setting	triclinic
loop_
_symmetry_equiv_pos_as_xyz
  x,y,z
_cell_length_a	19.288859
_cell_length_b	10.723022
_cell_length_c	18.366186
_cell_angle_alpha	89.994974
_cell_angle_beta	89.990083
_cell_angle_gamma	83.800476
loop_
_atom_site_label
_atom_site_type_symbol
_atom_site_fract_x
_atom_site_fract_y
_atom_site_fract_z
O1	O	0.922368	0.155622	-0.060562
O2	O	1.422368	0.655622	0.439438
O3	O	0.720243	0.176628	-0.060560
O4	O	1.220243	0.676628	0.439440
O5	O	0.825968	-0.015549	-0.060559
O6	O	1.325968	0.484451	0.439441
O7	O	0.816642	0.347800	-0.060564
O8	O	1.316642	0.847800	0.439436
O9	O	0.825950	-0.015559	0.060541
O10	O	1.325950	0.484441	0.560541
O11	O	0.720225	0.176619	0.060539
O12	O	1.220225	0.676619	0.560539
O13	O	0.922349	0.155613	0.060537
O14	O	1.422349	0.655613	0.560537
Zn15	Zn	0.821284	0.166114	0.079765
Zn16	Zn	1.321284	0.666114	0.579765
Zn17	Zn	0.821308	0.166127	-0.079788
Zn18	Zn	1.321308	0.666127	0.420212
O19	O	0.816624	0.347790	0.060535
O20	O	1.316624	0.847790	0.560535
C21	C	0.694353	0.175949	-0.000010
C22	C	1.194353	0.675949	0.499990
C23	C	0.617236	0.173924	-0.000010
C24	C	1.117236	0.673924	0.499990
C25	C	0.053839	0.272985	-0.000012
C26	C	0.553839	0.772985	0.499988
C27	C	0.126298	0.274899	-0.000016
C28	C	0.626298	0.774899	0.499984
C29	C	0.170272	0.162138	-0.000013
C30	C	0.670272	0.662138	0.499987
C31	C	0.141781	0.047455	-0.000025
C32	C	0.641781	0.547455	0.499975
C33	C	0.069323	0.045544	-0.000028
C34	C	0.569323	0.545544	0.499972
C35	C	0.290989	0.078038	0.042417
C36	C	0.790989	0.578038	0.542417
C37	C	0.363445	0.079953	0.042425
C38	C	0.863445	0.579953	0.542425
C39	C	0.393756	0.168026	-0.000006
C40	C	0.893756	0.668026	0.499994
C41	C	0.351601	0.254204	-0.042435
C42	C	0.851601	0.754204	0.457565
C43	C	0.279143	0.252294	-0.042439
C44	C	0.779143	0.752294	0.457561
C45	C	0.248841	0.164197	-0.000010
C46	C	0.748841	0.664197	0.499990
C47	C	0.500807	0.284777	-0.000003
C48	C	1.000807	0.784777	0.499997
C49	C	0.573267	0.286686	-0.000011
C50	C	1.073267	0.786686	0.499989
C51	C	0.588749	0.059238	-0.000013
C52	C	1.088749	0.559238	0.499987
C53	C	0.516289	0.057333	-0.000012
C54	C	1.016289	0.557333	0.499988
C55	C	0.472323	0.170106	-0.000003
C56	C	0.972323	0.670106	0.499997
C57	C	0.825281	-0.062039	-0.000010
C58	C	1.325281	0.437961	0.499990
C59	C	0.823251	-0.200551	-0.000012
C60	C	1.323251	0.299449	0.499988
C61	C	0.762283	-0.247829	-0.000013
C62	C	1.262283	0.252171	0.499987
C63	C	0.760183	-0.390988	-0.000016
C64	C	1.260183	0.109012	0.499984
C65	C	0.948239	0.156292	-0.000014
C66	C	1.448239	0.656292	0.499986
C67	C	1.025356	0.158317	-0.000020
C68	C	1.525356	0.658317	0.499980
C69	C	0.817312	0.394280	-0.000015
C70	C	1.317312	0.894280	0.499985
C71	C	0.819341	0.532792	-0.000017
C72	C	1.319341	1.032792	0.499983
N73	N	0.821273	0.166105	0.188656
N74	N	1.321273	0.666105	0.688656
N75	N	0.821325	0.166126	-0.188680
N76	N	1.321325	0.666126	0.311320
C77	C	0.868104	0.081051	0.226758
C78	C	1.368104	0.581051	0.726758
C79	C	0.868108	0.081045	0.302985
C80	C	1.368108	0.581045	0.802985
C81	C	0.821288	0.166115	0.341109
C82	C	1.321288	0.666115	0.841109
C83	C	0.774449	0.251176	0.302999
C84	C	1.274449	0.751176	0.802999
C85	C	0.774441	0.251171	0.226772
C86	C	1.274441	0.751171	0.726772
C87	C	0.812730	0.279808	0.461868
C88	C	1.312730	0.779808	0.961868
C89	C	0.812742	0.279815	0.538093
C90	C	1.312742	0.779815	1.038093
C91	C	0.821308	0.166131	0.576217
C92	C	1.321308	0.666131	1.076217
C93	C	0.829876	0.052435	0.538106
C94	C	1.329876	0.552435	1.038106
C95	C	0.829869	0.052430	0.461880
C96	C	1.329869	0.552430	0.961880
C97	C	0.821291	0.166130	0.423764
C98	C	1.321291	0.666130	0.923764
C99	C	0.868146	0.081063	0.696973
C100	C	1.368146	0.581063	1.196973
C101	C	0.868146	0.081056	0.773202
C102	C	1.368146	0.581056	1.273202
C103	C	0.774490	0.251198	0.773214
C104	C	1.274490	0.751198	1.273214
C105	C	0.774487	0.251195	0.696986
C106	C	1.274487	0.751195	1.196986
C107	C	0.821319	0.166129	0.658870
C108	C	1.321319	0.666129	1.158870
H109	H	0.596456	0.380066	-0.000011
H110	H	1.096456	0.880066	0.499989
H111	H	0.711640	-0.182321	-0.000008
H112	H	1.211640	0.317679	0.499992
O113	O	0.691035	-0.444912	-0.000012
O114	O	1.191035	0.055088	0.499988
H115	H	0.661082	-0.412695	-0.049371
H116	H	1.161082	0.087305	0.450629
H117	H	0.836843	-0.040145	0.430853
H118	H	1.336843	0.459855	0.930853
O119	O	0.890336	-0.287316	-0.000013
O120	O	1.390336	0.212684	0.499987
H121	H	0.921015	-0.269728	0.049350
H122	H	1.421015	0.230272	0.549350
H123	H	0.906235	0.011782	0.195726
H124	H	1.406235	0.511782	0.695726
H125	H	0.177589	-0.044356	-0.000024
H126	H	0.677589	0.455644	0.499976
H127	H	0.906245	0.011781	0.334013
H128	H	1.406245	0.511781	0.834013
O129	O	0.888497	-0.413308	-0.000021
O130	O	1.388497	0.086692	0.499979
H131	H	0.892346	-0.354742	0.049340
H132	H	1.392346	0.145258	0.549340
O133	O	0.723962	0.342950	0.344117
O134	O	1.223962	0.842950	0.844117
H135	H	0.691396	0.402097	0.304813
H136	H	1.191396	0.902097	0.804813
H137	H	0.906278	0.011793	0.665937
H138	H	1.406278	0.511793	1.165937
O139	O	0.723993	0.342980	0.814311
O140	O	1.223993	0.842980	1.314311
H141	H	0.689985	0.290636	0.849061
H142	H	1.189985	0.790636	1.349061
H143	H	0.836851	-0.040138	0.569145
H144	H	1.336851	0.459862	1.069145
O145	O	0.723984	0.342947	0.655883
O146	O	1.223984	0.842947	1.155883
H147	H	0.691432	0.402110	0.695197
H148	H	1.191432	0.902110	1.195197
O149	O	0.258303	-0.016948	0.088198
O150	O	0.758303	0.483052	0.588198
H151	H	0.200837	-0.003803	0.081067
H152	H	0.700837	0.496197	0.581067
H153	H	0.906279	0.011788	0.804225
H154	H	1.406279	0.511788	1.304225
H155	H	0.805770	0.372393	0.569117
H156	H	1.305770	0.872393	1.069117
H157	H	0.805742	0.372390	0.430834
H158	H	1.305742	0.872390	0.930834
O159	O	0.723932	0.342910	0.185666
O160	O	1.223932	0.842910	0.685666
H161	H	0.733243	0.440147	0.200278
H162	H	1.233243	0.940147	0.700278
O163	O	0.006418	0.394614	-0.000006
O164	O	0.506418	0.894614	0.499994
H165	H	0.016619	0.449518	-0.049364
H166	H	0.516619	0.949518	0.450636
O167	O	0.157033	0.398580	0.000003
O168	O	0.657033	0.898580	0.500003
H169	H	0.114287	0.476676	0.000014
H170	H	0.614287	0.976676	0.500014
H171	H	0.244823	0.322461	-0.076987
H172	H	0.744823	0.822461	0.423013
H173	H	0.465007	0.376603	0.000002
H174	H	0.965007	0.876603	0.500002
O175	O	0.384280	0.349200	-0.088211
O176	O	0.884280	0.849200	0.411789
H177	H	0.441746	0.336042	-0.081092
H178	H	0.941746	0.836042	0.418908
H179	H	0.046134	-0.047835	-0.000035
H180	H	0.546134	0.452165	0.499965
H181	H	0.624551	-0.032574	-0.000016
H182	H	1.124551	0.467426	0.499984
H183	H	0.397762	0.009788	0.076978
H184	H	0.897762	0.509788	0.576978
O185	O	0.485561	-0.066346	-0.000003
O186	O	0.985561	0.433654	0.499997
H187	H	0.528309	-0.144437	0.000007
H188	H	1.028309	0.355563	0.500007
