data_functionalizedCrystal
_audit_creation_method	'MofGen! by Chris Wilmer'
_symmetry_space_group_name_H-M	'P1'
_symmetry_Int_Tables_number	1
_symmetry_cell_setting	triclinic
loop_
_symmetry_equiv_pos_as_xyz
  x,y,z
_cell_length_a	12.837943
_cell_length_b	10.489741
_cell_length_c	11.295483
_cell_angle_alpha	94.137284
_cell_angle_beta	85.461227
_cell_angle_gamma	89.684057
loop_
_atom_site_label
_atom_site_type_symbol
_atom_site_fract_x
_atom_site_fract_y
_atom_site_fract_z
O1	O	1.384854	0.324137	-0.099003
O2	O	1.082927	0.307742	-0.099010
O3	O	1.240760	0.131100	-0.098999
O4	O	1.227021	0.500780	-0.099013
O5	O	1.226897	0.146588	0.099051
O6	O	1.069064	0.323231	0.099040
O7	O	1.370991	0.339626	0.099047
Cu8	Cu	1.218762	0.332842	0.117127
Cu9	Cu	1.235156	0.314526	-0.117090
O10	O	1.213158	0.516268	0.099036
C11	C	1.037334	0.309948	0.000014
C12	C	0.922133	0.293430	0.000012
C13	C	0.682657	0.492006	0.000021
C14	C	0.574415	0.476492	0.000020
C15	C	0.597406	0.246889	0.000016
C16	C	0.705648	0.262403	0.000017
C17	C	0.748269	0.384966	0.000018
C18	C	0.856513	0.400478	0.000011
C19	C	0.879501	0.170877	0.000016
C20	C	0.771260	0.155363	0.000014
C21	C	1.232791	0.091198	0.000025
C22	C	1.229686	-0.050774	0.000023
C23	C	1.129262	-0.129987	0.000012
C24	C	1.169867	-0.209242	0.097662
C25	C	1.183558	-0.224485	-0.097600
C26	C	1.270327	-0.128153	0.097754
C27	C	1.284011	-0.143394	-0.097596
C28	C	1.324687	-0.222613	0.000078
C29	C	1.416585	0.337420	0.000020
C30	C	1.531786	0.353937	0.000015
C31	C	1.221127	0.556170	0.000010
C32	C	1.224233	0.698141	0.000004
N33	N	1.207238	0.345726	0.281863
N34	N	1.246688	0.301633	-0.281825
C35	C	1.329641	0.208822	0.531161
C36	C	1.320940	0.218568	0.655824
C37	C	1.181131	0.374956	0.655854
C38	C	1.189832	0.365210	0.531191
C39	C	1.264090	0.282142	0.468849
C40	C	1.272796	0.272403	0.344183
C41	C	1.132982	0.428784	0.344216
C42	C	1.124281	0.438530	0.468879
H43	H	0.520997	0.563656	0.000025
N44	N	1.101057	0.464558	0.723109
H45	H	1.060851	0.509537	0.664721
H46	H	1.051210	0.414129	0.774847
N47	N	0.950279	0.055427	0.000021
H48	H	0.931333	0.008275	0.073438
H49	H	0.941578	-0.003108	-0.073445
N50	N	0.551410	0.114717	0.000041
H51	H	0.512140	0.097423	-0.073369
H52	H	0.609445	0.049331	0.000089
N53	N	0.725275	0.023184	0.000024
H54	H	0.686012	0.005894	-0.073392
H55	H	0.783317	-0.042193	0.000067
N56	N	1.019885	-0.076265	0.000124
H57	H	0.976920	-0.099953	0.073956
H58	H	1.022895	0.019861	-0.000675
H59	H	1.121596	-0.238482	0.180216
N60	N	1.318906	-0.072567	0.207230
H61	H	1.320675	0.023629	0.206580
H62	H	1.276072	-0.097118	0.280834
N63	N	1.434149	-0.276015	0.000140
H64	H	1.466767	-0.240640	0.073930
H65	H	1.431424	-0.372272	-0.000607
N66	N	1.347906	-0.104601	-0.206943
H67	H	1.421364	-0.139795	-0.207725
H68	H	1.314986	-0.139737	-0.280613
N69	N	1.134911	-0.280293	-0.206949
H70	H	1.061087	-0.246484	-0.206857
H71	H	1.177336	-0.255240	-0.280644
N72	N	1.352876	0.182813	0.276922
H73	H	1.425113	0.208197	0.298594
H74	H	1.338638	0.092472	0.298643
N75	N	1.409739	0.119248	0.463910
H76	H	1.449950	0.074282	0.522302
H77	H	1.373212	0.053908	0.412195
N78	N	1.391648	0.139500	0.723034
H79	H	1.440011	0.085405	0.664620
H80	H	1.434267	0.198036	0.774738
H81	H	1.063819	0.506159	0.519653
H82	H	0.891213	0.500275	0.000014
H83	H	1.079610	0.488490	0.293468
H84	H	0.717359	0.591801	0.000020
