data_functionalizedCrystal
_audit_creation_method	'MofGen! by Chris Wilmer'
_symmetry_space_group_name_H-M	'P1'
_symmetry_Int_Tables_number	1
_symmetry_cell_setting	triclinic
loop_
_symmetry_equiv_pos_as_xyz
  x,y,z
_cell_length_a	27.780845
_cell_length_b	27.780853
_cell_length_c	27.779877
_cell_angle_alpha	59.999137
_cell_angle_beta	59.997381
_cell_angle_gamma	60.000453
loop_
_atom_site_label
_atom_site_type_symbol
_atom_site_fract_x
_atom_site_fract_y
_atom_site_fract_z
O1	O	-0.330291	-0.410289	0.754827
O2	O	-0.260275	-0.340287	0.586253
O3	O	-0.260286	-0.340289	0.684827
O4	O	-0.330280	-0.410288	0.656254
O5	O	-0.340345	-0.260229	0.684825
O6	O	-0.340334	-0.260227	0.586251
O7	O	-0.410350	-0.330230	0.754826
Cu8	Cu	-0.382652	-0.287918	0.670538
Cu9	Cu	-0.287973	-0.382598	0.670540
O10	O	-0.410339	-0.330228	0.656252
C11	C	-0.207622	-0.120435	0.298171
C12	C	-0.237318	-0.056937	0.268468
C13	C	-0.236733	-0.149672	0.356102
C14	C	-0.120462	-0.207607	0.298169
C15	C	-0.056966	-0.237313	0.268466
C16	C	-0.149705	-0.236711	0.356101
C17	C	-0.207637	-0.207607	0.385337
C18	C	-0.237349	-0.237313	0.448833
C19	C	-0.149690	-0.149672	0.269067
C20	C	-0.261353	-0.261313	0.500132
C21	C	-0.261309	-0.005636	0.244472
C22	C	-0.005667	-0.261312	0.244468
C23	C	-0.291467	-0.291421	0.564489
C24	C	-0.291407	0.058722	0.214368
C25	C	0.058690	-0.291420	0.214362
C26	C	-0.207671	-0.207612	0.700443
C27	C	-0.237376	-0.237317	0.696359
C28	C	-0.236774	-0.149680	0.700849
C29	C	-0.120504	-0.207608	0.700437
C30	C	-0.057008	-0.237310	0.696347
C31	C	-0.149739	-0.149677	0.700843
C32	C	-0.207670	-0.120443	0.700438
C33	C	-0.237374	-0.056948	0.696349
C34	C	-0.149740	-0.236713	0.700848
C35	C	-0.261370	-0.005650	0.693044
C36	C	-0.261374	-0.261316	0.693058
C37	C	-0.005709	-0.261306	0.693041
C38	C	-0.291476	0.058706	0.688899
C39	C	-0.291480	-0.291424	0.688918
C40	C	0.058647	-0.291410	0.688894
C41	C	-0.550115	-0.462890	0.640608
C42	C	-0.613609	-0.433185	0.644693
C43	C	-0.520880	-0.520821	0.640200
C44	C	-0.462949	-0.462893	0.640613
C45	C	-0.433246	-0.433191	0.644704
C46	C	-0.433847	-0.520824	0.640205
C47	C	-0.462950	-0.550057	0.640610
C48	C	-0.433248	-0.613552	0.644697
C49	C	-0.520879	-0.433789	0.640204
C50	C	-0.409252	-0.664850	0.648000
C51	C	-0.664906	-0.409187	0.647995
C52	C	-0.409249	-0.409196	0.648011
C53	C	-0.379147	-0.729205	0.652144
C54	C	-0.729261	-0.379080	0.652136
C55	C	-0.379144	-0.379092	0.652158
O56	O	0.248975	-0.410275	0.656231
O57	O	0.080408	-0.340275	0.684803
O58	O	0.178975	-0.340276	0.586230
O59	O	0.150408	-0.410274	0.754804
O60	O	0.178978	-0.260216	0.586225
O61	O	0.080411	-0.260214	0.684798
O62	O	0.248978	-0.330214	0.656226
Cu63	Cu	0.164695	-0.287904	0.670512
Cu64	Cu	0.164691	-0.382585	0.670517
O65	O	0.150411	-0.330213	0.754800
O66	O	0.249027	-0.330234	0.095500
O67	O	0.080459	-0.260223	0.165498
O68	O	0.179025	-0.260242	0.165514
O69	O	0.150461	-0.330215	0.095484
O70	O	0.179011	-0.340307	0.245574
O71	O	0.080445	-0.340288	0.245558
O72	O	0.249013	-0.410299	0.175560
Cu73	Cu	0.164728	-0.382604	0.217869
Cu74	Cu	0.164744	-0.287918	0.123189
O75	O	0.150447	-0.410280	0.175544
O76	O	-0.330283	0.249036	0.656234
O77	O	-0.260280	0.080471	0.684802
O78	O	-0.260280	0.179033	0.586230
O79	O	-0.330284	0.150473	0.754806
O80	O	-0.340340	0.179028	0.586236
O81	O	-0.340341	0.080465	0.684808
O82	O	-0.410343	0.249030	0.656239
Cu83	Cu	-0.382652	0.164747	0.670524
Cu84	Cu	-0.287972	0.164754	0.670518
O85	O	-0.410344	0.150468	0.754811
O86	O	-0.410256	0.249054	0.175570
O87	O	-0.340273	0.080484	0.245564
O88	O	-0.340265	0.179036	0.245582
O89	O	-0.410264	0.150503	0.175553
O90	O	-0.260197	0.179037	0.165520
O91	O	-0.260206	0.080485	0.165503
O92	O	-0.330188	0.249055	0.095509
Cu93	Cu	-0.287886	0.164770	0.123196
Cu94	Cu	-0.382575	0.164769	0.217877
O95	O	-0.330196	0.150504	0.095491
C96	C	0.134807	-0.550057	1.042887
C97	C	0.138897	-0.613553	1.072593
C98	C	0.134395	-0.520821	0.984956
C99	C	0.134811	-0.462890	1.042882
C100	C	0.138903	-0.433186	1.072583
C101	C	0.134398	-0.433786	0.984951
C102	C	0.134801	-0.462889	0.955717
C103	C	0.138882	-0.433184	0.892221
C104	C	0.134405	-0.520822	1.071988
C105	C	0.142181	-0.409186	0.840922
C106	C	0.142201	-0.664852	1.096592
C107	C	0.142211	-0.409189	1.096578
C108	C	0.146319	-0.379079	0.776565
C109	C	0.146347	-0.729208	1.126701
C110	C	0.146360	-0.379083	1.126681
C111	C	-0.462986	-0.550070	1.042918
C112	C	-0.433285	-0.613565	1.072624
C113	C	-0.520919	-0.520835	1.072022
C114	C	-0.462979	-0.462903	0.955747
C115	C	-0.433270	-0.433199	0.892249
C116	C	-0.520912	-0.433801	0.984983
C117	C	-0.550152	-0.462904	1.042917
C118	C	-0.613649	-0.433201	1.072621
C119	C	-0.433879	-0.520834	0.984985
C120	C	-0.664949	-0.409204	1.096618
C121	C	-0.409290	-0.664863	1.096623
C122	C	-0.409268	-0.409201	0.840949
C123	C	-0.729306	-0.379099	1.126724
C124	C	-0.379187	-0.729219	1.126731
C125	C	-0.379157	-0.379095	0.776590
C126	C	0.194611	-0.120447	0.298132
C127	C	0.190525	-0.056952	0.268423
C128	C	0.195017	-0.149684	0.269031
C129	C	0.194608	-0.207611	0.385306
C130	C	0.190519	-0.237313	0.448804
C131	C	0.195014	-0.236716	0.356072
C132	C	0.194607	-0.207615	0.298138
C133	C	0.190518	-0.237320	0.268437
C134	C	0.195017	-0.149680	0.356066
C135	C	0.187213	-0.261319	0.244441
C136	C	0.187224	-0.005654	0.244422
C137	C	0.187214	-0.261308	0.500105
C138	C	0.183068	-0.291426	0.214338
C139	C	0.183082	0.058701	0.214312
C140	C	0.183069	-0.291412	0.564464
C141	C	-0.207668	0.194651	0.298144
C142	C	-0.237373	0.190559	0.268443
C143	C	-0.149736	0.195060	0.269035
C144	C	-0.207668	0.194655	0.385311
C145	C	-0.237372	0.190569	0.448810
C146	C	-0.149736	0.195065	0.356070
C147	C	-0.120501	0.194657	0.298135
C148	C	-0.057005	0.190571	0.268426
C149	C	-0.236771	0.195059	0.356078
C150	C	-0.005706	0.187270	0.244424
C151	C	-0.261370	0.187253	0.244448
C152	C	-0.261369	0.187266	0.500111
C153	C	0.058650	0.183129	0.214312
C154	C	-0.291477	0.183105	0.214346
C155	C	-0.291475	0.183123	0.564470
O156	O	0.179002	-0.919535	1.165507
O157	O	0.150435	-0.750969	1.095506
O158	O	0.249002	-0.849529	1.095492
O159	O	0.080435	-0.820975	1.165521
O160	O	0.249012	-0.849532	1.175552
O161	O	0.150445	-0.750972	1.175566
O162	O	0.179012	-0.919538	1.245567
Cu163	Cu	0.164729	-0.835255	1.217876
Cu164	Cu	0.164718	-0.835252	1.123196
O165	O	0.080445	-0.820978	1.245580
C166	C	-0.550134	0.134848	1.042903
C167	C	-0.613623	0.138905	1.072618
C168	C	-0.520913	0.134476	1.071997
C169	C	-0.462970	0.134868	0.955725
C170	C	-0.433261	0.138947	0.892228
C171	C	-0.433880	0.134496	0.984951
C172	C	-0.462990	0.134911	1.042883
C173	C	-0.433303	0.139037	1.072576
C174	C	-0.520893	0.134433	0.984971
C175	C	-0.409319	0.142372	1.096564
C176	C	-0.664915	0.142185	1.096623
C177	C	-0.409260	0.142245	0.840929
C178	C	-0.379230	0.146554	1.126659
C179	C	-0.729264	0.146298	1.126740
C180	C	-0.379149	0.146380	0.776572
H181	H	-0.126216	-0.126198	0.221466
H182	H	0.195664	-0.284313	0.379551
H183	H	0.133769	-0.544302	1.119583
H184	H	0.195674	-0.126205	0.379534
H185	H	-0.386250	-0.544295	0.639553
Cl186	Cl	-0.360405	0.133527	0.948698
Cl187	Cl	-0.557117	-0.360304	0.639199
Cl188	Cl	-0.113491	0.196066	0.392308
H189	H	-0.126271	0.195727	0.221430
H190	H	-0.284374	0.195721	0.379549
Cl191	Cl	0.196024	-0.113448	0.195541
Cl192	Cl	-0.113485	-0.310186	0.701815
Cl193	Cl	-0.557155	0.133468	1.145487
Cl194	Cl	-0.557122	-0.557063	0.639200
Cl195	Cl	0.133367	-0.360292	0.948714
Cl196	Cl	-0.557117	0.133391	0.948739
H197	H	-0.284374	-0.126213	0.701510
Cl198	Cl	-0.310222	-0.113434	0.392341
Cl199	Cl	-0.113501	-0.113436	0.701850
Cl200	Cl	-0.113476	-0.310202	0.392340
H201	H	-0.544380	-0.386203	0.961506
Cl202	Cl	-0.557162	-0.557070	1.145516
Cl203	Cl	0.133369	-0.557055	0.948722
H204	H	-0.386279	-0.544309	0.961514
