data_functionalizedCrystal
_audit_creation_method	'MofGen! by Chris Wilmer'
_symmetry_space_group_name_H-M	'P1'
_symmetry_Int_Tables_number	1
_symmetry_cell_setting	triclinic
loop_
_symmetry_equiv_pos_as_xyz
  x,y,z
_cell_length_a	12.827893
_cell_length_b	16.625546
_cell_length_c	12.827885
_cell_angle_alpha	89.964876
_cell_angle_beta	89.980728
_cell_angle_gamma	90.022629
loop_
_atom_site_label
_atom_site_type_symbol
_atom_site_fract_x
_atom_site_fract_y
_atom_site_fract_z
Zn1	Zn	1.597620	-0.320959	-0.590805
Zn2	Zn	1.597492	-0.455813	-0.416049
Zn3	Zn	1.422861	-0.320999	-0.416079
Zn4	Zn	1.422825	-0.455754	-0.590749
O5	O	1.510200	-0.388381	-0.503420
O6	O	1.743839	-0.338856	-0.567633
O7	O	1.574288	-0.437971	-0.269816
O8	O	1.446112	-0.208161	-0.439292
O9	O	1.743745	-0.437933	-0.439241
O10	O	1.574507	-0.208132	-0.567663
O11	O	1.445988	-0.338924	-0.269839
O12	O	1.276620	-0.338866	-0.439239
O13	O	1.446051	-0.437831	-0.736993
O14	O	1.276594	-0.437870	-0.567568
O15	O	1.574472	-0.338798	-0.737033
O16	O	1.574254	-0.568638	-0.439187
O17	O	1.445927	-0.568594	-0.567539
C18	C	1.238690	-0.388366	-0.503401
C19	C	1.122537	-0.388380	-0.503418
C20	C	1.070737	-0.339324	-0.440029
C21	C	0.950687	-0.339337	-0.440045
C22	C	1.510101	-0.597872	-0.503377
C23	C	1.510154	-0.687493	-0.503393
C24	C	1.510336	-1.015669	-0.503502
C25	C	1.510282	-0.924360	-0.503474
C26	C	1.510244	-0.851584	-0.503447
C27	C	1.510192	-0.760270	-0.503420
C28	C	1.782770	-0.388397	-0.503440
C29	C	1.898923	-0.388403	-0.503448
C30	C	1.510272	-0.388304	-0.775991
C31	C	1.510302	-0.388271	-0.892144
C32	C	1.510327	-0.178072	-0.503487
C33	C	1.510382	-0.088451	-0.503516
C34	C	1.446835	-0.339249	-0.943940
C35	C	1.446866	-0.339214	-1.063990
C36	C	1.510188	-0.388400	-0.231910
C37	C	1.510360	-0.388206	-0.115758
H38	H	0.943462	-0.430400	-0.557726
C39	C	1.130878	-0.282568	-0.366701
H40	H	1.082812	-0.251794	-0.326931
H41	H	1.173487	-0.247501	-0.406795
H42	H	1.173425	-0.313396	-0.321122
C43	C	1.373400	-0.282584	-0.883790
H44	H	1.383019	-0.290037	-0.810993
H45	H	1.303167	-0.294359	-0.901617
H46	H	1.388726	-0.228390	-0.901643
H47	H	0.906141	-0.297335	-0.385780
C48	C	1.062396	-0.445111	-0.576778
H49	H	1.110462	-0.475884	-0.616549
H50	H	1.019860	-0.414265	-0.622339
H51	H	1.019776	-0.480192	-0.536707
H52	H	1.392534	-0.297242	-1.108533
C53	C	1.583771	-0.444909	-1.055604
H54	H	1.623614	-0.475638	-1.103656
H55	H	1.543726	-0.480020	-1.013009
H56	H	1.629278	-0.414046	-1.013041
H57	H	1.564660	-0.430215	-0.936676
