data_functionalizedCrystal
_audit_creation_method	'MofGen! by Chris Wilmer'
_symmetry_space_group_name_H-M	'P1'
_symmetry_Int_Tables_number	1
_symmetry_cell_setting	triclinic
loop_
_symmetry_equiv_pos_as_xyz
  x,y,z
_cell_length_a	18.215407
_cell_length_b	29.839132
_cell_length_c	18.215399
_cell_angle_alpha	90.033088
_cell_angle_beta	89.982632
_cell_angle_gamma	89.957293
loop_
_atom_site_label
_atom_site_type_symbol
_atom_site_fract_x
_atom_site_fract_y
_atom_site_fract_z
Zn1	Zn	1.124968	0.178889	-0.416041
Zn2	Zn	1.124832	0.254018	-0.292964
Zn3	Zn	1.001900	0.178899	-0.292994
Zn4	Zn	1.001822	0.253989	-0.415994
O5	O	1.063381	0.216449	-0.354498
O6	O	1.227934	0.188862	-0.399722
O7	O	1.108501	0.244070	-0.189983
O8	O	1.018315	0.116031	-0.309349
O9	O	1.227835	0.244059	-0.309297
O10	O	1.108732	0.116023	-0.399751
O11	O	1.018183	0.188881	-0.190005
O12	O	0.898906	0.188853	-0.309303
O13	O	1.018182	0.244010	-0.518985
O14	O	0.898848	0.244021	-0.399671
O15	O	1.108656	0.188834	-0.519019
O16	O	1.108426	0.316881	-0.309252
O17	O	1.018051	0.316860	-0.399642
C18	C	0.872174	0.216435	-0.354485
C19	C	0.790376	0.216440	-0.354497
C20	C	0.602232	0.187758	-0.401656
C21	C	0.525374	0.187762	-0.401658
C22	C	0.525281	0.245152	-0.307354
C23	C	0.602138	0.245146	-0.307348
C24	C	0.640612	0.216449	-0.354503
C25	C	0.486896	0.216460	-0.354511
C26	C	0.403562	0.216464	-0.354514
C27	C	0.723951	0.216444	-0.354500
C28	C	1.063235	0.333171	-0.354454
C29	C	1.063240	0.383106	-0.354460
C30	C	1.110472	0.692748	-0.307471
C31	C	1.110542	0.880421	-0.307488
O32	O	1.150622	0.904684	-0.267523
N33	N	1.063458	0.903891	-0.354510
C34	C	1.016356	0.880440	-0.401535
O35	O	0.976314	0.904709	-0.441537
C36	C	1.016290	0.692768	-0.401522
C37	C	1.063372	0.669300	-0.354491
C38	C	1.157551	0.669280	-0.260444
C39	C	1.157530	0.622364	-0.260438
C40	C	1.110430	0.598917	-0.307458
C41	C	1.063351	0.622384	-0.354484
C42	C	0.969192	0.669318	-0.448550
C43	C	0.969181	0.622397	-0.448544
C44	C	1.016263	0.598929	-0.401513
C45	C	1.016230	0.552021	-0.401498
N46	N	1.063315	0.528551	-0.354475
C47	C	1.110415	0.551999	-0.307455
C48	C	1.016393	0.978970	-0.401538
C49	C	1.016408	1.025888	-0.401541
C50	C	1.110596	1.025866	-0.307494
C51	C	1.110576	0.978947	-0.307488
C52	C	1.063477	0.955500	-0.354515
C53	C	1.110367	0.453473	-0.307445
C54	C	1.110340	0.406553	-0.307440
C55	C	1.016155	0.406580	-0.401490
C56	C	1.016179	0.453495	-0.401492
C57	C	1.063291	0.476941	-0.354467
O58	O	0.976178	0.527729	-0.441448
O59	O	1.150462	0.527722	-0.267471
C60	C	1.110493	0.739663	-0.307477
C61	C	1.063414	0.763131	-0.354504
C62	C	1.016314	0.739683	-0.401524
C63	C	1.063429	0.810049	-0.354507
C64	C	1.110529	0.833496	-0.307486
C65	C	1.157614	0.810026	-0.260464
C66	C	1.157593	0.763111	-0.260457
C67	C	0.969229	0.763153	-0.448547
C68	C	0.969253	0.810069	-0.448549
C69	C	1.016353	0.833516	-0.401529
C70	C	1.255334	0.216463	-0.354512
C71	C	1.337132	0.216469	-0.354517
C72	C	1.063426	0.216418	-0.546451
C73	C	1.063445	0.216405	-0.628250
C74	C	1.063519	1.099270	-0.354542
C75	C	1.063508	1.049336	-0.354521
C76	C	1.110572	0.187648	-0.816463
C77	C	1.110580	0.187634	-0.893322
C78	C	1.016370	0.245092	-0.893275
C79	C	1.016358	0.245103	-0.816417
C80	C	1.063463	0.216381	-0.778014
C81	C	1.063484	0.216357	-0.931730
C82	C	1.063493	0.216343	-1.015064
C83	C	1.063453	0.216394	-0.694675
C84	C	1.063378	0.216447	-0.163292
C85	C	1.063502	0.216334	-0.081493
H86	H	0.493946	0.268516	-0.268962
O87	O	0.643727	0.156803	-0.452509
H88	H	0.703619	0.161621	-0.444590
O89	O	1.161392	0.156640	-0.934785
H90	H	1.128487	0.133772	-0.969798
H91	H	0.978020	0.268477	-0.924553
H92	H	1.195962	0.829125	-0.222176
H93	H	0.494128	0.164398	-0.440053
O94	O	0.965524	0.276082	-0.774938
H95	H	0.932771	0.296052	-0.814553
O96	O	0.918469	0.835379	-0.499279
H97	H	0.885723	0.811188	-0.531976
H98	H	0.633388	0.268510	-0.268947
H99	H	1.148680	0.387447	-0.269139
O100	O	1.161173	0.478758	-0.256721
H101	H	1.193896	0.454551	-0.224018
H102	H	1.148915	0.959842	-0.269192
O103	O	1.161412	1.051159	-0.256790
H104	H	1.153516	1.087726	-0.264706
O105	O	1.208323	0.597055	-0.209723
H106	H	1.241080	0.621248	-0.177039
O107	O	1.161375	0.156670	-0.775041
H108	H	1.128465	0.133819	-0.740026
H109	H	1.195910	0.688366	-0.222155
H110	H	0.930849	0.688417	-0.486844
H111	H	0.930828	0.603308	-0.486842
O112	O	0.965619	1.051200	-0.452257
H113	H	0.978209	1.042167	-0.510026
O114	O	0.965573	0.953683	-0.452246
H115	H	0.932829	0.977890	-0.484929
H116	H	0.977843	0.472604	-0.439790
O117	O	0.965359	0.381286	-0.452207
H118	H	0.973266	0.344720	-0.444304
H119	H	1.195932	0.744007	-0.222160
H120	H	0.930876	0.744066	-0.486837
