data_functionalizedCrystal
_audit_creation_method	'MofGen! by Chris Wilmer'
_symmetry_space_group_name_H-M	'P1'
_symmetry_Int_Tables_number	1
_symmetry_cell_setting	triclinic
loop_
_symmetry_equiv_pos_as_xyz
  x,y,z
_cell_length_a	15.944493
_cell_length_b	15.944493
_cell_length_c	13.448316
_cell_angle_alpha	89.999270
_cell_angle_beta	89.993805
_cell_angle_gamma	83.475044
loop_
_atom_site_label
_atom_site_type_symbol
_atom_site_fract_x
_atom_site_fract_y
_atom_site_fract_z
O1	O	1.114535	0.108105	-0.082666
O2	O	0.869975	0.121512	-0.082669
O3	O	0.998959	-0.007471	-0.082675
O4	O	0.985551	0.237088	-0.082659
O5	O	0.998943	-0.007479	0.082708
O6	O	0.869959	0.121505	0.082715
O7	O	1.114518	0.108097	0.082718
Cu8	Cu	0.992237	0.114800	0.097818
Cu9	Cu	0.992256	0.114809	-0.097768
O10	O	0.985535	0.237080	0.082725
C11	C	0.838673	0.120961	0.000022
C12	C	0.745424	0.119318	0.000021
C13	C	0.509649	0.195240	0.000025
C14	C	0.459091	0.154294	0.081569
C15	C	0.574704	0.116273	0.000022
C16	C	0.459111	0.154283	-0.081486
C17	C	0.409795	0.113339	0.000020
C18	C	0.525374	0.075349	0.081634
C19	C	0.525398	0.075350	-0.081495
C20	C	0.474873	0.034346	0.000070
C21	C	0.669704	0.117966	0.000025
C22	C	0.314798	0.111640	0.000024
C23	C	0.998403	-0.038769	0.000012
C24	C	0.996760	-0.132018	-0.000000
C25	C	1.072682	-0.367793	0.000020
C26	C	1.031748	-0.418349	-0.081523
C27	C	0.993716	-0.302738	0.000012
C28	C	1.031714	-0.418333	0.081532
C29	C	0.990781	-0.467647	0.000028
C30	C	0.952803	-0.352065	-0.081598
C31	C	0.952780	-0.352046	0.081530
C32	C	0.911788	-0.402569	-0.000032
C33	C	0.995408	-0.207739	0.000002
C34	C	0.989082	-0.562644	0.000031
C35	C	1.145821	0.108649	0.000025
C36	C	1.239069	0.110292	0.000020
C37	C	0.986091	0.268379	0.000035
C38	C	0.987734	0.361627	0.000041
N39	N	0.992230	0.114793	0.235382
N40	N	0.992270	0.114810	-0.235332
C41	C	1.049361	0.057703	0.287419
C42	C	1.049367	0.057702	0.391523
C43	C	0.992244	0.114796	0.443586
C44	C	0.935106	0.171889	0.391542
C45	C	0.935098	0.171885	0.287440
C46	C	0.935130	0.171895	0.608522
C47	C	0.935139	0.171900	0.712630
C48	C	1.049399	0.057712	0.712604
C49	C	1.049390	0.057708	0.608503
C50	C	0.992253	0.114802	0.556465
H51	H	0.430173	0.187652	-0.150416
C52	C	1.164572	-0.346695	-0.000089
N53	N	1.233782	-0.330802	-0.000175
H54	H	0.525258	0.263261	0.000106
H55	H	1.065072	-0.447274	0.150466
H56	H	0.554202	0.042017	0.150642
H57	H	0.919480	-0.323235	-0.150610
C58	C	0.419970	0.199344	0.174703
N59	N	0.390504	0.233281	0.244846
H60	H	0.843715	-0.418021	-0.000078
C61	C	0.453989	-0.057614	0.000130
N62	N	0.438255	-0.126877	0.000181
C63	C	0.907753	-0.312921	0.174669
N64	N	0.873843	-0.283454	0.244829
H65	H	1.065104	-0.447298	-0.150462
H66	H	0.888623	0.218392	0.755015
C67	C	0.872255	0.234696	0.230200
N68	N	0.824921	0.282007	0.187087
H69	H	0.554358	0.042029	-0.150441
H70	H	1.095881	0.011213	0.245036
C71	C	1.112196	-0.005122	0.448759
N72	N	1.159514	-0.052452	0.491869
H73	H	1.095908	0.011221	0.566112
C74	C	1.112247	-0.005096	0.769847
N75	N	1.159584	-0.052399	0.812967
C76	C	0.872267	0.234693	0.551283
N77	N	0.824920	0.281992	0.508171
H78	H	0.888591	0.218374	0.433938
