data_functionalizedCrystal
_audit_creation_method	'MofGen! by Chris Wilmer'
_symmetry_space_group_name_H-M	'P1'
_symmetry_Int_Tables_number	1
_symmetry_cell_setting	triclinic
loop_
_symmetry_equiv_pos_as_xyz
  x,y,z
_cell_length_a	17.638166
_cell_length_b	21.395362
_cell_length_c	21.395355
_cell_angle_alpha	90.048039
_cell_angle_beta	101.190876
_cell_angle_gamma	78.732911
loop_
_atom_site_label
_atom_site_type_symbol
_atom_site_fract_x
_atom_site_fract_y
_atom_site_fract_z
Zn1	Zn	-0.314438	-0.907468	-0.405001
Zn2	Zn	0.185562	-0.407468	0.094999
Zn3	Zn	-0.446621	-0.886186	-0.321389
Zn4	Zn	0.053379	-0.386186	0.178611
Zn5	Zn	-0.314481	-0.802676	-0.300202
Zn6	Zn	0.185519	-0.302676	0.199798
Zn7	Zn	-0.446642	-0.781465	-0.426089
Zn8	Zn	0.053358	-0.281465	0.073911
O9	O	-0.380546	-0.844449	-0.363170
O10	O	0.119454	-0.344449	0.136830
O11	O	-0.331946	-0.992327	-0.393951
O12	O	0.168054	-0.492327	0.106049
O13	O	-0.429100	-0.875079	-0.230902
O14	O	0.070900	-0.375079	0.269098
O15	O	-0.203846	-0.834360	-0.296412
O16	O	0.296154	-0.334360	0.203588
O17	O	-0.429059	-0.976692	-0.332521
O18	O	0.070941	-0.476692	0.167479
O19	O	-0.203815	-0.911350	-0.373408
O20	O	0.296185	-0.411350	0.126592
O21	O	-0.332018	-0.813724	-0.215336
O22	O	0.167982	-0.313724	0.284664
O23	O	-0.332039	-0.712180	-0.316860
O24	O	0.167961	-0.212180	0.183140
O25	O	-0.429097	-0.798208	-0.510969
O26	O	0.070903	-0.298208	-0.010969
O27	O	-0.429138	-0.696596	-0.409349
O28	O	0.070862	-0.196596	0.090651
O29	O	-0.331967	-0.890782	-0.495475
O30	O	0.168033	-0.390782	0.004525
O31	O	-0.557252	-0.854512	-0.352970
O32	O	-0.057252	-0.354512	0.147030
O33	O	-0.557268	-0.777573	-0.429893
O34	O	-0.057268	-0.277573	0.070107
C35	C	-0.380596	-0.681653	-0.363094
C36	C	0.119404	-0.181653	0.136906
C37	C	-0.380636	-0.612005	-0.363079
C38	C	0.119364	-0.112005	0.136921
C39	C	-0.431264	-0.571183	-0.411187
C40	C	0.068736	-0.071183	0.088813
C41	C	-0.431248	-0.505750	-0.411208
C42	C	0.068752	-0.005750	0.088792
C43	C	-0.380613	-0.481141	-0.363111
C44	C	0.119387	0.018859	0.136889
C45	C	-0.329975	-0.521972	-0.314999
C46	C	0.170025	-0.021972	0.185001
C47	C	-0.329987	-0.587404	-0.314983
C48	C	0.170013	-0.087404	0.185017
C49	C	-0.374250	-0.378436	-0.305679
C50	C	0.125750	0.121564	0.194321
C51	C	-0.374243	-0.313004	-0.305695
C52	C	0.125757	0.186996	0.194305
C53	C	-0.380572	-0.279326	-0.363159
C54	C	0.119428	0.220674	0.136841
C55	C	-0.386923	-0.311086	-0.420612
C56	C	0.113077	0.188914	0.079388
C57	C	-0.386935	-0.376519	-0.420596
C58	C	0.113065	0.123481	0.079404
C59	C	-0.380594	-0.410191	-0.363123
C60	C	0.119406	0.089809	0.136877
C61	C	-0.431185	-0.167554	-0.411293
C62	C	0.068815	0.332446	0.088707
C63	C	-0.431164	-0.102121	-0.411314
C64	C	0.068836	0.397879	0.088686
C65	C	-0.329895	-0.118344	-0.315100
C66	C	0.170105	0.381656	0.184900
C67	C	-0.329912	-0.183776	-0.315084
C68	C	0.170088	0.316224	0.184916
C69	C	-0.380561	-0.208377	-0.363180
C70	C	0.119439	0.291623	0.136820
C71	C	-0.585945	-0.811448	-0.396032
C72	C	-0.085945	-0.311448	0.103968
C73	C	-0.673816	-0.797388	-0.410112
C74	C	-0.173816	-0.297388	0.089888
C75	C	-0.797703	-0.737479	-0.469973
C76	C	-0.297703	-0.237479	0.030027
C77	C	-0.715135	-0.750696	-0.456739
C78	C	-0.215135	-0.250696	0.043261
C79	C	-0.715055	-0.830880	-0.376698
C80	C	-0.215055	-0.330880	0.123302
C81	C	-0.797625	-0.817668	-0.389923
C82	C	-0.297625	-0.317668	0.110077
C83	C	-0.838942	-0.770968	-0.436562
C84	C	-0.338942	-0.270968	0.063438
C85	C	-0.838864	-0.851157	-0.356511
C86	C	-0.338864	-0.351157	0.143489
C87	C	-0.921426	-0.837948	-0.369738
C88	C	-0.421426	-0.337948	0.130262
C89	C	-0.962749	-0.791251	-0.416376
C90	C	-0.462749	-0.291251	0.083624
C91	C	-0.921504	-0.757759	-0.449789
C92	C	-0.421504	-0.257759	0.050211
C93	C	-0.797545	-0.897861	-0.309876
C94	C	-0.297545	-0.397861	0.190124
C95	C	-0.838785	-0.931349	-0.276465
C96	C	-0.338785	-0.431349	0.223535
C97	C	-0.921349	-0.918137	-0.289688
C98	C	-0.421349	-0.418137	0.210312
C99	C	-0.962672	-0.871440	-0.336326
C100	C	-0.462672	-0.371440	0.163674
C101	C	-0.962594	-0.951629	-0.256276
C102	C	-0.462594	-0.451629	0.243724
C103	C	-1.045156	-0.938420	-0.269502
C104	C	-0.545156	-0.438420	0.230498
C105	C	-1.045234	-0.858231	-0.349553
C106	C	-0.545234	-0.358231	0.150447
C107	C	-0.174344	-0.877595	-0.330194
C108	C	0.325656	-0.377595	0.169806
C109	C	-0.086473	-0.891719	-0.316141
C110	C	0.413527	-0.391719	0.183859
C111	C	-0.380529	-0.844503	-0.526591
C112	C	0.119471	-0.344503	-0.026591
C113	C	-0.380523	-0.844526	-0.596231
C114	C	0.119477	-0.344526	-0.096231
C115	C	-0.380509	-0.007878	-0.363232
C116	C	0.119491	0.492122	0.136768
C117	C	-0.380527	-0.077516	-0.363217
C118	C	0.119473	0.422484	0.136783
C119	C	-0.329945	-0.892728	-0.620878
C120	C	0.170055	-0.392728	-0.120878
C121	C	-0.329911	-0.892733	-0.686308
C122	C	0.170089	-0.392733	-0.186308
C123	C	-0.380469	-0.844540	-0.727091
C124	C	0.119531	-0.344540	-0.227091
C125	C	-0.431050	-0.796330	-0.702437
C126	C	0.068950	-0.296330	-0.202437
C127	C	-0.431077	-0.796323	-0.637008
C128	C	0.068923	-0.296323	-0.137008
C129	C	-0.451654	-0.828156	-0.842153
C130	C	0.048346	-0.328156	-0.342153
C131	C	-0.451628	-0.828167	-0.907582
C132	C	0.048372	-0.328167	-0.407582
C133	C	-0.380385	-0.844557	-0.928899
C134	C	0.119615	-0.344557	-0.428899
C135	C	-0.309166	-0.860950	-0.884779
C136	C	0.190834	-0.360950	-0.384779
C137	C	-0.309193	-0.860943	-0.819349
C138	C	0.190807	-0.360943	-0.319349
C139	C	-0.380445	-0.844542	-0.798040
C140	C	0.119555	-0.344542	-0.298040
C141	C	-0.329767	-0.892767	-1.024491
C142	C	0.170233	-0.392767	-0.524491
C143	C	-0.329731	-0.892767	-1.089922
C144	C	0.170269	-0.392767	-0.589922
C145	C	-0.430877	-0.796366	-1.106052
C146	C	0.069123	-0.296366	-0.606052
C147	C	-0.430905	-0.796364	-1.040621
C148	C	0.069095	-0.296364	-0.540621
C149	C	-0.380351	-0.844567	-0.999845
C150	C	0.119649	-0.344567	-0.499845
C151	C	-0.380504	-0.844439	-0.200376
C152	C	0.119496	-0.344439	0.299624
C153	C	-0.380288	-0.844573	-0.130701
C154	C	0.119712	-0.344573	0.369299
H155	H	-0.288689	-0.217014	-0.275907
H156	H	0.211311	0.282986	0.224093
O157	O	-0.485460	-0.744365	-1.014046
O158	O	0.014540	-0.244365	-0.514046
H159	H	-0.525692	-0.765926	-0.990692
H160	H	-0.025692	-0.265926	-0.490692
O161	O	-0.528437	-0.810480	-0.955167
O162	O	-0.028437	-0.310480	-0.455167
H163	H	-0.577979	-0.799067	-0.929353
H164	H	-0.077979	-0.299067	-0.429353
H165	H	-0.509653	-0.814644	-0.824801
H166	H	-0.009653	-0.314644	-0.324801
H167	H	-1.078734	-0.965692	-0.242297
H168	H	-0.578734	-0.465692	0.257703
H169	H	-0.288779	-0.931979	-0.587681
H170	H	0.211221	-0.431979	-0.087681
O171	O	-0.393729	-0.274773	-0.482594
O172	O	0.106271	0.225227	0.017406
H173	H	-0.398146	-0.307850	-0.522538
H174	H	0.101854	0.192150	-0.022538
H175	H	-0.288746	-0.501931	-0.275839
H176	H	0.211254	-0.001931	0.224161
H177	H	-0.681405	-0.868906	-0.338725
H178	H	-0.181405	-0.368906	0.161275
O179	O	-0.275365	-0.944728	-0.712904
O180	O	0.224635	-0.444728	-0.212904
H181	H	-0.240221	-0.978247	-0.673558
H182	H	0.259779	-0.478247	-0.173558
O183	O	-0.918021	-1.002002	-0.205980
O184	O	-0.418021	-0.502002	0.294020
H185	H	-0.960569	-1.023074	-0.184972
H186	H	-0.460569	-0.523074	0.315028
O187	O	-0.485886	-0.461703	-0.463077
O188	O	0.014114	0.038297	0.036923
H189	H	-0.521120	-0.489800	-0.496510
H190	H	-0.021120	0.010200	0.003490
O191	O	-0.275275	-0.091813	-0.263223
O192	O	0.224725	0.408187	0.236777
H193	H	-0.288741	-0.102153	-0.216183
H194	H	0.211259	0.397847	0.283817
H195	H	-0.831345	-0.699454	-0.507954
H196	H	-0.331345	-0.199454	-0.007954
O197	O	-1.089811	-0.807851	-0.399846
O198	O	-0.589811	-0.307851	0.100154
H199	H	-1.127376	-0.829865	-0.437774
H200	H	-0.627376	-0.329865	0.062226
O201	O	-0.485800	-0.194098	-0.463171
O202	O	0.014200	0.305902	0.036829
H203	H	-0.520993	-0.154717	-0.496635
H204	H	-0.020993	0.345283	0.003365
H205	H	-1.029977	-0.780499	-0.427147
H206	H	-0.529977	-0.280499	0.072853
O207	O	-0.485580	-0.744347	-0.746419
O208	O	0.014420	-0.244347	-0.246419
H209	H	-0.477069	-0.752452	-0.796059
H210	H	0.022931	-0.252452	-0.296059
H211	H	-0.472390	-0.068884	-0.450493
H212	H	0.027610	0.431116	0.049507
O213	O	-0.966079	-0.707388	-0.500091
O214	O	-0.466079	-0.207388	-0.000091
H215	H	-0.923534	-0.686319	-0.521106
H216	H	-0.423534	-0.186319	-0.021106
O217	O	-0.670651	-0.714570	-0.492773
O218	O	-0.170651	-0.214570	0.007227
H219	H	-0.713255	-0.679875	-0.527421
H220	H	-0.213255	-0.179875	-0.027421
H221	H	-0.730318	-0.908615	-0.299110
H222	H	-0.230318	-0.408615	0.200890
O223	O	-0.485613	-0.744321	-0.610416
O224	O	0.014387	-0.244321	-0.110416
H225	H	-0.520759	-0.710805	-0.649763
H226	H	-0.020759	-0.210805	-0.149763
H227	H	-0.251204	-0.874289	-0.783428
H228	H	0.248796	-0.374289	-0.283428
O229	O	-0.794221	-0.981729	-0.226174
O230	O	-0.294221	-0.481729	0.273826
H231	H	-0.729881	-0.985291	-0.222590
H232	H	-0.229881	-0.485291	0.277410
O233	O	-0.367389	-0.278749	-0.243732
O234	O	0.132611	0.221251	0.256268
H235	H	-0.362973	-0.313161	-0.203769
H236	H	0.137027	0.186839	0.296231
O237	O	-0.232314	-0.878614	-0.907757
O238	O	0.267686	-0.378614	-0.407757
H239	H	-0.244255	-0.875852	-0.960665
H240	H	0.255745	-0.375852	-0.460665
H241	H	-0.392104	-0.402375	-0.467376
H242	H	0.107896	0.097625	0.032624
O243	O	-0.275240	-0.944750	-0.980502
O244	O	0.224760	-0.444750	-0.480502
H245	H	-0.213191	-0.943974	-0.983108
H246	H	0.286809	-0.443974	-0.483108
O247	O	-0.485880	-0.597720	-0.463066
O248	O	0.014120	-0.097720	0.036934
H249	H	-0.521076	-0.558338	-0.496527
H250	H	-0.021076	-0.058338	0.003473
O251	O	-0.275179	-0.944760	-1.116510
O252	O	0.224821	-0.444760	-0.616510
H253	H	-0.240039	-0.978278	-1.077162
H254	H	0.259961	-0.478278	-0.577162
H255	H	-0.288757	-0.620643	-0.275808
H256	H	0.211243	-0.120643	0.224192
O257	O	-0.367428	-0.414755	-0.243696
O258	O	0.132572	0.085245	0.256304
H259	H	-0.311140	-0.411232	-0.211386
H260	H	0.188860	0.088768	0.288614
O261	O	-0.485409	-0.744384	-1.150029
O262	O	0.014591	-0.244384	-0.650029
H263	H	-0.476897	-0.752487	-1.199668
H264	H	0.023103	-0.252487	-0.699668
