data_functionalizedCrystal
_audit_creation_method	'MofGen! by Chris Wilmer'
_symmetry_space_group_name_H-M	'P1'
_symmetry_Int_Tables_number	1
_symmetry_cell_setting	triclinic
loop_
_symmetry_equiv_pos_as_xyz
  x,y,z
_cell_length_a	21.395362
_cell_length_b	21.395364
_cell_length_c	21.395355
_cell_angle_alpha	89.974702
_cell_angle_beta	90.019906
_cell_angle_gamma	89.955800
loop_
_atom_site_label
_atom_site_type_symbol
_atom_site_fract_x
_atom_site_fract_y
_atom_site_fract_z
Zn1	Zn	-0.249232	-0.957873	0.354268
Zn2	Zn	-0.353992	-0.957782	0.249488
Zn3	Zn	-0.249263	-0.853088	0.249503
Zn4	Zn	-0.354006	-0.853063	0.354227
O5	O	-0.301623	-0.905452	0.301871
O6	O	-0.263110	-1.045539	0.340379
O7	O	-0.340106	-0.943866	0.161812
O8	O	-0.161581	-0.867037	0.263424
O9	O	-0.340076	-1.045472	0.263398
O10	O	-0.161558	-0.944022	0.340394
O11	O	-0.263162	-0.866948	0.161823
O12	O	-0.263176	-0.765407	0.263384
O13	O	-0.340101	-0.866994	0.441910
O14	O	-0.340131	-0.765389	0.340324
O15	O	-0.263124	-0.943998	0.441940
O16	O	-0.441672	-0.943842	0.263358
O17	O	-0.441682	-0.866906	0.340309
C18	C	-0.301659	-0.742664	0.301852
C19	C	-0.301689	-0.673023	0.301858
C20	C	-0.261679	-0.640367	0.342004
C21	C	-0.261664	-0.574932	0.342005
C22	C	-0.301671	-0.542154	0.301868
C23	C	-0.341683	-0.574818	0.261714
C24	C	-0.341692	-0.640252	0.261709
C25	C	-0.358098	-0.438433	0.296828
C26	C	-0.358090	-0.373000	0.296837
C27	C	-0.301642	-0.340334	0.301879
C28	C	-0.245200	-0.373108	0.306925
C29	C	-0.245210	-0.438542	0.306921
C30	C	-0.301665	-0.471202	0.301868
C31	C	-0.261613	-0.236725	0.342029
C32	C	-0.261597	-0.171289	0.342026
C33	C	-0.341622	-0.171176	0.261738
C34	C	-0.341632	-0.236612	0.261738
C35	C	-0.301629	-0.269382	0.301886
C36	C	-0.464411	-0.905378	0.301841
C37	C	-0.534052	-0.905404	0.301849
C38	C	-1.035822	-0.945663	0.261905
C39	C	-0.970386	-0.945639	0.261890
C40	C	-0.937690	-0.905540	0.301916
C41	C	-0.970435	-0.865451	0.341949
C42	C	-1.035869	-0.865471	0.341958
C43	C	-0.834001	-0.900532	0.358347
C44	C	-0.768568	-0.900516	0.358339
C45	C	-0.735869	-0.905474	0.301888
C46	C	-0.768612	-0.910460	0.245444
C47	C	-0.834046	-0.910481	0.245453
C48	C	-0.866738	-0.905513	0.301911
C49	C	-0.632180	-0.945532	0.261839
C50	C	-0.566744	-0.945504	0.261823
C51	C	-0.566793	-0.865319	0.341888
C52	C	-0.632229	-0.865343	0.341898
C53	C	-0.664918	-0.905453	0.301874
C54	C	-0.138200	-0.905542	0.301916
C55	C	-0.068558	-0.905581	0.301934
C56	C	-0.301610	-0.905504	0.465295
C57	C	-0.301605	-0.905526	0.534936
C58	C	-0.301596	-0.068875	0.301888
C59	C	-0.301603	-0.138516	0.301887
C60	C	-0.301590	-0.905436	0.139084
C61	C	-0.301419	-0.905535	0.069443
C62	C	-0.261521	-0.945620	0.567666
C63	C	-0.261494	-0.945619	0.633101
C64	C	-0.301562	-0.905531	0.665804
C65	C	-0.341649	-0.865429	0.633067
C66	C	-0.341670	-0.865426	0.567632
C67	C	-0.357979	-0.900558	0.769469
C68	C	-0.357959	-0.900565	0.834902
C69	C	-0.301496	-0.905534	0.867625
C70	C	-0.245052	-0.910511	0.834908
C71	C	-0.245073	-0.910508	0.769474
C72	C	-0.301543	-0.905528	0.736757
C73	C	-0.261380	-0.945630	0.971308
C74	C	-0.261352	-0.945624	1.036744
C75	C	-0.341512	-0.865438	1.036708
C76	C	-0.341534	-0.865440	0.971273
C77	C	-0.301469	-0.905539	0.938577
H78	H	-0.374196	-0.144490	0.229057
F79	F	-0.219008	-0.136534	0.384754
F80	F	-0.219102	-0.675240	0.384733
H81	H	-0.374215	-0.263200	0.229049
F82	F	-0.218878	-0.988295	0.532872
F83	F	-0.935637	-0.822773	0.384546
H84	H	-0.229080	-0.548338	0.374696
F85	F	-0.384259	-0.539933	0.218995
H86	H	-0.860702	-0.914539	0.199494
H87	H	-0.741989	-0.914498	0.199477
F88	F	-0.418161	-0.338125	0.291475
H89	H	-0.658883	-0.832706	0.374496
H90	H	-0.199235	-0.346512	0.311032
F91	F	-1.070608	-0.988350	0.219306
H92	H	-0.658797	-0.978191	0.229249
H93	H	-0.374270	-0.832787	0.659698
F94	F	-0.384200	-0.822768	0.936438
F95	F	-0.418182	-0.473193	0.291453
F96	F	-0.532000	-0.822636	0.384480
F97	F	-0.384277	-0.675008	0.218977
H98	H	-0.199253	-0.465224	0.311027
H99	H	-0.943727	-0.978280	0.229292
H100	H	-0.741912	-0.896460	0.404298
F101	F	-0.418031	-0.895274	0.869716
F102	F	-0.531903	-0.988166	0.219215
F103	F	-0.868795	-0.895187	0.418427
H104	H	-0.403946	-0.896343	0.742830
F105	F	-0.184955	-0.915803	0.869730
F106	F	-0.384335	-0.822751	0.532798
H107	H	-0.229036	-0.263409	0.374716
F108	F	-0.218820	-0.988284	0.667942
H109	H	-0.199115	-0.914558	0.742838
F110	F	-1.070711	-0.822810	0.384566
H111	H	-0.228753	-0.978277	0.944685
F112	F	-0.218694	-0.988308	1.071578
H113	H	-0.374130	-0.832791	1.063335
