data_functionalizedCrystal
_audit_creation_method	'MofGen! by Chris Wilmer'
_symmetry_space_group_name_H-M	'P1'
_symmetry_Int_Tables_number	1
_symmetry_cell_setting	triclinic
loop_
_symmetry_equiv_pos_as_xyz
  x,y,z
_cell_length_a	9.130313
_cell_length_b	11.026607
_cell_length_c	10.967931
_cell_angle_alpha	96.379674
_cell_angle_beta	102.128461
_cell_angle_gamma	89.999749
loop_
_atom_site_label
_atom_site_type_symbol
_atom_site_fract_x
_atom_site_fract_y
_atom_site_fract_z
O1	O	-0.010329	-1.614505	-0.523493
O2	O	0.004718	-1.260704	-0.463882
O3	O	0.042572	-1.445769	-0.313875
O4	O	-0.048184	-1.429440	-0.673501
O5	O	-0.201028	-1.445766	-0.313880
O6	O	-0.238882	-1.260701	-0.463887
O7	O	-0.253929	-1.614503	-0.523498
Cu8	Cu	-0.268648	-1.437602	-0.493693
Cu9	Cu	0.019437	-1.437605	-0.493687
O10	O	-0.291784	-1.429438	-0.673505
C11	C	-0.114306	-1.215400	-0.452888
C12	C	-0.106031	-1.080414	-0.420105
N13	N	-0.471272	-1.437609	-0.493698
C14	C	-0.067425	-1.444581	-0.267122
C15	C	-0.032256	-1.441029	-0.127802
C16	C	-0.531171	-1.519577	-0.427308
C17	C	-0.684504	-1.519574	-0.427292
C18	C	-0.718028	-1.355630	-0.560066
C19	C	-0.564696	-1.355629	-0.560074
C20	C	-0.437747	-1.601557	-0.360932
C21	C	-0.497644	-1.683532	-0.294538
C22	C	-0.650977	-1.683529	-0.294522
C23	C	-0.744412	-1.601550	-0.360900
N24	N	0.222063	-1.437607	-0.493675
C25	C	-0.134902	-1.659806	-0.534493
C26	C	-0.143168	-1.794793	-0.567276
C27	C	-0.128874	-1.007360	-0.510624
C28	C	-0.120321	-0.867845	-0.476743
C29	C	-0.106440	-1.435769	0.078305
C30	C	-0.142785	-1.439443	-0.065689
C31	C	-0.181786	-1.430627	0.279741
C32	C	-0.216953	-1.434182	0.140421
H33	H	-0.312894	-1.601569	-0.360941
Br34	Br	-0.370843	-1.794769	-0.204439
Br35	Br	0.096109	-1.433522	0.167333
Br36	Br	-0.419503	-1.436467	0.051390
Br37	Br	-0.844830	-1.244382	-0.650148
Br38	Br	-0.062899	-1.012520	-0.249126
Br39	Br	-0.732263	-1.794765	-0.204403
H40	H	-0.264313	-1.440811	-0.119109
H41	H	-0.169066	-0.835529	-0.669862
Br42	Br	-0.952504	-1.601537	-0.360858
Br43	Br	0.170303	-1.438765	-0.038781
Br44	Br	-0.483399	-1.244376	-0.650169
Br45	Br	-0.172032	-1.075255	-0.681603
Br46	Br	-0.077187	-0.799956	-0.305758
