data_functionalizedCrystal
_audit_creation_method	'MofGen! by Chris Wilmer'
_symmetry_space_group_name_H-M	'P1'
_symmetry_Int_Tables_number	1
_symmetry_cell_setting	triclinic
loop_
_symmetry_equiv_pos_as_xyz
  x,y,z
_cell_length_a	9.016244
_cell_length_b	11.792241
_cell_length_c	11.792241
_cell_angle_alpha	95.806584
_cell_angle_beta	90.002363
_cell_angle_gamma	89.996851
loop_
_atom_site_label
_atom_site_type_symbol
_atom_site_fract_x
_atom_site_fract_y
_atom_site_fract_z
O1	O	0.123197	-1.506914	0.155563
O2	O	0.123231	-1.176573	0.171596
O3	O	0.123203	-1.349760	-0.001591
O4	O	0.123225	-1.333727	0.328750
O5	O	-0.123478	-1.349734	-0.001587
O6	O	-0.123449	-1.176547	0.171600
O7	O	-0.123484	-1.506888	0.155567
Cu8	Cu	-0.145990	-1.341716	0.163584
Cu9	Cu	0.145738	-1.341746	0.163579
O10	O	-0.123455	-1.333701	0.328754
C11	C	-0.000105	-1.134269	0.170591
C12	C	-0.000092	-1.008255	0.167576
N13	N	-0.351177	-1.341703	0.163586
C14	C	-0.000137	-1.348740	-0.043880
C15	C	-0.000135	-1.345726	-0.169894
C16	C	-0.586194	-1.248777	0.255921
C17	C	-0.414303	-1.248981	0.256265
C18	C	-0.413525	-1.460294	0.190184
C19	C	-0.585470	-1.459786	0.190837
C20	C	-0.585725	-1.317217	0.044350
C21	C	-0.413771	-1.314492	0.045131
N22	N	0.350924	-1.341768	0.163568
C23	C	-0.000145	-1.549192	0.156572
C24	C	-0.000148	-1.675206	0.159587
C25	C	-0.000135	-0.777543	0.162034
C26	C	-0.000111	-0.905928	0.165113
C27	C	-0.000110	-1.340183	-0.400606
C28	C	-0.000124	-1.343262	-0.272221
C29	C	-0.000112	-1.334721	0.371043
C30	C	-0.000104	-1.337736	0.497057
H31	H	-0.372151	-1.160853	0.240311
H32	H	-0.627579	-1.160372	0.240216
N33	N	-0.356879	-1.398300	-0.050247
H34	H	-0.443309	-1.439595	-0.090213
H35	H	-0.299774	-1.356034	-0.106471
H36	H	-0.626389	-1.385022	-0.024385
N37	N	-0.643325	-1.269388	0.372442
H38	H	-0.709770	-1.338696	0.365664
H39	H	-0.556845	-1.282493	0.423970
N40	N	-0.359842	-1.198900	0.018478
H41	H	-0.247880	-1.198660	0.015776
H42	H	-0.400557	-1.181895	-0.057777
H43	H	-0.373152	-1.264727	0.344722
N44	N	-0.640618	-1.554238	0.105191
H45	H	-0.702894	-1.520728	0.045672
H46	H	-0.553159	-1.596006	0.067247
H47	H	-0.625556	-1.481308	0.277805
N48	N	-0.359377	-1.554182	0.103499
H49	H	-0.293748	-1.520665	0.046017
H50	H	-0.301055	-1.611560	0.143397
H51	H	-0.629166	-1.232586	0.018954
N52	N	-0.356465	-1.489463	0.304073
H53	H	-0.290244	-1.426034	0.338595
H54	H	-0.442974	-1.499082	0.356656
