data_functionalizedCrystal
_audit_creation_method	'MofGen! by Chris Wilmer'
_symmetry_space_group_name_H-M	'P1'
_symmetry_Int_Tables_number	1
_symmetry_cell_setting	triclinic
loop_
_symmetry_equiv_pos_as_xyz
  x,y,z
_cell_length_a	14.519731
_cell_length_b	17.000371
_cell_length_c	13.596369
_cell_angle_alpha	89.993489
_cell_angle_beta	89.994584
_cell_angle_gamma	79.644050
loop_
_atom_site_label
_atom_site_type_symbol
_atom_site_fract_x
_atom_site_fract_y
_atom_site_fract_z
O1	O	1.215190	0.104406	-0.081794
O2	O	1.465190	0.354406	0.168206
O3	O	1.715190	0.604406	0.418206
O4	O	1.965190	0.854406	0.668206
O5	O	0.945698	0.116674	-0.081796
O6	O	1.195698	0.366674	0.168204
O7	O	1.445698	0.616674	0.418204
O8	O	1.695698	0.866674	0.668204
O9	O	1.097177	-0.005302	-0.081788
O10	O	1.347177	0.244698	0.168212
O11	O	1.597177	0.494698	0.418212
O12	O	1.847177	0.744698	0.668212
O13	O	1.063711	0.226381	-0.081802
O14	O	1.313711	0.476381	0.168198
O15	O	1.563711	0.726381	0.418198
O16	O	1.813711	0.976381	0.668198
O17	O	1.097164	-0.005308	0.081795
O18	O	1.347164	0.244692	0.331795
O19	O	1.597164	0.494692	0.581795
O20	O	1.847164	0.744692	0.831795
O21	O	0.945684	0.116667	0.081787
O22	O	1.195684	0.366667	0.331787
O23	O	1.445684	0.616667	0.581787
O24	O	1.695684	0.866667	0.831787
O25	O	1.215177	0.104399	0.081789
O26	O	1.465177	0.354399	0.331789
O27	O	1.715177	0.604399	0.581789
O28	O	1.965177	0.854399	0.831789
Zn29	Zn	1.080428	0.110532	0.107760
Zn30	Zn	1.330428	0.360532	0.357760
Zn31	Zn	1.580428	0.610532	0.607760
Zn32	Zn	1.830428	0.860532	0.857760
Zn33	Zn	1.080446	0.110541	-0.107767
Zn34	Zn	1.330446	0.360541	0.142233
Zn35	Zn	1.580446	0.610541	0.392233
Zn36	Zn	1.830446	0.860541	0.642233
O37	O	1.063697	0.226375	0.081781
O38	O	1.313697	0.476375	0.331781
O39	O	1.563697	0.726375	0.581781
O40	O	1.813697	0.976375	0.831781
C41	C	0.911379	0.116096	-0.000004
C42	C	1.161379	0.366096	0.249996
C43	C	1.411379	0.616096	0.499996
C44	C	1.661379	0.866096	0.749996
C45	C	0.809142	0.114373	-0.000005
C46	C	1.059142	0.364373	0.249995
C47	C	1.309142	0.614373	0.499995
C48	C	1.559142	0.864373	0.749995
C49	C	0.726114	0.112974	-0.000009
C50	C	0.976114	0.362974	0.249991
C51	C	1.226114	0.612974	0.499991
C52	C	1.476114	0.862974	0.749991
C53	C	0.621951	0.111225	-0.000009
C54	C	0.871951	0.361225	0.249991
C55	C	1.121951	0.611225	0.499991
C56	C	1.371951	0.861225	0.749991
C57	C	0.538927	0.109837	-0.000009
C58	C	0.788927	0.359837	0.249991
C59	C	1.038927	0.609837	0.499991
C60	C	1.288927	0.859837	0.749991
C61	C	0.434756	0.108088	-0.000011
C62	C	0.684756	0.358088	0.249989
C63	C	0.934756	0.608088	0.499989
C64	C	1.184756	0.858088	0.749989
C65	C	1.098968	-0.034956	0.000003
C66	C	1.348968	0.215044	0.250003
C67	C	1.598968	0.465044	0.500003
C68	C	1.848968	0.715044	0.750003
C69	C	1.104313	-0.123307	0.000003
C70	C	1.354313	0.126693	0.250003
C71	C	1.604313	0.376693	0.500003
C72	C	1.854313	0.626693	0.750003
C73	C	1.022057	-0.155455	-0.000002
C74	C	1.272057	0.094545	0.249998
C75	C	1.522057	0.344545	0.499998
C76	C	1.772057	0.594545	0.749998
C77	C	1.027085	-0.238470	0.000000
C78	C	1.277085	0.011530	0.250000
C79	C	1.527085	0.261530	0.500000
C80	C	1.777085	0.511530	0.750000
C81	C	1.114370	-0.289336	0.000001
C82	C	1.364370	-0.039336	0.250001
C83	C	1.614370	0.210664	0.500001
C84	C	1.864370	0.460664	0.750001
C85	C	1.196633	-0.257183	0.000009
C86	C	1.446633	-0.007183	0.250009
C87	C	1.696633	0.242817	0.500009
C88	C	1.946633	0.492817	0.750009
C89	C	1.191604	-0.174169	0.000013
C90	C	1.441604	0.075831	0.250013
C91	C	1.691604	0.325831	0.500013
C92	C	1.941604	0.575831	0.750013
C93	C	1.133795	-0.540453	-0.000006
C94	C	1.383795	-0.290453	0.249994
C95	C	1.633795	-0.040453	0.499994
C96	C	1.883795	0.209547	0.749994
C97	C	1.138817	-0.623472	-0.000013
C98	C	1.388817	-0.373472	0.249987
C99	C	1.638817	-0.123472	0.499987
C100	C	1.888817	0.126528	0.749987
C101	C	0.969269	-0.604754	-0.000019
C102	C	1.219269	-0.354754	0.249981
C103	C	1.469269	-0.104754	0.499981
C104	C	1.719269	0.145246	0.749981
C105	C	0.964248	-0.521739	-0.000021
C106	C	1.214248	-0.271739	0.249979
C107	C	1.464248	-0.021739	0.499979
C108	C	1.714248	0.228261	0.749979
C109	C	1.046511	-0.489593	-0.000008
C110	C	1.296511	-0.239593	0.249992
C111	C	1.546511	0.010407	0.499992
C112	C	1.796511	0.260407	0.749992
C113	C	1.119512	-0.374191	0.000001
C114	C	1.369512	-0.124191	0.250001
C115	C	1.619512	0.125809	0.500001
C116	C	1.869512	0.375809	0.750001
C117	C	1.041368	-0.404739	-0.000001
C118	C	1.291368	-0.154739	0.249999
C119	C	1.541368	0.095261	0.499999
C120	C	1.791368	0.345261	0.749999
C121	C	1.249495	0.104978	-0.000005
C122	C	1.499495	0.354978	0.249995
C123	C	1.749495	0.604978	0.499995
C124	C	1.999495	0.854978	0.749995
C125	C	1.351733	0.106700	-0.000011
C126	C	1.601733	0.356700	0.249989
C127	C	1.851733	0.606700	0.499989
C128	C	2.101733	0.856700	0.749989
C129	C	1.061906	0.256029	-0.000012
C130	C	1.311906	0.506029	0.249988
C131	C	1.561906	0.756029	0.499988
C132	C	1.811906	1.006029	0.749988
C133	C	1.056561	0.344380	-0.000018
C134	C	1.306561	0.594380	0.249982
C135	C	1.556561	0.844380	0.499982
C136	C	1.806561	1.094380	0.749982
N137	N	1.080423	0.110526	0.254852
N138	N	1.330423	0.360526	0.504852
N139	N	1.580423	0.610526	0.754852
N140	N	1.830423	0.860526	1.004852
N141	N	1.080460	0.110541	-0.254859
N142	N	1.330460	0.360541	-0.004859
N143	N	1.580460	0.610541	0.245141
N144	N	1.830460	0.860541	0.495141
C145	C	1.080445	0.110542	0.656143
C146	C	1.330445	0.360542	0.906143
C147	C	1.580445	0.610542	1.156143
C148	C	1.830445	0.860542	1.406143
C149	C	1.080436	0.110540	0.544492
C150	C	1.330436	0.360540	0.794492
C151	C	1.580436	0.610540	1.044492
C152	C	1.830436	0.860540	1.294492
C153	C	1.080434	0.110534	0.455501
C154	C	1.330434	0.360534	0.705501
C155	C	1.580434	0.610534	0.955501
C156	C	1.830434	0.860534	1.205501
C157	C	1.080425	0.110532	0.343843
C158	C	1.330425	0.360532	0.593843
C159	C	1.580425	0.610532	0.843843
C160	C	1.830425	0.860532	1.093843
H161	H	0.950980	-0.114044	-0.000007
H162	H	1.200980	0.135956	0.249993
H163	H	1.450980	0.385956	0.499993
H164	H	1.700980	0.635956	0.749993
O165	O	1.213654	-0.429056	0.000003
O166	O	1.463654	-0.179056	0.250003
O167	O	1.713654	0.070944	0.500003
O168	O	1.963654	0.320944	0.750003
H169	H	1.220005	-0.467316	-0.066673
H170	H	1.470005	-0.217316	0.183327
H171	H	1.720005	0.032684	0.433327
H172	H	1.970005	0.282684	0.683327
O173	O	1.280325	-0.139493	0.000005
O174	O	1.530325	0.110507	0.250005
O175	O	1.780325	0.360507	0.500005
O176	O	2.030325	0.610507	0.750005
H177	H	1.321940	-0.159926	0.066672
H178	H	1.571940	0.090074	0.316672
H179	H	1.821940	0.340074	0.566672
H180	H	2.071940	0.590074	0.816672
O181	O	0.938367	-0.273147	-0.000003
O182	O	1.188367	-0.023147	0.249997
O183	O	1.438367	0.226853	0.499997
O184	O	1.688367	0.476853	0.749997
H185	H	0.876828	-0.223831	-0.000013
H186	H	1.126828	0.026169	0.249987
H187	H	1.376828	0.276169	0.499987
H188	H	1.626828	0.526169	0.749987
O189	O	1.290780	-0.312040	0.000015
O190	O	1.540780	-0.062040	0.250015
O191	O	1.790780	0.187960	0.500015
O192	O	2.040780	0.437960	0.750015
H193	H	1.280459	-0.375167	0.000003
H194	H	1.530459	-0.125167	0.250003
H195	H	1.780459	0.124833	0.500003
H196	H	2.030459	0.374833	0.750003
H197	H	0.902296	-0.630936	-0.000028
H198	H	1.152296	-0.380936	0.249972
H199	H	1.402296	-0.130936	0.499972
H200	H	1.652296	0.119064	0.749972
O201	O	0.947227	-0.349880	0.000008
O202	O	1.197227	-0.099880	0.250008
O203	O	1.447227	0.150120	0.500008
O204	O	1.697227	0.400120	0.750008
H205	H	0.907544	-0.361318	-0.066665
H206	H	1.157544	-0.111318	0.183335
H207	H	1.407544	0.138682	0.433335
H208	H	1.657544	0.388682	0.683335
O209	O	0.870106	-0.466875	-0.000001
O210	O	1.120106	-0.216875	0.249999
O211	O	1.370106	0.033125	0.499999
O212	O	1.620106	0.283125	0.749999
H213	H	0.813751	-0.503177	0.000010
H214	H	1.063751	-0.253177	0.250010
H215	H	1.313751	-0.003177	0.500010
H216	H	1.563751	0.246823	0.750010
H217	H	1.200779	-0.514290	0.000002
H218	H	1.450779	-0.264290	0.250002
H219	H	1.700779	-0.014290	0.500002
H220	H	1.950779	0.235710	0.750002
H221	H	1.209899	-0.664887	-0.000019
H222	H	1.459899	-0.414887	0.249981
H223	H	1.709899	-0.164887	0.499981
H224	H	1.959899	0.085113	0.749981
