data_functionalizedCrystal
_audit_creation_method	'MofGen! by Chris Wilmer'
_symmetry_space_group_name_H-M	'P1'
_symmetry_Int_Tables_number	1
_symmetry_cell_setting	triclinic
loop_
_symmetry_equiv_pos_as_xyz
  x,y,z
_cell_length_a	18.215407
_cell_length_b	18.215406
_cell_length_c	18.215399
_cell_angle_alpha	90.019188
_cell_angle_beta	89.980167
_cell_angle_gamma	90.001785
loop_
_atom_site_label
_atom_site_type_symbol
_atom_site_fract_x
_atom_site_fract_y
_atom_site_fract_z
Zn1	Zn	-1.125211	-0.292983	0.416161
Zn2	Zn	-1.125177	-0.416054	0.293113
Zn3	Zn	-1.002143	-0.293007	0.293108
Zn4	Zn	-1.002167	-0.416013	0.416138
O5	O	-1.063675	-0.354514	0.354630
O6	O	-1.228190	-0.309316	0.399850
O7	O	-1.108833	-0.399759	0.190128
O8	O	-1.018472	-0.190020	0.309439
O9	O	-1.228166	-0.399736	0.309447
O10	O	-1.108889	-0.190002	0.399845
O11	O	-1.018440	-0.309357	0.190124
O12	O	-0.899162	-0.309317	0.309417
O13	O	-1.018513	-0.399666	0.519125
O14	O	-0.899180	-0.399689	0.399806
O15	O	-1.108913	-0.309276	0.519142
O16	O	-1.108856	-0.519033	0.309426
O17	O	-1.018481	-0.519003	0.399811
C18	C	-1.063687	-0.545721	0.354633
C19	C	-1.063760	-0.627519	0.354658
C20	C	-1.063719	-0.354464	0.546583
C21	C	-1.063739	-0.354442	0.628382
C22	C	-0.872468	-0.354502	0.354609
C23	C	-0.790669	-0.354514	0.354617
C24	C	-1.255628	-0.354528	0.354652
C25	C	-1.337426	-0.354533	0.354661
C26	C	-0.602504	-0.401645	0.401624
C27	C	-0.525645	-0.401647	0.401633
C28	C	-0.525597	-0.307397	0.307652
C29	C	-0.602455	-0.307392	0.307647
C30	C	-0.640906	-0.354520	0.354632
C31	C	-0.487190	-0.354528	0.354646
C32	C	-0.403856	-0.354530	0.354656
C33	C	-0.724245	-0.354517	0.354624
C34	C	-1.063682	-0.162561	0.354644
C35	C	-1.063685	-0.080763	0.354649
C36	C	-1.016680	0.184315	0.401717
C37	C	-1.016665	0.107456	0.401714
C38	C	-1.110767	0.107408	0.307586
C39	C	-1.110778	0.184266	0.307585
C40	C	-1.063735	0.222717	0.354655
C41	C	-1.063710	0.069001	0.354653
C42	C	-1.063695	-0.014333	0.354650
C43	C	-1.063749	0.306056	0.354657
C44	C	-1.063672	-0.354512	0.163424
C45	C	-1.063796	-0.354326	0.081625
C46	C	-1.110826	-0.307332	0.816586
C47	C	-1.110835	-0.307311	0.893445
C48	C	-1.016703	-0.401438	0.893416
C49	C	-1.016691	-0.401455	0.816559
C50	C	-1.063757	-0.354403	0.778146
C51	C	-1.063777	-0.354365	0.931862
C52	C	-1.063787	-0.354342	1.015195
C53	C	-1.063747	-0.354425	0.694807
H54	H	-0.633809	-0.440018	0.439884
H55	H	-1.149069	0.076092	0.269264
F56	F	-1.160862	0.225138	0.257491
F57	F	-0.484778	-0.451803	0.451650
F58	F	-0.484668	-0.257244	0.257649
H59	H	-1.149149	-0.269017	0.785312
F60	F	-0.643327	-0.257228	0.257633
F61	F	-1.160938	-0.257215	0.934352
F62	F	-0.966583	0.066589	0.451804
H63	H	-0.978374	0.215620	0.440042
H64	H	-0.978385	-0.439748	0.924701
H65	H	-0.978356	-0.439786	0.785260
