data_functionalizedCrystal
_audit_creation_method	'MofGen! by Chris Wilmer'
_symmetry_space_group_name_H-M	'P1'
_symmetry_Int_Tables_number	1
_symmetry_cell_setting	triclinic
loop_
_symmetry_equiv_pos_as_xyz
  x,y,z
_cell_length_a	10.489746
_cell_length_b	10.489768
_cell_length_c	16.776229
_cell_angle_alpha	90.004062
_cell_angle_beta	90.013225
_cell_angle_gamma	95.454106
loop_
_atom_site_label
_atom_site_type_symbol
_atom_site_fract_x
_atom_site_fract_y
_atom_site_fract_z
O1	O	0.180152	-1.694024	0.066247
O2	O	0.197008	-1.322833	0.066258
O3	O	0.002983	-1.516871	0.066246
O4	O	0.374176	-1.499985	0.066258
O5	O	0.002944	-1.516880	-0.066331
O6	O	0.196969	-1.322842	-0.066319
O7	O	0.180113	-1.694033	-0.066330
Zn8	Zn	0.188535	-1.508439	-0.087374
Zn9	Zn	0.188586	-1.508427	0.087301
O10	O	0.374138	-1.499994	-0.066318
C11	C	0.195708	-1.275306	-0.000029
C12	C	0.191877	-1.133678	-0.000025
C13	C	-0.044568	-1.515599	-0.000042
C14	C	-0.186197	-1.511779	-0.000042
N15	N	0.188499	-1.508456	-0.206585
C16	C	-0.339068	-1.386057	-0.000028
C17	C	-0.261650	-1.448908	0.065336
C18	C	-0.261730	-1.448947	-0.065374
C19	C	-0.361130	-1.567889	0.065394
C20	C	-0.361215	-1.567910	-0.065375
C21	C	-0.283846	-1.630848	0.000005
C22	C	0.421689	-1.501267	-0.000028
C23	C	0.563318	-1.505086	-0.000024
C24	C	0.066141	-0.980820	-0.000042
C25	C	0.128985	-1.058218	-0.065404
C26	C	0.129052	-1.058165	0.065306
C27	C	0.247958	-0.958730	-0.065463
C28	C	0.248008	-0.958671	0.065306
C29	C	0.310939	-1.036021	-0.000072
C30	C	0.181393	-0.741562	-0.000043
C31	C	0.185164	-0.883197	-0.000047
N32	N	0.188612	-1.508419	0.206513
C33	C	0.110315	-1.430513	0.248223
C34	C	0.110294	-1.430522	0.331675
C35	C	0.188576	-1.508431	0.373416
C36	C	0.266876	-1.586347	0.331699
C37	C	0.266890	-1.586343	0.248249
C38	C	0.266820	-1.586362	0.668247
C39	C	0.266803	-1.586357	0.751703
C40	C	0.110224	-1.430541	0.751673
C41	C	0.110238	-1.430538	0.668222
C42	C	0.188532	-1.508457	0.626513
C43	C	0.188553	-1.508448	0.536025
C44	C	0.188563	-1.508434	0.463902
H45	H	-0.363797	-1.282556	0.000040
Cl46	Cl	0.470860	-1.073813	-0.000116
Cl47	Cl	-0.428398	-1.645425	-0.150703
H48	H	-0.218306	-1.398680	-0.120635
H49	H	-0.218163	-1.398657	0.120600
H50	H	0.330554	-1.649804	0.785686
H51	H	-0.404390	-1.618098	0.120717
H52	H	-0.259361	-1.734427	0.000037
H53	H	-0.037362	-0.956097	-0.000111
Cl54	Cl	0.051390	-1.125345	-0.150729
Cl55	Cl	0.325453	-0.891926	-0.150880
H56	H	0.298224	-0.915168	0.120572
H57	H	0.078801	-1.101603	0.120567
H58	H	0.046575	-1.367063	0.214244
Cl59	Cl	0.011899	-1.332538	0.384108
Cl60	Cl	0.011827	-1.332585	0.615753
Cl61	Cl	0.011790	-1.332588	0.804112
Cl62	Cl	0.365258	-1.684309	0.615823
H63	H	0.330609	-1.649788	0.365691
H64	H	0.330646	-1.649783	0.214289
