data_functionalizedCrystal
_audit_creation_method	'MofGen! by Chris Wilmer'
_symmetry_space_group_name_H-M	'P1'
_symmetry_Int_Tables_number	1
_symmetry_cell_setting	triclinic
loop_
_symmetry_equiv_pos_as_xyz
  x,y,z
_cell_length_a	12.827893
_cell_length_b	21.295417
_cell_length_c	21.295412
_cell_angle_alpha	89.968813
_cell_angle_beta	89.985558
_cell_angle_gamma	90.030477
loop_
_atom_site_label
_atom_site_type_symbol
_atom_site_fract_x
_atom_site_fract_y
_atom_site_fract_z
Zn1	Zn	1.597510	-0.250622	-0.355878
Zn2	Zn	1.597373	-0.355892	-0.250603
Zn3	Zn	1.422766	-0.250640	-0.250626
Zn4	Zn	1.422691	-0.355857	-0.355839
O5	O	1.510085	-0.303253	-0.303236
O6	O	1.743728	-0.264593	-0.341920
O7	O	1.574185	-0.341952	-0.162517
O8	O	1.446035	-0.162548	-0.264614
O9	O	1.743627	-0.341934	-0.264575
O10	O	1.574419	-0.162535	-0.341942
O11	O	1.445902	-0.264624	-0.162534
O12	O	1.276520	-0.264591	-0.264576
O13	O	1.445907	-0.341876	-0.443933
O14	O	1.276465	-0.341893	-0.341875
O15	O	1.574346	-0.264560	-0.443962
O16	O	1.574112	-0.443976	-0.264537
O17	O	1.445773	-0.443951	-0.341853
C18	C	1.238575	-0.303241	-0.303224
C19	C	1.122422	-0.303251	-0.303234
C20	C	1.070637	-0.341562	-0.341425
C21	C	0.950587	-0.341573	-0.341436
C22	C	1.509948	-0.466804	-0.303202
C23	C	1.509985	-0.536773	-0.303208
C24	C	1.576870	-0.569631	-0.262991
C25	C	1.576919	-0.635374	-0.263005
C26	C	1.510064	-0.668255	-0.303229
C27	C	1.443174	-0.635388	-0.343454
C28	C	1.443135	-0.569647	-0.343444
N29	N	1.418647	-0.771521	-0.308024
N30	N	1.418688	-0.833972	-0.308031
C31	C	1.510181	-0.866330	-0.303266
N32	N	1.601635	-0.833876	-0.298481
N33	N	1.601593	-0.771419	-0.298471
C34	C	1.510100	-0.739540	-0.303246
C35	C	1.577125	-0.970474	-0.263062
C36	C	1.577176	-1.036218	-0.263080
C37	C	1.443422	-1.036231	-0.343527
C38	C	1.443381	-0.970488	-0.343511
C39	C	1.510231	-0.937614	-0.303275
C40	C	1.782655	-0.303265	-0.303249
C41	C	1.898808	-0.303271	-0.303254
C42	C	1.510133	-0.303212	-0.467427
C43	C	1.510154	-0.303195	-0.537395
C44	C	1.510251	-0.139063	-0.303285
C45	C	1.510322	-0.069094	-0.303306
C46	C	1.577131	-0.262837	-1.036869
C47	C	1.577123	-0.262852	-0.971127
C48	C	1.510244	-0.303112	-0.938235
C49	C	1.443388	-0.343371	-0.971091
C50	C	1.443405	-0.343359	-1.036832
N51	N	1.418738	-0.307955	-0.835008
N52	N	1.418724	-0.307963	-0.772556
C53	C	1.510189	-0.303151	-0.740160
N54	N	1.601670	-0.298319	-0.772574
N55	N	1.601683	-0.298308	-0.835031
C56	C	1.510218	-0.303129	-0.866949
C57	C	1.577038	-0.262914	-0.636026
C58	C	1.577032	-0.262934	-0.570282
C59	C	1.443287	-0.343449	-0.570248
C60	C	1.443303	-0.343433	-0.635990
C61	C	1.510177	-0.303162	-0.668875
C62	C	1.510097	-0.303248	-0.139685
C63	C	1.510279	-0.303088	-0.069717
H64	H	0.906053	-0.374375	-0.374131
H65	H	1.077880	-0.270456	-0.270548
N66	N	1.649242	-0.935013	-0.219677
H67	H	1.639065	-0.888379	-0.225770
H68	H	1.633039	-0.946546	-0.174712
N69	N	1.648987	-0.534176	-0.219605
H70	H	1.606542	-0.506941	-0.190403
H71	H	1.691353	-0.565013	-0.194175
H72	H	1.631648	-1.062970	-0.230332
N73	N	1.371069	-0.670848	-0.386842
H74	H	1.381240	-0.717482	-0.380745
H75	H	1.296439	-0.659403	-0.377004
N76	N	1.371320	-1.071686	-0.386918
H77	H	1.381496	-1.118319	-0.380825
H78	H	1.296689	-1.060244	-0.377080
N79	N	1.371232	-0.935043	-0.386884
H80	H	1.328884	-0.965847	-0.412368
H81	H	1.322884	-0.907812	-0.361227
N82	N	1.370990	-0.534202	-0.386821
H83	H	1.328645	-0.565005	-0.412308
H84	H	1.322639	-0.506972	-0.361165
H85	H	0.943335	-0.270471	-0.270554
H86	H	1.388837	-0.376232	-0.543468
H87	H	1.631561	-0.230072	-0.944377
H88	H	1.631590	-0.230048	-1.063640
H89	H	1.631389	-0.662133	-0.230255
N90	N	1.371258	-0.386797	-0.935619
H91	H	1.381388	-0.380696	-0.888987
H92	H	1.296636	-0.376998	-0.947111
N93	N	1.371298	-0.386774	-1.072266
H94	H	1.328930	-0.412284	-1.041456
H95	H	1.322967	-0.361144	-1.099547
H96	H	1.631490	-0.230123	-0.662803
N97	N	1.649148	-0.219523	-0.534850
H98	H	1.691510	-0.194011	-0.565661
H99	H	1.606629	-0.190399	-0.507578
H100	H	1.388860	-0.376207	-0.662735
H101	H	1.115179	-0.374352	-0.374116
