data_functionalizedCrystal
_audit_creation_method	'MofGen! by Chris Wilmer'
_symmetry_space_group_name_H-M	'P1'
_symmetry_Int_Tables_number	1
_symmetry_cell_setting	triclinic
loop_
_symmetry_equiv_pos_as_xyz
  x,y,z
_cell_length_a	8.559649
_cell_length_b	11.792254
_cell_length_c	7.681481
_cell_angle_alpha	95.781964
_cell_angle_beta	85.086760
_cell_angle_gamma	76.988631
loop_
_atom_site_label
_atom_site_type_symbol
_atom_site_fract_x
_atom_site_fract_y
_atom_site_fract_z
O1	O	2.104792	-0.026423	0.146400
O2	O	2.604792	0.473577	0.646400
O3	O	1.640099	0.032147	0.146410
O4	O	2.140099	0.532147	0.646410
O5	O	1.883713	-0.163340	0.146392
O6	O	2.383713	0.336660	0.646392
O7	O	1.861178	0.169064	0.146418
O8	O	2.361178	0.669064	0.646418
O9	O	1.913698	-0.187450	-0.146468
O10	O	2.413698	0.312550	0.353532
O11	O	1.670083	0.008038	-0.146450
O12	O	2.170083	0.508038	0.353550
O13	O	2.134777	-0.050533	-0.146460
O14	O	2.634777	0.449467	0.353540
Zn15	Zn	1.907191	-0.025076	-0.192953
Zn16	Zn	2.407191	0.474924	0.307047
Zn17	Zn	1.867685	0.006690	0.192903
Zn18	Zn	2.367685	0.506690	0.692903
O19	O	1.891162	0.144954	-0.146442
O20	O	2.391162	0.644954	0.353558
C21	C	1.595600	0.024531	-0.000018
C22	C	2.095600	0.524531	0.499982
C23	C	1.418334	0.037743	-0.000015
C24	C	1.918334	0.537743	0.499985
C25	C	1.897286	-0.217555	-0.000037
C26	C	2.397286	0.282445	0.499963
C27	C	1.893037	-0.343179	-0.000035
C28	C	2.393037	0.156821	0.499965
C29	C	1.889585	-0.445200	-0.000029
C30	C	2.389585	0.054800	0.499971
C31	C	1.885267	-0.573190	-0.000013
C32	C	2.385267	-0.073190	0.499987
C33	C	2.179276	-0.042916	-0.000027
C34	C	2.679276	0.457084	0.499973
C35	C	2.356540	-0.056128	-0.000020
C36	C	2.856540	0.443872	0.499980
C37	C	1.877589	0.199170	-0.000009
C38	C	2.377589	0.699170	0.499991
C39	C	1.881837	0.324795	0.000001
C40	C	2.381837	0.824795	0.500001
N41	N	1.934164	-0.046757	-0.456289
N42	N	2.434164	0.453243	0.043711
N43	N	1.840724	0.028361	0.456239
N44	N	2.340724	0.528361	0.956239
H45	H	1.439247	-0.146602	-0.000018
H46	H	1.939247	0.353398	0.499982
H47	H	2.029565	-0.123427	-0.531502
H48	H	2.529565	0.376573	-0.031502
O49	O	1.319446	0.145599	-0.000078
O50	O	1.819446	0.645599	0.499922
C51	C	1.158528	0.135233	-0.000023
C52	C	1.658528	0.635233	0.499977
H53	H	1.157192	0.042116	-0.055475
H54	H	1.657192	0.542116	0.444525
H55	H	1.096024	0.155255	0.140481
H56	H	1.596024	0.655255	0.640481
C57	C	1.070627	0.337019	-0.046749
C58	C	1.570627	0.837019	0.453251
C59	C	1.068986	0.222653	-0.114870
C60	C	1.568986	0.722653	0.385130
H61	H	1.015390	0.390947	-0.117584
H62	H	1.515390	0.890947	0.382416
H63	H	1.179040	0.344005	-0.046779
H64	H	1.679040	0.844005	0.453221
H65	H	1.018543	0.353687	0.070337
H66	H	1.518543	0.853687	0.570337
H67	H	1.121087	0.205982	-0.231944
H68	H	1.621087	0.705982	0.268056
H69	H	0.960580	0.215666	-0.114862
H70	H	1.460580	0.715666	0.385138
H71	H	1.745341	0.105034	-0.468557
H72	H	2.245341	0.605034	0.031443
