data_functionalizedCrystal
_audit_creation_method	'MofGen! by Chris Wilmer'
_symmetry_space_group_name_H-M	'P1'
_symmetry_Int_Tables_number	1
_symmetry_cell_setting	triclinic
loop_
_symmetry_equiv_pos_as_xyz
  x,y,z
_cell_length_a	16.776229
_cell_length_b	9.065218
_cell_length_c	17.699104
_cell_angle_alpha	84.153735
_cell_angle_beta	89.994835
_cell_angle_gamma	90.005904
loop_
_atom_site_label
_atom_site_type_symbol
_atom_site_fract_x
_atom_site_fract_y
_atom_site_fract_z
O1	O	-0.066331	-1.957130	-0.110962
O2	O	-0.066324	-1.527576	-0.120064
O3	O	-0.066320	-1.754473	-0.005419
O4	O	-0.066334	-1.730233	-0.225606
O5	O	0.066256	-1.754452	-0.005439
O6	O	0.066253	-1.527555	-0.120084
O7	O	0.066246	-1.957108	-0.110982
Zn8	Zn	0.087299	-1.742329	-0.115536
Zn9	Zn	-0.087377	-1.742356	-0.115510
O10	O	0.066242	-1.730212	-0.225626
C11	C	-0.000035	-1.472605	-0.119199
C12	C	-0.000032	-1.308839	-0.116583
N13	N	0.206510	-1.742320	-0.115554
N14	N	-0.206588	-1.742376	-0.115486
C15	C	0.751686	-1.653063	-0.068949
C16	C	0.668234	-1.653059	-0.068955
C17	C	0.626509	-1.742362	-0.115503
C18	C	0.668241	-1.831686	-0.162042
C19	C	0.751691	-1.831696	-0.162031
C20	C	0.331694	-1.831647	-0.162086
C21	C	0.248237	-1.831627	-0.162095
C22	C	0.248236	-1.653010	-0.069011
C23	C	0.331687	-1.653021	-0.069000
C24	C	0.373411	-1.742350	-0.115535
C25	C	0.463900	-1.742354	-0.115527
C26	C	0.536022	-1.742351	-0.115516
C27	C	-0.000032	-1.753589	0.022774
C28	C	-0.000032	-1.750967	0.106812
C29	C	-0.000041	-1.012080	-0.111846
C30	C	-0.000034	-1.175846	-0.114462
C31	C	-0.000048	-1.731096	-0.253820
C32	C	-0.000054	-1.733718	-0.337858
C33	C	-0.000056	-1.869367	0.630760
C34	C	-0.000049	-1.871821	0.551797
C35	C	-0.000045	-1.738625	0.504218
C36	C	-0.000040	-1.602964	0.535606
C37	C	-0.000041	-1.600512	0.614567
C38	C	-0.000034	-1.612853	0.217163
C39	C	-0.000035	-1.615316	0.138196
C40	C	-0.000041	-1.884162	0.154392
C41	C	-0.000043	-1.881710	0.233354
C42	C	-0.000033	-1.746051	0.264734
C43	C	-0.000040	-1.743391	0.350355
C44	C	-0.000045	-1.741282	0.418599
H45	H	0.785653	-1.580334	-0.031048
H46	H	0.785664	-1.904425	-0.199926
H47	H	-0.000030	-1.506844	0.099458
H48	H	-0.000050	-1.990173	0.272089
H49	H	-0.000036	-1.502391	0.242703
C50	C	-0.000064	-2.015882	0.683093
H51	H	-0.000073	-1.994998	0.734615
H52	H	0.046167	-2.071514	0.673476
H53	H	-0.046304	-2.071518	0.673479
H54	H	-0.000032	-1.494513	0.496861
H55	H	-0.000051	-1.982281	0.526249
H56	H	0.365655	-1.580295	-0.031099
C57	C	-0.000039	-2.033387	0.119871
H58	H	-0.000028	-2.015779	0.066031
H59	H	-0.046273	-2.088226	0.136140
H60	H	0.046198	-2.088206	0.136138
H61	H	-0.000033	-1.490052	0.640117
H62	H	0.634265	-1.580336	-0.031058
H63	H	0.214267	-1.904353	-0.200002
C64	C	0.202337	-1.554752	-0.017820
H65	H	0.146661	-1.567540	-0.024486
H66	H	0.216028	-1.453775	-0.031164
H67	H	0.216000	-1.582345	0.033774
C68	C	0.377584	-1.929878	-0.213284
H69	H	0.433260	-1.917109	-0.206610
H70	H	0.363917	-1.902271	-0.264871
H71	H	0.363895	-2.030867	-0.199946
C72	C	0.622346	-1.929914	-0.213245
H73	H	0.566669	-1.917106	-0.206594
H74	H	0.636008	-2.030901	-0.199906
H75	H	0.636039	-1.902310	-0.264834
