data_functionalizedCrystal
_audit_creation_method	'MofGen! by Chris Wilmer'
_symmetry_space_group_name_H-M	'P1'
_symmetry_Int_Tables_number	1
_symmetry_cell_setting	triclinic
loop_
_symmetry_equiv_pos_as_xyz
  x,y,z
_cell_length_a	20.919309
_cell_length_b	16.704494
_cell_length_c	16.704494
_cell_angle_alpha	60.174809
_cell_angle_beta	90.228451
_cell_angle_gamma	60.955789
loop_
_atom_site_label
_atom_site_type_symbol
_atom_site_fract_x
_atom_site_fract_y
_atom_site_fract_z
Zr1	Zr	0.680589	0.800964	-0.107766
O2	O	0.586906	0.963754	-0.241974
O3	O	0.704162	0.636000	-0.061232
O4	O	0.717617	0.785055	-0.227157
O5	O	0.568691	0.828005	0.048702
O6	O	0.826579	0.774979	-0.221603
O7	O	0.573450	0.814698	-0.076049
O8	O	0.802510	0.508347	0.075207
O9	O	0.592760	1.094638	-0.248108
O10	O	0.801750	0.697137	-0.043755
O11	O	0.716881	0.714588	0.045200
O12	O	0.732723	0.890081	-0.150156
O13	O	0.647854	0.907532	-0.061201
Zr14	Zr	0.846780	0.806117	0.100055
Zr15	Zr	0.854371	0.784893	-0.098908
Zr16	Zr	0.672998	0.822187	0.091197
Zr17	Zr	0.689926	1.009709	-0.117549
Zr18	Zr	0.837443	0.597371	0.109838
O19	O	0.823207	0.971080	0.053521
O20	O	0.834001	0.940904	-0.229379
O21	O	0.576112	0.993930	0.040926
O22	O	0.940464	0.643327	0.234263
O23	O	0.951257	0.613150	-0.048636
O24	O	0.693368	0.666177	0.221668
O25	O	0.958679	0.779075	-0.056412
O26	O	0.809752	0.822025	0.219446
O27	O	0.700790	0.832101	0.213892
O28	O	0.953919	0.792382	0.068338
O29	O	0.730893	1.081864	-0.241067
O30	O	0.796476	0.525216	0.233356
O31	O	0.934609	0.512442	0.240397
O32	O	0.940643	0.495573	0.082248
O33	O	0.586726	1.111507	-0.089959
O34	O	0.724859	1.098734	-0.082918
O35	O	0.794646	0.716999	0.142445
O36	O	0.879515	0.699549	0.053490
O37	O	0.810488	0.892492	-0.052911
O38	O	0.725619	0.909943	0.036044
C39	C	0.752006	0.542432	0.008381
C40	C	0.748042	0.453814	0.012534
C41	C	0.829216	0.269056	-0.072524
C42	C	0.825494	0.185791	-0.068624
C43	C	0.736881	0.204012	0.024239
C44	C	0.740603	0.287277	0.020340
C45	C	0.786771	0.319796	-0.028045
C46	C	0.790488	0.403069	-0.031950
C47	C	0.701880	0.421282	0.060919
C48	C	0.698158	0.338018	0.064818
C49	C	0.546310	0.823642	-0.014936
C50	C	0.472535	0.830464	-0.018696
C51	C	0.473905	0.732957	0.035072
C52	C	0.404584	0.739373	0.031536
C53	C	0.333893	0.843298	-0.025774
C54	C	0.332525	0.940813	-0.079544
C55	C	0.401846	0.934396	-0.076002
C56	C	0.122787	0.867714	-0.039242
C57	C	0.053464	0.874124	-0.042783
C58	C	0.125528	0.672683	0.068299
C59	C	0.194846	0.666275	0.071832
C60	C	0.193472	0.763790	0.018066
C61	C	0.263034	0.849860	-0.029392
C62	C	0.264330	0.757228	0.021690
C63	C	0.981059	0.783439	0.007225
C64	C	1.054834	0.776616	0.010986
C65	C	0.773180	0.776993	-0.252728
C66	C	0.776403	0.767984	-0.337193
C67	C	0.775364	1.064649	-0.016092
C68	C	0.779327	1.153267	-0.020245
C69	C	0.710400	0.952503	-0.607005
C70	C	0.713426	0.944043	-0.686370
C71	C	0.785486	0.742603	-0.575291
C72	C	0.782459	0.751064	-0.495925
C73	C	0.744914	0.856017	-0.511787
C74	C	0.741884	0.864477	-0.432420
C75	C	0.813948	0.663038	-0.321343
C76	C	0.816974	0.654577	-0.400708
C77	C	0.754189	0.830087	0.245017
C78	C	0.750967	0.839097	0.329482
C79	C	0.969380	0.522330	0.019462
C80	C	1.039191	0.426890	0.027375
C81	C	0.742510	0.568978	0.257254
C82	C	0.735324	0.489370	0.345872
C83	C	0.959885	0.548877	0.268334
C84	C	1.026473	0.462447	0.360713
C85	C	0.567485	1.058203	-0.276045
C86	C	0.500896	1.144634	-0.368424
C87	C	0.557989	1.084750	-0.027173
C88	C	0.488178	1.180190	-0.035086
C89	C	0.784859	1.038102	-0.264965
C90	C	0.792045	1.117710	-0.353583
C91	C	1.031383	0.380811	-0.019677
C92	C	1.096973	0.291145	-0.012261
C93	C	1.170369	0.247555	0.042214
C94	C	1.178176	0.293642	0.089268
C95	C	1.112588	0.383312	0.081846
C96	C	0.772542	0.453245	0.438257
C97	C	0.765786	0.378457	0.521530
C98	C	0.721818	0.339790	0.512416
C99	C	0.684596	0.375923	0.420021
C100	C	0.691347	0.450716	0.336750
C101	C	1.102052	0.412748	0.357662
C102	C	1.164627	0.331548	0.444454
C103	C	1.151620	0.300042	0.534296
C104	C	1.076034	0.349749	0.537344
C105	C	1.013461	0.430953	0.450553
C106	C	0.425318	1.194342	-0.365373
C107	C	0.362744	1.275568	-0.452166
C108	C	0.375751	1.307079	-0.542009
C109	C	0.451337	1.257366	-0.545057
C110	C	0.513909	1.176147	-0.458265
C111	C	0.495987	1.226277	0.011958
C112	C	0.430399	1.315964	0.004519
C113	C	0.357003	1.359557	-0.049960
C114	C	0.349196	1.313466	-0.097010
C115	C	0.414783	1.223786	-0.089576
C116	C	0.836020	1.156353	-0.344437
C117	C	0.842787	1.231142	-0.427695
C118	C	0.805575	1.267292	-0.520097
C119	C	0.761599	1.228641	-0.529240
C120	C	0.754837	1.153848	-0.445983
H121	H	0.660572	0.311525	0.104215
H122	H	0.575447	1.135674	-0.460760
H123	H	1.090601	0.253631	-0.050579
O124	O	1.121014	0.432989	0.132619
H125	H	1.157450	0.464804	0.104487
O126	O	0.669900	1.065701	-0.624110
H127	H	0.621909	1.078523	-0.592903
H128	H	0.716327	0.278890	0.580229
H129	H	0.860058	0.144478	-0.104841
O130	O	1.116090	0.446734	0.260765
H131	H	1.179162	0.398537	0.273240
H132	H	-0.004097	0.958756	-0.089456
O133	O	0.550146	0.620860	0.096887
H134	H	0.585411	0.607631	0.049767
H135	H	1.223769	0.174539	0.048251
H136	H	1.226167	0.291083	0.441954
O137	O	0.701386	0.977675	-0.449528
H138	H	0.705071	0.967353	-0.378346
O139	O	0.651277	0.489493	0.237150
H140	H	0.588037	0.532554	0.223923
O141	O	1.219116	0.212446	0.627901
H142	H	1.214080	0.141047	0.673361
H143	H	0.414712	1.168692	-0.292227
H144	H	0.828078	0.429548	-0.071350
H145	H	0.436771	1.353477	0.042838
H146	H	0.685322	1.022612	-0.763898
O147	O	0.186786	0.961945	-0.091207
H148	H	0.197474	1.028679	-0.128003
O149	O	0.819963	0.494948	0.448099
H150	H	0.844696	0.457263	0.526335
O151	O	0.805949	0.339487	0.621174
H152	H	0.762352	0.363551	0.656731
H153	H	0.405706	0.659973	0.075321
O154	O	1.062019	0.315743	0.634255
H155	H	1.031185	0.389594	0.637363
H156	H	0.126637	0.593292	0.112073
O157	O	0.825980	0.629410	-0.558191
H158	H	0.822282	0.639743	-0.629378
H159	H	0.667315	0.462609	0.097132
O160	O	0.637199	0.334181	0.410199
H161	H	0.638778	0.276085	0.483631
O162	O	0.952225	0.427828	-0.078450
H163	H	0.940974	0.361583	-0.047469
H164	H	1.237944	0.258138	0.133621
H165	H	0.555744	1.190792	0.056326
O166	O	0.931942	0.484532	0.453850
H167	H	0.933418	0.448961	0.530907
H168	H	0.878595	1.262604	-0.420231
H169	H	0.699303	0.177507	0.063644
H170	H	0.811087	1.328194	-0.587882
O171	O	0.281223	1.329159	-0.448867
H172	H	0.282697	1.293577	-0.371810
O173	O	0.308260	1.394692	-0.635619
H174	H	0.253522	1.423956	-0.618394
O175	O	0.465361	1.291349	-0.641960
H176	H	0.409148	1.356166	-0.701791
H177	H	0.303604	1.432580	-0.056005
O178	O	0.271092	0.554185	0.133641
H179	H	0.260399	0.487458	0.170440
O180	O	0.270031	1.360488	-0.155768
H181	H	0.225742	1.430582	-0.153019
H182	H	0.408414	1.186265	-0.127883
H183	H	0.866323	1.126932	-0.269207
H184	H	0.731303	1.258086	-0.604485
O185	O	0.707400	1.112174	-0.455847
H186	H	0.646761	1.184005	-0.500984
O187	O	0.879000	0.304151	-0.124714
H188	H	0.940045	0.231226	-0.090028
O189	O	0.121304	0.972884	-0.097242
H190	H	0.060502	1.046222	-0.137698
H191	H	0.400725	1.013798	-0.119775
O192	O	0.256278	1.052901	-0.141360
H193	H	0.250335	1.105447	-0.115921
O194	O	0.340572	0.645140	0.083492
H195	H	0.371922	0.642877	0.139147
H196	H	0.847545	0.569127	-0.387807
H197	H	0.842047	0.584472	-0.243804
