data_functionalizedCrystal
_audit_creation_method	'MofGen! by Chris Wilmer'
_symmetry_space_group_name_H-M	'P1'
_symmetry_Int_Tables_number	1
_symmetry_cell_setting	triclinic
loop_
_symmetry_equiv_pos_as_xyz
  x,y,z
_cell_length_a	14.044220
_cell_length_b	15.995350
_cell_length_c	12.503572
_cell_angle_alpha	93.525550
_cell_angle_beta	86.164750
_cell_angle_gamma	88.340626
loop_
_atom_site_label
_atom_site_type_symbol
_atom_site_fract_x
_atom_site_fract_y
_atom_site_fract_z
O1	O	1.263165	0.197434	-0.089196
O2	O	0.987198	0.190148	-0.089224
O3	O	1.132725	0.072467	-0.089208
O4	O	1.117638	0.315115	-0.089212
O5	O	1.121781	0.081333	0.089432
O6	O	0.976253	0.199014	0.089417
O7	O	1.252221	0.206300	0.089445
Cu8	Cu	1.113237	0.203467	0.105742
Cu9	Cu	1.126181	0.192981	-0.105521
O10	O	1.106693	0.323981	0.089429
C11	C	0.946411	0.191392	0.000093
C12	C	0.841186	0.181881	0.000082
C13	C	0.648523	0.164494	0.000104
C14	C	0.590890	0.231950	0.000107
C15	C	0.483686	0.222276	0.000119
C16	C	0.755737	0.174167	0.000092
C17	C	1.126629	0.045658	0.000110
C18	C	1.124760	-0.047432	0.000104
C19	C	1.118044	-0.385681	0.000107
C20	C	1.014426	-0.346008	-0.000304
C21	C	1.016272	-0.249158	0.000099
C22	C	1.121375	-0.217872	0.000105
C23	C	1.166245	-0.250068	0.102120
C24	C	1.163636	-0.346894	0.102206
C25	C	1.178223	-0.357175	-0.100942
C26	C	1.178281	-0.260298	-0.102290
C27	C	1.123263	-0.123033	0.000107
C28	C	1.116158	-0.480519	0.000111
C29	C	1.293007	0.205055	0.000125
C30	C	1.398233	0.214567	0.000129
C31	C	1.112789	0.350789	0.000108
C32	C	1.114659	0.443879	0.000108
N33	N	1.104141	0.210842	0.254333
N34	N	1.135285	0.185600	-0.254113
C35	C	1.090759	0.221698	0.473447
C36	C	1.148663	0.174747	0.526780
C37	C	1.141218	0.180787	0.648703
C38	C	1.098204	0.215658	0.351514
H39	H	0.617354	0.099482	0.000111
C40	C	0.632994	0.319781	0.000082
H41	H	0.700570	0.314847	0.000062
H42	H	0.608398	0.352442	0.062372
H43	H	0.616005	0.346233	-0.062228
C44	C	0.968027	-0.219714	-0.098680
H45	H	0.947117	-0.266972	-0.139415
H46	H	1.012436	-0.190446	-0.141841
H47	H	0.914740	-0.183571	-0.075717
C48	C	0.964508	-0.380135	-0.099122
H49	H	1.006407	-0.418888	-0.141014
H50	H	0.948020	-0.335068	-0.141134
H51	H	0.908303	-0.407524	-0.076178
H52	H	1.203829	0.130016	0.480873
H53	H	1.035599	0.266427	0.519349
C54	C	1.106957	-0.370271	0.205207
H55	H	1.085736	-0.320619	0.246602
H56	H	1.146804	-0.403054	0.245998
H57	H	1.053346	-0.401548	0.186561
H58	H	0.968729	-0.365072	0.072438
C59	C	1.266040	-0.382473	0.108485
H60	H	1.309049	-0.337742	0.110982
H61	H	1.282885	-0.419068	0.046975
H62	H	1.269363	-0.412548	0.171396
C63	C	0.955574	-0.210680	0.099054
H64	H	0.929698	-0.254247	0.139170
H65	H	0.905095	-0.176712	0.076309
H66	H	0.994496	-0.177352	0.142751
H67	H	1.243229	-0.229986	0.105919
H68	H	1.126089	-0.220570	0.178033
H69	H	1.149075	-0.384083	-0.178264
C70	C	1.134112	-0.232243	-0.204247
H71	H	1.081215	-0.194827	-0.184507
H72	H	1.113284	-0.279870	-0.244305
H73	H	1.180589	-0.204704	-0.246823
H74	H	1.255304	-0.239517	-0.108445
H75	H	1.254680	-0.383262	-0.101623
