data_functionalizedCrystal
_audit_creation_method	'MofGen! by Chris Wilmer'
_symmetry_space_group_name_H-M	'P1'
_symmetry_Int_Tables_number	1
_symmetry_cell_setting	triclinic
loop_
_symmetry_equiv_pos_as_xyz
  x,y,z
_cell_length_a	14.853567
_cell_length_b	14.853567
_cell_length_c	13.930277
_cell_angle_alpha	90.002109
_cell_angle_beta	90.001833
_cell_angle_gamma	96.365070
loop_
_atom_site_label
_atom_site_type_symbol
_atom_site_fract_x
_atom_site_fract_y
_atom_site_fract_z
O1	O	1.196366	-0.117700	0.079756
O2	O	1.696366	0.382300	0.579756
O3	O	0.933906	-0.131721	0.079772
O4	O	1.433906	0.368279	0.579772
O5	O	1.072147	0.006519	0.079767
O6	O	1.572147	0.506519	0.579767
O7	O	1.058125	-0.255941	0.079762
O8	O	1.558125	0.244059	0.579762
O9	O	1.072133	0.006515	-0.079895
O10	O	1.572133	0.506515	0.420105
O11	O	0.933892	-0.131725	-0.079890
O12	O	1.433892	0.368275	0.420110
O13	O	1.196352	-0.117704	-0.079905
O14	O	1.696352	0.382296	0.420095
Zn15	Zn	1.065120	-0.124715	-0.105247
Zn16	Zn	1.565120	0.375285	0.394753
Zn17	Zn	1.065138	-0.124710	0.105114
Zn18	Zn	1.565138	0.375290	0.605114
O19	O	1.058111	-0.255944	-0.079900
O20	O	1.558111	0.244056	0.420100
C21	C	0.900311	-0.131088	-0.000057
C22	C	1.400311	0.368912	0.499943
C23	C	0.800227	-0.129184	-0.000051
C24	C	1.300227	0.370816	0.499949
C25	C	0.387693	-0.039019	-0.000070
C26	C	0.887693	0.460981	0.499930
C27	C	0.366412	-0.203251	-0.000073
C28	C	0.866412	0.296749	0.499927
C29	C	0.460446	-0.205042	-0.000070
C30	C	0.960446	0.294958	0.499930
C31	C	0.518108	-0.123819	-0.000066
C32	C	1.018108	0.376181	0.499934
C33	C	0.481736	-0.040806	-0.000065
C34	C	0.981736	0.459194	0.499935
C35	C	0.496825	-0.288053	-0.000061
C36	C	0.996825	0.211947	0.499939
C37	C	0.590864	-0.289846	-0.000057
C38	C	1.090864	0.210154	0.499943
C39	C	0.648528	-0.208623	-0.000060
C40	C	1.148528	0.291377	0.499940
C41	C	0.612150	-0.125607	-0.000060
C42	C	1.112150	0.374393	0.499940
C43	C	0.669812	-0.044384	-0.000056
C44	C	1.169812	0.455616	0.499944
C45	C	0.633437	0.038633	-0.000063
C46	C	1.133437	0.538633	0.499937
C47	C	0.539399	0.040417	-0.000067
C48	C	1.039399	0.540417	0.499933
C49	C	0.742565	-0.210407	-0.000055
C50	C	1.242565	0.289593	0.499945
C51	C	0.763855	-0.046172	-0.000050
C52	C	1.263855	0.453828	0.499950
C53	C	1.071504	0.040106	-0.000061
C54	C	1.571504	0.540106	0.499939
C55	C	1.069601	0.140189	-0.000053
C56	C	1.569601	0.640189	0.499947
C57	C	1.229947	-0.118337	-0.000075
C58	C	1.729947	0.381663	0.499925
C59	C	1.330031	-0.120241	-0.000075
C60	C	1.830031	0.379759	0.499925
C61	C	1.058754	-0.289531	-0.000070
C62	C	1.558754	0.210469	0.499930
C63	C	1.060657	-0.389615	-0.000072
C64	C	1.560657	0.110385	0.499928
N65	N	1.065114	-0.124718	-0.248814
N66	N	1.565114	0.375282	0.251186
C67	C	0.979435	0.552723	-0.000066
C68	C	1.479435	1.052723	0.499934
C69	C	1.143668	0.574004	-0.000076
C70	C	1.643668	1.074004	0.499924
C71	C	1.145458	0.479971	-0.000070
C72	C	1.645458	0.979971	0.499930
C73	C	1.064235	0.422309	-0.000064
C74	C	1.564235	0.922309	0.499936
C75	C	0.981223	0.458680	-0.000063
C76	C	1.481223	0.958680	0.499937
C77	C	1.228469	0.443591	-0.000080
C78	C	1.728469	0.943591	0.499920
C79	C	1.230262	0.349552	-0.000076
C80	C	1.730262	0.849552	0.499924
C81	C	1.149039	0.291889	-0.000063
C82	C	1.649039	0.791889	0.499937
C83	C	1.066023	0.328266	-0.000061
C84	C	1.566023	0.828266	0.499939
C85	C	0.984800	0.270604	-0.000055
C86	C	1.484800	0.770604	0.499945
C87	C	0.901783	0.306979	-0.000047
C88	C	1.401783	0.806979	0.499953
C89	C	0.899999	0.401017	-0.000050
C90	C	1.399999	0.901017	0.499950
C91	C	1.150823	0.197851	-0.000059
C92	C	1.650823	0.697851	0.499941
C93	C	0.986588	0.176561	-0.000052
C94	C	1.486588	0.676561	0.499948
C95	C	1.003893	-0.185912	-0.299075
C96	C	1.503893	0.314088	0.200925
C97	C	1.126341	-0.063521	-0.299058
C98	C	1.626341	0.436479	0.200942
C99	C	1.126351	-0.063517	-0.399553
C100	C	1.626351	0.436483	0.100447
C101	C	1.065130	-0.124711	-0.449814
C102	C	1.565130	0.375289	0.050186
C103	C	1.003899	-0.185909	-0.399580
C104	C	1.503899	0.314091	0.100420
C105	C	1.187574	-0.002314	-0.449796
C106	C	1.687574	0.497686	0.050204
C107	C	1.187586	-0.002307	-0.550297
C108	C	1.687586	0.497693	-0.050297
C109	C	1.126368	-0.063506	-0.600560
C110	C	1.626368	0.436494	-0.100560
C111	C	1.065136	-0.124707	-0.550319
C112	C	1.565136	0.375293	-0.050319
C113	C	1.003914	-0.185901	-0.600580
C114	C	1.503914	0.314099	-0.100580
C115	C	0.942685	-0.247107	-0.550341
C116	C	1.442685	0.252893	-0.050341
C117	C	0.942681	-0.247108	-0.449842
C118	C	1.442681	0.252892	0.050158
C119	C	1.126372	-0.063506	-0.701059
C120	C	1.626372	0.436494	-0.201059
C121	C	1.003920	-0.185898	-0.701085
C122	C	1.503920	0.314102	-0.201085
N123	N	1.065151	-0.124700	0.248680
N124	N	1.565151	0.375300	0.748680
H125	H	0.509774	0.108005	-0.000096
H126	H	1.009774	0.608005	0.499904
F127	F	0.348980	0.049330	-0.000082
F128	F	0.848980	0.549330	0.499918
F129	F	0.877520	-0.312241	-0.396371
F130	F	1.377520	0.187759	0.103629
H131	H	1.237414	0.047513	-0.408870
H132	H	1.737414	0.547513	0.091130
F133	F	0.305043	-0.289689	-0.000065
F134	F	0.805043	0.210311	0.499935
F135	F	0.938735	-0.251053	-0.245609
F136	F	1.438735	0.248947	0.254391
H137	H	1.237442	0.047529	-0.591196
H138	H	1.737442	0.547529	-0.091196
F139	F	0.435454	-0.374489	-0.000051
F140	F	0.935454	0.125511	0.499949
H141	H	1.218414	0.168238	-0.000072
H142	H	1.718414	0.668238	0.499928
H143	H	1.176182	-0.013694	-0.258132
H144	H	1.676182	0.486306	0.241868
F145	F	1.230105	0.635374	-0.000096
F146	F	1.730105	1.135374	0.499904
H147	H	0.810798	0.019971	-0.000050
H148	H	1.310798	0.519971	0.499950
F149	F	0.938763	-0.251035	-0.754569
F150	F	1.438763	0.248965	-0.254569
H151	H	0.892835	-0.296928	-0.591275
H152	H	1.392835	0.203072	-0.091275
F153	F	1.314905	0.504963	-0.000105
F154	F	1.814905	1.004963	0.499895
F155	F	1.191527	0.001635	-0.754521
F156	F	1.691527	0.501635	-0.254521
H157	H	0.680397	0.104764	-0.000053
H158	H	1.180397	0.604764	0.499947
H159	H	0.620472	-0.357443	-0.000051
H160	H	1.120472	0.142557	0.499949
F161	F	0.900137	0.115200	-0.000039
F162	F	1.400137	0.615200	0.499961
F163	F	0.781275	-0.298753	-0.000040
F164	F	1.281275	0.201247	0.499960
H165	H	0.835652	0.260019	-0.000048
H166	H	1.335652	0.760019	0.499952
H167	H	0.832411	0.430643	-0.000044
H168	H	1.332411	0.930643	0.499956
F169	F	1.318615	0.310847	-0.000073
F170	F	1.818615	0.810847	0.499927
F171	F	0.891087	0.591436	-0.000049
F172	F	1.391087	1.091436	0.499951
