data_functionalizedCrystal
_audit_creation_method	'MofGen! by Chris Wilmer'
_symmetry_space_group_name_H-M	'P1'
_symmetry_Int_Tables_number	1
_symmetry_cell_setting	triclinic
loop_
_symmetry_equiv_pos_as_xyz
  x,y,z
_cell_length_a	27.732048
_cell_length_b	11.792241
_cell_length_c	26.210046
_cell_angle_alpha	89.969378
_cell_angle_beta	89.998705
_cell_angle_gamma	96.581965
loop_
_atom_site_label
_atom_site_type_symbol
_atom_site_fract_x
_atom_site_fract_y
_atom_site_fract_z
O1	O	0.641708	-0.135083	0.042364
O2	O	0.501034	-0.155616	0.042379
O3	O	0.574785	0.019930	0.042367
O4	O	0.567957	-0.310629	0.042375
O5	O	0.574783	0.020021	-0.042491
O6	O	0.501032	-0.155525	-0.042479
O7	O	0.641707	-0.134992	-0.042494
Cu8	Cu	0.571369	-0.145250	-0.050235
Cu9	Cu	0.571371	-0.145358	0.050120
O10	O	0.567956	-0.310538	-0.042483
C11	C	0.483024	-0.155139	-0.000048
C12	C	0.429361	-0.153842	-0.000042
N13	N	0.571371	-0.145173	-0.120819
C14	C	0.574355	0.062253	-0.000061
C15	C	0.573071	0.188226	-0.000061
C16	C	0.091101	-0.249407	-0.000062
C17	C	-0.110587	-0.244592	-0.000067
O18	O	-0.141335	-0.331980	-0.000087
N19	N	-0.130315	-0.140500	-0.000068
C20	C	-0.099617	-0.037605	-0.000072
O21	O	-0.121024	0.051042	-0.000079
C22	C	0.102070	-0.042422	-0.000071
C23	C	0.121794	-0.146520	-0.000064
C24	C	0.110826	-0.353497	-0.000056
C25	C	0.161245	-0.354700	-0.000052
C26	C	0.191939	-0.251813	-0.000054
C27	C	0.172213	-0.147723	-0.000060
C28	C	0.132766	0.060472	-0.000078
C29	C	0.183191	0.059259	-0.000080
C30	C	0.202915	-0.044840	-0.000073
C31	C	0.253326	-0.046038	-0.000059
N32	N	0.273054	-0.150130	-0.000057
C33	C	0.242360	-0.253017	-0.000055
C34	C	-0.205506	-0.035084	-0.000072
C35	C	-0.255927	-0.033879	-0.000071
C36	C	-0.266894	-0.240866	-0.000067
C37	C	-0.216471	-0.242070	-0.000064
C38	C	-0.185778	-0.139175	-0.000070
C39	C	0.348244	-0.255535	-0.000046
C40	C	0.398668	-0.256729	-0.000040
C41	C	0.409630	-0.049742	-0.000047
C42	C	0.359210	-0.048548	-0.000050
C43	C	0.328518	-0.151454	-0.000052
O44	O	0.284103	0.041303	-0.000044
O45	O	0.263777	-0.341651	-0.000059
C46	C	0.040682	-0.248204	-0.000066
C47	C	0.020957	-0.144115	-0.000072
C48	C	0.051650	-0.041227	-0.000074
C49	C	-0.029465	-0.142910	-0.000072
C50	C	-0.060159	-0.245797	-0.000069
C51	C	-0.040431	-0.349889	-0.000068
C52	C	0.009988	-0.351092	-0.000064
C53	C	0.031923	0.062864	-0.000076
C54	C	-0.018497	0.064059	-0.000079
C55	C	-0.049191	-0.038829	-0.000077
C56	C	0.659717	-0.135469	-0.000066
C57	C	0.713379	-0.136766	-0.000069
C58	C	0.568385	-0.352861	-0.000053
C59	C	0.569669	-0.478834	-0.000050
C60	C	0.570711	0.418862	-0.000052
C61	C	0.572023	0.290519	-0.000057
N62	N	0.571373	-0.145426	0.120703
C63	C	0.600812	-0.213791	0.526675
C64	C	0.600809	-0.213863	0.313016
O65	O	0.625852	-0.272098	0.285401
N66	N	0.571378	-0.145366	0.286287
C67	C	0.541948	-0.076840	0.312976
O68	O	0.516919	-0.018571	0.285339
C69	C	0.541954	-0.076762	0.526634
C70	C	0.571383	-0.145273	0.553360
C71	C	0.630239	-0.282295	0.553401
C72	C	0.630238	-0.282281	0.606813
C73	C	0.600809	-0.213763	0.633498
C74	C	0.571382	-0.145259	0.606771
C75	C	0.512527	-0.008231	0.553321
C76	C	0.512532	-0.008215	0.606739
C77	C	0.541961	-0.076726	0.633465
C78	C	0.541952	-0.076727	0.686868
N79	N	0.571383	-0.145224	0.713597
C80	C	0.600811	-0.213742	0.686912
C81	C	0.541947	-0.076887	0.200803
C82	C	0.541944	-0.076907	0.147388
C83	C	0.600806	-0.213929	0.147433
C84	C	0.600805	-0.213914	0.200848
C85	C	0.571378	-0.145384	0.227532
C86	C	0.600806	-0.213708	0.799080
C87	C	0.600800	-0.213692	0.852496
C88	C	0.541940	-0.076665	0.852447
C89	C	0.541944	-0.076686	0.799036
C90	C	0.571380	-0.145211	0.772353
O91	O	0.516926	-0.018512	0.714516
O92	O	0.625845	-0.271983	0.714559
C93	C	0.600814	-0.213805	0.473264
C94	C	0.571386	-0.145301	0.446537
C95	C	0.541958	-0.076783	0.473222
C96	C	0.571384	-0.145322	0.393123
C97	C	0.600813	-0.213840	0.366438
C98	C	0.630244	-0.282337	0.393167
C99	C	0.630242	-0.282323	0.446579
C100	C	0.512527	-0.008285	0.446493
C101	C	0.512530	-0.008306	0.393081
C102	C	0.541959	-0.076824	0.366396
H103	H	0.323260	-0.339331	-0.000049
C104	C	0.480149	0.067082	0.475840
C105	C	0.487033	0.197497	0.468452
C106	C	0.454649	0.272863	0.497796
C107	C	0.415381	0.217815	0.534529
C108	C	0.408495	0.087394	0.541918
C109	C	0.440879	0.012027	0.512574
H110	H	0.516103	0.238253	0.441259
H111	H	0.459746	0.369410	0.492326
H112	H	0.391408	0.273606	0.556251
H113	H	0.379425	0.046637	0.569111
H114	H	0.435781	-0.084520	0.518045
C115	C	0.633184	-0.289287	0.118073
C116	C	0.633183	-0.289289	0.059319
C117	C	0.665564	-0.364631	0.029957
C118	C	0.697946	-0.439972	0.059348
C119	C	0.697948	-0.439973	0.118105
C120	C	0.665568	-0.364631	0.147467
H121	H	0.609211	-0.233515	0.037559
H122	H	0.665562	-0.364630	-0.013539
H123	H	0.721916	-0.495745	0.037612
H124	H	0.721921	-0.495747	0.139865
H125	H	0.665570	-0.364632	0.190963
C126	C	0.662614	-0.357678	0.524056
C127	C	0.718062	-0.340308	0.531402
C128	C	0.750436	-0.415705	0.502061
C129	C	0.727362	-0.508471	0.465375
C130	C	0.671910	-0.525846	0.458028
C131	C	0.639536	-0.450449	0.487368
H132	H	0.735146	-0.271633	0.558560
H133	H	0.791485	-0.402843	0.507501
H134	H	0.751327	-0.564285	0.443656
H135	H	0.654827	-0.594521	0.430869
H136	H	0.598488	-0.463311	0.481929
H137	H	0.654207	-0.338112	0.468334
H138	H	0.517974	-0.021133	0.125632
H139	H	-0.065431	-0.433663	-0.000064
H140	H	-0.271982	0.050888	-0.000068
C141	C	0.111080	0.174987	-0.000091
C142	C	0.077935	0.204331	-0.044161
C143	C	0.056251	0.318855	-0.044174
C144	C	0.067713	0.404034	-0.000119
C145	C	0.100860	0.374693	0.043955
C146	C	0.122544	0.260169	0.043969
H147	H	0.069448	0.141274	-0.076776
H148	H	0.031713	0.340575	-0.076801
H149	H	0.051661	0.488812	-0.000129
H150	H	0.109347	0.437750	0.076570
H151	H	0.147082	0.238449	0.076595
C152	C	0.633182	-0.289095	0.769735
C153	C	0.610105	-0.381852	0.733046
C154	C	0.642478	-0.457247	0.703702
C155	C	0.697926	-0.439884	0.711048
C156	C	0.721005	-0.347123	0.747739
C157	C	0.688633	-0.271728	0.777083
H158	H	0.569057	-0.394709	0.727607
H159	H	0.625393	-0.525915	0.676541
H160	H	0.721890	-0.495696	0.689326
H161	H	0.762054	-0.334266	0.753178
H162	H	0.705718	-0.203060	0.804244
H163	H	0.488563	0.047559	0.531570
H164	H	-0.200415	-0.326836	-0.000061
C165	C	-0.171748	0.078111	-0.000073
C166	C	-0.174159	0.163711	-0.044136
C167	C	-0.140405	0.276907	-0.044133
C168	C	-0.104238	0.304504	-0.000068
C169	C	-0.101825	0.218902	0.043998
C170	C	-0.135580	0.105706	0.043996
H171	H	-0.200933	0.143285	-0.076758
H172	H	-0.142191	0.340275	-0.076754
H173	H	-0.079251	0.388298	-0.000067
H174	H	-0.075051	0.239328	0.076620
H175	H	-0.133793	0.042338	0.076616
C176	C	0.633181	-0.289268	0.230244
C177	C	0.610111	-0.382000	0.266995
C178	C	0.642489	-0.457355	0.296388
C179	C	0.697937	-0.439979	0.289030
C180	C	0.721010	-0.347244	0.252277
C181	C	0.688632	-0.271888	0.222884
H182	H	0.569062	-0.394866	0.272443
H183	H	0.625409	-0.526004	0.323595
H184	H	0.721906	-0.495762	0.310788
H185	H	0.762059	-0.334377	0.246829
H186	H	0.705713	-0.203239	0.195678
C187	C	0.633175	-0.289053	0.881895
C188	C	0.610101	-0.381789	0.918641
C189	C	0.642476	-0.457146	0.948038
C190	C	0.697925	-0.439767	0.940688
C191	C	0.721002	-0.347027	0.903940
C192	C	0.688627	-0.271670	0.874543
H193	H	0.569052	-0.394658	0.924083
H194	H	0.625393	-0.525799	0.975241
H195	H	0.721891	-0.495551	0.962449
H196	H	0.762052	-0.334158	0.898498
H197	H	0.705711	-0.203018	0.847340
C198	C	0.509568	-0.001508	0.230150
C199	C	0.516452	0.128905	0.222757
C200	C	0.484071	0.204278	0.252100
C201	C	0.444805	0.149238	0.288836
C202	C	0.437919	0.018818	0.296231
C203	C	0.470300	-0.056555	0.266888
H204	H	0.545521	0.169655	0.195561
H205	H	0.489168	0.300824	0.246626
H206	H	0.420834	0.205034	0.310558
H207	H	0.408850	-0.021932	0.323427
H208	H	0.465202	-0.153101	0.272362
H209	H	0.654204	-0.338064	0.628569
H210	H	0.488568	0.047592	0.628462
H211	H	0.517974	-0.020914	0.777274
H212	H	0.517979	-0.020883	0.874184
H213	H	0.488561	0.047481	0.371325
C214	C	0.420363	-0.371244	-0.000035
C215	C	0.408910	-0.456406	-0.044100
C216	C	0.430603	-0.570918	-0.044096
C217	C	0.463749	-0.600268	-0.000028
C218	C	0.475205	-0.515104	0.044039
C219	C	0.453511	-0.400592	0.044036
H220	H	0.384371	-0.434681	-0.076724
H221	H	0.422123	-0.633962	-0.076718
H222	H	0.479808	-0.685036	-0.000026
H223	H	0.499743	-0.536829	0.076664
H224	H	0.461992	-0.337549	0.076658
C225	C	0.182934	-0.469215	-0.000054
C226	C	0.171470	-0.554363	-0.044121
C227	C	0.193154	-0.668887	-0.044126
C228	C	0.226302	-0.698262	-0.000064
C229	C	0.237768	-0.613112	0.044007
C230	C	0.216084	-0.498589	0.044012
H231	H	0.146931	-0.532619	-0.076742
H232	H	0.184666	-0.731920	-0.076751
H233	H	0.242354	-0.783040	-0.000068
H234	H	0.262307	-0.634856	0.076627
H235	H	0.224572	-0.435555	0.076636
C236	C	0.337508	0.065956	-0.000056
C237	C	0.348974	0.151209	-0.044125
C238	C	0.327275	0.265713	-0.044138
C239	C	0.294109	0.294965	-0.000082
C240	C	0.282641	0.209709	0.043990
C241	C	0.304340	0.095205	0.044003
H242	H	0.373527	0.129557	-0.076741
H243	H	0.335765	0.328825	-0.076764
H244	H	0.278046	0.379727	-0.000092
H245	H	0.258089	0.231361	0.076606
H246	H	0.295851	0.032094	0.076628
H247	H	0.085840	-0.437285	-0.000056
H248	H	0.654203	-0.338133	0.371431
H249	H	0.208179	0.143050	-0.000085
H250	H	-0.291893	-0.324641	-0.000065
H251	H	0.056909	0.146649	-0.000079
H252	H	0.434629	0.034026	-0.000047
H253	H	0.026043	-0.435859	-0.000059
H254	H	-0.034551	0.148834	-0.000081
