data_functionalizedCrystal
_audit_creation_method	'MofGen! by Chris Wilmer'
_symmetry_space_group_name_H-M	'P1'
_symmetry_Int_Tables_number	1
_symmetry_cell_setting	triclinic
loop_
_symmetry_equiv_pos_as_xyz
  x,y,z
_cell_length_a	14.044220
_cell_length_b	19.288865
_cell_length_c	18.366186
_cell_angle_alpha	90.004920
_cell_angle_beta	90.002290
_cell_angle_gamma	88.162562
loop_
_atom_site_label
_atom_site_type_symbol
_atom_site_fract_x
_atom_site_fract_y
_atom_site_fract_z
O1	O	0.118208	0.928946	0.060527
O2	O	0.134155	0.727710	0.060534
O3	O	-0.011790	0.825307	0.060523
O4	O	0.264153	0.831348	0.060537
O5	O	-0.011785	0.825294	-0.060576
O6	O	0.134160	0.727696	-0.060566
O7	O	0.118213	0.928932	-0.060573
Zn8	Zn	0.126188	0.828312	-0.079796
Zn9	Zn	0.126181	0.828330	0.079757
O10	O	0.264159	0.831335	-0.060562
C11	C	-0.047091	0.822656	-0.000027
C12	C	-0.152283	0.814768	-0.000027
C13	C	0.133645	0.701793	-0.000015
C14	C	0.132104	0.624591	-0.000013
C15	C	0.118724	0.954848	-0.000022
C16	C	0.120264	1.032051	-0.000020
C17	C	-0.344882	0.800348	-0.000016
C18	C	-0.402755	0.856291	-0.000016
C19	C	-0.509924	0.848267	-0.000010
C20	C	-0.237703	0.808370	-0.000022
C21	C	0.299459	0.833986	-0.000011
C22	C	0.404651	0.841874	-0.000005
N23	N	0.126192	0.828305	-0.188687
C24	C	0.034630	1.071245	-0.000018
C25	C	0.036077	1.143785	-0.000022
C26	C	0.123163	1.177128	-0.000014
C27	C	0.208809	1.137925	-0.000020
C28	C	0.207359	1.065386	-0.000023
C29	C	0.191621	1.289808	0.042420
C30	C	0.193067	1.362346	0.042428
C31	C	0.127638	1.400861	-0.000007
C32	C	0.060746	1.366831	-0.042441
C33	C	0.059297	1.294292	-0.042444
C34	C	0.124745	1.255784	-0.000011
C35	C	0.043567	1.518712	-0.000011
C36	C	0.045018	1.591253	-0.000020
C37	C	0.217751	1.585391	-0.000010
C38	C	0.216298	1.512851	-0.000009
C39	C	0.129203	1.479516	-0.000006
C40	C	0.183489	0.874017	-0.773236
C41	C	0.183498	0.874011	-0.697008
C42	C	0.126170	0.828336	-0.658899
C43	C	0.068847	0.782651	-0.697024
C44	C	0.068847	0.782654	-0.773250
C45	C	0.040732	0.821119	-0.538137
C46	C	0.040731	0.821121	-0.461912
C47	C	0.126173	0.828322	-0.423791
C48	C	0.211618	0.835536	-0.461905
C49	C	0.211618	0.835539	-0.538131
C50	C	0.126165	0.828327	-0.576244
C51	C	0.183507	0.873993	-0.303020
C52	C	0.183519	0.873981	-0.226791
C53	C	0.068859	0.782625	-0.226809
C54	C	0.068857	0.782633	-0.303037
C55	C	0.126179	0.828321	-0.341138
N56	N	0.126170	0.828342	0.188648
H57	H	-0.371814	0.910212	0.000031
H58	H	-0.375822	0.746431	-0.000013
H59	H	-0.036289	1.044108	-0.000018
H60	H	-0.033658	1.175703	-0.000018
Br61	Br	-0.008934	0.720629	-0.175098
H62	H	0.022169	0.745459	-0.804284
H63	H	0.004833	1.266588	-0.076997
Br64	Br	-0.008948	0.720658	-0.645307
H65	H	0.007463	1.398189	-0.076992
Br66	Br	-0.074630	1.473467	-0.000022
H67	H	-0.024719	1.623164	-0.000023
H68	H	0.286031	1.480939	-0.000006
Br69	Br	0.335942	1.630634	-0.000014
H70	H	0.247527	1.390048	0.076986
Br71	Br	-0.008941	0.720643	-0.354769
Br72	Br	0.280435	1.237544	0.100009
H73	H	0.279715	1.165077	-0.000015
H74	H	0.277095	1.033474	-0.000025
Br75	Br	0.261290	0.936017	-0.824941
H76	H	0.230179	0.911205	-0.665968
Br77	Br	0.261343	0.935958	-0.175060
Br78	Br	0.327573	0.845325	-0.589856
H79	H	0.281193	0.841400	-0.430869
Br80	Br	0.261302	0.935994	-0.354734
H81	H	-0.028844	0.815252	-0.430885
Br82	Br	-0.075236	0.811345	-0.589864
