data_functionalizedCrystal
_audit_creation_method	'MofGen! by Chris Wilmer'
_symmetry_space_group_name_H-M	'P1'
_symmetry_Int_Tables_number	1
_symmetry_cell_setting	triclinic
loop_
_symmetry_equiv_pos_as_xyz
  x,y,z
_cell_length_a	13.635800
_cell_length_b	27.923496
_cell_length_c	23.752930
_cell_angle_alpha	82.638272
_cell_angle_beta	100.066047
_cell_angle_gamma	81.036054
loop_
_atom_site_label
_atom_site_type_symbol
_atom_site_fract_x
_atom_site_fract_y
_atom_site_fract_z
V1	V	1.983197	-0.067766	0.178758
O2	O	1.988945	0.002598	0.174983
O3	O	1.948181	-0.133736	0.177894
O4	O	1.950842	-0.067013	0.256557
O5	O	1.986266	-0.064587	0.095775
V6	V	2.227469	-0.059316	0.168789
O7	O	2.108319	-0.086303	0.200626
O8	O	2.327446	-0.040779	0.146921
O9	O	2.150881	0.006654	0.169654
O10	O	2.280419	-0.129680	0.172564
O11	O	2.283098	-0.062495	0.251773
O12	O	2.148221	-0.060069	0.090990
V13	V	2.483197	-0.067766	0.178758
O14	O	2.488945	0.002598	0.174983
O15	O	2.448181	-0.133736	0.177894
O16	O	2.450842	-0.067013	0.256557
O17	O	2.486266	-0.064587	0.095775
V18	V	2.727469	-0.059316	0.168789
O19	O	2.608319	-0.086303	0.200626
O20	O	2.827446	-0.040779	0.146921
O21	O	2.650881	0.006654	0.169654
O22	O	2.780419	-0.129680	0.172564
O23	O	2.783098	-0.062495	0.251773
O24	O	2.648221	-0.060069	0.090990
C25	C	1.868314	-0.149809	0.175166
C26	C	1.880274	-0.203742	0.174978
C27	C	2.044904	-0.540677	0.176740
C28	C	2.089914	-0.743383	0.176059
O29	O	2.172572	-0.771708	0.178436
N30	N	2.005198	-0.766247	0.173103
C31	C	1.909223	-0.738432	0.170321
O32	O	1.838200	-0.762532	0.167797
C33	C	1.864215	-0.535727	0.171006
C34	C	1.948936	-0.512865	0.173957
C35	C	2.129618	-0.517814	0.179691
C36	C	2.118365	-0.467140	0.179858
C37	C	2.022397	-0.439328	0.177074
C38	C	1.937683	-0.462191	0.174124
C39	C	1.768242	-0.507913	0.168228
C40	C	1.756998	-0.457234	0.168401
C41	C	1.841719	-0.434372	0.171352
C42	C	1.830461	-0.383705	0.171507
N43	N	1.915178	-0.360841	0.174463
C44	C	2.011146	-0.388653	0.177247
C45	C	1.932858	-0.844855	0.169961
C46	C	1.944110	-0.895531	0.169788
C47	C	2.124801	-0.900479	0.175527
C48	C	2.113548	-0.849801	0.175696
C49	C	2.017575	-0.821991	0.172917
C50	C	1.987505	-0.282233	0.177597
C51	C	1.976242	-0.231554	0.177761
C52	C	1.795553	-0.226611	0.172025
C53	C	1.806814	-0.277286	0.171858
C54	C	1.902798	-0.305096	0.174646
O55	O	1.747839	-0.355351	0.169139
O56	O	2.082158	-0.364546	0.179783
C57	C	2.056158	-0.591351	0.176573
C58	C	1.971443	-0.614213	0.173623
C59	C	1.875476	-0.586401	0.170839
C60	C	1.982695	-0.664889	0.173450
C61	C	2.078663	-0.692701	0.176234
C62	C	2.163379	-0.669836	0.179190
C63	C	2.152126	-0.619162	0.179357
C64	C	1.790759	-0.609266	0.167883
C65	C	1.802020	-0.659940	0.167715
C66	C	1.897988	-0.687751	0.170499
C67	C	1.871708	-0.064696	0.275509
C68	C	1.885824	-0.064517	0.339112
C69	C	2.062419	0.022725	0.172380
C70	C	2.040078	0.076657	0.172572
C71	C	2.059026	-0.062388	0.072036
C72	C	2.034529	-0.062565	0.008431
C73	C	2.368314	-0.149809	0.175166
C74	C	2.380274	-0.203742	0.174978
C75	C	2.371708	-0.064696	0.275509
C76	C	2.385824	-0.064517	0.339112
C77	C	2.063803	-0.065790	0.736444
C78	C	2.077079	-0.065615	0.796205
O79	O	2.160773	-0.067576	0.829600
N80	N	1.993374	-0.063098	0.823168
C81	C	1.896384	-0.060752	0.790365
O82	O	1.826405	-0.058594	0.818786
C83	C	1.883108	-0.060923	0.730604
C84	C	1.966822	-0.063445	0.703645
C85	C	2.147509	-0.068311	0.709485
C86	C	2.134233	-0.068487	0.649728
C87	C	2.037252	-0.066142	0.616929
C88	C	1.953546	-0.063621	0.643888
C89	C	1.786119	-0.058573	0.697801
C90	C	1.772850	-0.058745	0.638036
C91	C	1.856563	-0.061266	0.611078
C92	C	1.843289	-0.061452	0.551332
N93	N	1.926995	-0.063969	0.524370
C94	C	2.023976	-0.066314	0.557168
C95	C	1.924271	-0.060390	0.915867
C96	C	1.937547	-0.060222	0.975628
C97	C	2.118241	-0.065085	0.981464
C98	C	2.104965	-0.065256	0.921703
C99	C	2.007976	-0.062907	0.888905
C100	C	1.996090	-0.066684	0.431673
C101	C	1.982806	-0.066862	0.371911
C102	C	1.802113	-0.061997	0.366080
C103	C	1.815396	-0.061821	0.425837
C104	C	1.912392	-0.064163	0.458633
O105	O	1.759626	-0.059490	0.517901
O106	O	2.093939	-0.068464	0.528738
C107	C	2.562419	0.022725	0.172380
C108	C	2.540078	0.076657	0.172572
C109	C	2.559026	-0.062388	0.072036
C110	C	2.534529	-0.062565	0.008431
C111	C	2.476242	-0.231554	0.177761
C112	C	2.487496	-0.282231	0.177593
C113	C	2.402779	-0.305096	0.174637
C114	C	2.306804	-0.277281	0.171855
C115	C	2.295553	-0.226605	0.172027
C116	C	2.482806	-0.066862	0.371911
C117	C	2.496082	-0.066687	0.431672
C118	C	2.412377	-0.064170	0.458635
C119	C	2.315387	-0.061823	0.425832
C120	C	2.302111	-0.061995	0.366071
C121	C	2.616603	0.104469	0.169790
C122	C	2.595621	0.155146	0.169961
C123	C	2.498115	0.178010	0.172918
C124	C	2.421583	0.150195	0.175699
C125	C	2.442564	0.099519	0.175523
C126	C	2.436003	-0.065076	-0.018517
C127	C	2.412970	-0.065237	-0.078280
C128	C	2.488464	-0.062890	-0.111094
C129	C	2.586998	-0.060377	-0.084143
C130	C	2.610028	-0.060212	-0.024381
H131	H	2.045236	-0.212942	0.180162
H132	H	2.565650	-0.304872	0.179857
H133	H	2.423201	-0.064031	0.507297
C134	C	2.569437	-0.206411	0.181016
H135	H	2.549004	-0.172245	0.180716
H136	H	2.616949	-0.220287	0.215712
H137	H	2.599849	-0.211185	0.148619
C138	C	2.213621	-0.302433	0.168598
H139	H	2.154848	-0.278615	0.166967
H140	H	2.205715	-0.317547	0.134866
H141	H	2.222809	-0.326651	0.201959
C142	C	2.304590	-0.068010	-0.107917
H143	H	2.301674	-0.067768	-0.148210
H144	H	2.286452	-0.097428	-0.091537
H145	H	2.258782	-0.040539	-0.102295
H146	H	2.648458	-0.058464	-0.110869
H147	H	2.342192	0.168819	0.178106
C148	C	2.226318	-0.071252	0.620079
H149	H	2.285970	-0.072617	0.648177
H150	H	2.232513	-0.099861	0.602269
H151	H	2.217289	-0.042972	0.591506
C152	C	2.189981	-0.196015	0.168955
H153	H	2.141144	-0.216893	0.167164
H154	H	2.190371	-0.180691	0.202444
H155	H	2.173285	-0.171596	0.135351
H156	H	2.550975	-0.068912	0.349966
C157	C	2.254196	-0.070896	0.745555
H158	H	2.302137	-0.072425	0.720933
H159	H	2.255548	-0.042490	0.763610
H160	H	2.270734	-0.099378	0.774370
H161	H	2.696005	0.085859	0.167382
H162	H	2.380245	0.076878	0.177794
H163	H	2.065663	-0.304871	0.179868
H164	H	2.469701	-0.063030	-0.159755
H165	H	2.247239	-0.059774	0.447794
C166	C	2.211564	-0.442000	0.183117
H167	H	2.270327	-0.465828	0.184758
H168	H	2.202397	-0.417782	0.149762
H169	H	2.219481	-0.426889	0.216855
C170	C	2.235189	-0.548399	0.182749
H171	H	2.284019	-0.527517	0.184526
H172	H	2.251906	-0.572823	0.216343
H173	H	2.234778	-0.563716	0.149249
C174	C	2.718411	-0.057457	0.005260
H175	H	2.721326	-0.057692	0.045551
H176	H	2.764202	-0.084929	-0.000365
H177	H	2.736567	-0.028040	-0.011119
C178	C	2.206742	-0.824658	0.178943
H179	H	2.265505	-0.848484	0.180578
H180	H	2.197557	-0.800441	0.145586
H181	H	2.214670	-0.809545	0.212679
C182	C	2.415168	-0.360838	0.174446
H183	H	2.484459	-0.374123	0.176522
H184	H	2.392903	-0.375943	0.206891
H185	H	2.375798	-0.366837	0.139797
C186	C	2.195432	-0.059427	0.329998
H187	H	2.199502	-0.059889	0.290544
H188	H	2.168107	-0.086846	0.343985
H189	H	2.152875	-0.029956	0.333208
C190	C	2.230368	-0.931079	0.178600
H191	H	2.224928	-0.964534	0.178081
H192	H	2.257114	-0.919248	0.146268
H193	H	2.274185	-0.928342	0.213360
C194	C	2.602774	-0.069276	0.467747
H195	H	2.650721	-0.070809	0.443128
H196	H	2.604126	-0.040870	0.485800
H197	H	2.619304	-0.097758	0.496563
H198	H	2.657949	0.177785	0.167697
H199	H	2.481044	0.219273	0.173060
H200	H	2.374519	-0.066987	0.008193
C201	C	1.694011	-0.055728	0.727429
H202	H	1.634351	-0.054330	0.699324
H203	H	1.702931	-0.083977	0.756028
H204	H	1.687906	-0.027094	0.745202
C205	C	1.850914	-0.920674	0.166537
H206	H	1.792153	-0.896848	0.164910
H207	H	1.842986	-0.935790	0.132808
H208	H	1.860101	-0.944888	0.199901
H209	H	1.699249	-0.526518	0.165822
C210	C	1.827282	-0.814269	0.166897
H211	H	1.778446	-0.835147	0.165106
H212	H	1.827676	-0.798946	0.200387
H213	H	1.810581	-0.789848	0.133294
H214	H	1.678845	-0.434594	0.166141
H215	H	1.737827	-0.295901	0.169459
H216	H	1.717415	-0.203958	0.169756
H217	H	2.241520	-0.692489	0.181451
C218	C	1.708820	-0.685084	0.164464
H219	H	1.729255	-0.719249	0.164758
H220	H	1.678407	-0.680308	0.196857
H221	H	1.661304	-0.671211	0.129763
C222	C	1.685189	-0.578679	0.164816
H223	H	1.636354	-0.599557	0.163027
H224	H	1.685581	-0.563353	0.198304
H225	H	1.668490	-0.554261	0.131211
H226	H	2.197210	-0.066994	1.008180
C227	C	2.102783	-0.069269	0.467742
H228	H	2.150727	-0.070802	0.443121
H229	H	2.104137	-0.040863	0.485795
H230	H	2.119316	-0.097751	0.496557
H231	H	1.869379	-0.058176	0.997574
C232	C	1.666163	-0.056163	0.601959
H233	H	1.670238	-0.056625	0.562505
H234	H	1.638818	-0.083576	0.615941
H235	H	1.623619	-0.026688	0.605168
H236	H	1.723151	-0.060089	0.339365
C237	C	1.817581	-0.057816	0.879796
H238	H	1.769639	-0.056297	0.904418
H239	H	1.801031	-0.029341	0.850976
H240	H	1.816252	-0.086230	0.861749
H241	H	2.221116	-0.600553	0.181759
H242	H	1.747231	-0.059773	0.447789
H243	H	2.050980	-0.068917	0.349965
H244	H	2.173133	-0.067310	0.899758
