data_functionalizedCrystal
_audit_creation_method	'MofGen! by Chris Wilmer'
_symmetry_space_group_name_H-M	'P1'
_symmetry_Int_Tables_number	1
_symmetry_cell_setting	triclinic
loop_
_symmetry_equiv_pos_as_xyz
  x,y,z
_cell_length_a	6.817900
_cell_length_b	7.076105
_cell_length_c	19.263245
_cell_angle_alpha	86.462026
_cell_angle_beta	98.567808
_cell_angle_gamma	62.298168
loop_
_atom_site_label
_atom_site_type_symbol
_atom_site_fract_x
_atom_site_fract_y
_atom_site_fract_z
V1	V	4.176074	-0.666007	0.096083
O2	O	4.185293	-0.652293	-0.005747
O3	O	4.102960	-0.662448	0.191602
O4	O	4.203564	-0.956021	0.094109
O5	O	4.083992	-0.356688	0.092421
V6	V	4.653070	-0.628889	0.083961
O7	O	4.451648	-0.747428	0.122672
O8	O	4.827693	-0.547467	0.057372
O9	O	4.502977	-0.632448	-0.011558
O10	O	4.761248	-0.642602	0.185791
O11	O	4.862549	-0.938208	0.087623
O12	O	4.402373	-0.338875	0.085935
C13	C	4.329784	-0.642692	-0.034856
C14	C	4.287012	-0.643682	-0.112940
C15	C	4.074777	-0.026677	0.090537
C16	C	4.201469	-0.268218	0.089518
C17	C	4.152287	-0.640050	-0.673896
C18	C	4.192502	-0.639135	-0.600527
C19	C	4.041900	-0.649347	-0.560278
C20	C	3.851098	-0.660532	-0.593400
C21	C	3.810902	-0.661469	-0.666767
N22	N	3.910447	-0.533803	-0.448498
N23	N	3.948641	-0.532907	-0.378803
C24	C	4.163002	-0.646529	-0.339227
N25	N	4.337740	-0.761052	-0.371981
N26	N	4.299542	-0.761938	-0.441683
C27	C	4.085468	-0.648334	-0.480723
C28	C	4.397401	-0.634368	-0.226556
C29	C	4.437616	-0.633466	-0.153185
C30	C	4.096195	-0.654842	-0.146061
C31	C	4.055998	-0.655765	-0.219430
C32	C	4.206603	-0.645517	-0.259674
C33	C	3.939493	-0.652198	0.214903
C34	C	3.961507	-0.651222	0.292989
H35	H	4.274934	-0.631720	-0.706658
H36	H	3.728482	-0.668853	-0.560624
H37	H	4.347863	-0.630037	-0.573560
H38	H	3.655544	-0.670568	-0.693728
H39	H	4.520031	-0.626021	-0.259325
H40	H	4.592983	-0.624383	-0.126224
H41	H	3.973578	-0.663170	-0.113289
H42	H	3.900637	-0.664848	-0.246393
