data_functionalizedCrystal
_audit_creation_method	'MofGen! by Chris Wilmer'
_symmetry_space_group_name_H-M	'P1'
_symmetry_Int_Tables_number	1
_symmetry_cell_setting	triclinic
loop_
_symmetry_equiv_pos_as_xyz
  x,y,z
_cell_length_a	21.883469
_cell_length_b	21.882911
_cell_length_c	21.879399
_cell_angle_alpha	60.006540
_cell_angle_beta	60.013207
_cell_angle_gamma	59.992231
loop_
_atom_site_label
_atom_site_type_symbol
_atom_site_fract_x
_atom_site_fract_y
_atom_site_fract_z
O1	O	0.084645	-0.892842	0.746620
O2	O	0.031867	-0.695139	0.601571
O3	O	0.157054	-0.820237	0.601476
O4	O	-0.040542	-0.767744	0.746716
O5	O	0.198586	-0.778715	0.642912
O6	O	0.073399	-0.653617	0.643007
O7	O	0.126177	-0.851320	0.788056
Cu8	Cu	0.103580	-0.748677	0.719315
Cu9	Cu	0.054464	-0.797782	0.670313
O10	O	0.000990	-0.726222	0.788151
N11	N	0.138128	-0.714145	0.753785
N12	N	0.019923	-0.832320	0.635843
C13	C	0.190018	-0.547369	0.805644
C14	C	0.190029	-0.662289	0.805630
C15	C	0.218780	-0.633565	0.834353
C16	C	0.344122	-0.611968	0.768360
C17	C	0.422474	-0.638085	0.742222
C18	C	0.422504	-0.764859	0.790561
C19	C	0.344154	-0.738739	0.816702
C20	C	0.208899	-0.508180	0.728617
C21	C	0.182748	-0.429822	0.702522
C22	C	0.118843	-0.429847	0.830485
C23	C	0.144993	-0.508205	0.856580
C24	C	0.112994	-0.643364	0.824587
C25	C	0.086865	-0.669476	0.798467
C26	C	0.214799	-0.733437	0.734451
C27	C	0.240932	-0.707325	0.760562
C28	C	0.113084	-0.643389	0.959747
C29	C	0.087018	-0.669524	1.038102
C30	C	0.214996	-0.733501	1.038048
C31	C	0.241061	-0.707367	0.959690
C32	C	0.190103	-0.662308	0.920542
C33	C	0.304966	-0.662293	0.805598
C34	C	-0.117460	-0.854702	0.612901
C35	C	-0.002405	-0.854864	0.498145
C36	C	-0.002621	-0.969735	0.613108
C37	C	-0.002603	-0.854858	0.613180
C38	C	-0.031272	-0.883541	0.584334
N39	N	0.460550	-0.714150	0.753681
O40	O	0.699805	-0.721060	0.574973
O41	O	0.700047	-0.866553	0.772482
O42	O	0.699952	-0.866219	0.647213
O43	O	0.699900	-0.721394	0.700242
O44	O	0.575478	-0.824800	0.688791
O45	O	0.575573	-0.825134	0.814060
O46	O	0.575331	-0.679641	0.616551
Cu47	Cu	0.564087	-0.748606	0.719102
Cu48	Cu	0.711292	-0.797588	0.669931
O49	O	0.575426	-0.679975	0.741820
N50	N	0.814828	-0.832044	0.635345
N51	N	0.138106	-0.391772	0.753815
O52	O	-0.040520	-0.152377	0.746758
O53	O	0.156993	-0.152371	0.601281
O54	O	0.031698	-0.152390	0.601639
O55	O	0.084775	-0.152358	0.746401
O56	O	0.073234	-0.276876	0.643130
O57	O	0.198529	-0.276856	0.642772
O58	O	0.001015	-0.276863	0.788249
Cu59	Cu	0.103564	-0.288226	0.719299
Cu60	Cu	0.054444	-0.141007	0.670231
O61	O	0.126310	-0.276844	0.787892
N62	N	0.019892	-0.037461	0.635717
N63	N	0.138332	-0.714192	1.076133
O64	O	0.131293	-0.892804	1.315506
O65	O	-0.014162	-0.695219	1.315533
O66	O	-0.013826	-0.820490	1.315480
O67	O	0.130957	-0.767533	1.315559
O68	O	0.027651	-0.778981	1.191001
O69	O	0.027314	-0.653710	1.191054
O70	O	0.172770	-0.851295	1.191026
Cu71	Cu	0.103829	-0.748713	1.179674
Cu72	Cu	0.054778	-0.797802	1.326885
O73	O	0.172434	-0.726024	1.191079
N74	N	0.020275	-0.832331	1.430426
C75	C	0.047687	-0.649466	0.602306
C76	C	0.202716	-0.804385	0.602188
C77	C	0.110357	-0.896993	0.787321
C78	C	-0.044672	-0.742074	0.787439
C79	C	0.637839	-0.865879	0.818154
C80	C	0.637724	-0.865466	0.663023
C81	C	0.637536	-0.680313	0.570880
C82	C	0.637655	-0.680728	0.726010
C83	C	0.202592	-0.214459	0.601942
C84	C	0.047481	-0.214636	0.602435
C85	C	-0.044635	-0.214620	0.787537
C86	C	0.110528	-0.214598	0.787096
C87	C	-0.013455	-0.649572	1.253296
C88	C	-0.013030	-0.804697	1.253206
C89	C	0.172063	-0.896942	1.253263
C90	C	0.171648	-0.741808	1.253325
H91	H	0.024299	-0.654107	1.070013
O92	O	0.270094	-0.214089	0.547248
C93	C	0.346519	-0.213469	0.420858
C94	C	0.270043	-0.213896	0.482734
H95	H	0.346498	-0.213297	0.368678
H96	H	0.392465	-0.265463	0.441159
H97	H	0.357195	-0.161270	0.406913
H98	H	0.259295	-0.266060	0.496707
H99	H	0.224138	-0.161868	0.462400
H100	H	-0.059121	-0.592825	1.253304
O101	O	0.124158	-0.214732	0.841381
C102	C	0.200186	-0.279207	0.920032
C103	C	0.184821	-0.279153	0.858562
H104	H	0.249242	-0.331277	0.933930
H105	H	0.148325	-0.279260	0.972349
H106	H	0.214396	-0.227086	0.899283
H107	H	0.170630	-0.331265	0.879240
H108	H	0.236694	-0.279061	0.806257
O109	O	-0.112407	-0.728596	0.841783
C110	C	-0.235671	-0.639919	0.876369
C111	C	-0.158992	-0.655078	0.814764
H112	H	-0.273362	-0.580486	0.854541
H113	H	-0.227872	-0.646618	0.927413
H114	H	-0.262563	-0.681459	0.892747
H115	H	-0.132058	-0.613551	0.798322
H116	H	-0.166839	-0.648405	0.763760
H117	H	0.071542	-0.606694	0.861281
O118	O	0.123686	-0.964691	0.841765
C119	C	0.074577	-1.041660	0.967900
C120	C	0.059388	-0.964953	0.906315
H121	H	0.022597	-1.041903	1.020098
H122	H	0.123532	-1.052584	0.981975
H123	H	0.088836	-1.087304	0.947193
H124	H	0.045097	-0.919261	0.926971
H125	H	0.010454	-0.954094	0.892249
O126	O	-0.067180	-0.818295	1.253082
C127	C	-0.101390	-0.907185	1.252982
C128	C	-0.039994	-0.891879	1.253106
H129	H	-0.079439	-0.966681	1.253018
H130	H	-0.117711	-0.865773	1.200854
H131	H	-0.152499	-0.900442	1.305043
H132	H	0.011155	-0.898631	1.201080
H133	H	-0.023737	-0.933288	1.305268
H134	H	0.036413	-0.592673	0.556752
O135	O	0.637950	-0.920303	0.885856
C136	C	0.638007	-0.955087	1.009156
C137	C	0.637899	-0.893393	0.932513
H138	H	0.637950	-0.933348	1.046905
H139	H	0.690139	-1.006119	1.001305
H140	H	0.585954	-0.971453	1.036016
H141	H	0.689916	-0.876963	0.905612
H142	H	0.585733	-0.842401	0.940414
O143	O	0.637712	-0.919653	0.649378
C144	C	0.637709	-0.953904	0.560442
C145	C	0.637705	-0.892468	0.575801
H146	H	0.637720	-0.931954	0.500952
H147	H	0.585643	-0.970294	0.601852
H148	H	0.689828	-1.004974	0.567140
H149	H	0.585622	-0.841358	0.569093
H150	H	0.689806	-0.876141	0.534394
O151	O	0.034062	-0.214751	0.548147
C152	C	0.070025	-0.279293	0.466546
C153	C	0.085306	-0.279244	0.528015
H154	H	0.111436	-0.331437	0.450261
H155	H	0.076739	-0.227236	0.415418
H156	H	0.010542	-0.279264	0.488493
H157	H	0.144785	-0.279299	0.506138
H158	H	0.078542	-0.331296	0.579130
O159	O	0.226454	-0.964690	1.253284
C160	C	0.261269	-1.087971	1.253188
C161	C	0.199599	-1.011288	1.253184
H162	H	0.239585	-1.125662	1.253092
H163	H	0.277593	-1.114915	1.305302
H164	H	0.312311	-1.080084	1.201114
H165	H	0.148518	-1.019110	1.305224
H166	H	0.183339	-0.984371	1.201035
H167	H	0.637457	-0.634634	0.514159
O168	O	0.270415	-0.817850	0.547798
C169	C	0.360507	-0.893533	0.468807
C170	C	0.283832	-0.878376	0.530417
H171	H	0.371372	-0.942458	0.454725
H172	H	0.406233	-0.907800	0.489411
H173	H	0.360657	-0.841518	0.416632
H174	H	0.283609	-0.930365	0.582613
H175	H	0.238140	-0.864077	0.509752
O176	O	0.460396	-0.589095	0.706033
C177	C	0.452101	-0.460602	0.660879
C178	C	0.409058	-0.516001	0.701860
H179	H	0.410613	-0.401496	0.657505
H180	H	0.488735	-0.462940	0.601942
H181	H	0.488829	-0.476374	0.692901
H182	H	0.372289	-0.500267	0.669900
H183	H	0.372471	-0.513654	0.760799
H184	H	0.637644	-0.635235	0.737357
O185	O	-0.112251	-0.214749	0.842090
C186	C	-0.179046	-0.279203	0.966938
C187	C	-0.102424	-0.279161	0.905219
H188	H	-0.171125	-0.331267	1.017999
H189	H	-0.216817	-0.279259	0.945311
H190	H	-0.205917	-0.227075	0.983213
H191	H	-0.075487	-0.331280	0.888918
H192	H	-0.064706	-0.279066	0.926881
H193	H	0.071582	-0.606692	0.927876
O194	O	0.264528	-0.777363	1.076036
C195	C	0.365983	-0.892661	1.099913
C196	C	0.309915	-0.843068	1.056858
H197	H	0.402704	-0.945786	1.084411
H198	H	0.334169	-0.908155	1.162659
H199	H	0.402621	-0.860722	1.084502
H200	H	0.273263	-0.874961	1.072206
H201	H	0.341776	-0.827570	0.994123
O202	O	0.012008	-0.651059	0.816980
C203	C	-0.112133	-0.584846	0.883213
C204	C	-0.027381	-0.605657	0.862315
H205	H	-0.144004	-0.548122	0.919857
H206	H	-0.127566	-0.638000	0.915152
H207	H	-0.127572	-0.552965	0.830049
H208	H	-0.011881	-0.637518	0.915441
H209	H	-0.011994	-0.552475	0.830347
O210	O	0.264287	-0.777071	0.690567
C211	C	0.365648	-0.787056	0.575240
C212	C	0.309623	-0.737561	0.624864
H213	H	0.402328	-0.755138	0.522115
H214	H	0.333797	-0.802462	0.559752
H215	H	0.402330	-0.840239	0.607149
H216	H	0.272927	-0.684347	0.593001
H217	H	0.341521	-0.722215	0.640355
O218	O	0.306232	-0.787724	0.852829
C219	C	0.314534	-0.916229	0.898051
C220	C	0.357573	-0.860833	0.857108
H221	H	0.356024	-0.975351	0.901537
H222	H	0.277844	-0.900552	0.866029
H223	H	0.277861	-0.913795	0.956949
H224	H	0.394286	-0.863238	0.798209
H225	H	0.394215	-0.876528	0.889187
O226	O	0.252596	-0.546109	0.679040
C227	C	0.313242	-0.537813	0.549361
C228	C	0.263737	-0.494767	0.605428
H229	H	0.322278	-0.496321	0.489833
H230	H	0.284545	-0.574478	0.558344
H231	H	0.369602	-0.574517	0.558406
H232	H	0.207369	-0.458022	0.596417
H233	H	0.292493	-0.458149	0.596431
O234	O	0.305976	-0.537738	0.757707
C235	C	0.217572	-0.442922	0.815449
C236	C	0.260714	-0.527010	0.827621
H237	H	0.180979	-0.434220	0.871965
H238	H	0.180811	-0.420831	0.781052
H239	H	0.259036	-0.411454	0.784311
H240	H	0.219303	-0.558538	0.858780
H241	H	0.297486	-0.549043	0.861987
O242	O	0.075094	-0.391914	0.880063
C243	C	0.014527	-0.400205	1.009741
C244	C	0.064064	-0.443255	0.953676
H245	H	0.005607	-0.441695	1.069269
H246	H	-0.041884	-0.363546	1.000800
H247	H	0.043233	-0.363495	1.000651
H248	H	0.035425	-0.480006	0.962732
H249	H	0.120474	-0.479866	0.962631
H250	H	0.217133	-0.730478	1.253340
H251	H	0.303660	-0.722726	0.745118
H252	H	0.303780	-0.722782	0.927774
H253	H	0.198119	-0.397913	0.639797
H254	H	0.454413	-0.827107	0.799589
H255	H	0.129609	-0.540114	0.919306
