data_functionalizedCrystal
_audit_creation_method	'MofGen! by Chris Wilmer'
_symmetry_space_group_name_H-M	'P1'
_symmetry_Int_Tables_number	1
_symmetry_cell_setting	triclinic
loop_
_symmetry_equiv_pos_as_xyz
  x,y,z
_cell_length_a	14.908571
_cell_length_b	14.908178
_cell_length_c	14.908662
_cell_angle_alpha	89.839937
_cell_angle_beta	96.407568
_cell_angle_gamma	89.820760
loop_
_atom_site_label
_atom_site_type_symbol
_atom_site_fract_x
_atom_site_fract_y
_atom_site_fract_z
Zn1	Zn	1.384478	-0.471665	0.562604
Zn2	Zn	1.367039	-0.612310	0.402619
Zn3	Zn	1.225501	-0.453338	0.403662
Zn4	Zn	1.224475	-0.612243	0.545222
O5	O	1.300373	-0.537389	0.478527
O6	O	1.508360	-0.498020	0.548220
O7	O	1.341395	-0.583580	0.276560
O8	O	1.254318	-0.330406	0.432457
O9	O	1.495548	-0.601351	0.430680
O10	O	1.371117	-0.343870	0.549231
O11	O	1.237408	-0.466784	0.277326
O12	O	1.099169	-0.466719	0.415602
O13	O	1.252568	-0.601237	0.673726
O14	O	1.098415	-0.583466	0.519606
O15	O	1.370122	-0.497954	0.686496
O16	O	1.340399	-0.737664	0.413825
O17	O	1.235658	-0.737615	0.518595
C18	C	1.066071	-0.523097	0.465832
C19	C	0.965835	-0.517006	0.460420
C20	C	0.776726	-0.627297	0.558386
C21	C	0.682545	-0.621576	0.553304
C22	C	0.683293	-0.499841	0.445182
C23	C	0.777473	-0.505561	0.450263
C24	C	0.824186	-0.569292	0.506866
C25	C	0.918368	-0.575016	0.511942
C26	C	0.919114	-0.453277	0.403825
C27	C	0.824934	-0.447557	0.398744
C28	C	1.286051	-0.770148	0.464232
C29	C	1.280007	-0.869730	0.458151
C30	C	1.390194	-1.070728	0.568440
C31	C	1.384520	-1.164295	0.562730
C32	C	1.262980	-1.150431	0.441025
C33	C	1.268654	-1.056865	0.446735
C34	C	1.332265	-1.017017	0.510444
C35	C	1.337943	-0.923448	0.516149
C36	C	1.216399	-0.909587	0.394449
C37	C	1.210725	-1.003153	0.388739
C38	C	1.535590	-0.551737	0.491272
C39	C	1.635826	-0.557852	0.496704
C40	C	1.313176	-0.551633	0.713747
C41	C	1.318632	-0.557702	0.813984
C42	C	1.314777	-0.303724	0.492899
C43	C	1.320915	-0.204150	0.499023
C44	C	1.287676	-0.523139	0.244228
C45	C	1.282410	-0.516828	0.144017
C46	C	1.380451	-0.627060	0.954868
C47	C	1.375331	-0.621362	0.860686
C48	C	1.267046	-0.499738	0.861470
C49	C	1.272166	-0.505436	0.955652
C50	C	1.328872	-0.569098	1.002347
C51	C	1.333996	-0.574792	1.096531
C52	C	1.225706	-0.453173	1.097313
C53	C	1.220586	-0.447475	1.003131
H54	H	0.956400	-0.626910	0.558029
O55	O	1.389183	-0.636510	1.141946
C56	C	1.515945	-0.662430	1.254178
C57	C	1.453525	-0.592436	1.202801
H58	H	1.567969	-0.626824	1.303404
H59	H	1.551997	-0.702869	1.204104
H60	H	1.474030	-0.709429	1.293105
H61	H	1.495374	-0.545378	1.163872
H62	H	1.417469	-0.552062	1.252919
H63	H	1.417337	-0.668557	0.822032
H64	H	0.645244	-0.447949	0.399105
O65	O	1.149017	-1.042011	0.326879
C66	C	1.086375	-1.180010	0.264176
C67	C	1.156312	-1.136125	0.334264
H68	H	1.092236	-1.256108	0.270136
H69	H	1.099436	-1.158263	0.193433
H70	H	1.015627	-1.158140	0.277115
H71	H	1.227088	-1.157974	0.321409
H72	H	1.143173	-1.157871	0.404983
O73	O	1.399752	-0.884882	0.578115
C74	C	1.519729	-0.908513	0.698202
C75	C	1.449761	-0.952301	0.628076
H76	H	1.560192	-0.963001	0.738601
H77	H	1.483544	-0.865085	0.745805
H78	H	1.567293	-0.865025	0.662063
H79	H	1.402177	-0.995833	0.664138
H80	H	1.486004	-0.995676	0.580477
O81	O	1.201274	-1.189294	0.379166
C82	C	1.138641	-1.327301	0.316473
C83	C	1.208575	-1.283407	0.386558
H84	H	1.144507	-1.403397	0.322439
H85	H	1.151700	-1.305557	0.245729
H86	H	1.067891	-1.305433	0.329410
H87	H	1.279352	-1.305252	0.373706
H88	H	1.195437	-1.305149	0.457279
H89	H	0.786888	-0.395667	0.352662
O90	O	1.435552	-0.688970	1.000091
C91	C	1.542470	-0.808956	0.989383
C92	C	1.480088	-0.738899	0.938056
H93	H	1.578508	-0.849329	0.939252
H94	H	1.500619	-0.856006	1.028326
H95	H	1.594515	-0.773348	1.038586
H96	H	1.428032	-0.774431	0.888809
H97	H	1.521998	-0.691853	0.899173
O98	O	1.211881	-0.437886	0.816237
C99	C	1.105037	-0.317834	0.826944
C100	C	1.167464	-0.387849	0.878281
H101	H	1.069123	-0.277347	0.877085
H102	H	1.052898	-0.353391	0.777798
H103	H	1.146930	-0.270886	0.787938
H104	H	1.125645	-0.434816	0.917339
H105	H	1.219605	-0.352233	0.927374
O106	O	0.965163	-0.397009	0.353639
C107	C	0.988230	-0.345718	0.204545
C108	C	0.936032	-0.409497	0.261272
H109	H	0.964684	-0.355779	0.129856
H110	H	1.063575	-0.360750	0.217815
H111	H	0.975031	-0.273355	0.223980
H112	H	0.949156	-0.481883	0.241871
H113	H	0.860704	-0.394388	0.247995
H114	H	0.814760	-0.679193	0.604469
O115	O	1.452006	-1.032159	0.630401
C116	C	1.571996	-1.055781	0.750476
C117	C	1.502023	-1.099575	0.680359
H118	H	1.612466	-1.110266	0.790873
H119	H	1.535815	-1.012354	0.798083
H120	H	1.619552	-1.012290	0.714331
H121	H	1.454447	-1.143108	0.716428
H122	H	1.538264	-1.142948	0.632756
O123	O	1.160163	-0.857279	0.338204
C124	C	1.115080	-0.706991	0.293018
C125	C	1.178803	-0.766123	0.356786
H126	H	1.130141	-0.633280	0.308006
H127	H	1.042072	-0.721898	0.303728
H128	H	1.125894	-0.722028	0.220060
H129	H	1.168070	-0.751120	0.429768
H130	H	1.251788	-0.751205	0.345998
H131	H	0.643907	-0.668808	0.595259
H132	H	1.174416	-0.395646	0.965098
H133	H	1.183710	-0.405973	1.135981
H134	H	1.431688	-1.208024	0.609960
