data_functionalizedCrystal
_audit_creation_method	'MofGen! by Chris Wilmer'
_symmetry_space_group_name_H-M	'P1'
_symmetry_Int_Tables_number	1
_symmetry_cell_setting	triclinic
loop_
_symmetry_equiv_pos_as_xyz
  x,y,z
_cell_length_a	18.101398
_cell_length_b	29.839125
_cell_length_c	18.101395
_cell_angle_alpha	90.013262
_cell_angle_beta	89.973339
_cell_angle_gamma	89.997005
loop_
_atom_site_label
_atom_site_type_symbol
_atom_site_fract_x
_atom_site_fract_y
_atom_site_fract_z
Zn1	Zn	1.132072	-0.253911	0.295021
Zn2	Zn	1.382072	-0.003911	0.545021
Zn3	Zn	1.632072	0.246089	0.795021
Zn4	Zn	1.882072	0.496089	1.045021
Zn5	Zn	1.131982	-0.178787	0.418839
Zn6	Zn	1.381982	0.071213	0.668839
Zn7	Zn	1.631982	0.321213	0.918839
Zn8	Zn	1.881982	0.571213	1.168839
Zn9	Zn	1.008245	-0.178806	0.295006
Zn10	Zn	1.258245	0.071194	0.545006
Zn11	Zn	1.508245	0.321194	0.795006
Zn12	Zn	1.758245	0.571194	1.045006
Zn13	Zn	1.008181	-0.253900	0.418816
Zn14	Zn	1.258181	-0.003900	0.668816
Zn15	Zn	1.508181	0.246100	0.918816
Zn16	Zn	1.758181	0.496100	1.168816
O17	O	1.070120	-0.216351	0.356921
O18	O	1.320120	0.033649	0.606921
O19	O	1.570120	0.283649	0.856921
O20	O	1.820120	0.533649	1.106921
O21	O	1.235693	-0.243943	0.311462
O22	O	1.485693	0.006057	0.561462
O23	O	1.735693	0.256057	0.811462
O24	O	1.985693	0.506057	1.061462
O25	O	1.115557	-0.115923	0.402416
O26	O	1.365557	0.134077	0.652416
O27	O	1.615557	0.384077	0.902416
O28	O	1.865557	0.634077	1.152416
O29	O	1.024735	-0.188781	0.191376
O30	O	1.274735	0.061219	0.441376
O31	O	1.524735	0.311219	0.691376
O32	O	1.774735	0.561219	0.941376
O33	O	1.235627	-0.188749	0.402430
O34	O	1.485627	0.061251	0.652430
O35	O	1.735627	0.311251	0.902430
O36	O	1.985627	0.561251	1.152430
O37	O	1.115710	-0.243961	0.191386
O38	O	1.365710	0.006039	0.441386
O39	O	1.615710	0.256039	0.691386
O40	O	1.865710	0.506039	0.941386
O41	O	1.024648	-0.115936	0.311437
O42	O	1.274648	0.134064	0.561437
O43	O	1.524648	0.384064	0.811437
O44	O	1.774648	0.634064	1.061437
O45	O	0.904604	-0.188771	0.311414
O46	O	1.154604	0.061229	0.561414
O47	O	1.404604	0.311229	0.811414
O48	O	1.654604	0.561229	1.061414
O49	O	1.024626	-0.316769	0.402391
O50	O	1.274626	-0.066769	0.652391
O51	O	1.524626	0.183231	0.902391
O52	O	1.774626	0.433231	1.152391
O53	O	0.904557	-0.243942	0.402376
O54	O	1.154557	0.006058	0.652376
O55	O	1.404557	0.256058	0.902376
O56	O	1.654557	0.506058	1.152376
O57	O	1.115648	-0.316777	0.311439
O58	O	1.365648	-0.066777	0.561439
O59	O	1.615648	0.183223	0.811439
O60	O	1.865648	0.433223	1.061439
O61	O	1.115495	-0.188739	0.522469
O62	O	1.365495	0.061261	0.772469
O63	O	1.615495	0.311261	1.022469
O64	O	1.865495	0.561261	1.272469
O65	O	1.024540	-0.243924	0.522452
O66	O	1.274540	0.006076	0.772452
O67	O	1.524540	0.256076	1.022452
O68	O	1.774540	0.506076	1.272452
C69	C	0.877709	-0.216357	0.356892
C70	C	1.127709	0.033643	0.606892
C71	C	1.377709	0.283643	0.856892
C72	C	1.627709	0.533643	1.106892
C73	C	0.795395	-0.216371	0.356897
C74	C	1.045395	0.033629	0.606897
C75	C	1.295395	0.283629	0.856897
C76	C	1.545395	0.533629	1.106897
C77	C	0.496304	-0.216352	0.356941
C78	C	0.746304	0.033648	0.606941
C79	C	0.996304	0.283648	0.856941
C80	C	1.246304	0.533648	1.106941
C81	C	0.527625	-0.250893	0.414448
C82	C	0.777625	-0.000893	0.664448
C83	C	1.027625	0.249107	0.914448
C84	C	1.277625	0.499107	1.164448
C85	C	0.613243	-0.251035	0.414268
C86	C	0.863243	-0.001035	0.664268
C87	C	1.113243	0.248965	0.914268
C88	C	1.363243	0.498965	1.164268
C89	C	0.644687	-0.216361	0.356920
C90	C	0.894687	0.033639	0.606920
C91	C	1.144687	0.283639	0.856920
C92	C	1.394687	0.533639	1.106920
C93	C	0.613630	-0.229298	0.278922
C94	C	0.863630	0.020702	0.528922
C95	C	1.113630	0.270702	0.778922
C96	C	1.363630	0.520702	1.028922
C97	C	0.527985	-0.229544	0.279268
C98	C	0.777985	0.020456	0.529268
C99	C	1.027985	0.270456	0.779268
C100	C	1.277985	0.520456	1.029268
C101	C	0.527861	-0.168791	0.376743
C102	C	0.777861	0.081209	0.626743
C103	C	1.027861	0.331209	0.876743
C104	C	1.277861	0.581209	1.126743
C105	C	0.613511	-0.169045	0.378454
C106	C	0.863511	0.080955	0.628454
C107	C	1.113511	0.330955	0.878454
C108	C	1.363511	0.580955	1.128454
C109	C	0.728546	-0.216366	0.356903
C110	C	0.978546	0.033634	0.606903
C111	C	1.228546	0.283634	0.856903
C112	C	1.478546	0.533634	1.106903
C113	C	0.412445	-0.216349	0.356952
C114	C	0.662445	0.033651	0.606952
C115	C	0.912445	0.283651	0.856952
C116	C	1.162445	0.533651	1.106952
C117	C	1.070140	-0.333530	0.356914
C118	C	1.320140	-0.083530	0.606914
C119	C	1.570140	0.166470	0.856914
C120	C	1.820140	0.416470	1.106914
C121	C	1.070149	-0.383464	0.356911
C122	C	1.320149	-0.133464	0.606911
C123	C	1.570149	0.116536	0.856911
C124	C	1.820149	0.366536	1.106911
C125	C	1.117593	-0.693115	0.309429
C126	C	1.367593	-0.443115	0.559429
C127	C	1.617593	-0.193115	0.809429
C128	C	1.867593	0.056885	1.059429
C129	C	1.117630	-0.880788	0.309366
C130	C	1.367630	-0.630788	0.559366
C131	C	1.617630	-0.380788	0.809366
C132	C	1.867630	-0.130788	1.059366
O133	O	1.157914	-0.905059	0.269065
O134	O	1.407914	-0.655059	0.519065
O135	O	1.657914	-0.405059	0.769065
O136	O	1.907914	-0.155059	1.019065
N137	N	1.070247	-0.904249	0.356713
N138	N	1.320247	-0.654249	0.606713
N139	N	1.570247	-0.404249	0.856713
N140	N	1.820247	-0.154249	1.106713
C141	C	1.022847	-0.880790	0.404076
C142	C	1.272847	-0.630790	0.654076
C143	C	1.522847	-0.380790	0.904076
C144	C	1.772847	-0.130790	1.154076
O145	O	0.982540	-0.905051	0.444341
O146	O	1.232540	-0.655051	0.694341
O147	O	1.482540	-0.405051	0.944341
O148	O	1.732540	-0.155051	1.194341
C149	C	1.022807	-0.693117	0.404135
C150	C	1.272807	-0.443117	0.654135
C151	C	1.522807	-0.193117	0.904135
C152	C	1.772807	0.056883	1.154135
C153	C	1.070199	-0.669658	0.356790
C154	C	1.320199	-0.419658	0.606790
C155	C	1.570199	-0.169658	0.856790
C156	C	1.820199	0.080342	1.106790
C157	C	1.164981	-0.669656	0.262087
C158	C	1.414981	-0.419656	0.512087
C159	C	1.664981	-0.169656	0.762087
C160	C	1.914981	0.080344	1.012087
C161	C	1.164974	-0.622740	0.262106
C162	C	1.414974	-0.372740	0.512106
C163	C	1.664974	-0.122740	0.762106
C164	C	1.914974	0.127260	1.012106
C165	C	1.117580	-0.599284	0.309467
C166	C	1.367580	-0.349284	0.559467
C167	C	1.617580	-0.099284	0.809467
C168	C	1.867580	0.150716	1.059467
C169	C	1.070192	-0.622743	0.356809
C170	C	1.320192	-0.372743	0.606809
C171	C	1.570192	-0.122743	0.856809
C172	C	1.820192	0.127257	1.106809
C173	C	0.975405	-0.669659	0.451493
C174	C	1.225405	-0.419659	0.701493
C175	C	1.475405	-0.169659	0.951493
C176	C	1.725405	0.080341	1.201493
C177	C	0.975398	-0.622737	0.451503
C178	C	1.225398	-0.372737	0.701503
C179	C	1.475398	-0.122737	0.951503
C180	C	1.725398	0.127263	1.201503
C181	C	1.022790	-0.599278	0.404158
C182	C	1.272790	-0.349278	0.654158
C183	C	1.522790	-0.099278	0.904158
C184	C	1.772790	0.150722	1.154158
C185	C	1.022791	-0.552371	0.404189
C186	C	1.272791	-0.302371	0.654189
C187	C	1.522791	-0.052371	0.904189
C188	C	1.772791	0.197629	1.154189
N189	N	1.070175	-0.528910	0.356842
N190	N	1.320175	-0.278910	0.606842
N191	N	1.570175	-0.028910	0.856842
N192	N	1.820175	0.221090	1.106842
C193	C	1.117569	-0.552366	0.309481
C194	C	1.367569	-0.302366	0.559481
C195	C	1.617569	-0.052366	0.809481
C196	C	1.867569	0.197634	1.059481
C197	C	1.022873	-0.979320	0.404043
C198	C	1.272873	-0.729320	0.654043
C199	C	1.522873	-0.479320	0.904043
C200	C	1.772873	-0.229320	1.154043
C201	C	1.022884	-1.026238	0.404029
C202	C	1.272884	-0.776238	0.654029
C203	C	1.522884	-0.526238	0.904029
C204	C	1.772884	-0.276238	1.154029
C205	C	1.117665	-1.026233	0.309318
C206	C	1.367665	-0.776233	0.559318
C207	C	1.617665	-0.526233	0.809318
C208	C	1.867665	-0.276233	1.059318
C209	C	1.117658	-0.979314	0.309336
C210	C	1.367658	-0.729314	0.559336
C211	C	1.617658	-0.479314	0.809336
C212	C	1.867658	-0.229314	1.059336
C213	C	1.070256	-0.955859	0.356695
C214	C	1.320256	-0.705859	0.606695
C215	C	1.570256	-0.455859	0.856695
C216	C	1.820256	-0.205859	1.106695
C217	C	1.117552	-0.453840	0.309525
C218	C	1.367552	-0.203840	0.559525
C219	C	1.617552	0.046160	0.809525
C220	C	1.867552	0.296160	1.059525
C221	C	1.117543	-0.406920	0.309550
C222	C	1.367543	-0.156920	0.559550
C223	C	1.617543	0.093080	0.809550
C224	C	1.867543	0.343080	1.059550
C225	C	1.022758	-0.406930	0.404259
C226	C	1.272758	-0.156930	0.654259
C227	C	1.522758	0.093070	0.904259
C228	C	1.772758	0.343070	1.154259
C229	C	1.022770	-0.453845	0.404236
C230	C	1.272770	-0.203845	0.654236
C231	C	1.522770	0.046155	0.904236
C232	C	1.772770	0.296155	1.154236
C233	C	1.070169	-0.477299	0.356863
C234	C	1.320169	-0.227299	0.606863
C235	C	1.570169	0.022701	0.856863
C236	C	1.820169	0.272701	1.106863
O237	O	0.982523	-0.528071	0.444463
O238	O	1.232523	-0.278071	0.694463
O239	O	1.482523	-0.028071	0.944463
O240	O	1.732523	0.221929	1.194463
O241	O	1.157858	-0.528096	0.269210
O242	O	1.407858	-0.278096	0.519210
O243	O	1.657858	-0.028096	0.769210
O244	O	1.907858	0.221904	1.019210
C245	C	1.117600	-0.740030	0.309410
C246	C	1.367600	-0.490030	0.559410
C247	C	1.617600	-0.240030	0.809410
C248	C	1.867600	0.009970	1.059410
C249	C	1.070213	-0.763489	0.356751
C250	C	1.320213	-0.513489	0.606751
C251	C	1.570213	-0.263489	0.856751
C252	C	1.820213	-0.013489	1.106751
C253	C	1.022819	-0.740033	0.404112
C254	C	1.272819	-0.490033	0.654112
C255	C	1.522819	-0.240033	0.904112
C256	C	1.772819	0.009967	1.154112
C257	C	1.070224	-0.810407	0.356738
C258	C	1.320224	-0.560407	0.606738
C259	C	1.570224	-0.310407	0.856738
C260	C	1.820224	-0.060407	1.106738
C261	C	1.117618	-0.833864	0.309377
C262	C	1.367618	-0.583864	0.559377
C263	C	1.617618	-0.333864	0.809377
C264	C	1.867618	-0.083864	1.059377
C265	C	1.165001	-0.810402	0.262030
C266	C	1.415001	-0.560402	0.512030
C267	C	1.665001	-0.310402	0.762030
C268	C	1.915001	-0.060402	1.012030
C269	C	1.164994	-0.763487	0.262049
C270	C	1.414994	-0.513487	0.512049
C271	C	1.664994	-0.263487	0.762049
C272	C	1.914994	-0.013487	1.012049
C273	C	0.975435	-0.763494	0.451460
C274	C	1.225435	-0.513494	0.701460
C275	C	1.475435	-0.263494	0.951460
C276	C	1.725435	-0.013494	1.201460
C277	C	0.975447	-0.810410	0.451437
C278	C	1.225447	-0.560410	0.701437
C279	C	1.475447	-0.310410	0.951437
C280	C	1.725447	-0.060410	1.201437
C281	C	1.022841	-0.833866	0.404076
C282	C	1.272841	-0.583866	0.654076
C283	C	1.522841	-0.333866	0.904076
C284	C	1.772841	-0.083866	1.154076
C285	C	1.263282	-0.216345	0.356950
C286	C	1.513282	0.033655	0.606950
C287	C	1.763282	0.283655	0.856950
C288	C	2.013282	0.533655	1.106950
C289	C	1.345596	-0.216343	0.356963
C290	C	1.595596	0.033657	0.606963
C291	C	1.845596	0.283657	0.856963
C292	C	2.095596	0.533657	1.106963
C293	C	1.070021	-0.216338	0.549331
C294	C	1.320021	0.033662	0.799331
C295	C	1.570021	0.283662	1.049331
C296	C	1.820021	0.533662	1.299331
C297	C	1.070046	-0.216347	0.631645
C298	C	1.320046	0.033653	0.881645
C299	C	1.570046	0.283653	1.131645
C300	C	1.820046	0.533653	1.381645
C301	C	1.070143	-0.099629	0.356874
C302	C	1.320143	0.150371	0.606874
C303	C	1.570143	0.400371	0.856874
C304	C	1.820143	0.650371	1.106874
C305	C	1.070278	-0.049695	0.356668
C306	C	1.320278	0.200305	0.606668
C307	C	1.570278	0.450305	0.856668
C308	C	1.820278	0.700305	1.106668
C309	C	1.070240	-0.216374	0.163759
C310	C	1.320240	0.033626	0.413759
C311	C	1.570240	0.283626	0.663759
C312	C	1.820240	0.533626	0.913759
C313	C	1.070291	-0.216384	0.081445
C314	C	1.320291	0.033616	0.331445
C315	C	1.570291	0.283616	0.581445
C316	C	1.820291	0.533616	0.831445
C317	C	1.070209	-0.216372	0.930736
C318	C	1.320209	0.033628	1.180736
C319	C	1.570209	0.283628	1.430736
C320	C	1.820209	0.533628	1.680736
C321	C	1.013114	-0.251179	0.899431
C322	C	1.263114	-0.001179	1.149431
C323	C	1.513114	0.248821	1.399431
C324	C	1.763114	0.498821	1.649431
C325	C	1.012843	-0.251070	0.813813
C326	C	1.262843	-0.001070	1.063813
C327	C	1.512843	0.248930	1.313813
C328	C	1.762843	0.498930	1.563813
C329	C	1.070128	-0.216360	0.782354
C330	C	1.320128	0.033640	1.032354
C331	C	1.570128	0.283640	1.282354
C332	C	1.820128	0.533640	1.532354
C333	C	1.049008	-0.169015	0.813484
C334	C	1.299008	0.080985	1.063484
C335	C	1.549008	0.330985	1.313484
C336	C	1.799008	0.580985	1.563484
C337	C	1.048640	-0.169223	0.899130
C338	C	1.298640	0.080777	1.149130
C339	C	1.548640	0.330777	1.399130
C340	C	1.798640	0.580777	1.649130
C341	C	1.148548	-0.228493	0.899091
C342	C	1.398548	0.021507	1.149091
C343	C	1.648548	0.271507	1.399091
C344	C	1.898548	0.521507	1.649091
C345	C	1.148087	-0.229531	0.813440
C346	C	1.398087	0.020469	1.063440
C347	C	1.648087	0.270469	1.313440
C348	C	1.898087	0.520469	1.563440
C349	C	1.070084	-0.216350	0.698494
C350	C	1.320084	0.033650	0.948494
C351	C	1.570084	0.283650	1.198494
C352	C	1.820084	0.533650	1.448494
C353	C	1.070251	-0.216378	1.014596
C354	C	1.320251	0.033622	1.264596
C355	C	1.570251	0.283622	1.514596
C356	C	1.820251	0.533622	1.764596
H357	H	1.156137	-0.387822	0.270996
H358	H	1.406137	-0.137822	0.520996
H359	H	1.656137	0.112178	0.770996
H360	H	1.906137	0.362178	1.020996
F361	F	0.500677	-0.240417	0.490297
F362	F	0.750677	0.009583	0.740297
F363	F	1.000677	0.259583	0.990297
F364	F	1.250677	0.509583	1.240297
F365	F	0.925007	-0.835372	0.501837
F366	F	1.175007	-0.585372	0.751837
F367	F	1.425007	-0.335372	1.001837
F368	F	1.675007	-0.085372	1.251837
F369	F	0.936944	-0.240578	0.787105
F370	F	1.186944	0.009422	1.037105
F371	F	1.436944	0.259422	1.287105
F372	F	1.686944	0.509422	1.537105
H373	H	0.955400	-0.243252	0.921010
H374	H	1.205400	0.006748	1.171010
H375	H	1.455400	0.256748	1.421010
H376	H	1.705400	0.506748	1.671010
H377	H	0.936841	-0.744401	0.490028
H378	H	1.186841	-0.494401	0.740028
H379	H	1.436841	-0.244401	0.990028
H380	H	1.686841	0.005599	1.240028
H381	H	0.506250	-0.157034	0.432644
H382	H	0.756250	0.092966	0.682644
H383	H	1.006250	0.342966	0.932644
H384	H	1.256250	0.592966	1.182644
F385	F	0.972453	-1.051200	0.454430
F386	F	1.222453	-0.801200	0.704430
F387	F	1.472453	-0.551200	0.954430
F388	F	1.722453	-0.301200	1.204430
F389	F	1.167996	-0.478795	0.259102
F390	F	1.417996	-0.228795	0.509102
F391	F	1.667996	0.021205	0.759102
F392	F	1.917996	0.271205	1.009102
H393	H	0.633999	-0.204925	0.234914
H394	H	0.883999	0.045075	0.484914
H395	H	1.133999	0.295075	0.734914
H396	H	1.383999	0.545075	0.984914
H397	H	0.507268	-0.205539	0.234886
H398	H	0.757268	0.044461	0.484886
H399	H	1.007268	0.294461	0.734886
H400	H	1.257268	0.544461	0.984886
F401	F	0.973791	-0.155801	0.925318
F402	F	1.223791	0.094199	1.175318
F403	F	1.473791	0.344199	1.425318
F404	F	1.723791	0.594199	1.675318
F405	F	1.215435	-0.738526	0.211657
F406	F	1.465435	-0.488526	0.461657
F407	F	1.715435	-0.238526	0.711657
F408	F	1.965435	0.011474	0.961657
H409	H	0.635088	-0.263690	0.261821
H410	H	0.885088	-0.013690	0.511821
H411	H	1.135088	0.236310	0.761821
H412	H	1.385088	0.486310	1.011821
F413	F	1.173719	-0.272849	0.927275
F414	F	1.423719	-0.022849	1.177275
F415	F	1.673719	0.227151	1.427275
F416	F	1.923719	0.477151	1.677275
H417	H	0.992349	-0.158562	0.792091
H418	H	1.242349	0.091438	1.042091
H419	H	1.492349	0.341438	1.292091
H420	H	1.742349	0.591438	1.542091
F421	F	1.215411	-0.597779	0.211711
F422	F	1.465411	-0.347779	0.461711
F423	F	1.715411	-0.097779	0.711711
F424	F	1.965411	0.152221	0.961711
F425	F	1.100631	-0.134167	0.926201
F426	F	1.350631	0.115833	1.176201
F427	F	1.600631	0.365833	1.426201
F428	F	1.850631	0.615833	1.676201
F429	F	1.204150	-0.195362	0.925561
F430	F	1.454150	0.054638	1.175561
F431	F	1.704150	0.304638	1.425561
F432	F	1.954150	0.554638	1.675561
H433	H	0.633817	-0.159288	0.435849
H434	H	0.883817	0.090712	0.685849
H435	H	1.133817	0.340712	0.935849
H436	H	1.383817	0.590712	1.185849
H437	H	1.026056	-0.286176	0.792764
H438	H	1.276056	-0.036176	1.042764
H439	H	1.526056	0.213824	1.292764
H440	H	1.776056	0.463824	1.542764
F441	F	0.641484	-0.133599	0.327677
F442	F	0.891484	0.116401	0.577677
F443	F	1.141484	0.366401	0.827677
F444	F	1.391484	0.616401	1.077677
H445	H	1.089285	-0.142374	0.793106
H446	H	1.339285	0.107626	1.043106
H447	H	1.589285	0.357626	1.293106
H448	H	1.839285	0.607626	1.543106
F449	F	0.501387	-0.135151	0.321994
F450	F	0.751387	0.114849	0.571994
F451	F	1.001387	0.364849	0.821994
F452	F	1.251387	0.614849	1.071994
H453	H	0.984273	-0.960227	0.442614
H454	H	1.234273	-0.710227	0.692614
H455	H	1.484273	-0.460227	0.942614
H456	H	1.734273	-0.210227	1.192614
F457	F	1.215435	-0.694613	0.211681
F458	F	1.465435	-0.444613	0.461681
F459	F	1.715435	-0.194613	0.711681
F460	F	1.965435	0.055387	0.961681
F461	F	1.168097	-0.954352	0.258944
F462	F	1.418097	-0.704352	0.508944
F463	F	1.668097	-0.454352	0.758944
F464	F	1.918097	-0.204352	1.008944
F465	F	1.168106	-1.051205	0.258912
F466	F	1.418106	-0.801205	0.508912
F467	F	1.668106	-0.551205	0.758912
F468	F	1.918106	-0.301205	1.008912
F469	F	0.924944	-0.597777	0.501910
F470	F	1.174944	-0.347777	0.751910
F471	F	1.424944	-0.097777	1.001910
F472	F	1.674944	0.152223	1.251910
H473	H	0.936813	-0.688751	0.490047
H474	H	1.186813	-0.438751	0.740047
H475	H	1.436813	-0.188751	0.990047
H476	H	1.686813	0.061249	1.240047
F477	F	1.206631	-0.198812	0.785440
F478	F	1.456631	0.051188	1.035440
F479	F	1.706631	0.301188	1.285440
F480	F	1.956631	0.551188	1.535440
F481	F	1.030209	-0.297215	0.926310
F482	F	1.280209	-0.047215	1.176310
F483	F	1.530209	0.202785	1.426310
F484	F	1.780209	0.452785	1.676310
F485	F	1.168907	-0.275074	0.786845
F486	F	1.418907	-0.025074	1.036845
F487	F	1.668907	0.224926	1.286845
F488	F	1.918907	0.474926	1.536845
F489	F	0.972320	-0.381957	0.454660
F490	F	1.222320	-0.131957	0.704660
F491	F	1.472320	0.118043	0.954660
F492	F	1.722320	0.368043	1.204660
F493	F	0.640690	-0.240452	0.489875
F494	F	0.890690	0.009548	0.739875
F495	F	1.140690	0.259548	0.989875
F496	F	1.390690	0.509548	1.239875
H497	H	0.506108	-0.285929	0.401514
H498	H	0.756108	-0.035929	0.651514
H499	H	1.006108	0.214071	0.901514
H500	H	1.256108	0.464071	1.151514
H501	H	0.508017	-0.264313	0.262470
H502	H	0.758017	-0.014313	0.512470
H503	H	1.008017	0.235687	0.762470
H504	H	1.258017	0.485687	1.012470
F505	F	0.640036	-0.297096	0.397144
F506	F	0.890036	-0.047096	0.647144
F507	F	1.140036	0.202904	0.897144
F508	F	1.390036	0.452904	1.147144
H509	H	0.984186	-0.472946	0.442795
H510	H	1.234186	-0.222946	0.692795
H511	H	1.484186	0.027054	0.942795
H512	H	1.734186	0.277054	1.192795
F513	F	1.215444	-0.835374	0.211627
F514	F	1.465444	-0.585374	0.461627
F515	F	1.715444	-0.335374	0.711627
F516	F	1.965444	-0.085374	0.961627
