data_functionalizedCrystal
_audit_creation_method	'MofGen! by Chris Wilmer'
_symmetry_space_group_name_H-M	'P1'
_symmetry_Int_Tables_number	1
_symmetry_cell_setting	triclinic
loop_
_symmetry_equiv_pos_as_xyz
  x,y,z
_cell_length_a	19.121102
_cell_length_b	15.297327
_cell_length_c	15.298259
_cell_angle_alpha	88.343348
_cell_angle_beta	96.832623
_cell_angle_gamma	97.700936
loop_
_atom_site_label
_atom_site_type_symbol
_atom_site_fract_x
_atom_site_fract_y
_atom_site_fract_z
Zn1	Zn	0.949840	-0.304847	-0.614818
Zn2	Zn	0.943010	-0.476394	-0.493253
Zn3	Zn	0.850124	-0.325839	-0.462145
Zn4	Zn	0.811206	-0.445178	-0.631454
O5	O	0.888545	-0.388065	-0.550418
O6	O	1.045826	-0.331882	-0.604749
O7	O	0.944117	-0.478272	-0.367394
O8	O	0.882497	-0.201318	-0.462416
O9	O	1.040808	-0.457917	-0.515436
O10	O	0.955758	-0.185895	-0.574585
O11	O	0.875874	-0.367660	-0.344539
O12	O	0.748069	-0.337391	-0.478547
O13	O	0.816167	-0.404713	-0.750979
O14	O	0.719476	-0.425069	-0.602938
O15	O	0.918021	-0.301613	-0.738757
O16	O	0.906380	-0.593990	-0.531567
O17	O	0.809544	-0.571056	-0.633102
C18	C	0.708649	-0.380121	-0.539173
C19	C	0.631684	-0.376740	-0.534386
C20	C	0.853015	-0.614085	-0.587536
C21	C	0.837875	-0.710776	-0.603448
C22	C	0.997004	-1.030947	-0.437005
C23	C	1.011229	-0.940103	-0.422050
C24	C	0.967892	-0.882766	-0.467398
C25	C	0.910327	-0.916284	-0.527704
C26	C	0.896098	-1.007138	-0.542655
C27	C	0.866985	-0.858957	-0.573048
C28	C	0.809421	-0.892474	-0.633354
C29	C	0.795194	-0.983320	-0.648303
C30	C	0.838531	-1.040656	-0.602954
C31	C	0.881215	-0.768103	-0.558097
C32	C	0.780308	-0.744294	-0.663747
C33	C	0.766084	-0.835138	-0.678702
C34	C	0.580653	-0.420900	-0.596828
C35	C	0.508337	-0.417711	-0.592332
C36	C	0.487053	-0.370366	-0.525392
C37	C	0.538090	-0.326200	-0.462947
C38	C	0.610405	-0.329385	-0.467447
C39	C	0.269454	-0.358458	-0.508573
C40	C	0.197133	-0.355279	-0.504077
C41	C	0.167385	-0.446788	-0.633463
C42	C	0.239703	-0.449972	-0.637954
C43	C	0.290733	-0.405803	-0.575512
C44	C	0.413135	-0.367107	-0.520794
C45	C	0.364650	-0.409057	-0.580115
C46	C	1.069142	-0.396040	-0.561707
C47	C	1.146102	-0.399439	-0.566518
C48	C	0.863515	-0.347339	-0.777315
C49	C	0.852849	-0.329985	-0.874005
C50	C	0.924230	-0.161159	-0.513175
C51	C	0.939437	-0.064465	-0.497304
C52	C	0.964906	-0.511433	-1.194150
C53	C	0.974923	-0.527744	-1.103305
C54	C	0.944406	-0.478305	-1.045976
C55	C	0.903869	-0.412553	-1.079499
C56	C	0.893846	-0.396245	-1.170353
C57	C	0.873346	-0.363118	-1.022179
C58	C	0.832809	-0.297366	-1.055703
C59	C	0.822789	-0.281060	-1.146548
C60	C	0.853306	-0.330499	-1.203878
C61	C	0.883368	-0.379426	-0.931326
C62	C	0.812308	-0.264238	-0.907529
C63	C	0.802291	-0.247927	-0.998374
C64	C	0.913527	-0.428571	-0.324395
C65	C	0.924366	-0.445686	-0.227674
H66	H	0.928084	-0.740822	-0.508996
F67	F	0.983160	-0.786055	-0.451676
H68	H	0.651954	-0.293420	-0.416604
F69	F	0.387304	-0.459442	-0.651356
F70	F	0.779818	-0.211627	-0.846520
H71	H	0.597976	-0.459457	-0.651336
H72	H	1.058097	-0.912816	-0.372949
F73	F	1.043118	-1.091972	-0.388747
H74	H	0.466790	-0.453672	-0.643178
F75	F	0.823205	-1.137384	-0.618577
H76	H	0.748314	-1.010607	-0.697397
F77	F	0.704821	-0.870821	-0.742882
H78	H	0.769286	-0.194391	-1.025682
F79	F	0.262349	-0.500365	-0.709200
H80	H	0.745018	-0.697611	-0.700672
F81	F	0.955070	-0.495664	-0.949291
F82	F	0.390476	-0.316721	-0.449552
F83	F	0.515436	-0.275806	-0.391708
F84	F	0.113071	-0.493794	-0.699912
H85	H	1.007920	-0.581287	-1.076018
H86	H	0.989743	-0.551684	-1.240835
H87	H	0.845154	-0.317220	-1.277851
F88	F	0.174483	-0.304892	-0.432821
H89	H	0.310995	-0.322499	-0.457723
H90	H	0.916379	-0.432957	-0.904039
H91	H	0.789773	-0.227529	-1.173841
