data_functionalizedCrystal
_audit_creation_method	'MofGen! by Chris Wilmer'
_symmetry_space_group_name_H-M	'P1'
_symmetry_Int_Tables_number	1
_symmetry_cell_setting	triclinic
loop_
_symmetry_equiv_pos_as_xyz
  x,y,z
_cell_length_a	14.908308
_cell_length_b	14.908571
_cell_length_c	14.908520
_cell_angle_alpha	89.794039
_cell_angle_beta	96.360765
_cell_angle_gamma	89.824947
loop_
_atom_site_label
_atom_site_type_symbol
_atom_site_fract_x
_atom_site_fract_y
_atom_site_fract_z
Zn1	Zn	-0.613065	-1.316651	-0.470613
Zn2	Zn	-0.470429	-1.316549	-0.613252
Zn3	Zn	-0.453125	-1.176020	-0.453291
Zn4	Zn	-0.612023	-1.157642	-0.612180
O5	O	-0.537161	-1.241715	-0.537334
O6	O	-0.601822	-1.441995	-0.497231
O7	O	-0.341941	-1.305556	-0.585232
O8	O	-0.467536	-1.202409	-0.329399
O9	O	-0.497029	-1.441920	-0.602028
O10	O	-0.585043	-1.305730	-0.342124
O11	O	-0.329228	-1.202310	-0.467710
O12	O	-0.466525	-1.048225	-0.466671
O13	O	-0.738354	-1.171086	-0.600202
O14	O	-0.583267	-1.034722	-0.583406
O15	O	-0.739120	-1.287909	-0.496192
O16	O	-0.496018	-1.287736	-0.739300
O17	O	-0.600046	-1.170987	-0.738513
C18	C	-0.522906	-1.008970	-0.523043
C19	C	-0.516830	-0.909397	-0.516953
C20	C	-0.549818	-1.227379	-0.771629
C21	C	-0.555268	-1.221326	-0.871868
C22	C	-0.772372	-1.227459	-0.550010
C23	C	-0.872606	-1.221383	-0.555411
C24	C	-1.061752	-1.331614	-0.457236
C25	C	-1.155930	-1.325908	-0.462308
C26	C	-1.155141	-1.204264	-0.570623
C27	C	-1.060963	-1.209969	-0.565551
C28	C	-1.014272	-1.273647	-0.508856
C29	C	-0.920093	-1.279356	-0.503789
C30	C	-0.919305	-1.157708	-0.612099
C31	C	-1.013483	-1.152002	-0.617171
C32	C	-0.302864	-1.255972	-0.524646
C33	C	-0.202628	-1.262236	-0.519001
C34	C	-0.551472	-1.475370	-0.551681
C35	C	-0.557571	-1.574939	-0.557795
C36	C	-0.626831	-0.708277	-0.627234
C37	C	-0.621125	-0.614720	-0.621514
C38	C	-0.499719	-0.628723	-0.499789
C39	C	-0.505424	-0.722281	-0.505509
C40	C	-0.568981	-0.762054	-0.569235
C41	C	-0.574682	-0.855613	-0.574958
C42	C	-0.453280	-0.869615	-0.453230
C43	C	-0.447575	-0.776058	-0.447510
C44	C	-0.457284	-1.331634	-1.060998
C45	C	-0.462402	-1.325950	-1.155181
C46	C	-0.570626	-1.204279	-1.154420
C47	C	-0.565508	-1.209963	-1.060237
C48	C	-0.508834	-1.273642	-1.013529
C49	C	-0.503712	-1.279321	-0.919343
C50	C	-0.611940	-1.157655	-0.918584
C51	C	-0.617058	-1.151970	-1.012768
C52	C	-0.524476	-1.256131	-0.302127
C53	C	-0.519070	-1.262274	-0.201896
H54	H	-0.882079	-1.331207	-0.457627
Cl55	Cl	-0.432463	-1.359370	-0.860625
Cl56	Cl	-0.688303	-1.071924	-1.071495
H57	H	-1.194585	-1.373109	-0.420271
H58	H	-1.193173	-1.152420	-0.616780
Cl59	Cl	-0.706720	-0.758282	-0.707352
Cl60	Cl	-1.003053	-1.411672	-0.385975
Cl61	Cl	-0.367682	-0.726048	-0.367399
Cl62	Cl	-0.654579	-0.905613	-0.655071
Cl63	Cl	-0.676737	-1.084734	-0.858902
H64	H	-1.051511	-1.100156	-0.663328
H65	H	-0.880636	-1.110509	-0.654134
Cl66	Cl	-0.380544	-0.937226	-0.380319
H67	H	-0.420427	-1.373175	-1.193828
Cl68	Cl	-0.693855	-0.547117	-0.694429
Cl69	Cl	-0.419838	-0.578707	-0.419672
H70	H	-0.616773	-1.152440	-1.192467
H71	H	-0.411132	-1.383478	-1.022967
