data_functionalizedCrystal
_audit_creation_method	'MofGen! by Chris Wilmer'
_symmetry_space_group_name_H-M	'P1'
_symmetry_Int_Tables_number	1
_symmetry_cell_setting	triclinic
loop_
_symmetry_equiv_pos_as_xyz
  x,y,z
_cell_length_a	19.188930
_cell_length_b	15.995292
_cell_length_c	17.666332
_cell_angle_alpha	89.995356
_cell_angle_beta	90.020449
_cell_angle_gamma	96.693302
loop_
_atom_site_label
_atom_site_type_symbol
_atom_site_fract_x
_atom_site_fract_y
_atom_site_fract_z
O1	O	-0.926395	0.104532	-0.063197
O2	O	-0.723117	0.118605	-0.063145
O3	O	-0.830334	-0.010343	-0.063162
O4	O	-0.819179	0.233480	-0.063180
O5	O	-0.830320	-0.010339	0.062735
O6	O	-0.723103	0.118609	0.062751
O7	O	-0.926381	0.104537	0.062700
Cu8	Cu	-0.824741	0.111573	0.074221
Cu9	Cu	-0.824758	0.111568	-0.074666
O10	O	-0.819164	0.233484	0.062716
C11	C	-0.697098	0.118151	-0.000190
C12	C	-0.619590	0.116783	-0.000170
C13	C	-0.829873	-0.041535	-0.000212
C14	C	-0.828512	-0.134483	-0.000208
C15	C	-0.952400	0.104990	-0.000257
C16	C	-1.029908	0.106358	-0.000282
C17	C	-0.574846	0.192445	-0.000188
C18	C	-0.502019	0.191160	-0.000196
C19	C	-0.473940	0.114208	-0.000202
C20	C	-0.518694	0.038536	-0.000180
C21	C	-0.591520	0.039824	-0.000164
N22	N	-0.365825	0.055387	-0.043076
N23	N	-0.296644	0.054169	-0.043093
C24	C	-0.254522	0.110325	-0.000248
N25	N	-0.284194	0.167758	0.042604
N26	N	-0.353382	0.168978	0.042618
C27	C	-0.394974	0.112804	-0.000219
C28	C	-0.130810	0.184599	-0.000274
C29	C	-0.057982	0.183311	-0.000277
C30	C	-0.074659	0.030685	-0.000269
C31	C	-0.147485	0.031975	-0.000257
C32	C	-0.175556	0.108935	-0.000264
C33	C	-0.819625	0.264676	-0.000235
C34	C	-0.820987	0.357624	-0.000244
N35	N	-0.824734	0.111576	0.178940
C36	C	-0.825991	0.695344	-0.000220
C37	C	-0.748605	0.672315	0.000078
C38	C	-0.747134	0.575645	-0.000213
C39	C	-0.823508	0.527797	-0.000232
C40	C	-0.862205	0.556766	-0.072130
C41	C	-0.863137	0.653553	-0.072183
C42	C	-0.864701	0.653386	0.070985
C43	C	-0.861833	0.556904	0.071928
C44	C	-0.822108	0.433106	-0.000240
C45	C	-0.827392	0.790035	-0.000217
N46	N	-0.824770	0.111558	-0.179386
C47	C	-0.867104	0.162210	0.780974
C48	C	-0.867097	0.162218	0.701727
C49	C	-0.824764	0.111560	0.662122
C50	C	-0.782421	0.060905	0.701771
C51	C	-0.782424	0.060904	0.781017
N52	N	-0.822900	0.038212	0.537704
N53	N	-0.822901	0.038215	0.462424
C54	C	-0.824752	0.111559	0.423358
N55	N	-0.826615	0.184902	0.462416
N56	N	-0.826617	0.184898	0.537704
C57	C	-0.824756	0.111555	0.576193
C58	C	-0.867081	0.162224	0.297789
C59	C	-0.867069	0.162234	0.218540
C60	C	-0.782396	0.060913	0.218586
C61	C	-0.782404	0.060911	0.297833
C62	C	-0.824750	0.111565	0.337430
H63	H	-0.597696	0.255112	-0.000195
H64	H	-0.051798	-0.031971	-0.000320
H65	H	-0.183917	-0.029637	-0.000247
C66	C	-0.913676	0.217926	0.658114
H67	H	-0.938900	0.248087	0.693046
H68	H	-0.885067	0.256551	0.627203
H69	H	-0.945811	0.183497	0.627195
C70	C	-0.640740	-0.043408	-0.000154
H71	H	-0.613590	-0.089424	-0.000163
H72	H	-0.669478	-0.046079	0.043752
H73	H	-0.669513	-0.046076	-0.044060
H74	H	-0.747934	0.019661	0.330108
C75	C	-0.487810	-0.046108	-0.000191
H76	H	-0.438029	-0.036039	-0.000211
H77	H	-0.503145	-0.077253	0.043716
H78	H	-0.503196	-0.077250	-0.044095
C79	C	-0.706190	0.550081	0.069407
H80	H	-0.690305	0.598820	0.098121
H81	H	-0.735980	0.512175	0.099816
H82	H	-0.667010	0.523491	0.053231
C83	C	-0.452792	0.274392	-0.000227
H84	H	-0.479940	0.320409	-0.000235
H85	H	-0.424007	0.277073	0.043665
H86	H	-0.424065	0.277046	-0.044147
C87	C	-0.938126	0.513434	-0.075769
H88	H	-0.946917	0.477201	-0.033372
H89	H	-0.969769	0.554889	-0.075106
H90	H	-0.944525	0.481462	-0.121071
C91	C	-0.831936	0.691654	0.144607
H92	H	-0.794338	0.733584	0.132605
H93	H	-0.866502	0.716288	0.172682
H94	H	-0.814734	0.648694	0.173948
H95	H	-0.718769	0.700419	0.051640
H96	H	-0.153666	0.247264	-0.000267
H97	H	-0.833656	0.538434	0.125118
H98	H	-0.901558	0.203474	0.330030
C99	C	-0.939783	0.672939	-0.076616
H100	H	-0.940871	0.732167	-0.076674
H101	H	-0.960714	0.649614	-0.121792
H102	H	-0.965046	0.649003	-0.034107
C103	C	-0.735853	0.005186	0.658209
H104	H	-0.741918	0.012435	0.605335
H105	H	-0.688082	0.020891	0.671216
H106	H	-0.748837	-0.052150	0.671195
C107	C	-0.913638	0.217953	0.174932
H108	H	-0.907566	0.210707	0.122064
H109	H	-0.961410	0.202246	0.187898
H110	H	-0.900656	0.275287	0.187923
C111	C	-0.008763	0.266544	-0.000297
H112	H	-0.035914	0.312558	-0.000305
H113	H	0.020015	0.269222	0.043600
H114	H	0.019970	0.269206	-0.044211
C115	C	-0.937155	0.512131	0.077754
H116	H	-0.946255	0.474935	0.036069
H117	H	-0.942203	0.481039	0.123632
H118	H	-0.969483	0.552814	0.077132
H119	H	-0.718949	0.701445	-0.051182
H120	H	-0.716663	0.557358	-0.051833
C121	C	-0.735858	0.005184	0.824626
H122	H	-0.741921	0.012442	0.877494
H123	H	-0.748837	-0.052147	0.811637
H124	H	-0.688082	0.020894	0.811661
C125	C	-0.826942	0.689927	-0.144766
H126	H	-0.811806	0.645530	-0.173940
H127	H	-0.859111	0.717842	-0.173515
H128	H	-0.787567	0.728838	-0.131617
H129	H	-0.747924	0.019671	0.186340
H130	H	-0.901584	0.203458	0.813209
H131	H	-0.835344	0.536812	-0.125627
H132	H	-0.921662	0.667173	0.071461
