data_functionalizedCrystal
_audit_creation_method	'MofGen! by Chris Wilmer'
_symmetry_space_group_name_H-M	'P1'
_symmetry_Int_Tables_number	1
_symmetry_cell_setting	triclinic
loop_
_symmetry_equiv_pos_as_xyz
  x,y,z
_cell_length_a	10.723023
_cell_length_b	23.532407
_cell_length_c	9.198806
_cell_angle_alpha	89.992171
_cell_angle_beta	89.996513
_cell_angle_gamma	83.658113
loop_
_atom_site_label
_atom_site_type_symbol
_atom_site_fract_x
_atom_site_fract_y
_atom_site_fract_z
O1	O	1.654700	0.079869	-0.120894
O2	O	1.291309	0.087514	-0.120902
O3	O	1.483963	0.000831	-0.120871
O4	O	1.462047	0.166552	-0.120925
O5	O	1.483948	0.000831	0.120914
O6	O	1.291294	0.087514	0.120883
O7	O	1.654685	0.079868	0.120891
Cu8	Cu	1.472988	0.083691	0.142964
Cu9	Cu	1.473006	0.083692	-0.142975
O10	O	1.462032	0.166552	0.120860
C11	C	1.244820	0.086958	-0.000010
C12	C	1.106317	0.085293	-0.000012
C13	C	1.044560	0.084551	0.125239
C14	C	0.901411	0.082831	0.125240
C15	C	1.483397	-0.020389	0.000025
C16	C	1.481719	-0.083617	0.000036
C17	C	1.585203	-0.482049	-0.000041
C18	C	1.583644	-0.541459	-0.000052
O19	O	1.679575	-0.577581	-0.000104
N20	N	1.469112	-0.564828	-0.000054
C21	C	1.356131	-0.528783	-0.000059
O22	O	1.258569	-0.554116	-0.000062
C23	C	1.357691	-0.469374	-0.000058
C24	C	1.472231	-0.446009	-0.000042
C25	C	1.699734	-0.458682	-0.000027
C26	C	1.701292	-0.399276	-0.000013
C27	C	1.588320	-0.363236	-0.000014
C28	C	1.473789	-0.386602	-0.000028
C29	C	1.244711	-0.433331	-0.000074
C30	C	1.246281	-0.373918	-0.000074
C31	C	1.360821	-0.350552	-0.000058
C32	C	1.362375	-0.291156	-0.000015
N33	N	1.476907	-0.267787	-0.000014
C34	C	1.589880	-0.303827	-0.000013
C35	C	1.352864	-0.653547	-0.000063
C36	C	1.351302	-0.712955	-0.000053
C37	C	1.578816	-0.725627	-0.000049
C38	C	1.580376	-0.666217	-0.000049
C39	C	1.467396	-0.630178	-0.000061
C40	C	1.593143	-0.179069	0.000017
C41	C	1.594692	-0.119657	0.000037
C42	C	1.367178	-0.106991	0.000025
C43	C	1.365629	-0.166398	0.000013
C44	C	1.478622	-0.202436	0.000004
O45	O	1.266495	-0.254999	0.000030
O46	O	1.687425	-0.278486	-0.000029
C47	C	1.701175	0.080425	-0.000004
C48	C	1.839677	0.082089	-0.000012
C49	C	1.462597	0.187772	-0.000039
C50	C	1.464275	0.251000	-0.000060
N51	N	1.472985	0.083691	0.344078
N52	N	1.473020	0.083688	-0.344089
C53	C	1.553879	0.047134	0.416288
C54	C	1.553899	0.047132	0.583700
H55	H	1.687968	-0.100636	0.000054
H56	H	1.791735	-0.488021	-0.000032
H57	H	1.097667	0.085186	0.232470
O58	O	1.390252	0.121049	0.417945
C59	C	1.315054	0.155049	0.318300
H60	H	1.313693	0.131747	0.209768
H61	H	1.355294	0.197466	0.302149
C62	C	1.182062	0.194990	0.511182
C63	C	1.180383	0.166367	0.377884
H64	H	1.098992	0.201974	0.547937
H65	H	1.232727	0.172085	0.578316
H66	H	1.215602	0.230334	0.497704
H67	H	1.146859	0.131021	0.391367
H68	H	1.129709	0.189267	0.310753
O69	O	1.636696	0.009848	0.657703
C70	C	1.760217	0.019434	0.620557
H71	H	1.760573	0.065001	0.578610
H72	H	1.797134	-0.012048	0.532320
C73	C	1.844357	-0.045090	0.807360
C74	C	1.844796	0.010879	0.755851
H75	H	1.896532	-0.050370	0.890812
H76	H	1.761140	-0.051551	0.832383
H77	H	1.875119	-0.071318	0.733816
H78	H	1.814021	0.037105	0.829387
H79	H	1.928011	0.017343	0.730843
H80	H	1.670804	-0.754981	-0.000054
H81	H	1.623118	0.015836	0.354173
H82	H	0.892778	0.082731	-0.107249
H83	H	0.848301	0.082196	0.232472
H84	H	1.403763	0.114989	0.593823
H85	H	1.053212	0.084654	-0.107243
H86	H	1.685153	-0.208405	0.000004
H87	H	1.794562	-0.380258	-0.000006
O88	O	1.243188	-0.618482	0.000139
C89	C	1.237254	-0.583756	0.125382
H90	H	1.336250	-0.580354	0.167129
H91	H	1.180522	-0.603534	0.213067
C92	C	1.052094	-0.527879	0.036075
C93	C	1.173683	-0.523697	0.087342
H94	H	1.012875	-0.490832	0.012614
H95	H	1.056088	-0.551275	-0.048302
H96	H	1.004833	-0.544363	0.109154
H97	H	1.220946	-0.507220	0.014257
H98	H	1.169695	-0.500296	0.171706
O99	O	1.691749	-0.643616	-0.000112
C100	C	1.791117	-0.688173	-0.000071
H101	H	1.756647	-0.728660	-0.045839
H102	H	1.825923	-0.696445	0.115927
C103	C	1.941545	-0.621250	-0.038681
C104	C	1.899211	-0.670977	-0.094906
H105	H	2.008226	-0.610643	-0.097174
H106	H	1.874600	-0.591231	-0.038704
H107	H	1.970541	-0.628150	0.057982
H108	H	1.870202	-0.664074	-0.191560
H109	H	1.966154	-0.700994	-0.094902
H110	H	1.151441	-0.452344	-0.000096
O111	O	1.240006	-0.735622	-0.000311
C112	C	1.171183	-0.717223	-0.125514
H113	H	1.238182	-0.704596	-0.213032
H114	H	1.101168	-0.678786	-0.097198
C115	C	1.017793	-0.781613	-0.074818
C116	C	1.100083	-0.766109	-0.182314
H117	H	0.973930	-0.811767	-0.109852
H118	H	1.064157	-0.794007	0.009537
H119	H	0.959458	-0.749578	-0.051231
H120	H	1.158426	-0.798142	-0.205886
H121	H	1.053727	-0.753722	-0.266674
H122	H	1.154277	-0.344577	-0.000087
H123	H	1.272362	-0.185423	0.000041
H124	H	1.275199	-0.077636	0.000030
