data_functionalizedCrystal
_audit_creation_method	'MofGen! by Chris Wilmer'
_symmetry_space_group_name_H-M	'P1'
_symmetry_Int_Tables_number	1
_symmetry_cell_setting	triclinic
loop_
_symmetry_equiv_pos_as_xyz
  x,y,z
_cell_length_a	16.974897
_cell_length_b	14.519709
_cell_length_c	12.996460
_cell_angle_alpha	89.992910
_cell_angle_beta	86.342839
_cell_angle_gamma	83.540278
loop_
_atom_site_label
_atom_site_type_symbol
_atom_site_fract_x
_atom_site_fract_y
_atom_site_fract_z
O1	O	1.049302	0.117611	-0.172855
O2	O	0.819120	0.132568	-0.153710
O3	O	0.940314	-0.009168	-0.163781
O4	O	0.928108	0.259347	-0.162784
O5	O	0.940301	-0.009176	0.007354
O6	O	0.819107	0.132560	0.017425
O7	O	1.049290	0.117604	-0.001720
Cu8	Cu	0.934197	0.125081	0.023478
Cu9	Cu	0.934212	0.125090	-0.178908
O10	O	0.928095	0.259339	0.008351
C11	C	0.789654	0.131992	-0.065692
C12	C	0.701876	0.130279	-0.058391
C13	C	0.660638	0.129480	-0.148239
C14	C	0.578159	0.127885	-0.141363
C15	C	0.536922	0.127081	-0.044639
C16	C	0.578166	0.127883	0.045216
C17	C	0.660642	0.129485	0.038339
C18	C	0.290253	0.122296	-0.014070
C19	C	0.207772	0.120691	-0.007200
C20	C	0.207770	0.120695	-0.193780
C21	C	0.290249	0.122291	-0.200648
C22	C	0.331485	0.123098	-0.110793
N23	N	0.452616	0.125448	-0.037609
N24	N	0.415789	0.124738	-0.117824
C25	C	0.939739	-0.043530	-0.078166
C26	C	0.938034	-0.145906	-0.078024
C27	C	0.931759	-0.520782	-0.077528
C28	C	0.933501	-0.416480	-0.077665
C29	C	0.934896	-0.333347	-0.077775
C30	C	0.936639	-0.229038	-0.077914
C31	C	1.078755	0.118179	-0.089740
C32	C	1.166533	0.119892	-0.097048
C33	C	0.928671	0.293701	-0.077266
C34	C	0.930375	0.396077	-0.077416
N35	N	0.934192	0.125074	0.165826
N36	N	0.934223	0.125090	-0.321256
C37	C	0.934211	0.125091	0.585639
C38	C	0.934204	0.125090	0.468834
C39	C	0.934202	0.125083	0.375736
C40	C	0.934194	0.125080	0.258924
H41	H	0.544583	0.127234	0.123971
H42	H	0.694217	0.130139	0.111503
H43	H	0.323819	0.122946	0.059096
H44	H	0.174196	0.120063	0.071568
H45	H	0.544586	0.127235	-0.214527
O46	O	0.700565	0.130302	-0.242280
C47	C	0.691854	0.130096	-0.426614
C48	C	0.646539	0.129179	-0.320177
H49	H	0.648196	0.129168	-0.489623
H50	H	0.723302	0.195370	-0.433974
H51	H	0.737628	0.066354	-0.435038
H52	H	0.600728	0.192875	-0.311681
H53	H	0.615145	0.063863	-0.312865
H54	H	0.323820	0.122939	-0.279411
H55	H	0.174187	0.120041	-0.266935
