data_functionalizedCrystal
_audit_creation_method	'MofGen! by Chris Wilmer'
_symmetry_space_group_name_H-M	'P1'
_symmetry_Int_Tables_number	1
_symmetry_cell_setting	triclinic
loop_
_symmetry_equiv_pos_as_xyz
  x,y,z
_cell_length_a	17.077404
_cell_length_b	29.839131
_cell_length_c	17.077396
_cell_angle_alpha	89.968087
_cell_angle_beta	89.980499
_cell_angle_gamma	90.041645
loop_
_atom_site_label
_atom_site_type_symbol
_atom_site_fract_x
_atom_site_fract_y
_atom_site_fract_z
Zn1	Zn	1.199954	-0.178851	-0.443824
Zn2	Zn	1.199818	-0.253981	-0.312550
Zn3	Zn	1.068685	-0.178866	-0.312572
Zn4	Zn	1.068611	-0.253955	-0.443774
O5	O	1.134267	-0.216413	-0.378180
O6	O	1.309782	-0.188821	-0.426422
O7	O	1.182398	-0.244035	-0.202706
O8	O	1.086186	-0.115997	-0.330013
O9	O	1.309683	-0.244020	-0.329976
O10	O	1.182628	-0.115986	-0.426443
O11	O	1.086055	-0.188848	-0.202722
O12	O	0.958829	-0.188822	-0.329964
O13	O	1.086059	-0.243974	-0.553627
O14	O	0.958774	-0.243989	-0.426358
O15	O	1.182556	-0.188796	-0.553664
O16	O	1.182325	-0.316845	-0.329927
O17	O	1.085928	-0.316825	-0.426336
C18	C	0.930319	-0.216405	-0.378158
C19	C	0.843069	-0.216412	-0.378168
C20	C	1.134125	-0.333136	-0.378141
C21	C	1.134136	-0.383070	-0.378151
C22	C	0.802071	-0.245181	-0.428279
C23	C	0.720091	-0.245182	-0.428292
C24	C	0.679110	-0.216416	-0.378188
C25	C	0.720114	-0.187644	-0.328074
C26	C	0.802093	-0.187641	-0.328066
C27	C	0.549244	-0.187653	-0.328093
C28	C	0.467259	-0.187657	-0.328100
C29	C	0.467242	-0.245194	-0.428319
C30	C	0.549221	-0.245191	-0.428311
C31	C	0.590219	-0.216420	-0.378196
C32	C	1.184552	-0.692711	-0.328053
C33	C	1.184649	-0.880384	-0.328083
O34	O	1.227402	-0.904647	-0.285459
N35	N	1.134430	-0.903855	-0.378239
C36	C	1.084186	-0.880405	-0.428394
O37	O	1.041479	-0.904675	-0.471061
C38	C	1.084094	-0.692733	-0.428367
C39	C	1.134311	-0.669264	-0.378203
C40	C	1.234766	-0.669242	-0.277893
C41	C	1.234738	-0.622327	-0.277883
C42	C	1.184497	-0.598880	-0.328033
C43	C	1.134283	-0.622349	-0.378193
C44	C	1.033855	-0.669284	-0.478526
C45	C	1.033837	-0.622363	-0.478516
C46	C	1.084055	-0.598894	-0.428352
C47	C	1.084014	-0.551987	-0.428332
N48	N	1.134233	-0.528516	-0.378177
C49	C	1.184475	-0.551962	-0.328027
C50	C	1.084237	-0.978936	-0.428404
C51	C	1.084259	-1.025854	-0.428410
C52	C	1.184723	-1.025829	-0.328100
C53	C	1.184697	-0.978911	-0.328090
C54	C	1.134457	-0.955465	-0.378248
C55	C	1.184412	-0.453437	-0.328009
C56	C	1.184378	-0.406517	-0.328001
C57	C	1.083917	-0.406545	-0.428314
C58	C	1.083948	-0.453461	-0.428319
C59	C	1.134202	-0.476905	-0.378164
O60	O	1.041290	-0.527695	-0.470941
O61	O	1.227188	-0.527685	-0.285378
C62	C	1.184580	-0.739627	-0.328063
C63	C	1.134366	-0.763095	-0.378223
C64	C	1.084125	-0.739649	-0.428373
C65	C	1.134388	-0.810013	-0.378229
C66	C	1.184630	-0.833460	-0.328079
C67	C	1.234849	-0.809989	-0.277923
C68	C	1.234822	-0.763073	-0.277913
C69	C	1.033905	-0.763120	-0.478529
C70	C	1.033937	-0.810035	-0.478534
C71	C	1.084178	-0.833482	-0.428384
C72	C	1.339011	-0.216422	-0.378202
C73	C	1.426261	-0.216425	-0.378212
C74	C	1.134314	-0.216380	-0.582924
C75	C	1.134335	-0.216366	-0.670174
C76	C	1.134431	-0.099235	-0.378236
C77	C	1.134500	-0.049300	-0.378260
C78	C	1.184582	-0.187632	-0.711185
C79	C	1.184592	-0.187617	-0.793165
C80	C	1.134357	-0.216339	-0.834134
C81	C	1.084104	-0.245074	-0.793117
C82	C	1.084091	-0.245086	-0.711138
C83	C	1.084135	-0.245047	-0.963987
C84	C	1.084149	-0.245035	-1.045972
C85	C	1.184636	-0.187578	-1.046014
C86	C	1.184624	-0.187590	-0.964035
C87	C	1.134371	-0.216326	-0.923025
C88	C	1.134265	-0.216414	-0.174232
C89	C	1.134397	-0.216301	-0.086983
H90	H	0.835432	-0.268607	-0.469077
N91	N	0.425409	-0.158269	-0.276919
N92	N	0.462021	-0.132579	-0.232185
H93	H	0.432465	-0.111823	-0.196039
H94	H	0.582622	-0.164220	-0.287291
N95	N	1.032660	-0.477435	-0.479569
N96	N	1.060270	-0.503573	-0.529627
H97	H	1.024052	-0.520502	-0.565829
N98	N	0.678225	-0.274569	-0.479489
N99	N	0.714824	-0.300251	-0.524219
H100	H	0.685257	-0.321007	-0.560382
N101	N	0.425356	-0.274586	-0.479498
N102	N	0.352161	-0.274587	-0.479498
H103	H	0.322574	-0.295347	-0.515637
N104	N	0.591071	-0.274581	-0.479487
N105	N	0.554459	-0.300267	-0.524227
H106	H	0.584015	-0.321024	-0.560373
N107	N	1.032827	-0.274370	-1.087817
N108	N	1.060386	-0.302999	-1.133553
H109	H	1.024133	-0.323717	-1.163101
H110	H	1.275632	-0.603222	-0.237037
N111	N	0.678255	-0.158254	-0.276906
N112	N	0.632556	-0.129648	-0.304623
H113	H	0.602994	-0.108890	-0.268484
N114	N	1.286088	-0.693196	-0.226669
N115	N	1.336112	-0.719338	-0.254325
H116	H	1.372357	-0.736253	-0.218142
H117	H	0.835472	-0.164213	-0.287265
H118	H	0.992926	-0.603275	-0.519363
H119	H	1.225336	-0.472520	-0.287169
N120	N	1.235677	-0.382552	-0.276747
N121	N	1.280531	-0.403496	-0.231976
H122	H	1.316760	-0.386572	-0.195778
N123	N	1.236005	-0.954939	-0.276863
N124	N	1.286003	-0.928723	-0.304521
H125	H	1.322243	-0.911795	-0.268341
H126	H	1.043323	-0.959849	-0.469250
H127	H	1.225552	-0.164179	-1.079409
H128	H	1.225632	-1.044928	-0.287266
N129	N	1.032946	-1.049816	-0.479644
N130	N	0.988093	-1.028870	-0.524414
H131	H	0.951853	-1.045792	-0.560603
H132	H	0.992958	-0.688384	-0.519372
H133	H	1.043008	-0.387448	-0.469143
H134	H	1.275713	-0.743969	-0.237065
N135	N	1.032793	-0.274399	-0.922107
N136	N	0.987944	-0.300042	-0.958693
H137	H	0.951686	-0.320772	-0.929115
N138	N	1.032770	-0.274404	-0.834958
N139	N	0.960341	-0.271412	-0.825790
H140	H	0.924082	-0.292124	-0.855341
N141	N	1.286160	-0.833951	-0.226695
N142	N	1.286168	-0.875841	-0.226718
H143	H	1.322405	-0.892768	-0.190542
N144	N	0.982625	-0.833998	-0.529778
N145	N	0.937774	-0.813052	-0.574549
H146	H	0.901539	-0.829974	-0.610744
H147	H	0.992994	-0.744033	-0.519368
N148	N	1.235907	-0.158293	-0.669353
N149	N	1.280766	-0.132640	-0.705983
H150	H	1.317015	-0.111917	-0.676442
N151	N	1.235924	-0.158263	-0.835044
N152	N	1.280777	-0.132624	-0.798456
H153	H	1.317033	-0.111891	-0.828032
H154	H	1.225534	-0.164205	-0.930681
N155	N	1.032754	-0.274437	-0.669256
N156	N	0.987902	-0.300079	-0.705842
H157	H	0.951640	-0.320807	-0.676264
