data_functionalizedCrystal
_audit_creation_method	'MofGen! by Chris Wilmer'
_symmetry_space_group_name_H-M	'P1'
_symmetry_Int_Tables_number	1
_symmetry_cell_setting	triclinic
loop_
_symmetry_equiv_pos_as_xyz
  x,y,z
_cell_length_a	19.805407
_cell_length_b	19.121063
_cell_length_c	19.805399
_cell_angle_alpha	92.411105
_cell_angle_beta	89.980427
_cell_angle_gamma	92.469032
loop_
_atom_site_label
_atom_site_type_symbol
_atom_site_fract_x
_atom_site_fract_y
_atom_site_fract_z
Zn1	Zn	1.023234	-0.279631	-0.394203
Zn2	Zn	1.523234	0.220369	0.105797
Zn3	Zn	1.018317	-0.397083	-0.285838
Zn4	Zn	1.518317	0.102917	0.214162
Zn5	Zn	0.910048	-0.279650	-0.281028
Zn6	Zn	1.410048	0.220350	0.218972
Zn7	Zn	0.905182	-0.397046	-0.398983
Zn8	Zn	1.405182	0.102954	0.101017
O9	O	0.964195	-0.338352	-0.340013
O10	O	1.464195	0.161648	0.159987
O11	O	1.117298	-0.295218	-0.379840
O12	O	1.617298	0.204782	0.120160
O13	O	1.003934	-0.381529	-0.190484
O14	O	1.503934	0.118471	0.309516
O15	O	0.929156	-0.181363	-0.292028
O16	O	1.429156	0.318637	0.207972
O17	O	1.113686	-0.381510	-0.300225
O18	O	1.613686	0.118490	0.199775
O19	O	1.012313	-0.181348	-0.375177
O20	O	1.512313	0.318652	0.124823
O21	O	0.924388	-0.295251	-0.186951
O22	O	1.424388	0.204749	0.313049
O23	O	0.814686	-0.295215	-0.296663
O24	O	1.314686	0.204785	0.203337
O25	O	0.920863	-0.381447	-0.493065
O26	O	1.420863	0.118553	0.006935
O27	O	0.811111	-0.381465	-0.383324
O28	O	1.311111	0.118535	0.116676
O29	O	1.007595	-0.295182	-0.489553
O30	O	1.507595	0.204818	0.010447
O31	O	0.999216	-0.495363	-0.304860
O32	O	1.499216	0.004637	0.195140
O33	O	0.916096	-0.495335	-0.387987
O34	O	1.416096	0.004665	0.112013
C35	C	0.788340	-0.338339	-0.339991
C36	C	1.288340	0.161661	0.160009
C37	C	0.713107	-0.338350	-0.339998
C38	C	1.213107	0.161650	0.160002
C39	C	0.675917	-0.383328	-0.385055
C40	C	1.175917	0.116672	0.114945
C41	C	0.605228	-0.383329	-0.385064
C42	C	1.105228	0.116671	0.114936
C43	C	0.571732	-0.338356	-0.340013
C44	C	1.071732	0.161644	0.159987
C45	C	0.608927	-0.293373	-0.294954
C46	C	1.108927	0.206627	0.205046
C47	C	0.679614	-0.293368	-0.294948
C48	C	1.179614	0.206632	0.205052
C49	C	0.323853	-0.293388	-0.294977
C50	C	0.823853	0.206612	0.205023
C51	C	0.253161	-0.293397	-0.294985
C52	C	0.753161	0.206603	0.205015
C53	C	0.249467	-0.383349	-0.385093
C54	C	0.749467	0.116651	0.114907
C55	C	0.320154	-0.383345	-0.385087
C56	C	0.820154	0.116655	0.114913
C57	C	0.357344	-0.338360	-0.340031
C58	C	0.857344	0.161640	0.159969
C59	C	0.433992	-0.338358	-0.340022
C60	C	0.933992	0.161642	0.159978
C61	C	0.495084	-0.338360	-0.340018
C62	C	0.995084	0.161640	0.159982
C63	C	0.956613	-0.520833	-0.347479
C64	C	1.456613	-0.020833	0.152521
C65	C	0.953431	-0.598899	-0.350696
C66	C	1.453431	-0.098899	0.149304
C67	C	0.995246	-0.635566	-0.308963
C68	C	1.495246	-0.135566	0.191037
C69	C	0.992258	-0.708917	-0.311992
C70	C	1.492258	-0.208917	0.188008
C71	C	0.947451	-0.745601	-0.356752
C72	C	1.447451	-0.245601	0.143248
C73	C	0.905634	-0.708929	-0.398489
C74	C	1.405634	-0.208929	0.101511
C75	C	0.908626	-0.635579	-0.395463
C76	C	1.408626	-0.135579	0.104537
C77	C	0.936252	-0.967071	-0.368056
C78	C	1.436252	-0.467071	0.131944
C79	C	0.933262	-1.040426	-0.371078
C80	C	1.433262	-0.540426	0.128922
C81	C	1.019887	-1.040409	-0.284581
C82	C	1.519887	-0.540409	0.215419
C83	C	1.022872	-0.967058	-0.281556
C84	C	1.522872	-0.467058	0.218444
C85	C	0.981058	-0.930393	-0.323296
C86	C	1.481058	-0.430393	0.176704
C87	C	0.944394	-0.820578	-0.359848
C88	C	1.444394	-0.320578	0.140152
C89	C	0.984119	-0.855417	-0.320203
C90	C	1.484119	-0.355417	0.179797
C91	C	1.140737	-0.338366	-0.340036
C92	C	1.640737	0.161634	0.159964
C93	C	1.215969	-0.338372	-0.340046
C94	C	1.715969	0.161628	0.159954
C95	C	0.964235	-0.338308	-0.516554
C96	C	1.464235	0.161692	-0.016554
C97	C	0.964252	-0.338289	-0.591785
C98	C	1.464252	0.161711	-0.091785
C99	C	0.971825	-0.155159	-0.332532
C100	C	1.471825	0.344841	0.167468
C101	C	0.975077	-0.077093	-0.329345
C102	C	1.475077	0.422907	0.170655
C103	C	1.009414	-0.293369	-0.625302
C104	C	1.509414	0.206631	-0.125302
C105	C	1.009422	-0.293349	-0.695989
C106	C	1.509422	0.206651	-0.195989
C107	C	0.964270	-0.338253	-0.733159
C108	C	1.464270	0.161747	-0.233159
C109	C	0.919103	-0.383175	-0.699638
C110	C	1.419103	0.116825	-0.199638
C111	C	0.919093	-0.383191	-0.628952
C112	C	1.419093	0.116809	-0.128952
C113	C	0.919144	-0.383109	-0.984709
C114	C	1.419144	0.116891	-0.484709
C115	C	0.919159	-0.383091	-1.055400
C116	C	1.419159	0.116909	-0.555400
C117	C	1.009474	-0.293267	-1.051747
C118	C	1.509474	0.206733	-0.551747
C119	C	1.009463	-0.293283	-0.981060
C120	C	1.509463	0.206717	-0.481060
C121	C	0.964294	-0.338202	-0.947545
C122	C	1.464294	0.161798	-0.447545
C123	C	0.964285	-0.338223	-0.870897
C124	C	1.464285	0.161777	-0.370897
C125	C	0.964282	-0.338236	-0.809806
C126	C	1.464282	0.161764	-0.309806
C127	C	0.964197	-0.338346	-0.164157
C128	C	1.464197	0.161654	0.335843
C129	C	0.964319	-0.338167	-0.088918
C130	C	1.464319	0.161833	0.411082
H131	H	0.347424	-0.419970	-0.421771
H132	H	0.847424	0.080030	0.078229
C133	C	0.856966	-0.748628	-0.447156
C134	C	1.356966	-0.248628	0.052844
C135	C	0.821001	-0.700814	-0.483070
C136	C	1.321001	-0.200814	0.016930
C137	C	0.776167	-0.737357	-0.527914
C138	C	1.276167	-0.237357	-0.027914
H139	H	0.826260	-0.777287	-0.422496
H140	H	1.326260	-0.277287	0.077504
H141	H	0.881662	-0.777184	-0.477885
H142	H	1.381662	-0.277184	0.022115
H143	H	0.796307	-0.672270	-0.452345
H144	H	1.296307	-0.172270	0.047655
H145	H	0.851689	-0.672153	-0.507744
H146	H	1.351689	-0.172153	-0.007744
H147	H	0.800862	-0.765913	-0.558643
H148	H	1.300862	-0.265913	-0.058643
H149	H	0.745465	-0.766015	-0.503248
H150	H	1.245465	-0.266015	-0.003248
H151	H	0.751763	-0.704921	-0.552292
H152	H	1.251763	-0.204921	-0.052292
H153	H	1.059358	-0.937192	-0.245110
H154	H	1.559358	-0.437192	0.254890
C155	C	1.058467	-0.244538	-0.585068
C156	C	1.558467	0.255462	-0.085068
C157	C	1.098006	-0.205181	-0.629553
C158	C	1.598006	0.294819	-0.129553
C159	C	1.143194	-0.160181	-0.592516
C160	C	1.643194	0.339819	-0.092516
H161	H	1.086899	-0.271334	-0.558590
H162	H	1.586899	0.228666	-0.058590
H163	H	1.033862	-0.213902	-0.556252
H164	H	1.533862	0.286098	-0.056252
H165	H	1.122610	-0.235813	-0.658357
H166	H	1.622610	0.264187	-0.158357
H167	H	1.069592	-0.178371	-0.656032
H168	H	1.569592	0.321629	-0.156032
H169	H	1.118589	-0.129545	-0.563700
H170	H	1.618589	0.370455	-0.063700
H171	H	1.171621	-0.186983	-0.566039
H172	H	1.671621	0.313017	-0.066039
H173	H	1.170022	-0.133468	-0.622693
H174	H	1.670022	0.366532	-0.122693
H175	H	0.225890	-0.256770	-0.258298
H176	H	0.725890	0.243230	0.241702
C177	C	1.058435	-0.244515	-1.088259
C178	C	1.558435	0.255485	-0.588259
C179	C	1.048770	-0.254092	-1.158118
C180	C	1.548770	0.245908	-0.658118
C181	C	1.093854	-0.209190	-1.191772
C182	C	1.593854	0.290810	-0.691772
H183	H	1.103512	-0.254757	-1.077184
H184	H	1.603512	0.245243	-0.577184
H185	H	1.050488	-0.197312	-1.074781
H186	H	1.550488	0.302688	-0.574781
H187	H	1.056723	-0.301284	-1.171591
H188	H	1.556723	0.198716	-0.671591
H189	H	1.003703	-0.243845	-1.169213
H190	H	1.503703	0.256155	-0.669213
H191	H	1.085907	-0.161987	-1.178294
H192	H	1.585907	0.338013	-0.678294
H193	H	1.138928	-0.219436	-1.180692
H194	H	1.638928	0.280564	-0.680692
H195	H	1.087298	-0.215677	-1.239175
H196	H	1.587298	0.284323	-0.739175
H197	H	0.882310	-0.419762	-0.601663
H198	H	1.382310	0.080238	-0.101663
H199	H	0.882388	-0.419658	-1.085662
H200	H	1.382388	0.080342	-0.585662
H201	H	1.046232	-0.256720	-0.950800
H202	H	1.546232	0.243280	-0.450800
H203	H	1.026308	-0.738768	-0.278008
H204	H	1.526308	-0.238768	0.221992
C205	C	0.209056	-0.432068	-0.434099
C206	C	0.709056	0.067932	0.065901
C207	C	0.170158	-0.392360	-0.475937
C208	C	0.670158	0.107640	0.024063
C209	C	0.132931	-0.437214	-0.521091
C210	C	0.632931	0.062786	-0.021091
H211	H	0.180143	-0.462649	-0.409492
H212	H	0.680143	0.037351	0.090508
H213	H	0.239108	-0.458841	-0.460966
H214	H	0.739108	0.041159	0.039034
H215	H	0.140109	-0.365599	-0.449072
H216	H	0.640109	0.134401	0.050928
H217	H	0.199054	-0.361781	-0.500559
H218	H	0.699054	0.138219	-0.000559
H219	H	0.162983	-0.463988	-0.547959
H220	H	0.662983	0.036012	-0.047959
H221	H	0.104022	-0.467793	-0.496479
H222	H	0.604022	0.032207	0.003521
H223	H	0.106539	-0.410279	-0.549488
H224	H	0.606539	0.089721	-0.049488
H225	H	1.046199	-0.256772	-0.723275
H226	H	1.546199	0.243228	-0.223275
C227	C	0.870211	-0.431923	-0.948250
C228	C	1.370211	0.068077	-0.448250
C229	C	0.906642	-0.476948	-0.909498
C230	C	1.406642	0.023052	-0.409498
C231	C	0.861583	-0.521922	-0.875897
C232	C	1.361583	-0.021922	-0.375897
H233	H	0.843310	-0.458727	-0.980445
H234	H	1.343310	0.041273	-0.480445
H235	H	0.841839	-0.405082	-0.919538
H236	H	1.341839	0.094918	-0.419538
H237	H	0.935002	-0.503787	-0.938208
H238	H	1.435002	-0.003787	-0.438208
H239	H	0.933540	-0.450164	-0.877292
H240	H	1.433540	0.049836	-0.377292
H241	H	0.833211	-0.495081	-0.847185
H242	H	1.333211	0.004919	-0.347185
H243	H	0.834685	-0.548721	-0.908096
H244	H	1.334685	-0.048721	-0.408096
H245	H	0.886294	-0.552473	-0.849595
H246	H	1.386294	-0.052473	-0.349595
C247	C	1.065404	-1.080126	-0.239307
C248	C	1.565404	-0.580126	0.260693
C249	C	1.133092	-1.062197	-0.253362
C250	C	1.633092	-0.562197	0.246638
C251	C	1.175046	-1.098760	-0.211663
C252	C	1.675046	-0.598760	0.288337
H253	H	1.057301	-1.129075	-0.247474
H254	H	1.557301	-0.629075	0.252526
H255	H	1.056057	-1.068128	-0.193314
H256	H	1.556057	-0.568128	0.306686
H257	H	1.142435	-1.074199	-0.299344
H258	H	1.642435	-0.574199	0.200656
H259	H	1.141215	-1.013254	-0.245192
H260	H	1.641215	-0.513254	0.254808
H261	H	1.165699	-1.086763	-0.165670
H262	H	1.665699	-0.586763	0.334330
H263	H	1.166937	-1.147708	-0.219833
H264	H	1.666937	-0.647708	0.280167
H265	H	1.220976	-1.086596	-0.221189
H266	H	1.720976	-0.586596	0.278811
C267	C	0.364104	-0.244521	-0.245985
C268	C	0.864104	0.255479	0.254015
C269	C	0.319635	-0.205151	-0.206523
C270	C	0.819635	0.294849	0.293477
C271	C	0.356692	-0.160131	-0.161378
C272	C	0.856692	0.339869	0.338622
H273	H	0.392960	-0.213889	-0.270597
H274	H	0.892960	0.286111	0.229403
H275	H	0.390542	-0.271325	-0.217508
H276	H	0.890542	0.228675	0.282492
H277	H	0.293208	-0.178350	-0.234997
H278	H	0.793208	0.321650	0.265003
H279	H	0.290778	-0.235765	-0.181896
H280	H	0.790778	0.264235	0.318104
H281	H	0.383131	-0.186934	-0.132900
H282	H	0.883131	0.313066	0.367100
H283	H	0.385548	-0.129504	-0.185995
H284	H	0.885548	0.370496	0.314005
H285	H	0.326526	-0.133418	-0.134593
H286	H	0.826526	0.366582	0.365407
C287	C	0.870115	-0.432042	-0.739911
C288	C	1.370115	0.067958	-0.239911
C289	C	0.881943	-0.501537	-0.725541
C290	C	1.381943	-0.001537	-0.225541
C291	C	0.836823	-0.546575	-0.762620
C292	C	1.336823	-0.046575	-0.262620
H293	H	0.876543	-0.425696	-0.786824
H294	H	1.376543	0.074304	-0.286824
H295	H	0.825051	-0.421804	-0.727886
H296	H	1.325051	0.078196	-0.227886
H297	H	0.926997	-0.511772	-0.737570
H298	H	1.426997	-0.011772	-0.237570
H299	H	0.875510	-0.507905	-0.678635
H300	H	1.375510	-0.007905	-0.178635
H301	H	0.791759	-0.536337	-0.750596
H302	H	1.291759	-0.036337	-0.250596
H303	H	0.843256	-0.540223	-0.809531
H304	H	1.343256	-0.040223	-0.309531
H305	H	0.844839	-0.593732	-0.752871
H306	H	1.344839	-0.093732	-0.252871
C307	C	0.863304	-0.595640	-0.440741
C308	C	1.363304	-0.095640	0.059259
C309	C	0.875528	-0.523552	-0.428525
C310	C	1.375528	-0.023552	0.071475
C311	C	0.833798	-0.486740	-0.470233
C312	C	1.333798	0.013260	0.029767
H313	H	0.817316	-0.607620	-0.431331
H314	H	1.317316	-0.107620	0.068669
H315	H	0.872704	-0.607581	-0.486734
H316	H	1.372704	-0.107581	0.013266
H317	H	0.866124	-0.511616	-0.382542
H318	H	1.366124	-0.011616	0.117458
H319	H	0.921508	-0.511551	-0.437939
H320	H	1.421508	-0.011551	0.062061
H321	H	0.843198	-0.498681	-0.516226
H322	H	1.343198	0.001319	-0.016226
H323	H	0.787812	-0.498725	-0.460820
H324	H	1.287812	0.001275	0.039180
H325	H	0.842090	-0.437825	-0.461955
H326	H	1.342090	0.062175	0.038045
C327	C	0.712159	-0.432184	-0.434045
C328	C	1.212159	0.067816	0.065955
C329	C	0.664456	-0.471560	-0.473519
C330	C	1.164456	0.028440	0.026481
C331	C	0.697814	-0.516565	-0.518665
C332	C	1.197814	-0.016565	-0.018665
H333	H	0.738454	-0.462813	-0.409434
H334	H	1.238454	0.037187	0.090566
H335	H	0.740844	-0.405370	-0.462515
H336	H	1.240844	0.094630	0.037485
H337	H	0.635782	-0.498372	-0.445052
H338	H	1.135782	0.001628	0.054948
H339	H	0.638158	-0.440949	-0.498145
H340	H	1.138158	0.059051	0.001855
H341	H	0.726500	-0.489751	-0.547135
H342	H	1.226500	0.010249	-0.047135
H343	H	0.724109	-0.547190	-0.494048
H344	H	1.224109	-0.047190	0.005952
H345	H	0.665454	-0.543282	-0.545457
H346	H	1.165454	-0.043282	-0.045457
H347	H	0.581649	-0.256751	-0.258275
H348	H	1.081649	0.243249	0.241725
C349	C	0.564823	-0.432052	-0.434062
C350	C	1.064823	0.067948	0.065938
C351	C	0.525923	-0.392353	-0.475906
C352	C	1.025923	0.107647	0.024094
C353	C	0.488703	-0.437214	-0.521059
C354	C	0.988703	0.062786	-0.021059
H355	H	0.535912	-0.462634	-0.409454
H356	H	1.035912	0.037366	0.090546
H357	H	0.594879	-0.458825	-0.460925
H358	H	1.094879	0.041175	0.039075
H359	H	0.495871	-0.365592	-0.449046
H360	H	0.995871	0.134408	0.050954
H361	H	0.554818	-0.361773	-0.500529
H362	H	1.054818	0.138227	-0.000529
H363	H	0.518759	-0.463987	-0.547923
H364	H	1.018759	0.036013	-0.047923
H365	H	0.459795	-0.467794	-0.496446
H366	H	0.959795	0.032206	0.003554
H367	H	0.462310	-0.410285	-0.549460
H368	H	0.962310	0.089715	-0.049460
H369	H	1.031730	-0.605703	-0.272512
H370	H	1.531730	-0.105703	0.227488
C371	C	0.719874	-0.244512	-0.245949
C372	C	1.219874	0.255488	0.254051
C373	C	0.675411	-0.205142	-0.206482
C374	C	1.175411	0.294858	0.293518
C375	C	0.712473	-0.160133	-0.161330
C376	C	1.212473	0.339867	0.338670
H377	H	0.748736	-0.213881	-0.270556
H378	H	1.248736	0.286119	0.229444
H379	H	0.746308	-0.271325	-0.217475
H380	H	1.246308	0.228675	0.282525
H381	H	0.648989	-0.178331	-0.234952
H382	H	1.148989	0.321669	0.265048
H383	H	0.646549	-0.235755	-0.181860
H384	H	1.146549	0.264245	0.318140
H385	H	0.738907	-0.186945	-0.132856
H386	H	1.238907	0.313055	0.367144
H387	H	0.741333	-0.129506	-0.185943
H388	H	1.241333	0.370494	0.314057
H389	H	0.682310	-0.133419	-0.134542
H390	H	1.182310	0.366581	0.365458
H391	H	0.896783	-1.070292	-0.407538
H392	H	1.396783	-0.570292	0.092462
C393	C	1.032653	-0.815555	-0.271522
C394	C	1.532653	-0.315555	0.228478
C395	C	0.996061	-0.773520	-0.226365
C396	C	1.496061	-0.273520	0.273635
C397	C	1.040744	-0.736789	-0.181503
C398	C	1.540744	-0.236789	0.318497
H399	H	1.063314	-0.786840	-0.296177
H400	H	1.563314	-0.286840	0.203823
H401	H	1.057119	-0.847872	-0.247055
H402	H	1.557119	-0.347872	0.252945
H403	H	0.971606	-0.741207	-0.250830
H404	H	1.471606	-0.241207	0.249170
H405	H	0.965402	-0.802218	-0.201694
H406	H	1.465402	-0.302218	0.298306
H407	H	1.065209	-0.769107	-0.157035
H408	H	1.565209	-0.269107	0.342965
H409	H	1.071402	-0.708078	-0.206164
H410	H	1.571402	-0.208078	0.293836
H411	H	1.015922	-0.708270	-0.150855
H412	H	1.515922	-0.208270	0.349145
C413	C	0.895848	-0.860499	-0.408480
C414	C	1.395848	-0.360499	0.091520
C415	C	0.932431	-0.902560	-0.453621
C416	C	1.432431	-0.402560	0.046379
C417	C	0.887735	-0.939355	-0.498425
C418	C	1.387735	-0.439355	0.001575
H419	H	0.871347	-0.828242	-0.432970
H420	H	1.371347	-0.328242	0.067030
H421	H	0.865218	-0.889198	-0.383757
H422	H	1.365218	-0.389198	0.116243
H423	H	0.963049	-0.873864	-0.478341
H424	H	1.463049	-0.373864	0.021659
H425	H	0.956930	-0.934830	-0.429150
H426	H	1.456930	-0.434830	0.070850
H427	H	0.857105	-0.968054	-0.473703
H428	H	1.357105	-0.468054	0.026297
H429	H	0.863237	-0.907092	-0.522911
H430	H	1.363237	-0.407092	-0.022911
H431	H	0.912549	-0.967902	-0.529055
H432	H	1.412549	-0.467902	-0.029055
H433	H	0.902204	-0.937224	-0.402041
H434	H	1.402204	-0.437224	0.097959
