data_functionalizedCrystal
_audit_creation_method	'MofGen! by Chris Wilmer'
_symmetry_space_group_name_H-M	'P1'
_symmetry_Int_Tables_number	1
_symmetry_cell_setting	triclinic
loop_
_symmetry_equiv_pos_as_xyz
  x,y,z
_cell_length_a	14.853558
_cell_length_b	13.330367
_cell_length_c	10.723024
_cell_angle_alpha	89.996558
_cell_angle_beta	95.950498
_cell_angle_gamma	90.007028
loop_
_atom_site_label
_atom_site_type_symbol
_atom_site_fract_x
_atom_site_fract_y
_atom_site_fract_z
O1	O	1.197234	0.083409	-0.162860
O2	O	1.697234	0.583409	0.337140
O3	O	0.934876	0.083413	-0.182280
O4	O	1.434876	0.583413	0.317720
O5	O	1.072107	0.083407	0.009068
O6	O	1.572107	0.583407	0.509068
O7	O	1.060003	0.083415	-0.354208
O8	O	1.560003	0.583415	0.145792
O9	O	1.072086	-0.083440	0.009072
O10	O	1.572086	0.416560	0.509072
O11	O	0.934856	-0.083434	-0.182275
O12	O	1.434856	0.416566	0.317725
O13	O	1.197214	-0.083439	-0.162856
O14	O	1.697214	0.416561	0.337144
Cu15	Cu	1.066033	-0.098671	-0.172565
Cu16	Cu	1.566033	0.401329	0.327435
Cu17	Cu	1.066057	0.098645	-0.172570
Cu18	Cu	1.566057	0.598645	0.327430
O19	O	1.059983	-0.083433	-0.354203
O20	O	1.559983	0.416567	0.145797
C21	C	0.901272	-0.000010	-0.181400
C22	C	1.401272	0.499990	0.318600
C23	C	0.801174	-0.000008	-0.178769
C24	C	1.301174	0.499992	0.321231
C25	C	0.754158	0.090944	-0.177538
C26	C	1.254158	0.590944	0.322462
C27	C	0.754135	-0.090959	-0.177518
C28	C	1.254135	0.409041	0.322482
C29	C	0.660088	-0.090961	-0.175040
C30	C	1.160088	0.409039	0.324960
C31	C	0.613072	-0.000009	-0.173809
C32	C	1.113072	0.499991	0.326191
C33	C	0.660103	0.090945	-0.175056
C34	C	1.160103	0.590945	0.324944
C35	C	0.613051	-0.181913	-0.173781
C36	C	1.113051	0.318087	0.326219
C37	C	0.518999	-0.181919	-0.171301
C38	C	1.018999	0.318081	0.328699
C39	C	0.471981	-0.090965	-0.170078
C40	C	0.971981	0.409035	0.329922
C41	C	0.519017	-0.000008	-0.171327
C42	C	1.019017	0.499992	0.328673
C43	C	0.472001	0.090944	-0.170095
C44	C	0.972001	0.590944	0.329905
C45	C	0.519036	0.181903	-0.171353
C46	C	1.019036	0.681903	0.328647
C47	C	0.613085	0.181898	-0.173833
C48	C	1.113085	0.681898	0.326167
C49	C	0.377931	-0.090961	-0.167598
C50	C	0.877931	0.409039	0.332402
C51	C	0.377946	0.090945	-0.167613
C52	C	0.877946	0.590945	0.332387
N53	N	1.066023	-0.237452	-0.172561
N54	N	1.566023	0.262548	0.327439
C55	C	1.005288	-0.710073	-0.257266
C56	C	1.505288	-0.210073	0.242734
C57	C	1.126849	-0.710046	-0.087865
C58	C	1.626849	-0.210046	0.412135
C59	C	1.126839	-0.605027	-0.087862
C60	C	1.626839	-0.105027	0.412138
C61	C	1.066053	-0.552527	-0.172562
C62	C	1.566053	-0.052527	0.327438
C63	C	1.005278	-0.605044	-0.257267
C64	C	1.505278	-0.105044	0.242733
C65	C	1.187620	-0.552502	-0.003167
C66	C	1.687620	-0.052502	0.496833
C67	C	1.187613	-0.447477	-0.003161
C68	C	1.687613	0.052523	0.496839
C69	C	1.126822	-0.394975	-0.087856
C70	C	1.626822	0.105025	0.412144
C71	C	1.066043	-0.447499	-0.172564
C72	C	1.566043	0.052501	0.327436
C73	C	1.005257	-0.394998	-0.257264
C74	C	1.505257	0.105002	0.242736
C75	C	0.944473	-0.447520	-0.341967
C76	C	1.444473	0.052480	0.158033
C77	C	0.944487	-0.552542	-0.341963
C78	C	1.444487	-0.052542	0.158037
C79	C	1.126809	-0.289953	-0.087860
C80	C	1.626809	0.210047	0.412140
C81	C	1.005247	-0.289970	-0.257266
C82	C	1.505247	0.210030	0.242734
C83	C	1.230817	-0.000013	-0.163736
C84	C	1.730817	0.499987	0.336264
C85	C	1.330915	-0.000008	-0.166367
C86	C	1.830915	0.499992	0.333633
C87	C	1.071216	-0.000015	0.055560
C88	C	1.571216	0.499985	0.555560
C89	C	1.068580	-0.000012	0.194088
C90	C	1.568580	0.499988	0.694088
N91	N	1.066074	0.237427	-0.172565
N92	N	1.566074	0.737427	0.327435
C93	C	1.060874	-0.000008	-0.400696
C94	C	1.560874	0.499992	0.099304
C95	C	1.063509	-0.000005	-0.539224
C96	C	1.563509	0.499995	-0.039224
C97	C	1.145368	-0.000012	0.269851
C98	C	1.645368	0.499988	0.769851
C99	C	1.142646	-0.000008	0.413027
C100	C	1.642646	0.499992	0.913027
H101	H	0.792457	0.165000	-0.178567
H102	H	1.292457	0.665000	0.321433
H103	H	1.237105	-0.404720	0.065809
H104	H	1.737105	0.095280	0.565809
O105	O	0.939734	-0.766710	-0.348629
O106	O	1.439734	-0.266710	0.151371
H107	H	0.949952	-0.848560	-0.334409
H108	H	1.449952	-0.348560	0.165591
O109	O	1.192338	-0.233309	0.003521
O110	O	1.692338	0.266691	0.503521
H111	H	1.182113	-0.151460	-0.010699
H112	H	1.682113	0.348540	0.489301
H113	H	0.792422	-0.165008	-0.178511
H114	H	1.292422	0.334992	0.321489
O115	O	0.468212	-0.279983	-0.170018
O116	O	0.968212	0.220017	0.329982
H117	H	0.493717	-0.323654	-0.085532
H118	H	0.993717	0.176346	0.414468
O119	O	0.978824	-0.000007	0.248558
O120	O	1.478824	0.499993	0.748558
H121	H	0.939927	-0.068008	0.216574
H122	H	1.439927	0.431992	0.716574
O123	O	1.229724	-0.000016	0.499254
O124	O	1.729724	0.499984	0.999254
H125	H	1.288107	-0.000027	0.442489
H126	H	1.788107	0.499973	0.942489
H127	H	1.213123	-0.000019	0.228717
H128	H	1.713123	0.499981	0.728717
H129	H	0.997770	-0.000012	0.395683
H130	H	1.497770	0.499988	0.895683
H131	H	0.651339	-0.255961	-0.174772
H132	H	1.151339	0.244039	0.325228
H133	H	0.339639	-0.165018	-0.166586
H134	H	0.839639	0.334982	0.333414
H135	H	1.237115	-0.595251	0.065788
H136	H	1.737115	-0.095251	0.565788
O137	O	1.192412	-0.766672	0.003477
O138	O	1.692412	-0.266672	0.503477
H139	H	1.234675	-0.712507	0.062370
H140	H	1.734675	-0.212507	0.562370
O141	O	0.327250	0.189052	-0.166259
O142	O	0.827250	0.689052	0.333741
H143	H	0.337794	0.232674	-0.251712
H144	H	0.837794	0.732674	0.248288
O145	O	0.468324	0.280002	-0.170028
O146	O	0.968324	0.780002	0.329972
H147	H	0.395025	0.264714	-0.168094
H148	H	0.895025	0.764714	0.331906
O149	O	0.878918	-0.390884	-0.433323
O150	O	1.378918	0.109116	0.066677
H151	H	0.836656	-0.445043	-0.492229
H152	H	1.336656	0.054957	0.007771
O153	O	0.663814	0.279998	-0.175152
O154	O	1.163814	0.779998	0.324848
H155	H	0.737113	0.264715	-0.177059
H156	H	1.237113	0.764715	0.322941
O157	O	0.939683	-0.233336	-0.348613
O158	O	1.439683	0.266664	0.151387
H159	H	0.951768	-0.253476	-0.445923
H160	H	1.451768	0.246524	0.054077
O161	O	0.878941	-0.609187	-0.433329
O162	O	1.378941	-0.109187	0.066671
H163	H	0.889171	-0.691035	-0.419109
H164	H	1.389171	-0.191035	0.080891
