data_functionalizedCrystal
_audit_creation_method	'MofGen! by Chris Wilmer'
_symmetry_space_group_name_H-M	'P1'
_symmetry_Int_Tables_number	1
_symmetry_cell_setting	triclinic
loop_
_symmetry_equiv_pos_as_xyz
  x,y,z
_cell_length_a	19.805407
_cell_length_b	19.805405
_cell_length_c	19.805399
_cell_angle_alpha	90.026615
_cell_angle_beta	90.020409
_cell_angle_gamma	90.028666
loop_
_atom_site_label
_atom_site_type_symbol
_atom_site_fract_x
_atom_site_fract_y
_atom_site_fract_z
Zn1	Zn	1.034734	-0.269444	0.382739
Zn2	Zn	1.534734	0.230556	0.882739
Zn3	Zn	1.034648	-0.382632	0.269553
Zn4	Zn	1.534648	0.117368	0.769553
Zn5	Zn	0.921549	-0.269466	0.269562
Zn6	Zn	1.421549	0.230534	0.769562
Zn7	Zn	0.921512	-0.382600	0.382698
Zn8	Zn	1.421512	0.117400	0.882698
O9	O	0.978111	-0.326036	0.326138
O10	O	1.478111	0.173964	0.826138
O11	O	1.129439	-0.284463	0.367738
O12	O	1.629439	0.215537	0.867738
O13	O	1.019625	-0.367643	0.174838
O14	O	1.519625	0.132357	0.674838
O15	O	0.936615	-0.174747	0.284597
O16	O	1.436615	0.325253	0.784597
O17	O	1.129376	-0.367622	0.284581
O18	O	1.629376	0.132378	0.784581
O19	O	1.019771	-0.174730	0.367747
O20	O	1.519771	0.325270	0.867747
O21	O	0.936531	-0.284501	0.174844
O22	O	1.436531	0.215499	0.674844
O23	O	0.826827	-0.284470	0.284557
O24	O	1.326827	0.215530	0.784557
O25	O	0.936551	-0.367567	0.477420
O26	O	1.436551	0.132433	0.977420
O27	O	0.826800	-0.367589	0.367677
O28	O	1.326800	0.132411	0.867677
O29	O	1.019735	-0.284431	0.477450
O30	O	1.519735	0.215569	0.977450
O31	O	1.019589	-0.477345	0.284541
O32	O	1.519589	0.022655	0.784541
O33	O	0.936468	-0.477321	0.367668
O34	O	1.436468	0.022679	0.867668
C35	C	0.802255	-0.326029	0.326114
C36	C	1.302255	0.173971	0.826114
C37	C	0.727023	-0.326042	0.326119
C38	C	1.227023	0.173958	0.826119
C39	C	0.978034	-0.501892	0.326114
C40	C	1.478034	-0.001892	0.826114
C41	C	0.978063	-0.577124	0.326126
C42	C	1.478063	-0.077124	0.826126
C43	C	0.265268	-0.282816	0.369531
C44	C	0.765268	0.217184	0.869531
C45	C	0.335957	-0.282817	0.369526
C46	C	0.835957	0.217183	0.869526
C47	C	0.371261	-0.326046	0.326160
C48	C	0.871261	0.173954	0.826160
C49	C	0.335874	-0.369281	0.282801
C50	C	0.835874	0.130719	0.782801
C51	C	0.265186	-0.369283	0.282810
C52	C	0.765186	0.130717	0.782810
C53	C	0.620947	-0.369276	0.282765
C54	C	1.120947	0.130724	0.782765
C55	C	0.691639	-0.369270	0.282758
C56	C	1.191639	0.130730	0.782758
C57	C	0.691717	-0.282810	0.369481
C58	C	1.191717	0.217190	0.869481
C59	C	0.621030	-0.282812	0.369490
C60	C	1.121030	0.217188	0.869490
C61	C	0.585648	-0.326049	0.326134
C62	C	1.085648	0.173951	0.826134
C63	C	0.509000	-0.326048	0.326141
C64	C	1.009000	0.173952	0.826141
C65	C	0.447908	-0.326044	0.326149
C66	C	0.947908	0.173956	0.826149
C67	C	1.021337	-0.612401	0.369456
C68	C	1.521337	-0.112401	0.869456
C69	C	1.021361	-0.683089	0.369469
C70	C	1.521361	-0.183089	0.869469
C71	C	0.978114	-0.718499	0.326147
C72	C	1.478114	-0.218499	0.826147
C73	C	0.934835	-0.683217	0.282815
C74	C	1.434835	-0.183217	0.782815
C75	C	0.934808	-0.612530	0.282806
C76	C	1.434808	-0.112530	0.782806
C77	C	0.934944	-0.968290	0.282849
C78	C	1.434944	-0.468290	0.782849
C79	C	0.934976	-1.038982	0.282860
C80	C	1.434976	-0.538982	0.782860
C81	C	1.021497	-1.038850	0.369512
C82	C	1.521497	-0.538850	0.869512
C83	C	1.021470	-0.968163	0.369504
C84	C	1.521470	-0.468163	0.869504
C85	C	0.978189	-0.932887	0.326174
C86	C	1.478189	-0.432887	0.826174
C87	C	0.978162	-0.856238	0.326162
C88	C	1.478162	-0.356238	0.826162
C89	C	0.978144	-0.795146	0.326155
C90	C	1.478144	-0.295146	0.826155
C91	C	1.154654	-0.326043	0.326163
C92	C	1.654654	0.173957	0.826163
C93	C	1.229885	-0.326046	0.326174
C94	C	1.729885	0.173954	0.826174
C95	C	0.978149	-0.325993	0.502681
C96	C	1.478149	0.174007	1.002681
C97	C	0.978165	-0.325975	0.577913
C98	C	1.478165	0.174025	1.077913
C99	C	0.978207	-0.149493	0.326178
C100	C	1.478207	0.350507	0.826178
C101	C	0.978248	-0.074261	0.326194
C102	C	1.478248	0.425739	0.826194
C103	C	0.978112	-0.326029	0.150282
C104	C	1.478112	0.173971	0.650282
C105	C	0.978227	-0.325857	0.075051
C106	C	1.478227	0.174143	0.575051
C107	C	1.021480	-0.282684	0.613274
C108	C	1.521480	0.217316	1.113274
C109	C	1.021487	-0.282664	0.683962
C110	C	1.521487	0.217336	1.183962
C111	C	0.978182	-0.325939	0.719289
C112	C	1.478182	0.174061	1.219289
C113	C	0.934862	-0.369232	0.683923
C114	C	1.434862	0.130768	1.183923
C115	C	0.934852	-0.369248	0.613235
C116	C	1.434852	0.130752	1.113235
C117	C	0.934900	-0.369169	0.968996
C118	C	1.434900	0.130831	1.468996
C119	C	0.934915	-0.369151	1.039688
C120	C	1.434915	0.130849	1.539688
C121	C	1.021535	-0.282586	1.039723
C122	C	1.521535	0.217414	1.539723
C123	C	1.021525	-0.282601	0.969036
C124	C	1.521525	0.217399	1.469036
C125	C	0.978203	-0.325891	0.933676
C126	C	1.478203	0.174109	1.433676
C127	C	0.978195	-0.325911	0.857028
C128	C	1.478195	0.174089	1.357028
C129	C	0.978193	-0.325923	0.795936
C130	C	1.478193	0.174077	1.295936
H131	H	0.236528	-0.247609	0.404840
H132	H	0.736528	0.252391	0.904840
H133	H	0.899600	-0.404465	0.712691
H134	H	1.399600	0.095535	1.212691
N135	N	0.888140	-0.415941	0.575088
N136	N	1.388140	0.084059	1.075088
H137	H	0.856786	-0.388436	0.545762
H138	H	1.356786	0.111564	1.045762
H139	H	0.860752	-0.443348	0.608231
H140	H	1.360752	0.056652	1.108231
H141	H	1.056605	-0.711809	0.404748
H142	H	1.556605	-0.211809	0.904748
H143	H	1.056791	-0.247365	0.940277
H144	H	1.556791	0.252635	1.440277
H145	H	1.056807	-0.247334	1.068522
H146	H	1.556807	0.252666	1.568522
N147	N	0.227015	-0.415907	0.236048
N148	N	0.727015	0.084093	0.736048
H149	H	0.239299	-0.464281	0.246472
H150	H	0.739299	0.035719	0.746472
H151	H	0.239311	-0.405275	0.187721
H152	H	0.739311	0.094725	0.687721
H153	H	0.899705	-0.939574	0.247568
H154	H	1.399705	-0.439574	0.747568
H155	H	0.899569	-0.583808	0.247523
H156	H	1.399569	-0.083808	0.747523
N157	N	1.068116	-0.929970	0.416227
N158	N	1.568116	-0.429970	0.916227
H159	H	1.095533	-0.963045	0.443681
H160	H	1.595533	-0.463045	0.943681
H161	H	1.040531	-0.900649	0.447519
H162	H	1.540531	-0.400649	0.947519
N163	N	1.068180	-1.076897	0.416250
N164	N	1.568180	-0.576897	0.916250
H165	H	1.061636	-1.127050	0.409686
H166	H	1.561636	-0.627050	0.909686
H167	H	1.057614	-1.064520	0.464578
H168	H	1.557614	-0.564520	0.964578
H169	H	0.899620	-0.712053	0.247544
H170	H	1.399620	-0.212053	0.747544
N171	N	0.888324	-1.077171	0.236133
N172	N	1.388324	-0.577171	0.736133
H173	H	0.856958	-1.106514	0.263617
H174	H	1.356958	-0.606514	0.763617
H175	H	0.915909	-1.106452	0.204803
H176	H	1.415909	-0.606452	0.704803
H177	H	0.720382	-0.404475	0.247443
H178	H	1.220382	0.095525	0.747443
N179	N	1.068192	-0.236013	0.575175
N180	N	1.568192	0.263987	1.075175
H181	H	1.095632	-0.208585	0.608305
H182	H	1.595632	0.291415	1.108305
H183	H	1.040655	-0.204695	0.545847
H184	H	1.540655	0.295305	1.045847
N185	N	1.068191	-0.235959	0.722103
N186	N	1.568191	0.264041	1.222103
H187	H	1.095622	-0.208546	0.688998
H188	H	1.595622	0.291454	1.188998
H189	H	1.099506	-0.263494	0.751440
H190	H	1.599506	0.236506	1.251440
N191	N	0.888205	-0.415829	1.077793
N192	N	1.388205	0.084171	1.577793
H193	H	0.860758	-0.443254	1.044667
H194	H	1.360758	0.056746	1.544667
H195	H	0.856907	-0.388265	1.107123
H196	H	1.356907	0.111735	1.607123
H197	H	0.899635	-0.404428	0.940215
H198	H	1.399635	0.095572	1.440215
H199	H	0.364762	-0.247616	0.404834
H200	H	0.864762	0.252384	0.904834
N201	N	0.373946	-0.415908	0.236025
N202	N	0.873946	0.084092	0.736025
H203	H	0.403275	-0.447308	0.263469
H204	H	0.903275	0.052692	0.763469
H205	H	0.403230	-0.388309	0.204712
H206	H	0.903230	0.111691	0.704712
N207	N	0.582959	-0.236177	0.416260
N208	N	1.082959	0.263823	0.916260
H209	H	0.595278	-0.246750	0.464601
H210	H	1.095278	0.253250	0.964601
H211	H	0.532822	-0.242753	0.409630
H212	H	1.032822	0.257247	0.909630
N213	N	0.729878	-0.236185	0.416258
N214	N	1.229878	0.263815	0.916258
H215	H	0.780015	-0.242746	0.409680
H216	H	1.280015	0.257254	0.909680
H217	H	0.717532	-0.246791	0.464577
H218	H	1.217532	0.253209	0.964577
H219	H	0.592148	-0.404481	0.247460
H220	H	1.092148	0.095519	0.747460
N221	N	1.067986	-0.574211	0.416179
N222	N	1.567986	-0.074211	0.916179
H223	H	1.095402	-0.607288	0.443631
H224	H	1.595402	-0.107288	0.943631
H225	H	1.040404	-0.544888	0.447472
H226	H	1.540404	-0.044888	0.947472
