data_functionalizedCrystal
_audit_creation_method	'MofGen! by Chris Wilmer'
_symmetry_space_group_name_H-M	'P1'
_symmetry_Int_Tables_number	1
_symmetry_cell_setting	triclinic
loop_
_symmetry_equiv_pos_as_xyz
  x,y,z
_cell_length_a	8.597340
_cell_length_b	11.026607
_cell_length_c	7.088929
_cell_angle_alpha	82.408099
_cell_angle_beta	103.954719
_cell_angle_gamma	96.851696
loop_
_atom_site_label
_atom_site_type_symbol
_atom_site_fract_x
_atom_site_fract_y
_atom_site_fract_z
O1	O	2.149236	0.166608	0.195062
O2	O	1.690244	0.186412	0.119449
O3	O	1.881700	-0.000103	0.150996
O4	O	1.957780	0.353123	0.163515
O5	O	1.907270	-0.025085	0.473184
O6	O	1.715814	0.161430	0.441637
O7	O	2.174806	0.141626	0.517251
Cu8	Cu	1.947645	0.149247	0.508862
Cu9	Cu	1.917405	0.178791	0.127837
O10	O	1.983350	0.328141	0.485704
C11	C	1.643354	0.173186	0.270713
C12	C	1.465539	0.170981	0.241420
C13	C	1.880449	-0.057790	0.309776
C14	C	1.838607	-0.192459	0.302876
C15	C	1.954137	-0.266387	0.321905
C16	C	1.910895	-0.405575	0.314775
C17	C	2.221695	0.154853	0.365983
C18	C	2.399509	0.157058	0.395263
C19	C	1.984601	0.385828	0.326920
C20	C	2.026442	0.520498	0.333807
N21	N	1.968925	0.128466	0.776857
N22	N	1.896135	0.199562	-0.140156
H23	H	1.386027	0.181215	0.087280
Cl24	Cl	2.085429	0.014721	0.922114
Cl25	Cl	1.522250	0.141244	0.633235
Cl26	Cl	2.156277	-0.205023	0.355193
H27	H	1.779962	-0.445320	0.293193
H28	H	1.707683	-0.232210	0.281295
Cl29	Cl	2.228592	-0.418147	0.367100
Cl30	Cl	1.779656	0.313315	0.714599
