data_functionalizedCrystal
_audit_creation_method	'MofGen! by Chris Wilmer'
_symmetry_space_group_name_H-M	'P1'
_symmetry_Int_Tables_number	1
_symmetry_cell_setting	triclinic
loop_
_symmetry_equiv_pos_as_xyz
  x,y,z
_cell_length_a	18.101398
_cell_length_b	25.639239
_cell_length_c	18.101390
_cell_angle_alpha	89.965056
_cell_angle_beta	89.975319
_cell_angle_gamma	90.033952
loop_
_atom_site_label
_atom_site_type_symbol
_atom_site_fract_x
_atom_site_fract_y
_atom_site_fract_z
Zn1	Zn	1.132085	-0.208197	-0.418828
Zn2	Zn	1.632085	0.291803	0.081172
Zn3	Zn	1.131963	-0.295640	-0.294982
Zn4	Zn	1.631963	0.204360	0.205018
Zn5	Zn	1.008243	-0.208214	-0.294989
Zn6	Zn	1.508243	0.291786	0.205011
Zn7	Zn	1.008178	-0.295596	-0.418771
Zn8	Zn	1.508178	0.204404	0.081229
O9	O	1.070117	-0.251912	-0.356893
O10	O	1.570117	0.248088	0.143107
O11	O	1.235701	-0.219808	-0.402421
O12	O	1.735701	0.280192	0.097579
O13	O	1.115528	-0.284069	-0.191350
O14	O	1.615528	0.215931	0.308650
O15	O	1.024749	-0.135046	-0.311444
O16	O	1.524749	0.364954	0.188556
O17	O	1.235612	-0.284052	-0.311432
O18	O	1.735612	0.215948	0.188568
O19	O	1.115735	-0.135034	-0.402428
O20	O	1.615735	0.364966	0.097572
O21	O	1.024631	-0.219836	-0.191356
O22	O	1.524631	0.280164	0.308644
O23	O	0.904601	-0.219793	-0.311388
O24	O	1.404601	0.280207	0.188612
O25	O	1.024638	-0.283977	-0.522411
O26	O	1.524638	0.216023	-0.022411
O27	O	0.904554	-0.283993	-0.402330
O28	O	1.404554	0.216007	0.097670
O29	O	1.115672	-0.219765	-0.522454
O30	O	1.615672	0.280235	-0.022454
O31	O	1.115465	-0.368800	-0.311376
O32	O	1.615465	0.131200	0.188624
O33	O	1.024520	-0.368767	-0.402323
O34	O	1.524520	0.131233	0.097677
C35	C	0.877707	-0.251890	-0.356854
C36	C	1.377707	0.248110	0.143146
C37	C	0.795393	-0.251894	-0.356855
C38	C	1.295393	0.248106	0.143145
C39	C	0.496302	-0.251927	-0.356917
C40	C	0.996302	0.248073	0.143083
C41	C	0.527632	-0.211332	-0.299978
C42	C	1.027632	0.288668	0.200022
C43	C	0.613250	-0.211441	-0.299735
C44	C	1.113250	0.288559	0.200265
C45	C	0.644684	-0.251910	-0.356886
C46	C	1.144684	0.248090	0.143114
C47	C	0.613555	-0.306988	-0.335559
C48	C	1.113555	0.193012	0.164441
C49	C	0.527910	-0.306762	-0.335163
C50	C	1.027910	0.193238	0.164837
C51	C	0.527919	-0.237922	-0.435317
C52	C	1.027919	0.262078	0.064683
C53	C	0.613570	-0.236696	-0.434890
C54	C	1.113570	0.263304	0.065110
C55	C	0.728544	-0.251904	-0.356870
C56	C	1.228544	0.248096	0.143130
C57	C	0.412442	-0.251936	-0.356932
C58	C	0.912442	0.248064	0.143068
C59	C	1.069993	-0.387754	-0.356859
C60	C	1.569993	0.112246	0.143141
C61	C	1.070007	-0.445868	-0.356869
C62	C	1.570007	0.054132	0.143131
C63	C	1.117596	-0.806236	-0.309617
C64	C	1.617596	-0.306236	0.190383
C65	C	1.117624	-0.860840	-0.309627
C66	C	1.617624	-0.360840	0.190373
O67	O	1.157957	-0.889081	-0.269415
O68	O	1.657957	-0.389081	0.230585
N69	N	1.070247	-0.888151	-0.356942
N70	N	1.570247	-0.388151	0.143058
C71	C	1.022844	-0.860854	-0.404255
C72	C	1.522844	-0.360854	0.095745
O73	O	0.982549	-0.889098	-0.444501
O74	O	1.482549	-0.389098	0.055499
C75	C	1.022819	-0.806251	-0.404248
C76	C	1.522819	-0.306251	0.095752
C77	C	1.070194	-0.778943	-0.356925
C78	C	1.570194	-0.278943	0.143075
C79	C	1.164967	-0.778928	-0.262299
C80	C	1.664967	-0.278928	0.237701
C81	C	1.164937	-0.724327	-0.262288
C82	C	1.664937	-0.224327	0.237712
C83	C	1.117536	-0.697035	-0.309596
C84	C	1.617536	-0.197035	0.190404
C85	C	1.070164	-0.724343	-0.356914
C86	C	1.570164	-0.224343	0.143086
C87	C	0.975420	-0.778955	-0.451564
C88	C	1.475420	-0.278955	0.048436
C89	C	0.975400	-0.724348	-0.451554
C90	C	1.475400	-0.224348	0.048446
C91	C	1.022775	-0.697041	-0.404231
C92	C	1.522775	-0.197041	0.095769
C93	C	1.022733	-0.642449	-0.404212
C94	C	1.522733	-0.142449	0.095788
N95	N	1.070110	-0.615139	-0.356897
N96	N	1.570110	-0.115139	0.143103
C97	C	1.117511	-0.642431	-0.309589
C98	C	1.617511	-0.142431	0.190411
C99	C	1.022900	-0.975525	-0.404266
C100	C	1.522900	-0.475525	0.095734
C101	C	1.022920	-1.030127	-0.404270
C102	C	1.522920	-0.530127	0.095730
C103	C	1.117701	-1.030109	-0.309643
C104	C	1.617701	-0.530109	0.190357
C105	C	1.117677	-0.975506	-0.309636
C106	C	1.617677	-0.475506	0.190364
C107	C	1.070277	-0.948214	-0.356952
C108	C	1.570277	-0.448214	0.143048
C109	C	1.117445	-0.527766	-0.309570
C110	C	1.617445	-0.027766	0.190430
C111	C	1.117408	-0.473161	-0.309561
C112	C	1.617408	0.026839	0.190439
C113	C	1.022630	-0.473184	-0.404190
C114	C	1.522630	0.026816	0.095810
C115	C	1.022663	-0.527784	-0.404197
C116	C	1.522663	-0.027784	0.095803
C117	C	1.070076	-0.555074	-0.356884
C118	C	1.570076	-0.055074	0.143116
O119	O	0.982424	-0.614174	-0.444406
O120	O	1.482424	-0.114174	0.055594
O121	O	1.157806	-0.614181	-0.269357
O122	O	1.657806	-0.114181	0.230643
C123	C	1.263279	-0.251933	-0.356932
C124	C	1.763279	0.248067	0.143068
C125	C	1.345593	-0.251943	-0.356949
C126	C	1.845593	0.248057	0.143051
C127	C	1.070161	-0.251864	-0.550055
C128	C	1.570161	0.248136	-0.050055
C129	C	1.070180	-0.251844	-0.632369
C130	C	1.570180	0.248156	-0.132369
C131	C	1.070262	-0.115539	-0.356943
C132	C	1.570262	0.384461	0.143057
C133	C	1.070324	-0.057425	-0.356964
C134	C	1.570324	0.442575	0.143036
C135	C	1.070220	-0.251811	-0.931460
C136	C	1.570220	0.248189	-0.431460
C137	C	1.127684	-0.211553	-0.900161
C138	C	1.627684	0.288447	-0.400161
C139	C	1.127505	-0.211403	-0.814543
C140	C	1.627505	0.288597	-0.314543
C141	C	1.070201	-0.251827	-0.783077
C142	C	1.570201	0.248173	-0.283077
C143	C	0.992187	-0.236853	-0.814145
C144	C	1.492187	0.263147	-0.314145
C145	C	0.992531	-0.236551	-0.899790
C146	C	1.492531	0.263449	-0.399790
C147	C	1.090082	-0.307147	-0.899871
C148	C	1.590082	0.192853	-0.399871
C149	C	1.091794	-0.306865	-0.814221
C150	C	1.591794	0.193135	-0.314221
C151	C	1.070185	-0.251837	-0.699218
C152	C	1.570185	0.248163	-0.199218
C153	C	1.070230	-0.251800	-1.015320
C154	C	1.570230	0.248200	-0.515320
C155	C	1.070116	-0.251921	-0.164482
C156	C	1.570116	0.248079	0.335518
C157	C	1.070241	-0.251794	-0.082169
C158	C	1.570241	0.248206	0.417831
H159	H	0.634968	-0.319069	-0.278864
H160	H	1.134968	0.180931	0.221136
N161	N	0.969472	-0.183865	-0.785762
N162	N	1.469472	0.316135	-0.285762
H163	H	0.922082	-0.187165	-0.756655
H164	H	1.422082	0.312835	-0.256655
H165	H	1.009640	-0.169514	-0.752818
H166	H	1.509640	0.330486	-0.252818
N167	N	0.971506	-0.443736	-0.455208
N168	N	1.471506	0.056264	0.044792
H169	H	1.001578	-0.421044	-0.489548
H170	H	1.501578	0.078956	0.010452
H171	H	0.941504	-0.469349	-0.485141
H172	H	1.441504	0.030651	0.014859
H173	H	0.507657	-0.267490	-0.477742
H174	H	1.007657	0.232510	0.022258
N175	N	1.167840	-0.321825	-0.787323
N176	N	1.667840	0.178175	-0.287323
H177	H	1.164633	-0.355176	-0.757771
H178	H	1.664633	0.144824	-0.257771
H179	H	1.201570	-0.327217	-0.831113
H180	H	1.701570	0.172783	-0.331113
H181	H	0.936839	-0.801180	-0.490096
H182	H	1.436839	-0.301180	0.009904
N183	N	0.499355	-0.185650	-0.461009
N184	N	0.999355	0.314350	0.038991
H185	H	0.465625	-0.170517	-0.422082
H186	H	0.965625	0.329483	0.077918
H187	H	0.542333	-0.161238	-0.469540
H188	H	1.042333	0.338762	0.030460
N189	N	1.040380	-0.348738	-0.785869
N190	N	1.540380	0.151262	-0.285869
H191	H	1.069660	-0.375584	-0.757420
H192	H	1.569660	0.124416	-0.257420
H193	H	1.002198	-0.332513	-0.752312
H194	H	1.502198	0.167487	-0.252312
H195	H	0.936802	-0.702130	-0.490086
H196	H	1.436802	-0.202130	0.009914
H197	H	0.634299	-0.170599	-0.313104
H198	H	1.134299	0.329401	0.186896
N199	N	0.971565	-0.557242	-0.455232
N200	N	1.471565	-0.057242	0.044768
H201	H	0.937276	-0.579938	-0.425108
H202	H	1.437276	-0.079938	0.074892
H203	H	0.941580	-0.531632	-0.485187
H204	H	1.441580	-0.031632	0.014813
N205	N	1.204103	-0.223907	-0.786714
N206	N	1.704103	0.276093	-0.286714
H207	H	1.238293	-0.229556	-0.830082
H208	H	1.738293	0.270444	-0.330082
H209	H	1.222937	-0.193950	-0.755784
H210	H	1.722937	0.306050	-0.255784
H211	H	1.185723	-0.220815	-0.920768
H212	H	1.685723	0.279185	-0.420768
N213	N	0.640350	-0.223701	-0.222785
N214	N	1.140350	0.276299	0.277215
H215	H	0.596659	-0.229059	-0.188892
H216	H	1.096659	0.270941	0.311108
H217	H	0.671215	-0.256491	-0.224005
H218	H	1.171215	0.243509	0.275995
N219	N	1.034644	-0.346882	-0.926674
N220	N	1.534644	0.153118	-0.426674
H221	H	0.996843	-0.329155	-0.959120
H222	H	1.496843	0.170845	-0.459120
H223	H	1.060984	-0.374773	-0.955941
H224	H	1.560984	0.125227	-0.455941
N225	N	0.640524	-0.183006	-0.456187
N226	N	1.140524	0.316994	0.043813
H227	H	0.696293	-0.182857	-0.457951
H228	H	1.196293	0.317143	0.042049
H229	H	0.620286	-0.173464	-0.506391
H230	H	1.120286	0.326536	-0.006391
N231	N	0.501391	-0.322492	-0.259247
N232	N	1.001391	0.177508	0.240753
H233	H	0.545336	-0.329506	-0.226353
H234	H	1.045336	0.170494	0.273647
H235	H	0.470768	-0.293397	-0.237453
H236	H	0.970768	0.206603	0.262547
H237	H	0.984294	-0.953306	-0.442794
H238	H	1.484294	-0.453306	0.057206
H239	H	1.155987	-0.450929	-0.271023
H240	H	1.655987	0.049071	0.228977
H241	H	0.507069	-0.170365	-0.313200
H242	H	1.007069	0.329635	0.186800
H243	H	1.156254	-0.953275	-0.271102
H244	H	1.656254	-0.453275	0.228898
N245	N	0.970222	-0.182973	-0.926279
N246	N	1.470222	0.317027	-0.426279
H247	H	0.960259	-0.159773	-0.882320
H248	H	1.460259	0.340227	-0.382320
H249	H	1.011431	-0.167530	-0.956929
H250	H	1.511431	0.332470	-0.456929
N251	N	1.168838	-1.059550	-0.258622
N252	N	1.668838	-0.559550	0.241378
H253	H	1.157366	-1.050085	-0.205694
H254	H	1.657366	-0.550085	0.294306
H255	H	1.161641	-1.098274	-0.265875
H256	H	1.661641	-0.598274	0.234125
H257	H	0.507183	-0.338032	-0.374826
H258	H	1.007183	0.161968	0.125174
N259	N	1.110495	-0.157553	-0.928683
N260	N	1.610495	0.342447	-0.428683
H261	H	1.065647	-0.159054	-0.961790
H262	H	1.565647	0.340946	-0.461790
H263	H	1.100266	-0.133567	-0.885644
H264	H	1.600266	0.366433	-0.385644
H265	H	1.114359	-0.170410	-0.794071
H266	H	1.614359	0.329590	-0.294071
N267	N	0.640493	-0.348126	-0.388787
N268	N	1.140493	0.151874	0.111213
H269	H	0.673216	-0.331416	-0.427327
H270	H	1.173216	0.168584	0.072673
H271	H	0.669496	-0.375407	-0.360895
H272	H	1.169496	0.124593	0.139105
N273	N	1.168576	-0.557200	-0.258540
N274	N	1.668576	-0.057200	0.241460
H275	H	1.221477	-0.547654	-0.270090
H276	H	1.721477	-0.047654	0.229910
H277	H	1.157031	-0.547718	-0.205636
H278	H	1.657031	-0.047718	0.294364
N279	N	1.216045	-0.694878	-0.211258
N280	N	1.716045	-0.194878	0.288742
H281	H	1.246079	-0.720460	-0.181299
H282	H	1.746079	-0.220460	0.318701
H283	H	1.250288	-0.672189	-0.241443
H284	H	1.750288	-0.172189	0.258557
H285	H	0.948260	-0.264597	-0.920492
H286	H	1.448260	0.235403	-0.420492
N287	N	0.498809	-0.223427	-0.223569
N288	N	0.998809	0.276573	0.276431
H289	H	0.514891	-0.259630	-0.208577
H290	H	1.014891	0.240370	0.291423
H291	H	0.519069	-0.197151	-0.187291
H292	H	1.019069	0.302849	0.312709
N293	N	0.641909	-0.273005	-0.494102
N294	N	1.141909	0.226995	0.005898
H295	H	0.675467	-0.299953	-0.471099
H296	H	1.175467	0.200047	0.028901
H297	H	0.598817	-0.291018	-0.518693
H298	H	1.098817	0.208982	-0.018693
N299	N	1.216098	-0.808360	-0.211271
N300	N	1.716098	-0.308360	0.288729
H301	H	1.246099	-0.782767	-0.181299
H302	H	1.746099	-0.282767	0.318701
H303	H	1.185984	-0.831049	-0.176968
H304	H	1.685984	-0.331049	0.323032
N305	N	0.933924	-0.274490	-0.787146
N306	N	1.433924	0.225510	-0.287146
H307	H	0.946564	-0.310919	-0.804156
H308	H	1.446564	0.189081	-0.304156
H309	H	0.931973	-0.273607	-0.731400
H310	H	1.431973	0.226393	-0.231400
N311	N	0.971810	-1.059578	-0.455298
N312	N	1.471810	-0.559578	0.044702
H313	H	0.941779	-1.033997	-0.485261
H314	H	1.441779	-0.533997	0.014739
H315	H	1.001941	-1.082195	-0.489609
H316	H	1.501941	-0.582195	0.010391
N317	N	1.164142	-0.325187	-0.928498
N318	N	1.664142	0.174813	-0.428498
H319	H	1.203651	-0.299628	-0.912934
H320	H	1.703651	0.200372	-0.412934
H321	H	1.175732	-0.360766	-0.907536
H322	H	1.675732	0.139234	-0.407536
