data_functionalizedCrystal
_audit_creation_method	'MofGen! by Chris Wilmer'
_symmetry_space_group_name_H-M	'P1'
_symmetry_Int_Tables_number	1
_symmetry_cell_setting	triclinic
loop_
_symmetry_equiv_pos_as_xyz
  x,y,z
_cell_length_a	12.645331
_cell_length_b	12.645330
_cell_length_c	12.645323
_cell_angle_alpha	89.973156
_cell_angle_beta	89.985145
_cell_angle_gamma	90.016927
loop_
_atom_site_label
_atom_site_type_symbol
_atom_site_fract_x
_atom_site_fract_y
_atom_site_fract_z
Zn1	Zn	1.620722	-0.422032	-0.599250
Zn2	Zn	1.620606	-0.599326	-0.421990
Zn3	Zn	1.443439	-0.422075	-0.422016
Zn4	Zn	1.443418	-0.599252	-0.599227
O5	O	1.532046	-0.510671	-0.510621
O6	O	1.769054	-0.445564	-0.575735
O7	O	1.597065	-0.575862	-0.273646
O8	O	1.467013	-0.273722	-0.445547
O9	O	1.768969	-0.575821	-0.445503
O10	O	1.597262	-0.273690	-0.575760
O11	O	1.466901	-0.445637	-0.273665
O12	O	1.295089	-0.445564	-0.445524
O13	O	1.466978	-0.575694	-0.747577
O14	O	1.295074	-0.575735	-0.575721
O15	O	1.597242	-0.445492	-0.747594
O16	O	1.597045	-0.747663	-0.445481
O17	O	1.466866	-0.747609	-0.575696
C18	C	1.256617	-0.510647	-0.510623
C19	C	1.138787	-0.510662	-0.510650
C20	C	0.971248	-0.593002	-0.592129
C21	C	1.093808	-0.592736	-0.592470
C22	C	1.094308	-0.399007	-0.541171
C23	C	0.971710	-0.399509	-0.541745
C24	C	0.971543	-0.539079	-0.398390
C25	C	1.094149	-0.541521	-0.398996
C26	C	1.531969	-0.786101	-0.510606
C27	C	1.532033	-0.903931	-0.510635
C28	C	1.450475	-1.071504	-0.592806
C29	C	1.450058	-0.948945	-0.592542
C30	C	1.501789	-0.948528	-0.398917
C31	C	1.501291	-1.071127	-0.399415
C32	C	1.644334	-1.071021	-0.539276
C33	C	1.643645	-0.948414	-0.541719
C34	C	1.808552	-0.510696	-0.510619
C35	C	1.926382	-0.510707	-0.510618
C36	C	1.532120	-0.510580	-0.787126
C37	C	1.532152	-0.510541	-0.904956
C38	C	1.532153	-0.234166	-0.510659
C39	C	1.532198	-0.116336	-0.510675
C40	C	1.450207	-0.592434	-0.949828
C41	C	1.449919	-0.592126	-1.072388
C42	C	1.502283	-0.398642	-1.072862
C43	C	1.501655	-0.399182	-0.950264
C44	C	1.644240	-0.539430	-0.950134
C45	C	1.643672	-0.541828	-1.072740
C46	C	1.532034	-0.510686	-0.235191
C47	C	1.532208	-0.510426	-0.117361
H48	H	0.943134	-0.375444	-0.623788
H49	H	1.124766	-0.485930	-0.335006
H50	H	1.469223	-1.100914	-0.675916
N51	N	1.728855	-0.468561	-1.113260
H52	H	1.799503	-0.490658	-1.083283
H53	H	1.731414	-0.472244	-1.193001
N54	N	0.932171	-0.703038	-0.567070
H55	H	0.852381	-0.704410	-0.570378
H56	H	0.961944	-0.754561	-0.620317
N57	N	1.341041	-1.112427	-0.568037
H58	H	1.344173	-1.159879	-0.503847
H59	H	1.292358	-1.050864	-0.553316
H60	H	1.468654	-0.675605	-0.920349
N61	N	1.132892	-0.315570	-0.464995
H62	H	1.179689	-0.349428	-0.409836
H63	H	1.174469	-0.260268	-0.504949
N64	N	0.930583	-0.645086	-0.361637
H65	H	0.960544	-0.661732	-0.289496
H66	H	0.850855	-0.642815	-0.357485
H67	H	1.367625	-0.573517	-0.919025
N68	N	0.932370	-0.315561	-0.466521
H69	H	0.888105	-0.262497	-0.506570
H70	H	0.888024	-0.349661	-0.409481
N71	N	1.393145	-0.366817	-0.912373
H72	H	1.399060	-0.300774	-0.867875
H73	H	1.346219	-0.352387	-0.975361
H74	H	1.705289	-0.479779	-0.921122
H75	H	1.123881	-0.675535	-0.573341
N76	N	1.132757	-0.650323	-0.368501
H77	H	1.107748	-0.703602	-0.422471
H78	H	1.212584	-0.650390	-0.365981
H79	H	1.666242	-0.624098	-1.101821
H80	H	1.671536	-0.619594	-0.919215
N81	N	1.392714	-1.109147	-0.367332
H82	H	1.398454	-1.153677	-0.301257
H83	H	1.345680	-1.046214	-0.353054
N84	N	1.475107	-0.908992	-0.702272
H85	H	1.474878	-0.829122	-0.702310
H86	H	1.547152	-0.935418	-0.724391
N87	N	1.724984	-1.109425	-0.460044
H88	H	1.781571	-1.151298	-0.497757
H89	H	1.758211	-1.046715	-0.423428
N90	N	0.933107	-0.459681	-0.317942
H91	H	0.853289	-0.460924	-0.315277
H92	H	0.962444	-0.478352	-0.246043
H93	H	1.558765	-0.336061	-0.920579
H94	H	0.940456	-0.574468	-0.674802
N95	N	1.134992	-0.366554	-0.648674
H96	H	1.073366	-0.355207	-0.698186
H97	H	1.176657	-0.298732	-0.642017
H98	H	1.671922	-1.101862	-0.619356
H99	H	1.666453	-0.919261	-0.623938
N100	N	1.339947	-0.910204	-0.567432
H101	H	1.288969	-0.937050	-0.622730
H102	H	1.317974	-0.937283	-0.495558
N103	N	1.576708	-1.110426	-0.315595
H104	H	1.610124	-1.048107	-0.278482
H105	H	1.536718	-1.154781	-0.262522
H106	H	1.123156	-0.573959	-0.675626
H107	H	1.560155	-0.335923	-1.101992
H108	H	1.559426	-0.919373	-0.336051
H109	H	1.420672	-0.917917	-0.374248
H110	H	1.707740	-0.917766	-0.486255
N111	N	1.474662	-0.701906	-1.112253
H112	H	1.485855	-0.750934	-1.050185
H113	H	1.413729	-0.728464	-1.156515
H114	H	1.366879	-0.572945	-1.101724
N115	N	1.394979	-0.365651	-1.113524
H116	H	1.396522	-0.362483	-1.193319
H117	H	1.340151	-0.418772	-1.089974
