data_functionalizedCrystal
_audit_creation_method	'MofGen! by Chris Wilmer'
_symmetry_space_group_name_H-M	'P1'
_symmetry_Int_Tables_number	1
_symmetry_cell_setting	triclinic
loop_
_symmetry_equiv_pos_as_xyz
  x,y,z
_cell_length_a	6.817900
_cell_length_b	12.000032
_cell_length_c	10.773894
_cell_angle_alpha	94.306023
_cell_angle_beta	96.645922
_cell_angle_gamma	119.142083
loop_
_atom_site_label
_atom_site_type_symbol
_atom_site_fract_x
_atom_site_fract_y
_atom_site_fract_z
V1	V	-4.033352	-0.172143	-0.390991
O2	O	-3.931513	0.013105	-0.381384
O3	O	-4.070638	-0.345980	-0.390399
O4	O	-3.948674	-0.167375	-0.560567
O5	O	-4.054322	-0.166736	-0.210038
V6	V	-4.510577	-0.150236	-0.369095
O7	O	-4.308424	-0.220199	-0.439023
O8	O	-4.685702	-0.102181	-0.321064
O9	O	-4.250084	0.023600	-0.369688
O10	O	-4.729813	-0.335485	-0.378702
O11	O	-4.607004	-0.155643	-0.550048
O12	O	-4.372048	-0.155005	-0.199520
C13	C	-3.937658	-0.388424	-0.384768
C14	C	-4.049189	-0.530523	-0.385413
C15	C	-3.924030	-0.587762	-0.379712
C16	C	-4.039299	-0.734629	-0.380380
C17	C	-3.782079	-0.160594	-0.601832
C18	C	-3.794696	-0.157845	-0.740475
C19	C	-3.975119	-0.162609	-0.808393
C20	C	-3.988164	-0.159768	-0.951688
C21	C	-4.046411	0.066037	-0.375315
C22	C	-3.914117	0.208136	-0.374678
C23	C	-4.201989	-0.161790	-0.158248
C24	C	-4.168607	-0.164532	-0.019604
H25	H	-3.731538	-0.528035	-0.374330
H26	H	-3.843334	-0.153578	-0.999618
O27	O	-3.684447	-0.720472	-0.368095
C28	C	-3.588582	-0.626848	-0.258622
H29	H	-3.724673	-0.607214	-0.227758
H30	H	-3.442621	-0.533787	-0.279981
H31	H	-3.520933	-0.663835	-0.179605
O32	O	-4.341523	-0.172139	-0.962419
C33	C	-4.434714	-0.284994	-0.905660
H34	H	-4.396356	-0.358223	-0.954106
H35	H	-4.627204	-0.327865	-0.915870
H36	H	-4.355942	-0.260153	-0.801111
O37	O	-4.268890	-0.805973	-0.386615
C38	C	-4.315975	-0.867529	-0.278588
H39	H	-4.163623	-0.876471	-0.236958
H40	H	-4.472897	-0.967801	-0.306123
H41	H	-4.349481	-0.808094	-0.205331
O42	O	-4.278771	-0.601872	-0.391648
C43	C	-4.325856	-0.663428	-0.283621
H44	H	-4.173504	-0.672369	-0.241992
H45	H	-4.482778	-0.763700	-0.311156
H46	H	-4.359362	-0.603992	-0.210364
O47	O	-4.148011	-0.170210	-0.751196
C48	C	-4.241197	-0.283062	-0.694433
H49	H	-4.202856	-0.356296	-0.742883
H50	H	-4.433684	-0.325929	-0.704631
H51	H	-4.162408	-0.258219	-0.589886
O52	O	-3.621932	-0.150299	-0.797764
C53	C	-3.528664	-0.037410	-0.854467
H54	H	-3.660419	-0.005490	-0.873351
H55	H	-3.479422	-0.057895	-0.947524
H56	H	-3.370736	0.042439	-0.788380
