data_functionalizedCrystal
_audit_creation_method	'MofGen! by Chris Wilmer'
_symmetry_space_group_name_H-M	'P1'
_symmetry_Int_Tables_number	1
_symmetry_cell_setting	triclinic
loop_
_symmetry_equiv_pos_as_xyz
  x,y,z
_cell_length_a	14.519731
_cell_length_b	15.995350
_cell_length_c	13.596369
_cell_angle_alpha	89.996243
_cell_angle_beta	89.994584
_cell_angle_gamma	83.590614
loop_
_atom_site_label
_atom_site_type_symbol
_atom_site_fract_x
_atom_site_fract_y
_atom_site_fract_z
O1	O	1.223657	0.109845	-0.081788
O2	O	1.723657	0.609845	0.418212
O3	O	0.955159	0.122752	-0.081789
O4	O	1.455159	0.622752	0.418211
O5	O	1.096748	-0.005578	-0.081788
O6	O	1.596748	0.494422	0.418212
O7	O	1.082068	0.238174	-0.081790
O8	O	1.582068	0.738174	0.418210
O9	O	1.096733	-0.005585	0.081795
O10	O	1.596733	0.494415	0.581795
O11	O	0.955145	0.122745	0.081794
O12	O	1.455145	0.622745	0.581794
O13	O	1.223643	0.109838	0.081794
O14	O	1.723643	0.609838	0.581794
Zn15	Zn	1.089392	0.116290	0.107766
Zn16	Zn	1.589392	0.616290	0.607766
Zn17	Zn	1.089410	0.116299	-0.107761
Zn18	Zn	1.589410	0.616299	0.392239
O19	O	1.082054	0.238168	0.081793
O20	O	1.582054	0.738168	0.581793
C21	C	0.920794	0.122144	0.000002
C22	C	1.420794	0.622144	0.500002
C23	C	0.818417	0.120331	0.000001
C24	C	1.318417	0.620331	0.500001
C25	C	0.735275	0.118859	-0.000003
C26	C	1.235275	0.618859	0.499997
C27	C	0.630970	0.117019	-0.000003
C28	C	1.130970	0.617019	0.499997
C29	C	0.547834	0.115559	-0.000003
C30	C	1.047834	0.615559	0.499997
C31	C	0.443521	0.113719	-0.000005
C32	C	0.943521	0.613719	0.499995
C33	C	1.096134	-0.036777	0.000002
C34	C	1.596134	0.463223	0.500002
C35	C	1.094314	-0.129730	-0.000004
C36	C	1.594314	0.370270	0.499996
C37	C	1.087781	-0.467488	-0.000001
C38	C	1.587781	0.032512	0.499999
C39	C	0.986944	-0.420212	-0.000368
C40	C	1.486944	0.079788	0.499632
C41	C	0.988764	-0.323519	0.000001
C42	C	1.488764	0.176481	0.500001
C43	C	1.091021	-0.299922	-0.000003
C44	C	1.591021	0.200078	0.499997
C45	C	1.140750	-0.340926	0.093409
C46	C	1.640750	0.159074	0.593409
C47	C	1.138216	-0.437565	0.093488
C48	C	1.638216	0.062435	0.593488
C49	C	1.140316	-0.437913	-0.092537
C50	C	1.640316	0.062087	0.407463
C51	C	1.140292	-0.340967	-0.093771
C52	C	1.640292	0.159033	0.406229
C53	C	1.092858	-0.205222	-0.000001
C54	C	1.592858	0.294778	0.499999
C55	C	1.085947	-0.562189	0.000004
C56	C	1.585947	-0.062189	0.500004
C57	C	1.258008	0.110446	0.000001
C58	C	1.758008	0.610446	0.500001
C59	C	1.360385	0.112258	-0.000005
C60	C	1.860385	0.612258	0.499995
C61	C	1.082668	0.269367	0.000001
C62	C	1.582668	0.769367	0.500001
C63	C	1.084488	0.362320	0.000000
C64	C	1.584488	0.862320	0.500000
N65	N	1.089386	0.116284	0.254858
N66	N	1.589386	0.616284	0.754858
N67	N	1.089423	0.116299	-0.254853
N68	N	1.589423	0.616299	0.245147
C69	C	1.089409	0.116300	0.656149
C70	C	1.589409	0.616300	1.156149
C71	C	1.089400	0.116299	0.544498
C72	C	1.589400	0.616299	1.044498
C73	C	1.089398	0.116293	0.455507
C74	C	1.589398	0.616293	0.955507
C75	C	1.089388	0.116290	0.343849
C76	C	1.589388	0.616290	0.843849
H77	H	0.949673	-0.295155	-0.066961
H78	H	1.449673	0.204845	0.433039
C79	C	1.089202	-0.462371	0.187818
C80	C	1.589202	0.037629	0.687818
N81	N	1.052279	-0.481050	0.258868
N82	N	1.552279	0.018950	0.758868
H83	H	0.946646	-0.438804	-0.067356
H84	H	1.446646	0.061196	0.432644
C85	C	0.932739	-0.446744	0.089646
C86	C	1.432739	0.053256	0.589646
N87	N	0.891918	-0.466722	0.157453
N88	N	1.391918	0.033278	0.657453
H89	H	0.949399	-0.295718	0.067076
H90	H	1.449399	0.204282	0.567076
H91	H	1.107353	-0.458501	-0.163338
H92	H	1.607353	0.041499	0.336662
H93	H	1.212249	-0.469698	0.097723
H94	H	1.712249	0.030302	0.597723
H95	H	1.215875	-0.326682	0.096881
H96	H	1.715875	0.173318	0.596881
C97	C	1.241039	-0.320063	-0.101392
C98	C	1.741039	0.179937	0.398608
N99	N	1.316926	-0.304321	-0.107122
N100	N	1.816926	0.195679	0.392878
H101	H	1.106199	-0.312601	0.162926
H102	H	1.606199	0.187399	0.662926
C103	C	1.091221	-0.304181	-0.187132
C104	C	1.591221	0.195819	0.312868
N105	N	1.054251	-0.276475	-0.257449
N106	N	1.554251	0.223525	0.242551
C107	C	1.240752	-0.480667	-0.093393
C108	C	1.740752	0.019333	0.406607
N109	N	1.316396	-0.512876	-0.094032
N110	N	1.816396	-0.012876	0.405968
