data_functionalizedCrystal
_audit_creation_method	'MofGen! by Chris Wilmer'
_symmetry_space_group_name_H-M	'P1'
_symmetry_Int_Tables_number	1
_symmetry_cell_setting	triclinic
loop_
_symmetry_equiv_pos_as_xyz
  x,y,z
_cell_length_a	15.944551
_cell_length_b	23.532407
_cell_length_c	14.421503
_cell_angle_alpha	89.999621
_cell_angle_beta	89.996859
_cell_angle_gamma	83.173708
loop_
_atom_site_label
_atom_site_type_symbol
_atom_site_fract_x
_atom_site_fract_y
_atom_site_fract_z
O1	O	1.113910	0.073442	-0.077025
O2	O	1.613910	0.573442	0.422975
O3	O	0.869284	0.082498	-0.077049
O4	O	1.369284	0.582498	0.422951
O5	O	0.998974	-0.004933	-0.077019
O6	O	1.498974	0.495067	0.422981
O7	O	0.984221	0.160873	-0.077055
O8	O	1.484221	0.660873	0.422945
O9	O	0.998953	-0.004920	0.077204
O10	O	1.498953	0.495080	0.577204
O11	O	0.869263	0.082511	0.077174
O12	O	1.369263	0.582511	0.577174
O13	O	1.113889	0.073455	0.077199
O14	O	1.613889	0.573455	0.577199
Cu15	Cu	0.991574	0.077984	0.091268
Cu16	Cu	1.491574	0.577984	0.591268
Cu17	Cu	0.991599	0.077969	-0.091119
Cu18	Cu	1.491599	0.577969	0.408881
O19	O	0.984199	0.160886	0.077169
O20	O	1.484199	0.660886	0.577169
C21	C	0.837983	0.082128	0.000060
C22	C	1.337983	0.582128	0.500060
C23	C	0.744746	0.081001	0.000051
C24	C	1.244746	0.581001	0.500051
C25	C	0.530369	0.024113	0.000081
C26	C	1.030369	0.524113	0.500081
C27	C	0.469137	0.050524	-0.075964
C28	C	0.969137	0.550524	0.424036
C29	C	0.574038	0.078962	0.000063
C30	C	1.074038	0.578962	0.500063
C31	C	0.469138	0.050550	0.076088
C32	C	0.969138	0.550550	0.576088
C33	C	0.409142	0.076989	0.000078
C34	C	0.909142	0.576989	0.500078
C35	C	0.514034	0.105388	-0.076046
C36	C	1.014034	0.605388	0.423954
C37	C	0.514041	0.105406	0.076075
C38	C	1.014041	0.605406	0.576075
C39	C	0.452826	0.131856	0.000010
C40	C	0.952826	0.631856	0.500010
C41	C	0.669030	0.080097	0.000053
C42	C	1.169030	0.580097	0.500053
C43	C	0.314150	0.075858	0.000081
C44	C	0.814150	0.575858	0.500081
C45	C	0.998588	-0.026144	0.000095
C46	C	1.498588	0.473856	0.500095
C47	C	0.997458	-0.089366	0.000102
C48	C	1.497458	0.410634	0.500102
C49	C	1.067121	-0.488199	0.000058
C50	C	1.567121	0.011801	0.500058
C51	C	1.066072	-0.547603	0.000051
C52	C	1.566072	-0.047603	0.500051
O53	O	1.130650	-0.584098	0.000023
O54	O	1.630650	-0.084098	0.500023
N55	N	0.988971	-0.570528	0.000044
N56	N	1.488971	-0.070528	0.500044
C57	C	0.912915	-0.534045	0.000035
C58	C	1.412915	-0.034045	0.500035
O59	O	0.847239	-0.558999	0.000027
O60	O	1.347239	-0.058999	0.500027
C61	C	0.913965	-0.474642	0.000035
C62	C	1.413965	0.025358	0.500035
C63	C	0.991071	-0.451721	0.000052
C64	C	1.491071	0.048279	0.500052
C65	C	1.144220	-0.465277	0.000073
C66	C	1.644220	0.034723	0.500073
C67	C	1.145269	-0.405877	0.000082
C68	C	1.645269	0.094123	0.500082
C69	C	1.069219	-0.369399	0.000076
C70	C	1.569219	0.130601	0.500076
C71	C	0.992120	-0.392320	0.000060
C72	C	1.492120	0.107680	0.500060
C73	C	0.837910	-0.438160	0.000019
C74	C	1.337910	0.061840	0.500019
C75	C	0.838967	-0.378754	0.000019
C76	C	1.338967	0.121246	0.500019
C77	C	0.916072	-0.355832	0.000035
C78	C	1.416072	0.144168	0.500035
C79	C	0.917118	-0.296442	0.000063
C80	C	1.417118	0.203558	0.500063
N81	N	0.994219	-0.273517	0.000070
N82	N	1.494219	0.226483	0.500070
C83	C	1.070269	-0.309995	0.000076
C84	C	1.570269	0.190005	0.500076
C85	C	0.910716	-0.658796	0.000032
C86	C	1.410716	-0.158796	0.500032
C87	C	0.909664	-0.718198	0.000038
C88	C	1.409664	-0.218198	0.500038
C89	C	1.062821	-0.731752	0.000053
C90	C	1.562821	-0.231752	0.500053
C91	C	1.063872	-0.672349	0.000053
C92	C	1.563872	-0.172349	0.500053
C93	C	0.987816	-0.635871	0.000039
C94	C	1.487816	-0.135871	0.500039
C95	C	1.072466	-0.185250	0.000096
C96	C	1.572466	0.314750	0.500096
C97	C	1.073508	-0.125844	0.000108
C98	C	1.573508	0.374156	0.500108
C99	C	0.920352	-0.112295	0.000089
C100	C	1.420352	0.387705	0.500089
C101	C	0.919309	-0.171696	0.000081
C102	C	1.419309	0.328304	0.500081
C103	C	0.995373	-0.208173	0.000081
C104	C	1.495373	0.291827	0.500081
O105	O	0.852574	-0.259913	0.000087
O106	O	1.352574	0.240087	0.500087
O107	O	1.135935	-0.285033	0.000072
O108	O	1.635935	0.214967	0.500072
C109	C	1.145190	0.073824	0.000088
C110	C	1.645190	0.573824	0.500088
C111	C	1.238427	0.074951	0.000090
C112	C	1.738427	0.574951	0.500090
C113	C	0.984586	0.182097	0.000053
C114	C	1.484586	0.682097	0.500053
C115	C	0.985715	0.245318	0.000040
C116	C	1.485715	0.745318	0.500040
N117	N	0.991562	0.077994	0.219550
N118	N	1.491562	0.577994	0.719550
N119	N	0.991618	0.077954	-0.219400
N120	N	1.491618	0.577954	0.280600
C121	C	0.931583	0.118404	0.469190
C122	C	1.431583	0.618404	0.969190
C123	C	1.007390	0.129461	0.530997
C124	C	1.507390	0.629461	1.030997
C125	C	0.991583	0.077981	0.408711
C126	C	1.491583	0.577981	0.908711
C127	C	0.915795	0.066938	0.530998
C128	C	1.415795	0.566938	1.030998
C129	C	0.991596	0.077969	0.591433
C130	C	1.491596	0.577969	1.091433
C131	C	1.067428	0.089063	0.469158
C132	C	1.567428	0.589063	0.969158
C133	C	0.975783	0.026517	0.469153
C134	C	1.475783	0.526517	0.969153
C135	C	1.051645	0.037552	0.530932
C136	C	1.551645	0.537552	1.030932
C137	C	0.991574	0.077989	0.303450
C138	C	1.491574	0.577989	0.803450
C139	C	0.991613	0.077960	0.696691
C140	C	1.491613	0.577960	1.196691
H141	H	0.419284	0.177423	-0.000042
H142	H	0.919284	0.677423	0.499958
H143	H	0.856524	-0.190359	0.000094
H144	H	1.356524	0.309641	0.500094
C145	C	1.156134	-0.225366	0.000104
C146	C	1.656134	0.274634	0.500104
H147	H	1.202196	-0.203199	0.000123
H148	H	1.702196	0.296801	0.500123
H149	H	1.158928	-0.248821	-0.053677
H150	H	1.658928	0.251179	0.446323
H151	H	1.158901	-0.248820	0.053892
H152	H	1.658901	0.251180	0.553892
H153	H	0.533968	0.128591	0.140359
H154	H	1.033968	0.628591	0.640359
H155	H	0.858434	-0.082584	0.000087
H156	H	1.358434	0.417416	0.500087
H157	H	1.131539	0.098450	0.442108
H158	H	1.631539	0.598450	0.942108
H159	H	1.020766	0.172977	0.558161
H160	H	1.520766	0.672977	1.058161
H161	H	0.846878	-0.736855	0.000041
H162	H	1.346878	-0.236855	0.500041
H163	H	1.102445	0.003360	0.557872
H164	H	1.602445	0.503360	1.057872
H165	H	0.449238	0.027346	0.140377
H166	H	0.949238	0.527346	0.640377
C167	C	1.230084	-0.380668	0.000095
C168	C	1.730084	0.119332	0.500095
H169	H	1.219828	-0.340065	0.000104
H170	H	1.719828	0.159935	0.500104
H171	H	1.261382	-0.393191	-0.053683
H172	H	1.761382	0.106809	0.446317
H173	H	1.261363	-0.393193	0.053886
H174	H	1.761363	0.106807	0.553886
C175	C	0.957681	-0.032248	0.432416
C176	C	1.457681	0.467752	0.932416
H177	H	0.903777	-0.040032	0.453551
H178	H	1.403777	0.459968	0.953551
H179	H	0.999755	-0.061043	0.454474
H180	H	1.499755	0.438957	0.954474
H181	H	0.958322	-0.031916	0.366549
H182	H	1.458322	0.468084	0.866549
C183	C	0.863110	0.164616	0.432554
C184	C	1.363110	0.664616	0.932554
H185	H	0.823580	0.147082	0.396311
H186	H	1.323580	0.647082	0.896311
H187	H	0.888683	0.191108	0.395401
H188	H	1.388683	0.691108	0.895401
H189	H	0.834813	0.184163	0.483354
H190	H	1.334813	0.684163	0.983354
C191	C	1.158328	-0.100634	0.000121
C192	C	1.658328	0.399366	0.500121
H193	H	1.203468	-0.130870	0.000113
H194	H	1.703468	0.369130	0.500113
H195	H	1.161918	-0.077745	0.053904
H196	H	1.661918	0.422255	0.553904
H197	H	1.161928	-0.077742	-0.053665
H198	H	1.661928	0.422258	0.446335
H199	H	0.851698	0.057603	0.558164
H200	H	1.351698	0.557603	1.058164
H201	H	0.564086	-0.021407	-0.000003
H202	H	1.064086	0.478593	0.499997
H203	H	0.449231	0.027320	-0.140246
H204	H	0.949231	0.527320	0.359754
C205	C	1.227881	-0.505397	0.000078
C206	C	1.727881	-0.005397	0.500078
H207	H	1.216228	-0.544062	0.000069
H208	H	1.716228	-0.044062	0.500069
H209	H	1.259507	-0.498442	0.053863
H210	H	1.759507	0.001558	0.553863
H211	H	1.259520	-0.498442	-0.053706
H212	H	1.759520	0.001558	0.446294
H213	H	0.533835	0.128563	-0.140407
H214	H	1.033835	0.628563	0.359593
H215	H	1.126658	-0.653691	0.000066
H216	H	1.626658	-0.153691	0.500066
H217	H	0.848778	-0.629098	0.000028
H218	H	1.348778	-0.129098	0.500028
C219	C	1.146476	-0.771886	0.000042
C220	C	1.646476	-0.271886	0.500042
H221	H	1.134802	-0.810546	0.000027
H222	H	1.634802	-0.310546	0.500027
H223	H	1.178116	-0.764944	0.053822
H224	H	1.678116	-0.264944	0.553822
H225	H	1.178111	-0.764934	-0.053747
H226	H	1.678111	-0.264934	0.446253
H227	H	0.777032	-0.349056	0.000006
H228	H	1.277032	0.150944	0.500006
C229	C	0.753093	-0.463361	-0.000007
C230	C	1.253093	0.036639	0.499993
H231	H	0.707958	-0.433120	-0.000023
H232	H	1.207958	0.066880	0.499977
H233	H	0.749476	-0.486254	0.053769
H234	H	1.249476	0.013746	0.553769
H235	H	0.749509	-0.486248	-0.053800
H236	H	1.249509	0.013752	0.446200
