data_functionalizedCrystal
_audit_creation_method	'MofGen! by Chris Wilmer'
_symmetry_space_group_name_H-M	'P1'
_symmetry_Int_Tables_number	1
_symmetry_cell_setting	triclinic
loop_
_symmetry_equiv_pos_as_xyz
  x,y,z
_cell_length_a	16.992694
_cell_length_b	10.654550
_cell_length_c	15.455313
_cell_angle_alpha	92.692163
_cell_angle_beta	87.142206
_cell_angle_gamma	87.576563
loop_
_atom_site_label
_atom_site_type_symbol
_atom_site_fract_x
_atom_site_fract_y
_atom_site_fract_z
O1	O	1.045244	0.261289	-0.072018
O2	O	0.816944	0.258364	-0.072044
O3	O	0.936343	0.077541	-0.072027
O4	O	0.925845	0.442112	-0.072035
O5	O	0.929515	0.087836	0.072234
O6	O	0.810116	0.268659	0.072217
O7	O	1.038416	0.271584	0.072243
Cu8	Cu	0.923642	0.271061	0.085402
Cu9	Cu	0.931717	0.258886	-0.085203
O10	O	0.919017	0.452406	0.072226
C11	C	0.784297	0.259751	0.000083
C12	C	0.697192	0.248531	0.000074
C13	C	0.647540	0.356782	0.000072
C14	C	0.565696	0.346233	0.000084
C15	C	0.533505	0.227433	0.000092
C16	C	0.583163	0.119174	0.000096
C17	C	0.665006	0.129724	0.000090
C18	C	0.289668	0.183707	0.000116
C19	C	0.207819	0.173165	0.000119
C20	C	0.190358	0.400226	0.000109
C21	C	0.272203	0.410765	0.000098
C22	C	0.321854	0.302507	0.000107
N23	N	0.449847	0.216648	0.000102
N24	N	0.405510	0.313293	0.000103
C25	C	0.932158	0.035824	0.000102
C26	C	0.929852	-0.103819	0.000099
C27	C	1.000152	-0.177229	0.000109
C28	C	0.997980	-0.308438	0.000103
C29	C	0.855203	-0.292815	0.000079
C30	C	0.857375	-0.161609	0.000080
C31	C	1.072629	-0.119439	0.000129
C32	C	1.142934	-0.192850	0.000140
C33	C	1.140763	-0.324059	0.000134
C34	C	1.068286	-0.381857	0.000116
C35	C	1.071063	0.270196	0.000114
C36	C	1.158168	0.281416	0.000118
C37	C	0.923202	0.494124	0.000095
C38	C	0.925508	0.633766	0.000093
N39	N	0.917968	0.279624	0.205397
N40	N	0.937397	0.250314	-0.205198
C41	C	0.968711	0.202836	0.250798
C42	C	0.964428	0.209324	0.341605
C43	C	0.909405	0.292607	0.387010
C44	C	0.858656	0.369399	0.341602
C45	C	0.862937	0.362903	0.250797
C46	C	0.890929	0.320610	0.658589
C47	C	0.886654	0.327102	0.749401
C48	C	0.992425	0.167025	0.749398
C49	C	0.996704	0.160543	0.658590
C50	C	0.945953	0.237329	0.613191
N51	N	0.905027	0.299244	0.479830
N52	N	0.950328	0.230685	0.520373
H53	H	0.298407	0.507504	0.000082
C54	C	1.057225	0.068927	0.608642
C55	C	1.113045	-0.015550	0.658574
C56	C	1.173569	-0.107161	0.608623
C57	C	1.178272	-0.114296	0.508740
C58	C	1.122450	-0.029817	0.458803
C59	C	1.061927	0.061794	0.508754
H60	H	1.109565	-0.010270	0.732518
H61	H	1.214892	-0.169698	0.645590
H62	H	1.223075	-0.182113	0.471764
H63	H	1.125931	-0.035096	0.384859
H64	H	1.020604	0.124332	0.471787
H65	H	1.074405	-0.012603	0.000137
H66	H	0.149924	0.488363	0.000104
H67	H	0.796195	-0.339885	0.000066
C68	C	1.222656	-0.129277	0.000156
C69	C	1.240236	-0.035890	0.075075
C70	C	1.319960	0.027679	0.075089
C71	C	1.382102	-0.002138	0.000185
C72	C	1.364524	-0.095530	-0.074739
C73	C	1.284800	-0.159100	-0.074754
H74	H	1.194233	-0.013813	0.130529
H75	H	1.332972	0.096814	0.130554
H76	H	1.441118	0.044920	0.000196
H77	H	1.410527	-0.117607	-0.130193
H78	H	1.271788	-0.228235	-0.130218
H79	H	0.800130	-0.101836	0.000072
H80	H	1.005746	0.146796	0.378571
H81	H	0.556946	0.022445	0.000115
H82	H	0.330084	0.095555	0.000124
C83	C	0.826121	0.418717	0.799344
C84	C	0.770298	0.503175	0.749403
C85	C	0.709769	0.594788	0.799345
C86	C	0.705063	0.601943	0.899227
C87	C	0.760889	0.517483	0.949174
C88	C	0.821417	0.425870	0.899232
H89	H	0.773779	0.497881	0.675459
H90	H	0.668443	0.657311	0.762370
H91	H	0.660256	0.669760	0.936197
H92	H	0.757407	0.522777	1.023118
H93	H	0.862743	0.363347	0.936207
H94	H	1.198010	-0.383827	0.000134
H95	H	1.033743	0.104508	0.786370
H96	H	1.066524	-0.488698	0.000102
H97	H	0.181613	0.076419	0.000125
H98	H	0.849607	0.383135	0.621632
C99	C	0.798129	0.461013	0.391543
C100	C	0.793454	0.468232	0.491425
C101	C	0.732927	0.559853	0.541362
C102	C	0.677075	0.644255	0.491417
C103	C	0.681748	0.637040	0.391528
C104	C	0.742275	0.545419	0.341591
H105	H	0.834801	0.405750	0.528403
H106	H	0.729468	0.565194	0.615306
H107	H	0.632269	0.712078	0.528383
H108	H	0.640401	0.699522	0.354551
H109	H	0.745734	0.540078	0.267647
H110	H	0.673743	0.453522	0.000065
H111	H	0.525272	0.434383	0.000082
H112	H	0.705432	0.041574	0.000091
H113	H	1.013520	0.135024	0.213836
H114	H	0.821616	0.425431	0.213832
