data_functionalizedCrystal
_audit_creation_method	'MofGen! by Chris Wilmer'
_symmetry_space_group_name_H-M	'P1'
_symmetry_Int_Tables_number	1
_symmetry_cell_setting	triclinic
loop_
_symmetry_equiv_pos_as_xyz
  x,y,z
_cell_length_a	12.827893
_cell_length_b	12.759400
_cell_length_c	12.827885
_cell_angle_alpha	89.969506
_cell_angle_beta	89.980728
_cell_angle_gamma	90.014655
loop_
_atom_site_label
_atom_site_type_symbol
_atom_site_fract_x
_atom_site_fract_y
_atom_site_fract_z
Zn1	Zn	1.597675	-0.418216	-0.590844
Zn2	Zn	1.597571	-0.593932	-0.416102
Zn3	Zn	1.422916	-0.418267	-0.416117
Zn4	Zn	1.422904	-0.593854	-0.590802
O5	O	1.510266	-0.506067	-0.503466
O6	O	1.743897	-0.441537	-0.567675
O7	O	1.574365	-0.570684	-0.269868
O8	O	1.446147	-0.271240	-0.439319
O9	O	1.743821	-0.570634	-0.439293
O10	O	1.574541	-0.271202	-0.567690
O11	O	1.446046	-0.441624	-0.269879
O12	O	1.276678	-0.441548	-0.439278
O13	O	1.446125	-0.570501	-0.737043
O14	O	1.276669	-0.570550	-0.567618
O15	O	1.574529	-0.441461	-0.737074
O16	O	1.574352	-0.740942	-0.439252
O17	O	1.446025	-0.740885	-0.567603
C18	C	1.238756	-0.506047	-0.503446
C19	C	1.122603	-0.506064	-0.503462
C20	C	1.510204	-0.779035	-0.503444
C21	C	1.510273	-0.895811	-0.503470
C22	C	1.070842	-0.569998	-0.566871
C23	C	0.950791	-0.570017	-0.566889
C24	C	1.577168	-0.950668	-0.436711
C25	C	1.577232	-1.060392	-0.436743
C26	C	1.443499	-1.060393	-0.570296
C27	C	1.443440	-0.950671	-0.570268
C28	C	1.644001	-0.895809	-0.369913
C29	C	1.710899	-0.950666	-0.303148
C30	C	1.710964	-1.060390	-0.303180
C31	C	1.644129	-1.115257	-0.369977
C32	C	1.782836	-0.506088	-0.503487
C33	C	1.898990	-0.506097	-0.503495
C34	C	1.510337	-0.505966	-0.776036
C35	C	1.510368	-0.505923	-0.892190
C36	C	1.510357	-0.232034	-0.503511
C37	C	1.510396	-0.115257	-0.503530
C38	C	1.573913	-0.442058	-0.943989
C39	C	1.573946	-0.442012	-1.064040
C40	C	1.510256	-0.506092	-0.231956
C41	C	1.510428	-0.505839	-0.115803
H42	H	0.906277	-0.624756	-0.621173
C43	C	1.130195	-0.642837	-0.639419
C44	C	1.103793	-0.620093	-0.742881
C45	C	1.158457	-0.687163	-0.809743
H46	H	1.112393	-0.713468	-0.624163
H47	H	1.202996	-0.633115	-0.629858
H48	H	1.031008	-0.629824	-0.752437
H49	H	1.121598	-0.549475	-0.758170
H50	H	1.231258	-0.677441	-0.800183
H51	H	1.140650	-0.757790	-0.794478
H52	H	1.140558	-0.671735	-0.879950
H53	H	0.943497	-0.451362	-0.449202
H54	H	1.628288	-0.387410	-0.899461
C55	C	1.783348	-0.890913	-0.230671
C56	C	1.768957	-0.783081	-0.244909
C57	C	1.835671	-0.728006	-0.178151
H58	H	1.853607	-0.908696	-0.245964
H59	H	1.768090	-0.908906	-0.160427
H60	H	1.784222	-0.765094	-0.315137
H61	H	1.698712	-0.765266	-0.229609
H62	H	1.820413	-0.746000	-0.107906
H63	H	1.905925	-0.745798	-0.193449
H64	H	1.825909	-0.654837	-0.187795
H65	H	1.078042	-0.451337	-0.449194
C66	C	1.370750	-0.890975	-0.642581
C67	C	1.303784	-0.828059	-0.583344
C68	C	1.236820	-0.773045	-0.649929
H69	H	1.330853	-0.939243	-0.682384
H70	H	1.410653	-0.848046	-0.688120
H71	H	1.263885	-0.870984	-0.537823
H72	H	1.343652	-0.779771	-0.543543
H73	H	1.276723	-0.730116	-0.695469
H74	H	1.196930	-0.821321	-0.689730
H75	H	1.191382	-0.730343	-0.609748
C76	C	1.646374	-0.369137	-1.123617
C77	C	1.631980	-0.383552	-1.230844
C78	C	1.698673	-0.316424	-1.285760
H79	H	1.716638	-0.384437	-1.105910
H80	H	1.631099	-0.298514	-1.105850
H81	H	1.647262	-0.454159	-1.248604
H82	H	1.561730	-0.368244	-1.248582
H83	H	1.683398	-0.245801	-1.267993
H84	H	1.768933	-0.331730	-1.268045
H85	H	1.688909	-0.326189	-1.358519
C86	C	1.783636	-1.119762	-0.230586
C87	C	1.842130	-1.048229	-0.172067
C88	C	1.909075	-1.102881	-0.105166
H89	H	1.829266	-1.162498	-0.270492
H90	H	1.743729	-1.162612	-0.184976
H91	H	1.882033	-1.005397	-0.217671
H92	H	1.796527	-1.005491	-0.132139
H93	H	1.869168	-1.145731	-0.059557
H94	H	1.954698	-1.145616	-0.145081
H95	H	1.948764	-1.054355	-0.065447
C96	C	1.370972	-1.120149	-0.642693
C97	C	1.385321	-1.227980	-0.628407
C98	C	1.318514	-1.283058	-0.695070
H99	H	1.386150	-1.102229	-0.712960
H100	H	1.300735	-1.102295	-0.627322
H101	H	1.455542	-1.245827	-0.643786
H102	H	1.370135	-1.245931	-0.558155
H103	H	1.248277	-1.265204	-0.679698
H104	H	1.333698	-1.265130	-0.765332
H105	H	1.328234	-1.356227	-0.685380
C106	C	1.438052	-0.578815	-1.056284
C107	C	1.497243	-0.646105	-0.993598
C108	C	1.430608	-0.713335	-0.938735
H109	H	1.398180	-0.618955	-1.104210
H110	H	1.392578	-0.538627	-1.013646
H111	H	1.542698	-0.686289	-1.036233
H112	H	1.537113	-0.605994	-0.945653
H113	H	1.385135	-0.673148	-0.896096
H114	H	1.390740	-0.753468	-0.986668
H115	H	1.470759	-0.758993	-0.896189
H116	H	1.643953	-0.806466	-0.369876
H117	H	1.644195	-1.204602	-0.370006
H118	H	1.455982	-0.560560	-0.936718
