data_functionalizedCrystal
_audit_creation_method	'MofGen! by Chris Wilmer'
_symmetry_space_group_name_H-M	'P1'
_symmetry_Int_Tables_number	1
_symmetry_cell_setting	triclinic
loop_
_symmetry_equiv_pos_as_xyz
  x,y,z
_cell_length_a	19.077236
_cell_length_b	13.897448
_cell_length_c	19.077174
_cell_angle_alpha	92.273651
_cell_angle_beta	85.294282
_cell_angle_gamma	92.310527
loop_
_atom_site_label
_atom_site_type_symbol
_atom_site_fract_x
_atom_site_fract_y
_atom_site_fract_z
Zn1	Zn	1.093769	-0.348269	-0.441979
Zn2	Zn	1.088968	-0.503351	-0.324093
Zn3	Zn	0.971150	-0.348284	-0.319362
Zn4	Zn	0.975859	-0.515739	-0.437198
O5	O	1.032436	-0.428911	-0.380658
O6	O	1.191785	-0.363651	-0.430322
O7	O	1.069359	-0.477602	-0.224815
O8	O	0.987455	-0.213300	-0.335648
O9	O	1.188257	-0.477588	-0.343712
O10	O	1.077542	-0.213289	-0.425734
O11	O	0.982799	-0.363676	-0.221339
O12	O	0.873122	-0.375688	-0.331012
O13	O	0.995480	-0.498703	-0.536483
O14	O	0.876582	-0.498717	-0.417586
O15	O	1.082108	-0.375663	-0.539995
O16	O	1.073925	-0.639977	-0.339076
O17	O	0.990824	-0.649079	-0.422174
C18	C	0.849273	-0.438549	-0.373267
C19	C	0.770915	-0.442697	-0.370122
C20	C	0.735943	-0.385425	-0.413807
C21	C	0.662317	-0.389317	-0.410845
C22	C	0.623665	-0.450486	-0.364203
C23	C	0.658643	-0.507760	-0.320513
C24	C	0.732267	-0.503862	-0.323472
C25	C	0.403275	-0.468489	-0.350509
C26	C	0.329646	-0.472384	-0.347556
C27	C	0.333325	-0.353940	-0.437887
C28	C	0.406951	-0.350052	-0.440844
C29	C	0.441922	-0.407322	-0.397152
N30	N	0.548408	-0.454468	-0.361176
N31	N	0.517178	-0.403334	-0.400176
C32	C	1.032384	-0.679527	-0.380636
C33	C	1.032427	-0.786739	-0.380652
C34	C	1.032503	-0.983033	-0.380699
C35	C	1.032459	-0.873801	-0.380675
C36	C	1.216316	-0.419236	-0.388078
C37	C	1.294674	-0.415113	-0.391240
C38	C	1.039855	-0.438563	-0.564533
C39	C	1.043016	-0.442676	-0.642889
C40	C	1.032509	-0.177316	-0.380697
C41	C	1.032540	-0.070101	-0.380713
C42	C	0.999436	-0.385294	-0.677891
C43	C	1.002404	-0.389167	-0.751515
C44	C	1.048956	-0.450418	-0.790137
C45	C	1.092537	-0.507806	-0.755130
C46	C	1.089566	-0.503938	-0.681507
C47	C	1.062673	-0.468353	-1.010520
C48	C	1.065643	-0.472215	-1.084148
C49	C	0.975508	-0.353576	-1.080528
C50	C	0.972543	-0.349709	-1.006904
C51	C	1.016122	-0.407101	-0.971904
N52	N	1.051992	-0.454376	-0.865392
N53	N	1.013082	-0.403148	-0.896649
C54	C	1.025087	-0.419225	-0.197500
C55	C	1.022063	-0.414833	-0.119150
H56	H	0.633846	-0.342683	-0.446419
O57	O	1.136576	-0.565818	-0.643749
H58	H	1.169452	-0.609050	-0.682973
H59	H	0.760740	-0.550498	-0.287899
O60	O	0.440990	-0.530261	-0.303391
H61	H	0.473079	-0.483354	-0.268922
O62	O	1.115854	-0.538286	-1.125802
H63	H	1.110603	-0.531322	-1.182877
O64	O	0.295607	-0.292167	-0.485006
H65	H	0.309269	-0.215062	-0.473581
H66	H	0.767408	-0.335618	-0.451790
O67	O	0.287953	-0.538355	-0.297242
H68	H	0.324638	-0.577517	-0.267351
O69	O	0.448640	-0.284062	-0.491141
H70	H	0.411951	-0.244880	-0.521014
H71	H	1.098150	-0.515096	-0.982031
O72	O	0.922343	-0.283626	-0.965257
H73	H	0.867574	-0.303810	-0.977144
O74	O	0.928506	-0.291683	-1.118283
H75	H	0.895641	-0.248438	-1.079058
H76	H	0.966914	-0.342444	-0.780010
H77	H	0.627167	-0.557560	-0.282533
O78	O	0.949230	-0.319226	-0.636236
H79	H	0.919422	-0.279981	-0.672947
H80	H	1.130437	-0.557683	-0.786581
