data_functionalizedCrystal
_audit_creation_method	'MofGen! by Chris Wilmer'
_symmetry_space_group_name_H-M	'P1'
_symmetry_Int_Tables_number	1
_symmetry_cell_setting	triclinic
loop_
_symmetry_equiv_pos_as_xyz
  x,y,z
_cell_length_a	19.288865
_cell_length_b	17.766277
_cell_length_c	19.288865
_cell_angle_alpha	90.011603
_cell_angle_beta	96.863753
_cell_angle_gamma	89.992086
loop_
_atom_site_label
_atom_site_type_symbol
_atom_site_fract_x
_atom_site_fract_y
_atom_site_fract_z
O1	O	0.921353	-0.062577	-0.086649
O2	O	0.719092	-0.062585	-0.098337
O3	O	0.826067	-0.062566	0.008637
O4	O	0.814378	-0.062596	-0.193623
O5	O	0.826048	0.062622	0.008643
O6	O	0.719074	0.062603	-0.098332
O7	O	0.921334	0.062611	-0.086643
Cu8	Cu	0.820202	0.074038	-0.092487
Cu9	Cu	0.820224	-0.074012	-0.092494
O10	O	0.814360	0.062592	-0.193618
C11	C	0.693207	0.000008	-0.097959
C12	C	0.616103	0.000005	-0.096830
C13	C	0.825682	0.000030	0.034516
C14	C	0.824553	0.000037	0.111620
N15	N	0.820192	0.178168	-0.092482
C16	C	0.947220	0.000016	-0.087022
C17	C	1.024324	0.000014	-0.088151
C18	C	1.069020	0.000017	-0.025383
C19	C	1.141467	0.000021	-0.026444
C20	C	1.169215	0.000007	-0.090276
C21	C	1.124508	0.000009	-0.153052
C22	C	1.052063	0.000012	-0.151990
C23	C	1.277498	-0.043864	-0.140457
C24	C	1.349942	-0.043872	-0.141517
C25	C	1.392660	0.000000	-0.093556
C26	C	1.362926	0.043871	-0.044523
C27	C	1.290481	0.043874	-0.043460
C28	C	1.247769	0.000004	-0.091435
C29	C	1.515912	0.000009	-0.031934
C30	C	1.588361	0.000018	-0.032997
C31	C	1.571400	-0.000002	-0.159607
C32	C	1.498954	-0.000003	-0.158542
C33	C	1.471215	-0.000001	-0.094703
N34	N	0.820240	-0.178142	-0.092493
C35	C	0.867575	0.217564	-0.045137
C36	C	0.867579	0.296366	-0.045134
C37	C	0.820206	0.335769	-0.092488
C38	C	0.772814	0.296364	-0.139837
C39	C	0.772807	0.217564	-0.139834
C40	C	0.810908	0.460597	-0.155775
C41	C	0.810920	0.539396	-0.155779
C42	C	0.820225	0.578815	-0.092496
C43	C	0.829533	0.539426	-0.029207
C44	C	0.829525	0.460626	-0.029204
C45	C	0.820209	0.421215	-0.092496
C46	C	0.867616	0.703657	-0.045143
C47	C	0.867615	0.782460	-0.045139
C48	C	0.772852	0.782457	-0.139848
C49	C	0.772850	0.703655	-0.139846
C50	C	0.820235	0.664260	-0.092495
C51	C	0.814745	-0.000006	-0.219497
C52	C	0.815874	-0.000018	-0.296601
C53	C	0.887320	0.000043	0.156316
C54	C	0.886260	0.000031	0.228763
C55	C	0.822428	0.000028	0.256511
C56	C	0.759651	0.000018	0.211805
C57	C	0.760714	0.000022	0.139359
C58	C	0.772242	0.043877	0.364800
C59	C	0.771182	0.043877	0.437245
C60	C	0.819148	0.000011	0.479956
C61	C	0.868186	-0.043845	0.450216
C62	C	0.869248	-0.043841	0.377771
C63	C	0.821268	0.000023	0.335065
C64	C	0.880770	0.000003	0.603209
C65	C	0.879707	-0.000013	0.675657
C66	C	0.753097	-0.000019	0.658697
C67	C	0.754162	-0.000010	0.586250
C68	C	0.818000	0.000005	0.558511
H69	H	1.177866	0.000021	0.024671
C70	C	0.720740	0.825792	-0.191938
C71	C	0.720791	0.912469	-0.191987
C72	C	0.668675	0.955809	-0.244075
C73	C	0.616508	0.912472	-0.296114
C74	C	0.616455	0.825790	-0.296067
C75	C	0.668571	0.782450	-0.243979
H76	H	0.759411	0.944554	-0.153463
H77	H	0.668715	1.019977	-0.244110
H78	H	0.577928	0.944555	-0.334673
H79	H	0.577835	0.793705	-0.334591
H80	H	0.668531	0.718282	-0.243944
C81	C	0.800687	0.582717	-0.225397
C82	C	0.857789	0.636861	-0.244482
C83	C	0.847558	0.680178	-0.314102
C84	C	0.780225	0.669350	-0.364637
C85	C	0.723118	0.615203	-0.345553
C86	C	0.733349	0.571886	-0.275933
H87	H	0.907637	0.644879	-0.207072
H88	H	0.889833	0.720262	-0.328229
H89	H	0.772651	0.701416	-0.416174
H90	H	0.673270	0.607186	-0.382963
H91	H	0.691075	0.531803	-0.261805
H92	H	0.837102	0.428558	0.022328
C93	C	1.485391	0.000024	0.038285
C94	C	1.502335	0.065044	0.090361
C95	C	1.471815	0.065062	0.160578
C96	C	1.424351	0.000059	0.178720
C97	C	1.407404	-0.064967	0.126643
C98	C	1.437924	-0.064984	0.056425
H99	H	1.537473	0.113168	0.076932
H100	H	1.484360	0.113198	0.199129
H101	H	1.401758	0.000071	0.230699
H102	H	1.372266	-0.113090	0.140071
H103	H	1.425379	-0.113120	0.017874
H104	H	0.907245	-0.079566	0.484991
C105	C	0.839767	0.582776	0.040412
C106	C	0.850002	0.539452	0.110024
C107	C	0.860238	0.582805	0.179639
C108	C	0.860239	0.669482	0.179642
C109	C	0.850003	0.712811	0.110027
C110	C	0.839767	0.669458	0.040412
H111	H	0.850002	0.475284	0.110024
H112	H	0.867815	0.550730	0.231173
H113	H	0.867816	0.701575	0.231176
H114	H	0.850004	0.776979	0.110027
H115	H	0.832190	0.701533	-0.011121
C116	C	0.800675	0.417240	-0.225393
C117	C	0.790450	0.460562	-0.295006
C118	C	0.780217	0.417206	-0.364621
C119	C	0.780209	0.330529	-0.364621
C120	C	0.790435	0.287202	-0.295004
C121	C	0.800667	0.330558	-0.225390
H122	H	0.790455	0.524730	-0.295009
H123	H	0.772648	0.449279	-0.416155
H124	H	0.772635	0.298434	-0.416153
H125	H	0.790429	0.223034	-0.295002
H126	H	0.808237	0.298485	-0.173856
H127	H	0.734241	0.328450	-0.178392
H128	H	1.242722	-0.079589	-0.179519
H129	H	0.731249	0.079583	0.461453
H130	H	0.701123	-0.000026	0.681288
C131	C	0.919691	0.174227	0.006953
C132	C	0.971812	0.217564	0.059039
C133	C	1.023925	0.174224	0.111130
C134	C	1.023917	0.087546	0.111136
C135	C	0.971794	0.044205	0.059049
C136	C	0.919681	0.087545	0.006957
H137	H	0.971819	0.281732	0.059036
H138	H	1.062510	0.206309	0.149689
H139	H	1.062494	0.055463	0.149697
H140	H	0.971786	-0.019963	0.059051
H141	H	0.881096	0.055460	-0.031601
H142	H	0.930822	-0.000012	0.712049
H143	H	0.906166	0.328447	-0.006578
H144	H	0.906197	0.671580	-0.006585
H145	H	0.909175	-0.079552	0.353560
C146	C	0.955308	0.000046	0.277941
C147	C	1.025526	0.000064	0.247429
C148	C	1.094574	0.000081	0.296605
C149	C	1.093404	0.000080	0.376292
C150	C	1.023183	0.000062	0.406807
C151	C	0.954135	0.000045	0.357632
H152	H	1.026395	0.000064	0.188437
H153	H	1.146557	0.000094	0.274014
H154	H	1.144517	0.000093	0.412694
H155	H	1.022314	0.000062	0.465800
H156	H	0.902153	0.000032	0.380222
C157	C	0.950988	0.000010	0.572687
C158	C	0.969120	0.065024	0.525233
C159	C	1.039338	0.065029	0.494713
C160	C	1.091424	0.000021	0.511647
C161	C	1.073293	-0.064998	0.559104
C162	C	1.003075	-0.065004	0.589624
H163	H	0.930562	0.113151	0.512695
H164	H	1.052759	0.113161	0.459582
H165	H	1.143403	0.000025	0.489054
H166	H	1.111851	-0.113126	0.571642
H167	H	0.989654	-0.113135	0.624755
H168	H	0.709599	0.000017	0.102967
C169	C	0.685115	-0.000003	0.537079
C170	C	0.614899	-0.000005	0.567595
C171	C	0.545849	0.000001	0.518424
C172	C	0.547014	0.000008	0.438736
C173	C	0.617233	0.000009	0.408216
C174	C	0.686283	0.000003	0.457387
H175	H	0.614034	-0.000010	0.626588
H176	H	0.493868	0.000000	0.541017
H177	H	0.495899	0.000012	0.402337
H178	H	0.618098	0.000014	0.349223
H179	H	0.738264	0.000004	0.434794
C180	C	0.719473	0.092132	0.317820
C181	C	0.665540	0.140378	0.350529
C182	C	0.612772	0.188628	0.303550
C183	C	0.613936	0.188632	0.223863
C184	C	0.667870	0.140384	0.191149
C185	C	0.720639	0.092134	0.238128
H186	H	0.664677	0.140376	0.409523
H187	H	0.572846	0.224344	0.327767
H188	H	0.574874	0.224350	0.189086
H189	H	0.668734	0.140386	0.132156
H190	H	0.760564	0.056418	0.213911
H191	H	1.266274	0.079596	-0.003537
H192	H	0.734220	0.185487	-0.178389
C193	C	1.449783	-0.000018	-0.227589
C194	C	1.370095	-0.000015	-0.226423
C195	C	1.320924	-0.000028	-0.295473
C196	C	1.351440	-0.000044	-0.365689
C197	C	1.431132	-0.000047	-0.366858
C198	C	1.480303	-0.000034	-0.297807
H199	H	1.347502	-0.000004	-0.174442
H200	H	1.261931	-0.000026	-0.294608
H201	H	1.315040	-0.000054	-0.416804
H202	H	1.453725	-0.000059	-0.418838
H203	H	1.539296	-0.000036	-0.298673
H204	H	1.046440	0.000021	0.026599
H205	H	0.707679	0.000013	0.234401
H206	H	1.397706	0.079591	-0.005464
C207	C	1.382650	-0.092161	-0.195425
C208	C	1.462340	-0.092196	-0.196575
C209	C	1.495047	-0.140502	-0.250471
C210	C	1.448065	-0.188773	-0.303218
C211	C	1.368370	-0.188740	-0.302071
C212	C	1.335663	-0.140434	-0.248174
H213	H	1.497123	-0.056461	-0.157526
H214	H	1.554043	-0.140526	-0.251321
H215	H	1.472277	-0.224532	-0.343116
H216	H	1.333587	-0.224475	-0.341119
H217	H	1.276668	-0.140409	-0.247325
C218	C	1.155028	-0.000010	-0.223268
C219	C	1.202500	0.064988	-0.241405
C220	C	1.233019	0.064973	-0.311624
C221	C	1.216066	-0.000041	-0.363705
C222	C	1.168591	-0.065043	-0.345570
C223	C	1.138072	-0.065028	-0.275351
H224	H	1.215052	0.113119	-0.202850
H225	H	1.268163	0.113093	-0.325049
H226	H	1.238657	-0.000052	-0.415685
H227	H	1.156039	-0.113175	-0.384125
H228	H	1.102928	-0.113148	-0.261926
H229	H	1.593991	-0.000008	-0.211580
H230	H	1.624752	0.000026	0.018118
H231	H	1.015670	0.000010	-0.203105
H232	H	0.906198	0.814536	-0.006581
H233	H	0.734268	0.671577	-0.178402
H234	H	0.939303	0.000053	0.133736
