data_functionalizedCrystal
_audit_creation_method	'MofGen! by Chris Wilmer'
_symmetry_space_group_name_H-M	'P1'
_symmetry_Int_Tables_number	1
_symmetry_cell_setting	triclinic
loop_
_symmetry_equiv_pos_as_xyz
  x,y,z
_cell_length_a	17.077404
_cell_length_b	16.625546
_cell_length_c	16.625548
_cell_angle_alpha	90.011514
_cell_angle_beta	90.004672
_cell_angle_gamma	90.022693
loop_
_atom_site_label
_atom_site_type_symbol
_atom_site_fract_x
_atom_site_fract_y
_atom_site_fract_z
Zn1	Zn	1.199942	-0.321146	0.455896
Zn2	Zn	1.199884	-0.455944	0.321058
Zn3	Zn	1.068708	-0.321130	0.321076
Zn4	Zn	1.068643	-0.455940	0.455848
O5	O	1.134294	-0.388540	0.388470
O6	O	1.309781	-0.339035	0.438021
O7	O	1.182486	-0.438056	0.208228
O8	O	1.086168	-0.208300	0.338988
O9	O	1.309739	-0.438071	0.338957
O10	O	1.182585	-0.208311	0.438039
O11	O	1.086112	-0.339008	0.208242
O12	O	0.958852	-0.339005	0.338942
O13	O	1.086057	-0.438065	0.568687
O14	O	0.958804	-0.438049	0.437958
O15	O	1.182522	-0.339031	0.568722
O16	O	1.182423	-0.568776	0.338911
O17	O	1.086001	-0.568773	0.437940
C18	C	0.930346	-0.388525	0.388447
C19	C	0.843096	-0.388539	0.388457
C20	C	0.802102	-0.440189	0.439932
C21	C	0.720122	-0.440191	0.439945
C22	C	0.679137	-0.388546	0.388478
C23	C	0.720137	-0.336890	0.337001
C24	C	0.802116	-0.336884	0.336993
C25	C	0.549267	-0.336905	0.337020
C26	C	0.467283	-0.336911	0.337027
C27	C	0.467273	-0.440212	0.439972
C28	C	0.549252	-0.440207	0.439964
C29	C	0.590246	-0.388551	0.388486
C30	C	1.134220	-0.598031	0.388436
C31	C	1.134260	-0.687652	0.388448
C32	C	1.134397	-1.015828	0.388532
C33	C	1.134356	-0.924519	0.388511
C34	C	1.134328	-0.851743	0.388490
C35	C	1.134288	-0.760428	0.388470
C36	C	1.339038	-0.388555	0.388492
C37	C	1.426288	-0.388562	0.388502
C38	C	1.134289	-0.388549	0.598778
C39	C	1.134286	-0.388553	0.688400
C40	C	1.134390	-0.178231	0.388521
C41	C	1.134431	-0.088610	0.388543
C42	C	1.134284	-0.388557	0.761182
C43	C	1.134283	-0.388554	0.852490
C44	C	1.134286	-0.388547	0.925267
C45	C	1.134287	-0.388545	1.016581
C46	C	1.134292	-0.388547	1.178979
C47	C	1.134290	-0.388539	1.089358
H48	H	0.686747	-0.482250	0.481860
C49	C	0.847182	-0.497000	0.496547
C50	C	0.903512	-0.560247	0.461492
C51	C	0.948589	-0.617057	0.518112
C52	C	0.937336	-0.610621	0.609787
C53	C	0.881003	-0.547371	0.644846
C54	C	0.835926	-0.490561	0.588227
H55	H	0.911844	-0.565014	0.393625
H56	H	0.990290	-0.663879	0.492158
H57	H	0.970705	-0.652675	0.651700
H58	H	0.872671	-0.542604	0.712714
H59	H	0.794225	-0.443740	0.614181
C60	C	0.594335	-0.497017	0.496578
C61	C	0.583035	-0.588670	0.489837
C62	C	0.628118	-0.645479	0.546453
C63	C	0.684500	-0.610635	0.609810
C64	C	0.695803	-0.518978	0.616554
C65	C	0.650720	-0.462168	0.559937
H66	H	0.541295	-0.614467	0.442933
H67	H	0.619750	-0.713330	0.541460
H68	H	0.717873	-0.652688	0.651721
H69	H	0.737543	-0.493180	0.663457
H70	H	0.659087	-0.394317	0.564930
C71	C	0.847215	-0.280070	0.280369
C72	C	0.903597	-0.216819	0.315421
C73	C	0.948696	-0.160000	0.258799
C74	C	0.937413	-0.166431	0.167126
C75	C	0.881028	-0.229684	0.132069
C76	C	0.835929	-0.286503	0.188691
H77	H	0.911953	-0.212056	0.383288
H78	H	0.990436	-0.113175	0.284751
H79	H	0.970797	-0.124370	0.125211
H80	H	0.872673	-0.234447	0.064202
H81	H	0.794189	-0.333328	0.162739
C82	C	0.422183	-0.497034	0.496601
C83	C	0.332009	-0.497042	0.496617
C84	C	0.286915	-0.553866	0.553238
C85	C	0.331995	-0.610682	0.609843
C86	C	0.422174	-0.610676	0.609829
C87	C	0.467268	-0.553852	0.553208
H88	H	0.298634	-0.454981	0.454713
H89	H	0.220159	-0.553870	0.553248
H90	H	0.298614	-0.652746	0.651757
H91	H	0.455549	-0.652736	0.651733
H92	H	0.534024	-0.553847	0.553198
C93	C	0.594366	-0.280083	0.280398
C94	C	0.583126	-0.188432	0.287145
C95	C	0.628228	-0.131614	0.230525
C96	C	0.684569	-0.166446	0.167157
C97	C	0.695812	-0.258102	0.160408
C98	C	0.650710	-0.314920	0.217028
H99	H	0.541417	-0.162643	0.334056
H100	H	0.619905	-0.063764	0.235522
H101	H	0.717956	-0.124386	0.125243
H102	H	0.737521	-0.283891	0.113497
H103	H	0.659033	-0.382770	0.212031
H104	H	0.686761	-0.294836	0.295099
C105	C	0.422197	-0.280079	0.280437
C106	C	0.467286	-0.223240	0.223834
C107	C	0.422200	-0.166398	0.167253
C108	C	0.332027	-0.166396	0.167275
C109	C	0.286933	-0.223238	0.223880
C110	C	0.332019	-0.280080	0.280461
H111	H	0.534042	-0.223239	0.223816
H112	H	0.455582	-0.124320	0.125350
H113	H	0.298652	-0.124319	0.125390
H114	H	0.220177	-0.223239	0.223898
H115	H	0.298637	-0.322158	0.322364
