data_functionalizedCrystal
_audit_creation_method	'MofGen! by Chris Wilmer'
_symmetry_space_group_name_H-M	'P1'
_symmetry_Int_Tables_number	1
_symmetry_cell_setting	triclinic
loop_
_symmetry_equiv_pos_as_xyz
  x,y,z
_cell_length_a	21.395364
_cell_length_b	21.395361
_cell_length_c	21.395355
_cell_angle_alpha	89.978489
_cell_angle_beta	89.974323
_cell_angle_gamma	90.024740
loop_
_atom_site_label
_atom_site_type_symbol
_atom_site_fract_x
_atom_site_fract_y
_atom_site_fract_z
Zn1	Zn	-0.957859	0.249611	0.354267
Zn2	Zn	-0.457859	0.749611	0.854267
Zn3	Zn	-0.957761	0.354371	0.249484
Zn4	Zn	-0.457761	0.854371	0.749484
Zn5	Zn	-0.853074	0.249600	0.249502
Zn6	Zn	-0.353074	0.749600	0.749502
Zn7	Zn	-0.853043	0.354344	0.354222
Zn8	Zn	-0.353043	0.854344	0.854222
O9	O	-0.905434	0.301981	0.301869
O10	O	-0.405434	0.801981	0.801869
O11	O	-1.045524	0.263523	0.340379
O12	O	-0.545524	0.763523	0.840379
O13	O	-0.943847	0.340479	0.161809
O14	O	-0.443847	0.840479	0.661809
O15	O	-0.867028	0.161924	0.263425
O16	O	-0.367028	0.661924	0.763425
O17	O	-1.045452	0.340490	0.263395
O18	O	-0.545452	0.840490	0.763395
O19	O	-0.944013	0.161932	0.340396
O20	O	-0.444013	0.661932	0.840396
O21	O	-0.866933	0.263505	0.161822
O22	O	-0.366933	0.763505	0.661822
O23	O	-0.765392	0.263479	0.263382
O24	O	-0.265392	0.763479	0.763382
O25	O	-0.866975	0.340444	0.441906
O26	O	-0.366975	0.840444	0.941906
O27	O	-0.765369	0.340433	0.340320
O28	O	-0.265369	0.840433	0.840320
O29	O	-0.943983	0.263497	0.441939
O30	O	-0.443983	0.763497	0.941939
O31	O	-0.943817	0.442045	0.263352
O32	O	-0.443817	0.942045	0.763352
O33	O	-0.866881	0.442025	0.340302
O34	O	-0.366881	0.942025	0.840302
C35	C	-0.742647	0.301952	0.301848
C36	C	-0.242647	0.801952	0.801848
C37	C	-0.673006	0.301955	0.301854
C38	C	-0.173006	0.801955	0.801854
C39	C	-0.171246	0.261977	0.342013
C40	C	0.328754	0.761977	0.842013
C41	C	-0.236681	0.261975	0.342015
C42	C	0.263319	0.761975	0.842015
C43	C	-0.269367	0.301981	0.301870
C44	C	0.230633	0.801981	0.801870
C45	C	-0.236612	0.342005	0.261733
C46	C	0.263388	0.842005	0.761733
C47	C	-0.171178	0.342011	0.261737
C48	C	0.328822	0.842011	0.761737
C49	C	-0.373004	0.306836	0.245405
C50	C	0.126996	0.806836	0.745405
C51	C	-0.438437	0.306826	0.245399
C52	C	0.061563	0.806826	0.745399
C53	C	-0.471188	0.301966	0.301857
C54	C	0.028812	0.801966	0.801857
C55	C	-0.438498	0.297104	0.358322
C56	C	0.061502	0.797104	0.858322
C57	C	-0.373064	0.297110	0.358326
C58	C	0.126936	0.797110	0.858326
C59	C	-0.340320	0.301980	0.301861
C60	C	0.159680	0.801980	0.801861
C61	C	-0.574888	0.261945	0.341996
C62	C	-0.074888	0.761945	0.841996
C63	C	-0.640324	0.261947	0.341998
C64	C	-0.140324	0.761947	0.841998
C65	C	-0.640254	0.341974	0.261711
C66	C	-0.140254	0.841974	0.761711
C67	C	-0.574818	0.341976	0.261714
C68	C	-0.074818	0.841976	0.761714
C69	C	-0.542139	0.301958	0.301856
C70	C	-0.042139	0.801958	0.801856
C71	C	-0.905352	0.464769	0.301834
C72	C	-0.405352	0.964769	0.801834
C73	C	-0.905374	0.534410	0.301840
C74	C	-0.405374	1.034410	0.801840
C75	C	-0.905486	0.301969	0.465292
C76	C	-0.405486	0.801969	0.965292
C77	C	-0.905509	0.301963	0.534933
C78	C	-0.405509	0.801963	1.034933
C79	C	-0.068858	0.302003	0.301885
C80	C	0.431142	0.802003	0.801885
C81	C	-0.138499	0.301993	0.301879
C82	C	0.361501	0.801993	0.801879
C83	C	-0.905535	0.138558	0.301918
C84	C	-0.405535	0.638558	0.801918
C85	C	-0.905577	0.068917	0.301938
C86	C	-0.405577	0.568917	0.801938
C87	C	-0.945470	0.567113	0.261813
C88	C	-0.445470	1.067113	0.761813
C89	C	-0.945499	0.632548	0.261827
C90	C	-0.445499	1.132548	0.761827
C91	C	-0.905421	0.665279	0.301861
C92	C	-0.405421	1.165279	0.801861
C93	C	-0.865322	0.632568	0.341896
C94	C	-0.365322	1.132568	0.841896
C95	C	-0.865298	0.567134	0.341886
C96	C	-0.365298	1.067134	0.841886
C97	C	-0.849006	0.768988	0.306770
C98	C	-0.349006	1.268988	0.806770
C99	C	-0.849029	0.834421	0.306777
C100	C	-0.349029	1.334421	0.806777
C101	C	-0.905494	0.867099	0.301898
C102	C	-0.405494	1.367099	0.801898
C103	C	-0.961938	0.834337	0.297000
C104	C	-0.461938	1.334337	0.797000
C105	C	-0.961915	0.768903	0.296990
C106	C	-0.461915	1.268903	0.796990
C107	C	-0.905442	0.736231	0.301878
C108	C	-0.405442	1.236231	0.801878
C109	C	-0.945625	0.970754	0.261884
C110	C	-0.445625	1.470754	0.761884
C111	C	-0.945655	1.036191	0.261903
C112	C	-0.445655	1.536191	0.761903
C113	C	-0.865472	1.036209	0.341969
C114	C	-0.365472	1.536209	0.841969
C115	C	-0.865448	0.970774	0.341954
C116	C	-0.365448	1.470774	0.841954
C117	C	-0.905523	0.938051	0.301908
C118	C	-0.405523	1.438051	0.801908
C119	C	-0.905419	0.301949	0.139081
C120	C	-0.405419	0.801949	0.639081
C121	C	-0.905518	0.301778	0.069440
C122	C	-0.405518	0.801778	0.569440
C123	C	-0.945605	0.261895	0.567665
C124	C	-0.445605	0.761895	1.067665
C125	C	-0.945604	0.261868	0.633100
C126	C	-0.445604	0.761868	1.133100
C127	C	-0.905513	0.301921	0.665802
C128	C	-0.405513	0.801921	1.165802
C129	C	-0.865409	0.341991	0.633063
C130	C	-0.365409	0.841991	1.133063
C131	C	-0.865407	0.342013	0.567629
C132	C	-0.365407	0.842013	1.067629
C133	C	-0.900538	0.358335	0.769464
C134	C	-0.400538	0.858335	1.269464
C135	C	-0.900544	0.358315	0.834897
C136	C	-0.400544	0.858315	1.334897
C137	C	-0.905517	0.301854	0.867623
C138	C	-0.405517	0.801854	1.367623
C139	C	-0.910497	0.245412	0.834907
C140	C	-0.410497	0.745412	1.334907
C141	C	-0.910494	0.245434	0.769473
C142	C	-0.410494	0.745434	1.269473
C143	C	-0.905511	0.301902	0.736754
C144	C	-0.405511	0.801902	1.236754
C145	C	-0.945615	0.261754	0.971307
C146	C	-0.445615	0.761754	1.471307
C147	C	-0.945610	0.261726	1.036743
C148	C	-0.445610	0.761726	1.536743
C149	C	-0.865418	0.341854	1.036704
C150	C	-0.365418	0.841854	1.536704
C151	C	-0.865420	0.341877	0.971269
C152	C	-0.365420	0.841877	1.471269
C153	C	-0.905522	0.301827	0.938574
C154	C	-0.405522	0.801827	1.438574
H155	H	-0.144516	0.374598	0.229054
H156	H	0.355484	0.874598	0.729054
C157	C	-0.915966	0.183300	0.870900
C158	C	-0.415966	0.683300	1.370900
N159	N	-0.920086	0.136519	0.898013
N160	N	-0.420086	0.636519	1.398013
H161	H	-0.803068	0.861091	0.310759
H162	H	-0.303068	1.361091	0.810759
C163	C	-1.024056	0.870278	0.291639
C164	C	-0.524056	1.370278	0.791639
N165	N	-1.070841	0.897352	0.287601
N166	N	-0.570841	1.397352	0.787601
H167	H	-0.548279	0.229361	0.374682
H168	H	-0.048279	0.729361	0.874682
C169	C	-0.336984	0.312183	0.183293
C170	C	0.163016	0.812183	0.683293
N171	N	-0.309855	0.316211	0.136512
N172	N	0.190145	0.816211	0.636512
H173	H	-0.832753	0.374640	0.540979
H174	H	-0.332753	0.874640	1.040979
H175	H	-0.978152	0.659180	0.229232
H176	H	-0.478152	1.159180	0.729232
H177	H	-0.144643	0.229394	0.374703
H178	H	0.355357	0.729394	0.874703
C179	C	-0.989766	1.072164	0.217867
C180	C	-0.489766	1.572164	0.717867
N181	N	-1.022990	1.099259	0.184696
N182	N	-0.522990	1.599259	0.684696
H183	H	-0.896320	0.404301	0.742825
H184	H	-0.396320	0.904301	1.242825
C185	C	-0.989720	0.217644	1.072748
C186	C	-0.489720	0.717644	1.572748
N187	N	-1.022945	0.184442	1.099866
N188	N	-0.522945	0.684442	1.599866
C189	C	-0.821351	0.934800	0.386000
C190	C	-0.321351	1.434800	0.886000
N191	N	-0.788142	0.907704	0.419185
N192	N	-0.288142	1.407704	0.919185
H193	H	-0.832766	0.374600	0.659693
H194	H	-0.332766	0.874600	1.159693
C195	C	-0.821195	0.531160	0.385929
C196	C	-0.321195	1.031160	0.885929
N197	N	-0.787979	0.504063	0.419105
N198	N	-0.287979	1.004063	0.919105
H199	H	-0.978259	0.944110	0.229278
H200	H	-0.478259	1.444110	0.729278
C201	C	-0.821319	0.385913	1.072673
C202	C	-0.321319	0.885913	1.572673
N203	N	-0.788101	0.419098	1.099767
N204	N	-0.288101	0.919098	1.599767
H205	H	-0.263349	0.229386	0.374696
H206	H	0.236651	0.729386	0.874696
C207	C	-0.821387	1.072209	0.386009
C208	C	-0.321387	1.572209	0.886009
N209	N	-0.788181	1.099327	0.419182
N210	N	-0.288181	1.599327	0.919182
C211	C	-0.786884	0.733048	0.312122
C212	C	-0.286884	1.233048	0.812122
N213	N	-0.740095	0.705979	0.316147
N214	N	-0.240095	1.205979	0.816147
C215	C	-0.337108	0.291755	0.420435
C216	C	0.162892	0.791755	0.920435
N217	N	-0.310026	0.287720	0.467217
N218	N	0.189974	0.787720	0.967217
C219	C	-0.538795	0.385988	0.217553
C220	C	-0.038795	0.885988	0.717553
N221	N	-0.511663	0.419140	0.184288
N222	N	-0.011663	0.919140	0.684288
C223	C	-0.821233	0.668572	0.385932
C224	C	-0.321233	1.168572	0.885932
N225	N	-0.788025	0.695691	0.419102
N226	N	-0.288025	1.195691	0.919102
C227	C	-0.474389	0.312172	0.183287
C228	C	0.025611	0.812172	0.683287
N229	N	-0.501467	0.316199	0.136502
N230	N	-0.001467	0.816199	0.636502
C231	C	-0.989709	0.217831	0.531704
C232	C	-0.489709	0.717831	1.031704
N233	N	-1.022927	0.184639	0.504617
N234	N	-0.522927	0.684639	1.004617
C235	C	-0.989718	0.217793	0.669112
C236	C	-0.489718	0.717793	1.169112
N237	N	-1.022947	0.184596	0.696234
N238	N	-0.522947	0.684596	1.196234
H239	H	-0.914547	0.199476	0.742838
H240	H	-0.414547	0.699476	1.242838
H241	H	-0.978264	0.229140	0.944685
H242	H	-0.478264	0.729140	1.444685
H243	H	-0.465163	0.293144	0.404295
H244	H	0.034837	0.793144	0.904295
H245	H	-0.978103	0.540471	0.229207
H246	H	-0.478103	1.040471	0.729207
H247	H	-0.832773	0.374508	0.944619
H248	H	-0.332773	0.874508	1.444619
C249	C	-0.676346	0.217923	0.386151
C250	C	-0.176346	0.717923	0.886151
N251	N	-0.703478	0.184761	0.419406
N252	N	-0.203478	0.684761	0.919406
H253	H	-0.896494	0.404274	0.861529
H254	H	-0.396494	0.904274	1.361529
H255	H	-0.263229	0.374580	0.229048
H256	H	0.236771	0.874580	0.729048
H257	H	-0.666866	0.374554	0.229029
H258	H	-0.166866	0.874554	0.729029
H259	H	-1.007873	0.742229	0.293003
H260	H	-0.507873	1.242229	0.793003
