data_functionalizedCrystal
_audit_creation_method	'MofGen! by Chris Wilmer'
_symmetry_space_group_name_H-M	'P1'
_symmetry_Int_Tables_number	1
_symmetry_cell_setting	triclinic
loop_
_symmetry_equiv_pos_as_xyz
  x,y,z
_cell_length_a	14.560438
_cell_length_b	23.196402
_cell_length_c	23.196401
_cell_angle_alpha	60.008822
_cell_angle_beta	90.014674
_cell_angle_gamma	60.002032
loop_
_atom_site_label
_atom_site_type_symbol
_atom_site_fract_x
_atom_site_fract_y
_atom_site_fract_z
Zr1	Zr	0.884751	0.631008	-0.075618
O2	O	0.738075	0.751274	-0.167666
O3	O	0.929712	0.510743	-0.047404
O4	O	0.929671	0.631010	-0.167670
O5	O	0.738152	0.631005	0.047470
O6	O	1.080809	0.631012	-0.167668
O7	O	0.738116	0.631006	-0.047401
O8	O	1.080882	0.415876	0.047464
O9	O	0.738080	0.846141	-0.167662
O10	O	1.061684	0.560211	-0.035366
O11	O	0.948918	0.560209	0.035434
O12	O	0.948870	0.701808	-0.106162
O13	O	0.836105	0.701806	-0.035362
Zr14	Zr	1.125857	0.631009	0.075693
Zr15	Zr	1.125799	0.631011	-0.075616
Zr16	Zr	0.884809	0.631006	0.075690
Zr17	Zr	0.884758	0.782311	-0.075612
Zr18	Zr	1.125850	0.479706	0.075686
O19	O	1.080897	0.751274	0.047479
O20	O	1.080815	0.751277	-0.167663
O21	O	0.738157	0.751270	0.047475
O22	O	1.272533	0.510744	0.167741
O23	O	1.272451	0.510747	-0.047401
O24	O	0.929794	0.510740	0.167737
O25	O	1.272456	0.631012	-0.047396
O26	O	1.080937	0.631007	0.167744
O27	O	0.929799	0.631005	0.167743
O28	O	1.272492	0.631011	0.047476
O29	O	0.929681	0.846143	-0.167660
O30	O	1.080928	0.415874	0.167735
O31	O	1.272529	0.415876	0.167737
O32	O	1.272483	0.415878	0.047466
O33	O	0.738125	0.846139	-0.047392
O34	O	0.929726	0.846141	-0.047390
O35	O	1.061738	0.560209	0.106237
O36	O	1.174504	0.560211	0.035437
O37	O	1.061690	0.701808	-0.035360
O38	O	0.948924	0.701806	0.035440
C39	C	1.005296	0.441752	0.000029
C40	C	1.005293	0.377520	0.000026
C41	C	0.703790	0.631005	0.000034
C42	C	0.601459	0.631004	0.000033
C43	C	1.064148	0.347351	-0.036933
C44	C	1.064159	0.286990	-0.036928
C45	C	1.005293	0.256812	0.000028
C46	C	0.946435	0.286985	0.036996
C47	C	0.946436	0.347340	0.036995
C48	C	0.906671	0.194782	-0.005247
C49	C	0.906668	0.134433	-0.005251
C50	C	1.005294	0.070657	0.000035
C51	C	1.103923	0.067247	0.005312
C52	C	1.103923	0.127601	0.005311
C53	C	1.005287	0.191368	0.000034
C54	C	1.064166	-0.024963	-0.036920
C55	C	1.064180	-0.085329	-0.036909
C56	C	0.946446	-0.085326	0.037010
C57	C	0.946443	-0.024968	0.037004
C58	C	1.005300	0.005213	0.000035
C59	C	0.612268	0.557094	0.036988
C60	C	0.516113	0.557097	0.036994
C61	C	0.398343	0.704929	-0.036915
C62	C	0.494497	0.704924	-0.036916
C63	C	0.680260	0.471744	0.079656
C64	C	0.584105	0.471748	0.079663
C65	C	1.306819	0.631012	0.000040
C66	C	1.409150	0.631013	0.000041
C67	C	1.005232	0.631011	-0.189227
C68	C	1.005208	0.631012	-0.253462
C69	C	1.005313	0.820265	0.000045
C70	C	1.005315	0.884497	0.000048
C71	C	0.946326	0.704922	-0.320590
C72	C	0.946354	0.704923	-0.380945
C73	C	1.005249	0.631010	-0.374168
C74	C	1.064144	0.557091	-0.307028
C75	C	1.064123	0.557092	-0.246675
C76	C	0.996884	0.574382	-0.441488
C77	C	0.996896	0.574384	-0.501841
C78	C	1.005321	0.631004	-0.560316
C79	C	1.013709	0.687636	-0.558436
C80	C	1.013688	0.687637	-0.498083
C81	C	1.005279	0.631001	-0.439607
C82	C	0.946467	0.704920	-0.692890
C83	C	0.946503	0.704918	-0.753245
C84	C	1.064286	0.557084	-0.679326
C85	C	1.064257	0.557088	-0.618973
C86	C	1.005341	0.631008	-0.625760
C87	C	1.005376	0.631006	0.189302
C88	C	1.005401	0.631005	0.253536
C89	C	1.306810	0.441756	0.000032
C90	C	1.409139	0.377525	0.000030
C91	C	1.005368	0.441749	0.189294
C92	C	1.005390	0.377517	0.253525
C93	C	1.306882	0.441753	0.189297
C94	C	1.409235	0.377521	0.253529
C95	C	0.703726	0.820265	-0.189222
C96	C	0.601373	0.884496	-0.253455
C97	C	0.703798	0.820262	0.000042
C98	C	0.601470	0.884492	0.000044
C99	C	1.005240	0.820268	-0.189219
C100	C	1.005219	0.884501	-0.253451
C101	C	1.398302	0.347361	-0.036935
C102	C	1.494442	0.287018	-0.036951
C103	C	1.601416	0.256835	0.000003
C104	C	1.612250	0.287005	0.036970
C105	C	1.516112	0.347351	0.036981
C106	C	1.064291	0.347352	0.320654
C107	C	1.064307	0.287007	0.381012
C108	C	1.005428	0.256823	0.374241
C109	C	0.946520	0.286994	0.307105
C110	C	0.946498	0.347342	0.246748
C111	C	1.516174	0.347358	0.246737
C112	C	1.612355	0.287014	0.307085
C113	C	1.601594	0.256830	0.374224
C114	C	1.494644	0.286998	0.381016
C115	C	1.398466	0.347345	0.320668
C116	C	0.494434	0.914666	-0.246662
C117	C	0.398254	0.975029	-0.307010
C118	C	0.409014	1.005217	-0.374150
C119	C	0.515964	0.975044	-0.380941
C120	C	0.612142	0.914687	-0.320594
C121	C	0.612306	0.914662	0.037003
C122	C	0.516167	0.975022	0.037002
C123	C	0.409192	1.005207	0.000046
C124	C	0.398358	0.975035	-0.036918
C125	C	0.494497	0.914680	-0.036921
C126	C	1.064109	0.914665	-0.246657
C127	C	1.064111	0.975011	-0.307003
C128	C	1.005215	1.005195	-0.374144
C129	C	0.946323	0.975024	-0.380937
C130	C	0.946328	0.914676	-0.320591
H131	H	1.112076	0.371921	-0.067033
Br132	Br	1.144035	0.456778	-0.155565
H133	H	0.898368	0.890122	-0.326133
H134	H	0.990060	0.528275	-0.503367
Br135	Br	1.757486	0.246082	0.297851
Br136	Br	1.144149	0.456776	-0.527865
Br137	Br	0.866618	0.246021	0.297927
Br138	Br	1.144049	0.873715	-0.155545
Br139	Br	0.530549	1.016020	-0.472065
H140	H	1.679918	0.207691	0.423357
H141	H	1.485899	0.262413	0.435689
Br142	Br	1.144213	0.388299	0.329864
Br143	Br	1.253338	0.388270	0.329900
Br144	Br	1.005217	1.087099	-0.456036
H145	H	0.699214	0.890123	-0.326133
H146	H	1.112087	0.262422	-0.067025
Br147	Br	0.757474	0.873713	0.087162
H148	H	0.731156	0.445265	0.051493
H149	H	1.524951	0.371902	0.067087
Br150	Br	1.144036	1.015947	-0.297768
Br151	Br	1.144261	0.246074	0.472115
Br152	Br	0.866558	0.388285	0.087160
H153	H	1.485598	0.262461	-0.067053
Br154	Br	0.278729	1.087118	0.000057
Br155	Br	0.479800	0.873708	-0.155552
Br156	Br	1.731879	0.174936	-0.000019
H157	H	1.699361	0.262421	0.067057
H158	H	0.990015	0.528276	-0.393880
Br159	Br	0.866557	0.388268	0.155647
Br160	Br	0.772809	0.281331	-0.012421
H161	H	1.311207	0.371935	-0.067036
H162	H	1.005455	0.207684	0.423393
Br163	Br	0.866386	1.016004	-0.472062
H164	H	0.311180	0.999585	-0.301467
H165	H	0.732438	0.439027	0.136161
H166	H	0.311247	0.999620	-0.067006
H167	H	0.898507	0.262410	0.067086
H168	H	1.524957	0.371926	0.192074
Br169	Br	0.584054	0.417160	0.040073
Br170	Br	0.479770	0.873739	-0.087081
Br171	Br	1.237781	-0.019296	0.012481
Br172	Br	1.144049	0.015996	-0.087086
H173	H	0.525010	0.999578	0.067105
Br174	Br	1.144059	-0.126272	-0.087075
Br175	Br	0.866557	-0.126277	0.087167
Br176	Br	0.278474	1.087132	-0.456044
Br177	Br	0.866340	0.805242	-0.329803
Br178	Br	0.866595	0.805234	-0.844354
H179	H	1.184231	0.124819	0.009609
H180	H	0.898512	-0.000401	0.067098
H181	H	0.826357	0.137218	-0.009551
H182	H	0.575408	0.445260	0.134308
H183	H	0.485687	0.765110	-0.067006
H184	H	0.311245	0.765112	-0.066998
Br185	Br	1.025071	0.764489	-0.495531
Br186	Br	1.025139	0.764485	-0.637790
Br187	Br	0.866441	0.805237	-0.472060
H188	H	1.112241	0.496902	-0.673807
Br189	Br	1.144082	0.456780	-0.297828
Br190	Br	0.866539	0.805238	-0.702096
