data_functionalizedCrystal
_audit_creation_method	'MofGen! by Chris Wilmer'
_symmetry_space_group_name_H-M	'P1'
_symmetry_Int_Tables_number	1
_symmetry_cell_setting	triclinic
loop_
_symmetry_equiv_pos_as_xyz
  x,y,z
_cell_length_a	18.266242
_cell_length_b	14.044220
_cell_length_c	14.044220
_cell_angle_alpha	93.188878
_cell_angle_beta	89.993114
_cell_angle_gamma	89.996046
loop_
_atom_site_label
_atom_site_type_symbol
_atom_site_fract_x
_atom_site_fract_y
_atom_site_fract_z
O1	O	0.060806	-1.277174	-0.230170
O2	O	0.060824	-1.000503	-0.221864
O3	O	0.060808	-1.134686	-0.087681
O4	O	0.060822	-1.142991	-0.364352
O5	O	-0.060954	-1.134660	-0.087671
O6	O	-0.060938	-1.000477	-0.221854
O7	O	-0.060956	-1.277149	-0.230160
Zn8	Zn	-0.080279	-1.138809	-0.226006
Zn9	Zn	0.080148	-1.138843	-0.226018
O10	O	-0.060940	-1.142966	-0.364343
C11	C	-0.000054	-0.964868	-0.218223
C12	C	-0.000047	-0.858725	-0.207379
C13	C	-0.000073	-1.131037	-0.052054
C14	C	-0.000073	-1.120193	0.054088
N15	N	-0.189766	-1.138793	-0.225997
C16	C	-0.228082	-1.198233	-0.166614
C17	C	-0.304727	-1.198239	-0.166610
C18	C	-0.343053	-1.138815	-0.226006
C19	C	-0.304728	-1.079363	-0.285393
C20	C	-0.228084	-1.079352	-0.285388
N21	N	-0.463381	-1.133806	-0.309456
N22	N	-0.536189	-1.133822	-0.309458
C23	C	-0.573975	-1.138843	-0.226022
N24	N	-0.536203	-1.143866	-0.142584
N25	N	-0.463389	-1.143855	-0.142583
C26	C	-0.426160	-1.138820	-0.226017
C27	C	-0.695399	-1.198292	-0.166630
C28	C	-0.772045	-1.198291	-0.166625
C29	C	-0.772044	-1.079420	-0.285416
C30	C	-0.695399	-1.079416	-0.285413
C31	C	-0.657081	-1.138857	-0.226022
N32	N	0.189634	-1.138865	-0.226020
C33	C	-0.000076	-1.312783	-0.233800
C34	C	-0.000078	-1.418926	-0.244645
C35	C	-0.000063	-0.664388	-0.187553
C36	C	-0.000062	-0.613258	-0.264467
C37	C	-0.000071	-0.505122	-0.253435
C38	C	-0.000054	-0.772534	-0.198583
C39	C	-0.000057	-1.146614	-0.399969
C40	C	-0.000052	-1.157459	-0.506112
C41	C	-0.000061	-1.100366	0.248426
C42	C	-0.000064	-1.177281	0.299556
C43	C	-0.000057	-1.166249	0.407692
C44	C	-0.000068	-1.111397	0.140280
H45	H	-0.196886	-1.246631	-0.118252
O46	O	-0.000003	-0.658066	-0.352840
C47	C	-0.000005	-0.757625	-0.344328
H48	H	0.023025	-0.774585	-0.271758
H49	H	-0.058413	-0.785758	-0.351278
C50	C	0.019494	-0.784632	-0.512804
C51	C	0.047787	-0.805463	-0.423675
H52	H	0.048972	-0.814143	-0.561751
H53	H	0.019494	-0.717558	-0.518540
H54	H	-0.029178	-0.808077	-0.518583
H55	H	0.096455	-0.782008	-0.417893
H56	H	0.047797	-0.872535	-0.417940
H57	H	-0.000054	-1.026239	0.285863
H58	H	-0.000071	-0.626951	-0.113425
H59	H	-0.803248	-1.031032	-0.333773
H60	H	-0.000020	-1.251414	0.262117
H61	H	-0.664200	-1.031019	-0.333772
H62	H	-0.335936	-1.030977	-0.333752
O63	O	-0.341881	-1.255927	-0.108789
C64	C	-0.323186	-1.232409	-0.012954
H65	H	-0.267540	-1.195619	-0.009927
H66	H	-0.366331	-1.182392	0.020609
C67	C	-0.387998	-1.369165	0.038590
C68	C	-0.319650	-1.323986	0.042307
H69	H	-0.385820	-1.425653	0.072679
H70	H	-0.400596	-1.385008	-0.025976
H71	H	-0.423945	-1.327474	0.066557
H72	H	-0.283706	-1.365672	0.014329
H73	H	-0.307046	-1.308152	0.106870
O74	O	-0.190974	-1.021585	-0.343169
C75	C	-0.241232	-0.969113	-0.395574
H76	H	-0.295862	-1.008349	-0.399986
H77	H	-0.249393	-0.895573	-0.358535
C78	C	-0.144212	-0.909945	-0.491470
C79	C	-0.211308	-0.958140	-0.496897
H80	H	-0.125753	-0.903172	-0.553970
H81	H	-0.110351	-0.945293	-0.456162
H82	H	-0.151022	-0.848667	-0.460601
H83	H	-0.204496	-1.019421	-0.527755
H84	H	-0.245167	-0.922801	-0.532213
H85	H	-0.664199	-1.246690	-0.118267
H86	H	-0.803242	-1.246691	-0.118263
