data_functionalizedCrystal
_audit_creation_method	'MofGen! by Chris Wilmer'
_symmetry_space_group_name_H-M	'P1'
_symmetry_Int_Tables_number	1
_symmetry_cell_setting	triclinic
loop_
_symmetry_equiv_pos_as_xyz
  x,y,z
_cell_length_a	14.519709
_cell_length_b	11.026607
_cell_length_c	10.065875
_cell_angle_alpha	100.731764
_cell_angle_beta	81.242070
_cell_angle_gamma	96.133081
loop_
_atom_site_label
_atom_site_type_symbol
_atom_site_fract_x
_atom_site_fract_y
_atom_site_fract_z
O1	O	1.260605	0.141346	-0.113307
O2	O	0.995219	0.160080	-0.113348
O3	O	1.105917	-0.025988	-0.113326
O4	O	1.149907	0.327413	-0.113329
O5	O	1.084832	0.009635	0.113659
O6	O	0.974135	0.195703	0.113637
O7	O	1.239520	0.176969	0.113678
Zn8	Zn	1.103480	0.191992	0.149696
Zn9	Zn	1.131260	0.145057	-0.149366
O10	O	1.128823	0.363037	0.113656
C11	C	1.087259	-0.053405	0.000164
C12	C	1.063067	-0.188173	0.000155
C13	C	0.950174	0.177017	0.000139
C14	C	0.847363	0.174397	0.000123
C15	C	1.129866	-0.261832	0.000163
C16	C	1.104865	-0.401122	0.000155
C17	C	0.470874	0.164772	0.000186
C18	C	0.575624	0.167445	0.000168
C19	C	0.659115	0.169584	0.000153
C20	C	0.763872	0.172258	0.000138
C21	C	1.284566	0.160032	0.000188
C22	C	1.387378	0.162650	0.000195
C23	C	1.147480	0.390453	0.000163
C24	C	1.171673	0.525220	0.000163
N25	N	1.084527	0.224023	0.353798
N26	N	1.150218	0.113016	-0.353468
C27	C	1.124658	0.156194	0.421585
C28	C	1.110081	0.180855	0.578749
H29	H	1.205564	-0.221773	0.000184
C30	C	1.184727	0.054253	0.343875
C31	C	1.146536	-0.059611	0.378468
C32	C	1.201843	-0.153541	0.306884
H33	H	1.246368	0.070863	0.367144
H34	H	1.186494	0.051150	0.248570
H35	H	1.144779	-0.056507	0.473752
H36	H	1.084901	-0.076260	0.355196
H37	H	1.203610	-0.156643	0.211579
H38	H	1.263481	-0.136918	0.330159
H39	H	1.175934	-0.230809	0.330336
H40	H	1.064923	0.257185	0.637061
C41	C	1.003969	-0.454739	0.000203
C42	C	0.999225	-0.582227	0.000230
C43	C	0.906298	-0.631659	0.000292
H44	H	0.981378	-0.440721	-0.078933
H45	H	0.966742	-0.415819	0.079386
H46	H	1.036439	-0.621135	-0.078945
H47	H	1.021798	-0.596281	0.079360
H48	H	0.869070	-0.592739	0.079475
H49	H	0.883714	-0.617632	-0.078846
H50	H	0.903065	-0.718162	0.000322
H51	H	1.247386	-0.434746	0.000072
C52	C	0.962080	-0.241347	0.000066
C53	C	0.905302	-0.146403	0.000026
C54	C	0.812268	-0.195339	-0.000076
H55	H	0.942385	-0.277735	0.079193
H56	H	0.957179	-0.302552	-0.079126
H57	H	0.910198	-0.085220	0.079210
H58	H	0.924968	-0.110007	-0.079095
H59	H	0.807367	-0.256544	-0.079268
H60	H	0.792582	-0.231726	0.079053
H61	H	0.773734	-0.130930	-0.000115
C62	C	1.210243	0.010944	0.569032
C63	C	1.171914	-0.102778	0.603869
C64	C	1.227157	-0.196880	0.532565
H65	H	1.271869	0.027516	0.592365
H66	H	1.212076	0.007667	0.473687
H67	H	1.170091	-0.099499	0.699193
H68	H	1.110294	-0.119389	0.580532
H69	H	1.228990	-0.200158	0.437220
H70	H	1.288780	-0.180296	0.555904
H71	H	1.201154	-0.274053	0.556182
C72	C	1.024392	0.325786	0.431791
C73	C	1.021914	0.330042	0.572169
C74	C	0.966536	0.423783	0.644054
H75	H	0.962730	0.309117	0.408614
H76	H	1.050185	0.403168	0.408520
H77	H	0.996118	0.252678	0.595430
H78	H	1.083562	0.346727	0.595387
H79	H	0.992329	0.501165	0.620784
H80	H	0.904877	0.407105	0.620866
H81	H	0.964854	0.426690	0.739308
