data_functionalizedCrystal
_audit_creation_method	'MofGen! by Chris Wilmer'
_symmetry_space_group_name_H-M	'P1'
_symmetry_Int_Tables_number	1
_symmetry_cell_setting	triclinic
loop_
_symmetry_equiv_pos_as_xyz
  x,y,z
_cell_length_a	18.760487
_cell_length_b	12.970454
_cell_length_c	12.970454
_cell_angle_alpha	59.999776
_cell_angle_beta	90.034967
_cell_angle_gamma	60.020386
loop_
_atom_site_label
_atom_site_type_symbol
_atom_site_fract_x
_atom_site_fract_y
_atom_site_fract_z
Zr1	Zr	0.686684	1.128519	-0.134694
O2	O	0.572868	1.343609	-0.299420
O3	O	0.721574	0.913428	-0.084196
O4	O	0.721575	1.128518	-0.299287
O5	O	0.572866	1.128520	0.085337
O6	O	0.838878	1.128518	-0.299182
O7	O	0.572867	1.128519	-0.084329
O8	O	0.838876	0.743762	0.085576
O9	O	0.572868	1.513276	-0.299421
O10	O	0.823997	1.001898	-0.062582
O11	O	0.736454	1.001899	0.063960
O12	O	0.736455	1.255139	-0.189281
O13	O	0.648913	1.255140	-0.062739
Zr14	Zr	0.873767	1.128520	0.136071
Zr15	Zr	0.873768	1.128519	-0.134527
Zr16	Zr	0.686682	1.128520	0.135905
Zr17	Zr	0.686684	1.399119	-0.134695
Zr18	Zr	0.873767	0.857920	0.136072
O19	O	0.838876	1.343611	0.085573
O20	O	0.838878	1.343609	-0.299183
O21	O	0.572866	1.343611	0.085336
O22	O	0.987583	0.913430	0.300797
O23	O	0.987585	0.913428	-0.083959
O24	O	0.721572	0.913430	0.300560
O25	O	0.987585	1.128519	-0.083960
O26	O	0.838875	1.128521	0.300664
O27	O	0.721573	1.128521	0.300559
O28	O	0.987584	1.128520	0.085706
O29	O	0.721575	1.513276	-0.299289
O30	O	0.838875	0.743763	0.300666
O31	O	0.987583	0.743762	0.300798
O32	O	0.987584	0.743761	0.085708
O33	O	0.572867	1.513278	-0.084331
O34	O	0.721574	1.513277	-0.084199
O35	O	0.823995	1.001899	0.190659
O36	O	0.911538	1.001899	0.064116
O37	O	0.823997	1.255140	-0.062583
O38	O	0.736454	1.255141	0.063959
C39	C	0.780225	0.790040	0.000690
C40	C	0.780225	0.675163	0.000691
C41	C	0.546211	1.128520	0.000480
C42	C	0.466789	1.128520	0.000410
C43	C	0.085276	1.260714	-0.065227
C44	C	0.176675	0.996326	0.067049
C45	C	0.251297	0.996323	0.066940
C46	C	0.242912	1.128518	0.000745
C47	C	0.159904	1.260716	-0.065341
C48	C	0.334310	0.864128	0.133015
C49	C	0.408938	0.864121	0.132908
C50	C	0.400553	0.996318	0.066720
C51	C	0.317539	1.128520	0.000632
C52	C	0.309153	1.260716	-0.065563
C53	C	0.226140	1.392920	-0.131645
C54	C	0.151519	1.392913	-0.131529
C55	C	0.475175	0.996325	0.066605
C56	C	0.383781	1.260717	-0.065677
C57	C	1.014240	1.128519	0.000897
C58	C	1.093662	1.128519	0.000968
C59	C	0.780227	1.128518	-0.337789
C60	C	0.780228	1.128517	-0.452665
C61	C	0.780225	1.466999	0.000687
C62	C	0.780225	1.581875	0.000686
C63	C	0.780224	1.128521	0.339166
C64	C	0.780223	1.128522	0.454042
C65	C	1.014240	0.790040	0.000899
C66	C	1.093662	0.675163	0.000970
C67	C	0.780224	0.790042	0.339168
C68	C	0.780223	0.675166	0.454045
C69	C	1.014238	0.790042	0.339376
C70	C	1.093660	0.675165	0.454323
C71	C	0.546213	1.466997	-0.337999
C72	C	0.466791	1.581874	-0.452946
C73	C	0.546211	1.466999	0.000479
C74	C	0.466789	1.581876	0.000407
C75	C	0.780227	1.466997	-0.337791
C76	C	0.780228	1.581873	-0.452667
C77	C	1.085264	0.621215	-0.065143
C78	C	1.159882	0.513291	-0.065101
C79	C	1.242898	0.459309	0.001061
C80	C	1.251295	0.513268	0.067176
C81	C	1.176677	0.621197	0.067126
C82	C	1.176661	0.621218	0.442250
C83	C	1.251294	0.513294	0.550245
C84	C	1.242923	0.459313	0.670312
C85	C	1.159912	0.513271	0.682383
C86	C	1.085282	0.621200	0.574389
C87	C	0.383790	1.635834	-0.440873
C88	C	0.309157	1.743791	-0.548868
C89	C	0.317528	1.797778	-0.668935
C90	C	0.400538	1.743813	-0.681006
C91	C	0.475169	1.635865	-0.573012
C92	C	0.475187	1.635835	0.066509
C93	C	0.400568	1.743789	0.066438
C94	C	0.317553	1.797775	0.000271
C95	C	0.309156	1.743811	-0.065839
C96	C	0.383774	1.635867	-0.065774
H97	H	0.376942	1.368368	-0.119568
H98	H	0.476524	0.756472	0.186714
H99	H	1.303650	0.371425	0.001093
H100	H	1.318877	0.469372	0.540394
C101	C	0.154172	1.909251	-0.655717
C102	C	0.217919	1.803089	-0.535581
H103	H	0.097849	1.945861	-0.647509
H104	H	0.160708	1.867165	-0.700566
H105	H	0.160721	1.986739	-0.700542
H106	H	0.211375	1.725596	-0.490760
H107	H	0.211381	1.845175	-0.490713
H108	H	0.241555	1.787783	-0.119710
H109	H	0.376924	1.591936	-0.119598
H110	H	1.153029	0.469371	-0.118940
C111	C	1.324964	0.216539	0.860993
C112	C	1.324959	0.340675	0.789020
H113	H	1.375610	0.143304	0.934279
H114	H	1.324962	0.181168	0.812166
H115	H	1.274330	0.240958	0.885364
H116	H	1.375591	0.316259	0.764642
H117	H	1.324970	0.376052	0.837857
C118	C	1.406262	0.347774	0.125993
C119	C	1.342551	0.453908	0.139912
H120	H	1.462600	0.311116	0.170909
H121	H	1.399710	0.389901	0.039037
H122	H	1.399690	0.270313	0.158614
H123	H	1.349118	0.531374	0.107282
H124	H	1.349105	0.411782	0.226885
C125	C	0.984418	0.742522	0.653791
C126	C	0.994048	0.680475	0.587678
H127	H	0.928097	0.779102	0.662008
H128	H	0.990940	0.820026	0.608933
H129	H	1.027681	0.670506	0.735280
H130	H	0.950790	0.752493	0.506185
H131	H	0.987517	0.602962	0.632535
C132	C	0.558028	1.646694	0.197236
C133	C	0.566432	1.576511	0.139246
H134	H	0.614358	1.610081	0.242134
H135	H	0.527021	1.629003	0.254252
H136	H	0.527016	1.748595	0.134644
H137	H	0.597439	1.474610	0.201839
H138	H	0.597453	1.594189	0.082225
H139	H	0.542760	0.888686	0.120418
H140	H	1.183527	0.665107	0.120971
C141	C	0.576016	1.690820	-0.652433
C142	C	0.566398	1.576565	-0.586316
H143	H	0.632333	1.654219	-0.660663
H144	H	0.569496	1.732886	-0.607569
H145	H	0.532746	1.762832	-0.733916
H146	H	0.609663	1.504558	-0.504829
H147	H	0.572926	1.534477	-0.631179
C148	C	0.235480	2.040565	-0.859609
C149	C	0.235488	1.916426	-0.787638
H150	H	0.184827	2.113810	-0.932883
H151	H	0.286102	2.016160	-0.883991
H152	H	0.235492	2.075928	-0.810766
H153	H	0.235483	1.881057	-0.836478
H154	H	0.184852	1.940832	-0.763258
C155	C	0.285952	1.646721	-0.321139
C156	C	0.374572	1.576527	-0.308903
H157	H	0.280258	1.610124	-0.239667
H158	H	0.258742	1.629021	-0.365997
H159	H	0.258758	1.748623	-0.366033
H160	H	0.401765	1.474626	-0.264017
H161	H	0.401793	1.594216	-0.264025
H162	H	1.017675	0.665166	-0.119036
H163	H	0.341130	0.756502	0.186907
C164	C	0.160890	1.952447	-0.071843
C165	C	0.235535	1.916439	0.000197
H166	H	0.110260	2.025714	-0.071892
H167	H	0.160880	1.868254	-0.036452
H168	H	0.160900	1.987819	-0.156050
H169	H	0.235528	1.881057	0.084407
H170	H	0.235545	2.000650	-0.035190
C171	C	0.128310	1.654270	-0.262388
C172	C	0.216927	1.538228	-0.204409
H173	H	0.122628	1.743972	-0.307313
H174	H	0.101177	1.648777	-0.199798
H175	H	0.101032	1.648769	-0.319390
H176	H	0.244204	1.543723	-0.147399
H177	H	0.244072	1.543724	-0.267006
C178	C	-0.003453	1.510298	-0.190104
C179	C	0.060273	1.538221	-0.204174
H180	H	-0.059785	1.600006	-0.234961
H181	H	0.003160	1.455996	-0.103123
H182	H	0.003041	1.455973	-0.222707
H183	H	0.053783	1.592537	-0.171562
H184	H	0.053657	1.592546	-0.291173
H185	H	0.407422	1.787708	0.120277
H186	H	0.017685	1.368351	-0.119025
H187	H	1.153110	0.469304	0.780156
C188	C	1.274499	0.610208	0.322516
C189	C	1.185879	0.680418	0.310280
H190	H	1.280193	0.646725	0.241045
H191	H	1.301699	0.508308	0.367490
H192	H	1.301703	0.627999	0.367294
H193	H	1.158676	0.662617	0.265510
H194	H	1.158667	0.782342	0.265287
H195	H	0.183496	0.888698	0.120937
H196	H	0.407344	1.787783	-0.778777
