data_functionalizedCrystal
_audit_creation_method	'MofGen! by Chris Wilmer'
_symmetry_space_group_name_H-M	'P1'
_symmetry_Int_Tables_number	1
_symmetry_cell_setting	triclinic
loop_
_symmetry_equiv_pos_as_xyz
  x,y,z
_cell_length_a	10.654550
_cell_length_b	16.992695
_cell_length_c	15.455313
_cell_angle_alpha	87.152573
_cell_angle_beta	92.710655
_cell_angle_gamma	87.576563
loop_
_atom_site_label
_atom_site_type_symbol
_atom_site_fract_x
_atom_site_fract_y
_atom_site_fract_z
O1	O	-1.682532	-0.106785	-0.072204
O2	O	-1.317960	-0.117284	-0.072190
O3	O	-1.498784	0.002116	-0.072190
O4	O	-1.501708	-0.226184	-0.072204
O5	O	-1.488441	-0.004683	0.072072
O6	O	-1.307616	-0.124083	0.072072
O7	O	-1.672189	-0.113584	0.072058
Cu8	Cu	-1.488958	-0.119455	0.085237
Cu9	Cu	-1.501190	-0.111413	-0.085369
O10	O	-1.491365	-0.232984	0.072058
C11	C	-1.265923	-0.119913	-0.000057
C12	C	-1.126280	-0.117607	-0.000052
C13	C	-1.489852	0.027949	-0.000059
C14	C	-1.478633	0.115054	-0.000059
C15	C	-1.724225	-0.110955	-0.000077
C16	C	-1.863868	-0.113261	-0.000088
C17	C	-1.052871	-0.187907	-0.000069
C18	C	-0.921664	-0.185734	-0.000084
C19	C	-0.937287	-0.042956	-0.000068
C20	C	-1.068492	-0.045129	-0.000047
C21	C	-1.110659	-0.260384	-0.000073
C22	C	-1.037249	-0.330690	-0.000091
C23	C	-0.906042	-0.328517	-0.000106
C24	C	-0.848245	-0.256039	-0.000103
C25	C	-1.500296	-0.258817	-0.000075
C26	C	-1.511516	-0.345922	-0.000081
N27	N	-1.480364	-0.125110	0.205233
C28	C	-1.586884	0.164706	-0.000062
C29	C	-1.576335	0.246551	-0.000070
C30	C	-1.457534	0.278741	-0.000068
C31	C	-1.349275	0.229083	-0.000068
C32	C	-1.359825	0.147241	-0.000066
C33	C	-1.413808	0.522577	-0.000079
C34	C	-1.403265	0.604426	-0.000078
C35	C	-1.630327	0.621888	-0.000081
C36	C	-1.640866	0.540043	-0.000074
C37	C	-1.532607	0.490392	-0.000078
N38	N	-1.446748	0.362399	-0.000073
N39	N	-1.543394	0.406736	-0.000079
N40	N	-1.509794	-0.105752	-0.205365
C41	C	-1.557215	-0.074404	0.250627
C42	C	-1.550728	-0.078688	0.341435
C43	C	-1.467395	-0.133682	0.386847
C44	C	-1.390536	-0.184391	0.341447
C45	C	-1.397017	-0.180102	0.250640
C46	C	-1.439416	-0.152172	0.658428
C47	C	-1.432943	-0.156458	0.749241
C48	C	-1.593134	-0.050754	0.749223
C49	C	-1.599613	-0.046473	0.658415
C50	C	-1.522749	-0.097179	0.613023
N51	N	-1.460765	-0.138064	0.479667
N52	N	-1.529374	-0.092792	0.520204
H53	H	-1.217494	-0.262161	-0.000065
H54	H	-1.683624	0.138504	-0.000058
Br55	Br	-1.723254	0.313933	-0.000074
H56	H	-1.718464	0.662322	-0.000080
H57	H	-1.625078	-0.029624	0.213658
Br58	Br	-1.242024	0.648112	-0.000066
H59	H	-1.252545	0.255299	-0.000072
H60	H	-1.325655	0.482161	-0.000082
Br61	Br	-1.115684	-0.429048	-0.000082
Br62	Br	-1.168127	0.050279	-0.000019
Br63	Br	-1.655022	-0.009869	0.403044
H64	H	-0.846274	-0.385764	-0.000112
Br65	Br	-0.670174	-0.253094	-0.000107
Br66	Br	-1.319844	-0.231104	0.810866
Br67	Br	-1.712713	0.028160	0.596783
H68	H	-1.334436	-0.221392	0.213681
H69	H	-0.890219	0.016053	-0.000080
H70	H	-1.271675	0.106814	-0.000064
H71	H	-1.655711	-0.009471	0.786190
H72	H	-1.376833	-0.193460	0.621477
H73	H	-1.322678	-0.229166	0.378426
H74	H	-1.737606	0.513840	-0.000076
