data_functionalizedCrystal
_audit_creation_method	'MofGen! by Chris Wilmer'
_symmetry_space_group_name_H-M	'P1'
_symmetry_Int_Tables_number	1
_symmetry_cell_setting	triclinic
loop_
_symmetry_equiv_pos_as_xyz
  x,y,z
_cell_length_a	8.559649
_cell_length_b	19.188924
_cell_length_c	7.088929
_cell_angle_alpha	83.795552
_cell_angle_beta	95.325015
_cell_angle_gamma	76.460314
loop_
_atom_site_label
_atom_site_type_symbol
_atom_site_fract_x
_atom_site_fract_y
_atom_site_fract_z
O1	O	2.103839	-0.015637	-0.158955
O2	O	1.638379	0.020435	-0.158969
O3	O	1.884549	-0.099960	-0.158939
O4	O	1.857669	0.104759	-0.158985
O5	O	1.917448	-0.116083	0.159040
O6	O	1.671278	0.004313	0.159010
O7	O	2.136737	-0.031759	0.159024
Cu8	Cu	1.907011	-0.015195	0.188051
Cu9	Cu	1.868105	0.003871	-0.187996
O10	O	1.890567	0.088637	0.158994
C11	C	1.595279	0.015108	0.000019
C12	C	1.417841	0.023245	0.000014
C13	C	1.900130	-0.133987	0.000052
C14	C	1.897524	-0.211356	0.000057
C15	C	1.878374	-0.238903	-0.173274
C16	C	1.875900	-0.311596	-0.173288
C17	C	1.892609	-0.356743	0.000038
C18	C	1.911752	-0.329187	0.173392
C19	C	1.914210	-0.256494	0.173401
N20	N	1.993062	-0.487501	0.129043
N21	N	1.990730	-0.556557	0.129022
C22	C	1.885203	-0.575764	0.000019
N23	N	1.782114	-0.523308	-0.128991
N24	N	1.784453	-0.454246	-0.128976
C25	C	1.889946	-0.435567	0.000047
C26	C	1.863367	-0.682132	-0.173339
C27	C	1.860884	-0.754825	-0.173347
C28	C	1.896753	-0.772417	0.173338
C29	C	1.899220	-0.699723	0.173341
C30	C	1.882534	-0.654585	-0.000004
C31	C	2.179837	-0.026431	0.000032
C32	C	2.357273	-0.034568	0.000024
C33	C	1.874986	0.122664	-0.000001
C34	C	1.877591	0.200033	-0.000019
N35	N	1.934387	-0.028606	0.452543
N36	N	1.840742	0.017276	-0.452487
H37	H	1.864782	-0.202155	-0.314424
H38	H	1.743689	0.064824	0.465854
H39	H	2.031458	-0.076153	0.534210
Br40	Br	1.278013	0.116128	-0.000034
Br41	Br	1.497090	-0.127444	0.000027
H42	H	1.860296	-0.334028	-0.314440
Br43	Br	1.934409	-0.390453	0.408622
H44	H	1.849771	-0.645377	-0.314487
Br45	Br	1.940193	-0.219105	0.408655
H46	H	1.910346	-0.809173	0.314464
Br47	Br	1.925203	-0.662334	0.408589
Br48	Br	1.834875	-0.792209	-0.408603
