data_functionalizedCrystal
_audit_creation_method	'MofGen! by Chris Wilmer'
_symmetry_space_group_name_H-M	'P1'
_symmetry_Int_Tables_number	1
_symmetry_cell_setting	triclinic
loop_
_symmetry_equiv_pos_as_xyz
  x,y,z
_cell_length_a	16.120542
_cell_length_b	16.120531
_cell_length_c	11.169409
_cell_angle_alpha	87.142764
_cell_angle_beta	92.921851
_cell_angle_gamma	90.169791
loop_
_atom_site_label
_atom_site_type_symbol
_atom_site_fract_x
_atom_site_fract_y
_atom_site_fract_z
Zn1	Zn	-1.254464	0.395615	-0.798929
Zn2	Zn	-1.247282	0.534693	-0.607837
Zn3	Zn	-1.115395	0.388593	-0.587597
Zn4	Zn	-1.108301	0.527557	-0.797813
O5	O	-1.181361	0.461614	-0.698044
O6	O	-1.369877	0.419989	-0.782518
O7	O	-1.229750	0.515360	-0.437203
O8	O	-1.139817	0.273164	-0.607627
O9	O	-1.364600	0.522169	-0.642124
O10	O	-1.241991	0.278322	-0.762892
O11	O	-1.132853	0.408022	-0.422333
O12	O	-0.998089	0.401102	-0.606545
O13	O	-1.127726	0.510007	-0.965910
O14	O	-0.992877	0.503198	-0.760990
O15	O	-1.235112	0.413070	-0.966730
O16	O	-1.222871	0.650107	-0.641041
O17	O	-1.120762	0.644865	-0.780616
C18	C	-0.965310	0.450614	-0.681451
C19	C	-0.872882	0.445929	-0.674382
C20	C	-1.170290	0.677658	-0.712932
C21	C	-1.165631	0.770087	-0.719347
C22	C	-0.659911	0.485897	-0.734646
C23	C	-0.703659	0.437381	-0.661474
C24	C	-0.797824	0.442138	-0.668658
C25	C	-0.565738	0.481141	-0.727463
C26	C	-0.398255	0.472654	-0.714686
C27	C	-0.490682	0.477347	-0.721734
C28	C	-1.157128	0.939315	-0.731083
C29	C	-1.205625	0.983075	-0.664939
C30	C	-1.200894	1.077240	-0.671470
C31	C	-1.161858	0.845142	-0.724554
C32	C	-1.181429	0.461525	-1.011085
C33	C	-1.181458	0.461487	-1.144485
C34	C	-1.192467	1.244727	-0.683102
C35	C	-1.197124	1.152298	-0.676673
C36	C	-1.181343	0.461646	-0.386220
C37	C	-1.181487	0.461458	-0.252818
H38	H	-0.670394	0.392273	-0.593435
H39	H	-0.693174	0.531002	-0.802678
C40	C	-1.096232	0.984239	-0.814193
N41	N	-1.050362	1.018085	-0.876784
H42	H	-1.250696	0.949820	-0.603406
