data_functionalizedCrystal
_audit_creation_method	'MofGen! by Chris Wilmer'
_symmetry_space_group_name_H-M	'P1'
_symmetry_Int_Tables_number	1
_symmetry_cell_setting	triclinic
loop_
_symmetry_equiv_pos_as_xyz
  x,y,z
_cell_length_a	19.288864
_cell_length_b	15.538191
_cell_length_c	18.366186
_cell_angle_alpha	89.995484
_cell_angle_beta	89.977106
_cell_angle_gamma	65.204172
loop_
_atom_site_label
_atom_site_type_symbol
_atom_site_fract_x
_atom_site_fract_y
_atom_site_fract_z
O1	O	0.891965	0.117639	-0.060769
O2	O	1.391965	0.617639	0.439231
O3	O	0.685740	0.133508	-0.060717
O4	O	1.185740	0.633508	0.439283
O5	O	0.828996	-0.011726	-0.060756
O6	O	1.328996	0.488274	0.439244
O7	O	0.748709	0.262873	-0.060729
O8	O	1.248709	0.762873	0.439271
O9	O	0.828980	-0.011734	0.060343
O10	O	1.328980	0.488266	0.560343
O11	O	0.685724	0.133501	0.060382
O12	O	1.185724	0.633501	0.560382
O13	O	0.891949	0.117632	0.060331
O14	O	1.391949	0.617632	0.560331
Zn15	Zn	0.788834	0.125565	0.079584
Zn16	Zn	1.288834	0.625565	0.579584
Zn17	Zn	0.788855	0.125574	-0.079970
Zn18	Zn	1.288855	0.625574	0.420030
O19	O	0.748693	0.262866	0.060370
O20	O	1.248693	0.762866	0.560370
C21	C	0.659983	0.132994	-0.000161
C22	C	1.159983	0.632994	0.499839
C23	C	0.583263	0.131461	-0.000142
C24	C	1.083263	0.631461	0.499858
C25	C	0.837388	-0.046861	-0.000211
C26	C	1.337388	0.453139	0.499789
C27	C	0.862409	-0.151541	-0.000225
C28	C	1.362409	0.348459	0.499775
C29	C	0.517278	0.216678	-0.000145
C30	C	1.017278	0.716678	0.499855
C31	C	0.445191	0.215238	-0.000153
C32	C	0.945191	0.715238	0.499847
C33	C	0.439092	0.128576	-0.000173
C34	C	0.939092	0.628576	0.499827
C35	C	0.505089	0.043348	-0.000166
C36	C	1.005089	0.543348	0.499834
C37	C	0.577175	0.044790	-0.000150
C38	C	1.077175	0.544790	0.499850
C39	C	0.347855	0.060453	-0.042631
C40	C	0.847855	0.560453	0.457369
C41	C	0.275770	0.059014	-0.042651
C42	C	0.775770	0.559014	0.457349
C43	C	0.216759	0.124123	-0.000218
C44	C	0.716759	0.624123	0.499782
C45	C	0.229837	0.190688	0.042226
C46	C	0.729837	0.690688	0.542226
C47	C	0.301922	0.192131	0.042242
C48	C	0.801922	0.692131	0.542242
C49	C	0.360931	0.127002	-0.000189
C50	C	0.860931	0.627002	0.499811
C51	C	0.072607	0.207785	-0.000228
C52	C	0.572607	0.707785	0.499772
C53	C	0.000520	0.206341	-0.000232
C54	C	0.500520	0.706341	0.499768
C55	C	0.060421	0.034449	-0.000252
C56	C	0.560421	0.534449	0.499748
C57	C	0.132506	0.035895	-0.000241
C58	C	0.632506	0.535895	0.499759
C59	C	0.138594	0.122565	-0.000233
C60	C	0.638594	0.622565	0.499767
C61	C	0.613831	-0.438277	-0.000147
C62	C	1.113831	0.061723	0.499853
C63	C	0.637359	-0.536642	-0.000151
C64	C	1.137359	-0.036642	0.499849
C65	C	0.769703	-0.559647	-0.000185
C66	C	1.269703	-0.059647	0.499815
C67	C	0.746185	-0.461281	-0.000184
C68	C	1.246185	0.038719	0.499816
C69	C	0.668248	-0.400603	-0.000164
C70	C	1.168248	0.099397	0.499836
C71	C	0.800603	-0.423608	-0.000201
C72	C	1.300603	0.076392	0.499799
C73	C	0.777087	-0.325251	-0.000197
C74	C	1.277087	0.174749	0.499803
C75	C	0.699153	-0.264567	-0.000175
C76	C	1.199153	0.235433	0.499825
C77	C	0.644732	-0.302246	-0.000160
C78	C	1.144732	0.197754	0.499840
C79	C	0.878540	-0.484287	-0.000216
C80	C	1.378540	0.015713	0.499784
C81	C	0.932957	-0.446614	-0.000233
C82	C	1.432957	0.053386	0.499767
C83	C	0.909441	-0.348255	-0.000234
C84	C	1.409441	0.151745	0.499766
C85	C	0.831508	-0.287571	-0.000212
C86	C	1.331508	0.212429	0.499788
C87	C	0.963863	-0.310576	-0.000249
C88	C	1.463863	0.189424	0.499751
C89	C	0.940346	-0.212219	-0.000244
C90	C	1.440346	0.287781	0.499756
C91	C	0.807992	-0.189214	-0.000207
C92	C	1.307992	0.310786	0.499793
C93	C	0.917706	0.118146	-0.000227
C94	C	1.417706	0.618146	0.499773
C95	C	0.994427	0.119679	-0.000251
C96	C	1.494427	0.619679	0.499749
C97	C	0.740301	0.298001	-0.000177
C98	C	1.240301	0.798001	0.499823
C99	C	0.715280	0.402681	-0.000168
C100	C	1.215280	0.902681	0.499832
N101	N	0.788824	0.125558	0.188475
N102	N	1.288824	0.625558	0.688475
N103	N	0.788872	0.125574	-0.188861
N104	N	1.288872	0.625574	0.311139
C105	C	0.852266	0.061280	0.226558
C106	C	1.352266	0.561280	0.726558
C107	C	0.852271	0.061276	0.302786
C108	C	1.352271	0.561276	0.802786
C109	C	0.788838	0.125566	0.340928
C110	C	1.288838	0.625566	0.840928
C111	C	0.725386	0.189849	0.302835
C112	C	1.225386	0.689849	0.802835
C113	C	0.725380	0.189845	0.226609
C114	C	1.225380	0.689845	0.726609
C115	C	0.758075	0.211489	0.461698
C116	C	1.258075	0.711489	0.961698
C117	C	0.758086	0.211494	0.537923
C118	C	1.258086	0.711494	1.037923
C119	C	0.788855	0.125578	0.576035
C120	C	1.288855	0.625578	1.076035
C121	C	0.819627	0.039653	0.537913
C122	C	1.319627	0.539653	1.037913
C123	C	0.819621	0.039649	0.461687
C124	C	1.319621	0.539649	0.961687
C125	C	0.788838	0.125577	0.423582
C126	C	1.288838	0.625577	0.923582
C127	C	0.852306	0.061290	0.696773
C128	C	1.352306	0.561290	1.196773
C129	C	0.852307	0.061284	0.773002
C130	C	1.352307	0.561284	1.273002
C131	C	0.725423	0.189866	0.773051
C132	C	1.225423	0.689866	1.273051
C133	C	0.725421	0.189863	0.696823
C134	C	1.225421	0.689863	1.196823
C135	C	0.788866	0.125576	0.658689
C136	C	1.288866	0.625576	1.158689
H137	H	0.522228	0.287252	-0.000140
H138	H	1.022228	0.787252	0.499860
Br139	Br	0.938406	-0.025959	0.645017
Br140	Br	1.438406	0.474041	1.145017
H141	H	0.395899	0.007431	-0.077189
H142	H	0.895899	0.507431	0.422811
H143	H	0.903934	0.008930	0.333798
H144	H	1.403934	0.508930	0.833798
H145	H	0.500120	-0.027213	-0.000192
H146	H	1.000120	0.472787	0.499808
Br147	Br	0.875471	-0.642003	-0.000203
Br148	Br	1.375471	-0.142003	0.499797
Br149	Br	0.639320	0.277105	0.645133
Br150	Br	1.139320	0.777105	1.145133
Br151	Br	0.861374	-0.076957	0.409952
Br152	Br	1.361374	0.423043	0.909952
Br153	Br	0.639274	0.277086	0.174920
Br154	Br	1.139274	0.777086	0.674920
H155	H	0.733007	0.281457	0.430673
H156	H	1.233007	0.781457	0.930673
Br157	Br	0.667235	-0.131080	-0.000159
Br158	Br	1.167235	0.368920	0.499841
Br159	Br	0.861396	-0.076957	0.589627
Br160	Br	1.361396	0.423043	1.089627
H161	H	0.984659	-0.181545	-0.000258
H162	H	1.484659	0.318455	0.499742
Br163	Br	0.319672	0.282460	0.099843
Br164	Br	0.819672	0.782460	0.599843
Br165	Br	0.080875	0.325406	-0.000212
Br166	Br	0.580875	0.825406	0.499788
H167	H	0.897684	-0.564375	-0.000226
H168	H	1.397684	-0.064375	0.499774
Br169	Br	0.639294	0.277095	0.354596
Br170	Br	1.139294	0.777095	0.854596
H171	H	0.903925	0.008931	0.195511
H172	H	1.403925	0.508931	0.695511
Br173	Br	0.052153	-0.083166	-0.000267
Br174	Br	0.552153	0.416834	0.499733
H175	H	0.181790	0.243706	0.076780
H176	H	0.681790	0.743706	0.576780
H177	H	0.903967	0.008936	0.804010
H178	H	1.403967	0.508936	1.304010
Br179	Br	0.639330	0.277108	0.824808
Br180	Br	1.139330	0.777108	1.324808
H181	H	0.391456	0.284634	-0.000154
H182	H	0.891456	0.784634	0.499846
H183	H	0.186234	-0.033498	-0.000242
H184	H	0.686234	0.466502	0.499758
Br185	Br	0.538959	-0.219889	-0.000143
Br186	Br	1.038959	0.280111	0.499857
H187	H	0.733034	0.281459	0.568956
H188	H	1.233034	0.781459	1.068956
Br189	Br	0.508057	-0.355919	-0.000131
Br190	Br	1.008057	0.144081	0.499869
H191	H	-0.053208	0.275738	-0.000230
H192	H	0.446792	0.775738	0.499770
Br193	Br	0.563498	-0.587767	-0.000120
Br194	Br	1.063498	-0.087767	0.499880
Br195	Br	1.038725	-0.528970	-0.000251
Br196	Br	1.538725	-0.028970	0.499749
H197	H	0.265127	0.004817	-0.077214
H198	H	0.765127	0.504817	0.422786
H199	H	0.630903	-0.024606	-0.000148
H200	H	1.130903	0.475394	0.499852
H201	H	0.744528	-0.139806	-0.000197
H202	H	1.244528	0.360194	0.499803
Br203	Br	1.069630	-0.392934	-0.000258
Br204	Br	1.569630	0.107066	0.499742
