data_functionalizedCrystal
_audit_creation_method	'MofGen! by Chris Wilmer'
_symmetry_space_group_name_H-M	'P1'
_symmetry_Int_Tables_number	1
_symmetry_cell_setting	triclinic
loop_
_symmetry_equiv_pos_as_xyz
  x,y,z
_cell_length_a	17.640280
_cell_length_b	17.639664
_cell_length_c	17.639306
_cell_angle_alpha	87.802395
_cell_angle_beta	92.178650
_cell_angle_gamma	87.812060
loop_
_atom_site_label
_atom_site_type_symbol
_atom_site_fract_x
_atom_site_fract_y
_atom_site_fract_z
Zn1	Zn	-0.094106	-1.262398	0.173139
Zn2	Zn	-0.197690	-1.252731	0.022004
Zn3	Zn	-0.103787	-1.111246	0.069531
Zn4	Zn	-0.245255	-1.158822	0.163480
O5	O	-0.160209	-1.196299	0.107039
O6	O	-0.083889	-1.363675	0.137242
O7	O	-0.169379	-1.210006	-0.074260
O8	O	0.000052	-1.115433	0.107207
O9	O	-0.159992	-1.356572	0.026204
O10	O	0.007165	-1.226483	0.183327
O11	O	-0.100389	-1.106058	-0.039342
O12	O	-0.146510	-1.014999	0.097842
O13	O	-0.241059	-1.196517	0.267330
O14	O	-0.250446	-1.049952	0.166866
O15	O	-0.130011	-1.272615	0.274426
O16	O	-0.306554	-1.256138	0.016839
O17	O	-0.341500	-1.187143	0.120781
C18	C	-0.204691	-1.005883	0.136463
C19	C	-0.223740	-0.924429	0.149065
C20	C	-0.304755	-0.827833	0.202667
C21	C	-0.286849	-0.904369	0.190822
C22	C	-0.178511	-0.867953	0.119139
C23	C	-0.196406	-0.791412	0.130981
C24	C	-0.259529	-0.771359	0.172745
C25	C	-0.151180	-0.734938	0.101059
C26	C	-0.169076	-0.658404	0.112898
C27	C	-0.232198	-0.638343	0.154658
C28	C	-0.277425	-0.694824	0.184584
C29	C	-0.088060	-0.754993	0.059291
C30	C	-0.042834	-0.698519	0.029369
C31	C	-0.060727	-0.621983	0.041211
C32	C	-0.123848	-0.601923	0.082972
C33	C	-0.015499	-0.565502	0.011286
C34	C	-0.033395	-0.488967	0.023124
C35	C	-0.141745	-0.525388	0.094810
C36	C	-0.350616	-1.225778	0.062618
C37	C	-0.432061	-1.238462	0.043628
C38	C	-0.791037	-1.100305	0.251518
C39	C	-0.867563	-1.112219	0.233651
C40	C	-0.831110	-1.184144	0.125502
C41	C	-0.754579	-1.172238	0.143362
C42	C	-0.734549	-1.130318	0.206371
C43	C	-0.698091	-1.202251	0.098215
C44	C	-0.621567	-1.190343	0.116071
C45	C	-0.601531	-1.148423	0.179075
C46	C	-0.658025	-1.118410	0.224227
C47	C	-0.718122	-1.244167	0.035204
C48	C	-0.661635	-1.274180	-0.009944
C49	C	-0.585109	-1.262277	0.007915
C50	C	-0.565073	-1.220356	0.070919
C51	C	-0.528615	-1.292290	-0.037236
C52	C	-0.452091	-1.280382	-0.019380
C53	C	-0.488549	-1.208449	0.088776
C54	C	0.030943	-1.166729	0.151646
C55	C	0.112401	-1.154128	0.170655
C56	C	-0.189761	-1.240951	0.298217
C57	C	-0.202354	-1.259979	0.379685
C58	C	-0.115553	-0.387458	0.077493
C59	C	-0.096519	-0.468914	0.064888
C60	C	-0.130710	-1.151855	-0.083390
C61	C	-0.117877	-1.132937	-0.164832
C62	C	-0.064201	-1.051988	0.738537
C63	C	-0.076046	-1.069886	0.815083
C64	C	-0.147878	-1.178116	0.778708
C65	C	-0.136036	-1.160229	0.702157
C66	C	-0.094198	-1.097163	0.682079
C67	C	-0.166032	-1.205404	0.645698
C68	C	-0.154195	-1.187516	0.569154
C69	C	-0.112360	-1.124452	0.549069
C70	C	-0.082360	-1.079275	0.605535
C71	C	-0.207875	-1.268466	0.665778
C72	C	-0.237871	-1.313642	0.609319
C73	C	-0.226029	-1.295756	0.532774
C74	C	-0.184195	-1.232693	0.512688
C75	C	-0.256030	-1.340933	0.476308
C76	C	-0.244192	-1.323045	0.399764
C77	C	-0.172357	-1.214804	0.436144
H78	H	0.035891	-0.581841	-0.022725
H79	H	-0.847429	-1.218273	0.074199
H80	H	-0.913555	-1.087787	0.270428
O81	O	-0.046850	-1.026116	0.870001
C82	C	0.003402	-1.070863	0.918861
H83	H	-0.011245	-1.133080	0.915708
H84	H	-0.002069	-1.052070	0.979596
H85	H	0.064153	-1.063623	0.900790
H86	H	0.008560	-0.714857	-0.004638
H87	H	-0.181945	-1.229462	0.795066
H88	H	0.003436	-0.442984	-0.001237
H89	H	-0.539220	-1.138722	0.193609
H90	H	-0.328821	-0.678497	0.218601
O91	O	-0.792425	-1.255874	0.017837
C92	C	-0.804439	-1.334479	0.019928
H93	H	-0.748510	-1.366914	0.011213
H94	H	-0.847468	-1.347780	-0.027087
H95	H	-0.827055	-1.352304	0.077346
O96	O	-0.366110	-0.808477	0.243241
C97	C	-0.402176	-0.874735	0.267143
H98	H	-0.387286	-0.922660	0.228095
H99	H	-0.466292	-0.863368	0.264831
H100	H	-0.382116	-0.891754	0.327830
O101	O	-0.547948	-1.332996	-0.098488
C102	C	-0.481678	-1.356952	-0.134497
H103	H	-0.433767	-1.317857	-0.119696
H104	H	-0.493027	-1.354769	-0.198616
H105	H	-0.464652	-1.417599	-0.114298
H106	H	-0.217509	-1.283030	0.728106
O107	O	-0.330668	-0.959305	0.219939
C108	C	-0.286000	-1.008196	0.270232
H109	H	-0.223760	-1.005030	0.255671
H110	H	-0.304790	-1.068926	0.264709
H111	H	-0.293330	-0.990168	0.330983
H112	H	-0.193140	-0.509061	0.128827
O113	O	-0.249603	-0.564030	0.166296
C114	C	-0.247716	-0.551989	0.244892
H115	H	-0.256509	-0.607909	0.277328
H116	H	-0.294771	-0.508945	0.258070
H117	H	-0.190344	-0.529376	0.262835
H118	H	-0.290101	-1.392277	0.492668
O119	O	-0.117119	-0.887346	0.078641
C120	C	-0.050969	-0.861125	0.114720
H121	H	-0.066843	-0.811919	0.151842
H122	H	-0.010473	-0.841047	0.069970
H123	H	-0.022102	-0.909207	0.151521
H124	H	-0.774729	-1.066175	0.302831
H125	H	-0.030123	-1.000640	0.722190
H126	H	-0.073492	-0.817313	0.049652
O127	O	-0.469168	-1.167809	0.150066
C128	C	-0.495384	-1.203757	0.216309
H129	H	-0.544586	-1.240923	0.200538
H130	H	-0.515465	-1.158922	0.256701
H131	H	-0.447303	-1.240492	0.245252
H132	H	-0.641718	-1.084280	0.275540
O133	O	-0.681003	-1.314995	-0.071108
C134	C	-0.647688	-1.388872	-0.061930
H135	H	-0.596123	-1.388309	-0.021020
H136	H	-0.629199	-1.409022	-0.119272
H137	H	-0.690802	-1.429024	-0.038076
H138	H	-0.406096	-1.304821	-0.056145
H139	H	-0.102729	-1.109884	0.486741
O140	O	-0.131810	-1.153505	0.416532
C141	C	-0.177753	-1.102270	0.369851
H142	H	-0.225483	-1.134028	0.341428
H143	H	-0.141876	-1.075258	0.324506
H144	H	-0.203049	-1.056094	0.405867
O145	O	-0.041825	-1.017928	0.586052
C146	C	-0.077785	-0.951733	0.612327
H147	H	-0.140449	-0.962006	0.620282
H148	H	-0.072152	-0.902789	0.569056
H149	H	-0.049835	-0.936878	0.668888
H150	H	-0.268606	-1.359840	0.353793
O151	O	-0.278465	-1.374893	0.628960
C152	C	-0.282502	-1.380984	0.708625
H153	H	-0.233172	-1.350674	0.735997
H154	H	-0.279145	-1.443446	0.728068
H155	H	-0.338450	-1.353758	0.726230
