data_functionalizedCrystal
_audit_creation_method	'MofGen! by Chris Wilmer'
_symmetry_space_group_name_H-M	'P1'
_symmetry_Int_Tables_number	1
_symmetry_cell_setting	triclinic
loop_
_symmetry_equiv_pos_as_xyz
  x,y,z
_cell_length_a	15.944551
_cell_length_b	15.944545
_cell_length_c	15.021413
_cell_angle_alpha	90.002227
_cell_angle_beta	89.996338
_cell_angle_gamma	96.502545
loop_
_atom_site_label
_atom_site_type_symbol
_atom_site_fract_x
_atom_site_fract_y
_atom_site_fract_z
O1	O	-0.108312	1.114528	0.073965
O2	O	-0.121673	0.869977	0.073978
O3	O	0.007283	0.998930	0.073976
O4	O	-0.237267	0.985574	0.073966
O5	O	0.007296	0.998919	-0.074088
O6	O	-0.121660	0.869966	-0.074086
O7	O	-0.108298	1.114516	-0.074100
Zn8	Zn	-0.114977	0.992239	-0.097601
Zn9	Zn	-0.114995	0.992254	0.097480
O10	O	-0.237254	0.985563	-0.074098
C11	C	-0.121113	0.838677	-0.000052
C12	C	-0.119453	0.745431	-0.000047
C13	C	-0.034559	0.474798	-0.000053
C14	C	-0.075481	0.525374	-0.073060
C15	C	-0.113532	0.409787	-0.000062
C16	C	-0.075516	0.525366	0.072920
C17	C	-0.116437	0.574701	-0.000053
C18	C	-0.154433	0.459135	-0.073129
C19	C	-0.154456	0.459123	0.072916
C20	C	-0.195436	0.509667	-0.000109
C21	C	-0.111856	0.314785	-0.000068
C22	C	-0.118119	0.669700	-0.000054
C23	C	-0.268555	0.986123	-0.000067
C24	C	-0.361801	0.987785	-0.000071
C25	C	-0.576656	1.071690	-0.000062
C26	C	-0.637666	1.032722	-0.073064
C27	C	-0.532527	0.990793	-0.000063
C28	C	-0.637665	1.032714	0.072916
C29	C	-0.697439	0.993703	-0.000052
C30	C	-0.592309	0.951802	-0.073125
C31	C	-0.592301	0.951806	0.072920
C32	C	-0.653294	0.912779	-0.000100
C33	C	-0.437524	0.989118	-0.000070
C34	C	-0.792440	0.995372	-0.000051
C35	C	0.038583	0.998370	-0.000053
C36	C	0.131829	0.996708	-0.000043
C37	C	-0.108859	1.145816	-0.000067
C38	C	-0.110519	1.239062	-0.000067
N39	N	-0.114965	0.992235	-0.230739
C40	C	-0.054862	1.051417	-0.529731
C41	C	-0.130532	1.068404	-0.470368
C42	C	-0.114990	0.992255	-0.587776
C43	C	-0.039310	0.975298	-0.470397
C44	C	-0.114973	0.992248	-0.412352
C45	C	-0.190698	1.009280	-0.529720
C46	C	-0.099426	0.916141	-0.529753
C47	C	-0.175151	0.933096	-0.470417
C48	C	-0.114998	0.992262	-0.688833
C49	C	-0.114974	0.992240	-0.311297
N50	N	-0.115000	0.992265	0.230617
H51	H	-0.042124	0.554301	-0.134779
H52	H	-0.254708	1.023689	-0.555669
F53	F	-0.031913	0.563171	0.153589
H54	H	0.033453	0.459145	-0.000121
H55	H	-0.543348	1.138839	-0.000137
F56	F	-0.198019	0.421292	0.153590
H57	H	-0.686454	0.845571	-0.000137
H58	H	-0.226048	0.883059	-0.444538
H59	H	-0.657767	1.066933	-0.134786
F60	F	-0.663932	1.077462	0.153580
H61	H	-0.187755	0.430321	-0.134917
F62	F	-0.565997	0.907126	0.153598
H63	H	-0.004077	1.101484	-0.555773
F64	F	-0.566176	0.907110	-0.153884
F65	F	-0.147727	1.152529	-0.436254
F66	F	-0.082190	0.832037	-0.563875
H67	H	0.024685	0.960958	-0.444337
F68	F	-0.284402	0.529915	-0.000163
