data_functionalizedCrystal
_audit_creation_method	'MofGen! by Chris Wilmer'
_symmetry_space_group_name_H-M	'P1'
_symmetry_Int_Tables_number	1
_symmetry_cell_setting	triclinic
loop_
_symmetry_equiv_pos_as_xyz
  x,y,z
_cell_length_a	17.038275
_cell_length_b	17.019305
_cell_length_c	16.098547
_cell_angle_alpha	83.399209
_cell_angle_beta	92.939977
_cell_angle_gamma	87.243911
loop_
_atom_site_label
_atom_site_type_symbol
_atom_site_fract_x
_atom_site_fract_y
_atom_site_fract_z
O1	O	-1.033075	-0.175168	0.081699
O2	O	-0.533075	0.324832	0.581699
O3	O	-0.805456	-0.172439	0.081532
O4	O	-0.305456	0.327561	0.581532
O5	O	-0.926035	-0.059006	0.073376
O6	O	-0.426035	0.440994	0.573376
O7	O	-0.912497	-0.288601	0.089854
O8	O	-0.412497	0.211399	0.589854
O9	O	-0.933072	-0.052403	-0.065611
O10	O	-0.433072	0.447597	0.434389
O11	O	-0.812493	-0.165836	-0.057456
O12	O	-0.312493	0.334164	0.442544
O13	O	-1.040113	-0.168565	-0.057288
O14	O	-0.540113	0.331435	0.442712
Zn15	Zn	-0.927420	-0.166152	-0.079439
Zn16	Zn	-0.427420	0.333848	0.420561
Zn17	Zn	-0.918148	-0.174852	0.103683
Zn18	Zn	-0.418148	0.325148	0.603683
O19	O	-0.919534	-0.281998	-0.049133
O20	O	-0.419534	0.218002	0.450867
C21	C	-0.779857	-0.166656	0.011863
C22	C	-0.279857	0.333344	0.511863
C23	C	-0.693097	-0.159251	0.011343
C24	C	-0.193097	0.340749	0.511343
C25	C	-0.642677	-0.227243	0.016223
C26	C	-0.142677	0.272757	0.516223
C27	C	-0.561158	-0.220279	0.015713
C28	C	-0.061158	0.279721	0.515713
C29	C	-0.530061	-0.145323	0.010329
C30	C	-0.030061	0.354677	0.510329
C31	C	-0.580488	-0.077326	0.005446
C32	C	-0.080488	0.422674	0.505446
C33	C	-0.662005	-0.084290	0.005950
C34	C	-0.162005	0.415710	0.505950
C35	C	-0.284415	-0.120720	0.008545
C36	C	0.215585	0.379280	0.508545
C37	C	-0.202891	-0.113761	0.008043
C38	C	0.297109	0.386239	0.508043
C39	C	-0.183567	-0.256714	0.018308
C40	C	0.316433	0.243286	0.518308
C41	C	-0.265086	-0.263672	0.018817
C42	C	0.234914	0.236328	0.518817
C43	C	-0.315506	-0.195675	0.013930
C44	C	0.184494	0.304325	0.513930
C45	C	-0.446736	-0.138203	0.009810
C46	C	0.053264	0.361797	0.509810
C47	C	-0.398830	-0.202795	0.014443
C48	C	0.101170	0.297205	0.514443
C49	C	-0.929179	-0.026182	0.001766
C50	C	-0.429179	0.473818	0.501766
C51	C	-0.928055	0.061785	-0.004542
C52	C	-0.428055	0.561785	0.495458
N53	N	-0.933754	-0.160215	-0.204415
N54	N	-0.433754	0.339785	0.295585
C55	C	-0.065711	-0.174348	0.012386
C56	C	0.434289	0.325652	0.512386
C57	C	-0.152471	-0.181753	0.012923
C58	C	0.347529	0.318247	0.512923
C59	C	-0.923693	0.099508	0.068257
C60	C	-0.423693	0.599508	0.568257
C61	C	-0.922632	0.182162	0.062328
C62	C	-0.422632	0.682162	0.562328
C63	C	-0.925939	0.227092	-0.016400
C64	C	-0.425939	0.727092	0.483600
C65	C	-0.930299	0.189363	-0.089204
C66	C	-0.430299	0.689363	0.410796
C67	C	-0.931355	0.106710	-0.083274
C68	C	-0.431355	0.606710	0.416726
C69	C	-0.922940	0.476830	-0.038095
C70	C	-0.422940	0.976830	0.461905
C71	C	-0.921887	0.559489	-0.044019
C72	C	-0.421887	1.059489	0.455981
C73	C	-0.914218	0.552282	0.107514
C74	C	-0.414218	1.052282	0.607514
C75	C	-0.915278	0.469628	0.113436
C76	C	-0.415278	0.969628	0.613436
C77	C	-0.919634	0.431906	0.040633
C78	C	-0.419634	0.931906	0.540633
C79	C	-0.924857	0.311578	-0.022463
C80	C	-0.424857	0.811578	0.477537
C81	C	-0.920710	0.347421	0.046696
C82	C	-0.420710	0.847421	0.546696
C83	C	-0.916392	0.685178	0.022476
C84	C	-0.416392	1.185178	0.522476
C85	C	-0.917524	0.597212	0.028779
C86	C	-0.417524	1.097212	0.528779
N87	N	-0.911821	-0.180784	0.228658
N88	N	-0.411821	0.319216	0.728658
C89	C	-0.882478	-0.208255	0.755452
C90	C	-0.382478	0.291745	1.255452
C91	C	-0.886911	-0.204110	0.667965
C92	C	-0.386911	0.295890	1.167965
C93	C	-0.942617	-0.151921	0.620612
C94	C	-0.442617	0.348079	1.120612
C95	C	-0.993898	-0.103879	0.660751
C96	C	-0.493898	0.396121	1.160751
C97	C	-0.989468	-0.108028	0.748236
C98	C	-0.489468	0.391972	1.248236
C99	C	-0.958672	-0.136891	0.356282
C100	C	-0.458672	0.363109	0.856282
C101	C	-0.963096	-0.132743	0.268791
C102	C	-0.463096	0.367257	0.768791
C103	C	-0.856110	-0.232976	0.276011
C104	C	-0.356110	0.267024	0.776011
C105	C	-0.851682	-0.237117	0.363498
C106	C	-0.351682	0.262883	0.863498
C107	C	-0.902966	-0.189078	0.403629
C108	C	-0.402966	0.310922	0.903629
C109	C	-0.947148	-0.147682	0.531187
C110	C	-0.447148	0.352318	1.031187
C111	C	-0.898438	-0.193322	0.493054
C112	C	-0.398438	0.306678	0.993054
H113	H	-0.703057	-0.028923	0.001977
H114	H	-0.203057	0.471077	0.501977
N115	N	-1.020005	-0.079453	0.220394
N116	N	-0.520005	0.420547	0.720394
N117	N	-0.998025	-0.026278	0.167909
N118	N	-0.498025	0.473722	0.667909
H119	H	-1.038216	0.011350	0.133723
H120	H	-0.538216	0.511350	0.633723
N121	N	-0.841528	-0.246629	0.541406
N122	N	-0.341528	0.253371	1.041406
N123	N	-0.795742	-0.289517	0.505569
N124	N	-0.295742	0.210483	1.005569
H125	H	-0.755546	-0.327163	0.539723
H126	H	-0.255546	0.172837	1.039723
N127	N	-0.171124	-0.037191	0.002524
N128	N	0.328876	0.462809	0.502524
N129	N	-0.130763	-0.014583	-0.057488
N130	N	0.369237	0.485417	0.442512
H131	H	-0.108325	0.039491	-0.061385
H132	H	0.391675	0.539491	0.438615
H133	H	-1.031223	-0.068910	0.780911
H134	H	-0.531223	0.431090	1.280911
H135	H	-0.921004	0.062932	0.132366
H136	H	-0.421004	0.562932	0.632366
N137	N	-0.132053	-0.326158	0.023283
N138	N	0.367947	0.173842	0.523283
N139	N	-0.087386	-0.335434	-0.034443
N140	N	0.412614	0.164566	0.465557
H141	H	-0.051003	-0.384481	-0.030933
H142	H	0.448997	0.115519	0.469067
N143	N	-0.918192	0.220674	0.136704
N144	N	-0.418192	0.720674	0.636704
N145	N	-0.970845	0.212607	0.187821
N146	N	-0.470845	0.712607	0.687821
H147	H	-0.967711	0.239802	0.240356
H148	H	-0.467711	0.739802	0.740356
N149	N	-0.928254	0.357473	-0.102881
N150	N	-0.428254	0.857473	0.397119
N151	N	-0.986037	0.354247	-0.153212
N152	N	-0.486037	0.854247	0.346788
H153	H	-0.988434	0.386661	-0.210009
H154	H	-0.488434	0.886661	0.289991
H155	H	-0.845159	-0.243229	0.635290
H156	H	-0.345159	0.256771	1.135290
N157	N	-0.925243	0.605388	-0.124441
N158	N	-0.425243	1.105388	0.375559
N159	N	-0.870412	0.648727	-0.144375
N160	N	-0.370412	1.148727	0.355625
H161	H	-0.872781	0.681145	-0.201169
H162	H	-0.372781	1.181145	0.298831
H163	H	-0.992503	-0.105187	0.492624
H164	H	-0.492503	0.394813	0.992624
H165	H	-0.667989	-0.288280	0.020607
H166	H	-0.167989	0.211720	0.520607
H167	H	-1.000428	-0.097774	0.388950
H168	H	-0.500428	0.402226	0.888950
H169	H	-0.918012	0.310836	0.110796
H170	H	-0.418012	0.810836	0.610796
N171	N	-0.927382	0.438308	-0.112461
N172	N	-0.427382	0.938308	0.387539
N173	N	-0.874738	0.446370	-0.163589
N174	N	-0.374738	0.946370	0.336411
H175	H	-0.877875	0.419162	-0.216114
H176	H	-0.377875	0.919162	0.283886
N177	N	-0.509667	-0.289739	0.020693
N178	N	-0.009667	0.210261	0.520693
N179	N	-0.537441	-0.356659	0.025504
N180	N	-0.037441	0.143341	0.525504
H181	H	-0.501076	-0.405720	0.029021
H182	H	-0.001076	0.094280	0.529021
H183	H	-0.325458	-0.065351	0.004564
H184	H	0.174542	0.434649	0.504564
H185	H	-0.912586	0.433052	0.177545
H186	H	-0.412586	0.933052	0.677545
H187	H	-0.290399	-0.324710	0.023211
H188	H	0.209601	0.175290	0.523211
H189	H	-0.910670	0.583004	0.166786
H190	H	-0.410670	1.083004	0.666786
N191	N	-0.935822	0.068162	-0.157628
N192	N	-0.435822	0.568162	0.342372
N193	N	-0.936764	-0.005635	-0.152324
N194	N	-0.436764	0.494365	0.347676
H195	H	-0.939916	-0.032860	-0.204838
H196	H	-0.439916	0.467140	0.295162
N197	N	-1.050807	-0.050585	0.612372
N198	N	-0.550807	0.449415	1.112372
N199	N	-1.054759	-0.046890	0.534261
N200	N	-0.554759	0.453110	1.034261
H201	H	-1.094953	-0.009251	0.500094
H202	H	-0.594953	0.490749	1.000094
N203	N	-0.430592	-0.279358	0.019925
N204	N	0.069408	0.220642	0.519925
N205	N	-0.476898	-0.296406	-0.037239
N206	N	0.023102	0.203594	0.462761
H207	H	-0.499336	-0.350480	-0.033366
H208	H	0.000664	0.149520	0.466634
N209	N	-0.794780	-0.290441	0.411848
N210	N	-0.294780	0.209559	0.911848
N211	N	-0.795860	-0.363216	0.407336
N212	N	-0.295860	0.136784	0.907336
H213	H	-0.755669	-0.400876	0.441481
H214	H	-0.255669	0.099124	0.941481
N215	N	-0.548713	-0.000765	-0.000062
N216	N	-0.048713	0.499235	0.499938
N217	N	-0.475929	0.005445	-0.000510
N218	N	0.024071	0.505445	0.499490
H219	H	-0.453489	0.059517	-0.004399
H220	H	0.046511	0.559517	0.495601
H221	H	-0.814358	-0.272088	0.243329
H222	H	-0.314358	0.227912	0.743329
N223	N	-0.414968	-0.061639	0.004302
N224	N	0.085032	0.438361	0.504302
N225	N	-0.374613	-0.039025	-0.055713
N226	N	0.125387	0.460975	0.444287
H227	H	-0.352174	0.015048	-0.059605
H228	H	0.147826	0.515048	0.440395
N229	N	-0.933668	0.235266	-0.169617
N230	N	-0.433668	0.735266	0.330383
N231	N	-0.932726	0.309062	-0.174903
N232	N	-0.432726	0.809062	0.325097
H233	H	-0.935107	0.341482	-0.231696
H234	H	-0.435107	0.841482	0.268304
H235	H	-0.837114	-0.250749	0.794002
H236	H	-0.337114	0.249251	1.294002
