data_functionalizedCrystal
_audit_creation_method	'MofGen! by Chris Wilmer'
_symmetry_space_group_name_H-M	'P1'
_symmetry_Int_Tables_number	1
_symmetry_cell_setting	triclinic
loop_
_symmetry_equiv_pos_as_xyz
  x,y,z
_cell_length_a	19.288864
_cell_length_b	27.732048
_cell_length_c	18.366186
_cell_angle_alpha	89.988789
_cell_angle_beta	89.977106
_cell_angle_gamma	82.889449
loop_
_atom_site_label
_atom_site_type_symbol
_atom_site_fract_x
_atom_site_fract_y
_atom_site_fract_z
O1	O	0.920977	0.060300	-0.060791
O2	O	1.420977	0.560300	0.439209
O3	O	0.718665	0.068434	-0.060742
O4	O	1.218665	0.568434	0.439258
O5	O	0.826104	-0.006011	-0.060754
O6	O	1.326104	0.493989	0.439246
O7	O	0.813538	0.134745	-0.060779
O8	O	1.313538	0.634745	0.439221
O9	O	0.826086	-0.006014	0.060345
O10	O	1.326086	0.493986	0.560345
O11	O	0.718647	0.068430	0.060357
O12	O	1.218647	0.568430	0.560357
O13	O	0.920959	0.060296	0.060309
O14	O	1.420959	0.560296	0.560309
Zn15	Zn	0.819800	0.064363	0.079560
Zn16	Zn	1.319800	0.564363	0.579560
Zn17	Zn	0.819824	0.064368	-0.079994
Zn18	Zn	1.319824	0.564368	0.420006
O19	O	0.813520	0.134741	0.060321
O20	O	1.313520	0.634741	0.560321
C21	C	0.692781	0.068171	-0.000186
C22	C	1.192781	0.568171	0.499814
C23	C	0.615683	0.067385	-0.000167
C24	C	1.115683	0.567385	0.499833
C25	C	0.570714	0.111066	-0.000186
C26	C	1.070714	0.611066	0.499814
C27	C	0.498271	0.110328	-0.000194
C28	C	0.998271	0.610328	0.499806
C29	C	0.470801	0.065906	-0.000197
C30	C	0.970801	0.565906	0.499803
C31	C	0.515780	0.022219	-0.000174
C32	C	1.015780	0.522219	0.499826
C33	C	0.588220	0.022959	-0.000159
C34	C	1.088220	0.522959	0.499841
C35	C	0.362763	0.030987	-0.042642
C36	C	0.862763	0.530987	0.457358
C37	C	0.290323	0.030250	-0.042662
C38	C	0.790323	0.530250	0.457338
C39	C	0.247370	0.063624	-0.000241
C40	C	0.747370	0.563624	0.499759
C41	C	0.276863	0.097744	0.042190
C42	C	0.776863	0.597744	0.542190
C43	C	0.349304	0.098483	0.042206
C44	C	0.849304	0.598483	0.542206
C45	C	0.392252	0.065099	-0.000213
C46	C	0.892252	0.565099	0.499787
C47	C	0.123850	0.106507	-0.000268
C48	C	0.623850	0.606507	0.499732
C49	C	0.051406	0.105767	-0.000271
C50	C	0.551406	0.605767	0.499729
C51	C	0.068916	0.017658	-0.000258
C52	C	0.568916	0.517658	0.499742
C53	C	0.141358	0.018399	-0.000248
C54	C	0.641358	0.518399	0.499752
C55	C	0.168820	0.062825	-0.000256
C56	C	0.668820	0.562825	0.499744
C57	C	0.825831	-0.024020	-0.000202
C58	C	1.325831	0.475980	0.499798
C59	C	0.825037	-0.077678	-0.000196
C60	C	1.325037	0.422322	0.499804
C61	C	0.883526	-0.416316	-0.000248
C62	C	1.383526	0.083684	0.499752
C63	C	0.880579	-0.617985	-0.000257
C64	C	1.380579	-0.117985	0.499743
O65	O	0.934063	-0.649079	-0.000302
O66	O	1.434063	-0.149079	0.499698
N67	N	0.816872	-0.637301	-0.000241
N68	N	1.316872	-0.137301	0.499759
C69	C	0.753897	-0.606196	-0.000227
C70	C	1.253897	-0.106196	0.499773
O71	O	0.699643	-0.627253	-0.000222
O72	O	1.199643	-0.127253	0.499778
C73	C	0.756845	-0.404529	-0.000223
C74	C	1.256845	0.095471	0.499777
C75	C	0.820556	-0.385216	-0.000232
C76	C	1.320556	0.114784	0.499768
C77	C	0.947232	-0.397002	-0.000257
C78	C	1.447232	0.102998	0.499743
C79	C	0.947968	-0.346588	-0.000251
C80	C	1.447968	0.153412	0.499749
C81	C	0.884998	-0.315488	-0.000235
C82	C	1.384998	0.184512	0.499765
C83	C	0.821292	-0.334801	-0.000226
C84	C	1.321292	0.165199	0.499774
C85	C	0.693871	-0.373425	-0.000215
C86	C	1.193871	0.126575	0.499785
C87	C	0.694614	-0.323006	-0.000216
C88	C	1.194614	0.176994	0.499784
C89	C	0.758325	-0.303693	-0.000224
C90	C	1.258325	0.196307	0.499776
C91	C	0.759059	-0.253287	-0.000203
C92	C	1.259059	0.246713	0.499797
N93	N	0.822766	-0.233971	-0.000219
N94	N	1.322766	0.266029	0.499781
C95	C	0.885735	-0.265071	-0.000235
C96	C	1.385735	0.234929	0.499765
C97	C	0.752354	-0.712075	-0.000228
C98	C	1.252354	-0.212075	0.499772
C99	C	0.751617	-0.762492	-0.000228
C100	C	1.251617	-0.262492	0.499772
C101	C	0.878299	-0.774276	-0.000259
C102	C	1.378299	-0.274276	0.499741
C103	C	0.879035	-0.723859	-0.000254
C104	C	1.379035	-0.223859	0.499746
C105	C	0.816061	-0.692759	-0.000244
C106	C	1.316061	-0.192759	0.499756
C107	C	0.887276	-0.159197	-0.000221
C108	C	1.387276	0.340803	0.499779
C109	C	0.888007	-0.108778	-0.000212
C110	C	1.388007	0.391222	0.499788
C111	C	0.761325	-0.096998	-0.000185
C112	C	1.261325	0.403002	0.499815
C113	C	0.760595	-0.147412	-0.000190
C114	C	1.260595	0.352588	0.499810
C115	C	0.823576	-0.178511	-0.000211
C116	C	1.323576	0.321489	0.499789
O117	O	0.705603	-0.222164	-0.000167
O118	O	1.205603	0.277836	0.499833
O119	O	0.939982	-0.244005	-0.000257
O120	O	1.439982	0.255995	0.499743
C121	C	0.882790	-0.466730	-0.000254
C122	C	1.382790	0.033270	0.499746
C123	C	0.819084	-0.486044	-0.000245
C124	C	1.319084	0.013956	0.499755
C125	C	0.756114	-0.454943	-0.000229
C126	C	1.256114	0.045057	0.499771
C127	C	0.818347	-0.536461	-0.000244
C128	C	1.318347	-0.036461	0.499756
C129	C	0.881317	-0.567561	-0.000260
C130	C	1.381317	-0.067561	0.499740
C131	C	0.945023	-0.548245	-0.000276
C132	C	1.445023	-0.048245	0.499724
C133	C	0.945760	-0.497831	-0.000270
C134	C	1.445760	0.002169	0.499730
C135	C	0.692407	-0.474260	-0.000213
C136	C	1.192407	0.025740	0.499787
C137	C	0.691676	-0.524674	-0.000218
C138	C	1.191676	-0.024674	0.499782
C139	C	0.754646	-0.555775	-0.000234
C140	C	1.254646	-0.055775	0.499766
C141	C	0.946842	0.060560	-0.000249
C142	C	1.446842	0.560560	0.499751
C143	C	1.023941	0.061345	-0.000273
C144	C	1.523941	0.561345	0.499727
C145	C	0.813792	0.152751	-0.000233
C146	C	1.313792	0.652751	0.499767
C147	C	0.814587	0.206408	-0.000244
C148	C	1.314587	0.706408	0.499756
N149	N	0.819789	0.064359	0.188451
N150	N	1.319789	0.564359	0.688451
N151	N	0.819841	0.064367	-0.188885
N152	N	1.319841	0.564367	0.311115
C153	C	0.867378	0.031411	0.226546
C154	C	1.367378	0.531411	0.726546
C155	C	0.867383	0.031409	0.302774
C156	C	1.367383	0.531409	0.802774
C157	C	0.819804	0.064363	0.340904
C158	C	1.319804	0.564363	0.840904
C159	C	0.772206	0.097314	0.302800
C160	C	1.272206	0.597314	0.802800
C161	C	0.772198	0.097312	0.226573
C162	C	1.272198	0.597312	0.726573
C163	C	0.810231	0.108406	0.461658
C164	C	1.310231	0.608406	0.961658
C165	C	0.810244	0.108409	0.537883
C166	C	1.310244	0.608409	1.037883
C167	C	0.819824	0.064369	0.576011
C168	C	1.319824	0.564369	1.076011
C169	C	0.829406	0.020325	0.537906
C170	C	1.329406	0.520325	1.037906
C171	C	0.829398	0.020323	0.461679
C172	C	1.329398	0.520323	0.961679
C173	C	0.819807	0.064369	0.423559
C174	C	1.319807	0.564369	0.923559
C175	C	0.867421	0.031416	0.696761
C176	C	1.367421	0.531416	1.196761
C177	C	0.867420	0.031413	0.772991
C178	C	1.367420	0.531413	1.272991
C179	C	0.772247	0.097322	0.773015
C180	C	1.272247	0.597322	1.273015
C181	C	0.772244	0.097321	0.696787
C182	C	1.272244	0.597321	1.196787
C183	C	0.819835	0.064368	0.658665
C184	C	1.319835	0.564368	1.158665
H185	H	0.461651	0.145899	-0.000207
H186	H	0.961651	0.645899	0.499793
H187	H	0.999848	-0.330868	-0.000261
H188	H	1.499848	0.169132	0.499739
O189	O	0.839581	-0.027154	0.420512
O190	O	1.339581	0.472846	0.920512
H191	H	0.886814	-0.028392	0.385692
H192	H	1.386814	0.471608	0.885692
O193	O	0.381123	0.135263	0.087997
O194	O	0.881123	0.635263	0.587997
H195	H	0.339091	0.158340	0.117507
H196	H	0.839091	0.658340	0.617507
O197	O	0.918722	-0.004144	0.655641
O198	O	1.418722	0.495856	1.155641
H199	H	0.910721	0.001389	0.596235
H200	H	1.410721	0.501389	1.096235
H201	H	0.643331	-0.297686	-0.000209
H202	H	1.143331	0.202314	0.499791
H203	H	0.708716	-0.163138	-0.000163
H204	H	1.208716	0.336862	0.499837
O205	O	0.189862	-0.028716	-0.000233
O206	O	0.689862	0.471284	0.499767
H207	H	0.244850	-0.020740	-0.000215
H208	H	0.744850	0.479260	0.499785
H209	H	0.699737	-0.778212	-0.000208
H210	H	1.199737	-0.278212	0.499792
O211	O	0.693409	-0.063450	-0.000169
O212	O	1.193409	0.436550	0.499831
H213	H	0.704631	-0.025149	-0.000174
H214	H	1.204631	0.474851	0.499826
O215	O	0.258524	-0.006553	-0.088425
O216	O	0.758524	0.493447	0.411575
H217	H	0.221663	0.012663	-0.128288
H218	H	0.721663	0.512663	0.371712
O219	O	0.799923	0.155910	0.578982
O220	O	1.299923	0.655910	1.078982
H221	H	0.793251	0.186533	0.539665
H222	H	1.293251	0.686533	1.039665
H223	H	0.837207	-0.015536	0.568948
H224	H	1.337207	0.484464	1.068948
O225	O	0.486155	-0.025693	-0.000172
O226	O	0.986155	0.474307	0.499828
H227	H	0.504289	-0.046678	-0.049518
H228	H	1.004289	0.453322	0.450482
O229	O	0.720891	0.132861	0.343919
O230	O	1.220891	0.632861	0.843919
H231	H	0.728897	0.127332	0.403324
H232	H	1.228897	0.627332	0.903324
O233	O	0.720873	0.132853	0.185477
O234	O	1.220873	0.632853	0.685477
H235	H	0.687790	0.155771	0.224794
H236	H	1.187790	0.655771	0.724794
H237	H	0.593069	0.147241	-0.000194
H238	H	1.093069	0.647241	0.499806
O239	O	0.622952	-0.545499	-0.000208
O240	O	1.122952	-0.045499	0.499792
H241	H	0.619568	-0.568192	0.049150
H242	H	1.119568	-0.068192	0.549150
O243	O	1.015155	-0.430543	-0.000264
O244	O	1.515155	0.069457	0.499736
H245	H	1.059570	-0.408635	-0.000263
H246	H	1.559570	0.091365	0.499737
H247	H	0.397731	0.003809	-0.077191
H248	H	0.897731	0.503809	0.422809
H249	H	0.241891	0.124920	0.076734
H250	H	0.741891	0.624920	0.576734
O251	O	0.918702	-0.004136	0.185435
O252	O	1.418702	0.495864	0.685435
H253	H	0.952241	0.016150	0.150684
H254	H	1.452241	0.516150	0.650684
H255	H	0.146211	0.142682	-0.000263
H256	H	0.646211	0.642682	0.499737
O257	O	0.684428	-0.678533	-0.000202
O258	O	1.184428	-0.178533	0.499798
H259	H	0.640011	-0.700440	-0.000180
H260	H	1.140011	-0.200440	0.499820
H261	H	0.624835	-0.012613	-0.000144
H262	H	1.124835	0.487387	0.499856
H263	H	0.939890	-0.093056	-0.000217
H264	H	1.439890	0.406944	0.499783
H265	H	0.938562	-0.184513	-0.000241
H266	H	1.438562	0.315487	0.499759
H267	H	0.930914	-0.708138	-0.000262
H268	H	1.430914	-0.208138	0.499738
O269	O	0.720916	0.132863	0.655700
O270	O	1.220916	0.632863	1.155700
H271	H	0.687371	0.112573	0.621003
H272	H	1.187371	0.612573	1.121003
H273	H	0.641128	-0.448942	-0.000201
H274	H	1.141128	0.051058	0.499799
O275	O	0.946219	-0.807824	-0.000281
O276	O	1.446219	-0.307824	0.499719
H277	H	0.934996	-0.846125	-0.000286
H278	H	1.434996	-0.346125	0.499714
O279	O	0.002901	0.152884	-0.000284
O280	O	0.502901	0.652884	0.499716
H281	H	-0.030502	0.154653	-0.049643
H282	H	0.469498	0.654653	0.450357
O283	O	0.799903	0.155908	0.420535
O284	O	1.299903	0.655908	0.920535
H285	H	0.793254	0.186534	0.459836
H286	H	1.293254	0.686534	0.959836
H287	H	0.046551	-0.018511	-0.000306
H288	H	0.546551	0.481489	0.499694
O289	O	0.625154	-0.394249	-0.000208
O290	O	1.125154	0.105751	0.499792
H291	H	0.581498	-0.364146	-0.000206
H292	H	1.081498	0.135854	0.499794
H293	H	0.997640	-0.482111	-0.000277
H294	H	1.497640	0.017889	0.499723
O295	O	1.012944	-0.581793	-0.000293
O296	O	1.512944	-0.081793	0.499707
H297	H	1.001720	-0.620094	-0.000300
H298	H	1.501720	-0.120094	0.499700
O299	O	0.918719	-0.004124	0.343877
O300	O	1.418719	0.495876	0.843877
H301	H	0.951814	-0.027035	0.304562
H302	H	1.451814	0.472965	0.804562
O303	O	0.918758	-0.004120	0.814085
O304	O	1.418758	0.495880	1.314085
H305	H	0.951854	-0.027028	0.774767
H306	H	1.451854	0.472972	1.274767
H307	H	0.733505	0.124152	0.804060
H308	H	1.233505	0.624152	1.304060
