data_functionalizedCrystal
_audit_creation_method	'MofGen! by Chris Wilmer'
_symmetry_space_group_name_H-M	'P1'
_symmetry_Int_Tables_number	1
_symmetry_cell_setting	triclinic
loop_
_symmetry_equiv_pos_as_xyz
  x,y,z
_cell_length_a	14.971486
_cell_length_b	10.489741
_cell_length_c	13.448316
_cell_angle_alpha	89.993703
_cell_angle_beta	89.998199
_cell_angle_gamma	84.076651
loop_
_atom_site_label
_atom_site_type_symbol
_atom_site_fract_x
_atom_site_fract_y
_atom_site_fract_z
O1	O	1.187893	0.166222	-0.082577
O2	O	0.927607	0.186128	-0.082604
O3	O	1.063673	-0.009491	-0.082584
O4	O	1.051827	0.361841	-0.082597
O5	O	1.063655	-0.009503	0.082800
O6	O	0.927589	0.186116	0.082780
O7	O	1.187876	0.166210	0.082807
Cu8	Cu	1.057731	0.176162	0.097894
Cu9	Cu	1.057752	0.176176	-0.097691
O10	O	1.051810	0.361829	0.082787
C11	C	0.894268	0.185232	0.000085
C12	C	0.794956	0.182564	0.000074
C13	C	0.738385	0.297485	0.000072
C14	C	0.645071	0.294971	0.000087
C15	C	0.608330	0.177534	0.000097
C16	C	0.664909	0.062604	0.000103
C17	C	0.758221	0.065120	0.000095
C18	C	0.470416	0.057369	0.000117
C19	C	0.377098	0.054853	0.000123
C20	C	0.357267	0.287220	0.000108
C21	C	0.450579	0.289736	0.000101
C22	C	0.507151	0.174805	0.000104
C23	C	1.062769	-0.057019	0.000107
C24	C	1.060093	-0.198617	0.000105
C25	C	0.973518	-0.265755	0.000089
C26	C	1.014406	-0.358357	0.081636
C27	C	1.014444	-0.358320	-0.081419
C28	C	1.101017	-0.289354	0.081720
C29	C	1.101043	-0.289307	-0.081409
C30	C	1.141994	-0.381882	0.000158
C31	C	1.221215	0.167106	0.000116
C32	C	1.320527	0.169774	0.000120
C33	C	1.052713	0.409357	0.000094
C34	C	1.055390	0.550955	0.000089
N35	N	1.057723	0.176151	0.235459
N36	N	1.057766	0.176177	-0.235255
C37	C	1.117992	0.089567	0.287508
C38	C	1.117998	0.089566	0.391611
C39	C	1.057738	0.176156	0.443663
C40	C	0.997462	0.262745	0.391607
C41	C	0.997453	0.262739	0.287505
C42	C	0.997487	0.262753	0.608587
C43	C	0.997497	0.262761	0.712695
C44	C	1.118032	0.089580	0.712693
C45	C	1.118023	0.089574	0.608591
C46	C	1.057748	0.176165	0.556542
H47	H	0.516476	-0.036219	0.000121
O48	O	1.227037	-0.441659	0.000085
C49	C	1.272875	-0.404869	-0.085137
H50	H	1.239917	-0.308801	-0.113284
H51	H	1.269793	-0.480478	-0.145584
C52	C	1.412111	-0.510308	-0.023980
C53	C	1.371636	-0.392311	-0.058546
H54	H	1.473032	-0.502567	-0.007581
H55	H	1.381229	-0.535099	0.033434
H56	H	1.409533	-0.573304	-0.074359
H57	H	1.374203	-0.329322	-0.008164
H58	H	1.402520	-0.367509	-0.115952
H59	H	0.948426	0.333271	0.755071
H60	H	0.599014	0.388551	0.000083
H61	H	0.977767	-0.388950	0.150571
H62	H	0.948402	0.333261	0.566212
H63	H	1.167073	0.019061	0.433989
H64	H	0.902336	-0.215280	0.000164
H65	H	1.137610	-0.258951	0.150739
H66	H	1.137650	-0.258681	-0.150347
O67	O	1.176670	0.005417	0.763093
C68	C	1.229846	-0.071023	0.694828
H69	H	1.231178	-0.018727	0.620615
H70	H	1.200206	-0.165854	0.683773
C71	C	1.324535	-0.161296	0.826593
C72	C	1.326177	-0.097059	0.735445
H73	H	1.383956	-0.177362	0.851649
H74	H	1.288708	-0.109801	0.872586
H75	H	1.299831	-0.240314	0.817368
H76	H	1.350870	-0.018036	0.744674
H77	H	1.362011	-0.148542	0.689455
H78	H	0.977809	-0.388855	-0.150368
H79	H	0.948393	0.333244	0.433993
H80	H	1.167067	0.019060	0.245134
H81	H	0.311201	0.380801	0.000110
H82	H	0.804281	-0.028461	0.000097
H83	H	0.480489	0.385363	0.000083
H84	H	0.948375	0.333243	0.245128
O85	O	0.773922	0.411676	0.000104
C86	C	0.703977	0.512567	0.000082
H87	H	0.640371	0.476709	0.031400
H88	H	0.690998	0.548028	-0.079261
C89	C	0.809146	0.667352	0.026467
C90	C	0.731026	0.623313	0.064940
H91	H	0.825832	0.735669	0.066471
H92	H	0.856271	0.599381	0.026479
H93	H	0.798321	0.696894	-0.039652
H94	H	0.741856	0.593758	0.131053
H95	H	0.683904	0.691282	0.064941
O96	O	0.341305	-0.059146	0.000276
C97	C	0.287942	-0.067554	0.085947
H98	H	0.265353	0.032946	0.114488
H99	H	0.328800	-0.123910	0.145932
C100	C	0.232719	-0.259804	0.024893
C101	C	0.204969	-0.136368	0.059942
H102	H	0.181539	-0.302257	0.008854
H103	H	0.268673	-0.254144	-0.032824
H104	H	0.266768	-0.306752	0.074886
H105	H	0.170931	-0.089418	0.009944
H106	H	0.169007	-0.142023	0.117650
H107	H	1.167095	0.019072	0.566211
O108	O	0.629326	-0.051553	-0.000021
C109	C	0.658142	-0.121596	-0.085686
H110	H	0.723073	-0.086734	-0.114245
H111	H	0.604250	-0.106899	-0.145663
C112	C	0.594960	-0.307874	-0.024587
C113	C	0.674713	-0.265063	-0.059659
H114	H	0.605178	-0.396371	-0.008535
H115	H	0.575542	-0.260683	0.033126
H116	H	0.550057	-0.295615	-0.074573
H117	H	0.719610	-0.277307	-0.009668
H118	H	0.694139	-0.312259	-0.117363
