data_functionalizedCrystal
_audit_creation_method	'MofGen! by Chris Wilmer'
_symmetry_space_group_name_H-M	'P1'
_symmetry_Int_Tables_number	1
_symmetry_cell_setting	triclinic
loop_
_symmetry_equiv_pos_as_xyz
  x,y,z
_cell_length_a	10.654545
_cell_length_b	11.792254
_cell_length_c	9.130313
_cell_angle_alpha	89.995304
_cell_angle_beta	89.996934
_cell_angle_gamma	84.340838
loop_
_atom_site_label
_atom_site_type_symbol
_atom_site_fract_x
_atom_site_fract_y
_atom_site_fract_z
O1	O	1.667400	0.159395	-0.121786
O2	O	1.301878	0.174588	-0.121792
O3	O	1.493501	0.001842	-0.121778
O4	O	1.475777	0.332141	-0.121799
O5	O	1.493488	0.001837	0.121821
O6	O	1.301865	0.174583	0.121807
O7	O	1.667387	0.159389	0.121813
Cu8	Cu	1.484625	0.166986	0.144053
Cu9	Cu	1.484640	0.166992	-0.144031
O10	O	1.475764	0.332136	0.121800
C11	C	1.255077	0.173471	0.000007
C12	C	1.115643	0.170137	0.000005
C13	C	1.050135	0.168564	0.132792
C14	C	0.919125	0.165412	0.132792
C15	C	0.919140	0.165410	-0.132793
C16	C	1.050149	0.168554	-0.132792
C17	C	1.492378	-0.040454	0.000021
C18	C	1.489036	-0.166474	0.000019
C19	C	1.486321	-0.268817	0.000014
C20	C	1.482926	-0.397212	0.000001
C21	C	1.714188	0.160506	0.000011
C22	C	1.853623	0.163841	0.000004
C23	C	1.476887	0.374431	-0.000002
C24	C	1.480229	0.500452	-0.000011
N25	N	1.484623	0.166981	0.346675
N26	N	1.484652	0.166988	-0.346654
C27	C	1.569502	0.090521	0.423333
C28	C	1.569514	0.090522	0.576670
C29	C	1.399764	0.243451	0.576678
C30	C	1.399747	0.243444	0.423344
H31	H	0.865798	0.164123	-0.240911
H32	H	1.330661	0.305707	0.639116
O33	O	0.855329	0.164032	0.261686
C34	C	0.766002	0.260349	0.269640
H35	H	0.741860	0.292594	0.154345
H36	H	0.676925	0.236060	0.325840
H37	H	0.806987	0.330275	0.335168
O38	O	1.113590	0.170129	-0.261920
C39	C	1.027697	0.168040	-0.379130
H40	H	0.929348	0.201671	-0.340213
H41	H	1.057961	0.223954	-0.472006
H42	H	1.026326	0.076808	-0.419950
O43	O	1.317244	0.317832	0.349095
C44	C	1.242320	0.385309	0.449641
H45	H	1.293825	0.387036	0.558933
H46	H	1.223769	0.475790	0.405317
H47	H	1.148782	0.347669	0.465976
O48	O	1.651741	0.016147	0.348728
C49	C	1.583954	-0.054460	0.260137
H50	H	1.486015	-0.010036	0.237144
H51	H	1.636236	-0.072055	0.152318
H52	H	1.574795	-0.138381	0.319308
O53	O	1.113572	0.170034	0.261915
C54	C	1.027649	0.167996	0.379115
H55	H	0.939220	0.129887	0.340182
H56	H	1.073096	0.113891	0.471990
H57	H	1.001155	0.258557	0.419943
O58	O	1.652090	0.016209	0.650908
C59	C	1.726971	-0.051296	0.550352
H60	H	1.728692	-0.004748	0.441044
H61	H	1.827150	-0.067766	0.594637
H62	H	1.685625	-0.135960	0.534063
