data_functionalizedCrystal
_audit_creation_method	'MofGen! by Chris Wilmer'
_symmetry_space_group_name_H-M	'P1'
_symmetry_Int_Tables_number	1
_symmetry_cell_setting	triclinic
loop_
_symmetry_equiv_pos_as_xyz
  x,y,z
_cell_length_a	16.109301
_cell_length_b	17.699083
_cell_length_c	14.586319
_cell_angle_alpha	89.995320
_cell_angle_beta	89.999213
_cell_angle_gamma	83.372248
loop_
_atom_site_label
_atom_site_type_symbol
_atom_site_fract_x
_atom_site_fract_y
_atom_site_fract_z
O1	O	1.102963	0.097285	-0.076184
O2	O	0.860880	0.109391	-0.076199
O3	O	0.988761	-0.006841	-0.076183
O4	O	0.975082	0.213517	-0.076200
O5	O	0.988752	-0.006843	0.076298
O6	O	0.860872	0.109390	0.076282
O7	O	1.102954	0.097283	0.076297
Cu8	Cu	0.981912	0.103336	0.090212
Cu9	Cu	0.981923	0.103338	-0.090114
O10	O	0.975074	0.213516	0.076281
C11	C	0.829902	0.108900	0.000040
C12	C	0.737609	0.107430	0.000034
C13	C	0.515224	0.172981	0.000040
C14	C	0.428506	0.171594	0.000046
C15	C	0.448618	0.033688	0.000053
C16	C	0.535334	0.035076	0.000053
C17	C	0.568635	0.104725	0.000042
C18	C	0.395200	0.101949	0.000047
C19	C	0.301177	0.100445	0.000054
C20	C	0.662664	0.106230	0.000037
C21	C	0.988267	-0.035040	0.000057
C22	C	0.986796	-0.119060	0.000058
C23	C	1.061860	-0.167574	0.000064
C24	C	1.060473	-0.246519	0.000055
C25	C	0.984022	-0.276949	0.000048
C26	C	0.908953	-0.228429	0.000039
C27	C	0.910341	-0.149485	0.000041
C28	C	0.903356	-0.546800	0.000031
C29	C	0.901974	-0.625750	0.000033
C30	C	1.053488	-0.643834	0.000046
C31	C	1.054876	-0.564890	0.000048
C32	C	0.979807	-0.516377	0.000034
C33	C	0.981312	-0.430776	0.000041
C34	C	0.982517	-0.362549	0.000047
C35	C	1.133933	0.097774	0.000056
C36	C	1.226226	0.099244	0.000055
C37	C	0.975568	0.241714	0.000038
C38	C	0.977039	0.325734	0.000032
N39	N	0.981911	0.103334	0.217044
N40	N	0.981931	0.103334	-0.216946
C41	C	1.038555	0.051884	0.452057
C42	C	1.038558	0.051882	0.548038
C43	C	0.925280	0.154787	0.548034
C44	C	0.925274	0.154785	0.452054
C45	C	0.981917	0.103334	0.404068
C46	C	0.981925	0.103334	0.596029
C47	C	0.981927	0.103333	0.700096
C48	C	0.981914	0.103334	0.299995
H49	H	0.385022	0.227175	0.000046
H50	H	1.084677	0.009985	0.587108
H51	H	0.879149	0.196682	0.412979
C52	C	0.411985	-0.042923	0.000053
C53	C	0.316601	-0.044455	0.000046
C54	C	0.279970	-0.121068	0.000042
C55	C	0.338723	-0.196150	0.000046
C56	C	0.434113	-0.194621	0.000054
C57	C	0.470744	-0.118008	0.000057
H58	H	0.273103	0.011128	0.000043
H59	H	0.209356	-0.122199	0.000037
H60	H	0.311607	-0.252863	0.000043
H61	H	0.477611	-0.250203	0.000056
H62	H	0.541358	-0.116877	0.000063
C63	C	0.594093	-0.040012	0.000054
C64	C	0.590465	-0.097092	0.079234
C65	C	0.649223	-0.172175	0.079239
C66	C	0.711609	-0.190179	0.000064
C67	C	0.715239	-0.133098	-0.079122
C68	C	0.656481	-0.058014	-0.079127
H69	H	0.544281	-0.083765	0.137850
H70	H	0.646536	-0.214431	0.137859
H71	H	0.755105	-0.245761	0.000068
H72	H	0.761422	-0.146424	-0.137738
H73	H	0.659168	-0.015759	-0.137747
H74	H	0.879165	0.196679	0.587113
H75	H	1.124115	-0.142805	0.000075
C76	C	0.551856	0.249593	0.000038
C77	C	0.493101	0.324674	0.000042
C78	C	0.529730	0.401288	0.000044
C79	C	0.625113	0.402821	0.000042
C80	C	0.683874	0.327738	0.000039
C81	C	0.647245	0.251124	0.000037
H82	H	0.422487	0.323541	0.000043
H83	H	0.486231	0.456869	0.000046
H84	H	0.652228	0.459535	0.000044
H85	H	0.754488	0.328870	0.000037
H86	H	0.690744	0.195542	0.000034
H87	H	1.121597	-0.286017	0.000062
H88	H	1.117130	-0.540119	0.000058
C89	C	1.136067	-0.697201	0.000049
C90	C	1.155944	-0.753969	0.079226
C91	C	1.238520	-0.807333	0.079232
C92	C	1.301220	-0.803929	0.000062
C93	C	1.281345	-0.747159	-0.079120
C94	C	1.198769	-0.693794	-0.079127
H95	H	1.109529	-0.756491	0.137838
H96	H	1.253233	-0.849359	0.137849
H97	H	1.362348	-0.843433	0.000067
H98	H	1.327760	-0.744637	-0.137732
H99	H	1.184056	-0.651769	-0.137743
H100	H	0.839715	-0.650523	0.000028
H101	H	0.842230	-0.507310	0.000021
H102	H	0.846705	-0.253211	0.000027
H103	H	0.849216	-0.109986	0.000036
H104	H	1.084675	0.009988	0.412989
