data_functionalizedCrystal
_audit_creation_method	'MofGen! by Chris Wilmer'
_symmetry_space_group_name_H-M	'P1'
_symmetry_Int_Tables_number	1
_symmetry_cell_setting	triclinic
loop_
_symmetry_equiv_pos_as_xyz
  x,y,z
_cell_length_a	13.032831
_cell_length_b	13.032721
_cell_length_c	10.686551
_cell_angle_alpha	93.335252
_cell_angle_beta	77.928676
_cell_angle_gamma	90.902885
loop_
_atom_site_label
_atom_site_type_symbol
_atom_site_fract_x
_atom_site_fract_y
_atom_site_fract_z
Zn1	Zn	1.593783	-0.552430	-1.042164
Zn2	Zn	2.093783	-0.052430	-0.542164
Zn3	Zn	1.558526	-0.734706	-0.853700
Zn4	Zn	2.058526	-0.234706	-0.353700
Zn5	Zn	1.404777	-0.543780	-0.800913
Zn6	Zn	1.904777	-0.043780	-0.300913
Zn7	Zn	1.399454	-0.702846	-1.035411
Zn8	Zn	1.899454	-0.202846	-0.535411
O9	O	1.489135	-0.633441	-0.933047
O10	O	1.989135	-0.133441	-0.433047
O11	O	1.734777	-0.593563	-1.042081
O12	O	2.234777	-0.093563	-0.542081
O13	O	1.525603	-0.719093	-0.669687
O14	O	2.025603	-0.219093	-0.169687
O15	O	1.446832	-0.402075	-0.813651
O16	O	1.946832	0.097925	-0.313651
O17	O	1.708874	-0.727481	-0.903618
O18	O	2.208874	-0.227481	-0.403618
O19	O	1.585693	-0.408430	-0.990897
O20	O	2.085693	0.091570	-0.490897
O21	O	1.412645	-0.578821	-0.630905
O22	O	1.912645	-0.078821	-0.130905
O23	O	1.258399	-0.547927	-0.807102
O24	O	1.758399	-0.047927	-0.307102
O25	O	1.437760	-0.673179	-1.213317
O26	O	1.937760	-0.173179	-0.713317
O27	O	1.254489	-0.664792	-0.979386
O28	O	1.754489	-0.164792	-0.479386
O29	O	1.580532	-0.562669	-1.218279
O30	O	2.080532	-0.062669	-0.718279
O31	O	1.520442	-0.873333	-0.897069
O32	O	2.020442	-0.373333	-0.397069
O33	O	1.403573	-0.849925	-1.030571
O34	O	1.903573	-0.349925	-0.530571
C35	C	1.218673	-0.601964	-0.886784
C36	C	1.718673	-0.101964	-0.386784
C37	C	1.102968	-0.588522	-0.867026
C38	C	1.602968	-0.088522	-0.367026
C39	C	1.049455	-0.640457	-0.943359
C40	C	1.549455	-0.140457	-0.443359
C41	C	0.929868	-0.626564	-0.922940
C42	C	1.429868	-0.126564	-0.422940
C43	C	1.457634	-0.898671	-0.968848
C44	C	1.957634	-0.398671	-0.468848
C45	C	1.444256	-1.012146	-0.984222
C46	C	1.944256	-0.512146	-0.484222
C47	C	1.496176	-1.074288	-0.925089
C48	C	1.996176	-0.574288	-0.425089
C49	C	1.482351	-1.191571	-0.940978
C50	C	1.982351	-0.691571	-0.440978
C51	C	1.760653	-0.665041	-0.979491
C52	C	2.260653	-0.165041	-0.479491
C53	C	1.876358	-0.678507	-0.999283
C54	C	2.376358	-0.178507	-0.499283
C55	C	1.512485	-0.615335	-1.262978
C56	C	2.012485	-0.115335	-0.762978
C57	C	1.522436	-0.607620	-1.403575
C58	C	2.022436	-0.107620	-0.903575
C59	C	1.520789	-0.367176	-0.897139
C60	C	2.020789	0.132824	-0.397139
C61	C	1.534278	-0.253711	-0.881837
C62	C	2.034278	0.246289	-0.381837
C63	C	1.465944	-0.651409	-0.604400
C64	C	1.965944	-0.151409	-0.104400
C65	C	1.456230	-0.658860	-0.463799
C66	C	1.956230	-0.158860	0.036201
H67	H	0.919074	-0.733253	-1.079763
H68	H	1.419074	-0.233253	-0.579763
H69	H	0.887152	-0.571807	-0.842471
H70	H	1.387152	-0.071807	-0.342471
Br71	Br	1.031777	-0.497257	-0.732912
Br72	Br	1.531777	0.002743	-0.232912
Br73	Br	1.349069	-0.741828	-1.370467
Br74	Br	1.849069	-0.241828	-0.870467
Br75	Br	1.629616	-0.524667	-1.496917
Br76	Br	2.129616	-0.024667	-0.996917
H77	H	1.092176	-0.695201	-1.023830
H78	H	1.592176	-0.195201	-0.523830
Br79	Br	1.587338	-1.018254	-0.821113
Br80	Br	2.087338	-0.518254	-0.321113
H81	H	1.427665	-1.225192	-1.003377
H82	H	1.927665	-0.725192	-0.503377
H83	H	1.389574	-1.045773	-1.046616
H84	H	1.889574	-0.545773	-0.546616
Br85	Br	1.625443	-1.197684	-0.777853
Br86	Br	2.125443	-0.697684	-0.277853
