data_functionalizedCrystal
_audit_creation_method	'MofGen! by Chris Wilmer'
_symmetry_space_group_name_H-M	'P1'
_symmetry_Int_Tables_number	1
_symmetry_cell_setting	triclinic
loop_
_symmetry_equiv_pos_as_xyz
  x,y,z
_cell_length_a	14.446369
_cell_length_b	23.196402
_cell_length_c	23.196401
_cell_angle_alpha	119.990204
_cell_angle_beta	89.983947
_cell_angle_gamma	59.999147
loop_
_atom_site_label
_atom_site_type_symbol
_atom_site_fract_x
_atom_site_fract_y
_atom_site_fract_z
Zr1	Zr	0.891764	0.630969	0.075607
O2	O	0.743918	0.751242	0.167658
O3	O	0.937083	0.510702	0.047393
O4	O	0.937034	0.630970	0.167658
O5	O	0.744011	0.630971	-0.047480
O6	O	1.089371	0.630965	0.167655
O7	O	0.743968	0.630974	0.047392
O8	O	1.089459	0.415827	-0.047479
O9	O	0.743922	0.846109	0.167654
O10	O	1.070103	0.560164	0.035352
O11	O	0.956448	0.560166	-0.035447
O12	O	0.956390	0.701766	0.106151
O13	O	0.842734	0.701768	0.035351
Zr14	Zr	1.134793	0.630957	-0.075708
Zr15	Zr	1.134724	0.630961	0.075602
Zr16	Zr	0.891833	0.630965	-0.075702
Zr17	Zr	0.891771	0.782272	0.075601
Zr18	Zr	1.134786	0.479655	-0.075701
O19	O	1.089474	0.751225	-0.047493
O20	O	1.089376	0.751230	0.167650
O21	O	0.744016	0.751236	-0.047485
O22	O	1.282639	0.510684	-0.167758
O23	O	1.282541	0.510690	0.047385
O24	O	0.937181	0.510696	-0.167750
O25	O	1.282546	0.630955	0.047379
O26	O	1.089524	0.630956	-0.167759
O27	O	0.937186	0.630962	-0.167755
O28	O	1.282590	0.630953	-0.047492
O29	O	0.937043	0.846103	0.167649
O30	O	1.089514	0.415824	-0.167750
O31	O	1.282635	0.415817	-0.167754
O32	O	1.282580	0.415820	-0.047483
O33	O	0.743977	0.846106	0.047383
O34	O	0.937098	0.846100	0.047378
O35	O	1.070168	0.560160	-0.106251
O36	O	1.183823	0.560158	-0.035452
O37	O	1.070109	0.701761	0.035346
O38	O	0.956454	0.701763	-0.035453
C39	C	1.013270	0.441707	-0.000042
C40	C	1.013267	0.377475	-0.000039
C41	C	0.709373	0.630974	-0.000043
C42	C	0.606230	0.630977	-0.000041
C43	C	1.072587	0.347304	0.036920
C44	C	1.072597	0.286943	0.036914
C45	C	1.013267	0.256767	-0.000041
C46	C	0.953946	0.286942	-0.037009
C47	C	0.953946	0.347296	-0.037008
C48	C	0.913863	0.194741	0.005235
C49	C	0.913859	0.134392	0.005240
C50	C	1.013269	0.070612	-0.000048
C51	C	1.112680	0.067197	-0.005326
C52	C	1.112680	0.127551	-0.005325
C53	C	1.013261	0.191323	-0.000047
C54	C	1.072605	-0.025011	0.036906
C55	C	1.072619	-0.085376	0.036895
C56	C	0.953956	-0.085369	-0.037022
C57	C	0.953953	-0.025011	-0.037016
C58	C	1.013275	0.005168	-0.000048
C59	C	0.387844	0.720276	0.044387
C60	C	0.495076	0.720337	0.044636
C61	C	0.602889	0.586618	0.032533
C62	C	0.495120	0.587185	0.032859
C63	C	0.496534	0.585343	-0.077099
C64	C	0.602503	0.587026	-0.076978
C65	C	1.317185	0.630953	-0.000057
C66	C	1.420328	0.630949	-0.000060
C67	C	1.013192	0.630968	0.189215
C68	C	1.013163	0.630970	0.253450
C69	C	1.013287	0.820219	-0.000058
C70	C	1.013290	0.884451	-0.000061
C71	C	0.953809	0.704883	0.320579
C72	C	0.953834	0.704884	0.380935
C73	C	1.013197	0.630969	0.374157
C74	C	1.072564	0.557046	0.307016
C75	C	1.072547	0.557046	0.246662
C76	C	1.004760	0.574342	0.441477
C77	C	1.004768	0.574344	0.501831
C78	C	1.013255	0.630964	0.560305
C79	C	1.021711	0.687595	0.558426
C80	C	1.021694	0.687596	0.498072
C81	C	1.013222	0.630960	0.439596
C82	C	0.953925	0.704884	0.692882
C83	C	0.953958	0.704883	0.753237
C84	C	1.072680	0.557042	0.679315
C85	C	1.072655	0.557046	0.618962
C86	C	1.013271	0.630969	0.625750
C87	C	1.013347	0.630961	0.810686
C88	C	1.013323	0.630967	0.746454
C89	C	1.317176	0.441697	-0.000049
C90	C	1.420316	0.377461	-0.000049
C91	C	1.013356	0.441702	-0.189308
C92	C	1.013383	0.377469	-0.253540
C93	C	1.317263	0.441692	-0.189314
C94	C	1.420432	0.377455	-0.253549
C95	C	0.709295	0.820235	0.189214
C96	C	0.606125	0.884472	0.253448
C97	C	0.709381	0.820230	-0.000051
C98	C	0.606241	0.884465	-0.000052
C99	C	1.013201	0.820224	0.189207
C100	C	1.013174	0.884458	0.253439
C101	C	1.409392	0.347299	0.036917
C102	C	1.506293	0.286951	0.036931
C103	C	1.614119	0.256763	-0.000024
C104	C	1.625042	0.286932	-0.036991
C105	C	1.528141	0.347282	-0.037001
C106	C	1.072756	0.347301	-0.320669
C107	C	1.072776	0.286955	-0.381028
C108	C	1.013430	0.256774	-0.374256
C109	C	0.954050	0.286948	-0.307119
C110	C	0.954023	0.347297	-0.246762
C111	C	1.528218	0.347287	-0.246758
C112	C	1.625166	0.286938	-0.307107
C113	C	1.614325	0.256754	-0.374247
C114	C	1.506527	0.286927	-0.381037
C115	C	1.409582	0.347279	-0.320688
C116	C	0.498339	0.914646	0.246657
C117	C	0.401391	0.975014	0.307007
C118	C	0.412232	1.005202	0.374146
C119	C	0.520030	0.975025	0.380936
C120	C	0.616975	0.914662	0.320588
C121	C	0.617166	0.914634	-0.037011
C122	C	0.520264	0.974998	-0.037009
C123	C	0.412438	1.005188	-0.000051
C124	C	0.401516	0.975017	0.036913
C125	C	0.498416	0.914658	0.036914
C126	C	1.072532	0.914620	0.246644
C127	C	1.072530	0.974966	0.306991
C128	C	1.013162	1.005153	0.374133
C129	C	0.953802	0.974985	0.380926
C130	C	0.953812	0.914636	0.320580
H131	H	1.120893	0.371871	0.067019
Br132	Br	0.280940	1.087105	-0.000061
Br133	Br	0.255172	1.015996	0.087065
Br134	Br	0.483569	0.873718	0.087075
H135	H	1.120877	0.890051	0.191979
H136	H	1.013461	0.207634	-0.423408
Br137	Br	0.873225	1.015969	0.472053
H138	H	1.028581	0.733705	0.496544
H139	H	1.121016	0.496859	0.673796
H140	H	1.120866	0.999522	0.301446
Br141	Br	1.013158	1.087058	0.456025
Br142	Br	0.873444	0.015939	-0.087178
H143	H	0.905471	0.890085	0.326122
H144	H	1.193625	0.124765	-0.009625
H145	H	0.529179	0.999554	-0.067112
Br146	Br	1.745907	0.174846	-0.456143
H147	H	1.120904	0.262372	0.067011
Br148	Br	0.539554	0.477955	-0.017598
Br149	Br	1.247601	-0.019352	-0.012497
Br150	Br	1.263304	0.388210	-0.329918
H151	H	0.704954	0.890058	-0.067111
H152	H	0.905678	0.371851	-0.192104
H153	H	1.120913	-0.000441	0.067005
H154	H	0.492606	0.755355	0.101466
Br155	Br	1.153128	-0.126323	0.087061
Br156	Br	0.873514	0.245979	-0.297940
Br157	Br	0.873437	-0.126317	-0.087178
H158	H	1.712931	0.262377	-0.301566
Br159	Br	0.606407	0.637971	0.126125
Br160	Br	0.411158	0.639737	0.127347
Br161	Br	0.778938	0.281296	0.012411
Br162	Br	0.778944	0.139036	0.012409
Br163	Br	0.873409	0.805203	0.844347
H164	H	0.313627	0.999574	0.301464
Br165	Br	0.873438	0.388245	-0.087172
Br166	Br	0.873440	0.245982	-0.087172
H167	H	0.493328	0.755317	0.022956
Br168	Br	0.483594	0.873688	0.155546
Br169	Br	0.280650	1.087124	0.456043
Br170	Br	1.542963	0.388243	-0.155647
H171	H	0.528844	0.999612	0.435609
H172	H	0.333900	0.755333	0.022647
Br173	Br	0.296160	0.778431	0.138536
H174	H	0.905498	0.765075	0.435601
Br175	Br	0.413177	0.632969	-0.122458
H176	H	0.681168	0.520915	0.001719
Br177	Br	1.491834	0.245954	-0.472161
Br178	Br	0.601689	0.640919	-0.117547
H179	H	1.121083	0.371868	-0.326197
H180	H	0.681675	0.521833	-0.112880
Br181	Br	0.542313	0.475662	-0.132551
Br182	Br	1.153371	0.246017	-0.472133
H183	H	1.028616	0.733703	0.606038
Br184	Br	0.873188	0.805206	0.329793
Br185	Br	0.763254	0.873714	0.329817
H186	H	1.120982	0.496858	0.564302
Br187	Br	0.873363	0.805206	0.702089
H188	H	1.321603	0.371877	0.067019
H189	H	0.997840	0.528235	0.393869
Br190	Br	0.993277	0.497497	0.504381
H191	H	1.120899	0.496863	0.301501
Br192	Br	1.491443	0.246019	0.087102
Br193	Br	1.771386	0.245951	-0.087144
Br194	Br	1.542988	0.388206	-0.087178
Br195	Br	1.153099	0.456728	0.155551
H196	H	1.693013	0.207621	-0.000011
