data_functionalizedCrystal
_audit_creation_method	'MofGen! by Chris Wilmer'
_symmetry_space_group_name_H-M	'P1'
_symmetry_Int_Tables_number	1
_symmetry_cell_setting	triclinic
loop_
_symmetry_equiv_pos_as_xyz
  x,y,z
_cell_length_a	19.121063
_cell_length_b	19.121308
_cell_length_c	12.759393
_cell_angle_alpha	87.583449
_cell_angle_beta	92.404035
_cell_angle_gamma	90.071047
loop_
_atom_site_label
_atom_site_type_symbol
_atom_site_fract_x
_atom_site_fract_y
_atom_site_fract_z
Zn1	Zn	-0.324739	-1.059831	-0.547101
Zn2	Zn	-0.441988	-1.054730	-0.379207
Zn3	Zn	-0.319778	-0.942591	-0.378596
Zn4	Zn	-0.436943	-0.937561	-0.561995
O5	O	-0.380862	-0.998678	-0.466725
O6	O	-0.344480	-1.157255	-0.518851
O7	O	-0.425812	-1.039825	-0.232109
O8	O	-0.222332	-0.962383	-0.394460
O9	O	-0.430623	-1.153508	-0.395501
O10	O	-0.225977	-1.048518	-0.518259
O11	O	-0.336024	-0.957437	-0.231660
O12	O	-0.331132	-0.843823	-0.408902
O13	O	-0.422024	-0.953810	-0.707036
O14	O	-0.417213	-0.840128	-0.543644
O15	O	-0.339588	-1.043641	-0.696093
O16	O	-0.539423	-1.034948	-0.409943
O17	O	-0.535716	-0.948864	-0.544236
C18	C	-0.373088	-0.816539	-0.477824
C19	C	-0.369778	-0.738618	-0.482598
C20	C	-0.348761	-0.298013	-0.512873
C21	C	-0.351883	-0.371227	-0.508382
C22	C	-0.398221	-0.405878	-0.441801
C23	C	-0.441443	-0.367309	-0.379714
C24	C	-0.438324	-0.294096	-0.384211
C25	C	-0.409882	-0.626836	-0.425009
C26	C	-0.412996	-0.700055	-0.420514
C27	C	-0.323437	-0.703968	-0.549184
C28	C	-0.320319	-0.630753	-0.553670
C29	C	-0.363544	-0.592191	-0.491588
C30	C	-0.401412	-0.480715	-0.437206
C31	C	-0.360356	-0.517355	-0.496189
C32	C	-0.563007	-0.990826	-0.478794
C33	C	-0.640933	-0.987531	-0.483988
C34	C	-0.679450	-1.030837	-0.416563
C35	C	-0.752669	-1.027742	-0.421454
C36	C	-0.787369	-0.981337	-0.493766
C37	C	-0.748847	-0.938029	-0.561199
C38	C	-0.675629	-0.941128	-0.556312
C39	C	-1.008344	-0.969739	-0.512022
C40	C	-1.081567	-0.966642	-0.516902
C41	C	-1.085384	-1.056356	-0.377157
C42	C	-1.012165	-1.059448	-0.372272
C43	C	-0.973649	-1.016143	-0.439709
C44	C	-0.862211	-0.978171	-0.498766
C45	C	-0.898809	-1.019313	-0.434714
C46	C	-0.198006	-1.006581	-0.454630
C47	C	-0.120084	-1.009948	-0.449476
C48	C	-0.380797	-0.998734	-0.740750
C49	C	-0.380769	-0.998757	-0.857524
C50	C	-0.388664	-0.181529	-0.455571
C51	C	-0.391979	-0.259450	-0.450789
C52	C	-0.337838	-1.045536	-0.906689
C53	C	-0.337808	-1.045549	-1.016410
C54	C	-0.423647	-0.952003	-1.027792
C55	C	-0.423673	-0.951987	-0.918073
C56	C	-0.256164	-1.074193	-1.159367
C57	C	-0.213239	-1.120982	-1.208535
C58	C	-0.205405	-1.189846	-1.168054
C59	C	-0.240507	-1.211934	-1.078406
C60	C	-0.283437	-1.165148	-1.029243
C61	C	-0.291257	-1.096275	-1.069722
C62	C	-0.505318	-0.923350	-0.775114
C63	C	-0.548253	-0.876567	-0.725949
C64	C	-0.556094	-0.807702	-0.766429
C65	C	-0.521004	-0.785616	-0.856081
C66	C	-0.478070	-0.832399	-0.905246
C67	C	-0.470228	-0.901264	-0.864759
C68	C	-0.380878	-0.998666	-0.193759
C69	C	-0.380714	-0.998786	-0.076965
H70	H	-0.445077	-0.595448	-0.374454
F71	F	-0.277439	-0.745013	-0.615255
F72	F	-0.484327	-0.253055	-0.318140
H73	H	-0.302901	-1.083618	-0.857393
F74	F	-0.264489	-1.000897	-1.202448
H75	H	-0.439137	-0.508935	-0.382991
F76	F	-0.320794	-1.188651	-0.933840
F77	F	-0.440723	-0.808891	-1.000663
F78	F	-0.299438	-0.261142	-0.583733
F79	F	-0.462328	-0.736930	-0.349662
H80	H	-1.109818	-0.928862	-0.575805
H81	H	-0.870554	-1.057099	-0.375841
F82	F	-0.975240	-1.108846	-0.295319
H83	H	-0.184659	-1.102992	-1.281528
H84	H	-0.527391	-0.729541	-0.889044
F85	F	-0.642526	-1.080223	-0.339591
F86	F	-0.793659	-1.073836	-0.349693
F87	F	-0.469308	-0.902232	-1.092242
H88	H	-1.116752	-1.091613	-0.322256
F89	F	-0.601802	-0.757917	-0.714112
F90	F	-0.585605	-0.900077	-0.630539
F91	F	-0.899148	-0.928784	-0.575723
H92	H	-0.976990	-0.934477	-0.566929
F93	F	-0.305888	-0.412266	-0.574466
H94	H	-0.170454	-1.227942	-1.208095
H95	H	-0.498933	-0.979424	-0.742141
F96	F	-0.271003	-0.593881	-0.624539
F97	F	-0.232176	-1.285232	-1.035338
H98	H	-0.777106	-0.900248	-0.620082
F99	F	-0.490762	-0.404189	-0.308858
H100	H	-0.322631	-0.489140	-0.550403
H101	H	-0.644269	-0.905865	-0.611218
