data_functionalizedCrystal
_audit_creation_method	'MofGen! by Chris Wilmer'
_symmetry_space_group_name_H-M	'P1'
_symmetry_Int_Tables_number	1
_symmetry_cell_setting	triclinic
loop_
_symmetry_equiv_pos_as_xyz
  x,y,z
_cell_length_a	10.723024
_cell_length_b	10.723024
_cell_length_c	9.198806
_cell_angle_alpha	89.997988
_cell_angle_beta	89.996352
_cell_angle_gamma	84.467869
loop_
_atom_site_label
_atom_site_type_symbol
_atom_site_fract_x
_atom_site_fract_y
_atom_site_fract_z
O1	O	1.657188	0.175024	-0.120879
O2	O	2.157188	0.675024	0.379121
O3	O	1.294035	0.191778	-0.120884
O4	O	1.794035	0.691778	0.379116
O5	O	1.483988	0.001825	-0.120876
O6	O	1.983988	0.501825	0.379124
O7	O	1.467235	0.364977	-0.120887
O8	O	1.967235	0.864977	0.379113
O9	O	1.483973	0.001824	0.120909
O10	O	1.983973	0.501824	0.620909
O11	O	1.294020	0.191777	0.120901
O12	O	1.794020	0.691777	0.620901
O13	O	1.657173	0.175024	0.120906
O14	O	2.157173	0.675024	0.620906
Cu15	Cu	1.475595	0.183401	0.142981
Cu16	Cu	1.975595	0.683401	0.642981
Cu17	Cu	1.475613	0.183401	-0.142958
Cu18	Cu	1.975613	0.683401	0.357042
O19	O	1.467220	0.364977	0.120898
O20	O	1.967220	0.864977	0.620898
C21	C	1.247528	0.190558	0.000008
C22	C	1.747528	0.690558	0.500008
C23	C	1.108974	0.186911	0.000007
C24	C	1.608974	0.686911	0.500007
C25	C	1.033991	0.293198	0.000002
C26	C	1.533991	0.793198	0.500002
C27	C	0.890788	0.289431	0.000001
C28	C	1.390788	0.789431	0.500001
C29	C	1.482762	-0.044675	0.000015
C30	C	1.982762	0.455325	0.500015
C31	C	1.479114	-0.183229	0.000010
C32	C	1.979114	0.316771	0.500010
C33	C	1.585401	-0.258212	0.000009
C34	C	2.085401	0.241788	0.500009
C35	C	1.581634	-0.401415	0.000004
C36	C	2.081634	0.098585	0.500004
C37	C	1.703680	0.176243	0.000011
C38	C	2.203680	0.676243	0.500011
C39	C	1.842234	0.179891	0.000003
C40	C	2.342234	0.679891	0.500003
C41	C	1.468447	0.411477	0.000004
C42	C	1.968447	0.911477	0.500004
C43	C	1.472094	0.550031	-0.000000
C44	C	1.972094	1.050031	0.500000
N45	N	1.475592	0.183399	0.344095
N46	N	1.975592	0.683399	0.844095
N47	N	1.475626	0.183393	-0.344072
N48	N	1.975626	0.683393	0.155928
C49	C	1.555347	0.103292	0.416295
C50	C	2.055347	0.603292	0.916295
C51	C	1.555367	0.103288	0.583707
C52	C	2.055367	0.603288	1.083707
H53	H	0.826355	0.380421	-0.000009
H54	H	1.326355	0.880421	0.499991
O55	O	1.089369	0.417439	-0.000000
O56	O	1.589369	0.917439	0.500000
H57	H	1.193157	0.400902	-0.000007
H58	H	1.693157	0.900902	0.499993
O59	O	1.385184	0.274269	0.426379
O60	O	1.885184	0.774269	0.926379
H61	H	1.326761	0.332954	0.348025
H62	H	1.826761	0.832954	0.848025
O63	O	1.053591	0.062672	0.000025
O64	O	1.553591	0.562672	0.500025
H65	H	1.085189	0.008834	-0.098513
H66	H	1.585189	0.508834	0.401487
O67	O	1.645747	0.012406	0.334023
O68	O	2.145747	0.512406	0.834023
H69	H	1.631532	0.026658	0.215441
H70	H	2.131532	0.526658	0.715441
H71	H	0.906659	0.088896	-0.000003
H72	H	1.406659	0.588896	0.499997
H73	H	1.679187	-0.216390	0.000019
H74	H	2.179187	0.283610	0.500019
O75	O	1.702173	-0.486748	0.000006
O76	O	2.202173	0.013252	0.500006
H77	H	1.680298	-0.585834	-0.000006
H78	H	2.180298	-0.085834	0.499994
H79	H	1.385328	-0.225051	-0.000001
H80	H	1.885328	0.274949	0.499999
O81	O	1.645820	0.012431	0.665934
O82	O	2.145820	0.512431	1.165934
H83	H	1.631635	0.026679	0.784521
H84	H	2.131635	0.526679	1.284521
H85	H	1.381099	-0.385544	0.000010
H86	H	1.881099	0.114456	0.500010
H87	H	1.407345	0.251984	0.593848
H88	H	1.907345	0.751984	1.093848
