data_functionalizedCrystal
_audit_creation_method	'MofGen! by Chris Wilmer'
_symmetry_space_group_name_H-M	'P1'
_symmetry_Int_Tables_number	1
_symmetry_cell_setting	triclinic
loop_
_symmetry_equiv_pos_as_xyz
  x,y,z
_cell_length_a	31.640172
_cell_length_b	23.196402
_cell_length_c	31.640172
_cell_angle_alpha	60.008398
_cell_angle_beta	90.008445
_cell_angle_gamma	59.998806
loop_
_atom_site_label
_atom_site_type_symbol
_atom_site_fract_x
_atom_site_fract_y
_atom_site_fract_z
Zr1	Zr	0.407194	0.630918	-0.055387
O2	O	0.339706	0.751184	-0.122873
O3	O	0.427881	0.510653	-0.034701
O4	O	0.427882	0.630903	-0.122865
O5	O	0.339705	0.630945	0.034839
O6	O	0.497439	0.630891	-0.122856
O7	O	0.339705	0.630933	-0.034709
O8	O	0.497437	0.415786	0.034853
O9	O	0.339708	0.846051	-0.122870
O10	O	0.488615	0.560111	-0.025869
O11	O	0.436707	0.560129	0.026027
O12	O	0.436708	0.701708	-0.077774
O13	O	0.384799	0.701726	-0.025878
Zr14	Zr	0.518131	0.630918	0.055550
Zr15	Zr	0.518129	0.630899	-0.055372
Zr16	Zr	0.407195	0.630937	0.055535
Zr17	Zr	0.407197	0.782221	-0.055382
Zr18	Zr	0.518128	0.479616	0.055545
O19	O	0.497444	0.751184	0.034864
O20	O	0.497442	0.751156	-0.122852
O21	O	0.339708	0.751211	0.034843
O22	O	0.585619	0.510653	0.123036
O23	O	0.585617	0.510626	-0.034680
O24	O	0.427883	0.510680	0.123015
O25	O	0.585619	0.630891	-0.034676
O26	O	0.497443	0.630933	0.123028
O27	O	0.427886	0.630945	0.123019
O28	O	0.585620	0.630903	0.034872
O29	O	0.427886	0.846036	-0.122858
O30	O	0.497438	0.415801	0.123021
O31	O	0.585617	0.415786	0.123033
O32	O	0.585616	0.415771	0.034865
O33	O	0.339709	0.846066	-0.034702
O34	O	0.427888	0.846051	-0.034690
O35	O	0.488617	0.560129	0.077937
O36	O	0.540526	0.560111	0.026041
O37	O	0.488618	0.701708	-0.025864
O38	O	0.436709	0.701726	0.026032
C39	C	0.462659	0.441662	0.000076
C40	C	0.462657	0.377430	0.000074
C41	C	0.323899	0.630942	0.000063
C42	C	0.276804	0.630950	0.000057
C43	C	0.489750	0.347250	-0.027018
C44	C	0.489755	0.286889	-0.027013
C45	C	0.462657	0.256722	0.000075
C46	C	0.435564	0.286906	0.027172
C47	C	0.435564	0.347260	0.027171
C48	C	0.417270	0.194700	-0.003798
C49	C	0.417269	0.134350	-0.003801
C50	C	0.462658	0.070567	0.000080
C51	C	0.508048	0.067148	0.003954
C52	C	0.508048	0.127502	0.003953
C53	C	0.462654	0.191278	0.000079
C54	C	0.489758	-0.025064	-0.027008
C55	C	0.489764	-0.085429	-0.027000
C56	C	0.435568	-0.085406	0.027182
C57	C	0.435567	-0.025047	0.027178
C58	C	0.462661	0.005123	0.000080
C59	C	0.011893	0.556999	0.027186
C60	C	-0.165092	0.556984	0.027196
O61	O	-0.164934	0.494124	0.050258
N62	N	-0.214317	0.630896	0.000101
C63	C	-0.219295	0.704816	-0.026995
O64	O	-0.265224	0.767682	-0.050036
C65	C	-0.042310	0.704830	-0.027002
C66	C	0.006914	0.630913	0.000090
C67	C	0.061115	0.483088	0.054277
C68	C	0.105359	0.483092	0.054272
C69	C	0.100380	0.557007	0.027176
C70	C	0.051158	0.630917	0.000085
C71	C	-0.047288	0.778749	-0.054095
C72	C	-0.003037	0.778746	-0.054093
C73	C	0.046187	0.704829	-0.027001
C74	C	0.090422	0.704836	-0.027016
N75	N	0.139647	0.630925	0.000079
C76	C	0.144626	0.557010	0.027175
C77	C	-0.312212	0.704804	-0.026990
C78	C	-0.356458	0.704801	-0.026989
C79	C	-0.302252	0.556969	0.027203
C80	C	-0.258006	0.556973	0.027199
C81	C	-0.262987	0.630893	0.000104
C82	C	0.237538	0.557025	0.027162
C83	C	0.281783	0.557036	0.027152
C84	C	0.227573	0.704867	-0.027037
C85	C	0.183332	0.704857	-0.027031
C86	C	0.188318	0.630929	0.000073
O87	O	0.090304	0.767663	-0.050060
O88	O	0.190560	0.494154	0.050222
C89	C	-0.032350	0.556994	0.027191
C90	C	-0.081572	0.630905	0.000101
C91	C	-0.086551	0.704819	-0.026995
C92	C	-0.125818	0.630901	0.000102
C93	C	-0.120839	0.556987	0.027197
C94	C	-0.071615	0.483075	0.054292
C95	C	-0.027371	0.483080	0.054287
C96	C	-0.135776	0.778731	-0.054090
C97	C	-0.180017	0.778720	-0.054083
C98	C	-0.175038	0.704806	-0.026987
C99	C	0.601426	0.630894	0.000100
C100	C	0.648521	0.630886	0.000106
C101	C	0.462660	0.630894	-0.138664
C102	C	0.462660	0.630886	-0.185753
C103	C	0.462666	0.820175	0.000087
C104	C	0.462667	0.884406	0.000089
C105	C	0.435572	0.704838	-0.504883
C106	C	0.435573	0.704852	-0.681878
O107	O	0.412548	0.767712	-0.727807
N108	N	0.462667	0.630941	-0.676914
C109	C	0.489765	0.557020	-0.627696
O110	O	0.512815	0.494154	-0.627536
C111	C	0.489768	0.557007	-0.450702
C112	C	0.462667	0.630923	-0.455670
C113	C	0.408474	0.778748	-0.509849
C114	C	0.408472	0.778744	-0.465602
C115	C	0.435568	0.704829	-0.416390
C116	C	0.462665	0.630919	-0.411424
C117	C	0.516869	0.483088	-0.401486
C118	C	0.516868	0.483091	-0.357237
C119	C	0.489768	0.557007	-0.362205
C120	C	0.489758	0.557000	-0.317965
N121	N	0.462664	0.630912	-0.322929
C122	C	0.435569	0.704826	-0.372141
C123	C	0.489762	0.557032	-0.720623
C124	C	0.489760	0.557036	-0.764871
C125	C	0.435568	0.704868	-0.819050
C126	C	0.435567	0.704864	-0.774800
C127	C	0.462667	0.630944	-0.725587
C128	C	0.435566	0.704812	-0.279219
C129	C	0.435564	0.704801	-0.234966
C130	C	0.489759	0.556969	-0.180791
C131	C	0.489758	0.556980	-0.225040
C132	C	0.462661	0.630907	-0.274255
O133	O	0.512776	0.494173	-0.272021
O134	O	0.412532	0.767683	-0.372291
C135	C	0.435574	0.704842	-0.549129
C136	C	0.462672	0.630932	-0.544163
C137	C	0.489767	0.557017	-0.494951
C138	C	0.462670	0.630935	-0.588412
C139	C	0.435575	0.704850	-0.637624
C140	C	0.408481	0.778761	-0.642588
C141	C	0.408479	0.778757	-0.598341
C142	C	0.516861	0.483106	-0.489987
C143	C	0.516861	0.483116	-0.534236
C144	C	0.489765	0.557031	-0.583448
C145	C	0.462664	0.630942	0.138827
C146	C	0.462665	0.630950	0.185916
C147	C	0.601422	0.441638	0.000094
C148	C	0.648516	0.377398	0.000098
C149	C	0.462661	0.441686	0.138821
C150	C	0.462660	0.377462	0.185908
C151	C	0.601424	0.441662	0.138840
C152	C	0.648518	0.377430	0.185933
C153	C	0.323901	0.820175	-0.138677
C154	C	0.276807	0.884406	-0.185770
C155	C	0.323903	0.820198	0.000069
C156	C	0.276809	0.884438	0.000065
C157	C	0.462664	0.820151	-0.138658
C158	C	0.462665	0.884374	-0.185745
C159	C	0.643535	0.347230	-0.027001
C160	C	0.687780	0.286879	-0.027007
C161	C	0.737006	0.256691	0.000089
C162	C	0.741986	0.286865	0.027189
C163	C	0.697741	0.347220	0.027192
C164	C	0.489756	0.347302	0.235122
C165	C	0.489754	0.286965	0.279370
C166	C	0.462658	0.256786	0.274402
C167	C	0.435558	0.286952	0.225183
C168	C	0.435558	0.347292	0.180937
C169	C	0.697735	0.347257	0.180959
C170	C	0.741989	0.286913	0.225204
C171	C	0.737026	0.256739	0.274423
C172	C	0.687804	0.286918	0.279395
C173	C	0.643551	0.347265	0.235151
C174	C	0.227590	0.914587	-0.180796
C175	C	0.183336	0.974950	-0.225041
C176	C	0.188299	1.005127	-0.274260
C177	C	0.237521	0.974944	-0.279232
C178	C	0.281774	0.914586	-0.234988
C179	C	0.281790	0.914612	0.027159
C180	C	0.237545	0.974981	0.027153
C181	C	0.188319	1.005170	0.000056
C182	C	0.183339	0.974994	-0.027042
C183	C	0.227584	0.914630	-0.027039
C184	C	0.489766	0.914535	-0.180762
C185	C	0.489777	0.974872	-0.225001
C186	C	0.462683	1.005051	-0.274223
C187	C	0.435581	0.974885	-0.279206
C188	C	0.435573	0.914545	-0.234967
H189	H	0.511817	0.262312	-0.049075
N190	N	0.334878	0.882070	0.056385
H191	H	0.354443	0.892564	0.031537
H192	H	0.354406	0.821500	0.083654
N193	N	0.140601	1.070264	0.000065
H194	H	0.108658	1.084812	-0.021210
H195	H	0.140632	1.120294	-0.015336
N196	N	0.795073	0.254355	0.219832
H197	H	0.822358	0.211546	0.255326
H198	H	0.799171	0.300443	0.200260
H199	H	0.380304	0.246642	-0.006969
N200	N	0.130250	1.007488	-0.219675
H201	H	0.110679	1.068068	-0.236815
H202	H	0.133865	0.979145	-0.181772
N203	N	0.590445	0.379780	-0.056227
H204	H	0.594011	0.351507	-0.073394
H205	H	0.570906	0.440364	-0.083463
N206	N	0.140566	1.070227	-0.321978
H207	H	0.108636	1.084760	-0.311354
H208	H	0.140586	1.049176	-0.343256
H209	H	0.511823	0.262411	0.319441
H210	H	-0.139838	0.838922	-0.076156
H211	H	0.773028	0.207546	0.000083
H212	H	0.413497	0.262371	0.221147
N213	N	0.368312	0.138044	-0.007968
H214	H	0.358153	0.141732	-0.039944
H215	H	0.339602	0.187602	-0.010394
N216	N	0.406300	0.379861	0.127857
H217	H	0.389127	0.351595	0.131429
H218	H	0.431152	0.369375	0.108294
H219	H	0.413501	0.262339	0.049228
H220	H	0.701786	0.371816	0.140887
N221	N	0.795079	0.254296	0.056421
H222	H	0.799236	0.300327	0.042218
H223	H	0.822317	0.211469	0.052299
H224	H	0.143254	0.999583	-0.049104
H225	H	0.413521	0.999467	-0.319289
H226	H	0.683715	0.262318	-0.049075
N227	N	0.222208	0.882088	-0.056264
H228	H	0.184309	0.910376	-0.073428
H229	H	0.239380	0.821507	-0.031387
N230	N	0.242915	0.477294	0.056385
H231	H	0.225773	0.473989	0.083654
H232	H	0.280822	0.430522	0.073509
N233	N	-0.409547	0.784526	-0.056211
H234	H	-0.436825	0.773317	-0.052102
H235	H	-0.413649	0.816802	-0.094101
H236	H	0.603478	0.371824	0.239208
H237	H	0.321864	0.496841	0.049216
N238	N	0.242870	1.007495	-0.332319
H239	H	0.207365	1.050307	-0.359589
H240	H	0.262430	0.961403	-0.336421
N241	N	0.682453	0.254363	0.332481
H242	H	0.662908	0.300401	0.336635
H243	H	0.717975	0.211540	0.359719
N244	N	0.406343	0.379812	0.056394
H245	H	0.389179	0.351542	0.073558
H246	H	0.379101	0.440396	0.031515
N247	N	0.518991	0.881992	-0.127675
H248	H	0.536160	0.910259	-0.131239
H249	H	0.546229	0.821406	-0.108136
H250	H	0.511846	0.999427	-0.220933
N251	N	0.406340	0.882019	-0.240347
H252	H	0.389178	0.910300	-0.278243
H253	H	0.379095	0.892537	-0.223178
N254	N	0.703117	0.379752	0.056424
H255	H	0.741016	0.351465	0.073588
H256	H	0.685943	0.369248	0.083663
H257	H	-0.298205	0.496785	0.049262
N258	N	0.462699	1.070125	-0.321935
H259	H	0.483981	1.084647	-0.311304
H260	H	0.425990	1.120172	-0.343220
N261	N	0.518985	0.379843	0.240487
H262	H	0.536146	0.351576	0.278381
H263	H	0.494105	0.440429	0.223306
N264	N	-0.317593	0.784539	-0.056223
H265	H	-0.300446	0.787829	-0.083488
H266	H	-0.300451	0.787804	-0.031345
H267	H	0.462662	0.207654	0.310435
N268	N	0.158448	0.403368	0.083491
H269	H	0.154880	0.356550	0.100654
H270	H	0.177993	0.400146	0.110730
N271	N	0.784759	0.191650	0.322141
H272	H	0.816689	0.177116	0.311517
H273	H	0.784737	0.141612	0.343416
N274	N	-0.233109	0.858450	-0.083308
H275	H	-0.229543	0.905271	-0.100471
H276	H	-0.252640	0.861670	-0.058426
N277	N	0.518971	0.379791	-0.056243
H278	H	0.536135	0.351509	-0.073404
H279	H	0.546214	0.369289	-0.031365
N280	N	0.518987	0.477250	-0.127709
H281	H	0.514876	0.488470	-0.100435
H282	H	0.556880	0.444982	-0.123613
N283	N	0.557000	0.123819	0.008131
H284	H	0.585756	0.074258	0.010589
H285	H	0.567094	0.120176	0.040104
H286	H	0.223539	0.890020	-0.140724
N287	N	0.379268	0.858483	-0.695673
H288	H	0.362103	0.905312	-0.692110
H289	H	0.352028	0.861717	-0.715226
H290	H	-0.217928	0.496783	0.049264
N291	N	0.557008	-0.001638	0.008138
H292	H	0.550123	-0.039358	0.007554
H293	H	0.584948	-0.032980	0.041636
N294	N	0.518980	0.007480	-0.056232
H295	H	0.556887	-0.038565	-0.042016
H296	H	0.514824	0.050310	-0.052116
N297	N	0.518990	-0.117987	-0.056218
H298	H	0.536151	-0.089713	-0.073384
H299	H	0.494108	-0.107490	-0.083455
N300	N	0.334857	0.882034	-0.240356
H301	H	0.331281	0.910312	-0.278250
H302	H	0.354393	0.821452	-0.223185
N303	N	0.242923	1.007520	0.056382
H304	H	0.280822	0.979226	0.073552
H305	H	0.225742	0.997029	0.083617
N306	N	0.222208	0.784587	-0.056264
H307	H	0.257709	0.773366	-0.052152
H308	H	0.202646	0.816866	-0.042036
N309	N	0.406346	-0.117941	0.056405
H310	H	0.410458	-0.160758	0.052296
H311	H	0.368452	-0.071847	0.042176
H312	H	0.413503	-0.000472	0.049236
H313	H	-0.087362	0.838940	-0.076156
N314	N	0.066489	0.403362	0.083501
H315	H	0.086042	0.371049	0.121402
H316	H	0.086022	0.371117	0.069244
N317	N	-0.008408	0.858473	-0.083318
H318	H	-0.027953	0.890790	-0.069105
H319	H	-0.027947	0.890718	-0.121213
N320	N	0.130236	0.784574	-0.056254
H321	H	0.126080	0.816885	-0.094157
H322	H	0.126126	0.816829	-0.042003
N323	N	0.025715	0.403350	0.083514
H324	H	0.045286	0.400054	0.110780
H325	H	0.045239	0.400089	0.058633
N326	N	-0.066248	0.403352	0.083512
H327	H	-0.101749	0.414574	0.079400
H328	H	-0.046678	0.371075	0.121402
H329	H	0.413494	0.764995	-0.239017
H330	H	0.413501	0.765011	-0.319287
N331	N	0.379250	0.858468	-0.470964
H332	H	0.362090	0.905287	-0.508857
H333	H	0.404133	0.861679	-0.453780
H334	H	0.413499	0.765053	-0.778851
N335	N	0.379262	0.858477	-0.562926
H336	H	0.362103	0.905291	-0.559348
H337	H	0.352016	0.861724	-0.582482
N338	N	0.406342	0.784592	-0.872134
H339	H	0.410457	0.773371	-0.899407
H340	H	0.420574	0.816860	-0.876224
H341	H	0.511821	0.496845	-0.760820
N342	N	0.518994	0.477300	-0.667544
H343	H	0.536154	0.430485	-0.671120
H344	H	0.494116	0.474078	-0.648009
N345	N	0.546113	0.403359	-0.396116
H346	H	0.531911	0.371032	-0.376571
H347	H	0.584008	0.371132	-0.376579
N348	N	0.546101	0.403361	-0.304156
H349	H	0.563267	0.356542	-0.307728
H350	H	0.521223	0.400137	-0.284621
H351	H	0.511818	0.496791	-0.220994
H352	H	0.538927	0.422920	-0.530182
N353	N	0.379254	0.858479	-0.603701
H354	H	0.341349	0.890801	-0.623254
H355	H	0.393513	0.890719	-0.623225
N356	N	0.546089	0.403380	-0.436910
H357	H	0.563251	0.356564	-0.440485
H358	H	0.521208	0.400159	-0.417378
