data_functionalizedCrystal
_audit_creation_method	'MofGen! by Chris Wilmer'
_symmetry_space_group_name_H-M	'P1'
_symmetry_Int_Tables_number	1
_symmetry_cell_setting	triclinic
loop_
_symmetry_equiv_pos_as_xyz
  x,y,z
_cell_length_a	25.639239
_cell_length_b	16.959455
_cell_length_c	16.959447
_cell_angle_alpha	90.015228
_cell_angle_beta	89.966924
_cell_angle_gamma	89.966544
loop_
_atom_site_label
_atom_site_type_symbol
_atom_site_fract_x
_atom_site_fract_y
_atom_site_fract_z
Zn1	Zn	-0.208213	-1.208282	-0.446913
Zn2	Zn	-0.295654	-1.208161	-0.314728
Zn3	Zn	-0.208227	-1.076110	-0.314748
Zn4	Zn	-0.295612	-1.076032	-0.446864
O5	O	-0.251926	-1.142146	-0.380813
O6	O	-0.219825	-1.318876	-0.429390
O7	O	-0.284080	-1.190627	-0.204119
O8	O	-0.135060	-1.093726	-0.332309
O9	O	-0.284067	-1.318788	-0.332274
O10	O	-0.135050	-1.190832	-0.429409
O11	O	-0.219847	-1.093609	-0.204134
O12	O	-0.219806	-0.965489	-0.332262
O13	O	-0.283995	-1.093593	-0.557482
O14	O	-0.284008	-0.965431	-0.429327
O15	O	-0.219784	-1.190756	-0.557517
O16	O	-0.368814	-1.190551	-0.332227
O17	O	-0.368783	-1.093476	-0.429307
C18	C	-0.251904	-0.936780	-0.380792
C19	C	-0.251907	-0.848923	-0.380801
C20	C	-0.387769	-1.142013	-0.380777
C21	C	-0.445883	-1.142029	-0.380788
C22	C	-0.218453	-0.477453	-0.330366
C23	C	-0.285410	-0.477442	-0.431284
C24	C	-0.285404	-0.559988	-0.431281
C25	C	-0.251923	-0.601270	-0.380818
C26	C	-0.218447	-0.560007	-0.330360
C27	C	-0.318883	-0.601258	-0.481733
C28	C	-0.318880	-0.683809	-0.481731
C29	C	-0.285395	-0.725092	-0.431272
C30	C	-0.251918	-0.683824	-0.380812
C31	C	-0.218436	-0.725106	-0.330349
C32	C	-0.184956	-0.683839	-0.279893
C33	C	-0.184963	-0.601290	-0.279901
C34	C	-0.285388	-0.807641	-0.431264
C35	C	-0.218431	-0.807660	-0.330343
C36	C	-0.806250	-1.192825	-0.330350
C37	C	-0.860854	-1.192855	-0.330360
O38	O	-0.889094	-1.235906	-0.287436
N39	N	-0.888165	-1.142285	-0.380866
C40	C	-0.860870	-1.091686	-0.431369
O41	O	-0.889114	-1.048675	-0.474329
C42	C	-0.806266	-1.091660	-0.431362
C43	C	-0.778958	-1.142228	-0.380848
C44	C	-0.778941	-1.243389	-0.279840
C45	C	-0.724341	-1.243358	-0.279829
C46	C	-0.697049	-1.192761	-0.330327
C47	C	-0.724357	-1.142196	-0.380836
C48	C	-0.778972	-1.041066	-0.481869
C49	C	-0.724365	-1.041045	-0.481858
C50	C	-0.697056	-1.091613	-0.431344
C51	C	-0.642465	-1.091568	-0.431323
N52	N	-0.615153	-1.142139	-0.380818
C53	C	-0.642445	-1.192735	-0.330320
C54	C	-0.975540	-1.091746	-0.431381
C55	C	-1.030143	-1.091767	-0.431385
C56	C	-1.030123	-1.192938	-0.330377
C57	C	-0.975520	-1.192912	-0.330370
C58	C	-0.948229	-1.142316	-0.380876
C59	C	-0.527780	-1.192664	-0.330299
C60	C	-0.473175	-1.192625	-0.330290
C61	C	-0.473199	-1.091458	-0.431300
C62	C	-0.527800	-1.091493	-0.431307
C63	C	-0.555089	-1.142103	-0.380804
O64	O	-0.614190	-1.048541	-0.474228
O65	O	-0.614194	-1.235746	-0.287374
C66	C	-0.115553	-1.142301	-0.380867
C67	C	-0.057439	-1.142367	-0.380890
C68	C	-0.251883	-1.142179	-0.586981
C69	C	-0.251865	-1.142193	-0.674838
C70	C	-0.251943	-0.348314	-0.380831
C71	C	-0.251934	-0.436171	-0.380829
C72	C	-0.285241	-1.091699	-1.046298
C73	C	-0.218378	-1.192876	-1.046330
C74	C	-0.218389	-1.192855	-0.963784
C75	C	-0.251827	-1.142256	-0.922491
C76	C	-0.285255	-1.091678	-0.963744
C77	C	-0.184966	-1.243438	-0.922525
C78	C	-0.184976	-1.243419	-0.839974
C79	C	-0.218412	-1.192816	-0.798679
C80	C	-0.251840	-1.142235	-0.839938
C81	C	-0.285279	-1.091636	-0.798645
C82	C	-0.318705	-1.041051	-0.839901
C83	C	-0.318691	-1.041074	-0.922450
C84	C	-0.218426	-1.192792	-0.716131
C85	C	-0.285292	-1.091615	-0.716091
C86	C	-0.251932	-1.142159	-0.175447
C87	C	-0.251803	-1.142298	-0.087591
H88	H	-0.191163	-0.841266	-0.289254
H89	H	-0.191157	-1.234076	-1.079956
H90	H	-0.312649	-0.841237	-0.472342
H91	H	-0.801156	-1.284596	-0.238718
H92	H	-0.345933	-0.999857	-0.806270
N93	N	-0.319442	-1.039926	-0.673903
N94	N	-0.301046	-0.989570	-0.627846
H95	H	-0.325163	-0.953064	-0.598049
H96	H	-0.346146	-0.567640	-0.522811
H97	H	-0.801197	-0.999884	-0.523000
H98	H	-0.702147	-0.999845	-0.522989
N99	N	-0.947635	-1.244568	-0.278764
N100	N	-0.972016	-1.289734	-0.233679
H101	H	-0.952326	-1.326220	-0.197231
N102	N	-0.352828	-0.989411	-0.964604
N103	N	-0.352811	-0.989441	-1.038308
H104	H	-0.376921	-0.952956	-1.068084
N105	N	-0.319377	-1.040029	-1.088447
N106	N	-0.319360	-1.040047	-1.162151
H107	H	-0.343468	-1.003554	-1.191921
N108	N	-1.058015	-1.244616	-0.278796
N109	N	-1.106768	-1.244628	-0.278817
H110	H	-1.126468	-1.281122	-0.242389
H111	H	-0.450942	-1.233804	-0.289152
H112	H	-1.052373	-1.050582	-0.472512
N113	N	-0.555642	-1.244363	-0.278706
N114	N	-0.531244	-1.289499	-0.233613
H115	H	-0.550921	-1.326008	-0.197170
H116	H	-0.157698	-0.717462	-0.238803
N117	N	-0.150769	-0.559125	-0.228370
N118	N	-0.150782	-0.485422	-0.228382
H119	H	-0.126634	-0.455638	-0.191988
N120	N	-0.150821	-1.295124	-0.964715
N121	N	-0.150816	-1.295133	-1.038419
H122	H	-0.126700	-1.331638	-1.068220
N123	N	-0.696458	-1.295018	-0.228225
N124	N	-0.720841	-1.340188	-0.183147
H125	H	-0.701152	-1.376678	-0.146700
N126	N	-0.150832	-1.295095	-0.797847
N127	N	-0.120981	-1.340270	-0.834726
H128	H	-0.096866	-1.376766	-0.804975
N129	N	-0.184287	-1.244466	-0.674001
N130	N	-0.154437	-1.289645	-0.710879
H131	H	-0.130324	-1.326142	-0.681126
H132	H	-0.953323	-1.050538	-0.472507
N133	N	-0.184254	-0.435293	-0.278838
N134	N	-0.184258	-0.361590	-0.278852
H135	H	-0.160105	-0.331812	-0.242461
N136	N	-0.353068	-0.725960	-0.533281
N137	N	-0.334709	-0.772050	-0.583698
H138	H	-0.358853	-0.801822	-0.620107
H139	H	-0.550036	-1.050319	-0.472442
H140	H	-0.450970	-1.050260	-0.472413
H141	H	-0.312672	-0.443825	-0.472363
