data_functionalizedCrystal
_audit_creation_method	'MofGen! by Chris Wilmer'
_symmetry_space_group_name_H-M	'P1'
_symmetry_Int_Tables_number	1
_symmetry_cell_setting	triclinic
loop_
_symmetry_equiv_pos_as_xyz
  x,y,z
_cell_length_a	15.995350
_cell_length_b	16.992695
_cell_length_c	15.455313
_cell_angle_alpha	87.152573
_cell_angle_beta	92.677661
_cell_angle_gamma	87.080299
loop_
_atom_site_label
_atom_site_type_symbol
_atom_site_fract_x
_atom_site_fract_y
_atom_site_fract_z
O1	O	-1.121185	-0.097643	-0.072058
O2	O	-0.787852	0.235691	0.261276
O3	O	-0.454519	0.569024	0.594609
O4	O	-0.878246	-0.110122	-0.072076
O5	O	-0.544913	0.223211	0.261258
O6	O	-0.211579	0.556544	0.594591
O7	O	-0.998742	0.010260	-0.072060
O8	O	-0.665408	0.343593	0.261274
O9	O	-0.332075	0.676927	0.594607
O10	O	-1.000690	-0.218025	-0.072073
O11	O	-0.667357	0.115309	0.261260
O12	O	-0.334023	0.448642	0.594593
O13	O	-0.991849	0.003404	0.072201
O14	O	-0.658516	0.336738	0.405535
O15	O	-0.325183	0.670071	0.738868
O16	O	-0.871354	-0.116978	0.072186
O17	O	-0.538020	0.216355	0.405519
O18	O	-0.204687	0.549689	0.738852
O19	O	-1.114293	-0.104498	0.072204
O20	O	-0.780960	0.228835	0.405537
O21	O	-0.447626	0.562169	0.738870
Cu22	Cu	-0.992194	-0.111364	0.085367
Cu23	Cu	-0.658861	0.221969	0.418700
Cu24	Cu	-0.325527	0.555303	0.752033
Cu25	Cu	-1.000345	-0.103256	-0.085239
Cu26	Cu	-0.667012	0.230077	0.248095
Cu27	Cu	-0.333678	0.563410	0.581428
O28	O	-0.993798	-0.224880	0.072188
O29	O	-0.660464	0.108453	0.405521
O30	O	-0.327131	0.441786	0.738854
C31	C	-0.992790	0.036045	0.000071
C32	C	-0.659456	0.369378	0.333404
C33	C	-0.326123	0.702711	0.666737
C34	C	-0.985313	0.123089	0.000070
C35	C	-0.651980	0.456422	0.333403
C36	C	-0.318647	0.789756	0.666736
C37	C	-0.843571	-0.113034	0.000053
C38	C	-0.510237	0.220299	0.333386
C39	C	-0.176904	0.553633	0.666719
C40	C	-0.750517	-0.111487	0.000046
C41	C	-0.417184	0.221846	0.333379
C42	C	-0.083851	0.555180	0.666713
C43	C	-1.148968	-0.101586	0.000073
C44	C	-0.815635	0.231747	0.333407
C45	C	-0.482302	0.565080	0.666740
C46	C	-1.242022	-0.103133	0.000074
C47	C	-0.908689	0.230200	0.333408
C48	C	-0.575356	0.563533	0.666741
C49	C	-0.412397	-0.105933	0.000065
C50	C	-0.079064	0.227401	0.333398
C51	C	0.254270	0.560734	0.666731
C52	C	-0.454079	-0.020213	0.000391
C53	C	-0.120745	0.313120	0.333725
C54	C	0.212588	0.646453	0.667058
C55	C	-0.550888	-0.021745	0.000060
C56	C	-0.217555	0.311588	0.333394
C57	C	0.115778	0.644922	0.666727
C58	C	-0.580142	-0.108688	0.000056
C59	C	-0.246809	0.224646	0.333389
C60	C	0.086524	0.557979	0.666723
C61	C	-0.545821	-0.147060	-0.082323
C62	C	-0.212487	0.186273	0.251010
C63	C	0.120846	0.519607	0.584343
C64	C	-0.449044	-0.144903	-0.082386
C65	C	-0.115711	0.188430	0.250947
C66	C	0.217623	0.521763	0.584280
C67	C	-0.440986	-0.154471	0.081666
C68	C	-0.107652	0.178863	0.414999
C69	C	0.225681	0.512196	0.748332
C70	C	-0.537878	-0.154502	0.082748
C71	C	-0.204545	0.178831	0.416082
C72	C	0.128789	0.512165	0.749415
C73	C	-0.674945	-0.110249	0.000048
C74	C	-0.341611	0.223084	0.333381
C75	C	-0.008278	0.556418	0.666715
C76	C	-0.317595	-0.104373	0.000066
C77	C	0.015738	0.228960	0.333400
C78	C	0.349072	0.562293	0.666733
C79	C	-0.999750	-0.250665	0.000056
C80	C	-0.666416	0.082668	0.333389
C81	C	-0.333083	0.416002	0.666722
C82	C	-1.007226	-0.337709	0.000051
C83	C	-0.673893	-0.004376	0.333384
C84	C	-0.340559	0.328958	0.666717
N85	N	-0.986467	-0.117066	0.205362
N86	N	-0.653134	0.216267	0.538695
N87	N	-0.319800	0.549601	0.872028
C88	C	-1.057449	0.173329	0.000076
C89	C	-0.724115	0.506662	0.333409
C90	C	-0.390782	0.839996	0.666743
C91	C	-1.050419	0.255116	0.000067
C92	C	-0.717086	0.588449	0.333401
C93	C	-0.383753	0.921783	0.666734
C94	C	-0.971254	0.286661	0.000058
C95	C	-0.637921	0.619994	0.333392
C96	C	-0.304587	0.953328	0.666725
C97	C	-0.899114	0.236415	0.000050
C98	C	-0.565780	0.569748	0.333383
C99	C	-0.232447	0.903081	0.666716
C100	C	-0.906144	0.154629	0.000052
C101	C	-0.572811	0.487963	0.333386
C102	C	-0.239477	0.821296	0.666719
C103	C	-0.942116	0.530259	0.000044
C104	C	-0.608783	0.863593	0.333378
C105	C	-0.275449	1.196926	0.666711
C106	C	-0.935091	0.612051	0.000044
C107	C	-0.601758	0.945384	0.333378
C108	C	-0.268424	1.278718	0.666711
C109	C	-1.086398	0.630747	0.000060
C110	C	-0.753064	0.964080	0.333394
C111	C	-0.419731	1.297414	0.666727
C112	C	-1.093421	0.548959	0.000068
C113	C	-0.760087	0.882292	0.333402
C114	C	-0.426754	1.215626	0.666735
C115	C	-1.021281	0.498720	0.000055
C116	C	-0.687947	0.832053	0.333388
C117	C	-0.354614	1.165387	0.666721
N118	N	-0.964067	0.370260	0.000052
N119	N	-0.630734	0.703593	0.333386
N120	N	-0.297400	1.036927	0.666719
N121	N	-1.028469	0.415123	0.000055
N122	N	-0.695135	0.748456	0.333388
N123	N	-0.361802	1.081789	0.666721
N124	N	-1.006078	-0.097548	-0.205234
N125	N	-0.672745	0.235785	0.128100
N126	N	-0.339412	0.569118	0.461433
C127	C	-1.037678	-0.065942	0.250762
C128	C	-0.704345	0.267391	0.584096
C129	C	-0.371011	0.600724	0.917429
C130	C	-1.033355	-0.070262	0.341570
C131	C	-0.700022	0.263072	0.674903
C132	C	-0.366689	0.596405	1.008236
C133	C	-0.977825	-0.125709	0.386975
C134	C	-0.644492	0.207624	0.720308
C135	C	-0.311159	0.540958	1.053641
C136	C	-0.926609	-0.176835	0.341567
C137	C	-0.593275	0.156498	0.674901
C138	C	-0.259942	0.489832	1.008234
C139	C	-0.930928	-0.172511	0.250762
C140	C	-0.597594	0.160822	0.584095
C141	C	-0.264261	0.494155	0.917428
C142	C	-0.959181	-0.144351	0.658554
C143	C	-0.625847	0.188983	0.991887
C144	C	-0.292514	0.522316	1.325220
C145	C	-0.954867	-0.148672	0.749366
C146	C	-0.621534	0.184661	1.082699
C147	C	-0.288201	0.517995	1.416032
C148	C	-1.061613	-0.042097	0.749362
C149	C	-0.728280	0.291236	1.082695
C150	C	-0.394947	0.624570	1.416028
C151	C	-1.065931	-0.037781	0.658554
C152	C	-0.732598	0.295552	0.991888
C153	C	-0.399264	0.628885	1.325221
C154	C	-1.014711	-0.088905	0.613155
C155	C	-0.681378	0.244429	0.946488
C156	C	-0.348045	0.577762	1.279822
N157	N	-0.973407	-0.130127	0.479794
N158	N	-0.640074	0.203206	0.813128
N159	N	-0.306740	0.536540	1.146461
N160	N	-1.019126	-0.084482	0.520337
N161	N	-0.685793	0.248851	0.853670
N162	N	-0.352459	0.582184	1.187004
H163	H	-0.574272	0.008689	0.059113
H164	H	-0.240938	0.342022	0.392447
H165	H	0.092395	0.675355	0.725780
H166	H	-0.421186	-0.207670	-0.086128
H167	H	-0.087853	0.125663	0.247206
H168	H	0.245481	0.458996	0.580539
H169	H	-1.157885	0.523282	0.000075
H170	H	-0.824552	0.856615	0.333409
H171	H	-0.491219	1.189948	0.666742
H172	H	-1.145130	0.671660	0.000070
H173	H	-0.811796	1.004993	0.333403
H174	H	-0.478463	1.338327	0.666736
H175	H	-0.883374	0.489364	0.000034
H176	H	-0.550041	0.822697	0.333367
H177	H	-0.216707	1.156031	0.666700
H178	H	-1.103313	-0.000474	0.786334
H179	H	-0.769980	0.332859	1.119667
H180	H	-0.436646	0.666193	1.453001
H181	H	-0.881390	-0.221979	0.378541
H182	H	-0.548057	0.111354	0.711875
H183	H	-0.214724	0.444688	1.045208
H184	H	-0.889225	-0.214141	0.213797
H185	H	-0.555892	0.119192	0.547131
H186	H	-0.222559	0.452526	0.880464
H187	H	-0.430441	0.011249	0.059469
H188	H	-0.097108	0.344583	0.392802
H189	H	0.236226	0.677916	0.726136
H190	H	-0.909646	-0.193827	0.786330
H191	H	-0.576312	0.139506	1.119663
H192	H	-0.242979	0.472839	1.452997
H193	H	-0.917477	-0.185979	0.621597
H194	H	-0.584144	0.147355	0.954930
H195	H	-0.250811	0.480688	1.288263
H196	H	-1.121913	0.147652	0.000088
H197	H	-0.788580	0.480985	0.333422
H198	H	-0.455246	0.814318	0.666755
H199	H	-0.847404	0.113724	0.000047
H200	H	-0.514070	0.447057	0.333380
H201	H	-0.180737	0.780391	0.666714
H202	H	-0.870621	0.637730	0.000051
H203	H	-0.537288	0.971064	0.333385
H204	H	-0.203955	1.304397	0.666718
H205	H	-0.834656	0.262105	0.000037
H206	H	-0.501322	0.595438	0.333370
H207	H	-0.167989	0.928772	0.666704
H208	H	-0.435009	0.016691	-0.058356
H209	H	-0.101676	0.350024	0.274977
H210	H	0.231657	0.683357	0.608310
H211	H	-1.109159	0.296019	0.000074
H212	H	-0.775826	0.629352	0.333408
H213	H	-0.442493	0.962685	0.666741
H214	H	-0.564366	-0.210789	-0.085390
H215	H	-0.231033	0.122544	0.247944
H216	H	0.102300	0.455878	0.581277
H217	H	-1.082900	-0.020794	0.213800
H218	H	-0.749567	0.312539	0.547133
H219	H	-0.416233	0.645872	0.880466
H220	H	-1.075055	-0.028632	0.378535
H221	H	-0.741721	0.304701	0.711868
H222	H	-0.408388	0.638035	1.045201
H223	H	-1.111148	0.007368	0.621587
H224	H	-0.777815	0.340702	0.954921
H225	H	-0.444481	0.674035	1.288254
H226	H	-0.575159	-0.114776	-0.143629
H227	H	-0.241825	0.218558	0.189705
H228	H	0.091508	0.551891	0.523038
H229	H	-0.431614	-0.111139	-0.143964
H230	H	-0.098281	0.222194	0.189370
H231	H	0.235053	0.555527	0.522703
H232	H	-0.579333	0.014531	-0.059092
H233	H	-0.246000	0.347864	0.274242
H234	H	0.087334	0.681197	0.607575
H235	H	-0.413427	-0.217708	0.082220
H236	H	-0.080094	0.115625	0.415553
H237	H	0.253239	0.448958	0.748886
H238	H	-0.560217	-0.126529	0.143692
H239	H	-0.226884	0.206805	0.477026
H240	H	0.106449	0.540138	0.810359
H241	H	-0.415591	-0.129409	0.144107
H242	H	-0.082258	0.203924	0.477441
H243	H	0.251075	0.537257	0.810774
H244	H	-0.557248	-0.218140	0.087721
H245	H	-0.223915	0.115194	0.421054
H246	H	0.109419	0.448527	0.754388
