data_functionalizedCrystal
_audit_creation_method	'MofGen! by Chris Wilmer'
_symmetry_space_group_name_H-M	'P1'
_symmetry_Int_Tables_number	1
_symmetry_cell_setting	triclinic
loop_
_symmetry_equiv_pos_as_xyz
  x,y,z
_cell_length_a	14.519709
_cell_length_b	14.519731
_cell_length_c	12.996460
_cell_angle_alpha	89.999130
_cell_angle_beta	89.999039
_cell_angle_gamma	83.684499
loop_
_atom_site_label
_atom_site_type_symbol
_atom_site_fract_x
_atom_site_fract_y
_atom_site_fract_z
O1	O	1.223880	0.120883	-0.085435
O2	O	0.955404	0.135120	-0.085467
O3	O	1.096750	-0.006236	-0.085441
O4	O	1.082534	0.262238	-0.085461
O5	O	1.096731	-0.006226	0.085693
O6	O	0.955385	0.135129	0.085667
O7	O	1.223861	0.120892	0.085699
Cu8	Cu	1.089621	0.128012	0.101309
Cu9	Cu	1.089644	0.128000	-0.101077
O10	O	1.082515	0.262248	0.085673
C11	C	1.096075	-0.040591	0.000126
C12	C	1.094079	-0.142971	0.000127
C13	C	0.921035	0.134461	0.000096
C14	C	0.818654	0.132473	0.000084
C15	C	1.092457	-0.226115	0.000124
C16	C	1.090430	-0.330424	0.000116
C17	C	1.088822	-0.413563	0.000109
C18	C	1.086795	-0.517878	0.000103
C19	C	0.443757	0.125153	0.000132
C20	C	0.548065	0.127186	0.000118
C21	C	0.631202	0.128813	0.000107
C22	C	0.735517	0.130846	0.000095
C23	C	1.258230	0.121551	0.000133
C24	C	1.360612	0.123539	0.000138
C25	C	1.083191	0.296603	0.000103
C26	C	1.085187	0.398983	0.000096
N27	N	1.089612	0.128019	0.243656
C28	C	1.089616	0.128022	0.336762
C29	C	1.089623	0.128016	0.453567
C30	C	1.089634	0.128007	0.546665
C31	C	1.089643	0.128002	0.663478
N32	N	1.089654	0.127993	0.756576
