data_functionalizedCrystal
_audit_creation_method	'MofGen! by Chris Wilmer'
_symmetry_space_group_name_H-M	'P1'
_symmetry_Int_Tables_number	1
_symmetry_cell_setting	triclinic
loop_
_symmetry_equiv_pos_as_xyz
  x,y,z
_cell_length_a	16.992694
_cell_length_b	17.038272
_cell_length_c	15.455313
_cell_angle_alpha	92.858370
_cell_angle_beta	87.142206
_cell_angle_gamma	90.889890
loop_
_atom_site_label
_atom_site_type_symbol
_atom_site_fract_x
_atom_site_fract_y
_atom_site_fract_z
O1	O	1.054714	0.163265	-0.072022
O2	O	1.554714	0.663265	0.427978
O3	O	0.826308	0.161438	-0.072048
O4	O	1.326308	0.661438	0.427952
O5	O	0.939153	0.048451	-0.072029
O6	O	1.439153	0.548451	0.427971
O7	O	0.941869	0.276252	-0.072042
O8	O	1.441869	0.776252	0.427958
O9	O	0.932698	0.054884	0.072232
O10	O	1.432698	0.554884	0.572232
O11	O	0.819853	0.167870	0.072213
O12	O	1.319853	0.667870	0.572213
O13	O	1.048259	0.169698	0.072239
O14	O	1.548259	0.669698	0.572239
Cu15	Cu	0.933466	0.169371	0.085398
Cu16	Cu	1.433466	0.669371	0.585398
Cu17	Cu	0.941100	0.161764	-0.085207
Cu18	Cu	1.441100	0.661764	0.414793
O19	O	0.935414	0.282684	0.072219
O20	O	1.435414	0.782684	0.572219
C21	C	0.793711	0.162304	0.000079
C22	C	1.293711	0.662304	0.500079
C23	C	0.706200	0.155293	0.000070
C24	C	1.206200	0.655293	0.500070
C25	C	0.660471	0.222933	0.000066
C26	C	1.160471	0.722933	0.500066
C27	C	0.578245	0.216342	0.000079
C28	C	1.078245	0.716342	0.500079
C29	C	0.541748	0.142110	0.000088
C30	C	1.041748	0.642110	0.500088
C31	C	0.587482	0.074465	0.000094
C32	C	1.087482	0.574465	0.500094
C33	C	0.669707	0.081058	0.000088
C34	C	1.169707	0.581058	0.500088
C35	C	0.296326	0.114789	0.000113
C36	C	0.796326	0.614789	0.500113
C37	C	0.214095	0.108202	0.000117
C38	C	0.714095	0.608202	0.500117
C39	C	0.204863	0.250079	0.000103
C40	C	0.704863	0.750079	0.500103
C41	C	0.287091	0.256665	0.000091
C42	C	0.787091	0.756665	0.500091
C43	C	0.332818	0.189020	0.000102
C44	C	0.832818	0.689020	0.500102
N45	N	0.457699	0.135371	0.000098
N46	N	0.957699	0.635371	0.500098
N47	N	0.416865	0.195760	0.000098
N48	N	0.916865	0.695760	0.500098
C49	C	0.933456	0.022384	0.000102
C50	C	1.433456	0.522384	0.500102
C51	C	0.926089	-0.064871	0.000101
C52	C	1.426089	0.435129	0.500101
C53	C	0.993729	-0.110741	0.000109
C54	C	1.493729	0.389259	0.500109
C55	C	0.986802	-0.192726	0.000100
C56	C	1.486802	0.307274	0.500100
C57	C	0.912235	-0.228840	0.000089
C58	C	1.412235	0.271160	0.500089
C59	C	0.844590	-0.182964	0.000078
C60	C	1.344590	0.317036	0.500078
C61	C	0.851518	-0.100981	0.000080
C62	C	1.351518	0.399019	0.500080
C63	C	0.887761	-0.476134	0.000074
C64	C	1.387761	0.023866	0.500074
C65	C	0.880838	-0.558124	0.000074
C66	C	1.380838	-0.058124	0.500074
C67	C	1.023051	-0.567881	0.000095
C68	C	1.523051	-0.067881	0.500095
C69	C	1.029972	-0.485895	0.000103
C70	C	1.529972	0.014105	0.500103
C71	C	0.962327	-0.440026	0.000087
C72	C	1.462327	0.059974	0.500087
C73	C	0.905153	-0.312642	0.000082
C74	C	1.405153	0.187358	0.500082
C75	C	0.969410	-0.356226	0.000087
C76	C	1.469410	0.143774	0.500087
C77	C	1.080856	0.168831	0.000109
C78	C	1.580856	0.668831	0.500109
C79	C	1.168367	0.175842	0.000113
C80	C	1.668367	0.675842	0.500113
C81	C	0.941110	0.308751	0.000087
C82	C	1.441110	0.808751	0.500087
C83	C	0.948478	0.396006	0.000082
C84	C	1.448478	0.896006	0.500082
N85	N	0.928103	0.174722	0.205393
N86	N	1.428103	0.674722	0.705393
N87	N	0.946469	0.156408	-0.205202
N88	N	1.446469	0.656408	0.294798
C89	C	0.976063	0.126741	0.250795
C90	C	1.476063	0.626741	0.750795
C91	C	0.972014	0.130795	0.341602
C92	C	1.472014	0.630795	0.841602
C93	C	0.920010	0.182835	0.387005
C94	C	1.420010	0.682835	0.887005
C95	C	0.872045	0.230817	0.341597
C96	C	1.372045	0.730817	0.841597
C97	C	0.876090	0.226759	0.250791
C98	C	1.376090	0.726759	0.750791
C99	C	0.902549	0.200332	0.658584
C100	C	1.402549	0.700332	1.158584
C101	C	0.898510	0.204388	0.749396
C102	C	1.398510	0.704388	1.249396
C103	C	0.998479	0.104365	0.749395
C104	C	1.498479	0.604365	1.249395
C105	C	1.002522	0.100314	0.658588
C106	C	1.502522	0.600314	1.158588
C107	C	0.954554	0.148294	0.613187
C108	C	1.454554	0.648294	1.113187
N109	N	0.915872	0.186981	0.479825
N110	N	1.415872	0.686981	0.979825
N111	N	0.958688	0.144143	0.520369
N112	N	1.458688	0.644143	1.020369
H113	H	0.167624	0.305152	0.000096
H114	H	0.667624	0.805152	0.500096
H115	H	1.037531	0.065301	0.786369
H116	H	1.537531	0.565301	1.286369
C117	C	0.824127	-0.351709	0.000030
C118	C	1.324127	0.148291	0.500030
C119	C	0.766367	-0.293995	0.000005
C120	C	1.266367	0.206005	0.500005
C121	C	0.691718	-0.329957	-0.000059
C122	C	1.191718	0.170043	0.499941
H123	H	0.816110	-0.381248	0.050319
H124	H	1.316110	0.118752	0.550319
H125	H	0.820684	-0.385706	-0.050301
H126	H	1.320684	0.114294	0.449699
H127	H	0.769807	-0.260012	0.050331
H128	H	1.269807	0.239988	0.550331
H129	H	0.774358	-0.264453	-0.050280
H130	H	1.274358	0.235547	0.449720
H131	H	0.688275	-0.363954	-0.050390
H132	H	1.188275	0.136046	0.449610
H133	H	0.683709	-0.359495	0.050231
H134	H	1.183709	0.140505	0.550231
H135	H	0.652520	-0.290805	-0.000083
H136	H	1.152520	0.209195	0.499917
H137	H	0.184383	0.047750	0.000123
H138	H	0.684383	0.547750	0.500123
H139	H	0.706939	0.025978	0.000090
H140	H	1.206939	0.525978	0.500090
H141	H	0.783876	-0.212375	0.000063
H142	H	1.283876	0.287625	0.500063
C143	C	0.346002	0.041384	0.000291
C144	C	0.846002	0.541384	0.500291
C145	C	0.390152	0.044319	0.074517
C146	C	0.890152	0.544319	0.574517
C147	C	0.435919	-0.023294	0.074713
C148	C	0.935919	0.476706	0.574713
H149	H	0.380580	0.038698	-0.049960
H150	H	0.880580	0.538698	0.450040
H151	H	0.312514	-0.003789	0.000339
H152	H	0.812514	0.496211	0.500339
H153	H	0.423636	0.089480	0.074461
H154	H	0.923636	0.589480	0.574461
H155	H	0.355594	0.046994	0.124780
H156	H	0.855594	0.546994	0.624780
H157	H	0.402432	-0.068467	0.074761
H158	H	0.902432	0.431533	0.574761
H159	H	0.470493	-0.025975	0.024459
H160	H	0.970493	0.474025	0.524459
H161	H	0.465875	-0.021316	0.125078
H162	H	0.965875	0.478684	0.625078
H163	H	0.690181	0.283381	0.000058
H164	H	1.190181	0.783381	0.500058
H165	H	0.856159	0.246768	0.786359
H166	H	1.356159	0.746768	1.286359
H167	H	0.796438	-0.063634	0.000073
H168	H	1.296438	0.436366	0.500073
H169	H	1.030124	-0.326819	0.000077
H170	H	1.530124	0.173181	0.500077
H171	H	0.557760	0.014025	0.000114
H172	H	1.057760	0.514025	0.500114
H173	H	1.018414	0.084369	0.213834
H174	H	1.518414	0.584369	0.713834
C175	C	1.074762	-0.071685	0.000074
C176	C	1.574762	0.428315	0.500074
C177	C	1.132515	-0.129409	0.000054
C178	C	1.632515	0.370591	0.500054
C179	C	1.207174	-0.093463	0.000005
C180	C	1.707174	0.406537	0.500005
H181	H	1.078285	-0.037670	0.050368
H182	H	1.578285	0.462330	0.550368
H183	H	1.082711	-0.042167	-0.050253
H184	H	1.582711	0.457833	0.449747
H185	H	1.124568	-0.158913	0.050375
H186	H	1.624568	0.341087	0.550375
H187	H	1.129017	-0.163426	-0.050236
H188	H	1.629017	0.336574	0.449764
H189	H	1.215123	-0.063946	-0.050322
H190	H	1.715123	0.436054	0.449678
H191	H	1.210689	-0.059450	0.050300
H192	H	1.710689	0.440550	0.550300
H193	H	1.246368	-0.132624	-0.000017
H194	H	1.746368	0.367376	0.499983
C195	C	1.096582	-0.617544	0.000144
C196	C	1.596582	-0.117544	0.500144
C197	C	1.163365	-0.568368	0.000173
C198	C	1.663365	-0.068368	0.500173
C199	C	1.231119	-0.614089	0.000226
C200	C	1.731119	-0.114089	0.500226
H201	H	1.099196	-0.651977	-0.050151
H202	H	1.599196	-0.151977	0.449849
H203	H	1.094631	-0.647475	0.050470
H204	H	1.594631	-0.147475	0.550470
H205	H	1.165316	-0.538450	-0.050147
H206	H	1.665316	-0.038450	0.449853
H207	H	1.160777	-0.533935	0.050464
H208	H	1.660777	-0.033935	0.550464
H209	H	1.229168	-0.644020	0.050551
H210	H	1.729168	-0.144020	0.550551
H211	H	1.233725	-0.648520	-0.050070
H212	H	1.733725	-0.148520	0.449930
H213	H	1.276439	-0.580730	0.000254
H214	H	1.776439	-0.080730	0.500254
H215	H	1.041882	-0.230070	0.000109
H216	H	1.541882	0.269930	0.500109
C217	C	1.110891	-0.446594	-0.000026
C218	C	1.610891	0.053406	0.499974
C219	C	1.122338	-0.403101	-0.074232
C220	C	1.622338	0.096899	0.425768
C221	C	1.196868	-0.366881	-0.074372
C222	C	1.696868	0.133119	0.425628
H223	H	1.150256	-0.485575	-0.000068
H224	H	1.650256	0.014425	0.499932
H225	H	1.114312	-0.412532	0.050256
H226	H	1.614312	0.087468	0.550256
H227	H	1.118924	-0.437161	-0.124502
H228	H	1.618924	0.062839	0.375498
H229	H	1.082991	-0.364107	-0.074206
H230	H	1.582991	0.135893	0.425794
H231	H	1.200289	-0.332818	-0.024089
H232	H	1.700289	0.167182	0.475911
H233	H	1.236227	-0.405867	-0.074411
H234	H	1.736227	0.094133	0.425589
H235	H	1.204642	-0.337361	-0.124715
H236	H	1.704642	0.162639	0.375285
H237	H	1.044869	0.057940	0.621622
H238	H	1.544869	0.557940	1.121622
C239	C	0.850440	0.252520	0.609456
C240	C	1.350440	0.752520	1.109456
C241	C	0.804050	0.298978	0.668657
C242	C	1.304050	0.798978	1.168657
C243	C	0.756044	0.347074	0.623428
C244	C	1.256044	0.847074	1.123428
H245	H	0.817287	0.220716	0.574041
H246	H	1.317287	0.720716	1.074041
H247	H	0.882501	0.285450	0.574040
H248	H	1.382501	0.785450	1.074040
H249	H	0.771992	0.266052	0.704058
H250	H	1.271992	0.766052	1.204058
H251	H	0.837182	0.330798	0.704074
H252	H	1.337182	0.830798	1.204074
H253	H	0.788104	0.380003	0.588012
H254	H	1.288104	0.880003	1.088012
H255	H	0.722896	0.315263	0.588015
H256	H	1.222896	0.815263	1.088015
H257	H	0.724568	0.378606	0.663589
H258	H	1.224568	0.878606	1.163589
H259	H	0.829697	0.273186	0.378569
H260	H	1.329697	0.773186	0.878569
H261	H	1.011066	0.091725	0.378568
H262	H	1.511066	0.591725	0.878568
H263	H	0.820113	-0.587524	0.000079
H264	H	1.320113	-0.087524	0.500079
C265	C	0.823985	0.278948	0.201650
C266	C	1.323985	0.778948	0.701650
C267	C	0.777590	0.325406	0.260845
C268	C	1.277590	0.825406	0.760845
C269	C	0.729586	0.373498	0.215610
C270	C	1.229586	0.873498	0.715610
H271	H	0.790835	0.247140	0.166234
H272	H	1.290835	0.747140	0.666234
H273	H	0.856047	0.311876	0.166235
H274	H	1.356047	0.811876	0.666235
H275	H	0.745531	0.292481	0.296246
H276	H	1.245531	0.792481	0.796246
H277	H	0.810719	0.357229	0.296263
H278	H	1.310719	0.857229	0.796263
H279	H	0.761648	0.406427	0.180194
H280	H	1.261648	0.906427	0.680194
H281	H	0.696441	0.341685	0.180196
H282	H	1.196441	0.841685	0.680196
H283	H	0.698107	0.405031	0.255767
H284	H	1.198107	0.905031	0.755767
H285	H	0.541016	0.271422	0.000075
H286	H	1.041016	0.771422	0.500075
H287	H	0.832680	-0.438798	0.000062
H288	H	1.332680	0.061202	0.500062
H289	H	0.316801	0.317112	0.000074
H290	H	0.816801	0.817112	0.500074
