data_functionalizedCrystal
_audit_creation_method	'MofGen! by Chris Wilmer'
_symmetry_space_group_name_H-M	'P1'
_symmetry_Int_Tables_number	1
_symmetry_cell_setting	triclinic
loop_
_symmetry_equiv_pos_as_xyz
  x,y,z
_cell_length_a	19.288864
_cell_length_b	13.330367
_cell_length_c	19.288865
_cell_angle_alpha	90.009880
_cell_angle_beta	83.136245
_cell_angle_gamma	90.021397
loop_
_atom_site_label
_atom_site_type_symbol
_atom_site_fract_x
_atom_site_fract_y
_atom_site_fract_z
O1	O	0.921351	0.083757	0.086647
O2	O	0.719091	0.083690	0.098336
O3	O	0.826065	0.083705	-0.008639
O4	O	0.814377	0.083741	0.193622
O5	O	0.826050	-0.083142	-0.008641
O6	O	0.719075	-0.083158	0.098334
O7	O	0.921336	-0.083091	0.086645
Cu8	Cu	0.820204	-0.098359	0.092489
Cu9	Cu	0.820223	0.098958	0.092492
O10	O	0.814361	-0.083106	0.193620
C11	C	0.693207	0.000257	0.097959
C12	C	0.616103	0.000231	0.096830
N13	N	0.820196	-0.237140	0.092487
C14	C	0.571407	0.000258	0.159598
C15	C	0.498960	0.000268	0.158537
C16	C	0.471212	0.000273	0.094705
C17	C	0.515918	0.000240	0.031929
C18	C	0.588364	0.000219	0.032991
C19	C	0.362956	0.058751	0.044526
C20	C	0.290511	0.058779	0.043467
C21	C	0.247767	0.000333	0.091425
C22	C	0.277474	-0.058127	0.140455
C23	C	0.349919	-0.058148	0.141518
C24	C	0.392658	0.000295	0.093546
C25	C	0.124514	0.000370	0.153047
C26	C	0.052066	0.000375	0.151984
C27	C	0.069026	0.000356	0.025374
C28	C	0.141473	0.000342	0.026439
C29	C	0.169212	0.000353	0.090278
C30	C	0.772852	-0.709770	0.139842
C31	C	0.867612	-0.709724	0.045136
C32	C	0.867604	-0.604706	0.045134
C33	C	0.820220	-0.552215	0.092487
C34	C	0.772844	-0.604742	0.139842
C35	C	0.914983	-0.552171	-0.002215
C36	C	0.914978	-0.447146	-0.002219
C37	C	0.867590	-0.394653	0.045132
C38	C	0.820212	-0.447186	0.092488
C39	C	0.772829	-0.394695	0.139841
C40	C	0.725446	-0.447227	0.187195
C41	C	0.725457	-0.552249	0.187193
C42	C	0.867580	-0.289631	0.045134
C43	C	0.772821	-0.289667	0.139842
C44	C	0.947220	0.000344	0.087022
C45	C	1.024324	0.000377	0.088151
C46	C	0.825682	0.000278	-0.034516
C47	C	0.824553	0.000269	-0.111620
N48	N	0.820236	0.237739	0.092489
C49	C	0.887321	0.000285	-0.156316
C50	C	0.886260	0.000301	-0.228763
C51	C	0.822428	0.000280	-0.256511
C52	C	0.759652	0.000270	-0.211805
C53	C	0.760714	0.000264	-0.139359
C54	C	0.772243	-0.058179	-0.364799
C55	C	0.771183	-0.058180	-0.437244
C56	C	0.819148	0.000302	-0.479956
C57	C	0.868185	0.058771	-0.450218
C58	C	0.869247	0.058766	-0.377772
C59	C	0.821269	0.000287	-0.335065
C60	C	0.880770	0.000336	-0.603209
C61	C	0.879707	0.000357	-0.675657
C62	C	0.753097	0.000317	-0.658697
C63	C	0.754162	0.000305	-0.586250
C64	C	0.818001	0.000310	-0.558511
C65	C	0.814745	0.000323	0.219497
C66	C	0.815874	0.000339	0.296601
H67	H	0.593987	0.000269	0.211580
Cl68	Cl	0.675249	0.000280	-0.530057
Cl69	Cl	0.713245	-0.223687	0.199371
Cl70	Cl	0.961023	0.000336	-0.568333
H71	H	0.930822	0.000376	-0.712049
H72	H	0.701123	0.000305	-0.681288
H73	H	0.686869	-0.404477	0.225753
H74	H	0.686880	-0.595027	0.225747
Cl75	Cl	0.711939	-0.131710	-0.311110
H76	H	0.734272	-0.752544	0.178395
Cl77	Cl	0.927182	-0.775710	-0.014386
Cl78	Cl	0.974554	-0.618157	-0.061738
Cl79	Cl	0.974540	-0.381113	-0.061749
H80	H	0.177866	0.000325	-0.024674
H81	H	0.906161	-0.246865	0.006582
Cl82	Cl	0.967575	0.000320	-0.121448
H83	H	0.937375	0.000318	-0.265162
Cl84	Cl	0.930886	0.132273	-0.340387
Cl85	Cl	0.928488	0.132298	-0.503906
Cl86	Cl	0.416685	0.132233	-0.015771
Cl87	Cl	0.679405	0.000252	-0.246686
Cl88	Cl	0.034151	0.000350	-0.054873
Cl89	Cl	0.159390	0.000375	0.233300
Cl90	Cl	0.681799	0.000244	-0.083166
Cl91	Cl	0.709540	-0.131687	-0.474623
H92	H	0.374104	-0.105752	0.181438
Cl93	Cl	0.442760	0.000300	0.237451
Cl94	Cl	0.481037	0.000239	-0.048318
Cl95	Cl	0.223746	-0.131607	0.200751
H96	H	0.266329	0.106384	0.003546
Cl97	Cl	-0.004125	0.000403	0.230900
H98	H	0.624756	0.000198	-0.018124
