data_functionalizedCrystal
_audit_creation_method	'MofGen! by Chris Wilmer'
_symmetry_space_group_name_H-M	'P1'
_symmetry_Int_Tables_number	1
_symmetry_cell_setting	triclinic
loop_
_symmetry_equiv_pos_as_xyz
  x,y,z
_cell_length_a	11.792241
_cell_length_b	9.198806
_cell_length_c	10.723024
_cell_angle_alpha	89.996352
_cell_angle_beta	84.330643
_cell_angle_gamma	89.996670
loop_
_atom_site_label
_atom_site_type_symbol
_atom_site_fract_x
_atom_site_fract_y
_atom_site_fract_z
O1	O	0.159192	-0.120884	1.656767
O2	O	0.174430	-0.120889	1.293574
O3	O	0.001660	-0.120876	1.483984
O4	O	0.331962	-0.120897	1.466357
O5	O	0.001659	0.120909	1.483969
O6	O	0.174430	0.120896	1.293559
O7	O	0.159192	0.120901	1.656751
Cu8	Cu	0.166811	0.142976	1.475154
Cu9	Cu	0.166811	-0.142963	1.475172
O10	O	0.331962	0.120889	1.466341
C11	C	-0.040634	0.000016	1.482869
C12	C	-0.166655	0.000015	1.479555
C13	C	0.173321	0.000003	1.247070
C14	C	0.170003	0.000002	1.108524
N15	N	0.166810	0.344090	1.475150
C16	C	-0.397380	-0.000010	1.473461
C17	C	-0.268988	0.000004	1.476847
C18	C	0.374255	-0.000007	1.467456
C19	C	0.500276	-0.000015	1.470770
N20	N	0.166803	-0.344077	1.475185
C21	C	0.093948	0.416292	1.555099
C22	C	0.093944	0.583704	1.555118
C23	C	0.266676	-0.000005	1.033286
C24	C	0.263249	-0.000007	0.890091
C25	C	0.160301	0.000006	1.703256
C26	C	0.163619	-0.000002	1.841801
H27	H	0.031567	0.354171	1.623528
C28	C	0.051805	0.000010	0.929132
N29	N	-0.032414	0.000023	0.994919
H30	H	0.031569	0.645795	1.623570
H31	H	0.229190	0.593841	1.406739
H32	H	0.351978	-0.000002	1.074882
H33	H	0.229182	0.406213	1.406713
C34	C	0.375059	-0.000014	0.802753
N35	N	0.459277	-0.000016	0.736966
H36	H	0.084701	-0.000030	1.066928
