data_functionalizedCrystal
_audit_creation_method	'MofGen! by Chris Wilmer'
_symmetry_space_group_name_H-M	'P1'
_symmetry_Int_Tables_number	1
_symmetry_cell_setting	triclinic
loop_
_symmetry_equiv_pos_as_xyz
  x,y,z
_cell_length_a	6.817900
_cell_length_b	11.102237
_cell_length_c	16.306216
_cell_angle_alpha	93.858567
_cell_angle_beta	103.467292
_cell_angle_gamma	108.604801
loop_
_atom_site_label
_atom_site_type_symbol
_atom_site_fract_x
_atom_site_fract_y
_atom_site_fract_z
V1	V	-4.052672	-0.176834	-0.263028
O2	O	-4.012829	0.007475	-0.258019
O3	O	-4.029848	-0.349647	-0.261230
O4	O	-4.003785	-0.174562	-0.377742
O5	O	-4.039073	-0.168822	-0.140700
V6	V	-4.533049	-0.154735	-0.248396
O7	O	-4.320832	-0.225308	-0.295123
O8	O	-4.715087	-0.106260	-0.216301
O9	O	-4.332667	0.018079	-0.250193
O10	O	-4.690290	-0.339043	-0.253405
O11	O	-4.664046	-0.162746	-0.370723
O12	O	-4.358730	-0.157006	-0.133681
C13	C	-3.881087	-0.391762	-0.257081
C14	C	-3.943709	-0.533042	-0.256377
C15	C	-4.016020	-0.617853	-0.333300
C16	C	-4.074853	-0.750601	-0.332637
C17	C	-3.989063	-0.713713	-0.178120
C18	C	-3.930218	-0.580967	-0.178784
C19	C	-4.029512	-0.569928	-0.410893
C20	C	-4.101828	-0.654741	-0.487823
C21	C	-4.160661	-0.787488	-0.487160
C22	C	-4.147177	-0.835423	-0.409567
C23	C	-3.847839	-0.168422	-0.405703
C24	C	-3.889321	-0.167708	-0.499483
C25	C	-4.039898	-0.165148	-0.840235
C26	C	-4.245569	-0.173579	-0.809787
C27	C	-4.202336	-0.173833	-0.712195
C28	C	-3.965197	-0.166419	-0.671184
C29	C	-3.810787	-0.040365	-0.691389
C30	C	-3.855298	-0.039581	-0.788987
C31	C	-3.970697	-0.282322	-0.814119
C32	C	-3.932500	-0.284810	-0.716802
C33	C	-3.922965	-0.167132	-0.575643
C34	C	-4.082120	-0.164425	-0.935775
C35	C	-4.144771	0.060186	-0.254340
C36	C	-4.061387	0.201465	-0.255050
C37	C	-4.178019	-0.163151	-0.105716
C38	C	-4.115774	-0.163858	-0.011936
H39	H	-4.112785	-0.615702	-0.550996
C40	C	-4.360968	-0.294681	-0.695204
C41	C	-4.496681	-0.368135	-0.772918
C42	C	-4.642877	-0.479459	-0.757305
H43	H	-4.284819	-0.343663	-0.665200
H44	H	-4.444263	-0.271384	-0.661909
H45	H	-4.413396	-0.391435	-0.806200
H46	H	-4.572879	-0.319192	-0.802934
H47	H	-4.726173	-0.456162	-0.724010
H48	H	-4.566710	-0.528430	-0.727299
H49	H	-4.734989	-0.529305	-0.810030
C50	C	-4.085240	-0.409129	-0.701064
C51	C	-4.220250	-0.481378	-0.779238
C52	C	-4.360973	-0.595902	-0.764762
H53	H	-4.004917	-0.457222	-0.672573
H54	H	-4.169475	-0.389709	-0.666715
H55	H	-4.136024	-0.500800	-0.813573
H56	H	-4.300620	-0.433324	-0.807741
H57	H	-4.445208	-0.576482	-0.730413
H58	H	-4.280631	-0.643983	-0.736269
H59	H	-4.452606	-0.644931	-0.817799
C60	C	-3.973989	-0.765668	-0.093847
C61	C	-3.761011	-0.716165	-0.043431
C62	C	-3.747046	-0.764010	0.034202
H63	H	-4.063671	-0.740508	-0.064801
H64	H	-4.019275	-0.856873	-0.104433
H65	H	-3.715751	-0.624980	-0.032844
H66	H	-3.671288	-0.741321	-0.072451
H67	H	-3.792332	-0.855215	0.023617
H68	H	-3.836738	-0.738847	0.063241
H69	H	-3.602539	-0.730439	0.068416
C70	C	-3.648997	-0.024150	-0.814558
C71	C	-3.490565	0.091802	-0.771034
C72	C	-3.300503	0.106085	-0.794573
H73	H	-3.601879	-0.093756	-0.800294
H74	H	-3.674655	-0.023486	-0.874317
H75	H	-3.464906	0.091127	-0.711288
H76	H	-3.537613	0.161430	-0.785291
H77	H	-3.326161	0.106748	-0.854333
H78	H	-3.253406	0.036472	-0.780309
H79	H	-3.192991	0.184763	-0.765052
H80	H	-3.635573	-0.030355	-0.663900
H81	H	-3.763903	-0.286756	-0.689392
C82	C	-4.246976	-0.061474	-0.671677
C83	C	-4.409351	-0.107983	-0.630845
C84	C	-4.450556	-0.004513	-0.593524
H85	H	-4.119979	-0.006392	-0.631101
H86	H	-4.291821	-0.014829	-0.714643
H87	H	-4.364497	-0.154607	-0.587884
H88	H	-4.536379	-0.163053	-0.671404
H89	H	-4.495401	0.042132	-0.636489
H90	H	-4.323549	0.050563	-0.552951
H91	H	-4.560744	-0.036055	-0.565822
H92	H	-3.871324	-0.511911	-0.116146
H93	H	-4.219521	-0.856539	-0.549800
H94	H	-3.818062	-0.277147	-0.833279
H95	H	-4.195061	-0.943515	-0.409033
H96	H	-3.898433	0.049054	-0.804147
H97	H	-4.299873	-0.089414	-0.827337
H98	H	-3.831471	0.047572	-0.659351
C99	C	-3.965630	-0.425842	-0.411790
C100	C	-3.992870	-0.402017	-0.496202
C101	C	-3.934021	-0.269300	-0.497059
H102	H	-4.053520	-0.393006	-0.386152
H103	H	-3.819314	-0.384811	-0.380757
H104	H	-4.139162	-0.443031	-0.527222
H105	H	-3.904982	-0.434821	-0.521856
H106	H	-3.787705	-0.228270	-0.466026
H107	H	-4.021917	-0.236477	-0.471418
H108	H	-3.952476	-0.253117	-0.554331
H109	H	-4.098010	-0.377044	-0.849963
H110	H	-4.385955	-0.263884	-0.844349
