data_functionalizedCrystal
_audit_creation_method	'MofGen! by Chris Wilmer'
_symmetry_space_group_name_H-M	'P1'
_symmetry_Int_Tables_number	1
_symmetry_cell_setting	triclinic
loop_
_symmetry_equiv_pos_as_xyz
  x,y,z
_cell_length_a	14.044220
_cell_length_b	17.699083
_cell_length_c	13.101039
_cell_angle_alpha	93.361896
_cell_angle_beta	93.659868
_cell_angle_gamma	91.764054
loop_
_atom_site_label
_atom_site_type_symbol
_atom_site_fract_x
_atom_site_fract_y
_atom_site_fract_z
O1	O	-1.262501	0.178623	-0.085078
O2	O	-0.929168	0.511956	0.248255
O3	O	-0.595835	0.845290	0.581589
O4	O	-0.986549	0.172038	-0.085105
O5	O	-0.653216	0.505372	0.248228
O6	O	-0.319882	0.838705	0.581562
O7	O	-1.132322	0.065679	-0.085101
O8	O	-0.798989	0.399012	0.248232
O9	O	-0.465655	0.732346	0.581566
O10	O	-1.116728	0.284982	-0.085082
O11	O	-0.783395	0.618316	0.248251
O12	O	-0.450062	0.951649	0.581584
O13	O	-1.121863	0.073324	0.085329
O14	O	-0.788530	0.406657	0.418662
O15	O	-0.455196	0.739990	0.751995
O16	O	-0.976090	0.179683	0.085324
O17	O	-0.642757	0.513017	0.418658
O18	O	-0.309423	0.846350	0.751991
O19	O	-1.252042	0.186268	0.085351
O20	O	-0.918709	0.519601	0.418685
O21	O	-0.585376	0.852935	0.752018
Zn22	Zn	-1.112405	0.184189	0.112397
Zn23	Zn	-0.779072	0.517523	0.445731
Zn24	Zn	-0.445739	0.850856	0.779064
Zn25	Zn	-1.126186	0.174117	-0.112151
Zn26	Zn	-0.792852	0.507450	0.221182
Zn27	Zn	-0.459519	0.840784	0.554516
O28	O	-1.106269	0.292627	0.085347
O29	O	-0.772936	0.625961	0.418681
O30	O	-0.439602	0.959294	0.752014
C31	C	-0.946012	0.172979	0.000106
C32	C	-0.612679	0.506312	0.333439
C33	C	-0.279345	0.839646	0.666773
C34	C	-0.840807	0.164382	0.000095
C35	C	-0.507473	0.497716	0.333428
C36	C	-0.174140	0.831049	0.666762
C37	C	-1.292580	0.185327	0.000138
C38	C	-0.959246	0.518661	0.333471
C39	C	-0.625913	0.851994	0.666805
C40	C	-1.397785	0.193923	0.000142
C41	C	-1.064452	0.527257	0.333476
C42	C	-0.731119	0.860590	0.666809
C43	C	-1.126534	0.041266	0.000109
C44	C	-0.793201	0.374599	0.333442
C45	C	-0.459867	0.707932	0.666776
C46	C	-1.124859	-0.042869	0.000095
C47	C	-0.791526	0.290465	0.333428
C48	C	-0.458192	0.623798	0.666761
C49	C	-0.648180	0.148668	0.000114
C50	C	-0.314847	0.482001	0.333447
C51	C	0.018486	0.815335	0.666781
C52	C	-0.590406	0.209634	0.000123
C53	C	-0.257073	0.542968	0.333457
C54	C	0.076261	0.876301	0.666790
C55	C	-0.483222	0.200891	0.000134
C56	C	-0.149889	0.534224	0.333467
C57	C	0.183445	0.867557	0.666801
C58	C	-0.755374	0.157411	0.000103
C59	C	-0.422041	0.490744	0.333437
C60	C	-0.088708	0.824077	0.666770
C61	C	-1.112057	0.317041	0.000135
C62	C	-0.778724	0.650374	0.333468
C63	C	-0.445391	0.983707	0.666802
C64	C	-1.113733	0.401175	0.000143
C65	C	-0.780400	0.734508	0.333476
C66	C	-0.447066	1.067841	0.666809
N67	N	-1.103008	0.191064	0.265646
N68	N	-0.769674	0.524397	0.598979
N69	N	-0.436341	0.857730	0.932312
C70	C	-1.028168	0.443893	0.000134
C71	C	-0.694834	0.777226	0.333468
C72	C	-0.361501	1.110559	0.666801
C73	C	-1.029749	0.522945	0.000122
C74	C	-0.696416	0.856278	0.333456
C75	C	-0.363082	1.189611	0.666789
C76	C	-1.116896	0.559277	0.000126
C77	C	-0.783563	0.892610	0.333460
C78	C	-0.450229	1.225944	0.666793
C79	C	-1.202468	0.516553	0.000132
C80	C	-0.869135	0.849886	0.333465
C81	C	-0.535802	1.183220	0.666798
C82	C	-1.200886	0.437502	0.000136
C83	C	-0.867553	0.770836	0.333469
C84	C	-0.534220	1.104169	0.666803
C85	C	-1.208850	0.835355	0.000112
C86	C	-0.875516	1.168689	0.333445
C87	C	-0.542183	1.502022	0.666779
C88	C	-1.210425	0.914412	0.000110
C89	C	-0.877091	1.247745	0.333444
C90	C	-0.543758	1.581079	0.666777
C91	C	-1.037712	0.920797	0.000098
C92	C	-0.704379	1.254131	0.333432
C93	C	-0.371045	1.587464	0.666765
C94	C	-1.036130	0.841747	0.000103
C95	C	-0.702797	1.175080	0.333436
C96	C	-0.369464	1.508413	0.666769
C97	C	-1.121702	0.799030	0.000103
C98	C	-0.788369	1.132363	0.333436
C99	C	-0.455036	1.465696	0.666769
C100	C	-1.119987	0.713313	0.000114
C101	C	-0.786653	1.046646	0.333447
C102	C	-0.453320	1.379979	0.666780
C103	C	-1.118612	0.644993	0.000123
C104	C	-0.785279	0.978326	0.333456
C105	C	-0.451946	1.311660	0.666789
N106	N	-1.135591	0.167237	-0.265399
N107	N	-0.802258	0.500570	0.067934
N108	N	-0.468924	0.833904	0.401267
C109	C	-1.090222	0.200423	0.474688
C110	C	-0.756888	0.533757	0.808021
C111	C	-0.423555	0.867090	1.141354
C112	C	-1.148374	0.157880	0.525565
C113	C	-0.815041	0.491213	0.858898
C114	C	-0.481707	0.824546	1.192232
C115	C	-1.141260	0.163088	0.641883
C116	C	-0.807926	0.496421	0.975217
C117	C	-0.474593	0.829754	1.308550
C118	C	-1.097335	0.195216	0.358359
C119	C	-0.764001	0.528550	0.691692
C120	C	-0.430668	0.861883	1.025026
H121	H	-0.621442	0.268396	0.000123
H122	H	-0.288108	0.601729	0.333457
H123	H	0.045225	0.935063	0.666790
Cl124	Cl	-0.600266	0.057949	0.000108
Cl125	Cl	-0.266933	0.391283	0.333441
Cl126	Cl	0.066400	0.724616	0.666775
H127	H	-1.203503	0.117547	0.481764
H128	H	-0.870170	0.450880	0.815098
H129	H	-0.536837	0.784213	1.148431
H130	H	-0.957201	0.414317	0.000143
H131	H	-0.623868	0.747651	0.333477
H132	H	-0.290535	1.080984	0.666810
Cl133	Cl	-1.005114	0.262695	0.542307
Cl134	Cl	-0.671781	0.596029	0.875640
Cl135	Cl	-0.338447	0.929362	1.208973
H136	H	-0.960073	0.557722	0.000112
H137	H	-0.626740	0.891056	0.333446
H138	H	-0.293406	1.224389	0.666779
H139	H	-0.965166	0.812169	0.000105
H140	H	-0.631832	1.145503	0.333438
H141	H	-0.298499	1.478836	0.666772
Cl142	Cl	-0.930134	0.974504	0.000092
Cl143	Cl	-0.596801	1.307837	0.333425
Cl144	Cl	-0.263468	1.641170	0.666758
Cl145	Cl	-1.319990	0.960086	0.000112
Cl146	Cl	-0.986657	1.293419	0.333445
Cl147	Cl	-0.653324	1.626753	0.666778
H148	H	-1.273425	0.546141	0.000137
H149	H	-0.940092	0.879475	0.333470
H150	H	-0.606758	1.212808	0.666803
Cl151	Cl	-1.316426	0.781664	0.000123
Cl152	Cl	-0.983093	1.114998	0.333456
Cl153	Cl	-0.649759	1.448331	0.666789
Cl154	Cl	-1.308459	0.383799	0.000140
Cl155	Cl	-0.975126	0.717132	0.333474
Cl156	Cl	-0.641793	1.050466	0.666807
