data_functionalizedCrystal
_audit_creation_method	'MofGen! by Chris Wilmer'
_symmetry_space_group_name_H-M	'P1'
_symmetry_Int_Tables_number	1
_symmetry_cell_setting	triclinic
loop_
_symmetry_equiv_pos_as_xyz
  x,y,z
_cell_length_a	16.974848
_cell_length_b	9.730223
_cell_length_c	16.974959
_cell_angle_alpha	86.350875
_cell_angle_beta	96.363465
_cell_angle_gamma	86.343837
loop_
_atom_site_label
_atom_site_type_symbol
_atom_site_fract_x
_atom_site_fract_y
_atom_site_fract_z
O1	O	-1.049031	0.219787	0.100823
O2	O	-0.549031	0.719787	0.600823
O3	O	-0.818813	0.192755	0.113647
O4	O	-0.318813	0.692755	0.613647
O5	O	-0.940332	0.219760	-0.007872
O6	O	-0.440332	0.719760	0.492128
O7	O	-0.927513	0.192781	0.222342
O8	O	-0.427513	0.692781	0.722342
O9	O	-0.940330	-0.008820	-0.007869
O10	O	-0.440330	0.491180	0.492131
O11	O	-0.818812	-0.035825	0.113650
O12	O	-0.318812	0.464175	0.613650
O13	O	-1.049030	-0.008794	0.100826
O14	O	-0.549030	0.491206	0.600826
Zn15	Zn	-0.933921	-0.058602	0.107239
Zn16	Zn	-0.433921	0.441398	0.607239
Zn17	Zn	-0.933922	0.242563	0.107234
Zn18	Zn	-0.433922	0.742563	0.607234
O19	O	-0.927511	-0.035799	0.222345
O20	O	-0.427511	0.464201	0.722345
C21	C	-0.789355	0.075243	0.113159
C22	C	-0.289355	0.575243	0.613159
C23	C	-0.701581	0.065643	0.111691
C24	C	-0.201581	0.565643	0.611691
N25	N	-0.933925	-0.264138	0.107241
N26	N	-0.433925	0.235862	0.607241
C27	C	-0.207500	-0.001775	0.103450
C28	C	0.292500	0.498225	0.603450
C29	C	-0.289973	0.007249	0.104830
C30	C	0.210027	0.507249	0.604830
C31	C	-0.331212	0.136362	0.105512
C32	C	0.168788	0.636362	0.605512
C33	C	-0.289971	0.256460	0.104823
C34	C	0.210029	0.756460	0.604823
C35	C	-0.207499	0.247434	0.103449
C36	C	0.292501	0.747434	0.603449
C37	C	-0.577868	0.176715	0.109627
C38	C	-0.077868	0.676715	0.609627
C39	C	-0.660346	0.185731	0.110999
C40	C	-0.160346	0.685731	0.610999
C41	C	-0.660343	-0.063481	0.111007
C42	C	-0.160343	0.436519	0.611007
C43	C	-0.577869	-0.072494	0.109628
C44	C	-0.077869	0.427506	0.609628
C45	C	-0.536635	0.047602	0.108943
C46	C	-0.036635	0.547602	0.608943
N47	N	-0.415513	0.145589	0.106920
N48	N	0.084487	0.645589	0.606920
N49	N	-0.452335	0.038374	0.107541
N50	N	0.047665	0.538374	0.607541
C51	C	-0.987747	-0.324106	0.053450
C52	C	-0.487747	0.175894	0.553450
C53	C	-0.987745	-0.467989	0.053440
C54	C	-0.487745	0.032011	0.553440
C55	C	-0.880097	-0.491922	0.161019
C56	C	-0.380097	0.008078	0.661019
C57	C	-0.880095	-0.348042	0.161024
C58	C	-0.380095	0.151958	0.661024
C59	C	-1.041577	-0.240202	-0.000334
C60	C	-0.541577	0.259798	0.499666
C61	C	-1.095404	-0.300170	-0.054128
C62	C	-0.595404	0.199830	0.445872
C63	C	-1.095402	-0.444052	-0.054138
C64	C	-0.595402	0.055948	0.445862
C65	C	-1.041573	-0.527966	-0.000353
C66	C	-0.541573	-0.027966	0.499647
C67	C	-0.078489	0.108717	0.101308
C68	C	0.421511	0.608717	0.601308
C69	C	-0.166265	0.118314	0.102759
C70	C	0.333735	0.618314	0.602759
C71	C	-0.939841	0.108688	-0.037328
C72	C	-0.439841	0.608688	0.462672
C73	C	-0.938370	0.118276	-0.125100
C74	C	-0.438370	0.618276	0.374900
N75	N	-0.933924	0.448100	0.107226
N76	N	-0.433924	0.948100	0.607226
C77	C	-0.930162	0.185777	-0.619177
C78	C	-0.430162	0.685777	-0.119177
C79	C	-0.931536	0.176740	-0.536704
C80	C	-0.431536	0.676740	-0.036704
C81	C	-0.932216	0.047621	-0.495482
C82	C	-0.432216	0.547621	0.004518
C83	C	-0.931530	-0.072467	-0.536737
C84	C	-0.431530	0.427533	-0.036737
C85	C	-0.930162	-0.063428	-0.619210
C86	C	-0.430162	0.436572	-0.119210
C87	C	-0.936315	0.007227	-0.248828
C88	C	-0.436315	0.507227	0.251172
C89	C	-0.937681	-0.001804	-0.166350
C90	C	-0.437681	0.498196	0.333650
C91	C	-0.937689	0.247405	-0.166323
C92	C	-0.437689	0.747405	0.333677
C93	C	-0.936315	0.256432	-0.248796
C94	C	-0.436315	0.756432	0.251204
C95	C	-0.935633	0.136344	-0.290045
C96	C	-0.435633	0.636344	0.209955
N97	N	-0.933619	0.038380	-0.411181
N98	N	-0.433619	0.538380	0.088819
N99	N	-0.934237	0.145587	-0.374345
N100	N	-0.434237	0.645587	0.125655
C101	C	-0.928002	0.075276	0.251801
C102	C	-0.428002	0.575276	0.751801
C103	C	-0.929473	0.065698	0.339573
C104	C	-0.429473	0.565698	0.839573
H105	H	-0.323543	-0.090540	0.105392
H106	H	0.176457	0.409460	0.605392
H107	H	-1.041570	-0.645124	-0.000370
H108	H	-0.541570	-0.145124	0.499630
H109	H	-0.932089	-0.177598	-0.503168
H110	H	-0.432089	0.322402	-0.003168
H111	H	-0.935760	-0.090558	-0.282404
H112	H	-0.435760	0.409442	0.217596
H113	H	-0.836268	-0.299216	0.204825
H114	H	-0.336268	0.200784	0.704825
O115	O	-0.822049	-0.582419	0.219036
O116	O	-0.322049	-0.082419	0.719036
H117	H	-0.831099	-0.692542	0.210002
H118	H	-0.331099	-0.192542	0.710002
H119	H	-0.938211	-0.106957	-0.132786
H120	H	-0.438211	0.393043	0.367214
O121	O	-0.163021	-0.141034	0.102719
O122	O	0.336979	0.358966	0.602719
H123	H	-0.205552	-0.223023	0.103441
H124	H	0.294448	0.276977	0.603441
O125	O	-0.533388	-0.211753	0.108901
O126	O	-0.033388	0.288247	0.608901
H127	H	-0.575916	-0.293746	0.109622
H128	H	-0.075916	0.206254	0.609622
O129	O	-0.935582	0.395701	-0.293251
O130	O	-0.435582	0.895701	0.206749
H131	H	-0.934507	0.381811	-0.357529
H132	H	-0.434507	0.881811	0.142471
O133	O	-0.163031	0.376970	0.102696
O134	O	0.336969	0.876970	0.602696
H135	H	-0.118364	0.372071	0.155937
H136	H	0.381636	0.872071	0.655937
H137	H	-1.041585	-0.123045	-0.000329
H138	H	-0.541585	0.376955	0.499671
H139	H	-0.929601	0.290919	-0.652733
H140	H	-0.429601	0.790919	-0.152733
O141	O	-0.932264	0.306251	-0.492208
O142	O	-0.432264	0.806251	0.007792
H143	H	-0.931546	0.397551	-0.534726
H144	H	-0.431546	0.897551	-0.034726
H145	H	-0.693924	-0.161257	0.111567
H146	H	-0.193924	0.338743	0.611567
H147	H	-0.929600	-0.161210	-0.652794
H148	H	-0.429600	0.338790	-0.152794
O149	O	-0.704837	0.324989	0.111734
O150	O	-0.204837	0.824989	0.611734
H151	H	-0.681927	0.376243	0.165338
H152	H	-0.181927	0.876243	0.665338
O153	O	-0.533404	0.306247	0.108838
O154	O	-0.033404	0.806247	0.608838
H155	H	-0.575942	0.397542	0.109519
H156	H	-0.075942	0.897542	0.609519
H157	H	-0.938245	0.345173	-0.132729
H158	H	-0.438245	0.845173	0.367271
O159	O	-1.153449	-0.508741	-0.112158
O160	O	-0.653449	-0.008741	0.387842
H161	H	-1.191831	-0.573733	-0.078888
H162	H	-0.691831	-0.073733	0.421112
O163	O	-0.334446	0.395725	0.105545
O164	O	0.165554	0.895725	0.605545
H165	H	-0.398724	0.381831	0.106603
H166	H	0.101276	0.881831	0.606603
O167	O	-1.153442	-0.209676	-0.112156
O168	O	-0.653442	0.290324	0.387844
H169	H	-1.144401	-0.099551	-0.103116
H170	H	-0.644401	0.400449	0.396884
