data_functionalizedCrystal
_audit_creation_method	'MofGen! by Chris Wilmer'
_symmetry_space_group_name_H-M	'P1'
_symmetry_Int_Tables_number	1
_symmetry_cell_setting	triclinic
loop_
_symmetry_equiv_pos_as_xyz
  x,y,z
_cell_length_a	12.837943
_cell_length_b	12.811415
_cell_length_c	9.130313
_cell_angle_alpha	84.564622
_cell_angle_beta	89.997654
_cell_angle_gamma	89.411917
loop_
_atom_site_label
_atom_site_type_symbol
_atom_site_fract_x
_atom_site_fract_y
_atom_site_fract_z
O1	O	1.376630	0.272977	-0.158026
O2	O	1.074767	0.259493	-0.156244
O3	O	1.233292	0.114202	-0.136935
O4	O	1.218104	0.418268	-0.177335
O5	O	1.233282	0.114196	0.106665
O6	O	1.074756	0.259487	0.087356
O7	O	1.376619	0.272972	0.085574
Cu8	Cu	1.225687	0.266229	0.108707
Cu9	Cu	1.225699	0.266236	-0.179377
O10	O	1.218093	0.418262	0.066264
C11	C	1.036121	0.254935	-0.033840
C12	C	0.920985	0.241348	-0.032039
C13	C	0.680732	0.404679	-0.053719
C14	C	0.572551	0.391918	-0.052026
C15	C	0.596440	0.203068	-0.026950
C16	C	0.704621	0.215828	-0.028643
C17	C	0.746763	0.316637	-0.042030
C18	C	0.854946	0.329397	-0.043733
C19	C	0.878833	0.140547	-0.018646
C20	C	0.770652	0.127787	-0.016953
C21	C	1.232436	0.075010	-0.009931
C22	C	1.229887	-0.041763	0.005575
C23	C	1.225090	-0.261177	-0.230891
C24	C	1.222695	-0.370896	-0.216328
C25	C	1.222695	-0.370922	0.049260
C26	C	1.225090	-0.261203	0.034698
C27	C	1.226289	-0.206334	-0.105382
C28	C	1.228691	-0.096614	-0.119943
C29	C	1.228683	-0.096642	0.145644
C30	C	1.226288	-0.206360	0.160206
C31	C	1.415265	0.277530	-0.036833
C32	C	1.530401	0.291116	-0.038644
C33	C	1.218950	0.457455	-0.060742
C34	C	1.221499	0.574228	-0.076258
N35	N	1.225685	0.266224	0.311331
N36	N	1.225709	0.266233	-0.382000
C37	C	1.295904	0.201922	0.396528
C38	C	1.295914	0.201923	0.549865
C39	C	1.155483	0.330538	0.532792
C40	C	1.155468	0.330531	0.379459
H41	H	0.889255	0.411480	-0.054631
H42	H	0.518791	0.463611	-0.061541
C43	C	0.441207	0.099665	-0.013195
C44	C	0.550105	0.092266	-0.012221
H45	H	0.412604	0.031259	-0.004108
H46	H	0.418584	0.136366	0.066872
H47	H	0.418581	0.136375	-0.103026
H48	H	0.572732	0.055563	0.077615
H49	H	0.572738	0.055549	-0.092296
C50	C	1.136511	-0.237281	0.390689
C51	C	1.224972	-0.266682	0.314174
H52	H	1.135700	-0.274526	0.485740
H53	H	1.138118	-0.164097	0.399982
H54	H	1.075719	-0.253298	0.338246
H55	H	1.285764	-0.250657	0.366612
H56	H	1.223374	-0.339882	0.304888
H57	H	1.098283	0.382893	0.310085
C58	C	1.130953	-0.491373	-0.354392
C59	C	1.221376	-0.431185	-0.354286
H60	H	1.130135	-0.528589	-0.439569
H61	H	1.129907	-0.539748	-0.268894
H62	H	1.071492	-0.446596	-0.354811
H63	H	1.280837	-0.475963	-0.353856
H64	H	1.222431	-0.382805	-0.439807
H65	H	0.715043	0.486761	-0.064622
H66	H	1.221710	-0.415614	0.163306
C67	C	1.232354	0.071536	0.241260
C68	C	1.229997	-0.036356	0.283616
H69	H	1.233161	0.108751	0.326437
H70	H	1.293147	0.087551	0.184580
H71	H	1.172339	0.091477	0.184055
H72	H	1.290016	-0.056298	0.340812
H73	H	1.169198	-0.052379	0.340320
H74	H	0.932608	0.068857	-0.009138
C75	C	1.434730	0.074805	0.551328
C76	C	1.373106	0.131244	0.643514
H77	H	1.482390	0.031173	0.609145
H78	H	1.391401	0.032687	0.497135
H79	H	1.472207	0.122281	0.485198
H80	H	1.335623	0.083767	0.709636
H81	H	1.416440	0.173365	0.697731
C82	C	1.316855	-0.140680	-0.400947
C83	C	1.226428	-0.200865	-0.384864
H84	H	1.317685	-0.103455	-0.496010
H85	H	1.317894	-0.092314	-0.328297
H86	H	1.376312	-0.185461	-0.389464
H87	H	1.166970	-0.156084	-0.396336
H88	H	1.225379	-0.249237	-0.457535
H89	H	0.736326	0.045711	-0.006037
C90	C	1.142314	0.029666	-0.290758
C91	C	1.229987	-0.036305	-0.273919
H92	H	1.143111	0.066896	-0.385819
H93	H	1.080993	-0.011183	-0.279789
H94	H	1.143391	0.078037	-0.218098
H95	H	1.228906	-0.084681	-0.346573
H96	H	1.291323	0.004547	-0.284903
H97	H	1.353077	0.149558	0.341063
H98	H	1.098315	0.382896	0.588277
