data_functionalizedCrystal
_audit_creation_method	'MofGen! by Chris Wilmer'
_symmetry_space_group_name_H-M	'P1'
_symmetry_Int_Tables_number	1
_symmetry_cell_setting	triclinic
loop_
_symmetry_equiv_pos_as_xyz
  x,y,z
_cell_length_a	10.540510
_cell_length_b	9.616153
_cell_length_c	19.288865
_cell_angle_alpha	89.992505
_cell_angle_beta	96.175221
_cell_angle_gamma	90.007129
loop_
_atom_site_label
_atom_site_type_symbol
_atom_site_fract_x
_atom_site_fract_y
_atom_site_fract_z
O1	O	1.683735	0.115672	-0.097781
O2	O	1.314111	0.115675	-0.107025
O3	O	1.509603	0.115646	-0.001344
O4	O	1.488243	0.115701	-0.203463
O5	O	1.509577	-0.115646	-0.001346
O6	O	1.314084	-0.115617	-0.107027
O7	O	1.683708	-0.115619	-0.097783
Zn8	Zn	1.498892	-0.152340	-0.102406
Zn9	Zn	1.498927	0.152396	-0.102403
O10	O	1.488216	-0.115590	-0.203465
C11	C	1.266809	0.000029	-0.106337
C12	C	1.125905	0.000029	-0.104276
N13	N	1.498877	-0.360315	-0.102407
C14	C	0.906814	0.000580	-0.177693
C15	C	1.053360	0.000051	-0.179892
C16	C	1.081993	-0.132057	-0.065570
C17	C	0.935269	-0.132160	-0.063907
C18	C	0.935528	0.130861	-0.062330
C19	C	1.081790	0.132599	-0.065917
C20	C	1.393991	-0.580669	-0.158750
C21	C	1.394214	-0.419502	-0.158961
C22	C	1.631235	-0.418760	-0.118887
C23	C	1.630662	-0.579978	-0.119286
C24	C	1.472732	-0.580246	-0.029400
C25	C	1.469675	-0.419019	-0.029874
C26	C	1.731010	0.000030	-0.098471
C27	C	1.871914	0.000039	-0.100532
C28	C	1.508903	-0.000004	0.024536
C29	C	1.506839	-0.000016	0.101654
N30	N	1.498952	0.360371	-0.102396
C31	C	1.488917	0.000063	-0.229345
C32	C	1.490980	0.000084	-0.306462
C33	C	1.621545	-0.000024	0.145591
C34	C	1.619607	-0.000002	0.218051
C35	C	1.502956	-0.000000	0.246570
C36	C	1.388235	0.000015	0.202623
C37	C	1.390177	0.000007	0.130165
C38	C	1.411246	-0.081016	0.355463
C39	C	1.409309	-0.081016	0.427921
C40	C	1.496963	0.000031	0.470055
C41	C	1.586575	0.081061	0.439725
C42	C	1.588517	0.081053	0.367267
C43	C	1.500838	0.000010	0.325138
C44	C	1.609575	0.000049	0.592563
C45	C	1.607632	0.000080	0.665024
C46	C	1.376256	0.000083	0.649594
C47	C	1.378203	0.000066	0.577135
C48	C	1.494866	0.000043	0.548624
H49	H	0.864215	0.095308	-0.207151
N50	N	1.088093	-0.118933	-0.218106
N51	N	1.162903	-0.207513	-0.189269
H52	H	1.187414	-0.291554	-0.216263
N53	N	1.089315	0.118788	-0.217923
N54	N	1.144095	0.102930	-0.271721
H55	H	1.169469	0.186781	-0.298595
H56	H	1.130623	-0.136985	-0.009904
H57	H	1.284797	0.000065	0.541359
N58	N	0.851401	-0.117565	-0.214432
N59	N	0.786319	-0.202161	-0.184034
H60	H	0.747182	-0.285605	-0.209978
H61	H	1.541182	-0.378737	0.014077
N62	N	1.317811	-0.163845	0.458890
N63	N	1.239568	-0.236218	0.421266
H64	H	1.174957	-0.294737	0.443137
H65	H	1.293257	0.000020	0.225848
N66	N	1.660991	-0.368062	-0.184939
N67	N	1.584938	-0.288905	-0.219985
H68	H	1.605946	-0.253099	-0.266636
N69	N	1.680054	0.163824	0.336296
N70	N	1.758317	0.236181	0.373917
H71	H	1.822966	0.294643	0.352045
H72	H	1.549280	-0.618374	0.012545
H73	H	1.132089	0.140560	-0.010712
N74	N	1.728723	0.000030	0.563420
N75	N	1.755604	-0.097474	0.524719
H76	H	1.839752	-0.097489	0.504136
H77	H	1.701043	0.000081	0.700798
H78	H	1.410458	-0.621153	-0.212600
H79	H	0.894452	-0.230881	-0.090361
N80	N	1.273013	-0.000009	0.085269
N81	N	1.274765	-0.000029	0.020576
H82	H	1.192017	-0.000044	-0.011134
H83	H	1.281277	0.000091	0.672813
H84	H	1.378343	-0.620988	-0.013714
N85	N	1.119918	-0.255344	-0.099306
N86	N	1.080349	-0.277616	-0.161748
H87	H	1.107131	-0.364684	-0.185579
H88	H	1.109792	0.230316	-0.094079
H89	H	1.711183	-0.618977	-0.079893
N90	N	1.321680	-0.163801	0.312436
N91	N	1.241683	-0.236143	0.339523
H92	H	1.178425	-0.294605	0.309136
H93	H	1.713017	-0.000002	0.253832
H94	H	1.657951	0.147058	0.474030
H95	H	1.653830	-0.617551	-0.172541
N96	N	0.908013	-0.139710	0.007041
N97	N	0.997318	-0.144896	0.055171
H98	H	0.978074	-0.150238	0.105278
N99	N	0.881620	0.256447	-0.092312
N100	N	0.795647	0.251053	-0.142205
H101	H	0.757569	0.339742	-0.163387
N102	N	1.347547	-0.371093	-0.014190
N103	N	1.338707	-0.299798	0.039258
H104	H	1.252453	-0.265944	0.050335
N105	N	0.909355	0.131924	0.008894
N106	N	0.844156	0.036855	0.031502
H107	H	0.825675	0.037586	0.081804
N108	N	1.740700	-0.000050	0.116459
N109	N	1.767582	-0.097551	0.077756
H110	H	1.851735	-0.097569	0.057179
N111	N	1.270565	-0.370200	-0.146763
N112	N	1.224965	-0.401463	-0.091624
H113	H	1.137550	-0.366755	-0.083103
N114	N	1.270173	-0.629401	-0.146504
N115	N	1.247177	-0.756940	-0.146966
H116	H	1.159730	-0.791371	-0.138315
N117	N	1.415084	-0.371095	-0.226913
N118	N	1.429542	-0.456379	-0.274327
H119	H	1.444262	-0.422194	-0.322324
N120	N	1.731518	-0.370661	-0.068796
N121	N	1.706497	-0.292582	-0.020279
H122	H	1.777320	-0.258609	0.015099
