data_functionalizedCrystal
_audit_creation_method	'MofGen! by Chris Wilmer'
_symmetry_space_group_name_H-M	'P1'
_symmetry_Int_Tables_number	1
_symmetry_cell_setting	triclinic
loop_
_symmetry_equiv_pos_as_xyz
  x,y,z
_cell_length_a	16.109301
_cell_length_b	12.376457
_cell_length_c	16.109304
_cell_angle_alpha	78.724106
_cell_angle_beta	83.462059
_cell_angle_gamma	101.287118
loop_
_atom_site_label
_atom_site_type_symbol
_atom_site_fract_x
_atom_site_fract_y
_atom_site_fract_z
O1	O	1.119068	0.093926	0.090940
O2	O	0.877009	0.093943	0.104237
O3	O	1.004687	0.093935	-0.023442
O4	O	0.991390	0.093935	0.218619
O5	O	0.972779	-0.094075	0.008434
O6	O	0.845101	-0.094067	0.136113
O7	O	1.087160	-0.094084	0.122816
Zn8	Zn	0.961064	-0.123926	0.134526
Zn9	Zn	1.003105	0.123786	0.092527
O10	O	0.959482	-0.094075	0.250496
C11	C	0.830081	-0.000059	0.119636
C12	C	0.737786	-0.000053	0.118019
N13	N	0.932379	-0.292982	0.163188
C14	C	0.515513	-0.000066	0.190029
C15	C	0.428791	-0.000073	0.188506
C16	C	0.448665	-0.000068	0.037017
C17	C	0.535383	-0.000069	0.038542
C18	C	0.568806	-0.000062	0.115050
C19	C	0.395365	-0.000068	0.112002
C20	C	0.301338	-0.000076	0.110350
C21	C	0.662839	-0.000056	0.116702
C22	C	1.098385	-0.647978	-0.002692
C23	C	1.118457	-0.529640	-0.022753
C24	C	1.071939	-0.470469	0.023730
C25	C	1.005346	-0.529649	0.090278
C26	C	0.985276	-0.648000	0.110346
C27	C	0.958830	-0.470491	0.136768
C28	C	0.892237	-0.529671	0.203316
C29	C	0.872170	-0.648009	0.223380
C30	C	0.918688	-0.707179	0.176896
C31	C	0.978900	-0.352141	0.116701
C32	C	0.865791	-0.352162	0.229739
C33	C	0.845719	-0.470501	0.249800
C34	C	1.134089	-0.000078	0.107417
C35	C	1.226384	-0.000078	0.109032
C36	C	0.988195	-0.000067	-0.038480
C37	C	0.986580	-0.000060	-0.130776
N38	N	1.031797	0.292842	0.063859
C39	C	1.000239	0.102421	-0.360489
C40	C	0.998712	0.102420	-0.447209
C41	C	0.963929	-0.102559	-0.412452
C42	C	0.965449	-0.102557	-0.325733
C43	C	0.983609	-0.000064	-0.299755
C44	C	0.980562	-0.000067	-0.473194
C45	C	0.978907	-0.000069	-0.567219
C46	C	0.985262	-0.000061	-0.205723
C47	C	0.975975	-0.000070	0.265532
C48	C	0.977591	-0.000071	0.357828
H49	H	0.385402	-0.000078	0.249563
H50	H	1.015023	0.185877	-0.339340
H51	H	0.542720	-0.000069	0.252328
O52	O	0.416068	-0.000015	-0.037236
C53	C	0.291271	-0.000074	-0.106715
C54	C	0.328076	-0.000111	-0.022567
H55	H	0.220121	-0.000175	-0.094880
H56	H	0.326516	0.078628	-0.157120
H57	H	0.299923	-0.078736	-0.130431
H58	H	0.319432	0.078498	0.001225
H59	H	0.292826	-0.078865	0.027783
H60	H	1.012252	0.185873	-0.496656
H61	H	0.902343	-0.803541	0.193227
H62	H	0.951901	-0.186017	-0.276279
O63	O	0.946352	-0.202015	-0.437842
C64	C	0.928559	-0.292864	-0.556029
C65	C	0.948490	-0.180148	-0.527397
H66	H	0.930262	-0.275224	-0.628433
H67	H	0.978444	-0.343414	-0.538092
H68	H	0.862148	-0.343408	-0.522739
H69	H	1.014877	-0.129512	-0.560671
H70	H	0.898551	-0.129683	-0.545318
H71	H	0.578776	-0.000069	-0.022519
H72	H	1.033121	-0.303967	0.062518
H73	H	1.172677	-0.481460	-0.076935
O74	O	0.807438	-0.705323	0.288031
C75	C	0.697406	-0.692852	0.398069
C76	C	0.770678	-0.627806	0.324859
H77	H	0.667677	-0.630208	0.427877
H78	H	0.646437	-0.748238	0.371595
H79	H	0.723905	-0.748277	0.448975
H80	H	0.744258	-0.572319	0.273927
H81	H	0.821635	-0.572492	0.351398
O82	O	1.091586	-0.355516	0.004235
C83	C	1.199305	-0.185671	-0.007583
C84	C	1.177173	-0.315859	0.014508
H85	H	1.268496	-0.153568	0.000731
H86	H	1.191191	-0.153489	-0.076823
H87	H	1.154580	-0.153573	0.037050
H88	H	1.221880	-0.348053	-0.030068
H89	H	1.185262	-0.347964	0.083766
O90	O	1.143546	-0.705336	-0.047976
C91	C	1.186107	-0.741623	-0.186375
C92	C	1.134943	-0.676571	-0.135193
H93	H	1.179155	-0.718409	-0.256897
H94	H	1.256662	-0.718331	-0.179545
H95	H	1.160330	-0.836363	-0.160554
H96	H	1.160647	-0.581816	-0.160980
H97	H	1.064394	-0.699957	-0.142023
O98	O	0.780929	-0.527945	0.314353
C99	C	0.630217	-0.564143	0.369184
C100	C	0.703508	-0.499036	0.296012
H101	H	0.567608	-0.540777	0.354390
H102	H	0.623793	-0.658901	0.375538
H103	H	0.645010	-0.540893	0.431834
H104	H	0.688769	-0.522193	0.233322
H105	H	0.709914	-0.404295	0.289734
H106	H	0.827914	-0.303987	0.267591
