data_functionalizedCrystal
_audit_creation_method	'MofGen! by Chris Wilmer'
_symmetry_space_group_name_H-M	'P1'
_symmetry_Int_Tables_number	1
_symmetry_cell_setting	triclinic
loop_
_symmetry_equiv_pos_as_xyz
  x,y,z
_cell_length_a	18.215407
_cell_length_b	12.594516
_cell_length_c	18.215407
_cell_angle_alpha	90.006371
_cell_angle_beta	90.010236
_cell_angle_gamma	90.016501
loop_
_atom_site_label
_atom_site_type_symbol
_atom_site_fract_x
_atom_site_fract_y
_atom_site_fract_z
Zn1	Zn	1.125047	-0.423906	0.416146
Zn2	Zn	1.375047	-0.173906	0.666146
Zn3	Zn	1.625047	0.076094	0.916146
Zn4	Zn	1.875047	0.326094	1.166146
Zn5	Zn	1.124995	-0.601854	0.293092
Zn6	Zn	1.374995	-0.351854	0.543092
Zn7	Zn	1.624995	-0.101854	0.793092
Zn8	Zn	1.874995	0.148146	1.043092
Zn9	Zn	1.002001	-0.423892	0.293093
Zn10	Zn	1.252001	-0.173892	0.543093
Zn11	Zn	1.502001	0.076108	0.793093
Zn12	Zn	1.752001	0.326108	1.043093
Zn13	Zn	1.001965	-0.601844	0.416117
Zn14	Zn	1.251965	-0.351844	0.666117
Zn15	Zn	1.501965	-0.101844	0.916117
Zn16	Zn	1.751965	0.148156	1.166117
O17	O	1.063502	-0.512874	0.354612
O18	O	1.313502	-0.262874	0.604612
O19	O	1.563502	-0.012874	0.854612
O20	O	1.813502	0.237126	1.104612
O21	O	1.228025	-0.447521	0.399834
O22	O	1.478025	-0.197521	0.649834
O23	O	1.728025	0.052479	0.899834
O24	O	1.978025	0.302479	1.149834
O25	O	1.108673	-0.578246	0.190108
O26	O	1.358673	-0.328246	0.440108
O27	O	1.608673	-0.078246	0.690108
O28	O	1.858673	0.171754	0.940108
O29	O	1.018360	-0.274948	0.309429
O30	O	1.268360	-0.024948	0.559429
O31	O	1.518360	0.225052	0.809429
O32	O	1.768360	0.475052	1.059429
O33	O	1.227987	-0.578259	0.309427
O34	O	1.477987	-0.328259	0.559427
O35	O	1.727987	-0.078259	0.809427
O36	O	1.977987	0.171741	1.059427
O37	O	1.108762	-0.274958	0.399835
O38	O	1.358762	-0.024958	0.649835
O39	O	1.608762	0.225042	0.899835
O40	O	1.858762	0.475042	1.149835
O41	O	1.018309	-0.447497	0.190109
O42	O	1.268309	-0.197497	0.440109
O43	O	1.518309	0.052503	0.690109
O44	O	1.768309	0.302503	0.940109
O45	O	0.899012	-0.447487	0.309401
O46	O	1.149012	-0.197487	0.559401
O47	O	1.399012	0.052513	0.809401
O48	O	1.649012	0.302513	1.059401
O49	O	1.018299	-0.578242	0.519105
O50	O	1.268299	-0.328242	0.769105
O51	O	1.518299	-0.078242	1.019105
O52	O	1.768299	0.171758	1.269105
O53	O	0.898985	-0.578228	0.399786
O54	O	1.148985	-0.328228	0.649786
O55	O	1.398985	-0.078228	0.899786
O56	O	1.648985	0.171772	1.149786
O57	O	1.108727	-0.447511	0.519126
O58	O	1.358727	-0.197511	0.769126
O59	O	1.608727	0.052489	1.019126
O60	O	1.858727	0.302489	1.269126
O61	O	1.108638	-0.750799	0.309399
O62	O	1.358638	-0.500799	0.559399
O63	O	1.608638	-0.250799	0.809399
O64	O	1.858638	-0.000799	1.059399
O65	O	1.018248	-0.750791	0.399785
O66	O	1.268248	-0.500791	0.649785
O67	O	1.518248	-0.250791	0.899785
O68	O	1.768248	-0.000791	1.149785
C69	C	0.872296	-0.512856	0.354591
C70	C	1.122296	-0.262856	0.604591
C71	C	1.372296	-0.012856	0.854591
C72	C	1.622296	0.237144	1.104591
C73	C	0.790497	-0.512873	0.354599
C74	C	1.040497	-0.262873	0.604599
C75	C	1.290497	-0.012873	0.854599
C76	C	1.540497	0.237127	1.104599
C77	C	0.602309	-0.581057	0.401603
C78	C	0.852309	-0.331057	0.651603
C79	C	1.102309	-0.081057	0.901603
C80	C	1.352309	0.168943	1.151603
C81	C	0.525450	-0.581061	0.401613
C82	C	0.775450	-0.331061	0.651613
C83	C	1.025450	-0.081061	0.901613
C84	C	1.275450	0.168939	1.151613
C85	C	0.525448	-0.444710	0.307636
C86	C	0.775448	-0.194710	0.557636
C87	C	1.025448	0.055290	0.807636
C88	C	1.275448	0.305290	1.057636
C89	C	0.602305	-0.444702	0.307631
C90	C	0.852305	-0.194702	0.557631
C91	C	1.102305	0.055298	0.807631
C92	C	1.352305	0.305298	1.057631
C93	C	0.640733	-0.512882	0.354614
C94	C	0.890733	-0.262882	0.604614
C95	C	1.140733	-0.012882	0.854614
C96	C	1.390733	0.237118	1.104614
C97	C	0.487017	-0.512893	0.354628
C98	C	0.737017	-0.262893	0.604628
C99	C	0.987017	-0.012893	0.854628
C100	C	1.237017	0.237107	1.104628
C101	C	0.403684	-0.512896	0.354637
C102	C	0.653684	-0.262896	0.604637
C103	C	0.903684	-0.012896	0.854637
C104	C	1.153684	0.237104	1.104637
C105	C	0.724072	-0.512877	0.354605
C106	C	0.974072	-0.262877	0.604605
C107	C	1.224072	-0.012877	0.854605
C108	C	1.474072	0.237123	1.104605
C109	C	1.063454	-0.789415	0.354605
C110	C	1.313454	-0.539415	0.604605
C111	C	1.563454	-0.289415	0.854605
C112	C	1.813454	-0.039415	1.104605
C113	C	1.063501	-0.907720	0.354626
C114	C	1.313501	-0.657720	0.604626
C115	C	1.563501	-0.407720	0.854626
C116	C	1.813501	-0.157720	1.104626
C117	C	1.014333	-0.977008	0.403752
C118	C	1.264333	-0.727008	0.653752
C119	C	1.514333	-0.477008	0.903752
C120	C	1.764333	-0.227008	1.153752
C121	C	0.996415	-1.047840	0.336599
C122	C	1.246415	-0.797840	0.586599
C123	C	1.496415	-0.547840	0.836599
C124	C	1.746415	-0.297840	1.086599
C125	C	1.081486	-1.047687	0.421790
C126	C	1.331486	-0.797687	0.671790
C127	C	1.581486	-0.547687	0.921790
C128	C	1.831486	-0.297687	1.171790
C129	C	1.045547	-0.976994	0.287438
C130	C	1.295547	-0.726994	0.537438
C131	C	1.545547	-0.476994	0.787438
C132	C	1.795547	-0.226994	1.037438
C133	C	1.130649	-0.976835	0.372674
C134	C	1.380649	-0.726835	0.622674
C135	C	1.630649	-0.476835	0.872674
C136	C	1.880649	-0.226835	1.122674
C137	C	1.112757	-1.047635	0.305475
C138	C	1.362757	-0.797635	0.555475
C139	C	1.612757	-0.547635	0.805475
C140	C	1.862757	-0.297635	1.055475
C141	C	1.255455	-0.512893	0.354633
C142	C	1.505455	-0.262893	0.604633
C143	C	1.755455	-0.012893	0.854633
C144	C	2.005455	0.237107	1.104633
C145	C	1.337254	-0.512901	0.354643
C146	C	1.587254	-0.262901	0.604643
C147	C	1.837254	-0.012901	0.854643
C148	C	2.087254	0.237099	1.104643
C149	C	1.063515	-0.512877	0.546565
C150	C	1.313515	-0.262877	0.796565
C151	C	1.563515	-0.012877	1.046565
C152	C	1.813515	0.237123	1.296565
C153	C	1.063520	-0.512878	0.628364
C154	C	1.313520	-0.262878	0.878364
C155	C	1.563520	-0.012878	1.128364
C156	C	1.813520	0.237122	1.378364
C157	C	1.063571	-0.235253	0.354635
C158	C	1.313571	0.014747	0.604635
C159	C	1.563571	0.264747	0.854635
C160	C	1.813571	0.514747	1.104635
C161	C	1.063600	-0.116948	0.354645
C162	C	1.313600	0.133052	0.604645
C163	C	1.563600	0.383052	0.854645
C164	C	1.813600	0.633052	1.104645
C165	C	1.110591	-0.444818	0.816570
C166	C	1.360591	-0.194818	1.066570
C167	C	1.610591	0.055182	1.316570
C168	C	1.860591	0.305182	1.566570
C169	C	1.110587	-0.444817	0.893428
C170	C	1.360587	-0.194817	1.143428
C171	C	1.610587	0.055183	1.393428
C172	C	1.860587	0.305183	1.643428
C173	C	1.016425	-0.580954	0.893395
C174	C	1.266425	-0.330954	1.143395
C175	C	1.516425	-0.080954	1.393395
C176	C	1.766425	0.169046	1.643395
C177	C	1.016426	-0.580948	0.816538
C178	C	1.266426	-0.330948	1.066538
C179	C	1.516426	-0.080948	1.316538
C180	C	1.766426	0.169052	1.566538
C181	C	1.063513	-0.512882	0.778127
C182	C	1.313513	-0.262882	1.028127
C183	C	1.563513	-0.012882	1.278127
C184	C	1.813513	0.237118	1.528127
C185	C	1.063508	-0.512887	0.931843
C186	C	1.313508	-0.262887	1.181843
C187	C	1.563508	-0.012887	1.431843
C188	C	1.813508	0.237113	1.681843
C189	C	1.063503	-0.512887	1.015177
C190	C	1.313503	-0.262887	1.265177
C191	C	1.563503	-0.012887	1.515177
C192	C	1.813503	0.237113	1.765177
C193	C	1.063517	-0.512880	0.694788
C194	C	1.313517	-0.262880	0.944788
C195	C	1.563517	-0.012880	1.194788
C196	C	1.813517	0.237120	1.444788
C197	C	1.063490	-0.512894	1.163405
C198	C	1.313490	-0.262894	1.413405
C199	C	1.563490	-0.012894	1.663405
C200	C	1.813490	0.237106	1.913405
C201	C	1.063501	-0.512890	1.081607
C202	C	1.313501	-0.262890	1.331607
C203	C	1.563501	-0.012890	1.581607
C204	C	1.813501	0.237110	1.831607
H205	H	0.494150	-0.389202	0.269383
H206	H	0.744150	-0.139202	0.519383
H207	H	0.994150	0.110798	0.769383
H208	H	1.244150	0.360798	1.019383
H209	H	1.096657	-1.078739	0.478583
H210	H	1.346657	-0.828739	0.728583
H211	H	1.596657	-0.578739	0.978583
H212	H	1.846657	-0.328739	1.228583
H213	H	0.978084	-0.636373	0.785237
H214	H	1.228084	-0.386373	1.035237
H215	H	1.478084	-0.136373	1.285237
H216	H	1.728084	0.113627	1.535237
H217	H	0.633595	-0.636571	0.439862
H218	H	0.883595	-0.386571	0.689862
H219	H	1.133595	-0.136571	0.939862
H220	H	1.383595	0.113429	1.189862
H221	H	0.978089	-0.636373	0.924678
H222	H	1.228089	-0.386373	1.174678
H223	H	1.478089	-0.136373	1.424678
H224	H	1.728089	0.113627	1.674678
F225	F	0.643202	-0.372131	0.257619
F226	F	0.893202	-0.122131	0.507619
F227	F	1.143202	0.127869	0.757619
F228	F	1.393202	0.377869	1.007619
H229	H	1.030310	-0.946070	0.230630
H230	H	1.280310	-0.696070	0.480630
H231	H	1.530310	-0.446070	0.730630
H232	H	1.780310	-0.196070	0.980630
F233	F	0.959890	-0.936469	0.457976
F234	F	1.209890	-0.686469	0.707976
F235	F	1.459890	-0.436469	0.957976
F236	F	1.709890	-0.186469	1.207976
H237	H	1.148931	-0.389391	0.785298
H238	H	1.398931	-0.139391	1.035298
H239	H	1.648931	0.110609	1.285298
H240	H	1.898931	0.360609	1.535298
H241	H	0.494168	-0.636574	0.439877
H242	H	0.744168	-0.386574	0.689877
H243	H	0.994168	-0.136574	0.939877
H244	H	1.244168	0.113426	1.189877
F245	F	0.922247	-1.088603	0.316650
F246	F	1.172247	-0.838603	0.566650
F247	F	1.422247	-0.588603	0.816650
F248	F	1.672247	-0.338603	1.066650
H249	H	1.187377	-0.945626	0.387956
H250	H	1.437377	-0.695626	0.637956
H251	H	1.687377	-0.445626	0.887956
H252	H	1.937377	-0.195626	1.137956
H253	H	1.148922	-0.389391	0.924725
H254	H	1.398922	-0.139391	1.174725
H255	H	1.648922	0.110609	1.424725
H256	H	1.898922	0.360609	1.674725
F257	F	1.167162	-1.087915	0.251123
F258	F	1.417162	-0.837915	0.501123
F259	F	1.667162	-0.587915	0.751123
F260	F	1.917162	-0.337915	1.001123
