data_functionalizedCrystal
_audit_creation_method	'MofGen! by Chris Wilmer'
_symmetry_space_group_name_H-M	'P1'
_symmetry_Int_Tables_number	1
_symmetry_cell_setting	triclinic
loop_
_symmetry_equiv_pos_as_xyz
  x,y,z
_cell_length_a	12.645331
_cell_length_b	12.645330
_cell_length_c	12.645323
_cell_angle_alpha	90.027006
_cell_angle_beta	90.015738
_cell_angle_gamma	90.011881
loop_
_atom_site_label
_atom_site_type_symbol
_atom_site_fract_x
_atom_site_fract_y
_atom_site_fract_z
Zn1	Zn	1.620768	-0.422053	0.599234
Zn2	Zn	1.620666	-0.599341	0.421968
Zn3	Zn	1.443483	-0.422089	0.422000
Zn4	Zn	1.443480	-0.599272	0.599205
O5	O	1.532099	-0.510689	0.510602
O6	O	1.769102	-0.445584	0.575718
O7	O	1.597120	-0.575872	0.273625
O8	O	1.467044	-0.273737	0.445537
O9	O	1.769026	-0.575836	0.445481
O10	O	1.597295	-0.273710	0.575750
O11	O	1.466945	-0.445646	0.273648
O12	O	1.295135	-0.445580	0.445508
O13	O	1.467040	-0.575720	0.747556
O14	O	1.295133	-0.575755	0.575699
O15	O	1.597293	-0.445517	0.747578
O16	O	1.597118	-0.747679	0.445453
O17	O	1.466940	-0.747629	0.575668
C18	C	1.532046	-0.786118	0.510577
C19	C	1.532120	-0.903948	0.510601
C20	C	1.256670	-0.510665	0.510604
C21	C	1.138840	-0.510680	0.510631
C22	C	1.613884	-1.071500	0.428517
C23	C	1.614150	-0.948940	0.428718
C24	C	1.562421	-0.948331	0.622343
C25	C	1.563069	-1.070929	0.621907
C26	C	1.420025	-1.071274	0.482046
C27	C	1.420562	-0.948670	0.479540
C28	C	0.971310	-0.593022	0.592107
C29	C	1.093870	-0.592757	0.592448
C30	C	1.094352	-0.399025	0.541156
C31	C	0.971754	-0.399528	0.541730
C32	C	0.971596	-0.539093	0.398370
C33	C	1.094203	-0.541535	0.398976
C34	C	1.808604	-0.510714	0.510600
C35	C	1.926435	-0.510724	0.510599
C36	C	1.532177	-0.510607	0.787107
C37	C	1.532211	-0.510572	0.904937
C38	C	1.532181	-0.234183	0.510650
C39	C	1.532217	-0.116353	0.510671
C40	C	1.532083	-0.510694	0.235172
C41	C	1.532255	-0.510430	0.117342
C42	C	1.450016	-0.592096	1.072488
C43	C	1.450231	-0.592500	0.949928
C44	C	1.643913	-0.540892	0.949442
C45	C	1.643462	-0.541403	1.072041
C46	C	1.503759	-0.398272	1.072143
C47	C	1.501267	-0.398944	0.949537
H48	H	1.595163	-1.101052	0.345419
H49	H	1.124814	-0.485941	0.334988
H50	H	1.423724	-0.370634	1.103058
N51	N	1.132899	-0.368273	0.642957
N52	N	1.230140	-0.359502	0.658437
H53	H	1.257365	-0.337787	0.730336
N54	N	1.345785	-0.568531	1.109449
N55	N	1.273825	-0.548194	1.044796
H56	H	1.200209	-0.531549	1.070905
N57	N	1.398170	-0.370210	0.913013
N58	N	1.358645	-0.283636	0.939736
H59	H	1.285839	-0.263336	0.913924
H60	H	1.504749	-0.919184	0.685193
N61	N	1.664127	-0.909704	0.653286
N62	N	1.679528	-0.812448	0.662039
H63	H	1.751360	-0.785167	0.683890
N64	N	1.385470	-1.110179	0.381608
N65	N	1.443118	-1.171611	0.329901
H66	H	1.418725	-1.199089	0.258963
N67	N	0.932788	-0.639479	0.363563
N68	N	0.871365	-0.691337	0.421057
H69	H	0.843953	-0.762238	0.396485
N70	N	0.935209	-0.463907	0.322160
N71	N	1.000303	-0.409484	0.271474
H72	H	0.974604	-0.356382	0.217654
N73	N	0.932713	-0.569766	0.695829
N74	N	0.996212	-0.549152	0.768757
H75	H	0.968953	-0.532725	0.842012
N76	N	1.131609	-0.696622	0.568438
N77	N	1.107899	-0.739208	0.482413
H78	H	1.134546	-0.812569	0.465458
H79	H	1.668479	-0.622023	0.918748
H80	H	1.123293	-0.623697	0.375953
H81	H	1.367400	-0.573526	0.919837
N82	N	1.665943	-1.106726	0.652300
N83	N	1.685025	-1.203572	0.657468
H84	H	1.757683	-1.228851	0.678930
H85	H	1.359176	-1.100281	0.541882
H86	H	0.941826	-0.676095	0.573187
N87	N	1.391913	-0.912296	0.376377
N88	N	1.453369	-0.853650	0.325859
H89	H	1.433140	-0.827956	0.252998
H90	H	1.556789	-0.334882	0.918911
N91	N	1.130669	-0.569178	0.696768
N92	N	1.106175	-0.483550	0.739674
H93	H	1.132160	-0.466892	0.813356
N94	N	0.935913	-0.369337	0.644655
N95	N	1.001443	-0.348046	0.715564
H96	H	0.976137	-0.326724	0.788259
H97	H	1.468644	-0.674725	1.103301
N98	N	1.722836	-0.468627	0.912885
N99	N	1.697576	-0.393795	0.853478
H100	H	1.753313	-0.342755	0.827657
N101	N	1.578881	-0.321932	1.108550
N102	N	1.548767	-0.244684	1.162392
H103	H	1.601823	-0.190776	1.188110
N104	N	1.130768	-0.320108	0.468842
N105	N	1.065670	-0.267788	0.415985
H106	H	1.091350	-0.212096	0.364843
H107	H	1.356432	-0.918055	0.534990
H108	H	1.595192	-0.918936	0.345863
H109	H	1.469043	-0.675648	0.920608
N110	N	0.934517	-0.319978	0.470524
N111	N	0.958746	-0.225266	0.485225
H112	H	0.932452	-0.169078	0.434943
N113	N	1.717563	-1.110058	0.452006
N114	N	1.731569	-1.170427	0.528989
H115	H	1.804792	-1.197662	0.545582
H116	H	1.667614	-0.623393	1.100646
N117	N	1.722926	-0.470021	1.109280
N118	N	1.718566	-0.374263	1.085195
H119	H	1.774688	-0.323852	1.111494
N120	N	1.718398	-0.912049	0.452448
N121	N	1.793986	-0.936347	0.393581
H122	H	1.867618	-0.910298	0.410340
N123	N	1.491682	-1.108137	0.701309
N124	N	1.441546	-1.043557	0.756874
H125	H	1.391131	-1.069830	0.812955
