data_functionalizedCrystal
_audit_creation_method	'MofGen! by Chris Wilmer'
_symmetry_space_group_name_H-M	'P1'
_symmetry_Int_Tables_number	1
_symmetry_cell_setting	triclinic
loop_
_symmetry_equiv_pos_as_xyz
  x,y,z
_cell_length_a	25.639242
_cell_length_b	19.805406
_cell_length_c	19.805399
_cell_angle_alpha	90.014352
_cell_angle_beta	90.027395
_cell_angle_gamma	89.995496
loop_
_atom_site_label
_atom_site_type_symbol
_atom_site_fract_x
_atom_site_fract_y
_atom_site_fract_z
Zn1	Zn	0.799393	-0.269560	0.382923
Zn2	Zn	1.132726	0.063774	0.716256
Zn3	Zn	1.466059	0.397107	1.049590
Zn4	Zn	0.799367	-0.382748	0.269761
Zn5	Zn	1.132701	-0.049415	0.603094
Zn6	Zn	1.466034	0.283919	0.936428
Zn7	Zn	0.711961	-0.269569	0.269732
Zn8	Zn	1.045294	0.063764	0.603066
Zn9	Zn	1.378628	0.397097	0.936399
Zn10	Zn	0.711973	-0.382703	0.382892
Zn11	Zn	1.045307	-0.049370	0.716226
Zn12	Zn	1.378640	0.283964	1.049559
O13	O	0.755674	-0.326145	0.326327
O14	O	1.089007	0.007188	0.659661
O15	O	1.422340	0.340522	0.992994
O16	O	0.872555	-0.284589	0.367937
O17	O	1.205888	0.048745	0.701270
O18	O	1.539221	0.382078	1.034604
O19	O	0.787757	-0.367757	0.175041
O20	O	1.121090	-0.034424	0.508374
O21	O	1.454424	0.298909	0.841707
O22	O	0.723565	-0.174851	0.284748
O23	O	1.056898	0.158482	0.618082
O24	O	1.390231	0.491815	0.951415
O25	O	0.872536	-0.367748	0.284797
O26	O	1.205869	-0.034414	0.618131
O27	O	1.539203	0.298919	0.951464
O28	O	0.787800	-0.174844	0.367909
O29	O	1.121134	0.158489	0.701242
O30	O	1.454467	0.491822	1.034576
O31	O	0.723540	-0.284606	0.175020
O32	O	1.056873	0.048728	0.508353
O33	O	1.390207	0.382061	0.841686
O34	O	0.638798	-0.284562	0.284718
O35	O	0.972131	0.048771	0.618052
O36	O	1.305464	0.382105	0.951385
O37	O	0.723585	-0.367671	0.477613
O38	O	1.056919	-0.034338	0.810946
O39	O	1.390252	0.298995	1.144280
O40	O	0.638806	-0.367681	0.367857
O41	O	0.972140	-0.034348	0.701190
O42	O	1.305473	0.298986	1.034523
O43	O	0.787812	-0.284545	0.477636
O44	O	1.121145	0.048788	0.810969
O45	O	1.454479	0.382121	1.144302
O46	O	0.787769	-0.477458	0.284767
O47	O	1.121102	-0.144125	0.618101
O48	O	1.454435	0.189208	0.951434
O49	O	0.723561	-0.477426	0.367884
O50	O	1.056894	-0.144092	0.701218
O51	O	1.390227	0.189241	1.034551
C52	C	0.619831	-0.326118	0.326281
C53	C	0.953164	0.007215	0.659615
C54	C	1.286498	0.340548	0.992948
C55	C	0.561717	-0.326123	0.326278
C56	C	0.895050	0.007210	0.659611
C57	C	1.228384	0.340544	0.992944
C58	C	0.755684	-0.149602	0.326329
C59	C	1.089017	0.183731	0.659662
C60	C	1.422351	0.517064	0.992995
C61	C	0.755688	-0.074370	0.326330
C62	C	1.089022	0.258963	0.659663
C63	C	1.422355	0.592296	0.992996
C64	C	0.755678	-0.502001	0.326340
C65	C	1.089011	-0.168668	0.659674
C66	C	1.422344	0.164666	0.993007
C67	C	0.755727	-0.577233	0.326369
C68	C	1.089060	-0.243900	0.659702
C69	C	1.422394	0.089434	0.993035
C70	C	0.201368	-0.369497	0.369576
C71	C	0.534701	-0.036164	0.702910
C72	C	0.868034	0.297169	1.036243
C73	C	0.146763	-0.369501	0.369587
C74	C	0.480097	-0.036168	0.702920
C75	C	0.813430	0.297165	1.036254
O76	O	0.118538	-0.406346	0.406362
O77	O	0.451871	-0.073013	0.739695
O78	O	0.785205	0.260320	1.073029
N79	N	0.119435	-0.326164	0.326371
N80	N	0.452768	0.007170	0.659705
N81	N	0.786101	0.340503	0.993038
C82	C	0.146713	-0.282814	0.283147
C83	C	0.480046	0.050519	0.616480
C84	C	0.813380	0.383853	0.949814
O85	O	0.118454	-0.245952	0.246390
O86	O	0.451787	0.087382	0.579724
O87	O	0.785121	0.420715	0.913057
C88	C	0.201316	-0.282807	0.283140
C89	C	0.534650	0.050526	0.616474
C90	C	0.867983	0.383860	0.949807
C91	C	0.228642	-0.326152	0.326354
C92	C	0.561976	0.007181	0.659687
C93	C	0.895309	0.340514	0.993021
C94	C	0.228693	-0.412839	0.412787
C95	C	0.562027	-0.079505	0.746120
C96	C	0.895360	0.253828	1.079454
C97	C	0.283294	-0.412835	0.412775
C98	C	0.616627	-0.079502	0.746108
C99	C	0.949961	0.253831	1.079442
C100	C	0.310569	-0.369490	0.369553
C101	C	0.643902	-0.036157	0.702886
C102	C	0.977235	0.297176	1.036219
C103	C	0.283243	-0.326149	0.326342
C104	C	0.616576	0.007184	0.659676
C105	C	0.949909	0.340518	0.993009
C106	C	0.228594	-0.239454	0.239920
C107	C	0.561927	0.093879	0.573253
C108	C	0.895261	0.427212	0.906587
C109	C	0.283201	-0.239451	0.239917
C110	C	0.616534	0.093883	0.573251
C111	C	0.949868	0.427216	0.906584
C112	C	0.310527	-0.282796	0.283131
C113	C	0.643860	0.050537	0.616464
C114	C	0.977193	0.383870	0.949798
C115	C	0.365118	-0.282801	0.283108
C116	C	0.698451	0.050533	0.616441
C117	C	1.031785	0.383866	0.949775
N118	N	0.392447	-0.326139	0.326324
N119	N	0.725780	0.007195	0.659657
N120	N	1.059113	0.340528	0.992990
C121	C	0.365172	-0.369483	0.369546
C122	C	0.698505	-0.036150	0.702879
C123	C	1.031839	0.297183	1.036213
C124	C	0.032042	-0.282831	0.283166
C125	C	0.365376	0.050502	0.616499
C126	C	0.698709	0.383835	0.949832
C127	C	-0.022560	-0.282841	0.283168
C128	C	0.310773	0.050492	0.616502
C129	C	0.644107	0.383826	0.949835
C130	C	-0.022506	-0.369528	0.369609
C131	C	0.310827	-0.036195	0.702943
C132	C	0.644161	0.297139	1.036276
C133	C	0.032097	-0.369521	0.369602
C134	C	0.365431	-0.036188	0.702936
C135	C	0.698764	0.297146	1.036269
C136	C	0.059371	-0.326169	0.326381
C137	C	0.392704	0.007164	0.659714
C138	C	0.726038	0.340498	0.993048
C139	C	0.479837	-0.369473	0.369518
C140	C	0.813170	-0.036140	0.702851
C141	C	1.146504	0.297193	1.036184
C142	C	0.534442	-0.369468	0.369500
C143	C	0.867776	-0.036135	0.702833
C144	C	1.201109	0.297199	1.036167
C145	C	0.534384	-0.282779	0.283062
C146	C	0.867717	0.050554	0.616395
C147	C	1.201050	0.383888	0.949729
C148	C	0.479783	-0.282787	0.283077
C149	C	0.813116	0.050547	0.616410
C150	C	1.146450	0.383880	0.949743
C151	C	0.452511	-0.326136	0.326310
C152	C	0.785844	0.007197	0.659643
C153	C	1.119178	0.340531	0.992977
O154	O	0.393378	-0.245972	0.246354
O155	O	0.726711	0.087361	0.579687
O156	O	1.060045	0.420694	0.913020
O157	O	0.393438	-0.406333	0.406303
O158	O	0.726771	-0.073000	0.739636
O159	O	1.060104	0.260333	1.072970
C160	C	0.892047	-0.326172	0.326374
C161	C	1.225380	0.007161	0.659707
C162	C	1.558713	0.340494	0.993040
C163	C	0.950161	-0.326184	0.326393
C164	C	1.283494	0.007150	0.659727
C165	C	1.616827	0.340483	0.993060
C166	C	0.755703	-0.326102	0.502870
C167	C	1.089036	0.007231	0.836203
C168	C	1.422370	0.340564	1.169537
C169	C	0.755715	-0.326084	0.578102
C170	C	1.089049	0.007249	0.911435
C171	C	1.422382	0.340583	1.244769
C172	C	0.722248	-0.039029	0.283034
C173	C	1.055582	0.294305	0.616367
C174	C	1.388915	0.627638	0.949701
C175	C	0.722252	0.031660	0.283041
C176	C	1.055585	0.364993	0.616375
C177	C	1.388918	0.698326	0.949708
C178	C	0.755698	0.067005	0.326341
C179	C	1.089031	0.400339	0.659675
C180	C	1.422365	0.733672	0.993008
C181	C	0.789139	0.031659	0.369642
C182	C	1.122473	0.364992	0.702975
C183	C	1.455806	0.698326	1.036309
C184	C	0.789133	-0.039028	0.369637
C185	C	1.122466	0.294305	0.702971
C186	C	1.455800	0.627638	1.036304
C187	C	0.789165	0.316732	0.369662
C188	C	1.122498	0.650066	0.702995
C189	C	1.455832	0.983399	1.036328
C190	C	0.789170	0.387424	0.369661
C191	C	1.122503	0.720758	0.702995
C192	C	1.455837	1.054091	1.036328
C193	C	0.722284	0.387420	0.283066
C194	C	1.055617	0.720753	0.616399
C195	C	1.388950	1.054087	0.949732
C196	C	0.722277	0.316733	0.283061
C197	C	1.055611	0.650066	0.616394
C198	C	1.388944	0.983400	0.949728
C199	C	0.755717	0.281393	0.326364
C200	C	1.089050	0.614726	0.659697
C201	C	1.422383	0.948059	0.993030
C202	C	0.755712	0.204744	0.326356
C203	C	1.089045	0.538078	0.659689
C204	C	1.422379	0.871411	0.993023
C205	C	0.755706	0.143652	0.326346
C206	C	1.089039	0.476986	0.659680
C207	C	1.422372	0.810319	0.993013
C208	C	0.755675	-0.326139	0.150471
C209	C	1.089008	0.007195	0.483805
C210	C	1.422341	0.340528	0.817138
C211	C	0.755763	-0.325966	0.075240
C212	C	1.089097	0.007367	0.408573
C213	C	1.422430	0.340701	0.741906
C214	C	0.789159	-0.282798	0.613459
C215	C	1.122492	0.050535	0.946792
C216	C	1.455826	0.383868	1.280126
C217	C	0.789164	-0.282779	0.684148
C218	C	1.122498	0.050555	1.017481
C219	C	1.455831	0.383888	1.350814
C220	C	0.755728	-0.326049	0.719478
C221	C	1.089062	0.007285	1.052811
C222	C	1.422395	0.340618	1.386144
C223	C	0.722281	-0.369337	0.684116
C224	C	1.055614	-0.036003	1.017449
C225	C	1.388948	0.297330	1.350782
C226	C	0.722274	-0.369352	0.613429
C227	C	1.055607	-0.036019	0.946762
C228	C	1.388940	0.297314	1.280095
C229	C	0.722311	-0.369274	0.969189
C230	C	1.055644	-0.035940	1.302522
C231	C	1.388977	0.297393	1.635856
C232	C	0.722322	-0.369256	1.039881
C233	C	1.055655	-0.035923	1.373215
C234	C	1.388989	0.297411	1.706548
C235	C	0.789202	-0.282700	1.039908
C236	C	1.122535	0.050634	1.373242
C237	C	1.455868	0.383967	1.706575
C238	C	0.789194	-0.282716	0.969221
C239	C	1.122527	0.050618	1.302554
C240	C	1.455861	0.383951	1.635888
C241	C	0.755745	-0.326000	0.933865
C242	C	1.089078	0.007333	1.267199
C243	C	1.422412	0.340666	1.600532
C244	C	0.755739	-0.326020	0.857217
C245	C	1.089072	0.007313	1.190550
C246	C	1.422405	0.340646	1.523883
C247	C	0.755737	-0.326033	0.796125
C248	C	1.089070	0.007300	1.129458
C249	C	1.422403	0.340634	1.462792
H250	H	0.556689	-0.404768	0.404690
H251	H	0.890022	-0.071434	0.738024
H252	H	1.223355	0.261899	1.071357
H253	H	0.816388	-0.247565	0.584698
H254	H	1.149722	0.085769	0.918032
H255	H	1.483055	0.419102	1.251365
H256	H	0.556601	-0.247491	0.247869
H257	H	0.889934	0.085842	0.581203
H258	H	1.223267	0.419176	0.914536
H259	H	0.305538	-0.448130	0.447965
H260	H	0.638871	-0.114797	0.781299
H261	H	0.972205	0.218536	1.114632
F262	F	0.824800	-0.236629	1.077542
F263	F	1.158133	0.096704	1.410875
F264	F	1.491466	0.430037	1.744209
F265	F	0.686655	0.069270	0.236967
F266	F	1.019988	0.402603	0.570301
F267	F	1.353321	0.735936	0.903634
F268	F	0.686681	0.279119	0.236973
F269	F	1.020014	0.612453	0.570307
F270	F	1.353348	0.945786	0.903640
F271	F	-0.051636	-0.236715	0.237166
F272	F	0.281697	0.096618	0.570500
F273	F	0.615030	0.429952	0.903833
H274	H	0.695014	-0.067802	0.247771
H275	H	1.028348	0.265531	0.581105
H276	H	1.361681	0.598864	0.914438
F277	F	0.312224	-0.193307	0.193915
F278	F	0.645558	0.140026	0.527248
F279	F	0.978891	0.473359	0.860582
H280	H	0.816399	-0.247533	0.712932
H281	H	1.149732	0.085801	1.046265
H282	H	1.483065	0.419134	1.379599
F283	F	0.824783	-0.236664	0.931624
F284	F	1.158116	0.096669	1.264957
F285	F	1.491449	0.430003	1.598290
H286	H	0.695092	-0.404493	1.068645
H287	H	1.028425	-0.071160	1.401978
H288	H	1.361759	0.262174	1.735312
H289	H	0.816370	0.060441	0.404901
H290	H	1.149704	0.393775	0.738235
H291	H	1.483037	0.727108	1.071568
F292	F	0.199674	-0.458976	0.458795
F293	F	0.533007	-0.125642	0.792128
F294	F	0.866341	0.207691	1.125461
H295	H	0.695054	0.416202	0.247808
H296	H	1.028387	0.749535	0.581142
H297	H	1.361721	1.082868	0.914475
F298	F	0.686711	-0.415341	0.931570
F299	F	1.020045	-0.082008	1.264903
F300	F	1.353378	0.251325	1.598237
F301	F	0.824724	-0.076641	0.415719
F302	F	1.158057	0.256692	0.749053
F303	F	1.491391	0.590026	1.082386
F304	F	0.686694	-0.415386	0.721719
F305	F	1.020027	-0.082052	1.055052
F306	F	1.353360	0.251281	1.388385
F307	F	0.686677	-0.415421	0.575799
F308	F	1.020010	-0.082088	0.909133
F309	F	1.353344	0.251245	1.242466
H310	H	0.816399	0.287967	0.404914
H311	H	1.149733	0.621300	0.738247
H312	H	1.483066	0.954633	1.071580
F313	F	0.450820	-0.415611	0.415531
F314	F	0.784153	-0.082277	0.748865
F315	F	1.117486	0.251056	1.082198
F316	F	0.061175	-0.415654	0.415597
F317	F	0.394508	-0.082320	0.748930
F318	F	0.727841	0.251013	1.082263
H319	H	-0.044723	-0.404820	0.404805
H320	H	0.288610	-0.071486	0.738139
H321	H	0.621944	0.261847	1.071472
H322	H	0.054245	-0.247529	0.247965
H323	H	0.387579	0.085804	0.581298
H324	H	0.720912	0.419137	0.914631
H325	H	0.457533	-0.247493	0.247887
H326	H	0.790867	0.085841	0.581221
H327	H	1.124200	0.419174	0.914554
F328	F	0.824769	0.425040	0.415750
F329	F	1.158103	0.758374	0.749084
F330	F	1.491436	1.091707	1.082417
F331	F	0.199523	-0.193316	0.193929
F332	F	0.532857	0.140018	0.527262
F333	F	0.866190	0.473351	0.860596
