data_functionalizedCrystal
_audit_creation_method	'MofGen! by Chris Wilmer'
_symmetry_space_group_name_H-M	'P1'
_symmetry_Int_Tables_number	1
_symmetry_cell_setting	triclinic
loop_
_symmetry_equiv_pos_as_xyz
  x,y,z
_cell_length_a	10.686285
_cell_length_b	10.685727
_cell_length_c	10.686551
_cell_angle_alpha	80.925701
_cell_angle_beta	99.084519
_cell_angle_gamma	99.060155
loop_
_atom_site_label
_atom_site_type_symbol
_atom_site_fract_x
_atom_site_fract_y
_atom_site_fract_z
Zn1	Zn	-0.595594	-2.038245	0.823884
Zn2	Zn	-0.824167	-2.038142	0.595374
Zn3	Zn	-0.595640	-1.809683	0.595400
Zn4	Zn	-0.793653	-1.840094	0.793501
O5	O	-0.702263	-1.931541	0.702040
O6	O	-0.638666	-2.216770	0.806276
O7	O	-0.806641	-1.995066	0.416839
O8	O	-0.417106	-1.827318	0.638435
O9	O	-0.806597	-2.216694	0.638391
O10	O	-0.417072	-1.995242	0.806301
O11	O	-0.638743	-1.827218	0.416858
O12	O	-0.609156	-1.635179	0.608973
O13	O	-0.754591	-1.879149	0.976069
O14	O	-0.754635	-1.657522	0.754517
O15	O	-0.609078	-2.024730	0.998391
O16	O	-0.998646	-2.024554	0.608930
O17	O	-0.976228	-1.879049	0.754492
C18	C	-0.678590	-1.600057	0.678452
C19	C	-0.668491	-1.458252	0.668389
C20	C	-1.033728	-1.955127	0.678442
C21	C	-1.175535	-1.965337	0.668397
C22	C	-0.369505	-1.907900	0.725760
C23	C	-0.227703	-1.897825	0.735868
C24	C	-0.678425	-1.955343	1.034818
C25	C	-0.668267	-1.965486	1.176628
C26	C	-0.726016	-1.264318	0.725715
C27	C	-0.736103	-1.406123	0.735789
C28	C	-0.725922	-1.907898	0.370568
C29	C	-0.735738	-1.897977	0.228802
H30	H	-0.801707	-1.469980	0.801200
H31	H	-0.602871	-1.394388	0.602985
F32	F	-1.144283	-1.812066	0.821419
H33	H	-0.602732	-2.031055	1.240455
H34	H	-1.239366	-2.030942	0.602934
F35	F	-0.821406	-1.812290	1.145386
