data_functionalizedCrystal
_audit_creation_method	'MofGen! by Chris Wilmer'
_symmetry_space_group_name_H-M	'P1'
_symmetry_Int_Tables_number	1
_symmetry_cell_setting	triclinic
loop_
_symmetry_equiv_pos_as_xyz
  x,y,z
_cell_length_a	23.204064
_cell_length_b	23.204065
_cell_length_c	23.204116
_cell_angle_alpha	89.996965
_cell_angle_beta	59.996975
_cell_angle_gamma	59.999902
loop_
_atom_site_label
_atom_site_type_symbol
_atom_site_fract_x
_atom_site_fract_y
_atom_site_fract_z
O1	O	0.508354	0.395335	-0.017165
O2	O	0.390339	0.311532	0.017047
O3	O	0.508349	0.311530	-0.100966
O4	O	0.390344	0.395337	0.100848
O5	O	0.412497	0.407382	-0.100966
O6	O	0.294487	0.407384	0.017047
O7	O	0.412502	0.491187	-0.017165
Zn8	Zn	0.338276	0.464504	-0.000059
Zn9	Zn	0.464565	0.338215	-0.000059
O10	O	0.294493	0.491189	0.100848
C11	C	0.517029	0.596425	-0.024963
C12	C	0.476574	0.672443	-0.020071
C13	C	0.482671	0.561425	-0.025445
C14	C	0.621389	0.492066	-0.024963
C15	C	0.692516	0.456502	-0.020072
C16	C	0.586872	0.457224	-0.025446
C17	C	0.517025	0.492068	-0.024955
C18	C	0.476565	0.456507	-0.020056
C19	C	0.586876	0.561422	-0.025453
C20	C	0.212796	0.144180	0.035745
C21	C	0.253254	0.068160	0.030849
C22	C	0.142952	0.179181	0.036231
C23	C	0.212793	0.248540	0.035749
C24	C	0.253248	0.284104	0.030857
C25	C	0.142949	0.283383	0.036234
C26	C	0.108437	0.248539	0.035744
C27	C	0.037314	0.284101	0.030848
C28	C	0.247150	0.179182	0.036235
C29	C	-0.020146	0.312831	0.026891
C30	C	0.285940	0.006744	0.026893
C31	C	0.285933	0.312835	0.026904
C32	C	-0.092232	0.348875	0.021928
C33	C	0.326947	-0.070305	0.021930
C34	C	0.326936	0.348880	0.021946
C35	C	0.590049	0.248541	-0.445864
C36	C	0.549593	0.284103	-0.481426
C37	C	0.659894	0.179184	-0.480706
C38	C	0.590049	0.248541	-0.341505
C39	C	0.549592	0.284104	-0.265486
C40	C	0.659893	0.179184	-0.376505
C41	C	0.694407	0.144182	-0.445862
C42	C	0.765532	0.068163	-0.481423
C43	C	0.555693	0.283384	-0.376507
C44	C	0.822992	0.006748	-0.510153
C45	C	0.516907	0.312833	-0.510157
C46	C	0.516906	0.312834	-0.204070
C47	C	0.895079	-0.070301	-0.546195
C48	C	0.475902	0.348877	-0.546201
C49	C	0.475901	0.348879	-0.127021
O50	O	0.886610	0.407380	0.017032
O51	O	0.719007	0.491183	-0.017180
O52	O	0.718991	0.491179	0.100833
O53	O	0.886626	0.407384	-0.100981
O54	O	0.718998	0.395324	0.100825
O55	O	0.719014	0.395328	-0.017189
O56	O	0.886617	0.311525	0.017023
Zn57	Zn	0.802817	0.338207	-0.000084
Zn58	Zn	0.802807	0.464500	-0.000073
O59	O	0.886634	0.311529	-0.100990
O60	O	0.294497	0.903641	0.017034
O61	O	0.412511	0.701827	-0.017179
O62	O	0.294507	0.819822	0.100834
O63	O	0.412500	0.785646	-0.100980
O64	O	0.390363	0.819819	0.100826
O65	O	0.508367	0.701824	-0.017187
O66	O	0.390353	0.903639	0.017026
Zn67	Zn	0.464579	0.802731	-0.000082
Zn68	Zn	0.338285	0.802734	-0.000072
O69	O	0.508356	0.785644	-0.100988
O70	O	1.083846	-0.298166	-0.592645
O71	O	0.916232	-0.096354	-0.508846
O72	O	0.916226	-0.214357	-0.508835
O73	O	1.083852	-0.180164	-0.592656
O74	O	0.916229	-0.214359	-0.604687
O75	O	0.916235	-0.096357	-0.604698
O76	O	1.083848	-0.298169	-0.688497
Zn77	Zn	1.000042	-0.197264	-0.661816
Zn78	Zn	1.000039	-0.197260	-0.535527
O79	O	1.083854	-0.180167	-0.688508
O80	O	0.390339	0.395341	-0.688506
O81	O	0.508349	0.311530	-0.604703
O82	O	0.390337	0.311534	-0.604694
O83	O	0.508352	0.395337	-0.688516
O84	O	0.294488	0.407384	-0.508843
O85	O	0.412500	0.407379	-0.508852
O86	O	0.294490	0.491191	-0.592655
Zn87	Zn	0.338277	0.464504	-0.535535
Zn88	Zn	0.464562	0.338217	-0.661823
O89	O	0.412502	0.491187	-0.592665
C90	C	0.181466	0.596433	0.310607
C91	C	0.110341	0.672452	0.346167
C92	C	0.215979	0.561432	0.345451
C93	C	0.285825	0.492073	0.206249
C94	C	0.326282	0.456510	0.130231
C95	C	0.320180	0.457231	0.241252
C96	C	0.285824	0.492075	0.310609
C97	C	0.326279	0.456513	0.346172
C98	C	0.215980	0.561431	0.241250
C99	C	0.517000	0.492049	0.310585
C100	C	0.476544	0.456483	0.346144
C101	C	0.482638	0.561406	0.345431
C102	C	0.621366	0.492056	0.206230
C103	C	0.692498	0.456497	0.130211
C104	C	0.586846	0.561413	0.241235
C105	C	0.516995	0.596411	0.310592
C106	C	0.476532	0.672430	0.346157
C107	C	0.586851	0.457209	0.241228
C108	C	0.285875	0.827557	0.310579
C109	C	0.326339	0.822656	0.346134
C110	C	0.216033	0.828036	0.345424
C111	C	0.285858	0.827580	0.206228
C112	C	0.326304	0.822703	0.130212
C113	C	0.216016	0.828059	0.241232
C114	C	0.181512	0.827556	0.310586
C115	C	0.110392	0.822653	0.346150
C116	C	0.320220	0.828061	0.241224
C117	C	1.212852	0.144201	-0.445886
C118	C	1.253315	0.068182	-0.481452
C119	C	1.247208	0.179206	-0.480725
C120	C	1.108480	0.248555	-0.341524
C121	C	1.037348	0.284114	-0.265505
C122	C	1.142995	0.283402	-0.376522
C123	C	1.212846	0.248563	-0.445879
C124	C	1.253302	0.284130	-0.481437
C125	C	1.143001	0.179198	-0.376529
C126	C	1.285987	0.312863	-0.510163
C127	C	1.286006	0.006766	-0.510185
C128	C	0.979882	0.312841	-0.204089
C129	C	1.326992	0.348911	-0.546203
C130	C	1.327018	-0.070282	-0.546232
C131	C	0.907787	0.348880	-0.127040
O132	O	0.390300	0.903628	0.395299
O133	O	0.508322	0.701816	0.311481
O134	O	0.390318	0.819819	0.311478
O135	O	0.508304	0.785625	0.395302
O136	O	0.294462	0.819810	0.407324
O137	O	0.412466	0.701807	0.407328
O138	O	0.294444	0.903619	0.491145
Zn139	Zn	0.338236	0.802712	0.464454
Zn140	Zn	0.464530	0.802723	0.338172
O141	O	0.412448	0.785616	0.491148
C142	C	0.694370	0.767007	-0.445874
C143	C	0.765494	0.771905	-0.481440
C144	C	0.659846	0.766531	-0.480711
C145	C	0.590021	0.766987	-0.341515
C146	C	0.549574	0.771865	-0.265499
C147	C	0.555655	0.766512	-0.376510
C148	C	0.590001	0.767015	-0.445864
C149	C	0.549534	0.771922	-0.481419
C150	C	0.659865	0.766504	-0.376520
C151	C	0.516840	0.775888	-0.510142
C152	C	0.822954	0.775863	-0.510172
C153	C	0.516897	0.775806	-0.204085
C154	C	0.475824	0.780862	-0.546178
C155	C	0.895041	0.780828	-0.546219
C156	C	0.475903	0.780750	-0.127038
H157	H	0.615758	0.589527	-0.026236
N158	N	0.394656	0.381762	0.204037
H159	H	0.381766	0.350917	0.231003
H160	H	0.440753	0.378991	0.201502
H161	H	0.426432	0.589501	0.402419
N162	N	0.625124	0.381724	0.204002
H163	H	0.674705	0.364871	0.154664
H164	H	0.584366	0.378888	0.201472
H165	H	0.615735	0.589514	0.213133
H166	H	0.187129	0.828847	0.213132
N167	N	0.408447	0.598534	-0.026810
H168	H	0.391903	0.565776	-0.027155
H169	H	0.421746	0.612429	-0.070662
H170	H	0.187155	0.828814	0.402411
H171	H	0.376432	0.828835	0.213118
N172	N	0.104688	0.358865	0.037266
H173	H	0.137172	0.375724	0.037493
H174	H	0.046885	0.389639	0.081015
N175	N	0.625119	0.381742	-0.026479
H176	H	0.625428	0.378852	0.016806
H177	H	0.682903	0.350953	-0.070251
H178	H	0.688759	0.765713	-0.348426
H179	H	0.114067	0.151078	0.037019
N180	N	1.104736	0.358884	-0.339298
H181	H	1.055162	0.375740	-0.289954
H182	H	1.088014	0.389660	-0.366324
H183	H	0.688731	0.765752	-0.537698
H184	H	0.187081	0.589532	0.402442
N185	N	1.321658	0.141993	-0.556210
H186	H	1.338296	0.092649	-0.573072
H187	H	1.367768	0.139485	-0.559036
H188	H	0.303350	0.151080	0.037024
H189	H	0.187091	0.589533	0.213151
H190	H	0.688769	0.151082	-0.348397
N191	N	1.104740	0.141974	-0.339304
H192	H	1.137230	0.092631	-0.372017
H193	H	1.046941	0.168996	-0.325257
N194	N	0.481217	0.765460	-0.339293
H195	H	0.494147	0.721707	-0.325248
H196	H	0.464634	0.765256	-0.372047
N197	N	0.698180	0.141952	-0.556195
H198	H	0.657485	0.139365	-0.559098
H199	H	0.747761	0.092638	-0.572992
N200	N	0.481242	0.358865	-0.339277
H201	H	0.464607	0.375724	-0.371988
H202	H	0.494215	0.389641	-0.325228
