data_functionalizedCrystal
_audit_creation_method	'MofGen! by Chris Wilmer'
_symmetry_space_group_name_H-M	'P1'
_symmetry_Int_Tables_number	1
_symmetry_cell_setting	triclinic
loop_
_symmetry_equiv_pos_as_xyz
  x,y,z
_cell_length_a	24.447405
_cell_length_b	24.446649
_cell_length_c	24.443239
_cell_angle_alpha	60.006064
_cell_angle_beta	60.011844
_cell_angle_gamma	59.992812
loop_
_atom_site_label
_atom_site_type_symbol
_atom_site_fract_x
_atom_site_fract_y
_atom_site_fract_z
O1	O	0.075907	-0.799232	0.668277
O2	O	0.575907	-0.299232	1.168277
O3	O	0.028634	-0.622262	0.538455
O4	O	0.528634	-0.122262	1.038455
O5	O	0.140702	-0.734230	0.538349
O6	O	0.640702	-0.234230	1.038349
O7	O	-0.036160	-0.687265	0.668384
O8	O	0.463840	-0.187265	1.168384
O9	O	0.177886	-0.697056	0.575424
O10	O	0.677886	-0.197056	1.075424
O11	O	0.065818	-0.585088	0.575530
O12	O	0.565818	-0.085088	1.075530
O13	O	0.113091	-0.762059	0.705353
O14	O	0.613091	-0.262059	1.205353
Cu15	Cu	0.092850	-0.670179	0.643827
Cu16	Cu	0.592850	-0.170179	1.143827
Cu17	Cu	0.048876	-0.714142	0.599981
Cu18	Cu	0.548876	-0.214142	1.099981
O19	O	0.001024	-0.650091	0.705459
O20	O	0.501024	-0.150091	1.205459
N21	N	0.123780	-0.639263	0.674669
N22	N	0.623780	-0.139263	1.174669
N23	N	0.017951	-0.745064	0.569139
N24	N	0.517951	-0.245064	1.069139
C25	C	0.170236	-0.489965	0.721065
C26	C	0.670236	0.010035	1.221065
C27	C	0.170249	-0.592837	0.721058
C28	C	0.670249	-0.092837	1.221058
C29	C	0.195989	-0.567121	0.746758
C30	C	0.695989	-0.067121	1.246758
C31	C	0.308182	-0.547773	0.687664
C32	C	0.808182	-0.047773	1.187664
C33	C	0.378316	-0.571143	0.664253
C34	C	0.878316	-0.071143	1.164253
C35	C	0.378353	-0.684626	0.707525
C36	C	0.878353	-0.184626	1.207525
C37	C	0.308220	-0.661254	0.730938
C38	C	0.808220	-0.161254	1.230938
C39	C	0.187125	-0.454882	0.652117
C40	C	0.687125	0.045118	1.152117
C41	C	0.163710	-0.384741	0.628763
C42	C	0.663710	0.115259	1.128763
C43	C	0.106523	-0.384772	0.743308
C44	C	0.606523	0.115228	1.243308
C45	C	0.129938	-0.454913	0.766662
C46	C	0.629938	0.045087	1.266662
C47	C	0.101291	-0.575906	0.738041
C48	C	0.601291	-0.075906	1.238041
C49	C	0.077897	-0.599283	0.714670
C50	C	0.577897	-0.099283	1.214670
C51	C	0.192412	-0.656523	0.657348
C52	C	0.692412	-0.156523	1.157348
C53	C	0.215809	-0.633146	0.680711
C54	C	0.715809	-0.133146	1.180711
C55	C	0.101393	-0.575928	0.859014
C56	C	0.601393	-0.075928	1.359014
C57	C	0.078071	-0.599328	0.929152
C58	C	0.578071	-0.099328	1.429152
C59	C	0.192636	-0.656582	0.929078
C60	C	0.692636	-0.156582	1.429078
C61	C	0.215955	-0.633184	0.858938
C62	C	0.715955	-0.133184	1.358938
C63	C	0.170332	-0.592855	0.823908
C64	C	0.670332	-0.092855	1.323908
C65	C	0.273137	-0.592827	0.721004
C66	C	0.773137	-0.092827	1.221004
C67	C	-0.131205	-0.791294	0.522327
C68	C	0.368795	-0.291294	1.022327
C69	C	-0.028388	-0.791420	0.522551
C70	C	0.471612	-0.291420	1.022551
C71	C	-0.054056	-0.817099	0.496741
C72	C	0.445944	-0.317099	0.996741
C73	C	-0.073479	-0.929255	0.555734
C74	C	0.426521	-0.429255	1.055734
C75	C	-0.050156	-0.999396	0.579142
C76	C	0.449844	-0.499396	1.079142
C77	C	0.063326	-0.999525	0.536064
C78	C	0.563326	-0.499525	1.036064
C79	C	0.040001	-0.929386	0.512654
C80	C	0.540001	-0.429386	1.012654
C81	C	-0.166365	-0.808188	0.591256
C82	C	0.333635	-0.308188	1.091256
C83	C	-0.236499	-0.784726	0.614512
C84	C	0.263501	-0.284726	1.114512
C85	C	-0.236309	-0.727482	0.499907
C86	C	0.263691	-0.227482	0.999907
C87	C	-0.166175	-0.750944	0.476651
C88	C	0.333825	-0.250944	0.976651
C89	C	-0.045285	-0.722468	0.505590
C90	C	0.454715	-0.222468	1.005590
C91	C	-0.021951	-0.699130	0.529061
C92	C	0.478049	-0.199130	1.029061
C93	C	0.035176	-0.813691	0.586439
C94	C	0.535176	-0.313691	1.086439
C95	C	0.011842	-0.837031	0.562976
C96	C	0.511842	-0.337031	1.062976
C97	C	-0.045097	-0.722476	0.384488
C98	C	0.454903	-0.222476	0.884488
C99	C	-0.021613	-0.699140	0.314350
C100	C	0.478387	-0.199140	0.814350
C101	C	0.035607	-0.813706	0.314419
C102	C	0.535607	-0.313706	0.814419
C103	C	0.012124	-0.837041	0.384558
C104	C	0.512124	-0.337041	0.884558
C105	C	-0.028229	-0.791425	0.419591
C106	C	0.471771	-0.291425	0.919591
C107	C	-0.028402	-0.894253	0.522492
C108	C	0.471598	-0.394253	1.022492
N109	N	0.412405	-0.639229	0.674505
N110	N	0.912405	-0.139229	1.174505
O111	O	0.626552	-0.645384	0.514503
O112	O	1.126552	-0.145384	1.014503
O113	O	0.626802	-0.775625	0.691288
O114	O	1.126802	-0.275625	1.191288
O115	O	0.626698	-0.775326	0.579168
O116	O	1.126698	-0.275326	1.079168
O117	O	0.626656	-0.645683	0.626623
O118	O	1.126656	-0.145683	1.126623
O119	O	0.515277	-0.738265	0.616407
O120	O	1.015277	-0.238265	1.116407
O121	O	0.515382	-0.738564	0.728527
O122	O	1.015382	-0.238564	1.228527
O123	O	0.515131	-0.608323	0.551742
O124	O	1.015131	-0.108323	1.051742
Cu125	Cu	0.505083	-0.670059	0.643535
Cu126	Cu	1.005083	-0.170059	1.143535
Cu127	Cu	0.636850	-0.713889	0.599495
Cu128	Cu	1.136850	-0.213889	1.099495
O129	O	0.515236	-0.608622	0.663862
O130	O	1.015236	-0.108622	1.163862
N131	N	0.729529	-0.744719	0.568518
N132	N	1.229529	-0.244719	1.068518
N133	N	0.123755	-0.350686	0.674680
N134	N	0.623755	0.149314	1.174680
O135	O	-0.036153	-0.136410	0.668391
O136	O	0.463847	0.363590	1.168391
O137	O	0.140633	-0.136380	0.538141
O138	O	0.640633	0.363620	1.038141
O139	O	0.028472	-0.136412	0.538488
O140	O	0.528472	0.363588	1.038488
O141	O	0.076007	-0.136377	0.668044
O142	O	0.576007	0.363623	1.168044
O143	O	0.065663	-0.247842	0.575621
O144	O	0.565663	0.252158	1.075621
O145	O	0.177823	-0.247810	0.575274
O146	O	0.677823	0.252190	1.075274
O147	O	0.001037	-0.247840	0.705524
O148	O	0.501037	0.252160	1.205524
Cu149	Cu	0.092826	-0.258000	0.643789
Cu150	Cu	0.592826	0.242000	1.143789
Cu151	Cu	0.048844	-0.126220	0.599875
Cu152	Cu	0.548844	0.373780	1.099875
O153	O	0.113198	-0.247808	0.705177
O154	O	0.613198	0.252192	1.205177
N155	N	0.017907	-0.033534	0.568986
N156	N	0.517907	0.466466	1.068986
N157	N	0.124013	-0.639306	0.963182
N158	N	0.624013	-0.139306	1.463182
O159	O	0.117754	-0.799195	1.177439
O160	O	0.617754	-0.299195	1.677439
O161	O	-0.012458	-0.622342	1.177485
O162	O	0.487542	-0.122342	1.677485
O163	O	-0.012155	-0.734480	1.177444
O164	O	0.487845	-0.234480	1.677444
O165	O	0.117450	-0.687057	1.177480
O166	O	0.617450	-0.187057	1.677480
O167	O	0.024954	-0.697317	1.066020
O168	O	0.524954	-0.197317	1.566020
O169	O	0.024650	-0.585179	1.066061
O170	O	0.524650	-0.085179	1.566061
O171	O	0.154862	-0.762032	1.066014
O172	O	0.654862	-0.262032	1.566014
Cu173	Cu	0.093145	-0.670212	1.055863
Cu174	Cu	0.593145	-0.170212	1.555863
Cu175	Cu	0.049259	-0.714162	1.187636
Cu176	Cu	0.549259	-0.214162	1.687636
O177	O	0.154559	-0.649894	1.066055
O178	O	0.654559	-0.149894	1.566055
N179	N	0.018389	-0.745075	1.280318
N180	N	0.518389	-0.245075	1.780318
C181	C	0.042795	-0.581375	0.539107
C182	C	0.542795	-0.081375	1.039107
C183	C	0.181576	-0.720034	0.538975
C184	C	0.681576	-0.220034	1.038975
C185	C	0.098930	-0.802946	0.704700
C186	C	0.598930	-0.302946	1.204700
C187	C	-0.039851	-0.664287	0.704832
C188	C	0.460149	-0.164287	1.204832
C189	C	0.571122	-0.775030	0.732180
C190	C	1.071122	-0.275030	1.232180
C191	C	0.570995	-0.774660	0.593332
C192	C	1.070995	-0.274660	1.093332
C193	C	0.570808	-0.608917	0.510851
C194	C	1.070808	-0.108917	1.010851
C195	C	0.570939	-0.609288	0.649698
C196	C	1.070939	-0.109288	1.149698
C197	C	0.181453	-0.191954	0.538725
C198	C	0.681453	0.308046	1.038725
C199	C	0.042602	-0.192131	0.539201
C200	C	0.542602	0.307869	1.039201
C201	C	-0.039829	-0.192128	0.704893
C202	C	0.460171	0.307872	1.204893
C203	C	0.099069	-0.192090	0.704464
C204	C	0.599069	0.307910	1.204464
C205	C	-0.011836	-0.581480	1.121779
C206	C	0.488164	-0.081480	1.621779
C207	C	-0.011453	-0.720342	1.121706
C208	C	0.488547	-0.220342	1.621706
C209	C	0.154240	-0.802894	1.121720
C210	C	0.654240	-0.302894	1.621720
C211	C	0.153865	-0.664024	1.121769
C212	C	0.653865	-0.164024	1.621769
H213	H	0.064236	-0.543084	0.830495
H214	H	0.564236	-0.043084	1.330495
O215	O	0.248860	-0.733287	0.484881
O216	O	0.748860	-0.233287	0.984881
H217	H	0.272279	-0.697083	0.470644
H218	H	0.772279	-0.197083	0.970644
H219	H	0.109031	-0.853782	0.745475
H220	H	0.609031	-0.353782	1.245475
O221	O	-0.065990	-0.514203	1.121805
O222	O	0.434010	-0.014203	1.621805
H223	H	-0.110439	-0.521115	1.167221
H224	H	0.389561	-0.021115	1.667221
O225	O	0.570925	-0.555334	0.663131
O226	O	1.070925	-0.055334	1.163131
H227	H	0.525539	-0.543208	0.705861
H228	H	1.025539	-0.043208	1.205861
O229	O	0.570704	-0.554750	0.443601
O230	O	1.070704	-0.054750	0.943601
H231	H	0.570668	-0.509318	0.443578
H232	H	1.070668	-0.009318	0.943578
O233	O	0.248560	-0.191525	0.484417
O234	O	0.748560	0.308475	0.984417
H235	H	0.281402	-0.191405	0.503304
H236	H	0.781402	0.308595	1.003304
O237	O	0.052148	-0.532440	0.781564
O238	O	0.552148	-0.032440	1.281564
H239	H	0.020166	-0.486109	0.753756
H240	H	0.520166	0.013891	1.253756
H241	H	0.032420	-0.192135	0.498498
H242	H	0.532420	0.307865	0.998498
H243	H	-0.090650	-0.654278	0.745664
H244	H	0.409350	-0.154278	1.245664
H245	H	0.571186	-0.815915	0.782955
H246	H	1.071186	-0.315915	1.282955
O247	O	0.571014	-0.828612	0.579890
O248	O	1.071014	-0.328612	1.079890
H249	H	0.570948	-0.809438	0.528066
H250	H	1.070948	-0.309438	1.028066
O251	O	0.088620	-0.891629	0.476805
O252	O	0.588620	-0.391629	0.976805
H253	H	0.140101	-0.927845	0.473908
H254	H	0.640101	-0.427845	0.973908
O255	O	-0.065361	-0.733752	1.121619
O256	O	0.434639	-0.233752	1.621619
H257	H	-0.077515	-0.776467	1.167003
H258	H	0.422485	-0.276467	1.667003
O259	O	-0.107082	-0.192124	0.759058
O260	O	0.392918	0.307876	1.259058
H261	H	-0.139963	-0.192128	0.740133
H262	H	0.360037	0.307872	1.240133
H263	H	0.021747	-0.585481	0.728482
H264	H	0.521747	-0.085481	1.228482
O265	O	0.208392	-0.870176	1.121716
O266	O	0.708392	-0.370176	1.621716
H267	H	0.189450	-0.903035	1.121711
H268	H	0.689450	-0.403035	1.621711
O269	O	0.112547	-0.192089	0.758388
O270	O	0.612547	0.307911	1.258388
H271	H	0.164385	-0.192085	0.739206
H272	H	0.664385	0.307915	1.239206
H273	H	0.194582	-0.653876	1.121771
H274	H	0.694582	-0.153876	1.621771
H275	H	0.021932	-0.585534	0.957726
H276	H	0.521932	-0.085534	1.457726
H277	H	0.229790	-0.689406	0.957592
H278	H	0.729790	-0.189406	1.457592
H279	H	0.272095	-0.646975	0.830359
H280	H	0.772095	-0.146975	1.330359
H281	H	0.271959	-0.646925	0.666876
H282	H	0.771959	-0.146925	1.166876
O283	O	0.241540	-0.699990	0.613824
O284	O	0.741540	-0.199990	1.113824
H285	H	0.273531	-0.746322	0.641621
H286	H	0.773531	-0.246322	1.141621
O287	O	0.270417	-0.709848	0.766890
O288	O	0.770417	-0.209848	1.266890
H289	H	0.306598	-0.761354	0.769852
H290	H	0.806598	-0.261354	1.269852
H291	H	0.025866	-0.893188	0.413136
H292	H	0.525866	-0.393188	0.913136
O293	O	0.181926	-0.346894	0.554393
O294	O	0.681926	0.153106	1.054393
H295	H	0.213888	-0.383052	0.526611
H296	H	0.713888	0.116948	1.026611
O297	O	0.416202	-0.758431	0.718236
O298	O	0.916202	-0.258431	1.218236
H299	H	0.380050	-0.785837	0.745360
H300	H	0.880050	-0.285837	1.245360
H301	H	0.406848	-0.534453	0.637104
H302	H	0.906848	-0.034453	1.137104
H303	H	0.219934	-0.483420	0.614988
H304	H	0.719934	0.016580	1.114988
O305	O	0.270343	-0.473970	0.676959
O306	O	0.770343	0.026030	1.176959
H307	H	0.283766	-0.445430	0.622456
H308	H	0.783766	0.054570	1.122456
O309	O	0.063068	-0.346950	0.792477
O310	O	0.563068	0.153050	1.292477
H311	H	0.016760	-0.360418	0.824450
H312	H	0.516760	0.139582	1.324450
O313	O	0.111690	-0.492745	0.841035
O314	O	0.611690	0.007255	1.341035
H315	H	0.130559	-0.479295	0.864019
H316	H	0.630559	0.020705	1.364019
O317	O	-0.039818	-0.624769	0.276493
O318	O	0.460182	-0.124769	0.776493
H319	H	-0.071829	-0.596974	0.312639
H320	H	0.428171	-0.096974	0.812639
H321	H	0.068452	-0.850855	0.285902
H322	H	0.568452	-0.350855	0.785902
O323	O	-0.088617	-0.673271	0.422271
O324	O	0.411383	-0.173271	0.922271
H325	H	-0.134888	-0.641277	0.408708
H326	H	0.365112	-0.141277	0.908708
O327	O	-0.040054	-0.624772	0.510722
O328	O	0.459946	-0.124772	1.010722
H329	H	-0.021043	-0.601898	0.455423
H330	H	0.478957	-0.101898	0.955423
O331	O	0.078564	-0.862886	0.630039
O332	O	0.578564	-0.362886	1.130039
H333	H	0.086386	-0.914752	0.637890
H334	H	0.586386	-0.414752	1.137890
H335	H	-0.078038	-0.685325	0.472673
H336	H	0.421962	-0.185325	0.972673
H337	H	0.119026	-1.028132	0.528057
H338	H	0.619026	-0.528132	1.028057
O339	O	0.030067	-0.911401	0.581257
O340	O	0.530067	-0.411401	1.081257
H341	H	0.061968	-0.939198	0.613302
H342	H	0.561968	-0.439198	1.113302
H343	H	-0.129177	-0.900656	0.563750
H344	H	0.370823	-0.400656	1.063750
O345	O	-0.098772	-1.037154	0.615002
O346	O	0.401228	-0.537154	1.115002
H347	H	-0.150257	-1.000940	0.617917
H348	H	0.349743	-0.500940	1.117917
H349	H	-0.137894	-0.841050	0.628449
H350	H	0.362106	-0.341050	1.128449
H351	H	-0.265127	-0.798479	0.670643
H352	H	0.234873	-0.298479	1.170643
H353	H	-0.264783	-0.694634	0.462714
H354	H	0.235217	-0.194634	0.962714
O355	O	-0.128245	-0.732723	0.402302
O356	O	0.371755	-0.232723	0.902302
H357	H	-0.141660	-0.751566	0.379263
H358	H	0.358340	-0.251566	0.879263
O359	O	0.029425	-0.514040	0.485090
O360	O	0.529425	-0.014040	0.985090
H361	H	-0.022401	-0.481292	0.504186
H362	H	0.477599	0.018708	1.004186
