data_functionalizedCrystal
_audit_creation_method	'MofGen! by Chris Wilmer'
_symmetry_space_group_name_H-M	'P1'
_symmetry_Int_Tables_number	1
_symmetry_cell_setting	triclinic
loop_
_symmetry_equiv_pos_as_xyz
  x,y,z
_cell_length_a	12.759401
_cell_length_b	19.076808
_cell_length_c	12.759393
_cell_angle_alpha	92.335254
_cell_angle_beta	90.018496
_cell_angle_gamma	92.323712
loop_
_atom_site_label
_atom_site_type_symbol
_atom_site_fract_x
_atom_site_fract_y
_atom_site_fract_z
Zn1	Zn	1.589374	-0.280174	0.577138
Zn2	Zn	1.582176	-0.397897	0.394381
Zn3	Zn	1.413674	-0.280210	0.401475
Zn4	Zn	1.406575	-0.397843	0.570025
O5	O	1.497950	-0.339031	0.485755
O6	O	1.735440	-0.295797	0.552902
O7	O	1.559782	-0.382323	0.248298
O8	O	1.442965	-0.181709	0.430723
O9	O	1.730151	-0.382288	0.418631
O10	O	1.572051	-0.181682	0.559781
O11	O	1.435984	-0.295860	0.253511
O12	O	1.265712	-0.295807	0.423826
O13	O	1.430866	-0.382195	0.717992
O14	O	1.260496	-0.382231	0.547659
O15	O	1.565167	-0.295745	0.723218
O16	O	1.552898	-0.496387	0.411735
O17	O	1.423885	-0.496347	0.540780
C18	C	1.224983	-0.339018	0.485741
C19	C	1.108206	-0.339029	0.485759
C20	C	1.050651	-0.384102	0.550124
C21	C	0.940927	-0.384111	0.550135
C22	C	0.946321	-0.293972	0.421408
C23	C	1.056044	-0.293960	0.421403
C24	C	1.047536	-0.436145	0.624440
C25	C	0.937811	-0.436154	0.624451
C26	C	1.486869	-0.521906	0.474739
C27	C	1.482224	-0.600140	0.470061
C28	C	1.547200	-0.636821	0.535112
C29	C	1.542832	-0.710330	0.530719
C30	C	1.473493	-0.747159	0.461269
C31	C	1.408509	-0.710473	0.396215
C32	C	1.412873	-0.636965	0.400614
C33	C	1.453236	-0.967013	0.440905
C34	C	1.448879	-1.040527	0.436508
C35	C	1.583201	-1.040379	0.571014
C36	C	1.587563	-0.966869	0.575403
C37	C	1.522576	-0.930190	0.510353
N38	N	1.469028	-0.822297	0.456774
N39	N	1.527036	-0.855053	0.514854
C40	C	1.771982	-0.339044	0.485769
C41	C	1.888758	-0.339050	0.485775
C42	C	1.498028	-0.338960	0.759792
C43	C	1.498061	-0.338930	0.876571
C44	C	1.509103	-0.155442	0.496837
C45	C	1.513855	-0.077207	0.501559
C46	C	1.497936	-0.339051	0.212786
C47	C	1.498118	-0.338883	0.096020
C48	C	1.568001	-0.293910	0.934156
C49	C	1.568028	-0.293885	1.043882
C50	C	1.428170	-0.383904	1.038427
C51	C	1.428139	-0.383925	0.928704
C52	C	1.648750	-0.241941	0.937306
C53	C	1.648777	-0.241915	1.047031
H54	H	0.904732	-0.490655	0.599242
H55	H	1.630266	-0.187430	0.910827
O56	O	1.360333	-0.427687	0.872653
C57	C	1.417350	-0.473184	0.806453
H58	H	1.498477	-0.448377	0.791512
H59	H	1.373951	-0.482627	0.728727
H60	H	1.425726	-0.525338	0.845587
H61	H	0.903837	-0.257278	0.369012
H62	H	1.729268	-0.256515	1.075932
O63	O	1.381666	-1.076332	0.368925
C64	C	1.438997	-1.118859	0.298588
H65	H	1.523062	-1.096657	0.293500
H66	H	1.400989	-1.119753	0.217648
H67	H	1.439299	-1.174552	0.327738
H68	H	1.078220	-0.421608	0.706721
O69	O	1.617747	-0.180185	1.091545
C70	C	1.619626	-0.183812	1.201674
H71	H	1.613140	-0.241107	1.223862
H72	H	1.550878	-0.154604	1.236737
H73	H	1.696375	-0.158656	1.233476
H74	H	1.636109	-1.070251	0.623975
H75	H	1.595751	-0.740192	0.583682
O76	O	1.614582	-0.601157	0.602672
C77	C	1.671010	-0.649299	0.659129
H78	H	1.624863	-0.701722	0.659586
H79	H	1.683429	-0.628016	0.743192
H80	H	1.750364	-0.657089	0.620263
O81	O	1.349647	-0.601299	0.337576
C82	C	1.284302	-0.558777	0.399882
H83	H	1.276457	-0.580895	0.481298
H84	H	1.203513	-0.558006	0.361862
H85	H	1.320092	-0.503046	0.406867
O86	O	1.654886	-0.930988	0.642781
C87	C	1.644784	-0.858242	0.632734
H88	H	1.611015	-0.848262	0.552220
H89	H	1.725136	-0.830254	0.641607
H90	H	1.590035	-0.837384	0.696249
H91	H	1.724844	-0.261482	0.902095
O92	O	1.390083	-0.931499	0.377600
C93	C	1.327939	-0.979770	0.315372
H94	H	1.367867	-1.032146	0.308650
H95	H	1.318045	-0.958583	0.233849
H96	H	1.247654	-0.987614	0.353297
H97	H	1.102901	-0.257253	0.368999
H98	H	1.078432	-0.487901	0.592044
O99	O	1.341245	-0.746355	0.328777
C100	C	1.351309	-0.819101	0.338857
H101	H	1.431778	-0.829077	0.372740
H102	H	1.342568	-0.847079	0.258479
H103	H	1.287722	-0.839972	0.393500
O104	O	0.898594	-0.412834	0.718044
C105	C	0.840027	-0.352925	0.703083
H106	H	0.867211	-0.326970	0.628347
H107	H	0.852268	-0.314256	0.772921
H108	H	0.753245	-0.369105	0.695885
H109	H	1.371240	-0.420536	1.080888
