data_functionalizedCrystal
_audit_creation_method	'MofGen! by Chris Wilmer'
_symmetry_space_group_name_H-M	'P1'
_symmetry_Int_Tables_number	1
_symmetry_cell_setting	triclinic
loop_
_symmetry_equiv_pos_as_xyz
  x,y,z
_cell_length_a	11.169417
_cell_length_b	12.594516
_cell_length_c	11.169409
_cell_angle_alpha	90.033030
_cell_angle_beta	90.019824
_cell_angle_gamma	90.012694
loop_
_atom_site_label
_atom_site_type_symbol
_atom_site_fract_x
_atom_site_fract_y
_atom_site_fract_z
Zn1	Zn	1.834950	-0.423631	0.678537
Zn2	Zn	1.834834	-0.601657	0.477851
Zn3	Zn	1.634236	-0.423696	0.477871
Zn4	Zn	1.634238	-0.601571	0.678496
O5	O	1.734565	-0.512639	0.578189
O6	O	2.002884	-0.447256	0.651924
O7	O	1.808175	-0.578114	0.309904
O8	O	1.660909	-0.274741	0.504515
O9	O	2.002799	-0.578051	0.504482
O10	O	1.808372	-0.274694	0.651944
O11	O	1.660796	-0.447366	0.309919
O12	O	1.466287	-0.447282	0.504476
O13	O	1.660912	-0.577903	0.846452
O14	O	1.466288	-0.577966	0.651874
O15	O	1.808375	-0.447172	0.846481
O16	O	1.808177	-0.750591	0.504442
O17	O	1.660800	-0.750528	0.651855
C18	C	1.422740	-0.512623	0.578174
C19	C	1.289340	-0.512641	0.578195
C20	C	1.734509	-0.789180	0.578168
C21	C	1.734595	-0.907485	0.578199
C22	C	1.814846	-0.976734	0.498107
C23	C	1.844180	-1.047421	0.607650
C24	C	1.705412	-1.047597	0.468726
C25	C	1.763984	-0.976614	0.687800
C26	C	1.625165	-0.976783	0.548802
C27	C	1.654457	-1.047438	0.658421
C28	C	2.047607	-0.512656	0.578205
C29	C	2.181007	-0.512663	0.578212
C30	C	1.734657	-0.512520	0.891232
C31	C	1.734696	-0.512470	1.024632
C32	C	1.734653	-0.235018	0.578236
C33	C	1.734691	-0.116712	0.578256
C34	C	1.734542	-0.512680	0.266364
C35	C	1.734735	-0.512430	0.132965
H36	H	1.882723	-0.945688	0.430437
O37	O	1.514712	-0.939678	0.519279
C38	C	1.469247	-0.878058	0.614373
H39	H	1.515174	-0.902156	0.701372
H40	H	1.368698	-0.891742	0.622685
H41	H	1.487102	-0.790451	0.595960
H42	H	1.586632	-1.078288	0.726255
O43	O	1.676116	-1.084843	0.358221
C44	C	1.770447	-1.147983	0.313891
H45	H	1.857487	-1.124854	0.360431
H46	H	1.779858	-1.134911	0.213347
H47	H	1.750276	-1.235237	0.332047
O48	O	1.954700	-1.084401	0.637156
C49	C	2.038996	-1.048364	0.552480
H50	H	1.991304	-1.028589	0.465042
H51	H	2.108315	-1.113109	0.535731
H52	H	2.085534	-0.974255	0.588194
O53	O	1.793647	-0.939408	0.798223
C54	C	1.793257	-0.827467	0.796854
H55	H	1.806641	-0.798228	0.701217
H56	H	1.868922	-0.796471	0.855822
H57	H	1.703898	-0.797185	0.832415
