data_functionalizedCrystal
_audit_creation_method	'MofGen! by Chris Wilmer'
_symmetry_space_group_name_H-M	'P1'
_symmetry_Int_Tables_number	1
_symmetry_cell_setting	triclinic
loop_
_symmetry_equiv_pos_as_xyz
  x,y,z
_cell_length_a	18.215405
_cell_length_b	17.077404
_cell_length_c	17.077395
_cell_angle_alpha	90.015839
_cell_angle_beta	89.969669
_cell_angle_gamma	89.978046
loop_
_atom_site_label
_atom_site_type_symbol
_atom_site_fract_x
_atom_site_fract_y
_atom_site_fract_z
Zn1	Zn	-0.293051	-1.200014	-0.443830
Zn2	Zn	-0.416122	-1.199925	-0.312557
Zn3	Zn	-0.293067	-1.068754	-0.312577
Zn4	Zn	-0.416074	-1.068709	-0.443780
O5	O	-0.354579	-1.134351	-0.378186
O6	O	-0.309390	-1.309849	-0.426428
O7	O	-0.399825	-1.182507	-0.202712
O8	O	-0.190081	-1.086222	-0.330018
O9	O	-0.399809	-1.309784	-0.329983
O10	O	-0.190069	-1.182658	-0.426448
O11	O	-0.309418	-1.086136	-0.202728
O12	O	-0.309371	-0.958902	-0.329969
O13	O	-0.399728	-1.086145	-0.553633
O14	O	-0.399744	-0.958868	-0.426363
O15	O	-0.309343	-1.182614	-0.553670
O16	O	-0.519100	-1.182463	-0.329934
O17	O	-0.519065	-1.086059	-0.426343
C18	C	-0.354555	-0.930403	-0.378164
C19	C	-0.354562	-0.843153	-0.378173
C20	C	-0.307564	-0.802197	-0.428468
C21	C	-0.307567	-0.720217	-0.428469
C22	C	-0.354574	-0.679194	-0.378179
C23	C	-0.401574	-0.720155	-0.327879
C24	C	-0.401566	-0.802134	-0.327874
C25	C	-0.401588	-0.549285	-0.327894
C26	C	-0.401597	-0.467300	-0.327900
C27	C	-0.307589	-0.467368	-0.428490
C28	C	-0.307582	-0.549347	-0.428485
C29	C	-0.354583	-0.590303	-0.378185
C30	C	-0.545785	-1.134268	-0.378148
C31	C	-0.627584	-1.134304	-0.378158
C32	C	-0.815771	-1.184619	-0.328050
C33	C	-0.892630	-1.184655	-0.328069
C34	C	-0.892634	-1.084182	-0.428378
C35	C	-0.815776	-1.084152	-0.428362
C36	C	-0.777347	-1.134369	-0.378194
C37	C	-0.931063	-1.134435	-0.378229
C38	C	-1.014397	-1.134472	-0.378250
C39	C	-0.694008	-1.134333	-0.378174
C40	C	-0.162626	-1.134455	-0.378241
C41	C	-0.080827	-1.134500	-0.378265
C42	C	-0.354529	-1.134384	-0.582930
C43	C	-0.354507	-1.134399	-0.670180
C44	C	-0.354599	-0.339095	-0.378203
C45	C	-0.354599	-0.426345	-0.378195
C46	C	-0.307344	-1.184717	-1.046015
C47	C	-0.307370	-1.184701	-0.964035
C48	C	-0.354438	-1.134463	-0.923029
C49	C	-0.401488	-1.084244	-0.964009
C50	C	-0.401465	-1.084264	-1.045988
C51	C	-0.401530	-1.084203	-0.793138
C52	C	-0.401552	-1.084181	-0.711154
C53	C	-0.307435	-1.184640	-0.711186
C54	C	-0.307413	-1.184660	-0.793165
C55	C	-0.354462	-1.134440	-0.834138
C56	C	-0.354575	-1.134362	-0.174238
C57	C	-0.354389	-1.134500	-0.086989
H58	H	-0.439860	-0.582628	-0.286933
H59	H	-0.439862	-1.043255	-0.677769
C60	C	-0.453282	-0.675035	-0.272560
H61	H	-0.481267	-0.711170	-0.242601
H62	H	-0.485387	-0.643056	-0.302527
H63	H	-0.425088	-0.643052	-0.238412
H64	H	-0.269298	-0.686875	-0.469426
C65	C	-0.453299	-0.422175	-0.272579
H66	H	-0.481283	-0.458307	-0.242614
H67	H	-0.485405	-0.390197	-0.302545
H68	H	-0.425100	-0.390192	-0.238437
C69	C	-0.773498	-1.239855	-0.272871
H70	H	-0.722221	-1.232635	-0.280035
H71	H	-0.786047	-1.292595	-0.284408
H72	H	-0.786141	-1.228400	-0.220119
H73	H	-0.439845	-1.043310	-0.826497
H74	H	-0.439814	-1.043343	-0.930615
C75	C	-0.934894	-1.239926	-0.272908
H76	H	-0.900997	-1.269823	-0.243025
H77	H	-0.964831	-1.274123	-0.302971
H78	H	-0.964920	-1.209928	-0.238682
C79	C	-0.255859	-0.847320	-0.483788
H80	H	-0.262589	-0.902010	-0.476589
H81	H	-0.206400	-0.833896	-0.472399
H82	H	-0.266701	-0.833897	-0.536512
C83	C	-0.453263	-0.847188	-0.272551
H84	H	-0.446521	-0.901887	-0.279745
H85	H	-0.502726	-0.833744	-0.283940
H86	H	-0.442423	-0.833737	-0.219830
C87	C	-0.934908	-1.028940	-0.483550
H88	H	-0.986185	-1.036148	-0.476372
H89	H	-0.922271	-1.040382	-0.536302
H90	H	-0.922355	-0.976199	-0.472000
C91	C	-0.773507	-1.028872	-0.483522
H92	H	-0.807400	-0.998961	-0.513394
H93	H	-0.743480	-1.058866	-0.517745
H94	H	-0.743570	-0.994677	-0.453449
C95	C	-0.255571	-1.239981	-1.091114
H96	H	-0.227562	-1.269892	-1.054967
H97	H	-0.223490	-1.209985	-1.123103
H98	H	-0.283726	-1.274177	-1.123085
H99	H	-0.269063	-1.225595	-0.930678
H100	H	-0.439775	-1.043373	-1.079347
H101	H	-0.269124	-1.225530	-0.677821
C102	C	-0.255875	-0.594472	-0.483801
H103	H	-0.227879	-0.558340	-0.513753
H104	H	-0.284065	-0.626457	-0.517945
H105	H	-0.223769	-0.626449	-0.453825
C106	C	-0.255887	-0.422321	-0.483817
H107	H	-0.262616	-0.367622	-0.476613
H108	H	-0.266723	-0.435770	-0.536536
H109	H	-0.206422	-0.435769	-0.472423
C110	C	-0.255640	-1.239921	-0.838269
H111	H	-0.227627	-1.269833	-0.802127
H112	H	-0.223563	-1.209921	-0.870259
H113	H	-0.283796	-1.274115	-0.870241
