data_functionalizedCrystal
_audit_creation_method	'MofGen! by Chris Wilmer'
_symmetry_space_group_name_H-M	'P1'
_symmetry_Int_Tables_number	1
_symmetry_cell_setting	triclinic
loop_
_symmetry_equiv_pos_as_xyz
  x,y,z
_cell_length_a	14.044220
_cell_length_b	14.519731
_cell_length_c	12.996460
_cell_angle_alpha	90.001112
_cell_angle_beta	90.007391
_cell_angle_gamma	88.438865
loop_
_atom_site_label
_atom_site_type_symbol
_atom_site_fract_x
_atom_site_fract_y
_atom_site_fract_z
O1	O	0.124370	1.233882	0.085572
O2	O	0.374370	1.483882	0.335572
O3	O	0.624370	1.733882	0.585572
O4	O	0.874370	1.983882	0.835572
O5	O	0.138984	0.966587	0.085574
O6	O	0.388984	1.216587	0.335574
O7	O	0.638984	1.466587	0.585574
O8	O	0.888984	1.716587	0.835574
O9	O	-0.006314	1.096222	0.085563
O10	O	0.243686	1.346222	0.335563
O11	O	0.493686	1.596222	0.585563
O12	O	0.743686	1.846222	0.835563
O13	O	0.269669	1.104246	0.085583
O14	O	0.519669	1.354246	0.335583
O15	O	0.769669	1.604246	0.585583
O16	O	1.019669	1.854246	0.835583
O17	O	-0.006324	1.096219	-0.085571
O18	O	0.243676	1.346219	0.164429
O19	O	0.493676	1.596219	0.414429
O20	O	0.743676	1.846219	0.664429
O21	O	0.138975	0.966583	-0.085560
O22	O	0.388975	1.216583	0.164440
O23	O	0.638975	1.466583	0.414440
O24	O	0.888975	1.716583	0.664440
O25	O	0.124361	1.233879	-0.085562
O26	O	0.374361	1.483879	0.164438
O27	O	0.624361	1.733879	0.414438
O28	O	0.874361	1.983879	0.664438
Cu29	Cu	0.131667	1.100231	-0.101187
Cu30	Cu	0.381667	1.350231	0.148813
Cu31	Cu	0.631667	1.600231	0.398813
Cu32	Cu	0.881667	1.850231	0.648813
Cu33	Cu	0.131678	1.100235	0.101199
Cu34	Cu	0.381678	1.350235	0.351199
Cu35	Cu	0.631678	1.600235	0.601199
Cu36	Cu	0.881678	1.850235	0.851199
O37	O	0.269659	1.104243	-0.085551
O38	O	0.519659	1.354243	0.164449
O39	O	0.769659	1.604243	0.414449
O40	O	1.019659	1.854243	0.664449
C41	C	0.138295	0.932170	0.000007
C42	C	0.388295	1.182170	0.250007
C43	C	0.638295	1.432170	0.500007
C44	C	0.888295	1.682170	0.750007
C45	C	0.136243	0.829625	0.000008
C46	C	0.386243	1.079625	0.250008
C47	C	0.636243	1.329625	0.500008
C48	C	0.886243	1.579625	0.750008
C49	C	0.134575	0.746346	0.000012
C50	C	0.384575	0.996346	0.250012
C51	C	0.634575	1.246346	0.500012
C52	C	0.884575	1.496346	0.750012
C53	C	0.132492	0.641869	0.000012
C54	C	0.382492	0.891869	0.250012
C55	C	0.632492	1.141869	0.500012
C56	C	0.882492	1.391869	0.750012
C57	C	0.130839	0.558597	0.000012
C58	C	0.380839	0.808597	0.250012
C59	C	0.630839	1.058597	0.500012
C60	C	0.880839	1.308597	0.750012
C61	C	0.128756	0.454113	0.000014
C62	C	0.378756	0.704113	0.250014
C63	C	0.628756	0.954113	0.500014
C64	C	0.878756	1.204113	0.750014
C65	C	-0.041640	1.092708	-0.000004
C66	C	0.208360	1.342708	0.249996
C67	C	0.458360	1.592708	0.499996
C68	C	0.708360	1.842708	0.749996
C69	C	-0.146884	1.082231	-0.000006
C70	C	0.103116	1.332231	0.249994
C71	C	0.353116	1.582231	0.499994
C72	C	0.603116	1.832231	0.749994
C73	C	-0.339580	1.063077	0.000009
C74	C	-0.089580	1.313077	0.250009
C75	C	0.160420	1.563077	0.500009
C76	C	0.410420	1.813077	0.750009
C77	C	-0.397081	1.137385	0.000012
C78	C	-0.147081	1.387385	0.250012
C79	C	0.102919	1.637385	0.500012
C80	C	0.352919	1.887385	0.750012
C81	C	-0.504303	1.126727	0.000020
C82	C	-0.254303	1.376727	0.250020
C83	C	-0.004303	1.626727	0.500020
C84	C	0.245697	1.876727	0.750020
C85	C	-0.232347	1.073733	0.000001
C86	C	0.017653	1.323733	0.250001
C87	C	0.267653	1.573733	0.500001
C88	C	0.517653	1.823733	0.750001
C89	C	0.304985	1.107757	0.000019
C90	C	0.554985	1.357757	0.250019
C91	C	0.804985	1.607757	0.500019
C92	C	1.054985	1.857757	0.750019
C93	C	0.410229	1.118234	0.000027
C94	C	0.660229	1.368234	0.250027
C95	C	0.910229	1.618234	0.500027
C96	C	1.160229	1.868234	0.750027
C97	C	0.125050	1.268295	0.000007
C98	C	0.375050	1.518295	0.250007
C99	C	0.625050	1.768295	0.500007
C100	C	0.875050	2.018295	0.750007
C101	C	0.127102	1.370841	0.000014
C102	C	0.377102	1.620841	0.250014
C103	C	0.627102	1.870841	0.500014
C104	C	0.877102	2.120841	0.750014
N105	N	0.131679	1.100237	0.243546
N106	N	0.381679	1.350237	0.493546
N107	N	0.631679	1.600237	0.743546
N108	N	0.881679	1.850237	0.993546
N109	N	0.131658	1.100235	-0.243534
N110	N	0.381658	1.350235	0.006466
N111	N	0.631658	1.600235	0.256466
N112	N	0.881658	1.850235	0.506466
C113	C	0.131670	1.100232	0.663360
C114	C	0.381670	1.350232	0.913360
C115	C	0.631670	1.600232	1.163360
C116	C	0.881670	1.850232	1.413360
C117	C	0.131675	1.100231	0.546555
C118	C	0.381675	1.350231	0.796555
C119	C	0.631675	1.600231	1.046555
C120	C	0.881675	1.850231	1.296555
C121	C	0.131674	1.100234	0.453457
C122	C	0.381674	1.350234	0.703457
C123	C	0.631674	1.600234	0.953457
C124	C	0.881674	1.850234	1.203457
C125	C	0.131680	1.100234	0.336644
C126	C	0.381680	1.350234	0.586644
C127	C	0.631680	1.600234	0.836644
C128	C	0.881680	1.850234	1.086644
H129	H	-0.365783	1.209006	0.000080
H130	H	-0.115783	1.459006	0.250080
H131	H	0.134217	1.709006	0.500080
H132	H	0.384217	1.959006	0.750080
H133	H	-0.370876	0.991461	0.000012
H134	H	-0.120876	1.241461	0.250012
H135	H	0.129124	1.491461	0.500012
H136	H	0.379124	1.741461	0.750012
