data_functionalizedCrystal
_audit_creation_method	'MofGen! by Chris Wilmer'
_symmetry_space_group_name_H-M	'P1'
_symmetry_Int_Tables_number	1
_symmetry_cell_setting	triclinic
loop_
_symmetry_equiv_pos_as_xyz
  x,y,z
_cell_length_a	19.077105
_cell_length_b	12.759399
_cell_length_c	19.076919
_cell_angle_alpha	87.725577
_cell_angle_beta	89.923776
_cell_angle_gamma	87.711582
loop_
_atom_site_label
_atom_site_type_symbol
_atom_site_fract_x
_atom_site_fract_y
_atom_site_fract_z
Zn1	Zn	1.058325	-0.508276	0.440434
Zn2	Zn	1.558325	-0.008276	0.940434
Zn3	Zn	1.062983	-0.677203	0.322932
Zn4	Zn	1.562983	-0.177203	0.822932
Zn5	Zn	0.945542	-0.494201	0.318226
Zn6	Zn	1.445542	0.005799	0.818226
Zn7	Zn	0.940805	-0.676569	0.435685
Zn8	Zn	1.440805	-0.176569	0.935685
O9	O	1.001914	-0.589062	0.379319
O10	O	1.501914	-0.089062	0.879319
O11	O	1.157276	-0.536839	0.428803
O12	O	1.657276	-0.036839	0.928803
O13	O	1.051336	-0.647302	0.223976
O14	O	1.551336	-0.147302	0.723976
O15	O	0.960535	-0.349050	0.334456
O16	O	1.460535	0.150950	0.834456
O17	O	1.160698	-0.660949	0.342476
O18	O	1.660698	-0.160949	0.842476
O19	O	1.043397	-0.359391	0.424241
O20	O	1.543397	0.140609	0.924241
O21	O	0.965052	-0.512852	0.220519
O22	O	1.465052	-0.012852	0.720519
O23	O	0.846581	-0.512237	0.329851
O24	O	1.346581	-0.012237	0.829851
O25	O	0.952463	-0.659869	0.534646
O26	O	1.452463	-0.159869	1.034646
O27	O	0.843101	-0.646222	0.416147
O28	O	1.343101	-0.146222	0.916147
O29	O	1.038804	-0.536225	0.538135
O30	O	1.538804	-0.036225	1.038135
O31	O	1.046743	-0.824136	0.337871
O32	O	1.546743	-0.324136	0.837871
O33	O	0.956979	-0.823671	0.420709
O34	O	1.456979	-0.323671	0.920709
C35	C	0.819344	-0.577635	0.371973
C36	C	1.319344	-0.077635	0.871973
C37	C	0.741240	-0.572772	0.368847
C38	C	1.241240	-0.072772	0.868847
C39	C	1.001871	-0.862026	0.379301
C40	C	1.501871	-0.362026	0.879301
C41	C	1.001917	-0.978806	0.379320
C42	C	1.501917	-0.478806	0.879320
C43	C	0.702755	-0.640344	0.412238
C44	C	1.202755	-0.140344	0.912238
C45	C	0.629367	-0.635761	0.409304
C46	C	1.129367	-0.135761	0.909304
C47	C	0.594465	-0.563611	0.362976
C48	C	1.094465	-0.063611	0.862976
C49	C	0.632955	-0.496033	0.319583
C50	C	1.132955	0.003967	0.819583
C51	C	0.706341	-0.500611	0.322521
C52	C	1.206341	-0.000611	0.822521
C53	C	0.375176	-0.542424	0.349382
C54	C	0.875176	-0.042424	0.849382
C55	C	0.301784	-0.537853	0.346446
C56	C	0.801784	-0.037853	0.846446
C57	C	0.298202	-0.677580	0.436168
C58	C	0.798202	-0.177580	0.936168
C59	C	0.371590	-0.682156	0.439099
C60	C	0.871590	-0.182156	0.939099
C61	C	0.410073	-0.614574	0.395709
C62	C	0.910073	-0.114574	0.895709
N63	N	0.519451	-0.558928	0.359974
N64	N	1.019451	-0.058928	0.859974
N65	N	0.485085	-0.619253	0.398715
N66	N	0.985085	-0.119253	0.898715
C67	C	1.048706	-1.033882	0.336239
C68	C	1.548706	-0.533882	0.836239
C69	C	1.048750	-1.143610	0.336264
C70	C	1.548750	-0.643610	0.836264
C71	C	0.955209	-1.143177	0.422453
C72	C	1.455209	-0.643177	0.922453
C73	C	0.955169	-1.033451	0.422431
C74	C	1.455169	-0.533451	0.922431
C75	C	1.132698	-1.297227	0.314590
C76	C	1.632698	-0.797227	0.814590
C77	C	1.179482	-1.352305	0.271497
C78	C	1.679482	-0.852305	0.771497
C79	C	1.193053	-1.313482	0.203371
C80	C	1.693053	-0.813482	0.703371
C81	C	1.159831	-1.219581	0.178322
C82	C	1.659831	-0.719581	0.678322
C83	C	1.113042	-1.164508	0.221411
C84	C	1.613042	-0.664508	0.721411
C85	C	1.099484	-1.203331	0.289547
C86	C	1.599484	-0.703331	0.789547
C87	C	0.871220	-0.879832	0.444098
C88	C	1.371220	-0.379832	0.944098
C89	C	0.824428	-0.824756	0.487184
C90	C	1.324428	-0.324756	0.987184
C91	C	0.810849	-0.863577	0.555311
C92	C	1.310849	-0.363577	1.055311
C93	C	0.844059	-0.957481	0.580357
C94	C	1.344059	-0.457481	1.080357
C95	C	0.890852	-1.012557	0.537271
C96	C	1.390852	-0.512557	1.037271
C97	C	0.904431	-0.973728	0.469145
C98	C	1.404431	-0.473728	0.969145
C99	C	1.185196	-0.600535	0.386694
C100	C	1.685196	-0.100535	0.886694
C101	C	1.263300	-0.605424	0.389837
C102	C	1.763300	-0.105424	0.889837
C103	C	0.994585	-0.599547	0.562600
C104	C	1.494585	-0.099547	1.062600
C105	C	0.991463	-0.604014	0.640703
C106	C	1.491463	-0.104014	1.140703
C107	C	1.001975	-0.315035	0.379353
C108	C	1.501975	0.184965	0.879353
C109	C	1.002001	-0.198260	0.379367
C110	C	1.502001	0.301740	0.879367
C111	C	1.009254	-0.578545	0.196753
C112	C	1.509254	-0.078545	0.696753
C113	C	1.012513	-0.573790	0.118656
C114	C	1.512513	-0.073790	0.618656
C115	C	1.034947	-0.541741	0.679214
C116	C	1.534947	-0.041741	1.179214
C117	C	1.032004	-0.545935	0.752599
C118	C	1.532004	-0.045935	1.252599
C119	C	0.985580	-0.612408	0.787473
C120	C	1.485580	-0.112408	1.287473
C121	C	0.942091	-0.674683	0.748957
C122	C	1.442091	-0.174683	1.248957
C123	C	0.945031	-0.670483	0.675573
C124	C	1.445031	-0.170483	1.175573
C125	C	0.971964	-0.631866	1.006755
C126	C	1.471964	-0.131866	1.506755
C127	C	0.969029	-0.636063	1.080145
C128	C	1.469029	-0.136063	1.580145
C129	C	1.058941	-0.507313	1.083782
C130	C	1.558941	-0.007313	1.583782
C131	C	1.061880	-0.503124	1.010396
C132	C	1.561880	-0.003124	1.510396
C133	C	1.018388	-0.565395	0.971886
C134	C	1.518388	-0.065395	1.471886
N135	N	0.982572	-0.616698	0.862486
N136	N	1.482572	-0.116698	1.362486
N137	N	1.021393	-0.561098	0.896875
N138	N	1.521393	-0.061098	1.396875
H139	H	0.731167	-0.699099	0.449961
H140	H	1.231167	-0.199099	0.949961
H141	H	0.904289	-0.728803	0.777358
H142	H	1.404289	-0.228803	1.277358
H143	H	1.086771	-0.989393	0.301136
H144	H	1.586771	-0.489393	0.801136
Cl145	Cl	0.896443	-1.211881	0.476645
Cl146	Cl	1.396443	-0.711881	0.976645
Cl147	Cl	0.257909	-0.447151	0.288195
Cl148	Cl	0.757909	0.052849	0.788195
Cl149	Cl	1.120244	-0.419555	0.966560
Cl150	Cl	1.620244	0.080445	1.466560
Cl151	Cl	0.888292	-0.831018	0.358450
Cl152	Cl	1.388292	-0.331018	0.858450
Cl153	Cl	1.071276	-1.046472	0.189926
Cl154	Cl	1.571276	-0.546472	0.689926
Cl155	Cl	1.113609	-0.429030	1.132198
Cl156	Cl	1.613609	0.070970	1.632198
Cl157	Cl	1.176887	-1.170787	0.092669
Cl158	Cl	1.676887	-0.670787	0.592669
Cl159	Cl	1.093315	-0.458176	0.635379
Cl160	Cl	1.593315	0.041824	1.135379
Cl161	Cl	1.251867	-1.382726	0.149200
Cl162	Cl	1.751867	-0.882726	0.649200
Cl163	Cl	0.932603	-1.130608	0.568759
Cl164	Cl	1.432603	-0.630608	1.068759
H165	H	0.833003	-0.989090	0.635832
H166	H	1.333003	-0.489090	1.135832
Cl167	Cl	0.917289	-0.710151	0.958353
Cl168	Cl	1.417289	-0.210151	1.458353
Cl169	Cl	0.890361	-0.748770	0.627159
Cl170	Cl	1.390361	-0.248770	1.127159
H171	H	1.206531	-1.428760	0.291899
H172	H	1.706531	-0.928760	0.791899
H173	H	1.067415	-0.495228	0.783952
H174	H	1.567415	0.004772	1.283952
H175	H	0.772745	-0.818725	0.590389
H176	H	1.272745	-0.318725	1.090389
H177	H	0.931223	-0.690195	1.108537
H178	H	1.431223	-0.190195	1.608537
Cl179	Cl	1.115650	-1.346032	0.400243
Cl180	Cl	1.615650	-0.846032	0.900243
Cl181	Cl	0.754722	-0.415658	0.267973
Cl182	Cl	1.254722	0.084342	0.767973
Cl183	Cl	0.580990	-0.720713	0.463855
Cl184	Cl	1.080990	-0.220713	0.963855
H185	H	0.406500	-0.487401	0.314046
H186	H	0.906500	0.012599	0.814046
H187	H	0.400002	-0.740910	0.476823
H188	H	0.900002	-0.240910	0.976823
H189	H	0.266861	-0.732600	0.471495
H190	H	0.766861	-0.232600	0.971495
H191	H	0.797391	-0.748290	0.466787
H192	H	1.297391	-0.248290	0.966787
H193	H	0.604532	-0.437283	0.281865
H194	H	1.104532	0.062717	0.781865
