data_functionalizedCrystal
_audit_creation_method	'MofGen! by Chris Wilmer'
_symmetry_space_group_name_H-M	'P1'
_symmetry_Int_Tables_number	1
_symmetry_cell_setting	triclinic
loop_
_symmetry_equiv_pos_as_xyz
  x,y,z
_cell_length_a	10.967926
_cell_length_b	17.000371
_cell_length_c	10.065875
_cell_angle_alpha	98.088470
_cell_angle_beta	93.120479
_cell_angle_gamma	80.258678
loop_
_atom_site_label
_atom_site_type_symbol
_atom_site_fract_x
_atom_site_fract_y
_atom_site_fract_z
O1	O	1.598262	0.138363	0.262407
O2	O	1.247979	0.140628	0.180020
O3	O	1.444869	0.024276	0.226338
O4	O	1.401372	0.254715	0.216089
O5	O	1.407315	0.046556	0.444492
O6	O	1.210425	0.162908	0.398174
O7	O	1.560708	0.160643	0.480561
Zn8	Zn	1.379604	0.165313	0.474004
Zn9	Zn	1.429083	0.135958	0.186577
O10	O	1.363818	0.276995	0.434243
C11	C	1.184604	0.149920	0.278607
C12	C	1.051717	0.144403	0.247352
C13	C	0.973017	0.153485	0.346428
C14	C	0.835671	0.147783	0.314127
C15	C	1.428428	0.005832	0.335964
C16	C	1.435376	-0.082321	0.337597
C17	C	1.328461	-0.117522	0.312445
C18	C	1.334996	-0.200351	0.313985
C19	C	1.448448	-0.247977	0.340669
C20	C	1.555370	-0.212770	0.365828
C21	C	1.548833	-0.129942	0.364296
C22	C	1.473698	-0.498374	0.346599
C23	C	1.480228	-0.581208	0.348125
C24	C	1.259852	-0.568783	0.296284
C25	C	1.253326	-0.485954	0.294747
C26	C	1.360247	-0.450754	0.319913
C27	C	1.455131	-0.332642	0.342241
C28	C	1.353561	-0.366089	0.318350
C29	C	1.624084	0.151351	0.381971
C30	C	1.756972	0.156867	0.413217
C31	C	1.380259	0.295439	0.324614
C32	C	1.373313	0.383591	0.322972
N33	N	1.345845	0.185347	0.670168
N34	N	1.462853	0.115919	-0.009585
C35	C	1.417330	0.142923	0.754764
C36	C	1.391357	0.158348	0.905821
H37	H	0.791269	0.168862	0.521961
C38	C	1.005381	0.128195	0.100451
N39	N	0.970483	0.115988	-0.010198
C40	C	1.591316	-0.459665	0.374274
N41	N	1.679912	-0.430507	0.395119
C42	C	1.228768	-0.313699	0.288995
N43	N	1.134775	-0.274231	0.266876
H44	H	1.265410	0.233084	0.709572
C45	C	1.142243	-0.607508	0.268627
N46	N	1.053654	-0.636676	0.247804
H47	H	1.236077	-0.078751	0.290709
C48	C	1.571524	0.051423	0.937197
N49	N	1.653377	0.002847	0.897113
H50	H	1.647744	-0.251553	0.387563
C51	C	1.525972	0.078413	0.701530
N52	N	1.607798	0.029819	0.661436
C53	C	1.282687	0.222844	0.959042
N54	N	1.200838	0.271422	0.999131
H55	H	1.007322	0.165477	0.455164
C56	C	1.666448	-0.091221	0.391962
N57	N	1.755040	-0.062058	0.412804
H58	H	0.801374	0.135784	0.205384
H59	H	1.247936	-0.229008	0.293494
H60	H	1.547504	-0.371428	0.363965
H61	H	1.160942	-0.447182	0.273015
H62	H	1.572620	-0.619985	0.369846
