data_functionalizedCrystal
_audit_creation_method	'MofGen! by Chris Wilmer'
_symmetry_space_group_name_H-M	'P1'
_symmetry_Int_Tables_number	1
_symmetry_cell_setting	triclinic
loop_
_symmetry_equiv_pos_as_xyz
  x,y,z
_cell_length_a	10.540535
_cell_length_b	10.540514
_cell_length_c	9.016244
_cell_angle_alpha	90.003307
_cell_angle_beta	89.998832
_cell_angle_gamma	84.519401
loop_
_atom_site_label
_atom_site_type_symbol
_atom_site_fract_x
_atom_site_fract_y
_atom_site_fract_z
O1	O	1.685874	0.178866	-0.123248
O2	O	1.316458	0.195728	-0.123267
O3	O	1.509611	0.002589	-0.123259
O4	O	1.492721	0.372006	-0.123256
O5	O	1.509595	0.002600	0.123422
O6	O	1.316443	0.195740	0.123413
O7	O	1.685858	0.178878	0.123433
Cu8	Cu	1.501149	0.187310	0.145947
Cu9	Cu	1.501167	0.187296	-0.145782
O10	O	1.492706	0.372018	0.123425
C11	C	1.269148	0.194471	0.000070
C12	C	1.128200	0.190691	0.000062
C13	C	1.091542	0.049675	0.000067
C14	C	0.944942	0.045698	0.000641
C15	C	0.918849	0.255069	0.140673
C16	C	1.065614	0.258069	0.140777
C17	C	1.065515	0.260108	-0.139755
C18	C	0.919170	0.253586	-0.141589
C19	C	1.508343	-0.044709	0.000077
C20	C	1.504574	-0.185659	0.000066
C21	C	1.642714	-0.256367	0.000077
C22	C	1.638840	-0.402980	0.000647
C23	C	1.429438	-0.377986	0.140667
C24	C	1.434292	-0.231447	0.140775
C25	C	1.432265	-0.231062	-0.139757
C26	C	1.430932	-0.378041	-0.141595
C27	C	1.733169	0.180135	0.000092
C28	C	1.874117	0.183915	0.000090
C29	C	1.493973	0.419315	0.000085
C30	C	1.497743	0.560265	0.000086
N31	N	1.501146	0.187319	0.351133
N32	N	1.501181	0.187277	-0.350968
C33	C	1.397777	0.290620	0.414099
C34	C	1.397424	0.290323	0.585990
C35	C	1.471602	0.054403	0.586605
C36	C	1.470839	0.055032	0.414661
C37	C	1.634406	0.215695	0.414478
C38	C	1.633561	0.218672	0.586434
H39	H	0.871483	0.356836	0.145506
H40	H	0.887945	0.206261	0.245698
H41	H	1.325806	-0.400299	0.145492
H42	H	1.698751	-0.227852	-0.100734
C43	C	1.492706	-0.435475	0.282556
H44	H	1.450695	-0.397500	0.367035
H45	H	1.579905	-0.419602	0.284171
H46	H	1.486531	-0.524795	0.284005
C47	C	1.738343	0.113967	0.359462
H48	H	1.818645	0.131614	0.398113
H49	H	1.741227	0.115273	0.254174
H50	H	1.719278	0.032245	0.392183
C51	C	1.119894	0.193163	0.283273
H52	H	1.209889	0.194426	0.284596
H53	H	1.099193	0.107432	0.285806
H54	H	1.084093	0.237607	0.367337
C55	C	1.711059	-0.459360	0.137608
H56	H	1.708939	-0.549262	0.138422
H57	H	1.671744	-0.424051	0.225054
H58	H	1.797057	-0.439566	0.133835
H59	H	1.478253	-0.199572	-0.246347
C60	C	1.339519	0.021638	0.360495
H61	H	1.337895	0.021729	0.255143
H62	H	1.275197	0.083021	0.396929
H63	H	1.324457	-0.060448	0.395986
C64	C	1.498349	-0.433439	-0.282099
H65	H	1.566922	-0.493920	-0.254548
H66	H	1.530318	-0.366640	-0.337301
H67	H	1.439394	-0.473965	-0.341120
H68	H	1.328090	-0.402234	-0.150515
H69	H	1.087691	0.363860	-0.141114
H70	H	0.915615	-0.009948	-0.100114
H71	H	1.692564	-0.445651	-0.100103
C72	C	1.297220	-0.166580	0.148879
H73	H	1.299255	-0.076665	0.148994
H74	H	1.257611	-0.192042	0.237233
H75	H	1.250235	-0.191003	0.065391
H76	H	1.543231	-0.024237	0.373003
H77	H	1.330366	-0.183819	-0.141107
H78	H	1.298561	0.272001	0.627147
H79	H	0.870113	0.354460	-0.150514
C80	C	1.421352	0.423674	0.643022
H81	H	1.431369	0.478519	0.561104
H82	H	1.496516	0.417664	0.701734
H83	H	1.350911	0.457122	0.701391
H84	H	1.544875	-0.024401	0.627435
H85	H	1.088636	0.361445	0.146785
H86	H	1.697965	-0.226045	0.100673
H87	H	1.714154	0.148432	0.629347
H88	H	1.484165	-0.203217	0.246270
C89	C	1.122874	0.200654	-0.283756
H90	H	1.185594	0.132931	-0.259948
H91	H	1.161023	0.263687	-0.339011
H92	H	1.057389	0.168631	-0.341132
C93	C	1.341793	0.020202	0.644786
H94	H	1.305457	0.086716	0.707104
H95	H	1.353379	-0.056952	0.699686
H96	H	1.286447	0.009771	0.563449
C97	C	1.672566	0.343932	0.355925
H98	H	1.607574	0.381369	0.292294
H99	H	1.750258	0.330126	0.302346
H100	H	1.683376	0.399429	0.437022
C101	C	1.663874	0.350729	0.641546
H102	H	1.744064	0.369177	0.603297
H103	H	1.666740	0.350882	0.746849
H104	H	1.599519	0.413606	0.608465
C105	C	1.148282	-0.023504	-0.136078
H106	H	1.194841	0.031282	-0.194145
H107	H	1.081408	-0.052288	-0.193986
H108	H	1.203641	-0.094649	-0.104086
H109	H	1.134998	-0.003564	0.100733
H110	H	1.415200	0.389672	0.372770
C111	C	0.906491	-0.029079	0.137591
H112	H	0.980510	-0.057130	0.193098
H113	H	0.865161	-0.100768	0.106472
H114	H	0.850096	0.024547	0.197715
H115	H	0.890578	0.201805	-0.245594
H116	H	1.299458	0.272563	0.370914
