data_functionalizedCrystal
_audit_creation_method	'MofGen! by Chris Wilmer'
_symmetry_space_group_name_H-M	'P1'
_symmetry_Int_Tables_number	1
_symmetry_cell_setting	triclinic
loop_
_symmetry_equiv_pos_as_xyz
  x,y,z
_cell_length_a	16.109301
_cell_length_b	8.559649
_cell_length_c	15.186229
_cell_angle_alpha	89.998040
_cell_angle_beta	89.999362
_cell_angle_gamma	76.620073
loop_
_atom_site_label
_atom_site_type_symbol
_atom_site_fract_x
_atom_site_fract_y
_atom_site_fract_z
O1	O	1.090045	0.205389	-0.073169
O2	O	0.846355	0.230949	-0.073183
O3	O	0.989670	-0.014444	-0.073174
O4	O	0.946731	0.450782	-0.073178
O5	O	0.989661	-0.014447	0.073283
O6	O	0.846347	0.230946	0.073274
O7	O	1.090037	0.205386	0.073288
Zn8	Zn	0.968191	0.218165	0.096534
Zn9	Zn	0.968202	0.218170	-0.096429
O10	O	0.946723	0.450779	0.073279
C11	C	0.815442	0.229912	0.000044
C12	C	0.723344	0.226808	0.000039
C13	C	0.492255	0.365202	0.000048
C14	C	0.405721	0.362273	0.000053
C15	C	0.444145	0.071122	0.000052
C16	C	0.530677	0.074053	0.000053
C17	C	0.554729	0.221098	0.000046
C18	C	0.381663	0.215238	0.000051
C19	C	0.287840	0.212061	0.000057
C20	C	0.648558	0.224275	0.000042
C21	C	0.992919	-0.073977	0.000053
C22	C	1.002605	-0.251362	0.000049
C23	C	1.120950	0.206423	0.000059
C24	C	1.213048	0.209527	0.000059
C25	C	0.943473	0.510312	0.000050
C26	C	0.933787	0.687697	0.000049
N27	N	0.968189	0.218161	0.228227
N28	N	0.968210	0.218161	-0.228122
C29	C	1.031666	0.109538	0.453954
C30	C	1.031669	0.109534	0.546144
C31	C	0.904727	0.326790	0.546145
C32	C	0.904722	0.326785	0.453957
C33	C	0.968196	0.218161	0.407864
C34	C	0.968204	0.218162	0.592241
C35	C	0.968207	0.218159	0.692198
C36	C	0.968192	0.218161	0.307901
H37	H	0.354857	0.479618	0.000056
H38	H	1.068938	-0.334903	0.000060
O39	O	0.843057	0.432091	0.591021
C40	C	0.797225	0.346490	0.644340
H41	H	0.838322	0.221469	0.658150
H42	H	0.779822	0.413182	0.709166
H43	H	0.736473	0.335601	0.608820
H44	H	0.581547	-0.043302	0.000054
H45	H	0.867458	-0.228771	0.000048
H46	H	0.424550	-0.048597	0.000063
H47	H	1.083349	0.021087	0.416427
O48	O	1.093305	0.003802	0.590818
C49	C	1.089881	-0.154388	0.568311
H50	H	1.057820	-0.154208	0.501378
H51	H	1.157396	-0.233043	0.565153
H52	H	1.051660	-0.203830	0.620199
O53	O	0.515474	0.508174	0.000088
C54	C	0.441773	0.634734	0.000070
H55	H	0.385723	0.589961	0.027796
H56	H	0.453337	0.737389	0.042593
H57	H	0.426661	0.679193	-0.070192
O58	O	0.843022	0.432464	0.409315
C59	C	0.786992	0.528322	0.469764
H60	H	0.820962	0.530158	0.535477
H61	H	0.766158	0.655922	0.443120
H62	H	0.728549	0.476403	0.479576
