data_functionalizedCrystal
_audit_creation_method	'MofGen! by Chris Wilmer'
_symmetry_space_group_name_H-M	'P1'
_symmetry_Int_Tables_number	1
_symmetry_cell_setting	triclinic
loop_
_symmetry_equiv_pos_as_xyz
  x,y,z
_cell_length_a	13.339070
_cell_length_b	12.837943
_cell_length_c	11.892095
_cell_angle_alpha	94.310562
_cell_angle_beta	94.950121
_cell_angle_gamma	74.770883
loop_
_atom_site_label
_atom_site_type_symbol
_atom_site_fract_x
_atom_site_fract_y
_atom_site_fract_z
O1	O	0.264493	-1.458153	-0.093975
O2	O	0.251131	-1.152505	-0.093982
O3	O	0.107167	-1.270251	-0.093976
O4	O	0.408457	-1.340408	-0.093981
O5	O	0.119150	-1.260427	0.094031
O6	O	0.263114	-1.142682	0.094025
O7	O	0.276476	-1.448330	0.094032
Zn8	Zn	0.271697	-1.293946	0.123879
Zn9	Zn	0.255909	-1.306889	-0.123828
O10	O	0.420439	-1.330585	0.094026
C11	C	0.252608	-1.107675	0.000021
C12	C	0.239146	-0.988726	0.000018
C13	C	0.074327	-1.253488	0.000026
C14	C	-0.041381	-1.218164	0.000021
C15	C	0.274998	-1.493161	0.000027
C16	C	0.288460	-1.612110	0.000023
C17	C	-0.379696	-1.492830	0.000028
C18	C	-0.270983	-1.526022	0.000039
C19	C	-0.213577	-1.449060	0.000034
C20	C	-0.264895	-1.338901	0.000018
C21	C	-0.373618	-1.305705	0.000016
C22	C	-0.207499	-1.261935	0.000022
C23	C	-0.258817	-1.151776	0.000007
C24	C	-0.367530	-1.118585	0.000003
C25	C	-0.424936	-1.195547	0.000008
C26	C	-0.098776	-1.295131	0.000025
C27	C	-0.092698	-1.108006	0.000013
C28	C	-0.201411	-1.074814	0.000002
C29	C	0.453280	-1.347347	0.000022
C30	C	0.568986	-1.382672	0.000020
N31	N	0.282472	-1.285121	0.292933
C32	C	0.400986	-0.794315	0.000032
C33	C	0.388342	-0.682553	0.000030
C34	C	0.201215	-0.653436	0.000021
C35	C	0.213859	-0.765199	0.000023
C36	C	0.313748	-0.835635	0.000026
C37	C	0.326390	-0.947400	0.000020
C38	C	0.139265	-0.918281	0.000019
C39	C	0.126621	-0.806519	0.000017
N40	N	0.245127	-1.315720	-0.292882
C41	C	0.170089	-1.377114	0.529585
C42	C	0.177629	-1.370955	0.647927
C43	C	0.305086	-1.266638	0.647959
C44	C	0.297546	-1.272797	0.529618
C45	C	0.230047	-1.328038	0.470435
C46	C	0.222513	-1.334203	0.352091
C47	C	0.349963	-1.229880	0.352126
C48	C	0.357503	-1.223721	0.470468
H49	H	-0.057004	-1.384823	0.000038
H50	H	0.459381	-0.648916	0.000037
C51	C	0.149129	-1.394178	0.288036
C52	C	0.098213	-1.435810	0.365173
C53	C	0.030591	-1.491050	0.306211
H54	H	0.187802	-1.451802	0.241857
H55	H	0.099107	-1.345772	0.241904
H56	H	0.148229	-1.484213	0.411286
H57	H	0.059521	-1.378208	0.411355
H58	H	-0.019432	-1.442644	0.260079
H59	H	0.069271	-1.548670	0.260035
H60	H	-0.003971	-1.519296	0.358540
C61	C	0.044408	-0.962935	-0.000041
C62	C	-0.045773	-0.877327	-0.000073
C63	C	-0.133173	-0.918422	-0.000148
H64	H	0.049477	-1.002488	0.065501
H65	H	0.041215	-1.009321	-0.065632
H66	H	-0.042581	-0.830959	0.065511
H67	H	-0.050877	-0.837766	-0.065610
H68	H	-0.136365	-0.964808	-0.065739
H69	H	-0.128093	-0.957975	0.065395
H70	H	-0.194371	-0.860344	-0.000180
H71	H	-0.125058	-1.476092	0.000044
C72	C	-0.441904	-1.576503	-0.000141
C73	C	-0.423444	-1.646099	-0.096847
C74	C	-0.480723	-1.723206	-0.097032
H75	H	-0.514024	-1.541096	-0.000200
H76	H	-0.421143	-1.617022	0.065391
H77	H	-0.444211	-1.605586	-0.162362
H78	H	-0.351336	-1.681532	-0.096809
H79	H	-0.459962	-1.763725	-0.031500
H80	H	-0.552840	-1.687790	-0.097088
H81	H	-0.468198	-1.770443	-0.162640
H82	H	0.119896	-0.596064	0.000111
C83	C	0.112484	-1.424354	0.711944
C84	C	0.051778	-1.474067	0.634779
C85	C	-0.008242	-1.523280	0.693710
H86	H	0.068311	-1.371230	0.758120
H87	H	0.157130	-1.477159	0.758076
H88	H	0.007136	-1.421269	0.588667
H89	H	0.095924	-1.527207	0.588601
H90	H	0.036403	-1.576084	0.739843
H91	H	-0.052409	-1.470149	0.739884
H92	H	-0.049431	-1.557024	0.641363
C93	C	0.378195	-1.206553	0.712380
C94	C	0.320761	-1.121823	0.780347
C95	C	0.388074	-1.066458	0.839721
H96	H	0.412859	-1.178099	0.660342
H97	H	0.428146	-1.254929	0.758609
H98	H	0.270829	-1.073456	0.734121
H99	H	0.286100	-1.150248	0.832406
H100	H	0.438025	-1.114834	0.885951
H101	H	0.422734	-1.038011	0.787675
H102	H	0.349116	-1.008969	0.885852
C103	C	0.430623	-1.163643	0.534877
C104	C	0.373207	-1.078907	0.602850
C105	C	0.440534	-1.023550	0.662209
H106	H	0.465284	-1.135196	0.482830
H107	H	0.480576	-1.212022	0.581101
H108	H	0.323273	-1.030535	0.556630
H109	H	0.338549	-1.107324	0.654918
H110	H	0.490487	-1.071929	0.708434
H111	H	0.475191	-0.995110	0.610154
H112	H	0.401588	-0.966057	0.708344
C113	C	0.415131	-1.176790	0.287764
C114	C	0.479981	-1.255451	0.219801
C115	C	0.540023	-1.206591	0.160486
H116	H	0.456499	-1.143020	0.339837
H117	H	0.370494	-1.124066	0.241536
H118	H	0.524613	-1.308156	0.266025
H119	H	0.438641	-1.289227	0.167707
H120	H	0.495387	-1.153867	0.114258
H121	H	0.581385	-1.172822	0.212568
H122	H	0.584024	-1.259953	0.114359
H123	H	0.115136	-1.422103	0.481398
H124	H	-0.229208	-1.615714	0.000053
H125	H	-0.513460	-1.168527	-0.000005
H126	H	-0.409309	-1.028886	-0.000001
H127	H	0.045295	-0.749154	0.000027
H128	H	-0.045958	-1.045336	0.000015
H129	H	-0.243210	-0.985120	-0.000010
H130	H	0.407725	-1.004748	0.000025
H131	H	0.482319	-0.851666	0.000033
