data_functionalizedCrystal
_audit_creation_method	'MofGen! by Chris Wilmer'
_symmetry_space_group_name_H-M	'P1'
_symmetry_Int_Tables_number	1
_symmetry_cell_setting	triclinic
loop_
_symmetry_equiv_pos_as_xyz
  x,y,z
_cell_length_a	14.044220
_cell_length_b	9.065218
_cell_length_c	8.140239
_cell_angle_alpha	89.997198
_cell_angle_beta	90.002425
_cell_angle_gamma	90.897619
loop_
_atom_site_label
_atom_site_type_symbol
_atom_site_fract_x
_atom_site_fract_y
_atom_site_fract_z
O1	O	-0.139141	1.975818	-0.136614
O2	O	-0.150554	1.547798	-0.136616
O3	O	-0.006808	1.755383	-0.136608
O4	O	-0.282887	1.768232	-0.136623
O5	O	-0.006806	1.755371	0.136619
O6	O	-0.150552	1.547785	0.136611
O7	O	-0.139139	1.975805	0.136613
Zn8	Zn	-0.144845	1.761793	0.179993
Zn9	Zn	-0.144848	1.761810	-0.179996
O10	O	-0.282885	1.768220	0.136605
C11	C	-0.149456	1.492683	-0.000003
C12	C	-0.146176	1.328477	-0.000004
C13	C	-0.318249	1.773850	-0.000011
C14	C	-0.423619	1.790627	-0.000017
C15	C	-0.616544	1.821299	-0.000009
C16	C	-0.673155	1.702310	-0.000008
C17	C	-0.780505	1.719376	-0.000004
C18	C	-0.509184	1.804235	-0.000014
C19	C	0.028556	1.749752	0.000004
C20	C	0.133926	1.732975	-0.000001
C21	C	-0.140237	2.030920	-0.000004
C22	C	-0.143517	2.195126	-0.000014
N23	N	-0.144843	1.761792	0.425675
N24	N	-0.144842	1.761821	-0.425679
H25	H	-0.641000	1.587623	-0.000008
H26	H	-0.648697	1.935977	-0.000002
