data_functionalizedCrystal
_audit_creation_method	'MofGen! by Chris Wilmer'
_symmetry_space_group_name_H-M	'P1'
_symmetry_Int_Tables_number	1
_symmetry_cell_setting	triclinic
loop_
_symmetry_equiv_pos_as_xyz
  x,y,z
_cell_length_a	10.686285
_cell_length_b	11.169417
_cell_length_c	11.169417
_cell_angle_alpha	89.994465
_cell_angle_beta	94.372288
_cell_angle_gamma	94.370078
loop_
_atom_site_label
_atom_site_type_symbol
_atom_site_fract_x
_atom_site_fract_y
_atom_site_fract_z
Zn1	Zn	-0.502628	-1.871482	0.641988
Zn2	Zn	-0.713574	-1.886835	0.425940
Zn3	Zn	-0.502596	-1.670822	0.441319
Zn4	Zn	-0.713561	-1.686181	0.626579
O5	O	-0.608090	-1.778830	0.533956
O6	O	-0.530629	-2.041470	0.613342
O7	O	-0.685580	-1.858178	0.260031
O8	O	-0.326029	-1.684587	0.480823
O9	O	-0.685611	-2.052749	0.454612
O10	O	-0.326052	-1.832011	0.628254
O11	O	-0.530575	-1.699474	0.271329
O12	O	-0.530562	-1.504908	0.465881
O13	O	-0.685588	-1.710765	0.796572
O14	O	-0.685557	-1.516193	0.601991
O15	O	-0.530616	-1.846904	0.807893
O16	O	-0.890144	-1.873071	0.439670
O17	O	-0.890134	-1.725652	0.587079
C18	C	-0.608055	-1.467003	0.533933
C19	C	-0.608071	-1.333604	0.533950
C20	C	-0.935922	-1.802727	0.510059
C21	C	-1.076170	-1.813059	0.499876
C22	C	-0.278977	-1.754873	0.557973
C23	C	-0.138729	-1.744664	0.568207
C24	C	-0.608104	-1.778835	0.846998
C25	C	-0.608110	-1.778837	0.980397
C26	C	-0.608113	-1.091874	0.533973
C27	C	-0.608092	-1.225273	0.533962
C28	C	-0.608108	-1.778823	1.222130
C29	C	-0.608115	-1.778834	1.088730
H30	H	-1.084997	-1.678204	0.634501
H31	H	-1.129911	-1.879516	0.433571
