data_functionalizedCrystal
_audit_creation_method	'MofGen! by Chris Wilmer'
_symmetry_space_group_name_H-M	'P1'
_symmetry_Int_Tables_number	1
_symmetry_cell_setting	triclinic
loop_
_symmetry_equiv_pos_as_xyz
  x,y,z
_cell_length_a	10.654541
_cell_length_b	19.188930
_cell_length_c	9.730217
_cell_angle_alpha	89.991643
_cell_angle_beta	89.999932
_cell_angle_gamma	83.814355
loop_
_atom_site_label
_atom_site_type_symbol
_atom_site_fract_x
_atom_site_fract_y
_atom_site_fract_z
O1	O	1.665764	0.098053	-0.114265
O2	O	1.300087	0.107397	-0.114279
O3	O	1.493478	0.001138	-0.114245
O4	O	1.472373	0.204312	-0.114299
O5	O	1.493472	0.001137	0.114335
O6	O	1.300081	0.107396	0.114301
O7	O	1.665758	0.098052	0.114315
Zn8	Zn	1.482918	0.102724	0.150600
Zn9	Zn	1.482926	0.102725	-0.150564
O10	O	1.472367	0.204311	0.114281
C11	C	1.253300	0.106711	0.000010
C12	C	1.113900	0.104659	0.000006
C13	C	1.083241	0.231721	-0.000045
C14	C	1.002423	0.294284	-0.000076
C15	C	0.871446	0.292352	-0.000077
C16	C	0.821285	0.227849	-0.000043
C17	C	0.902103	0.165286	-0.000012
C18	C	1.033082	0.167225	-0.000015
C19	C	0.932762	0.038226	0.000049
C20	C	1.063740	0.040156	0.000040
C21	C	0.882602	-0.026277	0.000083
C22	C	0.963421	-0.088842	0.000104
C23	C	1.094405	-0.086908	0.000104
C24	C	1.144558	-0.022408	0.000071
C25	C	1.492792	-0.024878	0.000049
C26	C	1.490740	-0.102396	0.000061
C27	C	1.604215	-0.146578	0.000072
C28	C	1.602288	-0.219414	0.000050
C29	C	1.486878	-0.248065	0.000044
C30	C	1.373388	-0.203873	0.000026
C31	C	1.375319	-0.131038	0.000034
N32	N	1.398660	-0.356647	0.077831
N33	N	1.396833	-0.425838	0.077826
C34	C	1.481054	-0.467512	0.000016
N35	N	1.567190	-0.437383	-0.077771
N36	N	1.569020	-0.368186	-0.077760
C37	C	1.484772	-0.327041	0.000034
C38	C	1.592448	-0.590672	0.000001
C39	C	1.590515	-0.663510	-0.000029
C40	C	1.361612	-0.647967	-0.000039
C41	C	1.363548	-0.575131	-0.000023
C42	C	1.478969	-0.546488	0.000004
C43	C	1.712544	0.098738	0.000023
C44	C	1.851944	0.100790	0.000018
C45	C	1.473053	0.230327	-0.000016
C46	C	1.475105	0.307845	-0.000037
N47	N	1.482922	0.102723	0.356137
N48	N	1.482932	0.102721	-0.356101
C49	C	1.654239	0.008658	0.356157
C50	C	1.739906	-0.038372	0.428108
C51	C	1.739919	-0.038373	0.571987
C52	C	1.654253	0.008661	0.643920
C53	C	1.568586	0.055691	0.571970
C54	C	1.568585	0.055688	0.428087
C55	C	1.397265	0.149751	0.571949
C56	C	1.397257	0.149756	0.428069
C57	C	1.311600	0.196785	0.643882
C58	C	1.225937	0.243819	0.571932
C59	C	1.225928	0.243818	0.428043
C60	C	1.311590	0.196786	0.356119
H61	H	0.714635	0.226282	-0.000027
C62	C	0.738532	-0.028403	0.000080
H63	H	0.697581	0.018094	0.000042
H64	H	0.714556	-0.052301	0.079800
H65	H	0.714573	-0.052309	-0.079632
C66	C	1.131695	0.295554	0.348908
H67	H	1.080690	0.323565	0.412360
H68	H	1.079566	0.270168	0.292787
H69	H	1.176703	0.324859	0.292775
C70	C	1.719403	-0.559162	0.000015
H71	H	1.786711	-0.595910	-0.000002
H72	H	1.724914	-0.531082	0.079732
H73	H	1.724913	-0.531062	-0.079700
H74	H	1.156188	0.282108	0.630508
H75	H	1.189888	0.233300	-0.000075
C76	C	1.834144	-0.090104	0.651142
H77	H	1.821871	-0.083368	0.747132
H78	H	1.917907	-0.082088	0.627557
H79	H	1.820764	-0.136776	0.627584
H80	H	1.279421	-0.227205	0.000018
C81	C	1.234664	-0.679474	-0.000050
H82	H	1.249764	-0.729180	-0.000047
H83	H	1.187958	-0.664335	-0.079760
H84	H	1.187955	-0.664355	0.079671
H85	H	1.698200	-0.123262	0.000089
H86	H	1.311595	0.196784	0.238965
C87	C	0.908243	-0.159786	0.000139
H88	H	0.818663	-0.151975	0.000133
H89	H	0.936009	-0.185573	0.079856
H90	H	0.935998	-0.185573	-0.079576
H91	H	1.282910	-0.095064	0.000026
H92	H	1.160201	-0.137855	0.000134
H93	H	1.809652	-0.076668	0.369528
C94	C	1.057595	0.365234	-0.000122
H95	H	0.990703	0.402217	-0.000131
H96	H	1.108052	0.368625	-0.079835
H97	H	1.108050	0.368636	0.079597
C98	C	1.238723	-0.526528	-0.000011
H99	H	1.169711	-0.554021	-0.000005
H100	H	1.234716	-0.497782	-0.079715
H101	H	1.234722	-0.497804	0.079716
H102	H	1.251205	-0.020826	0.000054
H103	H	1.694696	-0.255395	0.000053
C104	C	1.654234	0.008665	0.197894
H105	H	1.590952	0.043413	0.165346
H106	H	1.637312	-0.036049	0.165350
H107	H	1.734439	0.018647	0.165347
C108	C	1.654247	0.008653	0.802184
H109	H	1.590956	0.043395	0.834719
H110	H	1.734447	0.018623	0.834742
H111	H	1.637305	-0.036065	0.834729
H112	H	1.311608	0.196779	0.761037
H113	H	0.805642	0.343297	-0.000093
H114	H	1.682925	-0.699483	-0.000028
