data_functionalizedCrystal
_audit_creation_method	'MofGen! by Chris Wilmer'
_symmetry_space_group_name_H-M	'P1'
_symmetry_Int_Tables_number	1
_symmetry_cell_setting	triclinic
loop_
_symmetry_equiv_pos_as_xyz
  x,y,z
_cell_length_a	13.033293
_cell_length_b	12.827892
_cell_length_c	12.827885
_cell_angle_alpha	89.970214
_cell_angle_beta	82.790076
_cell_angle_gamma	97.185404
loop_
_atom_site_label
_atom_site_type_symbol
_atom_site_fract_x
_atom_site_fract_y
_atom_site_fract_z
Zn1	Zn	1.597787	-0.213254	-0.794158
Zn2	Zn	1.931120	0.120079	-0.460825
Zn3	Zn	2.264453	0.453413	-0.127491
Zn4	Zn	1.597681	-0.388045	-0.619405
Zn5	Zn	1.931014	-0.054711	-0.286072
Zn6	Zn	2.264347	0.278622	0.047262
Zn7	Zn	1.423015	-0.235480	-0.597193
Zn8	Zn	1.756349	0.097853	-0.263860
Zn9	Zn	2.089682	0.431187	0.069474
Zn10	Zn	1.423001	-0.410131	-0.771878
Zn11	Zn	1.756334	-0.076797	-0.438544
Zn12	Zn	2.089667	0.256536	-0.105211
O13	O	1.510371	-0.311727	-0.695658
O14	O	1.843704	0.021606	-0.362325
O15	O	2.177038	0.354939	-0.028992
O16	O	1.744019	-0.217896	-0.789597
O17	O	2.077353	0.115438	-0.456263
O18	O	2.410686	0.448771	-0.122930
O19	O	1.574473	-0.367865	-0.470217
O20	O	1.907806	-0.034532	-0.136884
O21	O	2.241140	0.298801	0.196449
O22	O	1.446250	-0.086289	-0.623349
O23	O	1.779583	0.247044	-0.290016
O24	O	2.112916	0.580377	0.043317
O25	O	1.743942	-0.346314	-0.661206
O26	O	2.077275	-0.012980	-0.327873
O27	O	2.410608	0.320353	0.005460
O28	O	1.574653	-0.069960	-0.768059
O29	O	1.907987	0.263373	-0.434725
O30	O	2.241320	0.596707	-0.101392
O31	O	1.446147	-0.255777	-0.453898
O32	O	1.779480	0.077557	-0.120565
O33	O	2.112814	0.410890	0.212768
O34	O	1.276767	-0.277193	-0.601745
O35	O	1.610100	0.056141	-0.268412
O36	O	1.943433	0.389474	0.064922
O37	O	1.446224	-0.383956	-0.921074
O38	O	1.779558	-0.050623	-0.587741
O39	O	2.112891	0.282711	-0.254408
O40	O	1.276756	-0.405508	-0.730085
O41	O	1.610089	-0.072174	-0.396752
O42	O	1.943422	0.261159	-0.063419
O43	O	1.574639	-0.239311	-0.937443
O44	O	1.907972	0.094022	-0.604110
O45	O	2.241306	0.427355	-0.270777
O46	O	1.574459	-0.537217	-0.639602
O47	O	1.907792	-0.203884	-0.306269
O48	O	2.241125	0.129450	0.027065
O49	O	1.446122	-0.553443	-0.751623
O50	O	1.779455	-0.220110	-0.418290
O51	O	2.112788	0.113223	-0.084957
C52	C	1.510305	-0.583246	-0.695632
C53	C	1.843639	-0.249912	-0.362298
C54	C	2.176972	0.083421	-0.028965
C55	C	1.510373	-0.699390	-0.695667
C56	C	1.843706	-0.366057	-0.362334
C57	C	2.177040	-0.032723	-0.029001
C58	C	1.238841	-0.346159	-0.661088
C59	C	1.572174	-0.012826	-0.327755
C60	C	1.905508	0.320507	0.005579
C61	C	1.122679	-0.360915	-0.646323
C62	C	1.456013	-0.027581	-0.312990
C63	C	1.789346	0.305752	0.020343
C64	C	1.573954	-0.743101	-0.640316
C65	C	1.907287	-0.409768	-0.306982
C66	C	2.240620	-0.076435	0.026351
C67	C	1.574025	-0.863143	-0.640351
C68	C	1.907358	-0.529809	-0.307018
C69	C	2.240692	-0.196476	0.026315
C70	C	1.070929	-0.304053	-0.703364
C71	C	1.404263	0.029281	-0.370031
C72	C	1.737596	0.362614	-0.036697
C73	C	0.950870	-0.319302	-0.688105
C74	C	1.284203	0.014032	-0.354772
C75	C	1.617537	0.347365	-0.021439
C76	C	1.782961	-0.277162	-0.730365
C77	C	2.116294	0.056172	-0.397031
C78	C	2.449628	0.389505	-0.063698
C79	C	1.899123	-0.262432	-0.745154
C80	C	2.232456	0.070901	-0.411821
C81	C	2.565789	0.404235	-0.078488
C82	C	1.510442	-0.311618	-0.968238
C83	C	1.843775	0.021715	-0.634904
C84	C	2.177109	0.355049	-0.301571
C85	C	1.510472	-0.311571	-1.084395
C86	C	1.843806	0.021762	-0.751061
C87	C	2.177139	0.355095	-0.417728
C88	C	1.510465	-0.039145	-0.695712
C89	C	1.843798	0.294188	-0.362378
C90	C	2.177132	0.627521	-0.029045
C91	C	1.510505	0.077013	-0.695734
C92	C	1.843838	0.410346	-0.362401
C93	C	2.177172	0.743680	-0.029068
C94	C	1.574023	-0.239983	-1.144280
C95	C	1.907356	0.093350	-0.810947
C96	C	2.240689	0.426683	-0.477614
C97	C	1.574056	-0.239934	-1.264335
C98	C	1.907389	0.093400	-0.931002
C99	C	2.240722	0.426733	-0.597668
C100	C	1.510360	-0.311753	-0.424147
C101	C	1.843693	0.021580	-0.090814
C102	C	2.177027	0.354913	0.242520
C103	C	1.510532	-0.311480	-0.308016
C104	C	1.843866	0.021854	0.025317
C105	C	2.177199	0.355187	0.358650
H106	H	1.628339	-0.691656	-0.592905
H107	H	1.961673	-0.358323	-0.259571
H108	H	2.295006	-0.024989	0.073762
Cl109	Cl	1.139745	-0.211456	-0.796202
Cl110	Cl	1.473079	0.121877	-0.462869
Cl111	Cl	1.806412	0.455210	-0.129536
Cl112	Cl	1.426450	-0.864917	-0.768898
Cl113	Cl	1.759784	-0.531583	-0.435565
Cl114	Cl	2.093117	-0.198250	-0.102232
H115	H	0.943695	-0.202451	-0.805285
H116	H	1.277028	0.130882	-0.471951
H117	H	1.610362	0.464215	-0.138618
Cl118	Cl	1.426529	-0.406119	-1.228565
Cl119	Cl	1.759862	-0.072786	-0.895231
Cl120	Cl	2.093196	0.260548	-0.561898
H121	H	1.628467	-0.178647	-1.315805
H122	H	1.961800	0.154686	-0.982471
H123	H	2.295134	0.488019	-0.649138
H124	H	0.906296	-0.379274	-0.627968
H125	H	1.239629	-0.045941	-0.294635
H126	H	1.572963	0.287392	0.038699
Cl127	Cl	1.426498	-0.406140	-1.142451
Cl128	Cl	1.759831	-0.072807	-0.809118
Cl129	Cl	2.093164	0.260526	-0.475784
Cl130	Cl	1.053863	-0.453502	-0.553476
Cl131	Cl	1.387197	-0.120169	-0.220143
Cl132	Cl	1.720530	0.213164	0.113190
H133	H	1.628456	-0.900765	-0.592960
H134	H	1.961789	-0.567431	-0.259626
H135	H	2.295122	-0.234098	0.073707
H136	H	1.455997	-0.750837	-0.743087
H137	H	1.789330	-0.417503	-0.409753
H138	H	2.122663	-0.084170	-0.076420
H139	H	1.628403	-0.178728	-1.106670
H140	H	1.961736	0.154605	-0.773337
H141	H	2.295069	0.487939	-0.440004
