data_functionalizedCrystal
_audit_creation_method	'MofGen! by Chris Wilmer'
_symmetry_space_group_name_H-M	'P1'
_symmetry_Int_Tables_number	1
_symmetry_cell_setting	triclinic
loop_
_symmetry_equiv_pos_as_xyz
  x,y,z
_cell_length_a	17.699104
_cell_length_b	14.853567
_cell_length_c	16.776229
_cell_angle_alpha	89.997147
_cell_angle_beta	89.991971
_cell_angle_gamma	83.463224
loop_
_atom_site_label
_atom_site_type_symbol
_atom_site_fract_x
_atom_site_fract_y
_atom_site_fract_z
O1	O	1.004365	0.114098	-0.066298
O2	O	0.784027	0.128911	-0.066295
O3	O	0.900081	-0.009747	-0.066299
O4	O	0.888310	0.252755	-0.066294
O5	O	0.900066	-0.009755	0.066278
O6	O	0.784011	0.128902	0.066282
O7	O	1.004349	0.114089	0.066279
Zn8	Zn	0.894178	0.121494	0.087330
Zn9	Zn	0.894198	0.121505	-0.087346
O10	O	0.888295	0.252746	0.066283
C11	C	0.755821	0.128372	-0.000006
C12	C	0.671800	0.126770	-0.000006
C13	C	0.147116	0.199125	-0.000013
C14	C	0.226064	0.200625	-0.000015
C15	C	0.274470	0.119228	-0.000016
C16	C	0.243925	0.036325	-0.000023
C17	C	0.164979	0.034827	-0.000027
C18	C	0.562307	0.042368	-0.000011
C19	C	0.641258	0.043873	-0.000005
C20	C	0.623392	0.208167	0.000001
C21	C	0.544446	0.206668	-0.000002
C22	C	0.513908	0.123766	-0.000013
C23	C	0.428304	0.122141	-0.000012
C24	C	0.360073	0.120852	-0.000011
C25	C	0.899540	-0.043338	-0.000013
C26	C	0.897942	-0.143416	-0.000020
C27	C	0.822247	-0.555678	-0.000004
C28	C	0.960122	-0.577454	-0.000005
C29	C	0.961625	-0.483426	-0.000010
C30	C	0.893438	-0.425519	-0.000010
C31	C	0.823748	-0.461640	-0.000006
C32	C	1.031314	-0.447297	-0.000006
C33	C	1.032819	-0.353263	-0.000010
C34	C	0.964631	-0.295355	-0.000016
C35	C	0.894938	-0.331481	-0.000013
C36	C	0.826751	-0.273575	-0.000013
C37	C	0.757057	-0.309700	-0.000015
C38	C	0.755559	-0.403732	-0.000012
C39	C	0.966129	-0.201323	-0.000019
C40	C	0.828252	-0.179537	-0.000015
C41	C	1.032555	0.114627	-0.000011
C42	C	1.116576	0.116229	-0.000017
N43	N	0.894170	0.121486	0.206541
C44	C	0.888836	0.286338	-0.000005
C45	C	0.890434	0.386415	-0.000003
N46	N	0.894213	0.121506	-0.206557
C47	C	0.945574	0.060114	0.248256
C48	C	0.945578	0.060113	0.331708
C49	C	0.894181	0.121490	0.373444
C50	C	0.842771	0.182865	0.331723
C51	C	0.842764	0.182861	0.248272
C52	C	0.842798	0.182883	0.668270
C53	C	0.842811	0.182884	0.751726
C54	C	0.945613	0.060135	0.751706
C55	C	0.945606	0.060131	0.668256
C56	C	0.894193	0.121502	0.626542
C57	C	0.894188	0.121501	0.536053
C58	C	0.894189	0.121496	0.463931
H59	H	0.107709	0.265409	-0.000005
H60	H	0.987435	0.010138	0.365673
H61	H	0.250925	0.268127	-0.000018
H62	H	0.140115	-0.032676	-0.000032
H63	H	0.987461	0.010155	0.634277
C64	C	0.372876	-0.034330	-0.000012
C65	C	0.297132	-0.053149	-0.000022
H66	H	0.405721	-0.089571	-0.000004
H67	H	0.382151	-0.000336	-0.046240
H68	H	0.382127	-0.000333	0.046225
H69	H	0.287880	-0.087141	-0.046262
H70	H	0.287854	-0.087158	0.046211
C71	C	0.989834	-0.096029	0.222611
C72	C	1.002071	-0.007377	0.202405
H73	H	1.024710	-0.137703	0.194307
H74	H	0.997184	-0.104781	0.278279
H75	H	0.939311	-0.105731	0.208937
H76	H	1.052592	0.002326	0.216084
H77	H	0.994727	0.001379	0.146724
C78	C	0.691813	-0.167458	-0.000015
C79	C	0.753296	-0.115889	-0.000015
H80	H	0.645540	-0.128162	-0.000010
H81	H	0.694103	-0.204581	-0.046245
H82	H	0.694095	-0.204593	0.046220
H83	H	0.751018	-0.078758	-0.046252
H84	H	0.751006	-0.078750	0.046221
C85	C	0.739810	0.202604	0.574453
C86	C	0.786299	0.250352	0.622420
H87	H	0.704929	0.244262	0.546148
H88	H	0.770416	0.166054	0.537659
H89	H	0.712548	0.165124	0.607025
H90	H	0.813565	0.287827	0.589848
H91	H	0.755689	0.286917	0.659218
C92	C	0.961925	-0.062594	0.845553
C93	C	1.002120	-0.007338	0.797561
H94	H	0.996811	-0.104249	0.873856
H95	H	0.931323	-0.026042	0.882348
H96	H	0.930391	-0.094977	0.812997
H97	H	1.033650	0.025050	0.830118
H98	H	1.032735	-0.043895	0.760762
C99	C	1.038423	-0.695835	-0.068154
C100	C	1.035071	-0.641103	-0.000004
H101	H	1.084698	-0.735128	-0.068155
H102	H	0.996709	-0.730802	-0.068144
H103	H	1.036148	-0.658691	-0.114383
H104	H	1.037340	-0.678246	0.046225
H105	H	1.076796	-0.606133	-0.000008
C106	C	0.553263	-0.098135	-0.068161
C107	C	0.528752	-0.048760	-0.000013
H108	H	0.532549	-0.154399	-0.068157
H109	H	0.536655	-0.064631	-0.114387
H110	H	0.607208	-0.108874	-0.068149
H111	H	0.474806	-0.038015	-0.000028
H112	H	0.545355	-0.082271	0.046224
C113	C	1.029647	-0.066848	-0.000017
C114	C	1.042728	-0.161612	-0.000014
H115	H	1.076940	-0.042336	-0.000009
H116	H	1.001584	-0.046972	-0.046250
H117	H	1.001558	-0.046971	0.046215
H118	H	1.070813	-0.181489	-0.046249
H119	H	1.070804	-0.181497	0.046224
H120	H	0.765504	-0.585095	-0.000008
C121	C	0.534717	0.369222	-0.000005
C122	C	0.491238	0.296142	-0.000004
H123	H	0.501868	0.424459	-0.000014
H124	H	0.565869	0.366391	0.046226
H125	H	0.565892	0.366383	-0.046239
H126	H	0.460067	0.298976	0.046232
H127	H	0.460073	0.298974	-0.046241
H128	H	0.680670	-0.022414	-0.000008
H129	H	0.800954	0.232866	0.785706
C130	C	0.692042	-0.538206	0.000009
C131	C	0.678958	-0.443443	-0.000002
H132	H	0.644751	-0.562722	0.000023
H133	H	0.720118	-0.558086	-0.046222
H134	H	0.720122	-0.558075	0.046243
H135	H	0.650883	-0.423572	-0.046240
H136	H	0.650869	-0.423554	0.046233
H137	H	0.800904	0.232835	0.214308
H138	H	0.701540	-0.262540	-0.000010
C139	C	1.168956	-0.384244	-0.000018
C140	C	1.109424	-0.313559	-0.000017
H141	H	1.216247	-0.359729	-0.000029
H142	H	1.165499	-0.420461	0.046216
H143	H	1.165500	-0.420472	-0.046250
H144	H	1.112877	-0.277335	0.046218
H145	H	1.112882	-0.277327	-0.046255
C146	C	0.797139	0.237384	0.459654
C147	C	0.786275	0.250334	0.377596
H148	H	0.762264	0.279044	0.487971
H149	H	0.788858	0.177235	0.473335
H150	H	0.847662	0.247106	0.473306
H151	H	0.735753	0.240606	0.363943
H152	H	0.794550	0.310497	0.363909
H153	H	0.648265	0.275669	0.000007
C154	C	1.109615	-0.565675	-0.068158
C155	C	1.106260	-0.510949	-0.000004
H156	H	1.155888	-0.604971	-0.068157
H157	H	1.067899	-0.600639	-0.068154
H158	H	1.107347	-0.528527	-0.114384
H159	H	1.108523	-0.548097	0.046223
H160	H	1.147988	-0.475983	0.000000
