data_functionalizedCrystal
_audit_creation_method	'MofGen! by Chris Wilmer'
_symmetry_space_group_name_H-M	'P1'
_symmetry_Int_Tables_number	1
_symmetry_cell_setting	triclinic
loop_
_symmetry_equiv_pos_as_xyz
  x,y,z
_cell_length_a	19.288864
_cell_length_b	10.540539
_cell_length_c	18.366186
_cell_angle_alpha	89.995944
_cell_angle_beta	89.977106
_cell_angle_gamma	83.830869
loop_
_atom_site_label
_atom_site_type_symbol
_atom_site_fract_x
_atom_site_fract_y
_atom_site_fract_z
O1	O	0.922409	0.158345	-0.060780
O2	O	0.720291	0.179705	-0.060730
O3	O	0.825961	-0.015784	-0.060755
O4	O	0.816739	0.353834	-0.060755
O5	O	0.825943	-0.015794	0.060344
O6	O	0.720273	0.179696	0.060370
O7	O	0.922391	0.158335	0.060319
Zn8	Zn	0.821329	0.169014	0.079572
Zn9	Zn	0.821353	0.169027	-0.079982
O10	O	0.816721	0.353825	0.060345
C11	C	0.694401	0.179013	-0.000174
C12	C	0.617284	0.176950	-0.000155
C13	C	0.573353	0.291654	-0.000166
C14	C	0.500893	0.289716	-0.000174
C15	C	0.472367	0.173067	-0.000185
C16	C	0.516308	0.058347	-0.000170
C17	C	0.588766	0.060289	-0.000155
C18	C	0.363499	0.081371	-0.042637
C19	C	0.291042	0.079434	-0.042656
C20	C	0.248881	0.167074	-0.000230
C21	C	0.279186	0.256671	0.042208
C22	C	0.351644	0.258613	0.042223
C23	C	0.393799	0.170949	-0.000202
C24	C	0.126381	0.279684	-0.000249
C25	C	0.053919	0.277741	-0.000252
C26	C	0.069336	0.046369	-0.000255
C27	C	0.141795	0.048315	-0.000244
C28	C	0.170313	0.164976	-0.000245
C29	C	0.825261	-0.063076	-0.000207
C30	C	0.823192	-0.203978	-0.000210
C31	C	0.743903	-0.385638	-0.000462
C32	C	0.746000	-0.239067	-0.000190
C33	C	0.860329	-0.266469	0.068934
C34	C	0.857695	-0.412955	0.068993
C35	C	0.859285	-0.413498	-0.068720
C36	C	0.859996	-0.266531	-0.069634
C37	C	0.948281	0.159027	-0.000238
C38	C	1.025399	0.161091	-0.000262
C39	C	0.817422	0.401117	-0.000206
C40	C	0.819491	0.542019	-0.000207
N41	N	0.821318	0.169005	0.188463
N42	N	0.821370	0.169026	-0.188873
C43	C	0.868124	0.082484	0.226552
C44	C	0.868129	0.082479	0.302780
C45	C	0.821333	0.169015	0.340915
C46	C	0.774518	0.255542	0.302817
C47	C	0.774510	0.255537	0.226591
C48	C	0.812807	0.284670	0.461677
C49	C	0.812820	0.284677	0.537902
C50	C	0.821353	0.169031	0.576023
C51	C	0.829889	0.053374	0.537909
C52	C	0.829881	0.053368	0.461683
C53	C	0.821336	0.169030	0.423570
C54	C	0.868167	0.082497	0.696767
C55	C	0.868167	0.082490	0.772996
C56	C	0.774559	0.255565	0.773032
C57	C	0.774556	0.255561	0.696804
C58	C	0.821364	0.169029	0.658676
H59	H	0.596567	0.386649	-0.000167
C60	C	0.839261	-0.073852	0.419761
N61	N	0.846322	-0.169677	0.388185
C62	C	0.934606	-0.478984	-0.069370
N63	N	0.991335	-0.528316	-0.069856
C64	C	0.919629	-0.012692	0.344686
N65	N	0.958421	-0.084369	0.376248
C66	C	0.384977	0.357156	0.088911
N67	N	0.410083	0.431376	0.124080
C68	C	0.484928	-0.069967	-0.000183
N69	N	0.461293	-0.166618	-0.000191
H70	H	0.177565	-0.045090	-0.000239
C71	C	0.823322	-0.210437	-0.138740
N72	N	0.795692	-0.168191	-0.190790
H73	H	0.906236	0.012022	0.195510
C74	C	0.936030	-0.235514	-0.075293
N75	N	0.993303	-0.212158	-0.079548
C76	C	0.936906	-0.237953	0.072401
N77	N	0.994583	-0.216462	0.075014
C78	C	0.723040	0.350727	0.344768
N79	N	0.684262	0.422419	0.376365
C80	C	0.723084	0.350757	0.814977
N81	N	0.684311	0.422458	0.846574
H82	H	0.149601	0.374676	-0.000238
H83	H	0.716558	-0.196659	0.049472
C84	C	0.839275	-0.073848	0.579836
N85	N	0.846345	-0.169667	0.611419
H86	H	0.834310	-0.444490	-0.121128
H87	H	0.906279	0.012034	0.665722
H88	H	0.018151	0.371151	-0.000257
H89	H	0.046111	-0.048609	-0.000310
C90	C	0.257715	-0.019131	-0.089333
N91	N	0.232615	-0.093379	-0.124488
C92	C	0.409869	-0.015041	-0.089316
N93	N	0.444794	-0.087654	-0.124475
C94	C	0.637092	-0.065900	-0.000147
N95	N	0.673493	-0.160948	-0.000144
H96	H	0.913209	-0.462161	0.072117
C97	C	0.706516	-0.180622	-0.067147
N98	N	0.676771	-0.136606	-0.117579
H99	H	0.465117	0.383125	-0.000181
H100	H	0.834516	-0.223299	0.120403
C101	C	0.919648	-0.012716	0.814894
N102	N	0.958422	-0.084433	0.846452
C103	C	0.232814	0.353079	0.088884
N104	N	0.197884	0.425691	0.124039
H105	H	0.736445	0.326019	0.665790
C106	C	0.702713	-0.423365	-0.067442
N107	N	0.671687	-0.451794	-0.117893
C108	C	0.803423	0.411901	0.579820
N109	N	0.796341	0.507730	0.611391
H110	H	0.736394	0.325993	0.195578
C111	C	0.702873	-0.425497	0.066183
N112	N	0.671975	-0.455509	0.116387
C113	C	0.803419	0.411897	0.419752
N114	N	0.796348	0.507722	0.388175
H115	H	0.830233	-0.440547	0.120694
