data_functionalizedCrystal
_audit_creation_method	'MofGen! by Chris Wilmer'
_symmetry_space_group_name_H-M	'P1'
_symmetry_Int_Tables_number	1
_symmetry_cell_setting	triclinic
loop_
_symmetry_equiv_pos_as_xyz
  x,y,z
_cell_length_a	15.298114
_cell_length_b	16.120444
_cell_length_c	15.296720
_cell_angle_alpha	101.987061
_cell_angle_beta	110.778933
_cell_angle_gamma	82.743189
loop_
_atom_site_label
_atom_site_type_symbol
_atom_site_fract_x
_atom_site_fract_y
_atom_site_fract_z
Zn1	Zn	1.291508	-0.589153	-0.318426
Zn2	Zn	1.310433	-0.707997	-0.170810
Zn3	Zn	1.165650	-0.548086	-0.187163
Zn4	Zn	1.128075	-0.707982	-0.353231
O5	O	1.223917	-0.638304	-0.257407
O6	O	1.423009	-0.622110	-0.277435
O7	O	1.314873	-0.669604	-0.041701
O8	O	1.190150	-0.436879	-0.196853
O9	O	1.436913	-0.709424	-0.168982
O10	O	1.282618	-0.467051	-0.293292
O11	O	1.208501	-0.552118	-0.053716
O12	O	1.031675	-0.552104	-0.230602
O13	O	1.126109	-0.709400	-0.479892
O14	O	1.004069	-0.669579	-0.352611
O15	O	1.246183	-0.622096	-0.454321
O16	O	1.278438	-0.824649	-0.202730
O17	O	1.144460	-0.824638	-0.336754
C18	C	0.984426	-0.606384	-0.297158
C19	C	0.881966	-0.592752	-0.314188
C20	C	1.209446	-0.854897	-0.271761
C21	C	1.203335	-0.947571	-0.277918
C22	C	0.622191	-0.735775	-0.135928
C23	C	0.718459	-0.748582	-0.119922
C24	C	0.759341	-0.709626	-0.168487
C25	C	0.703945	-0.657860	-0.233061
C26	C	0.607669	-0.645047	-0.249064
C27	C	0.744818	-0.618897	-0.281623
C28	C	0.689422	-0.567132	-0.346197
C29	C	0.593156	-0.554321	-0.362198
C30	C	0.552274	-0.593277	-0.313632
C31	C	0.841094	-0.631711	-0.265620
C32	C	0.826571	-0.540982	-0.378756
C33	C	0.730304	-0.528176	-0.394762
C34	C	1.255810	-1.158535	-0.225628
C35	C	1.192192	-1.117247	-0.289168
C36	C	1.198394	-1.022831	-0.282907
C37	C	1.249610	-1.252959	-0.231888
C38	C	1.464342	-0.670350	-0.217502
C39	C	1.566797	-0.684006	-0.200496
C40	C	1.179844	-0.670328	-0.502097
C41	C	1.161062	-0.683974	-0.606369
C42	C	1.238465	-0.420872	-0.243015
C43	C	1.244664	-0.328216	-0.236881
C44	C	1.358193	-0.540630	-0.847042
C45	C	1.375845	-0.527811	-0.749072
C46	C	1.322150	-0.566850	-0.713391
C47	C	1.250802	-0.618712	-0.775690
C48	C	1.233153	-0.631538	-0.873669
C49	C	1.197111	-0.657758	-0.740019
C50	C	1.125762	-0.709619	-0.802318
C51	C	1.108117	-0.722442	-0.900287
C52	C	1.161811	-0.683403	-0.935967
C53	C	1.214759	-0.644932	-0.642040
C54	C	1.089720	-0.735839	-0.668668
C55	C	1.072068	-0.748658	-0.766637
C56	C	1.267875	-0.606353	-0.013657
C57	C	1.286850	-0.592495	0.090660
H58	H	0.886188	-0.673859	-0.213043
H59	H	1.013975	-0.790884	-0.817375
H60	H	0.588897	-0.767481	-0.096387
H61	H	1.050027	-0.764679	-0.951009
Cl62	Cl	0.788097	-0.813636	-0.038726
H63	H	1.045999	-0.767630	-0.639618
Cl64	Cl	1.347086	-1.103633	-0.134386
Cl65	Cl	0.880364	-0.725731	-0.148367
Cl66	Cl	0.431243	-0.577193	-0.333767
H67	H	1.272851	-0.602705	-0.591325
H68	H	0.548056	-0.512164	-0.414772
Cl69	Cl	1.344340	-0.550731	-0.590228
Cl70	Cl	0.660653	-0.463102	-0.475940
H71	H	0.859857	-0.509258	-0.418299
Cl72	Cl	1.100905	-1.172146	-0.380411
H73	H	1.433939	-0.485588	-0.698354
H74	H	1.401908	-0.508856	-0.876102
H75	H	1.147443	-0.693837	-1.015742
