data_functionalizedCrystal
_audit_creation_method	'MofGen! by Chris Wilmer'
_symmetry_space_group_name_H-M	'P1'
_symmetry_Int_Tables_number	1
_symmetry_cell_setting	triclinic
loop_
_symmetry_equiv_pos_as_xyz
  x,y,z
_cell_length_a	19.077236
_cell_length_b	19.076808
_cell_length_c	19.077314
_cell_angle_alpha	85.285376
_cell_angle_beta	90.071888
_cell_angle_gamma	94.519737
loop_
_atom_site_label
_atom_site_type_symbol
_atom_site_fract_x
_atom_site_fract_y
_atom_site_fract_z
Zn1	Zn	1.049796	-0.220823	-0.431324
Zn2	Zn	1.049711	-0.343456	-0.308692
Zn3	Zn	0.936644	-0.230303	-0.308706
Zn4	Zn	0.927519	-0.343791	-0.421419
O5	O	0.990918	-0.284593	-0.367535
O6	O	1.148277	-0.232983	-0.419197
O7	O	1.038495	-0.332274	-0.210202
O8	O	0.955508	-0.130228	-0.329123
O9	O	1.148214	-0.323081	-0.329100
O10	O	1.038641	-0.123263	-0.419210
O11	O	0.955425	-0.249141	-0.210212
O12	O	0.836942	-0.249465	-0.319518
O13	O	0.939957	-0.323651	-0.521225
O14	O	0.830238	-0.332844	-0.402327
O15	O	1.029793	-0.233307	-0.528502
O16	O	1.029647	-0.442318	-0.319495
O17	O	0.939874	-0.442564	-0.402314
C18	C	0.808052	-0.292220	-0.359850
C19	C	0.729820	-0.295499	-0.356577
C20	C	0.693094	-0.250199	-0.402015
C21	C	0.619587	-0.253277	-0.398934
C22	C	0.582807	-0.301658	-0.350420
C23	C	0.619538	-0.346960	-0.304978
C24	C	0.693044	-0.343878	-0.308055
C25	C	0.362965	-0.315895	-0.336175
C26	C	0.289454	-0.318975	-0.333103
C27	C	0.289508	-0.225290	-0.427059
C28	C	0.363015	-0.222215	-0.430135
C29	C	0.399740	-0.267515	-0.384690
N30	N	0.507671	-0.304807	-0.347271
N31	N	0.474875	-0.264362	-0.387836
C32	C	0.983780	-0.468062	-0.359844
C33	C	0.980790	-0.546547	-0.356580
C34	C	1.022632	-0.579733	-0.401985
C35	C	1.019820	-0.653478	-0.398919
C36	C	0.975168	-0.694036	-0.350444
C37	C	0.933320	-0.660846	-0.305037
C38	C	0.936130	-0.587102	-0.308107
C39	C	0.962125	-0.914983	-0.336233
C40	C	0.959321	-0.988731	-0.333165
C41	C	1.045820	-0.981359	-0.427048
C42	C	1.048628	-0.907614	-0.430111
C43	C	1.006778	-0.874429	-0.384706
N44	N	0.972294	-0.769416	-0.347308
N45	N	1.009649	-0.799051	-0.387847
C46	C	1.174497	-0.276937	-0.375252
C47	C	1.252728	-0.273675	-0.378540
C48	C	0.983867	-0.277459	-0.551116
C49	C	0.980862	-0.274419	-0.629347
C50	C	0.998102	-0.100406	-0.375273
C51	C	1.001163	-0.021917	-0.378570
C52	C	1.022697	-0.316271	-0.666097
C53	C	1.019874	-0.313406	-0.739604
C54	C	0.975212	-0.268691	-0.776358
C55	C	0.933376	-0.226834	-0.739603
C56	C	0.936203	-0.229696	-0.666098
C57	C	0.962123	-0.255487	-0.996196
C58	C	0.959297	-0.252630	-1.069706
C59	C	1.045797	-0.339201	-1.069702
C60	C	1.048617	-0.342062	-0.996195
C61	C	1.006783	-0.300202	-0.959446
N62	N	0.972324	-0.265763	-0.851494
N63	N	1.009676	-0.303127	-0.884312
C64	C	0.997984	-0.291647	-0.184673
C65	C	1.001132	-0.294483	-0.106456
H66	H	0.392957	-0.182820	-0.469643
O67	O	0.921416	-0.214804	-0.960611
C68	C	0.881404	-0.174715	-1.008817
H69	H	0.875822	-0.201705	-1.059895
H70	H	0.908972	-0.119706	-1.019974
C71	C	0.814851	-0.135620	-0.914670
C72	C	0.807991	-0.168774	-0.977404
H73	H	0.769568	-0.131952	-0.895293
H74	H	0.841810	-0.162627	-0.882192
H75	H	0.837828	-0.089783	-0.923976
H76	H	0.785023	-0.214613	-0.968096
H77	H	0.781027	-0.141775	-1.009880
O78	O	1.066021	-0.359692	-0.630287
C79	C	1.059560	-0.353233	-0.557529
H80	H	1.006532	-0.332764	-0.546171
H81	H	1.103577	-0.314699	-0.540003
C82	C	1.129807	-0.451024	-0.531016
C83	C	1.064674	-0.425889	-0.517066
H84	H	1.132964	-0.495840	-0.506056
H85	H	1.134162	-0.455374	-0.580035
H86	H	1.166480	-0.418906	-0.516412
H87	H	1.028002	-0.458002	-0.531679
H88	H	1.060312	-0.421546	-0.468049
H89	H	1.053941	-0.347487	-0.769523
H90	H	1.058996	-0.546715	-0.441455
O91	O	1.086461	-0.379926	-1.105290
C92	C	1.126501	-0.419989	-1.057088
H93	H	1.099591	-0.425678	-1.003377
H94	H	1.181264	-0.392202	-1.052603
C95	C	1.165668	-0.486619	-1.149020
C96	C	1.132613	-0.493610	-1.083051
H97	H	1.169441	-0.532030	-1.165036
H98	H	1.138695	-0.459625	-1.181495
H99	H	1.211300	-0.463460	-1.145274
H100	H	1.086979	-0.516760	-1.086800
H101	H	1.159579	-0.520609	-1.050577
O102	O	0.728926	-0.203263	-0.449122
C103	C	0.801682	-0.210243	-0.442086
H104	H	0.810495	-0.265181	-0.417085
H105	H	0.825598	-0.168879	-0.407304
C106	C	0.826118	-0.132054	-0.545865
C107	C	0.836943	-0.199532	-0.515163
H108	H	0.847870	-0.125444	-0.590942
H109	H	0.777101	-0.127349	-0.550604
H110	H	0.846048	-0.097592	-0.516873
H111	H	0.817005	-0.233993	-0.544151
H112	H	0.885957	-0.204243	-0.510431
H113	H	1.084974	-0.378485	-0.966274
O114	O	0.889974	-0.183337	-0.775197
C115	C	0.853643	-0.147024	-0.726994
H116	H	0.884584	-0.145414	-0.675914
H117	H	0.799481	-0.175418	-0.715839
C118	C	0.807322	-0.073152	-0.821145
C119	C	0.845328	-0.071170	-0.758409
H120	H	0.802190	-0.026362	-0.840524
H121	H	0.831797	-0.097618	-0.853621
H122	H	0.762192	-0.096817	-0.811841
H123	H	0.890460	-0.047513	-0.767715
H124	H	0.820860	-0.046697	-0.725936
H125	H	0.589688	-0.216390	-0.435935
H126	H	0.722945	-0.380766	-0.271055
O127	O	0.253751	-0.181385	-0.471223
C128	C	0.207947	-0.221675	-0.513163
H129	H	0.195812	-0.276581	-0.485551
H130	H	0.233978	-0.226299	-0.566167
C131	C	0.154046	-0.117833	-0.558587
C132	C	0.139136	-0.185268	-0.524671
H133	H	0.111601	-0.095375	-0.565689
H134	H	0.184906	-0.090688	-0.530334
H135	H	0.175740	-0.121696	-0.602753
H136	H	0.117451	-0.181404	-0.480503
H137	H	0.108271	-0.212411	-0.552918
O138	O	0.895459	-0.554976	-0.263930
C139	C	0.855431	-0.606585	-0.220499
H140	H	0.882355	-0.658016	-0.217104
H141	H	0.800669	-0.615702	-0.243659
C142	C	0.816242	-0.517999	-0.150526
C143	C	0.849314	-0.581167	-0.146352
H144	H	0.812466	-0.502320	-0.104790
H145	H	0.843207	-0.483229	-0.179788
H146	H	0.770611	-0.525606	-0.169829
H147	H	0.894947	-0.573558	-0.127058
H148	H	0.822356	-0.615936	-0.117085
H149	H	0.896961	-0.693874	-0.265571
O150	O	0.398522	-0.359971	-0.292004
C151	C	0.350295	-0.403321	-0.248516
H152	H	0.296701	-0.406888	-0.275048
H153	H	0.345520	-0.379780	-0.195865
C154	C	0.442284	-0.473276	-0.203707
C155	C	0.376461	-0.477662	-0.236297
H156	H	0.458425	-0.519132	-0.196166
H157	H	0.474777	-0.444069	-0.233003
H158	H	0.438297	-0.453656	-0.159834
H159	H	0.380451	-0.497273	-0.280171
H160	H	0.343969	-0.506875	-0.207007
H161	H	0.589586	-0.386350	-0.265473
O162	O	0.915838	-0.209289	-1.105438
C163	C	0.867185	-0.249728	-1.144373
H164	H	0.861506	-0.306385	-1.119700
H165	H	0.886715	-0.249094	-1.200891
C166	C	0.802300	-0.148633	-1.174187
C167	C	0.795322	-0.218220	-1.143880
H168	H	0.757973	-0.129197	-1.173887
H169	H	0.835080	-0.121388	-1.147959
H170	H	0.818578	-0.148115	-1.221283
H171	H	0.779053	-0.218737	-1.096782
H172	H	0.762537	-0.245465	-1.170100
H173	H	0.259509	-0.358376	-0.293596
O174	O	1.060548	-0.685601	-0.443044
C175	C	1.100557	-0.633990	-0.486490
H176	H	1.106112	-0.582447	-0.459957
H177	H	1.073002	-0.625158	-0.539175
C178	C	1.167156	-0.722478	-0.531212
C179	C	1.173984	-0.659173	-0.498620
H180	H	1.212448	-0.738012	-0.538697
H181	H	1.140200	-0.757250	-0.501944
H182	H	1.144191	-0.715109	-0.575112
H183	H	1.196941	-0.666545	-0.454717
H184	H	1.200946	-0.624403	-0.527882
H185	H	0.902138	-0.195613	-0.636176
H186	H	1.084987	-0.874592	-0.469583
H187	H	1.079891	-1.008385	-0.464015
H188	H	0.922956	-1.021753	-0.293691
H189	H	0.928051	-0.887970	-0.299262
