data_functionalizedCrystal
_audit_creation_method	'MofGen! by Chris Wilmer'
_symmetry_space_group_name_H-M	'P1'
_symmetry_Int_Tables_number	1
_symmetry_cell_setting	triclinic
loop_
_symmetry_equiv_pos_as_xyz
  x,y,z
_cell_length_a	12.759401
_cell_length_b	14.908178
_cell_length_c	12.759393
_cell_angle_alpha	86.667587
_cell_angle_beta	89.978838
_cell_angle_gamma	93.315645
loop_
_atom_site_label
_atom_site_type_symbol
_atom_site_fract_x
_atom_site_fract_y
_atom_site_fract_z
Zn1	Zn	1.582100	-0.359095	-0.569888
Zn2	Zn	1.571844	-0.509995	-0.384053
Zn3	Zn	1.406398	-0.359146	-0.394216
Zn4	Zn	1.396244	-0.509930	-0.559690
O5	O	1.489147	-0.434541	-0.476962
O6	O	1.727760	-0.379118	-0.545251
O7	O	1.549854	-0.490033	-0.238377
O8	O	1.438248	-0.232884	-0.426041
O9	O	1.720225	-0.489984	-0.408719
O10	O	1.567335	-0.232846	-0.555107
O11	O	1.428302	-0.379205	-0.245844
O12	O	1.258031	-0.379142	-0.416152
O13	O	1.420941	-0.489872	-0.708068
O14	O	1.250571	-0.489922	-0.537726
O15	O	1.557489	-0.379055	-0.715560
O16	O	1.540008	-0.636242	-0.398830
O17	O	1.410996	-0.636194	-0.527870
C18	C	1.216180	-0.434531	-0.476936
C19	C	1.099402	-0.434549	-0.476948
C20	C	0.930952	-0.492319	-0.540175
C21	C	1.040676	-0.492317	-0.540147
C22	C	1.048398	-0.376784	-0.413766
C23	C	0.938675	-0.376791	-0.413790
C24	C	0.926496	-0.559018	-0.613144
C25	C	1.036220	-0.559017	-0.613115
C26	C	1.473316	-0.668955	-0.461164
C27	C	1.466639	-0.769237	-0.454440
C28	C	1.588410	-0.957490	-0.576346
C29	C	1.582141	-1.051715	-0.570033
C30	C	1.447827	-1.051913	-0.435505
C31	C	1.454096	-0.957689	-0.441819
C32	C	1.524391	-0.910481	-0.512241
C33	C	1.530665	-0.816254	-0.518548
C34	C	1.396346	-0.816454	-0.384027
C35	C	1.390077	-0.910679	-0.377713
C36	C	1.763179	-0.434552	-0.476989
C37	C	1.879955	-0.434557	-0.477000
C38	C	1.489226	-0.434450	-0.751002
C39	C	1.489260	-0.434412	-0.867781
C40	C	1.505068	-0.199213	-0.492845
C41	C	1.511853	-0.098930	-0.499613
C42	C	1.560370	-0.376703	-0.926546
C43	C	1.560397	-0.376671	-1.036273
C44	C	1.418201	-0.492062	-1.028458
C45	C	1.418170	-0.492090	-0.918734
C46	C	1.642469	-0.310086	-0.931059
C47	C	1.642496	-0.310053	-1.040785
C48	C	1.489132	-0.434567	-0.203993
C49	C	1.489319	-0.434352	-0.087231
H50	H	1.096220	-0.329754	-0.362301
N51	N	0.880781	-0.651544	-0.577861
H52	H	0.801621	-0.651585	-0.577866
H53	H	0.904187	-0.696892	-0.627479
N54	N	1.609880	-0.222113	-1.091825
H55	H	1.545055	-0.233456	-1.135617
H56	H	1.594152	-0.179682	-1.035725
N57	N	1.742475	-0.343479	-0.883719
H58	H	1.790837	-0.359559	-0.941552
H59	H	1.778196	-0.294773	-0.842353
N60	N	1.372021	-1.102841	-0.359552
H61	H	1.320707	-1.141946	-0.399579
H62	H	1.412236	-1.141882	-0.308314
N63	N	1.748600	-0.334845	-1.078590
H64	H	1.804469	-0.289561	-1.055293
H65	H	1.763666	-0.396775	-1.048045
H66	H	0.894193	-0.534067	-0.692173
H67	H	1.645655	-0.919053	-0.633679
N68	N	0.883668	-0.314504	-0.345636
H69	H	0.937518	-0.277911	-0.305592
H70	H	0.840983	-0.272791	-0.391293
H71	H	1.360262	-0.539078	-0.870891
N72	N	1.077413	-0.534336	-0.722594
H73	H	1.055255	-0.472452	-0.746255
H74	H	1.156563	-0.534386	-0.722529
H75	H	1.065752	-0.625366	-0.579365
H76	H	1.344221	-0.778168	-0.331825
H77	H	1.587906	-0.777818	-0.575887
H78	H	1.360320	-0.539020	-1.069958
H79	H	1.634267	-1.089987	-0.622239
H80	H	1.332842	-0.949128	-0.320380
H81	H	1.625400	-0.240214	-0.906004
