data_functionalizedCrystal
_audit_creation_method	'MofGen! by Chris Wilmer'
_symmetry_space_group_name_H-M	'P1'
_symmetry_Int_Tables_number	1
_symmetry_cell_setting	triclinic
loop_
_symmetry_equiv_pos_as_xyz
  x,y,z
_cell_length_a	18.215407
_cell_length_b	10.685194
_cell_length_c	18.215399
_cell_angle_alpha	85.600793
_cell_angle_beta	89.985195
_cell_angle_gamma	94.371669
loop_
_atom_site_label
_atom_site_type_symbol
_atom_site_fract_x
_atom_site_fract_y
_atom_site_fract_z
Zn1	Zn	1.102671	-0.502575	-0.393612
Zn2	Zn	1.602671	-0.002575	0.106388
Zn3	Zn	1.093188	-0.713625	-0.261112
Zn4	Zn	1.593188	-0.213625	0.238888
Zn5	Zn	0.979609	-0.502603	-0.270563
Zn6	Zn	1.479609	-0.002603	0.229437
Zn7	Zn	0.970176	-0.713524	-0.384146
Zn8	Zn	1.470176	-0.213524	0.115854
O9	O	1.036411	-0.608082	-0.327358
O10	O	1.536411	-0.108082	0.172642
O11	O	1.204396	-0.530601	-0.376042
O12	O	1.704396	-0.030601	0.123958
O13	O	1.078101	-0.685687	-0.159379
O14	O	1.578101	-0.185687	0.340621
O15	O	1.003850	-0.326003	-0.294802
O16	O	1.503850	0.173997	0.205198
O17	O	1.197429	-0.685659	-0.278695
O18	O	1.697429	-0.185659	0.221305
O19	O	1.094263	-0.325982	-0.385206
O20	O	1.594263	0.174018	0.114794
O21	O	0.994654	-0.530650	-0.166322
O22	O	1.494654	-0.030650	0.333678
O23	O	0.875375	-0.530552	-0.285623
O24	O	1.375375	-0.030552	0.214377
O25	O	0.987773	-0.685487	-0.488388
O26	O	1.487773	-0.185487	0.011612
O27	O	0.868445	-0.685515	-0.369072
O28	O	1.368445	-0.185515	0.130928
O29	O	1.085117	-0.530503	-0.495343
O30	O	1.585117	-0.030503	0.004657
O31	O	1.068954	-0.890208	-0.269516
O32	O	1.568954	-0.390208	0.230484
O33	O	0.978578	-0.890134	-0.359909
O34	O	1.478578	-0.390134	0.140091
C35	C	0.845207	-0.608026	-0.327346
C36	C	1.345207	-0.108026	0.172654
C37	C	0.763408	-0.608033	-0.327357
C38	C	1.263408	-0.108033	0.172643
C39	C	0.501964	-0.527499	-0.378115
C40	C	1.001964	-0.027499	0.121885
C41	C	0.578823	-0.527478	-0.378114
C42	C	1.078823	-0.027478	0.121886
C43	C	0.571598	-0.688706	-0.276616
C44	C	1.071598	-0.188706	0.223384
C45	C	0.494740	-0.688731	-0.276621
C46	C	0.994740	-0.188731	0.223379
C47	C	0.459925	-0.608121	-0.327370
C48	C	0.959925	-0.108121	0.172630
C49	C	0.613643	-0.608074	-0.327363
C50	C	1.113643	-0.108074	0.172637
C51	C	0.696978	-0.608053	-0.327361
C52	C	1.196978	-0.108053	0.172639
C53	C	0.376585	-0.608144	-0.327373
C54	C	0.876585	-0.108144	0.172627
C55	C	1.021734	-0.935961	-0.312676
C56	C	1.521734	-0.435961	0.187324
C57	C	1.015522	-1.076229	-0.306419
C58	C	1.515522	-0.576229	0.193581
C59	C	1.228362	-0.608138	-0.327371
C60	C	1.728362	-0.108138	0.172629
C61	C	1.310159	-0.608163	-0.327376
C62	C	1.810159	-0.108163	0.172624
C63	C	1.036450	-0.607981	-0.519316
C64	C	1.536450	-0.107981	-0.019316
C65	C	1.036467	-0.607938	-0.601117
C66	C	1.536467	-0.107938	-0.101117
C67	C	1.051166	-0.278922	-0.342114
C68	C	1.551166	0.221078	0.157886
C69	C	1.057454	-0.138654	-0.348402
C70	C	1.557454	0.361346	0.151598
C71	C	0.993059	-0.527156	-0.792929
C72	C	1.493059	-0.027156	-0.292929
C73	C	0.993073	-0.527130	-0.869789
C74	C	1.493073	-0.027130	-0.369789
C75	C	1.079970	-0.688570	-0.862549
C76	C	1.579970	-0.188570	-0.362549
C77	C	1.079952	-0.688601	-0.785690
C78	C	1.579952	-0.188601	-0.285690
C79	C	1.036498	-0.607886	-0.750882
C80	C	1.536498	-0.107886	-0.250882
C81	C	1.036530	-0.607830	-0.904601
C82	C	1.536530	-0.107830	-0.404601
C83	C	1.036545	-0.607803	-0.987936
C84	C	1.536545	-0.107803	-0.487936
C85	C	1.036481	-0.607915	-0.667542
C86	C	1.536481	-0.107915	-0.167542
C87	C	1.036419	-0.608091	-0.136152
C88	C	1.536419	-0.108091	0.363848
C89	C	1.036560	-0.607779	-0.054367
C90	C	1.536560	-0.107779	0.445633
H91	H	0.473620	-0.461860	-0.419438
H92	H	0.973620	0.038140	0.080562
O93	O	1.122219	-0.767067	-0.744953
O94	O	1.622219	-0.267067	-0.244953
C95	C	1.160567	-0.838316	-0.792153
C96	C	1.660567	-0.338316	-0.292153
H97	H	1.165449	-0.786607	-0.849261
H98	H	1.665449	-0.286607	-0.349261
H99	H	1.129324	-0.934150	-0.796026
H100	H	1.629324	-0.434150	-0.296026
C101	C	1.232071	-0.920047	-0.691197
C102	C	1.732071	-0.420047	-0.191197
C103	C	1.238072	-0.856533	-0.761336
C104	C	1.738072	-0.356533	-0.261336
H105	H	1.279879	-0.931290	-0.672186
H106	H	1.779879	-0.431290	-0.172186
H107	H	1.206233	-0.872050	-0.659396
H108	H	1.706233	-0.372050	-0.159396
H109	H	1.206032	-0.999902	-0.694434
H110	H	1.706032	-0.499902	-0.194434
H111	H	1.264102	-0.776674	-0.758096
H112	H	1.764102	-0.276674	-0.258096
H113	H	1.263916	-0.904517	-0.793135
H114	H	1.763916	-0.404517	-0.293135
H115	H	0.957700	-0.461392	-0.904021
H116	H	1.457700	0.038608	-0.404021
O117	O	0.605340	-0.766940	-0.227218
O118	O	1.105340	-0.266940	0.272782
C119	C	0.587783	-0.739200	-0.155139
C120	C	1.087783	-0.239200	0.344861
H121	H	0.534143	-0.690702	-0.155835
H122	H	1.034143	-0.190702	0.344165
H123	H	0.633928	-0.674258	-0.133313
H124	H	1.133928	-0.174258	0.366687
C125	C	0.644610	-0.921707	-0.104090
C126	C	1.144610	-0.421707	0.395910
C127	C	0.578726	-0.862150	-0.104944
C128	C	1.078726	-0.362150	0.395056
H129	H	0.639026	-0.997546	-0.073126
H130	H	1.139026	-0.497546	0.426874
H131	H	0.656441	-0.940394	-0.152651
H132	H	1.156441	-0.440394	0.347349
H133	H	0.683058	-0.867575	-0.085903
H134	H	1.183058	-0.367575	0.414097
H135	H	0.540282	-0.916275	-0.123139
H136	H	1.040282	-0.416275	0.376861
H137	H	0.566888	-0.843474	-0.056385
H138	H	1.066888	-0.343474	0.443615
O139	O	0.950775	-0.448724	-0.759232
O140	O	1.450775	0.051276	-0.259232
C141	C	0.912451	-0.377445	-0.812830
C142	C	1.412451	0.122555	-0.312830
H143	H	0.907604	-0.429113	-0.865298
H144	H	1.407604	0.070887	-0.365298
H145	H	0.943693	-0.281600	-0.825304
H146	H	1.443693	0.218400	-0.325304
C147	C	0.840885	-0.295801	-0.719207
C148	C	1.340885	0.204199	-0.219207
C149	C	0.834927	-0.359266	-0.783647
C150	C	1.334927	0.140734	-0.283647
H151	H	0.793066	-0.284581	-0.701206
H152	H	1.293066	0.215419	-0.201206
H153	H	0.866706	-0.343819	-0.683097
H154	H	1.366706	0.156181	-0.183097
H155	H	0.866923	-0.215937	-0.729612
H156	H	1.366923	0.284063	-0.229612
H157	H	0.808898	-0.439134	-0.773240
H158	H	1.308898	0.060866	-0.273240
H159	H	0.809099	-0.311261	-0.819756
H160	H	1.309099	0.188739	-0.319756
H161	H	1.115350	-0.754283	-0.890898
H162	H	1.615350	-0.254283	-0.390898
O163	O	0.619684	-0.449339	-0.427476
O164	O	1.119684	0.050661	0.072524
C165	C	0.660960	-0.521265	-0.471710
C166	C	1.160960	-0.021265	0.028290
H167	H	0.633364	-0.620674	-0.471716
H168	H	1.133364	-0.120674	0.028284
H169	H	0.719011	-0.525548	-0.448759
H170	H	1.219011	-0.025548	0.051241
C171	C	0.698800	-0.337665	-0.551017
C172	C	1.198800	0.162335	-0.051017
C173	C	0.664903	-0.459758	-0.551029
C174	C	1.164903	0.040242	-0.051029
H175	H	0.701236	-0.299724	-0.599944
H176	H	1.201236	0.200276	-0.099944
H177	H	0.670994	-0.289206	-0.521214
H178	H	1.170994	0.210794	-0.021214
H179	H	0.747172	-0.341252	-0.531887
H180	H	1.247172	0.158748	-0.031887
H181	H	0.616528	-0.456169	-0.570150
H182	H	1.116528	0.043831	-0.070150
H183	H	0.692701	-0.508216	-0.580837
H184	H	1.192701	-0.008216	-0.080837
O185	O	1.105943	-1.074210	-0.396934
O186	O	1.605943	-0.574210	0.103066
C187	C	1.101555	-0.943810	-0.392598
C188	C	1.601555	-0.443810	0.107402
H189	H	1.078267	-0.926028	-0.336566
H190	H	1.578267	-0.426028	0.163434
H191	H	1.063974	-0.906401	-0.437865
H192	H	1.563974	-0.406401	0.062135
C193	C	1.207587	-0.897762	-0.471221
C194	C	1.707587	-0.397762	0.028779
C195	C	1.178991	-0.875920	-0.402400
C196	C	1.678991	-0.375920	0.097600
H197	H	1.255352	-0.855882	-0.477271
H198	H	1.755352	-0.355882	0.022729
H199	H	1.210542	-0.985615	-0.474146
H200	H	1.710542	-0.485615	0.025854
H201	H	1.176263	-0.866588	-0.508936
H202	H	1.676263	-0.366588	-0.008936
H203	H	1.210309	-0.907108	-0.364687
H204	H	1.710309	-0.407108	0.135313
H205	H	1.176043	-0.788071	-0.399469
H206	H	1.676043	-0.288071	0.100531
H207	H	0.974860	-1.130099	-0.265690
H208	H	1.474860	-0.630099	0.234310
H209	H	0.460510	-0.754391	-0.235298
H210	H	0.960510	-0.254391	0.264702
