data_functionalizedCrystal
_audit_creation_method	'MofGen! by Chris Wilmer'
_symmetry_space_group_name_H-M	'P1'
_symmetry_Int_Tables_number	1
_symmetry_cell_setting	triclinic
loop_
_symmetry_equiv_pos_as_xyz
  x,y,z
_cell_length_a	10.685904
_cell_length_b	16.625546
_cell_length_c	10.686551
_cell_angle_alpha	94.409858
_cell_angle_beta	98.408451
_cell_angle_gamma	94.389060
loop_
_atom_site_label
_atom_site_type_symbol
_atom_site_fract_x
_atom_site_fract_y
_atom_site_fract_z
Zn1	Zn	1.995765	-0.180723	0.866686
Zn2	Zn	2.329098	0.152610	1.200019
Zn3	Zn	2.662431	0.485944	1.533352
Zn4	Zn	1.979310	-0.326796	0.654401
Zn5	Zn	2.312644	0.006538	0.987735
Zn6	Zn	2.645977	0.339871	1.321068
Zn7	Zn	1.767185	-0.203165	0.638146
Zn8	Zn	2.100518	0.130168	0.971479
Zn9	Zn	2.433852	0.463501	1.304813
Zn10	Zn	1.783433	-0.326718	0.850311
Zn11	Zn	2.116766	0.006616	1.183644
Zn12	Zn	2.450099	0.339949	1.516978
O13	O	1.881423	-0.259350	0.752386
O14	O	2.214757	0.073983	1.085719
O15	O	2.548090	0.407316	1.419053
O16	O	2.171219	-0.190740	0.852181
O17	O	2.504552	0.142593	1.185515
O18	O	2.837886	0.475927	1.518848
O19	O	1.937486	-0.319821	0.474612
O20	O	2.270819	0.013513	0.807945
O21	O	2.604152	0.346846	1.141278
O22	O	1.797593	-0.087349	0.668512
O23	O	2.130927	0.245984	1.001846
O24	O	2.464260	0.579317	1.335179
O25	O	2.159130	-0.298059	0.696217
O26	O	2.492463	0.035274	1.029551
O27	O	2.825797	0.368607	1.362884
O28	O	1.965530	-0.070861	0.836419
O29	O	2.298863	0.262472	1.169753
O30	O	2.632196	0.595806	1.503086
O31	O	1.781638	-0.228990	0.462669
O32	O	2.114972	0.104343	0.796002
O33	O	2.448305	0.437677	1.129336
O34	O	1.591703	-0.228915	0.652634
O35	O	1.925037	0.104419	0.985968
O36	O	2.258370	0.437752	1.319301
O37	O	1.825285	-0.297926	1.030117
O38	O	2.158618	0.035407	1.363450
O39	O	2.491951	0.368740	1.696783
O40	O	1.603640	-0.319688	0.808511
O41	O	1.936974	0.013645	1.141844
O42	O	2.270307	0.346979	1.475178
O43	O	1.981284	-0.190665	1.042147
O44	O	2.314618	0.142669	1.375480
O45	O	2.647951	0.476002	1.708814
O46	O	1.953240	-0.439624	0.680339
O47	O	2.286574	-0.106291	1.013673
O48	O	2.619907	0.227042	1.347006
O49	O	1.809330	-0.439567	0.824273
O50	O	2.142663	-0.106234	1.157607
O51	O	2.475996	0.227099	1.490940
C52	C	1.551613	-0.276729	0.727033
C53	C	1.884946	0.056605	1.060366
C54	C	2.218279	0.389938	1.393699
C55	C	1.410521	-0.284181	0.716217
C56	C	1.743854	0.049152	1.049550
C57	C	2.077187	0.382486	1.382883
C58	C	1.881299	-0.468850	0.752324
C59	C	2.214632	-0.135517	1.085657
C60	C	2.547966	0.197816	1.418990
C61	C	1.881365	-0.558467	0.752348
C62	C	2.214699	-0.225134	1.085682
C63	C	2.548032	0.108200	1.419015
C64	C	1.881597	-0.886624	0.752498
C65	C	2.214930	-0.553291	1.085831
C66	C	2.548264	-0.219957	1.419164
C67	C	1.881529	-0.795321	0.752459
C68	C	2.214862	-0.461987	1.085793
C69	C	2.548195	-0.128654	1.419126
C70	C	1.881480	-0.722549	0.752422
C71	C	2.214813	-0.389215	1.085756
C72	C	2.548147	-0.055882	1.419089
C73	C	1.881414	-0.631239	0.752385
C74	C	2.214747	-0.297906	1.085719
C75	C	2.548081	0.035427	1.419052
C76	C	2.212522	-0.241905	0.777839
C77	C	2.545855	0.091428	1.111172
C78	C	2.879188	0.424762	1.444506
C79	C	2.353616	-0.234471	0.788686
C80	C	2.686949	0.098863	1.122019
C81	C	3.020283	0.432196	1.455352
C82	C	1.906932	-0.241783	1.083478
C83	C	2.240266	0.091550	1.416811
C84	C	2.573599	0.424883	1.750145
C85	C	1.917803	-0.234297	1.224570
C86	C	2.251136	0.099036	1.557903
C87	C	2.584469	0.432369	1.891236
C88	C	1.881585	-0.049029	0.752479
C89	C	2.214918	0.284304	1.085812
C90	C	2.548251	0.617638	1.419146
C91	C	1.881653	0.040597	0.752519
C92	C	2.214987	0.373931	1.085852
C93	C	2.548320	0.707264	1.419185
C94	C	1.856086	-0.276787	0.422588
C95	C	2.189420	0.056546	0.755921
C96	C	2.522753	0.389880	1.089255
C97	C	1.845462	-0.284033	0.281516
C98	C	2.178795	0.049300	0.614849
C99	C	2.512129	0.382634	0.948183
H100	H	1.351299	-0.332437	0.645897
H101	H	1.684633	0.000896	0.979231
H102	H	2.017966	0.334229	1.312564
C103	C	1.750554	-0.349292	1.201569
C104	C	2.083888	-0.015959	1.534902
C105	C	2.417221	0.317375	1.868236
H106	H	1.755445	-0.345928	1.114046
H107	H	2.088778	-0.012594	1.447380
H108	H	2.422112	0.320739	1.780713
H109	H	1.770735	-0.401356	1.224637
H110	H	2.104068	-0.068023	1.557970
H111	H	2.437402	0.265310	1.891303
H112	H	1.666919	-0.340841	1.216683
H113	H	2.000252	-0.007508	1.550016
H114	H	2.333586	0.325825	1.883349
H115	H	1.988063	-0.185990	1.283762
H116	H	2.321396	0.147344	1.617095
H117	H	2.654730	0.480677	1.950429
H118	H	1.412844	-0.186206	0.859001
H119	H	1.746177	0.147127	1.192335
H120	H	2.079510	0.480460	1.525668
