data_functionalizedCrystal
_audit_creation_method	'MofGen! by Chris Wilmer'
_symmetry_space_group_name_H-M	'P1'
_symmetry_Int_Tables_number	1
_symmetry_cell_setting	triclinic
loop_
_symmetry_equiv_pos_as_xyz
  x,y,z
_cell_length_a	14.971486
_cell_length_b	14.421503
_cell_length_c	14.971506
_cell_angle_alpha	90.005875
_cell_angle_beta	96.381742
_cell_angle_gamma	90.002684
loop_
_atom_site_label
_atom_site_type_symbol
_atom_site_fract_x
_atom_site_fract_y
_atom_site_fract_z
O1	O	1.186959	0.077002	-0.116549
O2	O	1.520292	0.410335	0.216784
O3	O	1.853625	0.743668	0.550117
O4	O	0.926559	0.077027	-0.130508
O5	O	1.259893	0.410360	0.202825
O6	O	1.593226	0.743693	0.536159
O7	O	1.063729	0.077011	0.006670
O8	O	1.397062	0.410344	0.340004
O9	O	1.730396	0.743678	0.673337
O10	O	1.049789	0.077017	-0.253727
O11	O	1.383122	0.410351	0.079606
O12	O	1.716456	0.743684	0.412939
O13	O	1.063706	-0.077212	0.006650
O14	O	1.397040	0.256121	0.339983
O15	O	1.730373	0.589454	0.673317
O16	O	0.926537	-0.077197	-0.130528
O17	O	1.259870	0.256136	0.202805
O18	O	1.593203	0.589470	0.536138
O19	O	1.186936	-0.077222	-0.116570
O20	O	1.520269	0.256112	0.216764
O21	O	1.853602	0.589445	0.550097
Cu22	Cu	1.056734	-0.091291	-0.123551
Cu23	Cu	1.390068	0.242042	0.209782
Cu24	Cu	1.723401	0.575376	0.543116
Cu25	Cu	1.056761	0.091096	-0.123527
Cu26	Cu	1.390094	0.424429	0.209807
Cu27	Cu	1.723428	0.757763	0.543140
O28	O	1.049766	-0.077206	-0.253748
O29	O	1.383100	0.256127	0.079585
O30	O	1.716433	0.589460	0.412919
C31	C	0.893223	-0.000082	-0.129894
C32	C	1.226557	0.333251	0.203439
C33	C	1.559890	0.666585	0.536773
C34	C	0.793926	-0.000072	-0.128023
C35	C	1.127259	0.333261	0.205310
C36	C	1.460593	0.666594	0.538643
N37	N	1.056722	-0.219572	-0.123567
N38	N	1.390055	0.113761	0.209766
N39	N	1.723388	0.447094	0.543099
C40	C	0.736707	-0.000072	-0.208612
C41	C	1.070040	0.333262	0.124722
C42	C	1.403373	0.666595	0.458055
C43	C	0.643407	-0.000086	-0.206849
C44	C	0.976740	0.333248	0.126485
C45	C	1.310074	0.666581	0.459818
C46	C	0.607329	-0.000094	-0.124496
C47	C	0.940662	0.333240	0.208837
C48	C	1.273995	0.666573	0.542171
C49	C	0.664556	-0.000097	-0.043901
C50	C	0.997889	0.333236	0.289432
C51	C	1.331222	0.666570	0.622765
C52	C	0.757853	-0.000090	-0.045665
C53	C	1.091187	0.333244	0.287668
C54	C	1.424520	0.666577	0.621001
C55	C	0.470093	-0.000110	-0.040230
C56	C	0.803426	0.333224	0.293103
C57	C	1.136759	0.666557	0.626436
C58	C	0.376789	-0.000115	-0.038466
C59	C	0.710122	0.333218	0.294867
C60	C	1.043455	0.666551	0.628201
C61	C	0.355647	-0.000106	-0.201414
C62	C	0.688980	0.333228	0.131920
C63	C	1.022313	0.666561	0.465253
C64	C	0.448944	-0.000099	-0.203178
C65	C	0.782278	0.333235	0.130156
C66	C	1.115611	0.666568	0.463489
C67	C	0.506165	-0.000100	-0.122582
C68	C	0.839498	0.333233	0.210751
C69	C	1.172831	0.666567	0.544084
C70	C	0.993283	-0.469219	-0.186970
C71	C	1.326617	-0.135886	0.146363
C72	C	1.659950	0.197448	0.479697
C73	C	1.074126	-0.531029	-0.204417
C74	C	1.407460	-0.197696	0.128916
C75	C	1.740793	0.135638	0.462250
C76	C	1.056744	-0.408734	-0.123546
C77	C	1.390077	-0.075400	0.209787
C78	C	1.723410	0.257933	0.543121
C79	C	0.975922	-0.531018	-0.106120
C80	C	1.309255	-0.197684	0.227213
C81	C	1.642588	0.135649	0.560547
C82	C	1.056757	-0.591455	-0.123527
C83	C	1.390091	-0.258122	0.209806
C84	C	1.723424	0.075211	0.543139
C85	C	1.137627	-0.469183	-0.141033
C86	C	1.470961	-0.135850	0.192300
C87	C	1.804294	0.197484	0.525633
C88	C	1.039369	-0.469166	-0.042701
C89	C	1.372703	-0.135833	0.290632
C90	C	1.706036	0.197500	0.623966
C91	C	1.120271	-0.530948	-0.060114
C92	C	1.453604	-0.197615	0.273220
C93	C	1.786937	0.135718	0.606553
C94	C	1.056734	-0.303473	-0.123559
C95	C	1.390068	0.029861	0.209774
C96	C	1.723401	0.363194	0.543108
C97	C	1.056776	-0.696714	-0.123514
C98	C	1.390109	-0.363381	0.209820
C99	C	1.723442	-0.030047	0.543153
C100	C	1.220272	-0.000111	-0.117184
C101	C	1.553605	0.333222	0.216150
C102	C	1.886939	0.666555	0.549483
C103	C	1.319569	-0.000115	-0.119054
C104	C	1.652903	0.333219	0.214279
C105	C	1.986236	0.666552	0.547612
C106	C	1.063091	-0.000099	0.039984
C107	C	1.396424	0.333234	0.373318
C108	C	1.729758	0.666567	0.706651
C109	C	1.061213	-0.000095	0.139281
C110	C	1.394546	0.333238	0.472614
C111	C	1.727880	0.666572	0.805947
N112	N	1.056781	0.219377	-0.123503
N113	N	1.390114	0.552711	0.209830
N114	N	1.723447	0.886044	0.543163
C115	C	1.050404	-0.000094	-0.287062
C116	C	1.383738	0.333239	0.046271
C117	C	1.717071	0.666573	0.379605
C118	C	1.052282	-0.000092	-0.386358
C119	C	1.385616	0.333241	-0.053025
C120	C	1.718949	0.666575	0.280308
C121	C	1.134631	-0.000103	0.577563
C122	C	1.467964	0.333231	0.910896
C123	C	1.801298	0.666564	1.244230
C124	C	1.136389	-0.000109	0.484263
C125	C	1.469722	0.333225	0.817596
C126	C	1.803055	0.666558	1.150930
C127	C	1.055796	-0.000098	0.427043
C128	C	1.389130	0.333236	0.760376
C129	C	1.722463	0.666569	1.093710
C130	C	0.973441	-0.000090	0.463127
C131	C	1.306774	0.333243	0.796461
C132	C	1.640108	0.666577	1.129794
C133	C	0.971685	-0.000090	0.556426
C134	C	1.305018	0.333243	0.889759
C135	C	1.638351	0.666576	1.223093
C136	C	0.977108	-0.000087	0.268664
C137	C	1.310441	0.333247	0.601998
C138	C	1.643775	0.666580	0.935331
C139	C	0.978864	-0.000085	0.175359
C140	C	1.312198	0.333249	0.508693
C141	C	1.645531	0.666582	0.842026
C142	C	1.141812	-0.000105	0.196501
C143	C	1.475145	0.333228	0.529835
C144	C	1.808479	0.666562	0.863168
C145	C	1.140055	-0.000105	0.289800
C146	C	1.473389	0.333228	0.623133
C147	C	1.806722	0.666561	0.956467
C148	C	1.057700	-0.000096	0.325878
C149	C	1.391033	0.333237	0.659211
C150	C	1.724367	0.666571	0.992544
H151	H	0.766074	-0.000065	-0.275673
H152	H	1.099407	0.333269	0.057661
H153	H	1.432740	0.666602	0.390994
H154	H	1.205998	-0.442136	-0.155846
H155	H	1.539331	-0.108802	0.177487
H156	H	1.872664	0.224531	0.510821
H157	H	1.205681	-0.000108	0.336387
H158	H	1.539014	0.333225	0.669720
H159	H	1.872348	0.666558	1.003053
H160	H	0.635173	-0.000117	0.023151
H161	H	0.968507	0.333217	0.356485
H162	H	1.301840	0.666550	0.689818
H163	H	0.804441	-0.000090	0.019958
H164	H	1.137775	0.333244	0.353291
H165	H	1.471108	0.666577	0.686625
H166	H	0.904628	-0.000090	0.585799
H167	H	1.237961	0.333244	0.919132
H168	H	1.571294	0.666577	1.252466
H169	H	0.478316	-0.000083	-0.270236
H170	H	0.811649	0.333250	0.063097
H171	H	1.144982	0.666583	0.396431
H172	H	0.596822	-0.000084	-0.272472
H173	H	0.930155	0.333249	0.060861
H174	H	1.263489	0.666583	0.394195
H175	H	0.907566	-0.558181	-0.091390
H176	H	1.240900	-0.224848	0.241944
H177	H	1.574233	0.108485	0.575277
H178	H	1.024636	-0.441972	0.025638
H179	H	1.357969	-0.108639	0.358971
H180	H	1.691303	0.224694	0.692304
H181	H	1.088834	-0.558201	-0.272778
H182	H	1.422168	-0.224868	0.060556
H183	H	1.755501	0.108465	0.393889
H184	H	0.939672	-0.442115	-0.240649
H185	H	1.273005	-0.108782	0.092685
H186	H	1.606339	0.224552	0.426018
H187	H	1.203445	-0.000118	0.454893
H188	H	1.536778	0.333215	0.788226
H189	H	1.870112	0.666548	1.121559
H190	H	1.200259	-0.000104	0.624146
H191	H	1.533592	0.333230	0.957479
H192	H	1.866926	0.666563	1.290813
H193	H	1.174001	-0.557882	-0.006467
H194	H	1.507335	-0.224549	0.326866
H195	H	1.840668	0.108784	0.660200
H196	H	0.910045	-0.000092	0.298035
H197	H	1.243379	0.333241	0.631368
H198	H	1.576712	0.666575	0.964702
H199	H	0.309053	-0.000109	-0.267037
H200	H	0.642386	0.333225	0.066296
H201	H	0.975719	0.666558	0.399630
H202	H	1.208869	-0.000027	0.167122
H203	H	1.542202	0.333306	0.500456
H204	H	1.875535	0.666639	0.833789
H205	H	0.913239	-0.000081	0.128772
H206	H	1.246572	0.333252	0.462106
H207	H	1.579905	0.666585	0.795439
H208	H	0.907821	-0.000087	0.416531
H209	H	1.241155	0.333247	0.749865
H210	H	1.574488	0.666580	1.083198
H211	H	0.347417	-0.000123	0.028593
H212	H	0.680750	0.333210	0.361926
H213	H	1.014084	0.666544	0.695259
H214	H	0.516680	-0.000112	0.025399
H215	H	0.850013	0.333221	0.358732
H216	H	1.183347	0.666554	0.692066
