data_functionalizedCrystal
_audit_creation_method	'MofGen! by Chris Wilmer'
_symmetry_space_group_name_H-M	'P1'
_symmetry_Int_Tables_number	1
_symmetry_cell_setting	triclinic
loop_
_symmetry_equiv_pos_as_xyz
  x,y,z
_cell_length_a	19.121424
_cell_length_b	19.121111
_cell_length_c	15.296720
_cell_angle_alpha	78.381985
_cell_angle_beta	101.630494
_cell_angle_gamma	85.194139
loop_
_atom_site_label
_atom_site_type_symbol
_atom_site_fract_x
_atom_site_fract_y
_atom_site_fract_z
Zn1	Zn	0.997219	0.300626	-0.472070
Zn2	Zn	1.012720	0.397703	-0.325687
Zn3	Zn	0.900171	0.285075	-0.325683
Zn4	Zn	0.872584	0.425191	-0.485646
O5	O	0.945674	0.352149	-0.402272
O6	O	1.098538	0.308508	-0.446972
O7	O	1.015822	0.364750	-0.197480
O8	O	0.918103	0.187872	-0.339418
O9	O	1.109926	0.379830	-0.339425
O10	O	0.989404	0.199297	-0.446968
O11	O	0.933133	0.282003	-0.197477
O12	O	0.797250	0.308657	-0.352582
O13	O	0.871085	0.426680	-0.612052
O14	O	0.776982	0.411600	-0.470107
O15	O	0.962654	0.335162	-0.602078
O16	O	0.989072	0.500615	-0.352590
O17	O	0.886115	0.520811	-0.470111
C18	C	0.761378	0.361425	-0.412818
C19	C	0.682531	0.365413	-0.417352
C20	C	0.236054	0.390649	-0.446134
C21	C	0.310141	0.386905	-0.441857
C22	C	0.357704	0.331377	-0.378623
C23	C	0.331177	0.279594	-0.319656
C24	C	0.257092	0.283342	-0.323929
C25	C	0.581920	0.317378	-0.362659
C26	C	0.656009	0.313633	-0.358391
C27	C	0.634968	0.420946	-0.480592
C28	C	0.560882	0.424686	-0.484864
C29	C	0.534362	0.372905	-0.425893
C30	C	0.433432	0.327546	-0.374251
C31	C	0.458635	0.376739	-0.430261
C32	C	0.936299	0.536454	-0.412843
C33	C	0.932349	0.615301	-0.417392
C34	C	0.984126	0.641811	-0.358389
C35	C	0.980414	0.715897	-0.362673
C36	C	0.924922	0.763473	-0.425956
C37	C	0.873143	0.736959	-0.484965
C38	C	0.876858	0.662874	-0.480685
C39	C	0.911025	0.987689	-0.441941
C40	C	0.907312	1.061779	-0.446215
C41	C	1.014585	1.040712	-0.323923
C42	C	1.018293	0.966626	-0.319645
C43	C	0.966515	0.940119	-0.378658
C44	C	0.921126	0.839202	-0.430334
C45	C	0.970315	0.864392	-0.374283
C46	C	1.130689	0.342837	-0.391685
C47	C	1.209532	0.338869	-0.387173
C48	C	0.955094	1.167128	-0.391690
C49	C	0.959089	1.088288	-0.387212
C50	C	0.912063	0.385722	-0.641237
C51	C	0.897741	0.400029	-0.743070
C52	C	1.048073	0.249770	-1.009347
C53	C	1.061534	0.236329	-0.913670
C54	C	1.020587	0.277252	-0.871015
C55	C	0.966176	0.331620	-0.924047
C56	C	0.952717	0.345066	-1.019734
C57	C	0.925231	0.372549	-0.881402
C58	C	0.870821	0.426916	-0.934434
C59	C	0.857364	0.440359	-1.030111
C60	C	0.898311	0.399436	-1.072765
C61	C	0.938690	0.359102	-0.785715
C62	C	0.843334	0.454399	-0.796101
C63	C	0.829873	0.467840	-0.891779
C64	C	0.979197	0.318653	-0.164231
C65	C	0.993667	0.304139	-0.062379
H66	H	0.331731	0.429071	-0.489867
C67	C	1.091778	0.206109	-0.728305
C68	C	1.035377	0.262473	-0.765845
H69	H	1.100904	0.196980	-0.663374
H70	H	1.133877	0.219121	-0.748027
H71	H	1.078797	0.163996	-0.748043
H72	H	1.048360	0.304588	-0.746112
H73	H	0.993270	0.249464	-0.746115
H74	H	0.813064	0.484635	-1.073287
C75	C	1.069777	0.228080	-1.151415
C76	C	1.093080	0.204794	-1.056235
H77	H	1.097564	0.200309	-1.180359
H78	H	1.075522	0.277418	-1.169217
H79	H	1.020441	0.222295	-1.169219
H80	H	1.142415	0.210585	-1.038429
H81	H	1.087341	0.155445	-1.038426
C82	C	0.146134	0.492057	-0.468941
C83	C	0.183776	0.451688	-0.515646
H84	H	0.113858	0.529738	-0.511857
H85	H	0.179270	0.512062	-0.428859
H86	H	0.119734	0.461748	-0.434444
H87	H	0.210180	0.481996	-0.550138
H88	H	0.150634	0.431682	-0.555744
C89	C	0.725598	0.490866	-0.775501
C90	C	0.798319	0.499389	-0.749229
H91	H	0.697812	0.518644	-0.746564
H92	H	0.719856	0.441529	-0.757683
H93	H	0.709806	0.506656	-0.840076
H94	H	0.814112	0.483594	-0.684655
H95	H	0.804065	0.548736	-0.767042
H96	H	0.419906	0.421952	-0.481743
H97	H	1.022576	0.737477	-0.314625
H98	H	0.785571	0.512106	-0.934971
C99	C	1.075913	0.920310	-0.161248
C100	C	1.079298	0.914338	-0.250086
H101	H	1.113579	0.888033	-0.118306
H102	H	1.030769	0.908716	-0.149819
H103	H	1.081107	0.968231	-0.155367
H104	H	1.074099	0.866419	-0.255969
H105	H	1.124454	0.925928	-0.261519
H106	H	0.522160	0.469905	-0.536354
H107	H	0.656568	0.463103	-0.528601
C108	C	0.669374	0.207949	-0.237996
C109	C	0.708295	0.252602	-0.288863
H110	H	0.701655	0.170278	-0.195070
H111	H	0.636248	0.187929	-0.278074
H112	H	0.643833	0.235355	-0.206335
H113	H	0.733831	0.225196	-0.320529
H114	H	0.741433	0.272622	-0.248780
C115	C	0.887925	0.922176	-0.560939
C116	C	0.854104	0.958564	-0.506804
H117	H	0.852780	0.904199	-0.600988
H118	H	0.921496	0.883238	-0.522646
H119	H	0.912428	0.954419	-0.595911
H120	H	0.829606	0.926319	-0.471827
H121	H	0.820521	0.997507	-0.545102
C122	C	0.745595	0.772154	-0.537675
C123	C	0.812144	0.789250	-0.554532
H124	H	0.707937	0.804433	-0.580627
H125	H	0.743304	0.776202	-0.477411
H126	H	0.740409	0.724236	-0.543570
H127	H	0.817332	0.837167	-0.548629
H128	H	0.814437	0.785209	-0.614811
H129	H	1.105837	0.192064	-0.870498
H130	H	0.560337	0.275217	-0.314638
C131	C	0.180372	0.190368	-0.310737
C132	C	0.227933	0.226426	-0.259119
H133	H	0.162368	0.155235	-0.270720
H134	H	0.205037	0.167433	-0.347480
H135	H	0.141448	0.223983	-0.349006
H136	H	0.266859	0.192811	-0.220854
H137	H	0.203267	0.249361	-0.222360
H138	H	0.887354	0.410377	-1.150673
H139	H	1.056740	1.062303	-0.275880
H140	H	0.834696	0.641292	-0.528733
H141	H	0.369910	0.234384	-0.268165
H142	H	0.472166	0.282334	-0.322767
C143	C	0.801657	1.075168	-0.566690
C144	C	0.846317	1.114077	-0.515790
H145	H	0.764007	1.107456	-0.609643
H146	H	0.781608	1.042065	-0.526637
H147	H	0.829069	1.049603	-0.598321
H148	H	0.818906	1.139638	-0.484153
H149	H	0.866367	1.147193	-0.555849
C150	C	1.089788	0.628437	-0.237944
C151	C	1.045125	0.589519	-0.288825
H152	H	1.127450	0.596154	-0.195002
H153	H	1.062387	0.653997	-0.206308
H154	H	1.109827	0.661545	-0.278017
H155	H	1.025082	0.556414	-0.248752
H156	H	1.072530	0.563946	-0.320462
H157	H	1.015499	0.825654	-0.322761
H158	H	0.875943	0.877946	-0.481858
H159	H	0.982992	0.314835	-0.742546
