data_functionalizedCrystal
_audit_creation_method	'MofGen! by Chris Wilmer'
_symmetry_space_group_name_H-M	'P1'
_symmetry_Int_Tables_number	1
_symmetry_cell_setting	triclinic
loop_
_symmetry_equiv_pos_as_xyz
  x,y,z
_cell_length_a	27.732048
_cell_length_b	27.732048
_cell_length_c	14.421503
_cell_angle_alpha	89.997938
_cell_angle_beta	89.987968
_cell_angle_gamma	97.357346
loop_
_atom_site_label
_atom_site_type_symbol
_atom_site_fract_x
_atom_site_fract_y
_atom_site_fract_z
O1	O	-0.057510	0.640930	-0.076978
O2	O	-0.066256	0.500137	-0.077003
O3	O	0.008514	0.574906	-0.077002
O4	O	-0.132280	0.566161	-0.076979
O5	O	0.008503	0.574894	0.077222
O6	O	-0.066267	0.500124	0.077220
O7	O	-0.057521	0.640918	0.077246
Cu8	Cu	-0.061895	0.570520	0.091315
Cu9	Cu	-0.061882	0.570535	-0.091072
O10	O	-0.132291	0.566148	0.077245
C11	C	-0.066078	0.482124	0.000105
C12	C	-0.065525	0.428469	0.000094
C13	C	-0.106229	0.089654	0.000141
C14	C	-0.104178	-0.112006	0.000149
O15	O	-0.141398	-0.143262	0.000195
N16	N	-0.059843	-0.131130	0.000140
C17	C	-0.016017	-0.099835	0.000135
O18	O	0.021740	-0.120728	0.000137
C19	C	-0.018068	0.101824	0.000134
C20	C	-0.062407	0.120944	0.000133
C21	C	-0.150563	0.108775	0.000141
C22	C	-0.151076	0.159187	0.000134
C23	C	-0.107253	0.190477	0.000127
C24	C	-0.062919	0.171356	0.000126
C25	C	0.025757	0.133117	0.000136
C26	C	0.025240	0.183535	0.000138
C27	C	-0.019098	0.202655	0.000137
C28	C	-0.019609	0.253059	0.000112
N29	N	-0.063944	0.272183	0.000121
C30	C	-0.107766	0.240892	0.000128
C31	C	-0.014943	-0.205709	0.000134
C32	C	-0.014430	-0.256124	0.000133
C33	C	-0.102591	-0.268291	0.000148
C34	C	-0.103104	-0.217876	0.000143
C35	C	-0.059278	-0.186585	0.000143
C36	C	-0.108839	0.346761	0.000113
C37	C	-0.109347	0.397178	0.000102
C38	C	-0.021186	0.409341	0.000091
C39	C	-0.020678	0.358929	0.000097
C40	C	-0.064508	0.327639	0.000111
O41	O	0.017592	0.284343	0.000076
O42	O	-0.145518	0.261794	0.000147
C43	C	-0.105716	0.039242	0.000148
C44	C	-0.061382	0.020120	0.000148
C45	C	-0.017560	0.051411	0.000140
C46	C	-0.060869	-0.030294	0.000146
C47	C	-0.104691	-0.061585	0.000154
C48	C	-0.149026	-0.042461	0.000163
C49	C	-0.149539	0.007951	0.000156
C50	C	0.026775	0.032287	0.000131
C51	C	0.027284	-0.018125	0.000137
C52	C	-0.016538	-0.049416	0.000145
C53	C	-0.150292	0.566338	0.000136
C54	C	-0.203947	0.566891	0.000145
C55	C	-0.542762	0.526187	0.000093
C56	C	-0.744422	0.528238	0.000082
O57	O	-0.775677	0.491017	0.000035
N58	N	-0.763546	0.572573	0.000092
C59	C	-0.732251	0.616399	0.000098
O60	O	-0.753144	0.654156	0.000096
C61	C	-0.530592	0.614347	0.000102
C62	C	-0.511472	0.570009	0.000102
C63	C	-0.523641	0.481853	0.000092
C64	C	-0.473229	0.481340	0.000100
C65	C	-0.441938	0.525162	0.000108
C66	C	-0.461060	0.569497	0.000110
C67	C	-0.499299	0.658172	0.000101
C68	C	-0.448881	0.657656	0.000100
C69	C	-0.429761	0.613317	0.000100
C70	C	-0.379357	0.612807	0.000126
N71	N	-0.360233	0.568472	0.000117
C72	C	-0.391524	0.524649	0.000108
C73	C	-0.838125	0.617473	0.000098
C74	C	-0.888539	0.617986	0.000098
C75	C	-0.900707	0.529825	0.000081
C76	C	-0.850291	0.529312	0.000087
C77	C	-0.819001	0.573138	0.000088
C78	C	-0.285655	0.523577	0.000125
C79	C	-0.235238	0.523069	0.000136
C80	C	-0.223075	0.611229	0.000149
C81	C	-0.273487	0.611738	0.000142
C82	C	-0.304777	0.567908	0.000127
O83	O	-0.348073	0.650008	0.000163
O84	O	-0.370621	0.486898	0.000089
C85	C	-0.593174	0.526699	0.000085
C86	C	-0.612295	0.571034	0.000086
C87	C	-0.581005	0.614856	0.000095
C88	C	-0.662710	0.571547	0.000087
C89	C	-0.694001	0.527725	0.000078
C90	C	-0.674877	0.483389	0.000069
C91	C	-0.624465	0.482877	0.000076
C92	C	-0.600129	0.659191	0.000105
C93	C	-0.650541	0.659700	0.000098
C94	C	-0.681832	0.615878	0.000089
C95	C	0.026515	0.574716	0.000105
C96	C	0.080170	0.574164	0.000089
C97	C	-0.057699	0.658931	0.000136
C98	C	-0.058252	0.712586	0.000140
N99	N	-0.061904	0.570513	0.219596
N100	N	-0.061869	0.570545	-0.219353
C101	C	-0.096462	0.535934	0.469249
C102	C	-0.105518	0.579543	0.531062
C103	C	-0.061892	0.570525	0.408758
C104	C	-0.052848	0.526927	0.531039
C105	C	-0.061882	0.570532	0.591479
C106	C	-0.070970	0.614156	0.469210
C107	C	-0.018281	0.561512	0.469181
C108	C	-0.027318	0.605152	0.530966
C109	C	-0.061900	0.570520	0.303496
C110	C	-0.061875	0.570543	0.696738
H111	H	0.061861	0.117558	0.000137
H112	H	-0.184708	-0.067947	0.000165
Br113	Br	-0.145224	0.487226	0.424077
H114	H	-0.139207	-0.202311	0.000148
H115	H	-0.219673	0.486962	0.000141
H116	H	0.014492	0.434827	0.000082
H117	H	0.018584	0.553867	0.441979
Br118	Br	0.021419	0.653964	0.575856
H119	H	-0.812652	0.653163	0.000100
Br120	Br	0.084721	0.225997	0.000143
H121	H	-0.045202	0.490054	0.558200
Br122	Br	-0.166981	0.592263	0.576364
Br123	Br	-0.299438	0.671911	0.000182
H124	H	-0.078660	0.651037	0.442165
H125	H	-0.145454	0.412743	0.000101
Br126	Br	-0.598524	0.422701	0.000076
Br127	Br	0.039496	0.332978	0.000101
H128	H	-0.185643	0.023514	0.000156
H129	H	-0.187180	0.174750	0.000134
Br130	Br	-0.717353	0.423917	0.000063
Br131	Br	-0.168323	0.304305	0.000133
H132	H	-0.186251	0.083302	0.000151
Br133	Br	0.086255	0.074746	0.000124
H134	H	-0.138273	-0.293777	0.000155
Br135	Br	0.045745	-0.282067	0.000106
H136	H	0.020747	-0.180236	0.000134
Br137	Br	-0.824347	0.469137	0.000087
H138	H	-0.423407	0.693344	0.000096
H139	H	-0.311125	0.487886	0.000112
Br140	Br	0.087463	-0.044068	0.000122
H141	H	-0.457666	0.445236	0.000092
H142	H	-0.926193	0.494143	0.000078
Br143	Br	-0.914482	0.678161	0.000116
H144	H	-0.549113	0.446165	0.000082
H145	H	-0.514857	0.694277	0.000101
Br146	Br	-0.180600	0.670699	0.000170
H147	H	-0.666104	0.695808	0.000105
Br148	Br	-0.557670	0.718671	0.000118
