data_functionalizedCrystal
_audit_creation_method	'MofGen! by Chris Wilmer'
_symmetry_space_group_name_H-M	'P1'
_symmetry_Int_Tables_number	1
_symmetry_cell_setting	triclinic
loop_
_symmetry_equiv_pos_as_xyz
  x,y,z
_cell_length_a	11.792241
_cell_length_b	27.732048
_cell_length_c	10.868271
_cell_angle_alpha	89.989927
_cell_angle_beta	89.999893
_cell_angle_gamma	83.418036
loop_
_atom_site_label
_atom_site_type_symbol
_atom_site_fract_x
_atom_site_fract_y
_atom_site_fract_z
O1	O	1.504789	0.066248	-0.102217
O2	O	1.174230	0.073076	-0.102248
O3	O	1.349776	-0.000675	-0.102208
O4	O	1.329243	0.139999	-0.102257
O5	O	1.349762	-0.000678	0.102437
O6	O	1.174215	0.073073	0.102397
O7	O	1.504775	0.066245	0.102427
Zn8	Zn	1.339493	0.069659	0.134904
Zn9	Zn	1.339512	0.069662	-0.134724
O10	O	1.329229	0.139996	0.102388
C11	C	1.131945	0.072645	0.000071
C12	C	1.005973	0.071362	0.000061
C13	C	0.775336	0.069001	0.000097
C14	C	0.903679	0.070313	0.000077
C15	C	1.349338	-0.018686	0.000118
C16	C	1.348040	-0.072348	0.000128
C17	C	1.443606	-0.410609	0.000073
C18	C	1.438790	-0.612297	0.000055
O19	O	1.526178	-0.643045	0.000010
N20	N	1.334698	-0.632024	0.000047
C21	C	1.231803	-0.601327	0.000035
O22	O	1.143157	-0.622734	0.000015
C23	C	1.236620	-0.399640	0.000044
C24	C	1.340718	-0.379915	0.000065
C25	C	1.547695	-0.390884	0.000093
C26	C	1.548898	-0.340465	0.000104
C27	C	1.446011	-0.309771	0.000095
C28	C	1.341921	-0.329496	0.000076
C29	C	1.133726	-0.368943	0.000023
C30	C	1.134940	-0.318519	0.000022
C31	C	1.239038	-0.298794	0.000043
C32	C	1.240237	-0.248384	0.000079
N33	N	1.344328	-0.228656	0.000087
C34	C	1.447215	-0.259350	0.000095
C35	C	1.229282	-0.707215	0.000033
C36	C	1.228077	-0.757637	0.000033
C37	C	1.435065	-0.768603	0.000051
C38	C	1.436268	-0.718181	0.000060
C39	C	1.333374	-0.687488	0.000041
C40	C	1.449733	-0.153466	0.000120
C41	C	1.450927	-0.103042	0.000136
C42	C	1.243941	-0.092080	0.000111
C43	C	1.242746	-0.142500	0.000102
C44	C	1.345652	-0.173192	0.000102
O45	O	1.152896	-0.217607	0.000111
O46	O	1.535849	-0.237933	0.000088
C47	C	1.442403	-0.461028	0.000062
C48	C	1.338313	-0.480753	0.000043
C49	C	1.235426	-0.450060	0.000034
C50	C	1.337108	-0.531175	0.000043
C51	C	1.439996	-0.561868	0.000051
C52	C	1.544087	-0.542141	0.000059
C53	C	1.545290	-0.491722	0.000070
C54	C	1.131334	-0.469787	0.000026
C55	C	1.130140	-0.520207	0.000016
C56	C	1.233027	-0.550900	0.000024
C57	C	1.547059	0.066676	0.000106
C58	C	1.673032	0.067959	0.000108
C59	C	1.329667	0.158007	0.000059
C60	C	1.330965	0.211669	0.000041
N61	N	1.339488	0.069656	0.318918
N62	N	1.339525	0.069662	-0.318738
C63	C	1.339506	0.069661	0.569924
C64	C	1.339492	0.069660	0.430246
H65	H	1.535700	-0.086985	0.000156
H66	H	1.143310	-0.773692	0.000037
H67	H	1.145488	-0.682229	0.000018
O68	O	1.549798	-0.183207	0.000179
C69	C	1.755226	-0.188749	0.000140
C70	C	1.641989	-0.155013	0.000092
H71	H	1.829792	-0.165968	0.000044
H72	H	1.759915	-0.212627	0.085801
H73	H	1.759795	-0.212632	-0.085486
H74	H	1.637344	-0.131099	0.085660
H75	H	1.637347	-0.131167	-0.085626
O76	O	1.646441	-0.472588	-0.000137
C77	C	1.823760	-0.466566	-0.106107
C78	C	1.709230	-0.488253	-0.106037
H79	H	1.874567	-0.479231	-0.191705
H80	H	1.807035	-0.425254	-0.106184
H81	H	1.874503	-0.479187	-0.020422
H82	H	1.658429	-0.475670	-0.191707
H83	H	1.726036	-0.529563	-0.105896
O84	O	1.141528	-0.161583	0.000031
C85	C	0.936353	-0.145378	0.000068
C86	C	1.050902	-0.123707	0.000139
H87	H	0.863052	-0.114766	0.000181
H88	H	0.930548	-0.168680	-0.085610
H89	H	0.930662	-0.168739	0.085677
H90	H	1.056670	-0.100324	-0.085413
H91	H	1.056659	-0.100433	0.085873
H92	H	1.047549	-0.444801	0.000016
H93	H	1.160173	-0.067080	0.000109
H94	H	1.521034	-0.702125	0.000076
H95	H	1.051148	-0.293530	0.000005
O96	O	1.534982	-0.798443	-0.000169
C97	C	1.653689	-0.861752	-0.106173
C98	C	1.540512	-0.827977	-0.106078
H99	H	1.658187	-0.885646	-0.191778
H100	H	1.728347	-0.839021	-0.106254
H101	H	1.658287	-0.885619	-0.020495
H102	H	1.535803	-0.804104	-0.191741
H103	H	1.465908	-0.850737	-0.105932
H104	H	1.627862	-0.567140	0.000071
H105	H	1.045364	-0.536261	0.000010
H106	H	1.633666	-0.324410	0.000116
O107	O	1.647574	-0.420745	0.000266
C108	C	1.766386	-0.484015	0.106349
C109	C	1.653212	-0.450237	0.106280
H110	H	1.770992	-0.507860	0.192066
H111	H	1.771036	-0.507924	0.020767
H112	H	1.840959	-0.461237	0.106301
H113	H	1.578575	-0.472976	0.106372
H114	H	1.648662	-0.426325	0.191855
H115	H	1.048958	-0.384994	-0.000001
