data_functionalizedCrystal
_audit_creation_method	'MofGen! by Chris Wilmer'
_symmetry_space_group_name_H-M	'P1'
_symmetry_Int_Tables_number	1
_symmetry_cell_setting	triclinic
loop_
_symmetry_equiv_pos_as_xyz
  x,y,z
_cell_length_a	16.109301
_cell_length_b	16.109301
_cell_length_c	14.586319
_cell_angle_alpha	89.999213
_cell_angle_beta	89.999154
_cell_angle_gamma	96.538519
loop_
_atom_site_label
_atom_site_type_symbol
_atom_site_fract_x
_atom_site_fract_y
_atom_site_fract_z
O1	O	-0.106866	1.103131	-0.076173
O2	O	-0.120165	0.861069	-0.076186
O3	O	0.007515	0.988749	-0.076184
O4	O	-0.234547	0.975450	-0.076175
O5	O	0.007517	0.988741	0.076297
O6	O	-0.120164	0.861060	0.076295
O7	O	-0.106864	1.103122	0.076308
Cu8	Cu	-0.113514	0.982090	0.090224
Cu9	Cu	-0.113516	0.982101	-0.090102
O10	O	-0.234545	0.975441	0.076306
C11	C	-0.119626	0.830090	0.000052
C12	C	-0.118011	0.737794	0.000047
C13	C	-0.190018	0.515522	0.000060
C14	C	-0.188494	0.428801	0.000066
C15	C	-0.037006	0.448676	0.000057
C16	C	-0.038530	0.535394	0.000057
C17	C	-0.115039	0.568815	0.000054
C18	C	-0.111990	0.395376	0.000059
C19	C	-0.110337	0.301350	0.000066
C20	C	-0.116693	0.662847	0.000050
C21	C	-0.265521	0.975984	0.000066
C22	C	-0.357816	0.977600	0.000070
C23	C	-0.580088	0.905592	0.000053
C24	C	-0.666809	0.907116	0.000046
C25	C	-0.646934	1.058605	0.000058
C26	C	-0.560216	1.057080	0.000059
C27	C	-0.526795	0.980571	0.000060
C28	C	-0.700234	0.983620	0.000053
C29	C	-0.794260	0.985273	0.000046
C30	C	-0.432763	0.978917	0.000066
C31	C	0.038491	0.988206	0.000053
C32	C	0.130786	0.986591	0.000044
C33	C	-0.107404	1.134101	0.000067
C34	C	-0.109019	1.226397	0.000067
N35	N	-0.113512	0.982089	0.217056
N36	N	-0.113511	0.982109	-0.216934
C37	C	-0.056994	1.038644	0.452063
C38	C	-0.056992	1.038647	0.548044
C39	C	-0.170032	0.925547	0.548052
C40	C	-0.170030	0.925541	0.452072
C41	C	-0.113511	0.982095	0.404081
C42	C	-0.113512	0.982103	0.596041
C43	C	-0.113510	0.982105	0.700108
C44	C	-0.113512	0.982092	0.300007
H45	H	0.025285	0.421454	0.000064
O46	O	-0.001978	1.093547	0.594553
C47	C	0.080329	1.080045	0.571116
H48	H	0.080236	1.047995	0.501431
H49	H	0.121254	1.142549	0.567826
H50	H	0.106055	1.038674	0.625137
O51	O	-0.264388	0.547888	-0.000057
C52	C	-0.310090	0.520667	-0.079035
H53	H	-0.287445	0.460531	-0.105365
H54	H	-0.379328	0.508606	-0.061266
H55	H	-0.300455	0.570852	-0.134335
O56	O	-0.224851	0.870503	0.594634
C57	C	-0.211323	0.788208	0.571174
H58	H	-0.144757	0.787820	0.544789
H59	H	-0.220873	0.746487	0.634299
H60	H	-0.257399	0.763770	0.515465
H61	H	-0.516822	1.118140	0.000061
H62	H	-0.010972	1.084693	0.412990
H63	H	-0.216053	0.879487	0.413002
O64	O	-0.679363	1.132941	-0.000101
C65	C	-0.652111	1.178662	-0.079057
H66	H	-0.634083	1.133930	-0.134257
H67	H	-0.704634	1.214022	-0.105562
H68	H	-0.595580	1.225006	-0.061200
O69	O	0.034386	0.587051	0.000010
C70	C	0.102241	0.538960	0.000027
H71	H	0.081127	0.474231	-0.028841
H72	H	0.154772	0.570970	-0.044244
H73	H	0.125696	0.532792	0.073179
H74	H	-0.249550	0.385413	0.000072
O75	O	-0.547761	0.831202	0.000004
C76	C	-0.613399	0.765351	0.000016
H77	H	-0.672301	0.788649	-0.028848
H78	H	-0.595293	0.711943	-0.044263
H79	H	-0.625679	0.742213	0.073165
O80	O	-0.718611	0.834303	-0.000122
C81	C	-0.769376	0.830665	-0.079085
H82	H	-0.737601	0.873192	-0.134277
H83	H	-0.779144	0.763693	-0.105597
H84	H	-0.832431	0.852166	-0.061233
