data_functionalizedCrystal
_audit_creation_method	'MofGen! by Chris Wilmer'
_symmetry_space_group_name_H-M	'P1'
_symmetry_Int_Tables_number	1
_symmetry_cell_setting	triclinic
loop_
_symmetry_equiv_pos_as_xyz
  x,y,z
_cell_length_a	10.723023
_cell_length_b	13.339070
_cell_length_c	9.798715
_cell_angle_alpha	89.999403
_cell_angle_beta	89.996770
_cell_angle_gamma	100.048421
loop_
_atom_site_label
_atom_site_type_symbol
_atom_site_fract_x
_atom_site_fract_y
_atom_site_fract_z
O1	O	1.704930	0.142221	-0.113472
O2	O	1.346348	0.155836	-0.113477
O3	O	1.484485	0.001480	-0.113471
O4	O	1.566792	0.296578	-0.113478
O5	O	1.484471	0.001479	0.113511
O6	O	1.346333	0.155835	0.113505
O7	O	1.704915	0.142221	0.113511
Zn8	Zn	1.525622	0.149028	0.149546
Zn9	Zn	1.525641	0.149029	-0.149513
O10	O	1.566778	0.296577	0.113504
C11	C	1.299508	0.154845	0.000013
C12	C	1.159959	0.151881	0.000011
C13	C	0.953527	0.147497	-0.117572
C14	C	1.097758	0.150560	-0.117573
C15	C	1.470574	-0.036306	0.000018
C16	C	1.429132	-0.148896	0.000012
C17	C	1.751367	-0.511453	0.000018
C18	C	1.790308	-0.405670	0.000031
C19	C	1.700017	-0.341471	0.000026
C20	C	1.570779	-0.383066	0.000008
C21	C	1.531834	-0.488859	0.000005
C22	C	1.480484	-0.318877	0.000014
C23	C	1.351246	-0.360472	-0.000004
C24	C	1.312307	-0.466255	-0.000008
C25	C	1.402598	-0.530454	-0.000003
C26	C	1.519429	-0.213084	0.000016
C27	C	1.299896	-0.190490	0.000004
C28	C	1.260955	-0.296273	-0.000009
C29	C	1.751755	0.143212	0.000017
C30	C	1.891304	0.146175	0.000010
C31	C	1.580688	0.334363	0.000012
C32	C	1.622131	0.446952	0.000010
N33	N	1.525618	0.149027	0.353646
N34	N	1.525652	0.149022	-0.353612
C35	C	1.583522	0.083932	0.421425
C36	C	1.583541	0.083928	0.578588
H37	H	1.151270	0.151703	-0.218239
Br38	Br	0.864349	0.145556	-0.285367
H39	H	1.106458	0.150751	0.100683
H40	H	0.944810	0.147307	0.100676
H41	H	1.624656	-0.179229	0.000031
Br42	Br	1.752868	-0.197907	0.000040
Br43	Br	1.136912	-0.522703	-0.000006
H44	H	1.476081	0.204759	0.588109
H45	H	1.895534	-0.371812	0.000047
Br46	Br	1.665726	-0.009215	0.324230
Br47	Br	1.873888	-0.598581	0.000057
H48	H	1.476052	0.204752	0.411968
H49	H	1.633121	0.028201	0.636875
H50	H	1.370898	-0.616592	-0.000019
Br51	Br	1.085564	-0.352735	-0.000041
H52	H	1.226373	-0.138219	0.000007
