data_functionalizedCrystal
_audit_creation_method	'MofGen! by Chris Wilmer'
_symmetry_space_group_name_H-M	'P1'
_symmetry_Int_Tables_number	1
_symmetry_cell_setting	triclinic
loop_
_symmetry_equiv_pos_as_xyz
  x,y,z
_cell_length_a	21.295420
_cell_length_b	21.295417
_cell_length_c	21.295411
_cell_angle_alpha	89.979403
_cell_angle_beta	89.975408
_cell_angle_gamma	90.025484
loop_
_atom_site_label
_atom_site_type_symbol
_atom_site_fract_x
_atom_site_fract_y
_atom_site_fract_z
Zn1	Zn	0.962359	-0.250752	-0.355917
Zn2	Zn	0.962263	-0.356004	-0.250644
Zn3	Zn	0.857082	-0.250744	-0.250661
Zn4	Zn	0.857053	-0.355979	-0.355875
O5	O	0.909689	-0.303370	-0.303274
O6	O	1.050435	-0.264727	-0.341962
O7	O	0.948282	-0.342048	-0.162557
O8	O	0.871100	-0.162656	-0.264648
O9	O	1.050365	-0.342055	-0.264618
O10	O	0.948446	-0.162661	-0.341979
O11	O	0.871006	-0.264714	-0.162570
O12	O	0.768989	-0.264691	-0.264609
O13	O	0.871050	-0.342014	-0.443970
O14	O	0.768967	-0.342006	-0.341909
O15	O	0.948418	-0.264703	-0.444000
O16	O	0.948254	-0.444090	-0.264578
O17	O	0.870957	-0.444072	-0.341892
C18	C	0.746138	-0.303346	-0.303257
C19	C	0.676169	-0.303351	-0.303264
C20	C	0.176748	-0.263200	-0.343622
C21	C	0.242490	-0.263195	-0.343622
C22	C	0.275330	-0.303389	-0.303289
C23	C	0.242422	-0.343602	-0.262965
C24	C	0.176681	-0.343610	-0.262970
N25	N	0.378520	-0.308125	-0.248169
N26	N	0.440971	-0.308113	-0.248166
C27	C	0.473405	-0.303368	-0.303270
N28	N	0.441027	-0.298623	-0.358380
N29	N	0.378570	-0.298631	-0.358383
C30	C	0.346615	-0.303385	-0.303279
C31	C	0.577590	-0.263156	-0.343595
C32	C	0.643334	-0.263156	-0.343596
C33	C	0.643265	-0.343559	-0.262933
C34	C	0.577522	-0.343562	-0.262938
C35	C	0.544689	-0.303358	-0.303268
C36	C	0.909609	-0.466921	-0.303242
C37	C	0.909632	-0.536890	-0.303250
C38	C	0.949883	-0.569702	-0.343545
C39	C	0.949906	-0.635444	-0.343560
C40	C	0.909683	-0.668372	-0.303270
C41	C	0.869424	-0.635552	-0.262972
C42	C	0.869399	-0.569811	-0.262962
N43	N	0.904924	-0.771624	-0.248179
N44	N	0.904952	-0.834075	-0.248190
C45	C	0.909757	-0.866447	-0.303298
N46	N	0.914545	-0.834007	-0.358396
N47	N	0.914520	-0.771550	-0.358384
C48	C	0.909706	-0.739657	-0.303276
C49	C	0.950034	-0.970544	-0.343613
C50	C	0.950052	-1.036288	-0.343630
C51	C	0.869574	-1.036394	-0.263036
C52	C	0.869553	-0.970652	-0.263025
C53	C	0.909786	-0.937731	-0.303313
C54	C	1.073879	-0.303394	-0.303293
C55	C	1.143847	-0.303405	-0.303300
C56	C	0.909741	-0.303357	-0.467465
C57	C	0.909764	-0.303351	-0.537433
C58	C	0.909787	-0.139180	-0.303320
C59	C	0.909828	-0.069211	-0.303340
C60	C	0.950047	-0.263094	-0.570316
C61	C	0.950046	-0.263066	-0.636059
C62	C	0.909769	-0.303308	-0.668915
C63	C	0.869477	-0.343568	-0.636024
C64	C	0.869475	-0.343589	-0.570283
N65	N	0.904913	-0.358375	-0.772132
N66	N	0.904919	-0.358353	-0.834583
C67	C	0.909773	-0.303244	-0.866990
N68	N	0.914632	-0.248157	-0.834586
N69	N	0.914630	-0.248180	-0.772129
C70	C	0.909766	-0.303288	-0.740201
C71	C	0.950057	-0.262953	-0.971159
C72	C	0.950052	-0.262925	-1.036903
C73	C	0.869486	-0.343432	-1.036867
C74	C	0.869488	-0.343455	-0.971125
C75	C	0.909777	-0.303216	-0.938275
C76	C	0.909673	-0.303338	-0.139723
C77	C	0.909773	-0.303166	-0.069755
H78	H	0.670002	-0.376290	-0.230099
O79	O	0.144757	-0.224174	-0.382745
C80	C	0.043511	-0.188586	-0.418540
C81	C	0.079663	-0.232800	-0.374188
H82	H	-0.009124	-0.195554	-0.411647
H83	H	0.056398	-0.137794	-0.407577
H84	H	0.056502	-0.199707	-0.469269
H85	H	0.066692	-0.221736	-0.323444
H86	H	0.066773	-0.283578	-0.385205
H87	H	0.550856	-0.230419	-0.376434
H88	H	0.269164	-0.376329	-0.230127
O89	O	0.989241	-0.223941	-0.667913
C90	C	1.069133	-0.144075	-0.661016
C91	C	1.024788	-0.188362	-0.624865
H92	H	1.097875	-0.115289	-0.626227
H93	H	1.102071	-0.172947	-0.691788
H94	H	1.040246	-0.111172	-0.691803
H95	H	1.053625	-0.221274	-0.594044
H96	H	0.991849	-0.159451	-0.594133
O97	O	0.675198	-0.224039	-0.382787
C98	C	0.668326	-0.144309	-0.462809
C99	C	0.632162	-0.188567	-0.418448
H100	H	0.633547	-0.115628	-0.491662
H101	H	0.699085	-0.111311	-0.433992
H102	H	0.699127	-0.173261	-0.495647
H103	H	0.601326	-0.159666	-0.385601
H104	H	0.601442	-0.221567	-0.447304
H105	H	0.982829	-1.063003	-0.376445
H106	H	0.149894	-0.376351	-0.230135
O107	O	0.830263	-0.382592	-0.667910
C108	C	0.723170	-0.413152	-0.687958
C109	C	0.767512	-0.368909	-0.651820
H110	H	0.672428	-0.402114	-0.674952
H111	H	0.730039	-0.406221	-0.740601
H112	H	0.734226	-0.463913	-0.675040
H113	H	0.756484	-0.318132	-0.664685
H114	H	0.760635	-0.375895	-0.599185
O115	O	0.988983	-0.537821	-0.382740
C116	C	1.068840	-0.544656	-0.462644
C117	C	1.024583	-0.580841	-0.418298
H118	H	1.097643	-0.579423	-0.491395
H119	H	1.039944	-0.513903	-0.495573
H120	H	1.101729	-0.513848	-0.433757
H121	H	0.991685	-0.611683	-0.447135
H122	H	1.053517	-0.611555	-0.385368
O123	O	0.274361	-0.224079	-0.382812
C124	C	0.267497	-0.144354	-0.462840
C125	C	0.231328	-0.188609	-0.418479
H126	H	0.232720	-0.115675	-0.491698
H127	H	0.298254	-0.111355	-0.434023
H128	H	0.298300	-0.173309	-0.495674
H129	H	0.200490	-0.159706	-0.385636
H130	H	0.200610	-0.221610	-0.447336
H131	H	0.982678	-0.662165	-0.376380
H132	H	0.836673	-0.662366	-0.230169
O133	O	0.830413	-0.382791	-0.538364
C134	C	0.799771	-0.489870	-0.518262
C135	C	0.844055	-0.445545	-0.554440
H136	H	0.810776	-0.540615	-0.531256
H137	H	0.806695	-0.483030	-0.465625
H138	H	0.749022	-0.478773	-0.531156
H139	H	0.894821	-0.456615	-0.541599
H140	H	0.837077	-0.452393	-0.607068
O141	O	0.830279	-0.538031	-0.223756
C142	C	0.750430	-0.545074	-0.143851
C143	C	0.794710	-0.581144	-0.188210
H144	H	0.721652	-0.579915	-0.115109
H145	H	0.779306	-0.514308	-0.110914
H146	H	0.717518	-0.514289	-0.172727
H147	H	0.827631	-0.611963	-0.159384
H148	H	0.765795	-0.611870	-0.221148
O149	O	0.830295	-0.382476	-0.939149
C150	C	0.745327	-0.390958	-0.864859
C151	C	0.789667	-0.346694	-0.901044
H152	H	0.712477	-0.362047	-0.834032
H153	H	0.716491	-0.419706	-0.899603
H154	H	0.774222	-0.423899	-0.834119
H155	H	0.760821	-0.313715	-0.931784
H156	H	0.818505	-0.317991	-0.866265
O157	O	0.989126	-0.938658	-0.382814
C158	C	1.068966	-0.945489	-0.462736
C159	C	1.024719	-0.981676	-0.418381
H160	H	1.097764	-0.980254	-0.491494
H161	H	1.040062	-0.914736	-0.495658
H162	H	1.101860	-0.914681	-0.433856
H163	H	0.991816	-1.012519	-0.447211
H164	H	1.053662	-1.012390	-0.385457
H165	H	0.836820	-1.063204	-0.230235
H166	H	0.550735	-0.376299	-0.230101
O167	O	0.830438	-0.938872	-0.223817
C168	C	0.750595	-0.945917	-0.143906
C169	C	0.794874	-0.981986	-0.188268
H170	H	0.721820	-0.980759	-0.115162
H171	H	0.779472	-0.915150	-0.110971
H172	H	0.717680	-0.915133	-0.172780
H173	H	0.827797	-1.012804	-0.159444
H174	H	0.765958	-1.012713	-0.221204
H175	H	0.982853	-0.230328	-0.543574
H176	H	0.982860	-0.230185	-0.944411
O177	O	0.989122	-0.223832	-1.068945
C178	C	1.024847	-0.188135	-1.170238
C179	C	0.980561	-0.232432	-1.134028
H180	H	1.017950	-0.195082	-1.222864
H181	H	1.013821	-0.137367	-1.157350
H182	H	1.075593	-0.199194	-1.157300
H183	H	0.929800	-0.221430	-1.146947
H184	H	0.991641	-0.283188	-1.146919
H185	H	0.836685	-0.376191	-1.063618
