data_functionalizedCrystal
_audit_creation_method	'MofGen! by Chris Wilmer'
_symmetry_space_group_name_H-M	'P1'
_symmetry_Int_Tables_number	1
_symmetry_cell_setting	triclinic
loop_
_symmetry_equiv_pos_as_xyz
  x,y,z
_cell_length_a	14.519709
_cell_length_b	23.532407
_cell_length_c	12.996460
_cell_angle_alpha	89.989202
_cell_angle_beta	90.000034
_cell_angle_gamma	83.264412
loop_
_atom_site_label
_atom_site_type_symbol
_atom_site_fract_x
_atom_site_fract_y
_atom_site_fract_z
O1	O	1.222985	0.074654	-0.085444
O2	O	0.954405	0.083445	-0.085477
O3	O	1.096794	-0.003845	-0.085440
O4	O	1.080596	0.161945	-0.085480
O5	O	1.096779	-0.003850	0.085693
O6	O	0.954390	0.083441	0.085657
O7	O	1.222971	0.074649	0.085690
Cu8	Cu	1.088679	0.079044	0.101299
Cu9	Cu	1.088696	0.079050	-0.101086
O10	O	1.080581	0.161940	0.085654
C11	C	0.920042	0.083033	0.000086
C12	C	0.817676	0.081805	0.000075
C13	C	0.442833	0.077286	0.000123
C14	C	0.547126	0.078541	0.000109
C15	C	0.630251	0.079545	0.000098
C16	C	0.734551	0.080801	0.000086
C17	C	1.096374	-0.025066	0.000129
C18	C	1.095134	-0.088288	0.000137
C19	C	1.171619	-0.487046	0.000090
C20	C	1.170467	-0.546452	0.000082
O21	O	1.241369	-0.582876	0.000052
N22	N	1.085816	-0.569460	0.000072
C23	C	1.002312	-0.533059	0.000060
O24	O	0.930205	-0.558084	0.000050
C25	C	1.003465	-0.473655	0.000061
C26	C	1.088121	-0.450650	0.000081
C27	C	1.256268	-0.464041	0.000109
C28	C	1.257420	-0.404640	0.000119
C29	C	1.173922	-0.368244	0.000110
C30	C	1.089273	-0.391249	0.000091
C31	C	0.919962	-0.437255	0.000041
C32	C	0.921123	-0.377847	0.000041
C33	C	1.005779	-0.354843	0.000061
C34	C	1.006927	-0.295451	0.000091
N35	N	1.091578	-0.272443	0.000101
C36	C	1.175075	-0.308839	0.000110
C37	C	0.999897	-0.657813	0.000057
C38	C	0.998743	-0.717216	0.000064
C39	C	1.166898	-0.730604	0.000084
C40	C	1.168051	-0.671200	0.000084
C41	C	1.084548	-0.634804	0.000067
C42	C	1.177487	-0.184092	0.000132
C43	C	1.178632	-0.124685	0.000146
C44	C	1.010477	-0.111301	0.000121
C45	C	1.009332	-0.170703	0.000112
C46	C	1.092845	-0.207098	0.000114
O47	O	0.936062	-0.258992	0.000117
O48	O	1.247171	-0.283806	0.000106
C49	C	1.257333	0.075061	0.000125
C50	C	1.359700	0.076289	0.000130
C51	C	1.081001	0.183160	0.000082
C52	C	1.082241	0.246383	0.000067
N53	N	1.088673	0.079040	0.243647
N54	N	1.088709	0.079050	-0.243433
C55	C	1.088695	0.079051	0.663461
C56	C	1.088686	0.079050	0.546656
C57	C	1.088685	0.079046	0.453557
C58	C	1.088675	0.079044	0.336745
H59	H	1.247572	-0.105958	0.000165
H60	H	1.234886	-0.760249	0.000087
H61	H	0.851027	-0.455975	0.000019
O62	O	0.929456	-0.075859	0.000065
C63	C	0.948637	-0.018496	0.000098
H64	H	1.021058	-0.016140	-0.032283
H65	H	0.895394	0.008366	-0.049599
H66	H	0.944967	-0.001330	0.082200
O67	O	1.339680	-0.382326	-0.000055
C68	C	1.390553	-0.400924	-0.088671
H69	H	1.341038	-0.413323	-0.150622
H70	H	1.429462	-0.364898	-0.118418
H71	H	1.442294	-0.439589	-0.068630
O72	O	0.840064	-0.342436	0.000164
C73	C	0.835671	-0.307695	0.088812
H74	H	0.908836	-0.304609	0.118377
H75	H	0.800895	-0.263087	0.068876
H76	H	0.793731	-0.327296	0.150864
H77	H	0.940399	-0.189434	0.000124
O78	O	1.337361	-0.499414	-0.000063
C79	C	1.341743	-0.534180	-0.088679
H80	H	1.294382	-0.512481	-0.150639
H81	H	1.416096	-0.540763	-0.118413
H82	H	1.318297	-0.577409	-0.068643
H83	H	1.236985	-0.652474	0.000100
O84	O	1.258695	-0.219358	0.000183
C85	C	1.333646	-0.186304	0.000177
H86	H	1.309802	-0.142002	0.032576
H87	H	1.392113	-0.208151	0.049871
H88	H	1.359629	-0.182032	-0.081919
H89	H	0.929808	-0.735940	0.000065
O90	O	0.918836	-0.622401	0.000192
C91	C	0.914449	-0.587659	0.088838
H92	H	0.987616	-0.584570	0.118393
H93	H	0.879667	-0.543052	0.068903
H94	H	0.872517	-0.607260	0.150896
