data_functionalizedCrystal
_audit_creation_method	'MofGen! by Chris Wilmer'
_symmetry_space_group_name_H-M	'P1'
_symmetry_Int_Tables_number	1
_symmetry_cell_setting	triclinic
loop_
_symmetry_equiv_pos_as_xyz
  x,y,z
_cell_length_a	14.853567
_cell_length_b	14.853559
_cell_length_c	14.586319
_cell_angle_alpha	89.998399
_cell_angle_beta	89.999465
_cell_angle_gamma	83.633192
loop_
_atom_site_label
_atom_site_type_symbol
_atom_site_fract_x
_atom_site_fract_y
_atom_site_fract_z
O1	O	1.196360	0.117704	-0.076173
O2	O	0.933900	0.131725	-0.076188
O3	O	1.072145	-0.006516	-0.076179
O4	O	1.058115	0.255945	-0.076182
O5	O	1.072135	-0.006518	0.076302
O6	O	0.933890	0.131723	0.076293
O7	O	1.196350	0.117701	0.076308
Cu8	Cu	1.065120	0.124712	0.090223
Cu9	Cu	1.065131	0.124714	-0.090103
O10	O	1.058106	0.255942	0.076299
C11	C	0.900307	0.131089	0.000051
C12	C	0.800223	0.129185	0.000045
C13	C	0.387692	0.039019	0.000066
C14	C	0.366406	0.203252	0.000064
C15	C	0.460440	0.205042	0.000061
C16	C	0.518104	0.123819	0.000059
C17	C	0.481735	0.040806	0.000060
C18	C	0.496816	0.288054	0.000050
C19	C	0.590855	0.289847	0.000046
C20	C	0.648521	0.208623	0.000051
C21	C	0.612147	0.125607	0.000053
C22	C	0.669811	0.044384	0.000052
C23	C	0.633438	-0.038633	0.000061
C24	C	0.539401	-0.040418	0.000065
C25	C	0.742559	0.210408	0.000046
C26	C	0.763854	0.046172	0.000046
C27	C	1.071506	-0.040106	0.000060
C28	C	1.069605	-0.140190	0.000055
C29	C	1.061546	-0.563364	-0.083063
C30	C	1.061536	-0.563361	0.083177
C31	C	1.063329	-0.469328	0.083178
C32	C	1.064230	-0.422308	0.000057
C33	C	1.063337	-0.469322	-0.083065
C34	C	1.064213	-0.422306	0.166299
C35	C	1.066005	-0.328267	0.166303
C36	C	1.066912	-0.281246	0.083181
C37	C	1.066021	-0.328266	0.000055
C38	C	1.066921	-0.281246	-0.083066
C39	C	1.066036	-0.328265	-0.166192
C40	C	1.064244	-0.422301	-0.166187
C41	C	1.068704	-0.187210	0.083176
C42	C	1.068712	-0.187204	-0.083067
C43	C	1.229944	0.118338	0.000068
C44	C	1.330028	0.120242	0.000068
C45	C	1.058745	0.289532	0.000059
C46	C	1.060646	0.389616	0.000058
N47	N	1.065118	0.124710	0.217055
N48	N	1.065139	0.124710	-0.216935
C49	C	1.126353	0.063517	0.452065
C50	C	1.126356	0.063515	0.548047
C51	C	1.003898	0.185905	0.548048
C52	C	1.003892	0.185902	0.452069
C53	C	1.065124	0.124709	0.404080
C54	C	1.065133	0.124710	0.596041
C55	C	1.065136	0.124708	0.700108
C56	C	1.065121	0.124710	0.300006
H57	H	0.319450	0.269380	0.000057
H58	H	1.176213	0.013686	0.587114
H59	H	1.063523	-0.460592	-0.233864
H60	H	0.620461	0.357445	0.000039
H61	H	1.069405	-0.148929	0.150856
C62	C	0.499388	-0.131726	0.000066
H63	H	0.435125	-0.121155	0.000058
H64	H	0.519171	-0.165178	0.053237
H65	H	0.519172	-0.165168	-0.053116
C66	C	0.347687	-0.052293	0.000072
H67	H	0.283423	-0.041730	0.000071
H68	H	0.367479	-0.085743	0.053243
H69	H	0.367469	-0.085736	-0.053111
C70	C	1.066991	-0.276556	0.257736
H71	H	1.066205	-0.318029	0.307238
H72	H	1.015163	-0.233055	0.261193
H73	H	1.120232	-0.246692	0.261189
C74	C	0.433387	0.377390	0.000056
H75	H	0.372174	0.364434	0.000073
H76	H	0.444414	0.411428	-0.053119
H77	H	0.444431	0.411420	0.053235
H78	H	0.772169	0.277999	0.000041
H79	H	0.954028	0.235733	0.412996
C80	C	0.827278	-0.043175	0.000040
H81	H	0.792145	-0.092868	0.000038
H82	H	0.864413	-0.045895	0.053206
H83	H	0.864395	-0.045890	-0.053147
H84	H	0.680401	-0.104765	0.000053
H85	H	1.060829	-0.601651	-0.150743
H86	H	1.069450	-0.148927	-0.150756
H87	H	1.066763	-0.289968	-0.233869
H88	H	1.060796	-0.601649	0.150851
H89	H	1.063475	-0.460595	0.233971
C90	C	1.193698	-0.003800	0.399280
H91	H	1.230157	-0.040249	0.441609
H92	H	1.231264	0.028693	0.361832
H93	H	1.161213	-0.041391	0.361847
H94	H	0.954045	0.235728	0.587130
