data_functionalizedCrystal
_audit_creation_method	'MofGen! by Chris Wilmer'
_symmetry_space_group_name_H-M	'P1'
_symmetry_Int_Tables_number	1
_symmetry_cell_setting	triclinic
loop_
_symmetry_equiv_pos_as_xyz
  x,y,z
_cell_length_a	25.639243
_cell_length_b	25.639239
_cell_length_c	25.639233
_cell_angle_alpha	90.019301
_cell_angle_beta	90.015962
_cell_angle_gamma	90.042008
loop_
_atom_site_label
_atom_site_type_symbol
_atom_site_fract_x
_atom_site_fract_y
_atom_site_fract_z
Zn1	Zn	0.799223	-0.208176	0.295654
Zn2	Zn	1.132556	0.125157	0.628987
Zn3	Zn	1.465890	0.458490	0.962320
Zn4	Zn	0.799145	-0.295595	0.208217
Zn5	Zn	1.132479	0.037738	0.541551
Zn6	Zn	1.465812	0.371071	0.874884
Zn7	Zn	0.711799	-0.208180	0.208227
Zn8	Zn	1.045133	0.125154	0.541561
Zn9	Zn	1.378466	0.458487	0.874894
Zn10	Zn	0.711743	-0.295587	0.295617
Zn11	Zn	1.045077	0.037747	0.628950
Zn12	Zn	1.378410	0.371080	0.962283
O13	O	0.755478	-0.251885	0.251929
O14	O	1.088811	0.081449	0.585262
O15	O	1.422144	0.414782	0.918595
O16	O	0.872378	-0.219775	0.284066
O17	O	1.205711	0.113559	0.617400
O18	O	1.539044	0.446892	0.950733
O19	O	0.787550	-0.284004	0.135053
O20	O	1.120883	0.049329	0.468387
O21	O	1.454216	0.382662	0.801720
O22	O	0.723452	-0.135014	0.219844
O23	O	1.056785	0.198319	0.553178
O24	O	1.390119	0.531653	0.886511
O25	O	0.872321	-0.284001	0.219827
O26	O	1.205654	0.049332	0.553161
O27	O	1.538988	0.382666	0.886494
O28	O	0.787682	-0.135012	0.284076
O29	O	1.121015	0.198322	0.617409
O30	O	1.454348	0.531655	0.950743
O31	O	0.723377	-0.219781	0.135061
O32	O	1.056710	0.113553	0.468394
O33	O	1.390043	0.446886	0.801727
O34	O	0.638627	-0.219772	0.219808
O35	O	0.971960	0.113561	0.553142
O36	O	1.305293	0.446894	0.886475
O37	O	0.723357	-0.283987	0.368787
O38	O	1.056690	0.049347	0.702120
O39	O	1.390023	0.382680	1.035453
O40	O	0.638586	-0.283990	0.284013
O41	O	0.971919	0.049343	0.617346
O42	O	1.305252	0.382677	0.950680
O43	O	0.787628	-0.219767	0.368814
O44	O	1.120961	0.113567	0.702147
O45	O	1.454294	0.446900	1.035481
O46	O	0.787496	-0.368759	0.219791
O47	O	1.120829	-0.035426	0.553125
O48	O	1.454162	0.297907	0.886458
O49	O	0.723282	-0.368753	0.284003
O50	O	1.056615	-0.035420	0.617336
O51	O	1.389948	0.297914	0.950670
C52	C	0.619635	-0.251881	0.251908
C53	C	0.952969	0.081452	0.585241
C54	C	1.286302	0.414786	0.918575
C55	C	0.561521	-0.251892	0.251911
C56	C	0.894854	0.081441	0.585245
C57	C	1.228188	0.414775	0.918578
C58	C	0.755388	-0.387727	0.251903
C59	C	1.088722	-0.054394	0.585237
C60	C	1.422055	0.278940	0.918570
C61	C	0.755398	-0.445841	0.251910
C62	C	1.088731	-0.112508	0.585243
C63	C	1.422065	0.220825	0.918577
C64	C	0.201182	-0.218495	0.285434
C65	C	0.534515	0.114839	0.618767
C66	C	0.867849	0.448172	0.952100
C67	C	0.146578	-0.218494	0.285437
C68	C	0.479911	0.114839	0.618770
C69	C	0.813244	0.448173	0.952104
O70	O	0.118361	-0.190088	0.313913
O71	O	0.451695	0.143245	0.647246
O72	O	0.785028	0.476578	0.980580
N73	N	0.119239	-0.251883	0.251943
N74	N	0.452572	0.081450	0.585276
N75	N	0.785905	0.414784	0.918610
C76	C	0.146507	-0.285271	0.218440
C77	C	0.479840	0.048062	0.551773
C78	C	0.813173	0.381396	0.885107
O79	O	0.118239	-0.313670	0.189951
O80	O	0.451572	0.019663	0.523284
O81	O	0.784905	0.352996	0.856617
C82	C	0.201110	-0.285268	0.218434
C83	C	0.534443	0.048065	0.551768
C84	C	0.867777	0.381398	0.885101
C85	C	0.228446	-0.251881	0.251934
C86	C	0.561780	0.081452	0.585268
C87	C	0.895113	0.414786	0.918601
C88	C	0.228518	-0.185109	0.318931
C89	C	0.561852	0.148224	0.652264
C90	C	0.895185	0.481557	0.985597
C91	C	0.283119	-0.185111	0.318928
C92	C	0.616452	0.148223	0.652261
C93	C	0.949786	0.481556	0.985595
C94	C	0.310383	-0.218497	0.285428
C95	C	0.643717	0.114836	0.618762
C96	C	0.977050	0.448170	0.952095
C97	C	0.283047	-0.251882	0.251932
C98	C	0.616380	0.081451	0.585265
C99	C	0.949714	0.414785	0.918598
C100	C	0.228377	-0.318653	0.184929
C101	C	0.561710	0.014680	0.518262
C102	C	0.895044	0.348014	0.851596
C103	C	0.282984	-0.318647	0.184926
C104	C	0.616317	0.014686	0.518259
C105	C	0.949651	0.348019	0.851593
C106	C	0.310320	-0.285260	0.218426
C107	C	0.643654	0.048073	0.551759
C108	C	0.976987	0.381407	0.885093
C109	C	0.364912	-0.285270	0.218429
C110	C	0.698245	0.048064	0.551763
C111	C	1.031578	0.381397	0.885096
N112	N	0.392251	-0.251881	0.251923
N113	N	0.725584	0.081453	0.585257
N114	N	1.058917	0.414786	0.918590
C115	C	0.364987	-0.218494	0.285423
C116	C	0.698320	0.114839	0.618756
C117	C	1.031653	0.448172	0.952090
C118	C	0.031836	-0.285273	0.218453
C119	C	0.365169	0.048060	0.551787
C120	C	0.698503	0.381394	0.885120
C121	C	-0.022766	-0.285279	0.218461
C122	C	0.310567	0.048055	0.551794
C123	C	0.643900	0.381388	0.885128
C124	C	-0.022691	-0.218501	0.285458
C125	C	0.310642	0.114832	0.618791
C126	C	0.643975	0.448166	0.952124
C127	C	0.031912	-0.218499	0.285452
C128	C	0.365245	0.114835	0.618786
C129	C	0.698579	0.448168	0.952119
C130	C	0.059175	-0.251884	0.251947
C131	C	0.392509	0.081449	0.585281
C132	C	0.725842	0.414783	0.918614
C133	C	0.479652	-0.218500	0.285415
C134	C	0.812985	0.114833	0.618748
C135	C	1.146318	0.448167	0.952082
C136	C	0.534257	-0.218506	0.285411
C137	C	0.867590	0.114828	0.618744
C138	C	1.200924	0.448161	0.952078
C139	C	0.534177	-0.285281	0.218413
C140	C	0.867511	0.048052	0.551746
C141	C	1.200844	0.381386	0.885079
C142	C	0.479577	-0.285278	0.218418
C143	C	0.812910	0.048056	0.551752
C144	C	1.146243	0.381389	0.885085
C145	C	0.452315	-0.251883	0.251921
C146	C	0.785649	0.081451	0.585255
C147	C	1.118982	0.414784	0.918588
O148	O	0.393163	-0.313659	0.189966
O149	O	0.726496	0.019674	0.523300
O150	O	1.059829	0.353007	0.856633
O151	O	0.393261	-0.190095	0.313903
O152	O	0.726595	0.143238	0.647236
O153	O	1.059928	0.476572	0.980569
C154	C	0.722035	-0.697044	0.285353
C155	C	1.055369	-0.363710	0.618687
C156	C	1.388702	-0.030377	0.952020
C157	C	0.722016	-0.642440	0.285347
C158	C	1.055349	-0.309106	0.618680
C159	C	1.388683	0.024227	0.952014
O160	O	0.693564	-0.614211	0.313764
O161	O	1.026897	-0.280877	0.647098
O162	O	1.360230	0.052456	0.980431
N163	N	0.755464	-0.615115	0.251937
N164	N	1.088797	-0.281782	0.585271
N165	N	1.422130	0.051552	0.918604
C166	C	0.788937	-0.642398	0.218535
C167	C	1.122270	-0.309064	0.551869
C168	C	1.455604	0.024269	0.885202
O169	O	0.817386	-0.614142	0.190118
O170	O	1.150719	-0.280809	0.523451
O171	O	1.484052	0.052525	0.856784
C172	C	0.788959	-0.697001	0.218545
C173	C	1.122292	-0.363668	0.551878
C174	C	1.455625	-0.030334	0.885211
C175	C	0.755505	-0.724323	0.251953
C176	C	1.088838	-0.390989	0.585286
C177	C	1.422171	-0.057656	0.918619
C178	C	0.688584	-0.724366	0.318759
C179	C	1.021918	-0.391032	0.652092
C180	C	1.355251	-0.057699	0.985426
C181	C	0.688603	-0.778966	0.318764
C182	C	1.021937	-0.445633	0.652098
C183	C	1.355270	-0.112299	0.985431
C184	C	0.722073	-0.806245	0.285364
C185	C	1.055406	-0.472912	0.618697
C186	C	1.388740	-0.139578	0.952030
C187	C	0.755524	-0.778923	0.251958
C188	C	1.088857	-0.445590	0.585291
C189	C	1.422190	-0.112257	0.918625
C190	C	0.822434	-0.724283	0.185145
C191	C	1.155767	-0.390949	0.518479
C192	C	1.489101	-0.057616	0.851812
C193	C	0.822453	-0.778890	0.185158
C194	C	1.155786	-0.445556	0.518491
C195	C	1.489120	-0.112223	0.851824
C196	C	0.788999	-0.806211	0.218566
C197	C	1.122333	-0.472878	0.551899
C198	C	1.455666	-0.139545	0.885233
C199	C	0.789012	-0.860803	0.218563
C200	C	1.122345	-0.527469	0.551896
C201	C	1.455679	-0.194136	0.885229
N202	N	0.755564	-0.888127	0.251972
N203	N	1.088897	-0.554794	0.585306
N204	N	1.422231	-0.221460	0.918639
C205	C	0.722094	-0.860848	0.285373
C206	C	1.055428	-0.527515	0.618706
C207	C	1.388761	-0.194182	0.952039
C208	C	0.788890	-0.527727	0.218519
C209	C	1.122223	-0.194394	0.551853
C210	C	1.455556	0.138940	0.885186
C211	C	0.788866	-0.473125	0.218507
C212	C	1.122199	-0.139791	0.551841
C213	C	1.455533	0.193542	0.885174
C214	C	0.721945	-0.473170	0.285320
C215	C	1.055279	-0.139837	0.618653
C216	C	1.388612	0.193496	0.951987
C217	C	0.721967	-0.527774	0.285329
C218	C	1.055300	-0.194440	0.618662
C219	C	1.388634	0.138893	0.951996
C220	C	0.755442	-0.555052	0.251929
C221	C	1.088775	-0.221718	0.585263
C222	C	1.422108	0.111615	0.918596
C223	C	0.722136	-0.975513	0.285381
C224	C	1.055470	-0.642180	0.618714
C225	C	1.388803	-0.308847	0.952048
C226	C	0.722156	-1.030119	0.285382
C227	C	1.055490	-0.696785	0.618715
C228	C	1.388823	-0.363452	0.952048
C229	C	0.789079	-1.030068	0.218571
C230	C	1.122412	-0.696735	0.551905
C231	C	1.455745	-0.363402	0.885238
C232	C	0.789057	-0.975468	0.218568
C233	C	1.122390	-0.642134	0.551902
C234	C	1.455723	-0.308801	0.885235
C235	C	0.755584	-0.948191	0.251977
C236	C	1.088917	-0.614858	0.585311
C237	C	1.422250	-0.281525	0.918644
O238	O	0.817451	-0.889066	0.190162
O239	O	1.150784	-0.555733	0.523495
O240	O	1.484118	-0.222399	0.856828
O241	O	0.693655	-0.889110	0.313791
O242	O	1.026989	-0.555777	0.647124
O243	O	1.360322	-0.222444	0.980457
C244	C	0.891851	-0.251888	0.251950
C245	C	1.225184	0.081445	0.585283
C246	C	1.558517	0.414778	0.918616
C247	C	0.949965	-0.251890	0.251959
C248	C	1.283298	0.081443	0.585292
C249	C	1.616631	0.414776	0.918625
C250	C	0.755495	-0.251875	0.388302
C251	C	1.088828	0.081458	0.721635
C252	C	1.422161	0.414791	1.054968
C253	C	0.755502	-0.251871	0.446416
C254	C	1.088835	0.081462	0.779749
C255	C	1.422168	0.414795	1.113082
C256	C	0.755582	-0.115512	0.251965
C257	C	1.088915	0.217822	0.585299
C258	C	1.422248	0.551155	0.918632
C259	C	0.755626	-0.057397	0.251981
C260	C	1.088959	0.275936	0.585315
C261	C	1.422293	0.609269	0.918648
C262	C	0.755491	-0.251856	0.116086
C263	C	1.088824	0.081477	0.449420
C264	C	1.422158	0.414811	0.782753
C265	C	0.755585	-0.251713	0.057972
C266	C	1.088919	0.081621	0.391306
C267	C	1.422252	0.414954	0.724639
C268	C	0.789010	-0.218333	0.806799
C269	C	1.122343	0.115001	1.140132
C270	C	1.455677	0.448334	1.473466
C271	C	0.789016	-0.218318	0.861403
C272	C	1.122350	0.115015	1.194737
C273	C	1.455683	0.448348	1.528070
O274	O	0.817464	-0.189864	0.889657
O275	O	1.150797	0.143469	1.222990
O276	O	1.484131	0.476803	1.556323
N277	N	0.755559	-0.251749	0.888698
N278	N	1.088893	0.081584	1.222032
N279	N	1.422226	0.414918	1.555365
C280	C	0.722090	-0.285192	0.861387
C281	C	1.055423	0.048141	1.194720
C282	C	1.388757	0.381474	1.528053
O283	O	0.693632	-0.313626	0.889617
O284	O	1.026966	0.019707	1.222951
O285	O	1.360299	0.353041	1.556284
C286	C	0.722081	-0.285204	0.806783
C287	C	1.055415	0.048130	1.140117
C288	C	1.388748	0.381463	1.473450
C289	C	0.755544	-0.251775	0.779491
C290	C	1.088878	0.081559	1.112824
C291	C	1.422211	0.414892	1.446157
C292	C	0.822470	-0.184906	0.779506
C293	C	1.155803	0.148427	1.112840
C294	C	1.489137	0.481761	1.446173
C295	C	0.822464	-0.184921	0.724906
C296	C	1.155797	0.148412	1.058239
C297	C	1.489131	0.481745	1.391572
C298	C	0.788998	-0.218363	0.697598
C299	C	1.122332	0.114970	1.030931
C300	C	1.455665	0.448303	1.364264
C301	C	0.755538	-0.251790	0.724890
C302	C	1.088872	0.081543	1.058224
C303	C	1.422205	0.414877	1.391557
C304	C	0.688610	-0.318644	0.779472
C305	C	1.021943	0.014689	1.112806
C306	C	1.355276	0.348022	1.446139
C307	C	0.688603	-0.318653	0.724865
C308	C	1.021937	0.014681	1.058199
C309	C	1.355270	0.348014	1.391532
C310	C	0.722066	-0.285224	0.697573
C311	C	1.055400	0.048110	1.030906
C312	C	1.388733	0.381443	1.364240
C313	C	0.722067	-0.285247	0.642982
C314	C	1.055400	0.048086	0.976315
C315	C	1.388733	0.381419	1.309648
N316	N	0.755524	-0.251817	0.615686
N317	N	1.088857	0.081517	0.949020
N318	N	1.422190	0.414850	1.282353
C319	C	0.788990	-0.218375	0.642994
C320	C	1.122323	0.114959	0.976328
C321	C	1.455656	0.448292	1.309661
C322	C	0.722110	-0.285165	0.976057
C323	C	1.055444	0.048168	1.309391
C324	C	1.388777	0.381501	1.642724
C325	C	0.722121	-0.285157	1.030660
C326	C	1.055454	0.048177	1.363993
C327	C	1.388788	0.381510	1.697326
C328	C	0.789047	-0.218282	1.030672
C329	C	1.122380	0.115051	1.364006
C330	C	1.455714	0.448385	1.697339
C331	C	0.789038	-0.218293	0.976069
C332	C	1.122372	0.115040	1.309402
C333	C	1.455705	0.448373	1.642736
C334	C	0.755567	-0.251735	0.948762
C335	C	1.088901	0.081599	1.282095
C336	C	1.422234	0.414932	1.615429
C337	C	0.788975	-0.218410	0.528329
C338	C	1.122308	0.114924	0.861663
C339	C	1.455642	0.448257	1.194996
C340	C	0.788968	-0.218429	0.473724
C341	C	1.122301	0.114904	0.807057
C342	C	1.455634	0.448237	1.140391
C343	C	0.722040	-0.285302	0.473716
C344	C	1.055373	0.048031	0.807049
C345	C	1.388707	0.381364	1.140382
C346	C	0.722049	-0.285285	0.528316
C347	C	1.055382	0.048049	0.861650
C348	C	1.388716	0.381382	1.194983
C349	C	0.755518	-0.251834	0.555622
C350	C	1.088852	0.081499	0.888955
C351	C	1.422185	0.414833	1.222288
O352	O	0.693632	-0.313686	0.614693
O353	O	1.026965	0.019648	0.948027
O354	O	1.360299	0.352981	1.281360
O355	O	0.817437	-0.189941	0.614757
O356	O	1.150771	0.143392	0.948090
O357	O	1.484104	0.476726	1.281424
H358	H	0.556512	-0.191317	0.312692
H359	H	0.889845	0.142016	0.646026
H360	H	1.223178	0.475350	0.979359
O361	O	0.689573	-0.317831	0.554776
O362	O	1.022906	0.015502	0.888109
O363	O	1.356240	0.348836	1.221443
C364	C	0.700966	-0.369948	0.541448
C365	C	1.034299	-0.036614	0.874781
C366	C	1.367632	0.296719	1.208114
H367	H	0.721061	-0.371047	0.501806
H368	H	1.054395	-0.037714	0.835140
H369	H	1.387728	0.295619	1.168473
H370	H	0.663213	-0.393390	0.539572
H371	H	0.996546	-0.060057	0.872905
H372	H	1.329879	0.273277	1.206239
H373	H	0.727834	-0.387548	0.572186
H374	H	1.061167	-0.054215	0.905519
H375	H	1.394501	0.279119	1.238852
O376	O	0.821344	-0.554293	0.186063
O377	O	1.154677	-0.220959	0.519396
O378	O	1.488010	0.112374	0.852730
C379	C	0.791632	-0.585933	0.152258
C380	C	1.124965	-0.252600	0.485592
C381	C	1.458298	0.080733	0.818925
H382	H	0.751990	-0.594143	0.170643
H383	H	1.085323	-0.260810	0.503976
H384	H	1.418656	0.072524	0.837309
H385	H	0.812954	-0.624312	0.145306
H386	H	1.146287	-0.290979	0.478639
H387	H	1.479621	0.042355	0.811973
H388	H	0.785926	-0.564932	0.113491
H389	H	1.119259	-0.231599	0.446824
H390	H	1.452593	0.101735	0.780158
O391	O	0.689585	-0.317709	0.949614
O392	O	1.022918	0.015624	1.282947
O393	O	1.356251	0.348957	1.616281
C394	C	0.660052	-0.347202	0.985420
C395	C	0.993386	-0.013869	1.318753
C396	C	1.326719	0.319464	1.652086
H397	H	0.681475	-0.348996	1.024344
H398	H	1.014808	-0.015662	1.357678
H399	H	1.348142	0.317671	1.691011
H400	H	0.654446	-0.388403	0.969644
H401	H	0.987779	-0.055070	1.302977
H402	H	1.321112	0.278264	1.636311
H403	H	0.620357	-0.328058	0.991223
H404	H	0.953690	0.005276	1.324557
H405	H	1.287023	0.338609	1.657890
H406	H	0.054166	-0.191310	0.312730
H407	H	0.387499	0.142023	0.646063
H408	H	0.720832	0.475356	0.979396
O409	O	-0.049238	-0.186138	0.318024
O410	O	0.284095	0.147195	0.651357
O411	O	0.617428	0.480528	0.984690
C412	C	-0.080824	-0.215957	0.351748
C413	C	0.252510	0.117376	0.685082
C414	C	0.585843	0.450710	1.018415
H415	H	-0.089034	-0.255554	0.333238
H416	H	0.244299	0.077779	0.666571
H417	H	0.577632	0.411113	0.999905
H418	H	-0.119205	-0.194674	0.358792
H419	H	0.214128	0.138659	0.692125
H420	H	0.547461	0.471993	1.025459
H421	H	-0.059774	-0.221755	0.390485
H422	H	0.273560	0.111578	0.723818
H423	H	0.606893	0.444911	1.057151
O424	O	0.821418	-0.185876	0.447239
O425	O	1.154751	0.147457	0.780572
O426	O	1.488085	0.480791	1.113906
C427	C	0.810036	-0.133765	0.460599
C428	C	1.143370	0.199568	0.793932
C429	C	1.476703	0.532901	1.127266
H430	H	0.768270	-0.131125	0.475599
H431	H	1.101603	0.202208	0.808932
H432	H	1.434936	0.535542	1.142265
H433	H	0.814558	-0.107939	0.424696
H434	H	1.147891	0.225394	0.758030
H435	H	1.481225	0.558727	1.091363
H436	H	0.838078	-0.120093	0.492304
H437	H	1.171411	0.213240	0.825638
H438	H	1.504744	0.546573	1.158971
H439	H	0.305371	-0.157922	0.346206
H440	H	0.638705	0.175411	0.679540
H441	H	0.972038	0.508744	1.012873
O442	O	0.656143	-0.697849	0.351262
O443	O	0.989476	-0.364515	0.684595
O444	O	1.322809	-0.031182	1.017928
C445	C	0.685864	-0.666202	0.385053
C446	C	1.019197	-0.332868	0.718386
C447	C	1.352530	0.000465	1.051720
H448	H	0.727050	-0.682601	0.388327
H449	H	1.060383	-0.349267	0.721660
H450	H	1.393717	-0.015934	1.054994
H451	H	0.666922	-0.665592	0.425270
H452	H	1.000255	-0.332259	0.758603
H453	H	1.333588	0.001074	1.091936
H454	H	0.687653	-0.624823	0.368887
H455	H	1.020986	-0.291489	0.702221
H456	H	1.354319	0.041844	1.035554
H457	H	0.816227	-0.191169	0.550555
H458	H	1.149560	0.142164	0.883888
H459	H	1.482894	0.475497	1.217222
H460	H	0.054030	-0.312464	0.191171
H461	H	0.387364	0.020869	0.524504
H462	H	0.720697	0.354202	0.857838
O463	O	0.689647	-0.949079	0.317906
O464	O	1.022980	-0.615745	0.651239
O465	O	1.356313	-0.282412	0.984572
C466	C	0.701050	-0.962380	0.370028
C467	C	1.034384	-0.629047	0.703361
C468	C	1.367717	-0.295713	1.036694
H469	H	0.721166	-1.002001	0.371132
H470	H	1.054500	-0.668668	0.704465
H471	H	1.387833	-0.335335	1.037799
H472	H	0.663300	-0.964285	0.393434
H473	H	0.996634	-0.630951	0.726768
H474	H	1.329967	-0.297618	1.060101
H475	H	0.727905	-0.931610	0.387664
H476	H	1.061238	-0.598277	0.720998
H477	H	1.394571	-0.264944	1.054331
O478	O	0.821502	-0.185806	1.057286
O479	O	1.154835	0.147528	1.390619
O480	O	1.488168	0.480861	1.723952
C481	C	0.814336	-0.192974	1.111331
C482	C	1.147669	0.140360	1.444665
C483	C	1.481003	0.473693	1.777998
H484	H	0.773976	-0.210102	1.118775
H485	H	1.107310	0.123231	1.452108
H486	H	1.440643	0.456565	1.785441
H487	H	0.817904	-0.153806	1.132090
H488	H	1.151238	0.179528	1.465423
H489	H	1.484571	0.512861	1.798756
H490	H	0.845332	-0.220808	1.126833
H491	H	1.178665	0.112525	1.460166
H492	H	1.511999	0.445858	1.793499
O493	O	0.689696	-0.317693	1.057190
O494	O	1.023029	0.015641	1.390523
O495	O	1.356362	0.348974	1.723857
C496	C	0.719440	-0.351448	1.088785
C497	C	1.052773	-0.018115	1.422118
C498	C	1.386106	0.315219	1.755451
H499	H	0.760616	-0.354677	1.072340
H500	H	1.093950	-0.021344	1.405673
H501	H	1.427283	0.311989	1.739007
H502	H	0.700502	-0.391686	1.089390
H503	H	1.033836	-0.058353	1.422723
H504	H	1.367169	0.274981	1.756057
H505	H	0.721252	-0.335278	1.130172
H506	H	1.054585	-0.001944	1.463505
H507	H	1.387919	0.331389	1.796839
O508	O	0.689464	-0.317769	0.447246
O509	O	1.022797	0.015565	0.780579
O510	O	1.356131	0.348898	1.113912
C511	C	0.637361	-0.306334	0.460568
C512	C	0.970695	0.026999	0.793901
C513	C	1.304028	0.360332	1.127234
H514	H	0.636293	-0.286222	0.500213
H515	H	0.969627	0.047112	0.833546
H516	H	1.302960	0.380445	1.166880
H517	H	0.613894	-0.344070	0.462432
H518	H	0.947227	-0.010737	0.795765
H519	H	1.280560	0.322596	1.129098
H520	H	0.619766	-0.279466	0.429832
H521	H	0.953099	0.053867	0.763166
H522	H	1.286433	0.387200	1.096499
H523	H	0.849712	-0.157699	0.702689
H524	H	1.183045	0.175634	1.036022
H525	H	1.516379	0.508968	1.369356
H526	H	0.849715	-0.801096	0.157961
H527	H	1.183048	-0.467763	0.491294
H528	H	1.516381	-0.134430	0.824627
H529	H	0.816286	-0.191071	0.953851
H530	H	1.149619	0.142262	1.287185
H531	H	1.482953	0.475595	1.620518
O532	O	0.201912	-0.351099	0.152334
O533	O	0.535245	-0.017766	0.485667
O534	O	0.868579	0.315567	0.819001
C535	C	0.237696	-0.380567	0.122776
C536	C	0.571029	-0.047234	0.456109
C537	C	0.904362	0.286099	0.789443
H538	H	0.276632	-0.359144	0.121014
H539	H	0.609965	-0.025811	0.454347
H540	H	0.943299	0.307522	0.787680
H541	H	0.221909	-0.386078	0.081569
H542	H	0.555243	-0.052745	0.414902
H543	H	0.888576	0.280589	0.748235
H544	H	0.243481	-0.420307	0.141844
H545	H	0.576815	-0.086974	0.475177
H546	H	0.910148	0.246359	0.808510
H547	H	-0.045019	-0.312472	0.191188
H548	H	0.288314	0.020861	0.524521
H549	H	0.621648	0.354195	0.857855
H550	H	0.694729	-0.550015	0.312536
H551	H	1.028062	-0.216682	0.645869
H552	H	1.361395	0.116651	0.979202
O553	O	0.656093	-0.805422	0.351270
O554	O	0.989426	-0.472088	0.684603
O555	O	1.322760	-0.138755	1.017937
C556	C	0.626544	-0.769626	0.380737
C557	C	0.959877	-0.436293	0.714070
C558	C	1.293210	-0.102960	1.047403
H559	H	0.647947	-0.730681	0.382555
H560	H	0.981281	-0.397347	0.715888
H561	H	1.314614	-0.064014	1.049221
H562	H	0.620945	-0.785383	0.421931
H563	H	0.954278	-0.452050	0.755264
H564	H	1.287612	-0.118716	1.088597
H565	H	0.586845	-0.763871	0.361553
H566	H	0.920178	-0.430538	0.694886
H567	H	1.253511	-0.097205	1.028220
H568	H	0.661360	-0.345866	0.801685
H569	H	0.994694	-0.012532	1.135018
H570	H	1.328027	0.320801	1.468351
O571	O	0.854907	-0.152361	0.806050
O572	O	1.188240	0.180973	1.139383
O573	O	1.521573	0.514306	1.472717
C574	C	0.825179	-0.118586	0.837645
C575	C	1.158512	0.214748	1.170979
C576	C	1.491845	0.548081	1.504312
H577	H	0.783996	-0.115360	0.821194
H578	H	1.117329	0.217973	1.154527
H579	H	1.450663	0.551307	1.487860
H580	H	0.844121	-0.078350	0.838261
H581	H	1.177454	0.254984	1.171594
H582	H	1.510788	0.588317	1.504927
H583	H	0.823380	-0.134735	0.879029
H584	H	1.156713	0.198599	1.212363
H585	H	1.490047	0.531932	1.545696
H586	H	0.661341	-0.345880	0.702635
H587	H	0.994674	-0.012546	1.035968
H588	H	1.328008	0.320787	1.369301
H589	H	0.816101	-0.450883	0.191298
H590	H	1.149435	-0.117550	0.524631
H591	H	1.482768	0.215783	0.857964
O592	O	0.453198	-0.186120	0.318037
O593	O	0.786531	0.147214	0.651370
O594	O	1.119864	0.480547	0.984703
C595	C	0.466566	-0.197621	0.370121
C596	C	0.799899	0.135712	0.703455
C597	C	1.133233	0.469045	1.036788
H598	H	0.481543	-0.239396	0.372678
H599	H	0.814876	0.093937	0.706011
H600	H	1.148210	0.427271	1.039344
H601	H	0.430673	-0.193155	0.395968
H602	H	0.764006	0.140178	0.729301
H603	H	1.097340	0.473512	1.062635
H604	H	0.498291	-0.169615	0.383835
H605	H	0.831624	0.163718	0.717169
H606	H	1.164958	0.497052	1.050502
H607	H	0.457318	-0.312470	0.191146
H608	H	0.790652	0.020863	0.524479
H609	H	1.123985	0.354196	0.857813
O610	O	0.202120	-0.152660	0.351525
O611	O	0.535453	0.180674	0.684859
O612	O	0.868787	0.514007	1.018192
C613	C	0.237967	-0.123188	0.381075
C614	C	0.571301	0.210145	0.714408
C615	C	0.904634	0.543479	1.047741
H616	H	0.276874	-0.144609	0.382832
H617	H	0.610208	0.188724	0.716165
H618	H	0.943541	0.522058	1.049499
H619	H	0.222219	-0.117674	0.422284
H620	H	0.555552	0.215659	0.755618
H621	H	0.888886	0.548992	1.088951
H622	H	0.243796	-0.083449	0.362003
H623	H	0.577129	0.249884	0.695336
H624	H	0.910462	0.583218	1.028669
H625	H	0.305179	-0.345834	0.157641
H626	H	0.638512	-0.012500	0.490974
H627	H	0.971846	0.320833	0.824308
H628	H	0.556386	-0.312465	0.191139
H629	H	0.889719	0.020869	0.524473
H630	H	1.223052	0.354202	0.857806
O631	O	0.689732	-1.056715	0.317864
O632	O	1.023066	-0.723382	0.651197
O633	O	1.356399	-0.390049	0.984531
C634	C	0.719488	-1.088242	0.351675
C635	C	1.052821	-0.754909	0.685008
C636	C	1.386154	-0.421576	1.018341
H637	H	0.759125	-1.096391	0.333273
H638	H	1.092458	-0.763058	0.666606
H639	H	1.425791	-0.429724	0.999939
H640	H	0.698198	-1.126658	0.358669
H641	H	1.031531	-0.793325	0.692002
H642	H	1.364865	-0.459991	1.025335
H643	H	0.725201	-1.067173	0.390423
H644	H	1.058534	-0.733840	0.723756
H645	H	1.391868	-0.400506	1.057089
O646	O	0.854910	-0.697810	0.152623
O647	O	1.188244	-0.364477	0.485956
O648	O	1.521577	-0.031143	0.819289
C649	C	0.843523	-0.711184	0.100502
C650	C	1.176856	-0.377851	0.433836
C651	C	1.510189	-0.044517	0.767169
H652	H	0.823430	-0.750848	0.099406
H653	H	1.156763	-0.417514	0.432739
H654	H	1.490097	-0.084181	0.766073
H655	H	0.881278	-0.713034	0.077102
H656	H	1.214611	-0.379700	0.410436
H657	H	1.547944	-0.046367	0.743769
H658	H	0.816653	-0.680486	0.082853
H659	H	1.149987	-0.347153	0.416187
H660	H	1.483320	-0.013820	0.749520
O661	O	0.689510	-0.446643	0.317826
O662	O	1.022843	-0.113310	0.651159
O663	O	1.356176	0.220024	0.984492
C664	C	0.719248	-0.415001	0.351606
C665	C	1.052581	-0.081668	0.684940
C666	C	1.385914	0.251666	1.018273
H667	H	0.760429	-0.431413	0.354876
H668	H	1.093762	-0.098080	0.688209
H669	H	1.427096	0.235253	1.021543
H670	H	0.700313	-0.414378	0.391826
H671	H	1.033646	-0.081045	0.725160
H672	H	1.366980	0.252288	1.058493
H673	H	0.721048	-0.373625	0.335434
H674	H	1.054381	-0.040292	0.668767
H675	H	1.387714	0.293042	1.002101
H676	H	0.816327	-1.052289	0.191376
H677	H	1.149660	-0.718955	0.524709
H678	H	1.482994	-0.385622	0.858042
O679	O	0.821596	-0.949005	0.186094
O680	O	1.154929	-0.615672	0.519427
O681	O	1.488263	-0.282338	0.852760
C682	C	0.851127	-0.984794	0.156602
C683	C	1.184460	-0.651461	0.489935
C684	C	1.517794	-0.318127	0.823268
H685	H	0.852937	-1.023706	0.178023
H686	H	1.186270	-0.690373	0.511356
H687	H	1.519603	-0.357039	0.844689
H688	H	0.892320	-0.968977	0.151058
H689	H	1.225653	-0.635644	0.484392
H690	H	1.558987	-0.302311	0.817725
H691	H	0.832006	-0.990638	0.116877
H692	H	1.165339	-0.657305	0.450210
H693	H	1.498672	-0.323972	0.783543
