data_functionalizedCrystal
_audit_creation_method	'MofGen! by Chris Wilmer'
_symmetry_space_group_name_H-M	'P1'
_symmetry_Int_Tables_number	1
_symmetry_cell_setting	triclinic
loop_
_symmetry_equiv_pos_as_xyz
  x,y,z
_cell_length_a	12.811438
_cell_length_b	10.268362
_cell_length_c	12.837942
_cell_angle_alpha	90.005497
_cell_angle_beta	90.588227
_cell_angle_gamma	84.567817
loop_
_atom_site_label
_atom_site_type_symbol
_atom_site_fract_x
_atom_site_fract_y
_atom_site_fract_z
O1	O	1.406635	-0.274420	-0.139694
O2	O	1.102571	-0.238513	-0.154881
O3	O	1.247861	-0.255662	0.003644
O4	O	1.261345	-0.257271	-0.298219
O5	O	1.247858	-0.039061	0.003654
O6	O	1.102568	-0.021912	-0.154872
O7	O	1.406632	-0.057819	-0.139685
Cu8	Cu	1.254600	-0.020088	-0.147277
Cu9	Cu	1.254603	-0.276244	-0.147288
O10	O	1.261342	-0.040670	-0.298210
C11	C	1.063380	-0.125585	-0.154025
C12	C	0.946608	-0.111795	-0.151476
C13	C	0.782021	0.025703	-0.147878
C14	C	0.891739	0.012752	-0.150274
C15	C	0.891751	-0.223399	-0.150285
C16	C	0.782033	-0.210449	-0.147889
C17	C	0.727172	-0.085893	-0.146684
C18	C	0.617452	-0.072944	-0.144281
C19	C	0.617465	-0.309094	-0.144299
C20	C	0.727183	-0.322045	-0.146695
N21	N	1.254605	-0.456410	-0.147288
C22	C	1.254602	-0.722080	-0.147282
C23	C	1.254601	-0.574242	-0.147289
C24	C	1.445823	-0.170750	-0.140541
C25	C	1.562595	-0.184548	-0.143090
C26	C	1.243304	-0.146824	0.042289
C27	C	1.229718	-0.145222	0.157425
N28	N	1.254605	0.160077	-0.147269
C29	C	1.265899	-0.149510	-0.336855
C30	C	1.279485	-0.151121	-0.451991
C31	C	1.393047	-0.164537	0.397678
C32	C	1.380287	-0.163032	0.505859
C33	C	1.191437	-0.140718	0.481970
C34	C	1.204198	-0.142222	0.373789
C35	C	1.305006	-0.154130	0.331647
C36	C	1.317765	-0.155626	0.223464
C37	C	1.128917	-0.133320	0.199577
C38	C	1.116157	-0.131816	0.307758
H39	H	0.572795	-0.399964	-0.143330
O40	O	1.465729	-0.172955	0.570108
C41	C	1.560962	-0.071961	0.706078
C42	C	1.464137	-0.060565	0.633393
H43	H	1.559718	0.018905	0.757247
H44	H	1.559712	-0.162400	0.757385
H45	H	1.635184	-0.080793	0.657349
H46	H	1.389864	-0.051681	0.682039
H47	H	1.465479	0.029856	0.582081
H48	H	1.109364	-0.131036	0.516301
O49	O	1.490891	-0.176030	0.356563
C50	C	1.594241	-0.188307	0.200489
C51	C	1.483372	-0.175254	0.246911
H52	H	1.588199	-0.187712	0.111830
H53	H	1.638316	-0.102842	0.227580
H54	H	1.638291	-0.284134	0.227702
H55	H	1.439234	-0.079479	0.219719
H56	H	1.439377	-0.260788	0.219824
H57	H	1.034081	-0.122126	0.342085
O58	O	1.415632	-0.167364	0.182401
C59	C	1.539652	-0.294280	0.074168
C60	C	1.428779	-0.281121	0.120579
H61	H	1.550325	-0.386261	0.024192
H62	H	1.550379	-0.204961	0.024058
H63	H	1.600365	-0.301399	0.139965
H64	H	1.367997	-0.274040	0.054848
H65	H	1.418141	-0.370442	0.170715
H66	H	0.572786	0.028475	-0.143307
O67	O	0.728884	0.146785	-0.146750
C68	C	0.740450	0.379648	-0.146908
C69	C	0.800755	0.242601	-0.148215
H70	H	0.798532	0.457152	-0.148070
H71	H	0.686755	0.391985	-0.218292
H72	H	0.691410	0.391260	-0.073311
H73	H	0.849854	0.230895	-0.221764
H74	H	0.854386	0.230327	-0.076782
O75	O	1.043306	-0.123375	0.135541
C76	C	0.885826	-0.217009	0.081969
C77	C	0.982719	-0.228420	0.154564
H78	H	0.836827	-0.301940	0.097308
H79	H	0.836686	-0.120617	0.097376
H80	H	0.912281	-0.220064	-0.002583
H81	H	0.956358	-0.225422	0.239142
H82	H	1.031838	-0.324802	0.139066
O83	O	0.945140	0.121059	-0.151292
C84	C	1.071873	0.243190	-0.064216
C85	C	1.011485	0.120458	-0.062946
H86	H	1.125510	0.242759	0.007215
H87	H	1.120959	0.243319	-0.137778
H88	H	1.013790	0.334412	-0.062993
H89	H	1.069493	0.029170	-0.064130
H90	H	0.962383	0.120445	0.010610
O91	O	0.945169	-0.344309	-0.151604
C92	C	1.066096	-0.495637	-0.244103
C93	C	1.005677	-0.358660	-0.242725
H94	H	1.115015	-0.507294	-0.317777
H95	H	1.119896	-0.507901	-0.172791
H96	H	1.008038	-0.573165	-0.242787
H97	H	1.063658	-0.281049	-0.244076
H98	H	0.951861	-0.346508	-0.314030
H99	H	0.771866	-0.423454	-0.147680
