data_functionalizedCrystal
_audit_creation_method	'MofGen! by Chris Wilmer'
_symmetry_space_group_name_H-M	'P1'
_symmetry_Int_Tables_number	1
_symmetry_cell_setting	triclinic
loop_
_symmetry_equiv_pos_as_xyz
  x,y,z
_cell_length_a	9.065218
_cell_length_b	8.140239
_cell_length_c	11.792240
_cell_angle_alpha	90.012874
_cell_angle_beta	84.604651
_cell_angle_gamma	90.002802
loop_
_atom_site_label
_atom_site_type_symbol
_atom_site_fract_x
_atom_site_fract_y
_atom_site_fract_z
O1	O	-1.958838	-0.136657	-0.166430
O2	O	-1.458838	0.363343	0.333570
O3	O	-1.529425	-0.136663	-0.180081
O4	O	-1.029425	0.363337	0.319919
O5	O	-1.754552	-0.136610	-0.008143
O6	O	-1.254552	0.363390	0.491857
O7	O	-1.733711	-0.136710	-0.338368
O8	O	-1.233711	0.363290	0.161632
O9	O	-1.754540	0.136617	-0.008141
O10	O	-1.254540	0.636617	0.491859
O11	O	-1.529413	0.136564	-0.180079
O12	O	-1.029413	0.636564	0.319921
O13	O	-1.958826	0.136570	-0.166428
O14	O	-1.458826	0.636570	0.333572
Zn15	Zn	-1.744117	0.179948	-0.173253
Zn16	Zn	-1.244117	0.679948	0.326747
Zn17	Zn	-1.744134	-0.180041	-0.173256
Zn18	Zn	-1.244134	0.319959	0.326744
O19	O	-1.733699	0.136517	-0.338366
O20	O	-1.233699	0.636517	0.161634
C21	C	-1.474445	-0.000049	-0.178768
C22	C	-0.974445	0.499951	0.321232
C23	C	-1.310639	-0.000049	-0.174845
C24	C	-0.810639	0.499951	0.325155
C25	C	-1.753237	0.000013	0.034156
C26	C	-1.253237	0.500013	0.534156
C27	C	-1.749319	0.000040	0.160192
C28	C	-1.249319	0.500040	0.660192
C29	C	-2.013806	-0.000048	-0.167741
C30	C	-1.513806	0.499952	0.332259
C31	C	-2.177612	-0.000059	-0.171664
C32	C	-1.677612	0.499941	0.328336
N33	N	-1.744117	0.425630	-0.173251
N34	N	-1.244117	0.925630	0.326749
N35	N	-1.744146	-0.425723	-0.173249
N36	N	-1.244146	0.074277	0.326751
C37	C	-1.742113	0.000067	0.390944
C38	C	-1.242113	0.500067	0.890944
C39	C	-1.746117	0.000052	0.262537
C40	C	-1.246117	0.500052	0.762537
C41	C	-1.735014	-0.000051	0.619335
C42	C	-1.235014	0.499949	1.119335
C43	C	-1.738933	0.000085	0.493299
C44	C	-1.238933	0.500085	0.993299
