data_functionalizedCrystal
_audit_creation_method	'MofGen! by Chris Wilmer'
_symmetry_space_group_name_H-M	'P1'
_symmetry_Int_Tables_number	1
_symmetry_cell_setting	triclinic
loop_
_symmetry_equiv_pos_as_xyz
  x,y,z
_cell_length_a	14.908783
_cell_length_b	12.827892
_cell_length_c	12.827885
_cell_angle_alpha	90.029786
_cell_angle_beta	86.678907
_cell_angle_gamma	86.693529
loop_
_atom_site_label
_atom_site_type_symbol
_atom_site_fract_x
_atom_site_fract_y
_atom_site_fract_z
Zn1	Zn	1.379294	0.323906	-0.683226
Zn2	Zn	1.379203	0.498689	-0.508480
Zn3	Zn	1.228422	0.334028	-0.498395
Zn4	Zn	1.228409	0.508678	-0.673081
O5	O	1.303832	0.416325	-0.590795
O6	O	1.505530	0.338674	-0.668512
O7	O	1.359168	0.476902	-0.360904
O8	O	1.248479	0.186446	-0.522938
O9	O	1.505463	0.467087	-0.540127
O10	O	1.359324	0.179009	-0.658733
O11	O	1.248390	0.355927	-0.353494
O12	O	1.102172	0.365613	-0.513101
O13	O	1.248457	0.484111	-0.820665
O14	O	1.102163	0.493927	-0.641442
O15	O	1.359312	0.348360	-0.828118
O16	O	1.359156	0.646253	-0.530289
O17	O	1.248369	0.653592	-0.651221
C18	C	1.069433	0.431953	-0.575077
C19	C	0.969156	0.438664	-0.568377
C20	C	0.780793	0.317740	-0.689679
C21	C	0.686574	0.324042	-0.683388
C22	C	0.686497	0.457563	-0.549498
C23	C	0.780716	0.451261	-0.555789
C24	C	0.827861	0.381349	-0.625884
C25	C	0.922082	0.375053	-0.632180
C26	C	0.922003	0.508567	-0.498285
C27	C	0.827784	0.514869	-0.491994
C28	C	1.303776	0.687839	-0.590773
C29	C	1.303834	0.803988	-0.590804
C30	C	1.303893	0.416221	-0.863370
C31	C	1.303920	0.416176	-0.979525
C32	C	1.539146	0.400637	-0.606576
C33	C	1.639423	0.393952	-0.613301
C34	C	1.303913	0.143750	-0.590842
C35	C	1.303948	0.027594	-0.590862
C36	C	1.358720	0.852102	-0.531038
C37	C	1.358782	0.972149	-0.531069
C38	C	1.358780	0.348989	-1.034998
C39	C	1.358808	0.348942	-1.155050
C40	C	1.303823	0.416350	-0.319285
C41	C	1.303971	0.416089	-0.203142
H42	H	0.960466	0.318128	-0.689255
H43	H	0.789386	0.571786	-0.434922
H44	H	1.256893	0.851669	-0.641999
H45	H	1.405779	0.291424	-1.202742
C46	C	1.066398	0.558203	-0.448478
C47	C	0.973742	0.578493	-0.428155
H48	H	1.098338	0.601371	-0.405182
H49	H	1.081859	0.572541	-0.519693
H50	H	1.081837	0.486939	-0.434326
H51	H	0.958302	0.649756	-0.442315
H52	H	0.958275	0.564163	-0.356925
H53	H	1.405669	0.804423	-0.479851
H54	H	1.256967	0.473656	-1.020910
H55	H	1.405769	1.013540	-0.479898
C56	C	1.291381	0.905482	-0.730441
C57	C	1.240508	0.971734	-0.659947
H58	H	1.252215	0.870997	-0.773094
H59	H	1.325764	0.855141	-0.692921
H60	H	1.330656	0.945383	-0.773128
H61	H	1.201238	0.931832	-0.617255
H62	H	1.206110	1.022082	-0.697470
H63	H	1.405723	0.291500	-0.993612
C64	C	1.291468	0.557421	-1.079415
C65	C	1.240563	0.493748	-1.138770
H66	H	1.252321	0.605359	-1.039664
H67	H	1.330728	0.594797	-1.124625
H68	H	1.325866	0.515287	-1.033689
H69	H	1.206170	0.535881	-1.184501
H70	H	1.201287	0.456369	-1.093555
C71	C	0.657422	0.636399	-0.496355
C72	C	0.634664	0.534402	-0.472453
H73	H	0.625424	0.683834	-0.448786
H74	H	0.642006	0.652793	-0.565506
H75	H	0.720272	0.641746	-0.490966
H76	H	0.571814	0.529052	-0.477851
H77	H	0.650074	0.518003	-0.403286
C78	C	0.771410	0.186406	-0.821405
C79	C	0.832621	0.240904	-0.766731
H80	H	0.803407	0.138968	-0.868970
H81	H	0.734673	0.234442	-0.858841
H82	H	0.734646	0.148835	-0.773479
H83	H	0.869381	0.278481	-0.814656
H84	H	0.869373	0.192861	-0.729292
H85	H	0.648255	0.272243	-0.735334
