data_functionalizedCrystal
_audit_creation_method	'MofGen! by Chris Wilmer'
_symmetry_space_group_name_H-M	'P1'
_symmetry_Int_Tables_number	1
_symmetry_cell_setting	triclinic
loop_
_symmetry_equiv_pos_as_xyz
  x,y,z
_cell_length_a	18.101398
_cell_length_b	29.839125
_cell_length_c	29.839131
_cell_angle_alpha	90.024586
_cell_angle_beta	89.963840
_cell_angle_gamma	89.997005
loop_
_atom_site_label
_atom_site_type_symbol
_atom_site_fract_x
_atom_site_fract_y
_atom_site_fract_z
Zn1	Zn	1.132023	-0.253876	0.178970
Zn2	Zn	1.131913	-0.178737	0.254082
Zn3	Zn	1.008196	-0.178770	0.178961
Zn4	Zn	1.008112	-0.253850	0.254067
O5	O	1.070061	-0.216308	0.216520
O6	O	1.235641	-0.243905	0.188943
O7	O	1.115491	-0.115874	0.244119
O8	O	1.024703	-0.188758	0.116095
O9	O	1.235560	-0.188701	0.244128
O10	O	1.115678	-0.243938	0.116101
O11	O	1.024597	-0.115899	0.188928
O12	O	0.904552	-0.188733	0.188914
O13	O	1.024560	-0.316721	0.244103
O14	O	0.904490	-0.243894	0.244095
O15	O	1.115596	-0.316740	0.188929
O16	O	1.115409	-0.188676	0.316947
O17	O	1.024453	-0.243861	0.316936
C18	C	0.877650	-0.216315	0.216502
C19	C	0.795336	-0.216328	0.216505
C20	C	0.496245	-0.216309	0.216532
C21	C	0.527556	-0.250844	0.251418
C22	C	0.613174	-0.250986	0.251309
C23	C	0.644628	-0.216319	0.216519
C24	C	0.613584	-0.229265	0.169203
C25	C	0.527939	-0.229510	0.169413
C26	C	0.527799	-0.168746	0.228544
C27	C	0.613448	-0.168999	0.229583
C28	C	0.728487	-0.216323	0.216509
C29	C	0.412386	-0.216306	0.216539
C30	C	1.070081	-0.333487	0.216516
C31	C	1.070089	-0.383421	0.216514
C32	C	1.117542	-0.693078	0.187710
C33	C	1.117579	-0.880751	0.187671
O34	O	1.157870	-0.905027	0.163223
N35	N	1.070188	-0.904207	0.216394
C36	C	1.022780	-0.880741	0.245126
O37	O	0.982467	-0.904998	0.269552
C38	C	1.022740	-0.693069	0.245161
C39	C	1.070140	-0.669616	0.216440
C40	C	1.164937	-0.669624	0.158991
C41	C	1.164930	-0.622709	0.159002
C42	C	1.117528	-0.599247	0.187733
C43	C	1.070133	-0.622700	0.216452
C44	C	0.975330	-0.669604	0.273891
C45	C	0.975323	-0.622683	0.273896
C46	C	1.022723	-0.599230	0.245175
C47	C	1.022724	-0.552323	0.245194
N48	N	1.070116	-0.528867	0.216472
C49	C	1.117518	-0.552329	0.187741
C50	C	1.022806	-0.979272	0.245106
C51	C	1.022817	-1.026190	0.245097
C52	C	1.117614	-1.026196	0.187642
C53	C	1.117607	-0.979277	0.187653
C54	C	1.070197	-0.955816	0.216383
C55	C	1.117500	-0.453803	0.187768
C56	C	1.117491	-0.406883	0.187783
C57	C	1.022691	-0.406881	0.245237
C58	C	1.022703	-0.453797	0.245223
C59	C	1.070110	-0.477256	0.216485
O60	O	0.982449	-0.528018	0.269626
O61	O	1.157814	-0.528064	0.163312
C62	C	1.117549	-0.739993	0.187698
C63	C	1.070154	-0.763446	0.216417
C64	C	1.022752	-0.739984	0.245148
C65	C	1.070165	-0.810364	0.216409
C66	C	1.117567	-0.833826	0.187678
C67	C	1.164958	-0.810371	0.158956
C68	C	1.164951	-0.763455	0.158967
C69	C	0.975361	-0.763440	0.273870
C70	C	0.975372	-0.810356	0.273857
C71	C	1.022774	-0.833818	0.245126
C72	C	1.263223	-0.216302	0.216538
C73	C	1.345537	-0.216300	0.216546
C74	C	1.069930	-0.216272	0.333242
C75	C	1.069942	-0.216272	0.383177
C76	C	1.070083	-0.099586	0.216491
C77	C	1.070219	-0.049652	0.216367
C78	C	1.117347	-0.245088	0.692789
C79	C	1.117399	-0.245117	0.880462
O80	O	1.157631	-0.269587	0.904700
N81	N	1.070080	-0.216368	0.903962
C82	C	1.022742	-0.187610	0.880541
O83	O	0.982491	-0.163161	0.904835
C84	C	1.022688	-0.187583	0.692869
C85	C	1.070015	-0.216332	0.669371
C86	C	1.164670	-0.273834	0.669291
C87	C	1.164659	-0.273825	0.622376
C88	C	1.117326	-0.245069	0.598958
C89	C	1.070004	-0.216323	0.622456
C90	C	0.975346	-0.158829	0.669449
C91	C	0.975336	-0.158825	0.622527
C92	C	1.022662	-0.187574	0.599030
C93	C	1.022661	-0.187557	0.552122
N94	N	1.069979	-0.216307	0.528622
C95	C	1.117312	-0.245063	0.552040
C96	C	1.022775	-0.187626	0.979071
C97	C	1.022790	-0.187632	1.025989
C98	C	1.117445	-0.245140	1.025907
C99	C	1.117434	-0.245131	0.978988
C100	C	1.070094	-0.216376	0.955571
C101	C	1.117287	-0.245041	0.453514
C102	C	1.117274	-0.245028	0.406595
C103	C	1.022616	-0.187522	0.406681
C104	C	1.022631	-0.187533	0.453596
C105	C	1.069969	-0.216296	0.477012
O106	O	0.982443	-0.163104	0.527855
O107	O	1.157546	-0.269516	0.527737
C108	C	1.117358	-0.245097	0.739704
C109	C	1.070035	-0.216351	0.763202
C110	C	1.022703	-0.187595	0.739784
C111	C	1.070050	-0.216357	0.810120
C112	C	1.117383	-0.245113	0.833538
C113	C	1.164701	-0.273863	0.810037
C114	C	1.164691	-0.273853	0.763122
C115	C	0.975384	-0.158845	0.763284
C116	C	0.975399	-0.158856	0.810200
C117	C	1.022732	-0.187612	0.833618
C118	C	1.070174	-0.216358	1.099341
C119	C	1.070123	-0.216388	1.049407
H120	H	0.507973	-0.264282	0.159223
Br121	Br	0.649350	-0.286590	0.151910
Br122	Br	0.958500	-1.058013	0.284086
H123	H	1.156202	-0.960185	0.164265
Br124	Br	0.910975	-0.590846	0.312888
Br125	Br	0.493416	-0.189417	0.124624
H126	H	1.203548	-0.744364	0.135580
H127	H	1.156211	-1.045307	0.164249
Br128	Br	0.647346	-0.309724	0.238063
H129	H	1.203527	-0.603617	0.135614
Br130	Br	1.181834	-0.485634	0.148763
H131	H	1.203538	-0.688722	0.135592
H132	H	0.506178	-0.156982	0.262456
H133	H	0.506933	-0.242819	0.286620
H134	H	0.936839	-0.135429	0.744221
Br135	Br	0.958457	-0.947438	0.284100
Br136	Br	1.181683	-0.284165	1.057697
H137	H	1.203557	-0.829482	0.135564
H138	H	0.633960	-0.204897	0.142507
Br139	Br	0.494053	-0.125858	0.186193
H140	H	0.936732	-0.688692	0.297278
Br141	Br	0.958380	-0.485627	0.284205
H142	H	0.984224	-0.164209	0.960009
H143	H	1.156093	-0.387790	0.164395
H144	H	1.155816	-0.268438	0.387464
Br145	Br	0.911044	-0.842179	0.312843
Br146	Br	0.649129	-0.123807	0.190304
Br147	Br	0.958362	-0.375031	0.284226
H148	H	0.936760	-0.744342	0.297267
Br149	Br	1.228912	-0.312868	0.701063
Br150	Br	1.181666	-0.284148	0.947104
H151	H	0.633745	-0.159236	0.264400
H152	H	0.634162	-0.242871	0.286396
Br153	Br	1.228942	-0.312886	0.841828
Br154	Br	0.958570	-0.148607	1.057873
H155	H	1.203229	-0.297263	0.743994
Br156	Br	1.181533	-0.284076	0.485285
Br157	Br	1.228887	-0.312846	0.590493
Br158	Br	0.911111	-0.119811	0.701326
Br159	Br	0.911082	-0.119799	0.590750
H160	H	0.936861	-0.135442	0.829328
H161	H	0.984100	-0.164120	0.472729
H162	H	0.506041	-0.285881	0.243572
Br163	Br	0.958383	-0.148497	0.374891
