data_functionalizedCrystal
_audit_creation_method	'MofGen! by Chris Wilmer'
_symmetry_space_group_name_H-M	'P1'
_symmetry_Int_Tables_number	1
_symmetry_cell_setting	triclinic
loop_
_symmetry_equiv_pos_as_xyz
  x,y,z
_cell_length_a	31.640172
_cell_length_b	12.970454
_cell_length_c	12.970454
_cell_angle_alpha	60.000265
_cell_angle_beta	89.994865
_cell_angle_gamma	59.993608
loop_
_atom_site_label
_atom_site_type_symbol
_atom_site_fract_x
_atom_site_fract_y
_atom_site_fract_z
Zr1	Zr	0.407179	1.128410	-0.135330
O2	O	0.339690	1.343517	-0.299946
O3	O	0.427867	0.913315	-0.084868
O4	O	0.427867	1.128406	-0.299957
O5	O	0.339690	1.128426	0.084810
O6	O	0.497424	1.128388	-0.299964
O7	O	0.339690	1.128427	-0.084857
O8	O	0.497424	0.743631	0.084791
O9	O	0.339690	1.513183	-0.299945
O10	O	0.488600	1.001769	-0.063350
O11	O	0.436691	1.001782	0.063276
O12	O	0.436691	1.255023	-0.189963
O13	O	0.384782	1.255035	-0.063337
Zr14	Zr	0.518113	1.128381	0.135259
Zr15	Zr	0.518113	1.128382	-0.135341
Zr16	Zr	0.407179	1.128409	0.135270
Zr17	Zr	0.407179	1.399008	-0.135328
Zr18	Zr	0.518113	0.857783	0.135256
O19	O	0.497425	1.343475	0.084796
O20	O	0.497424	1.343477	-0.299962
O21	O	0.339690	1.343515	0.084812
O22	O	0.585602	0.913274	0.299875
O23	O	0.585601	0.913276	-0.084883
O24	O	0.427868	0.913314	0.299890
O25	O	0.585602	1.128365	-0.084881
O26	O	0.497425	1.128385	0.299885
O27	O	0.427868	1.128403	0.299892
O28	O	0.585602	1.128364	0.084786
O29	O	0.427868	1.513161	-0.299954
O30	O	0.497424	0.743630	0.299882
O31	O	0.585602	0.743608	0.299873
O32	O	0.585602	0.743609	0.084783
O33	O	0.339690	1.513182	-0.084854
O34	O	0.427868	1.513159	-0.084863
O35	O	0.488601	1.001768	0.189892
O36	O	0.540509	1.001756	0.063266
O37	O	0.488601	1.255009	-0.063348
O38	O	0.436692	1.255021	0.063278
C39	C	0.462645	0.789919	-0.000039
C40	C	0.462645	0.675043	-0.000040
C41	C	0.323884	1.128430	-0.000022
C42	C	0.276790	1.128442	-0.000018
C43	C	-0.015216	1.128370	-0.093504
C44	C	-0.192202	1.128351	-0.093514
O45	O	-0.215075	1.128287	-0.172977
N46	N	-0.214333	1.128354	-0.000044
C47	C	-0.192212	1.128351	0.093440
O48	O	-0.215093	1.128338	0.172949
C49	C	-0.015224	1.128359	0.093453
C50	C	0.006901	1.128371	-0.000030
C51	C	0.006910	1.128380	-0.186979
C52	C	0.051152	1.128393	-0.186980
C53	C	0.073269	1.128395	-0.093506
C54	C	0.051143	1.128384	-0.000031
C55	C	0.006898	1.128346	0.186941
C56	C	0.051148	1.128344	0.186938
C57	C	0.073274	1.128357	0.093455
C58	C	0.117502	1.128398	0.093443
N59	N	0.139633	1.128396	-0.000027
C60	C	0.117516	1.128394	-0.093501
C61	C	-0.285134	1.128350	0.093425
C62	C	-0.329381	1.128351	0.093420
C63	C	-0.329368	1.128348	-0.093532
C64	C	-0.285122	1.128358	-0.093532
C65	C	-0.263003	1.128347	-0.000045
C66	C	0.210428	1.128422	-0.093496
C67	C	0.254673	1.128440	-0.093492
C68	C	0.254657	1.128435	0.093464
C69	C	0.210415	1.128424	0.093456
C70	C	0.188302	1.128412	-0.000030
O71	O	0.140406	1.128446	0.172872
O72	O	0.140412	1.128375	-0.172982
C73	C	-0.059458	1.128357	-0.093504
C74	C	-0.081584	1.128346	-0.000029
C75	C	-0.059467	1.128348	0.093446
C76	C	-0.125831	1.128347	-0.000033
C77	C	-0.147948	1.128345	-0.093507
C78	C	-0.125817	1.128343	-0.186977
C79	C	-0.081575	1.128355	-0.186978
C80	C	-0.081597	1.128351	0.186915
C81	C	-0.125840	1.128340	0.186908
C82	C	-0.147957	1.128338	0.093433
C83	C	0.601408	1.128361	-0.000049
C84	C	0.648502	1.128349	-0.000054
C85	C	0.462645	1.128397	-0.338515
C86	C	0.462645	1.128398	-0.453392
C87	C	0.462646	1.466872	-0.000033
C88	C	0.462647	1.581747	-0.000032
C89	C	0.462647	1.128394	0.338444
C90	C	0.462647	1.128393	0.453320
C91	C	0.601407	0.789884	-0.000052
C92	C	0.648501	0.674997	-0.000058
C93	C	0.462646	0.789917	0.338441
C94	C	0.462646	0.675041	0.453316
C95	C	0.601408	0.789883	0.338427
C96	C	0.648502	0.674994	0.453298
C97	C	0.323884	1.466908	-0.338498
C98	C	0.276790	1.581796	-0.453370
C99	C	0.323885	1.466907	-0.000019
C100	C	0.276790	1.581794	-0.000014
C101	C	0.462646	1.466873	-0.338512
C102	C	0.462646	1.581750	-0.453388
C103	C	0.643521	0.621051	-0.066164
C104	C	0.687767	0.513117	-0.066194
C105	C	0.736993	0.459123	-0.000111
C106	C	0.741972	0.513079	0.065997
C107	C	0.697726	0.621018	0.066020
C108	C	0.697719	0.621035	0.441145
C109	C	0.741973	0.513101	0.549069
C110	C	0.737010	0.459120	0.669144
C111	C	0.687788	0.513090	0.681294
C112	C	0.643535	0.621030	0.573372
C113	C	0.227573	1.635769	-0.441217
C114	C	0.183319	1.743737	-0.549140
C115	C	0.188282	1.797723	-0.669215
C116	C	0.237504	1.743746	-0.681365
C117	C	0.281757	1.635788	-0.573443
C118	C	0.281771	1.635751	0.066081
C119	C	0.237525	1.743715	0.066082
C120	C	0.188299	1.797713	-0.000006
C121	C	0.183320	1.743752	-0.066109
C122	C	0.227566	1.635797	-0.066116
H123	H	0.272685	1.128454	-0.169622
O124	O	-0.060045	1.128101	0.277819
C125	C	-0.008698	1.002529	0.346199
H126	H	-0.004026	0.914729	0.337050
H127	H	0.000437	0.960379	0.449948
H128	H	0.019014	1.030937	0.306895
H129	H	0.683703	0.469199	-0.120027
H130	H	0.143244	1.787666	-0.539223
H131	H	0.143235	1.787733	-0.119915
H132	H	0.152244	1.885630	-0.757082
H133	H	0.773048	0.371228	0.757010
O134	O	0.789803	0.460379	0.130359
C135	C	0.817013	0.309120	0.223075
H136	H	0.788293	0.279614	0.247633
H137	H	0.841492	0.278034	0.311352
H138	H	0.843258	0.247400	0.185214
O139	O	0.702660	0.673197	0.130363
C140	C	0.755597	0.602406	0.188655
H141	H	0.779187	0.493013	0.201707
H142	H	0.761775	0.583769	0.284681
H143	H	0.768635	0.673192	0.126718
O144	O	0.242276	1.796306	0.130205
C145	C	0.192672	1.903145	0.116077
H146	H	0.163337	1.950400	0.026798
H147	H	0.193174	1.993919	0.108537
H148	H	0.181396	1.851512	0.201468
O149	O	-0.060050	1.128097	-0.277681
C150	C	-0.045128	1.002510	-0.271763
H151	H	-0.039294	0.914724	-0.173173
H152	H	-0.007388	0.960349	-0.293096
H153	H	-0.076634	1.030902	-0.344232
O154	O	0.329595	1.583111	-0.585084
C155	C	0.356812	1.431869	-0.526652
H156	H	0.339920	1.386075	-0.453089
H157	H	0.399397	1.375938	-0.478737
H158	H	0.353129	1.411294	-0.600877
O159	O	0.702455	0.673580	0.324419
C160	C	0.652847	0.780453	0.231751
H161	H	0.623516	0.762729	0.273809
H162	H	0.653339	0.771694	0.148513
H163	H	0.641570	0.893354	0.197995
O164	O	0.072550	1.128425	0.277802
C165	C	0.043535	1.128387	0.360314
H166	H	0.002587	1.174275	0.309956
H167	H	0.041872	1.198818	0.390475
H168	H	0.062682	1.012042	0.447233
H169	H	0.603443	0.665012	-0.119993
O170	O	0.682879	0.460854	0.797844
C171	C	0.629951	0.531590	0.785448
H172	H	0.606340	0.641007	0.689139
H173	H	0.623794	0.550174	0.862874
H174	H	0.616918	0.460791	0.794309
O175	O	-0.147271	1.128079	-0.277622
C176	C	-0.147126	1.002488	-0.220401
H177	H	-0.115794	0.914708	-0.123471
H178	H	-0.138984	0.960320	-0.281990
H179	H	-0.186479	1.030877	-0.209472
H180	H	0.152276	1.885616	0.000011
O181	O	0.329546	1.583513	0.130305
C182	C	0.324443	1.654281	0.188659
H183	H	0.284957	1.763698	0.136813
H184	H	0.356180	1.672870	0.185099
H185	H	0.328066	1.583504	0.291247
H186	H	0.773016	0.371230	-0.000138
O187	O	0.595716	0.673656	0.585123
C188	C	0.568482	0.824914	0.526630
H189	H	0.597184	0.854486	0.521621
H190	H	0.544021	0.855925	0.583890
H191	H	0.542217	0.886642	0.427083
H192	H	0.192396	1.128435	0.169568
H193	H	0.782048	0.469169	0.539153
O194	O	0.222812	1.583367	-0.324516
C195	C	0.246781	1.609761	-0.258144
H196	H	0.276938	1.623177	-0.299367
H197	H	0.266428	1.513885	-0.154270
H198	H	0.216360	1.713560	-0.267125
H199	H	0.223503	1.591869	-0.119935
H200	H	0.192429	1.128409	-0.169620
H201	H	0.069165	1.128397	-0.263099
H202	H	-0.011093	1.128374	-0.263098
H203	H	0.241538	1.787716	-0.779143
H204	H	-0.267110	1.128367	-0.169653
H205	H	-0.347397	1.128363	0.169532
O206	O	-0.350819	1.128077	-0.184175
C207	C	-0.350675	1.002488	-0.126947
H208	H	-0.319347	0.914715	-0.030013
H209	H	-0.342530	0.960308	-0.188527
H210	H	-0.390031	1.030885	-0.116027
H211	H	0.272671	1.128443	0.169567
O212	O	-0.263725	1.128603	0.184142
C213	C	-0.300296	1.254186	0.178226
H214	H	-0.330447	1.341976	0.079634
H215	H	-0.279845	1.296343	0.199570
H216	H	-0.320168	1.225791	0.250689
O217	O	-0.014657	1.128587	0.277601
C218	C	-0.066003	1.254163	0.220427
H219	H	-0.070671	1.341963	0.123486
H220	H	-0.075141	1.296309	0.282033
H221	H	-0.093716	1.225763	0.209528
O222	O	-0.147338	1.128139	0.277753
C223	C	-0.147167	1.002508	0.346165
H224	H	-0.145211	0.960639	0.285937
H225	H	-0.184070	1.030738	0.371618
H226	H	-0.112083	0.914559	0.436256
