data_functionalizedCrystal
_audit_creation_method	'MofGen! by Chris Wilmer'
_symmetry_space_group_name_H-M	'P1'
_symmetry_Int_Tables_number	1
_symmetry_cell_setting	triclinic
loop_
_symmetry_equiv_pos_as_xyz
  x,y,z
_cell_length_a	9.065218
_cell_length_b	14.044220
_cell_length_c	8.140239
_cell_angle_alpha	89.995422
_cell_angle_beta	89.997198
_cell_angle_gamma	89.102381
loop_
_atom_site_label
_atom_site_type_symbol
_atom_site_fract_x
_atom_site_fract_y
_atom_site_fract_z
O1	O	1.975818	0.139141	-0.136623
O2	O	2.309151	0.472474	0.196710
O3	O	2.642484	0.805808	0.530043
O4	O	1.547798	0.150554	-0.136626
O5	O	1.881131	0.483887	0.196707
O6	O	2.214464	0.817221	0.530041
O7	O	1.755383	0.006808	-0.136608
O8	O	2.088717	0.340141	0.196725
O9	O	2.422050	0.673474	0.530058
O10	O	1.768232	0.282887	-0.136641
O11	O	2.101566	0.616220	0.196692
O12	O	2.434899	0.949554	0.530026
O13	O	1.755371	0.006806	0.136619
O14	O	2.088704	0.340139	0.469952
O15	O	2.422037	0.673473	0.803285
O16	O	1.547785	0.150552	0.136601
O17	O	1.881118	0.483885	0.469934
O18	O	2.214452	0.817219	0.803268
O19	O	1.975805	0.139139	0.136604
O20	O	2.309138	0.472472	0.469937
O21	O	2.642472	0.805806	0.803270
Zn22	Zn	1.761793	0.144845	0.179983
Zn23	Zn	2.095126	0.478179	0.513316
Zn24	Zn	2.428460	0.811512	0.846650
Zn25	Zn	1.761810	0.144848	-0.180005
Zn26	Zn	2.095143	0.478181	0.153328
Zn27	Zn	2.428476	0.811514	0.486661
O28	O	1.768220	0.282885	0.136586
O29	O	2.101553	0.616219	0.469920
O30	O	2.434886	0.949552	0.803253
C31	C	1.492683	0.149456	-0.000013
C32	C	1.826017	0.482789	0.333321
C33	C	2.159350	0.816123	0.666654
C34	C	1.328477	0.146176	-0.000013
C35	C	1.661810	0.479510	0.333320
C36	C	1.995144	0.812843	0.666653
C37	C	1.749752	-0.028556	0.000006
C38	C	2.083086	0.304777	0.333339
C39	C	2.416419	0.638111	0.666672
C40	C	1.732975	-0.133926	0.000008
C41	C	2.066309	0.199408	0.333341
C42	C	2.399642	0.532741	0.666674
C43	C	1.702304	-0.326850	-0.000016
C44	C	2.035637	0.006483	0.333317
C45	C	2.368970	0.339816	0.666650
C46	C	1.821293	-0.383462	-0.000020
C47	C	2.154626	-0.050129	0.333313
C48	C	2.487959	0.283205	0.666646
C49	C	1.804226	-0.490812	-0.000034
C50	C	2.137560	-0.157479	0.333300
C51	C	2.470893	0.175855	0.666633
C52	C	1.719368	-0.219491	-0.000003
C53	C	2.052701	0.113843	0.333330
C54	C	2.386034	0.447176	0.666664
C55	C	2.030920	0.140237	-0.000013
C56	C	2.364253	0.473570	0.333320
C57	C	2.697586	0.806904	0.666653
C58	C	2.195126	0.143517	-0.000023
C59	C	2.528459	0.476850	0.333310
C60	C	2.861793	0.810183	0.666643
C61	C	1.773850	0.318249	-0.000032
C62	C	2.107184	0.651582	0.333302
C63	C	2.440517	0.984916	0.666635
C64	C	1.790627	0.423619	-0.000044
C65	C	2.123961	0.756952	0.333289
C66	C	2.457294	1.090285	0.666622
N67	N	1.761792	0.144843	0.425666
N68	N	2.095126	0.478177	0.758999
N69	N	2.428459	0.811510	1.092332
N70	N	1.761821	0.144842	-0.425688
N71	N	2.095155	0.478176	-0.092355
N72	N	2.428488	0.811509	0.240979
H73	H	1.935980	-0.351306	-0.000130
H74	H	2.269313	-0.017973	0.333203
H75	H	2.602646	0.315360	0.666537
O76	O	1.565597	-0.365360	0.000062
O77	O	1.898931	-0.032026	0.333396
O78	O	2.232264	0.301307	0.666729
C79	C	1.578780	-0.465524	0.000013
C80	C	1.912113	-0.132191	0.333347
C81	C	2.245446	0.201142	0.666680
H82	H	1.691039	-0.487659	0.051726
H83	H	2.024372	-0.154326	0.385059
H84	H	2.357706	0.179008	0.718393
H85	H	1.487896	-0.496769	0.079347
H86	H	1.821229	-0.163435	0.412681
H87	H	2.154563	0.169898	0.746014
H88	H	1.568063	-0.493142	-0.131068
H89	H	1.901397	-0.159808	0.202265
H90	H	2.234730	0.173525	0.535598
