data_functionalizedCrystal
_audit_creation_method	'MofGen! by Chris Wilmer'
_symmetry_space_group_name_H-M	'P1'
_symmetry_Int_Tables_number	1
_symmetry_cell_setting	triclinic
loop_
_symmetry_equiv_pos_as_xyz
  x,y,z
_cell_length_a	12.837943
_cell_length_b	10.868271
_cell_length_c	12.837942
_cell_angle_alpha	89.995469
_cell_angle_beta	85.171060
_cell_angle_gamma	90.003083
loop_
_atom_site_label
_atom_site_type_symbol
_atom_site_fract_x
_atom_site_fract_y
_atom_site_fract_z
O1	O	1.402335	0.102299	-0.272141
O2	O	1.902335	0.602299	0.227859
O3	O	1.099202	0.102306	-0.258698
O4	O	1.599202	0.602306	0.241302
O5	O	1.244047	0.102295	-0.113853
O6	O	1.744047	0.602295	0.386147
O7	O	1.257490	0.102310	-0.416986
O8	O	1.757490	0.602310	0.083014
O9	O	1.244033	-0.102349	-0.113845
O10	O	1.744033	0.397651	0.386155
O11	O	1.099188	-0.102338	-0.258690
O12	O	1.599188	0.397662	0.241310
O13	O	1.402322	-0.102345	-0.272133
O14	O	1.902322	0.397655	0.227867
Zn15	Zn	1.250753	-0.134834	-0.265411
Zn16	Zn	1.750753	0.365166	0.234589
Zn17	Zn	1.250771	0.134795	-0.265421
Zn18	Zn	1.750771	0.634795	0.234579
O19	O	1.257477	-0.102334	-0.416979
O20	O	1.757477	0.397666	0.083021
C21	C	1.060126	-0.000015	-0.254153
C22	C	1.560126	0.499985	0.245847
C23	C	0.943711	-0.000012	-0.240608
C24	C	1.443711	0.499988	0.259392
N25	N	1.250748	-0.318848	-0.265404
N26	N	1.750748	0.181152	0.234596
C27	C	0.718837	-0.000022	-0.403437
C28	C	1.218837	0.499978	0.096563
C29	C	0.609454	-0.000020	-0.390716
C30	C	1.109454	0.499980	0.109284
C31	C	0.615562	-0.000017	-0.202445
C32	C	1.115562	0.499983	0.297555
C33	C	0.724944	-0.000018	-0.215166
C34	C	1.224944	0.499982	0.284834
C35	C	0.776578	-0.000019	-0.315666
C36	C	1.276578	0.499981	0.184334
C37	C	0.885962	-0.000012	-0.328386
C38	C	1.385962	0.499988	0.171614
C39	C	0.892067	-0.000017	-0.140116
C40	C	1.392067	0.499983	0.359884
C41	C	0.782685	-0.000015	-0.127395
C42	C	1.282685	0.499985	0.372605
C43	C	1.250765	-0.569854	-0.265418
C44	C	1.750765	-0.069854	0.234582
C45	C	1.250753	-0.430176	-0.265413
C46	C	1.750753	0.069824	0.234587
C47	C	1.441398	-0.000021	-0.276679
C48	C	1.941398	0.499979	0.223321
C49	C	1.557813	-0.000016	-0.290223
C50	C	2.057813	0.499984	0.209777
C51	C	1.239499	-0.000026	-0.074780
C52	C	1.739499	0.499974	0.425220
C53	C	1.225954	-0.000024	0.041635
C54	C	1.725954	0.499976	0.541635
N55	N	1.250783	0.318809	-0.265420
N56	N	1.750783	0.818809	0.234580
C57	C	1.262025	-0.000010	-0.456052
C58	C	1.762025	0.499990	0.043948
C59	C	1.275569	-0.000004	-0.572467
C60	C	1.775569	0.499996	-0.072467
C61	C	1.388784	-0.000002	0.266510
C62	C	1.888784	0.499998	0.766510
C63	C	1.376062	0.000000	0.375892
C64	C	1.876062	0.500000	0.875892
C65	C	1.187791	-0.000008	0.369785
C66	C	1.687791	0.499992	0.869785
C67	C	1.200513	-0.000010	0.260402
C68	C	1.700513	0.499990	0.760402
C69	C	1.301012	-0.000009	0.208769
C70	C	1.801012	0.499991	0.708769
C71	C	1.313732	-0.000020	0.099384
C72	C	1.813732	0.499980	0.599384
C73	C	1.125462	-0.000020	0.093279
C74	C	1.625462	0.499980	0.593279
C75	C	1.112741	-0.000017	0.202661
C76	C	1.612741	0.499983	0.702661
H77	H	0.928000	-0.000014	-0.410218
H78	H	1.428000	0.499986	0.089782
H79	H	0.562446	-0.000026	-0.462189
H80	H	1.062446	0.499974	0.037811
H81	H	0.760878	-0.000021	-0.485268
H82	H	1.260878	0.499979	0.014732
N83	N	1.079403	0.000000	0.425482
N84	N	1.579403	0.500000	0.925482
H85	H	1.069939	0.075867	0.470719
H86	H	1.569939	0.575867	0.970719
H87	H	1.069996	-0.075907	0.470683
H88	H	1.569996	0.424093	0.970683
N89	N	0.559873	-0.000017	-0.094052
N90	N	1.059873	0.499983	0.405948
H91	H	0.580245	-0.075879	-0.055110
H92	H	1.080245	0.424121	0.444890
H93	H	0.481833	0.000025	-0.099395
H94	H	0.981833	0.500025	0.400605
N95	N	0.726992	-0.000030	-0.019004
N96	N	1.226992	0.499970	0.480996
H97	H	0.648936	-0.000034	-0.024261
H98	H	1.148936	0.499966	0.475739
H99	H	0.747445	0.075835	0.019876
H100	H	1.247445	0.575835	0.519876
N101	N	1.470726	-0.000008	0.438176
N102	N	1.970726	0.499992	0.938176
H103	H	1.469649	0.075854	0.483690
H104	H	1.969649	0.575854	0.983690
H105	H	1.536268	-0.000056	0.388800
H106	H	2.036268	0.499944	0.888800
H107	H	0.939092	-0.000006	-0.068646
H108	H	1.439092	0.499994	0.431354
N109	N	1.422122	-0.000027	0.043689
N110	N	1.922122	0.499973	0.543689
H111	H	1.475794	-0.000019	0.096870
H112	H	1.975794	0.499981	0.596870
H113	H	1.431503	0.075835	-0.001570
H114	H	1.931503	0.575835	0.498430
N115	N	1.497173	-0.000017	0.210813
N116	N	1.997173	0.499983	0.710813
H117	H	1.506633	-0.075885	0.165579
H118	H	2.006633	0.424115	0.665579
H119	H	1.550777	0.000025	0.264057
H120	H	2.050777	0.500025	0.764057
H121	H	1.030917	-0.000014	0.244717
H122	H	1.530917	0.499986	0.744717
H123	H	1.053992	-0.000035	0.046254
H124	H	1.553992	0.499965	0.546254
