data_functionalizedCrystal
_audit_creation_method	'MofGen! by Chris Wilmer'
_symmetry_space_group_name_H-M	'P1'
_symmetry_Int_Tables_number	1
_symmetry_cell_setting	triclinic
loop_
_symmetry_equiv_pos_as_xyz
  x,y,z
_cell_length_a	16.959453
_cell_length_b	21.395362
_cell_length_c	21.395355
_cell_angle_alpha	89.956060
_cell_angle_beta	90.017325
_cell_angle_gamma	89.964134
loop_
_atom_site_label
_atom_site_type_symbol
_atom_site_fract_x
_atom_site_fract_y
_atom_site_fract_z
Zn1	Zn	-0.314438	-0.957906	0.354591
Zn2	Zn	-0.446599	-0.957828	0.249816
Zn3	Zn	-0.314475	-0.853121	0.249792
Zn4	Zn	-0.446615	-0.853110	0.354520
O5	O	-0.380532	-0.905491	0.302180
O6	O	-0.331947	-1.045574	0.340731
O7	O	-0.429081	-0.943911	0.162134
O8	O	-0.203859	-0.867058	0.263714
O9	O	-0.429045	-1.045516	0.263754
O10	O	-0.203832	-0.944043	0.340709
O11	O	-0.332010	-0.866983	0.162117
O12	O	-0.332026	-0.765442	0.263645
O13	O	-0.429073	-0.867039	0.442208
O14	O	-0.429109	-0.765433	0.340588
O15	O	-0.331963	-0.944033	0.442259
O16	O	-0.557212	-0.943900	0.263685
O17	O	-0.557224	-0.866964	0.340611
C18	C	-0.380574	-0.742704	0.302107
C19	C	-0.380610	-0.673062	0.302091
C20	C	-0.585898	-0.905439	0.302157
C21	C	-0.673755	-0.905474	0.302168
C22	C	-0.380516	-0.905543	0.465603
C23	C	-0.380509	-0.905566	0.535244
C24	C	-1.045158	-0.945629	0.342347
C25	C	-1.045303	-0.865529	0.262106
C26	C	-0.962757	-0.865506	0.262091
C27	C	-0.921408	-0.905544	0.302206
C28	C	-0.962604	-0.945605	0.342335
C29	C	-0.921554	-0.825440	0.221968
C30	C	-0.839003	-0.825415	0.221952
C31	C	-0.797652	-0.865457	0.262064
C32	C	-0.838854	-0.905521	0.302194
C33	C	-0.797505	-0.945559	0.342309
C34	C	-0.838705	-0.985626	0.382436
C35	C	-0.921253	-0.985647	0.382447
C36	C	-0.715104	-0.865436	0.262053
C37	C	-0.714951	-0.945536	0.342297
C38	C	-0.174363	-0.905561	0.302216
C39	C	-0.086507	-0.905590	0.302232
C40	C	-0.380490	-1.068915	0.302253
C41	C	-0.380473	-1.138556	0.302284
C42	C	-0.431228	-0.640361	0.342095
C43	C	-0.431209	-0.574926	0.342123
C44	C	-0.380580	-0.542194	0.302135
C45	C	-0.329952	-0.574903	0.262128
C46	C	-0.329967	-0.640337	0.262106
C47	C	-0.374212	-0.438468	0.245730
C48	C	-0.374203	-0.373035	0.245751
C49	C	-0.380528	-0.340373	0.302205
C50	C	-0.386881	-0.373152	0.358638
C51	C	-0.386896	-0.438586	0.358616
C52	C	-0.380558	-0.471242	0.302155
C53	C	-0.431128	-0.236720	0.342243
C54	C	-0.431103	-0.171283	0.342272
C55	C	-0.329850	-0.171262	0.262271
C56	C	-0.329871	-0.236697	0.262248
C57	C	-0.380514	-0.269422	0.302233
C58	C	-0.380491	-0.905476	0.139392
C59	C	-0.380275	-0.905575	0.069751
C60	C	-0.329942	-0.945654	0.567985
C61	C	-0.329908	-0.945653	0.633421
C62	C	-0.380455	-0.905570	0.666113
C63	C	-0.431026	-0.865474	0.633364
C64	C	-0.431053	-0.865471	0.567929
C65	C	-0.451628	-0.900605	0.769778
C66	C	-0.451602	-0.900612	0.835211
C67	C	-0.380372	-0.905574	0.867934
C68	C	-0.309164	-0.910543	0.835215
C69	C	-0.309191	-0.910541	0.769781
C70	C	-0.380431	-0.905568	0.737065
C71	C	-0.329763	-0.945664	0.971627
C72	C	-0.329728	-0.945659	1.037064
C73	C	-0.430853	-0.865483	1.037005
C74	C	-0.430881	-0.865485	0.971570
C75	C	-0.380337	-0.905579	0.938885
H76	H	-0.805029	-1.018223	0.415101
H77	H	-0.472230	-0.832823	0.541272
H78	H	-1.078974	-0.832929	0.229449
H79	H	-0.288656	-0.263322	0.229669
H80	H	-0.288784	-0.978301	0.541377
N81	N	-0.275370	-0.675604	0.218950
H82	H	-0.307444	-0.702698	0.189858
H83	H	-0.238804	-0.702770	0.244497
N84	N	-0.275365	-0.988893	0.668745
H85	H	-0.243350	-1.014291	0.638110
H86	H	-0.307529	-1.017875	0.695915
H87	H	-0.251211	-0.914585	0.743145
N88	N	-1.089583	-0.988839	0.385632
H89	H	-1.075163	-1.033606	0.375957
H90	H	-1.148139	-0.982730	0.379538
N91	N	-0.485434	-0.822245	0.936264
H92	H	-0.522073	-0.847689	0.909134
H93	H	-0.453277	-0.793224	0.909131
H94	H	-0.955227	-0.792842	0.189310
N95	N	-0.485551	-0.822247	0.668622
H96	H	-0.517591	-0.796849	0.637948
H97	H	-0.453373	-0.793264	0.695751
H98	H	-0.509618	-0.896396	0.743140
N99	N	-0.367358	-0.337684	0.184887
H100	H	-0.363343	-0.368302	0.149122
H101	H	-0.318652	-0.310565	0.185869
N102	N	-0.794569	-0.782206	0.178671
H103	H	-0.833290	-0.756847	0.153261
H104	H	-0.760310	-0.807719	0.149703
H105	H	-0.681563	-0.832811	0.229385
N106	N	-0.485848	-0.675658	0.385220
H107	H	-0.517911	-0.645008	0.410567
H108	H	-0.453736	-0.702859	0.414254
N109	N	-0.485805	-0.539645	0.385273
H110	H	-0.517887	-0.570305	0.410600
H111	H	-0.522326	-0.512445	0.359722
N112	N	-0.670350	-0.988719	0.385562
H113	H	-0.684663	-1.033495	0.375889
H114	H	-0.684720	-0.978918	0.430302
H115	H	-0.392066	-0.465272	0.404566
N116	N	-0.528399	-0.895252	0.870498
H117	H	-0.535797	-0.933421	0.897672
H118	H	-0.573479	-0.892080	0.839801
N119	N	-0.965689	-1.028859	0.425725
H120	H	-1.024257	-1.022795	0.419646
H121	H	-0.951243	-1.019080	0.470457
H122	H	-0.392030	-0.346560	0.404608
N123	N	-0.485744	-0.272022	0.385368
H124	H	-0.517804	-0.241374	0.410720
H125	H	-0.453630	-0.299227	0.414398
H126	H	-0.288545	-0.978303	1.063721
H127	H	-0.288624	-0.144612	0.229715
N128	N	-0.485704	-0.136009	0.385419
H129	H	-0.517789	-0.166672	0.410741
H130	H	-0.522222	-0.108809	0.359865
N131	N	-0.232329	-0.915902	0.870498
H132	H	-0.243113	-0.915147	0.916915
H133	H	-0.197003	-0.879683	0.859031
H134	H	-0.369058	-0.465056	0.199756
N135	N	-0.485367	-0.822244	1.072256
H136	H	-0.477676	-0.828326	1.118677
H137	H	-0.541822	-0.831975	1.060829
N138	N	-0.275355	-0.539602	0.218991
H139	H	-0.238768	-0.512498	0.244508
H140	H	-0.307486	-0.512443	0.189931
N141	N	-0.275249	-0.988904	0.936368
H142	H	-0.243204	-1.014297	0.967042
H143	H	-0.238690	-0.963412	0.909197
