data_functionalizedCrystal
_audit_creation_method	'MofGen! by Chris Wilmer'
_symmetry_space_group_name_H-M	'P1'
_symmetry_Int_Tables_number	1
_symmetry_cell_setting	triclinic
loop_
_symmetry_equiv_pos_as_xyz
  x,y,z
_cell_length_a	27.732048
_cell_length_b	27.732048
_cell_length_c	9.130313
_cell_angle_alpha	89.990549
_cell_angle_beta	90.001977
_cell_angle_gamma	82.642655
loop_
_atom_site_label
_atom_site_type_symbol
_atom_site_fract_x
_atom_site_fract_y
_atom_site_fract_z
O1	O	0.640926	0.057517	-0.121626
O2	O	0.890926	0.307517	0.128374
O3	O	1.140926	0.557517	0.378374
O4	O	1.390926	0.807517	0.628374
O5	O	0.500133	0.066262	-0.121673
O6	O	0.750133	0.316262	0.128327
O7	O	1.000133	0.566262	0.378327
O8	O	1.250133	0.816262	0.628327
O9	O	0.574902	-0.008507	-0.121620
O10	O	0.824902	0.241493	0.128380
O11	O	1.074902	0.491493	0.378380
O12	O	1.324902	0.741493	0.628380
O13	O	0.566157	0.132286	-0.121679
O14	O	0.816157	0.382286	0.128321
O15	O	1.066157	0.632286	0.378321
O16	O	1.316157	0.882286	0.628321
O17	O	0.574897	-0.008509	0.121979
O18	O	0.824897	0.241491	0.371979
O19	O	1.074897	0.491491	0.621979
O20	O	1.324897	0.741491	0.871979
O21	O	0.500128	0.066260	0.121926
O22	O	0.750128	0.316260	0.371926
O23	O	1.000128	0.566260	0.621926
O24	O	1.250128	0.816260	0.871926
O25	O	0.640921	0.057515	0.121973
O26	O	0.890921	0.307515	0.371973
O27	O	1.140921	0.557515	0.621973
O28	O	1.390921	0.807515	0.871973
Cu29	Cu	0.570524	0.061887	0.144192
Cu30	Cu	0.820524	0.311887	0.394192
Cu31	Cu	1.070524	0.561887	0.644192
Cu32	Cu	1.320524	0.811887	0.894192
Cu33	Cu	0.570530	0.061890	-0.143892
Cu34	Cu	0.820530	0.311890	0.106108
Cu35	Cu	1.070530	0.561890	0.356108
Cu36	Cu	1.320530	0.811890	0.606108
O37	O	0.566152	0.132284	0.121920
O38	O	0.816152	0.382284	0.371920
O39	O	1.066152	0.632284	0.621920
O40	O	1.316152	0.882284	0.871920
C41	C	0.482124	0.066078	0.000121
C42	C	0.732124	0.316078	0.250121
C43	C	0.982124	0.566078	0.500121
C44	C	1.232124	0.816078	0.750121
C45	C	0.428469	0.065525	0.000105
C46	C	0.678469	0.315525	0.250105
C47	C	0.928469	0.565525	0.500105
C48	C	1.178469	0.815525	0.750105
C49	C	0.089654	0.106229	0.000151
C50	C	0.339654	0.356229	0.250151
C51	C	0.589654	0.606229	0.500151
C52	C	0.839654	0.856229	0.750151
C53	C	-0.112006	0.104178	0.000165
C54	C	0.137994	0.354178	0.250165
C55	C	0.387994	0.604178	0.500165
C56	C	0.637994	0.854178	0.750165
O57	O	-0.143262	0.141398	0.000213
O58	O	0.106738	0.391398	0.250213
O59	O	0.356738	0.641398	0.500213
O60	O	0.606738	0.891398	0.750213
N61	N	-0.131130	0.059843	0.000181
N62	N	0.118870	0.309843	0.250181
N63	N	0.368870	0.559843	0.500181
N64	N	0.618870	0.809843	0.750181
C65	C	-0.099835	0.016017	0.000203
C66	C	0.150165	0.266017	0.250203
C67	C	0.400165	0.516017	0.500203
C68	C	0.650165	0.766017	0.750203
O69	O	-0.120728	-0.021740	0.000232
O70	O	0.129272	0.228260	0.250232
O71	O	0.379272	0.478260	0.500232
O72	O	0.629272	0.728260	0.750232
C73	C	0.101824	0.018068	0.000199
C74	C	0.351824	0.268068	0.250199
C75	C	0.601824	0.518068	0.500199
C76	C	0.851824	0.768068	0.750199
C77	C	0.120944	0.062407	0.000169
C78	C	0.370944	0.312407	0.250169
C79	C	0.620944	0.562407	0.500169
C80	C	0.870944	0.812407	0.750169
C81	C	0.108775	0.150563	0.000122
C82	C	0.358775	0.400563	0.250122
C83	C	0.608775	0.650563	0.500122
C84	C	0.858775	0.900563	0.750122
C85	C	0.159187	0.151075	0.000111
C86	C	0.409187	0.401075	0.250111
C87	C	0.659187	0.651075	0.500111
C88	C	0.909187	0.901075	0.750111
C89	C	0.190477	0.107253	0.000128
C90	C	0.440477	0.357253	0.250128
C91	C	0.690477	0.607253	0.500128
C92	C	0.940477	0.857253	0.750128
C93	C	0.171356	0.062919	0.000157
C94	C	0.421356	0.312919	0.250157
C95	C	0.671356	0.562919	0.500157
C96	C	0.921356	0.812919	0.750157
C97	C	0.133117	-0.025757	0.000232
C98	C	0.383117	0.224243	0.250232
C99	C	0.633117	0.474243	0.500232
C100	C	0.883117	0.724243	0.750232
C101	C	0.183535	-0.025240	0.000235
C102	C	0.433535	0.224760	0.250235
C103	C	0.683535	0.474760	0.500235
C104	C	0.933535	0.724760	0.750235
C105	C	0.202655	0.019098	0.000204
C106	C	0.452655	0.269098	0.250204
C107	C	0.702655	0.519098	0.500204
C108	C	0.952655	0.769098	0.750204
C109	C	0.253059	0.019609	0.000163
C110	C	0.503059	0.269609	0.250163
C111	C	0.753059	0.519609	0.500163
C112	C	1.003059	0.769609	0.750163
N113	N	0.272183	0.063944	0.000148
N114	N	0.522183	0.313944	0.250148
N115	N	0.772183	0.563944	0.500148
N116	N	1.022183	0.813944	0.750148
C117	C	0.240892	0.107766	0.000130
C118	C	0.490892	0.357766	0.250130
C119	C	0.740892	0.607766	0.500130
C120	C	0.990892	0.857766	0.750130
C121	C	-0.205709	0.014943	0.000202
C122	C	0.044291	0.264943	0.250202
C123	C	0.294291	0.514943	0.500202
C124	C	0.544291	0.764943	0.750202
C125	C	-0.256124	0.014430	0.000200
C126	C	-0.006124	0.264430	0.250200
C127	C	0.243876	0.514430	0.500200
C128	C	0.493876	0.764430	0.750200
C129	C	-0.268291	0.102591	0.000165
C130	C	-0.018291	0.352591	0.250165
C131	C	0.231709	0.602591	0.500165
C132	C	0.481709	0.852591	0.750165
C133	C	-0.217876	0.103104	0.000156
C134	C	0.032124	0.353104	0.250156
C135	C	0.282124	0.603104	0.500156
C136	C	0.532124	0.853104	0.750156
C137	C	-0.186585	0.059278	0.000186
C138	C	0.063415	0.309278	0.250186
C139	C	0.313415	0.559278	0.500186
C140	C	0.563415	0.809278	0.750186
C141	C	0.346761	0.108839	0.000105
C142	C	0.596761	0.358839	0.250105
C143	C	0.846761	0.608839	0.500105
C144	C	1.096761	0.858839	0.750105
C145	C	0.397178	0.109347	0.000087
C146	C	0.647178	0.359347	0.250087
C147	C	0.897178	0.609347	0.500087
C148	C	1.147178	0.859347	0.750087
C149	C	0.409341	0.021186	0.000130
C150	C	0.659341	0.271186	0.250130
C151	C	0.909341	0.521186	0.500130
C152	C	1.159341	0.771186	0.750130
C153	C	0.358929	0.020678	0.000140
C154	C	0.608929	0.270678	0.250140
C155	C	0.858929	0.520678	0.500140
C156	C	1.108929	0.770678	0.750140
C157	C	0.327639	0.064508	0.000132
C158	C	0.577639	0.314508	0.250132
C159	C	0.827639	0.564508	0.500132
C160	C	1.077639	0.814508	0.750132
O161	O	0.284343	-0.017592	0.000132
O162	O	0.534343	0.232408	0.250132
O163	O	0.784343	0.482408	0.500132
O164	O	1.034343	0.732408	0.750132
O165	O	0.261794	0.145518	0.000133
O166	O	0.511794	0.395518	0.250133
O167	O	0.761794	0.645518	0.500133
O168	O	1.011794	0.895518	0.750133
C169	C	0.039242	0.105716	0.000163
C170	C	0.289242	0.355716	0.250163
C171	C	0.539242	0.605716	0.500163
C172	C	0.789242	0.855716	0.750163
C173	C	0.020120	0.061382	0.000192
C174	C	0.270120	0.311382	0.250192
C175	C	0.520120	0.561382	0.500192
C176	C	0.770120	0.811382	0.750192
C177	C	0.051411	0.017560	0.000209
C178	C	0.301411	0.267560	0.250209
C179	C	0.551411	0.517560	0.500209
C180	C	0.801411	0.767560	0.750209
C181	C	-0.030294	0.060869	0.000190
C182	C	0.219706	0.310869	0.250190
C183	C	0.469706	0.560869	0.500190
C184	C	0.719706	0.810869	0.750190
C185	C	-0.061585	0.104691	0.000172
C186	C	0.188415	0.354691	0.250172
C187	C	0.438415	0.604691	0.500172
C188	C	0.688415	0.854691	0.750172
C189	C	-0.042461	0.149026	0.000156
C190	C	0.207539	0.399026	0.250156
C191	C	0.457539	0.649026	0.500156
C192	C	0.707539	0.899026	0.750156
C193	C	0.007951	0.149539	0.000145
C194	C	0.257951	0.399539	0.250145
C195	C	0.507951	0.649539	0.500145
C196	C	0.757951	0.899539	0.750145
C197	C	0.032287	-0.026775	0.000225
C198	C	0.282287	0.223225	0.250225
C199	C	0.532287	0.473225	0.500225
C200	C	0.782287	0.723225	0.750225
C201	C	-0.018125	-0.027284	0.000235
C202	C	0.231875	0.222716	0.250235
C203	C	0.481875	0.472716	0.500235
C204	C	0.731875	0.722716	0.750235
C205	C	-0.049416	0.016538	0.000217
C206	C	0.200584	0.266538	0.250217
C207	C	0.450584	0.516538	0.500217
C208	C	0.700584	0.766538	0.750217
C209	C	0.574716	-0.026515	0.000183
C210	C	0.824716	0.223485	0.250183
C211	C	1.074716	0.473485	0.500183
C212	C	1.324716	0.723485	0.750183
C213	C	0.574164	-0.080170	0.000195
C214	C	0.824164	0.169830	0.250195
C215	C	1.074164	0.419830	0.500195
C216	C	1.324164	0.669830	0.750195
C217	C	0.614867	-0.418985	0.000133
C218	C	0.864867	-0.168985	0.250133
C219	C	1.114867	0.081015	0.500133
C220	C	1.364867	0.331015	0.750133
C221	C	0.612816	-0.620645	0.000112
C222	C	0.862816	-0.370645	0.250112
C223	C	1.112816	-0.120645	0.500112
C224	C	1.362816	0.129355	0.750112
O225	O	0.650037	-0.651900	0.000060
O226	O	0.900037	-0.401900	0.250060
O227	O	1.150037	-0.151900	0.500060
O228	O	1.400037	0.098100	0.750060
N229	N	0.568481	-0.639768	0.000099
N230	N	0.818481	-0.389768	0.250099
N231	N	1.068481	-0.139768	0.500099
N232	N	1.318481	0.110232	0.750099
C233	C	0.524656	-0.608474	0.000081
C234	C	0.774656	-0.358474	0.250081
C235	C	1.024656	-0.108474	0.500081
C236	C	1.274656	0.141526	0.750081
O237	O	0.486899	-0.629367	0.000055
O238	O	0.736899	-0.379367	0.250055
O239	O	0.986899	-0.129367	0.500055
O240	O	1.236899	0.120633	0.750055
C241	C	0.526707	-0.406815	0.000092
C242	C	0.776707	-0.156815	0.250092
C243	C	1.026707	0.093185	0.500092
C244	C	1.276707	0.343185	0.750092
C245	C	0.571045	-0.387694	0.000120
C246	C	0.821045	-0.137694	0.250120
C247	C	1.071045	0.112306	0.500120
C248	C	1.321045	0.362306	0.750120
C249	C	0.659202	-0.399864	0.000160
C250	C	0.909202	-0.149864	0.250160
C251	C	1.159202	0.100136	0.500160
C252	C	1.409202	0.350136	0.750160
C253	C	0.659714	-0.349452	0.000173
C254	C	0.909714	-0.099452	0.250173
C255	C	1.159714	0.150548	0.500173
C256	C	1.409714	0.400548	0.750173
C257	C	0.615892	-0.318161	0.000160
C258	C	0.865892	-0.068161	0.250160
C259	C	1.115892	0.181839	0.500160
C260	C	1.365892	0.431839	0.750160
C261	C	0.571557	-0.337282	0.000133
C262	C	0.821557	-0.087282	0.250133
C263	C	1.071557	0.162718	0.500133
C264	C	1.321557	0.412718	0.750133
C265	C	0.482882	-0.375521	0.000064
C266	C	0.732882	-0.125521	0.250064
C267	C	0.982882	0.124479	0.500064
C268	C	1.232882	0.374479	0.750064
C269	C	0.483399	-0.325104	0.000063
C270	C	0.733399	-0.075104	0.250063
C271	C	0.983399	0.174896	0.500063
C272	C	1.233399	0.424896	0.750063
C273	C	0.527737	-0.305983	0.000091
C274	C	0.777737	-0.055983	0.250091
C275	C	1.027737	0.194017	0.500091
C276	C	1.277737	0.444017	0.750091
C277	C	0.528247	-0.255580	0.000133
C278	C	0.778247	-0.005580	0.250133
C279	C	1.028247	0.244420	0.500133
C280	C	1.278247	0.494420	0.750133
N281	N	0.572583	-0.236456	0.000147
N282	N	0.822583	0.013544	0.250147
N283	N	1.072583	0.263544	0.500147
N284	N	1.322583	0.513544	0.750147
C285	C	0.616405	-0.267747	0.000160
C286	C	0.866405	-0.017747	0.250160
C287	C	1.116405	0.232253	0.500160
C288	C	1.366405	0.482253	0.750160
C289	C	0.523582	-0.714348	0.000079
C290	C	0.773582	-0.464348	0.250079
C291	C	1.023582	-0.214348	0.500079
C292	C	1.273582	0.035652	0.750079
C293	C	0.523069	-0.764762	0.000079
C294	C	0.773069	-0.514762	0.250079
C295	C	1.023069	-0.264762	0.500079
C296	C	1.273069	-0.014762	0.750079
C297	C	0.611230	-0.776930	0.000107
C298	C	0.861230	-0.526930	0.250107
C299	C	1.111230	-0.276930	0.500107
C300	C	1.361230	-0.026930	0.750107
C301	C	0.611742	-0.726514	0.000117
C302	C	0.861742	-0.476514	0.250117
C303	C	1.111742	-0.226514	0.500117
C304	C	1.361742	0.023486	0.750117
C305	C	0.567917	-0.695224	0.000092
C306	C	0.817917	-0.445224	0.250092
C307	C	1.067917	-0.195224	0.500092
C308	C	1.317917	0.054776	0.750092
C309	C	0.617477	-0.161878	0.000189
C310	C	0.867477	0.088122	0.250189
C311	C	1.117477	0.338122	0.500189
C312	C	1.367477	0.588122	0.750189
C313	C	0.617986	-0.111461	0.000208
C314	C	0.867986	0.138539	0.250208
C315	C	1.117986	0.388539	0.500208
C316	C	1.367986	0.638539	0.750208
C317	C	0.529825	-0.099298	0.000172
C318	C	0.779825	0.150702	0.250172
C319	C	1.029825	0.400702	0.500172
C320	C	1.279825	0.650702	0.750172
C321	C	0.529316	-0.149710	0.000161
C322	C	0.779316	0.100290	0.250161
C323	C	1.029316	0.350290	0.500161
C324	C	1.279316	0.600290	0.750161
C325	C	0.573147	-0.180999	0.000164
C326	C	0.823147	0.069001	0.250164
C327	C	1.073147	0.319001	0.500164
C328	C	1.323147	0.569001	0.750164
O329	O	0.491047	-0.224296	0.000169
O330	O	0.741047	0.025704	0.250169
O331	O	0.991047	0.275704	0.500169
O332	O	1.241047	0.525704	0.750169
O333	O	0.654156	-0.246844	0.000154
O334	O	0.904156	0.003156	0.250154
O335	O	1.154156	0.253156	0.500154
O336	O	1.404156	0.503156	0.750154
C337	C	0.614355	-0.469397	0.000120
C338	C	0.864355	-0.219397	0.250120
C339	C	1.114355	0.030603	0.500120
C340	C	1.364355	0.280603	0.750120
C341	C	0.570021	-0.488518	0.000094
C342	C	0.820021	-0.238518	0.250094
C343	C	1.070021	0.011482	0.500094
C344	C	1.320021	0.261482	0.750094
C345	C	0.526198	-0.457228	0.000080
C346	C	0.776198	-0.207228	0.250080
C347	C	1.026198	0.042772	0.500080
C348	C	1.276198	0.292772	0.750080
C349	C	0.569508	-0.538933	0.000094
C350	C	0.819508	-0.288933	0.250094
C351	C	1.069508	-0.038933	0.500094
C352	C	1.319508	0.211067	0.750094
C353	C	0.613330	-0.570223	0.000107
C354	C	0.863330	-0.320223	0.250107
C355	C	1.113330	-0.070223	0.500107
C356	C	1.363330	0.179777	0.750107
C357	C	0.657665	-0.551100	0.000120
C358	C	0.907665	-0.301100	0.250120
C359	C	1.157665	-0.051100	0.500120
C360	C	1.407665	0.198900	0.750120
C361	C	0.658177	-0.500688	0.000133
C362	C	0.908177	-0.250688	0.250133
C363	C	1.158177	-0.000688	0.500133
C364	C	1.408177	0.249312	0.750133
C365	C	0.481863	-0.476351	0.000067
C366	C	0.731863	-0.226351	0.250067
C367	C	0.981863	0.023649	0.500067
C368	C	1.231863	0.273649	0.750067
C369	C	0.481355	-0.526764	0.000056
C370	C	0.731355	-0.276764	0.250056
C371	C	0.981355	-0.026764	0.500056
C372	C	1.231355	0.223236	0.750056
C373	C	0.525177	-0.558054	0.000069
C374	C	0.775177	-0.308054	0.250069
C375	C	1.025177	-0.058054	0.500069
C376	C	1.275177	0.191946	0.750069
C377	C	0.658931	0.057699	0.000176
C378	C	0.908931	0.307699	0.250176
C379	C	1.158931	0.557699	0.500176
C380	C	1.408931	0.807699	0.750176
C381	C	0.712586	0.058252	0.000182
C382	C	0.962586	0.308252	0.250182
C383	C	1.212586	0.558252	0.500182
C384	C	1.462586	0.808252	0.750182
C385	C	0.566338	0.150292	0.000113
C386	C	0.816338	0.400292	0.250113
C387	C	1.066338	0.650292	0.500113
C388	C	1.316338	0.900292	0.750113
C389	C	0.566891	0.203947	0.000092
C390	C	0.816891	0.453947	0.250092
C391	C	1.066891	0.703947	0.500092
C392	C	1.316891	0.953947	0.750092
N393	N	0.570524	0.061885	0.346815
N394	N	0.820524	0.311885	0.596815
N395	N	1.070524	0.561885	0.846815
N396	N	1.320524	0.811885	1.096815
N397	N	0.570535	0.061888	-0.346515
N398	N	0.820535	0.311888	-0.096515
N399	N	1.070535	0.561888	0.153485
N400	N	1.320535	0.811888	0.403485
C401	C	0.603642	0.028791	0.423490
C402	C	0.853642	0.278791	0.673490
C403	C	1.103642	0.528791	0.923490
C404	C	1.353642	0.778791	1.173490
C405	C	0.603647	0.028791	0.576826
C406	C	0.853647	0.278791	0.826826
C407	C	1.103647	0.528791	1.076826
C408	C	1.353647	0.778791	1.326826
C409	C	0.537412	0.094984	0.576800
C410	C	0.787412	0.344984	0.826800
C411	C	1.037412	0.594984	1.076800
C412	C	1.287412	0.844984	1.326800
C413	C	0.537406	0.094981	0.423465
C414	C	0.787406	0.344981	0.673465
C415	C	1.037406	0.594981	0.923465
C416	C	1.287406	0.844981	1.173465
H417	H	0.209009	-0.060929	0.000260
H418	H	0.459009	0.189071	0.250260
H419	H	0.709009	0.439071	0.500260
H420	H	0.959009	0.689071	0.750260
F421	F	0.179530	0.198267	0.000085
F422	F	0.429530	0.448267	0.250085
F423	F	0.679530	0.698267	0.500085
F424	F	0.929530	0.948267	0.750085
H425	H	-0.033688	-0.063392	0.000248
H426	H	0.216312	0.186608	0.250248
H427	H	0.466312	0.436608	0.500248
H428	H	0.716312	0.686608	0.750248
F429	F	0.638888	-0.006434	0.341918
F430	F	0.888888	0.243566	0.591918
F431	F	1.138888	0.493566	0.841918
F432	F	1.388888	0.743566	1.091918
F433	F	0.502153	0.130204	0.341856
F434	F	0.752153	0.380204	0.591856
F435	F	1.002153	0.630204	0.841856
F436	F	1.252153	0.880204	1.091856
H437	H	0.630615	0.001842	0.639251
H438	H	0.880615	0.251842	0.889251
H439	H	1.130615	0.501842	1.139251
H440	H	1.380615	0.751842	1.389251
H441	H	0.412743	0.145454	0.000061
H442	H	0.662743	0.395454	0.250061
H443	H	0.912743	0.645454	0.500061
H444	H	1.162743	0.895454	0.750061
H445	H	0.694282	-0.485125	0.000156
H446	H	0.944282	-0.235125	0.250156
H447	H	1.194282	0.014875	0.500156
H448	H	1.444282	0.264875	0.750156
F449	F	0.065583	-0.073420	0.000247
F450	F	0.315583	0.176580	0.250247
F451	F	0.565583	0.426580	0.500247
F452	F	0.815583	0.676580	0.750247
H453	H	0.694889	-0.425336	0.000165
H454	H	0.944889	-0.175336	0.250165
H455	H	1.194889	0.074664	0.500165
H456	H	1.444889	0.324664	0.750165
H457	H	0.487892	-0.688875	0.000058
H458	H	0.737892	-0.438875	0.250058
H459	H	0.987892	-0.188875	0.500058
H460	H	1.237892	0.061125	0.750058
F461	F	0.435691	-0.395860	0.000028
F462	F	0.685691	-0.145860	0.250028
F463	F	0.935691	0.104140	0.500028
F464	F	1.185691	0.354140	0.750028
H465	H	0.510449	0.121931	0.639224
H466	H	0.760449	0.371931	0.889224
H467	H	1.010449	0.621931	1.139224
H468	H	1.260449	0.871931	1.389224
H469	H	0.083302	0.186251	0.000113
H470	H	0.333302	0.436251	0.250113
H471	H	0.583302	0.686251	0.500113
H472	H	0.833302	0.936251	0.750113
H473	H	0.321291	0.144530	0.000103
H474	H	0.571291	0.394530	0.250103
H475	H	0.821291	0.644530	0.500103
H476	H	1.071291	0.894530	0.750103
F477	F	-0.197531	0.150294	0.000126
F478	F	0.052469	0.400294	0.250126
F479	F	0.302469	0.650294	0.500126
F480	F	0.552469	0.900294	0.750126
H481	H	0.494146	-0.073812	0.000167
H482	H	0.744146	0.176188	0.250167
H483	H	0.994146	0.426188	0.500167
H484	H	1.244146	0.676188	0.750167
H485	H	0.653168	-0.187348	0.000186
H486	H	0.903168	0.062652	0.250186
H487	H	1.153168	0.312652	0.500186
H488	H	1.403168	0.562652	0.750186
H489	H	-0.293777	0.138273	0.000151
H490	H	-0.043777	0.388273	0.250151
H491	H	0.206223	0.638273	0.500151
H492	H	0.456223	0.888273	0.750151
H493	H	-0.067947	0.184708	0.000136
H494	H	0.182053	0.434708	0.250136
H495	H	0.432053	0.684708	0.500136
H496	H	0.682053	0.934708	0.750136
F497	F	-0.276468	-0.032761	0.000200
F498	F	-0.026468	0.217239	0.250200
F499	F	0.223532	0.467239	0.500200
F500	F	0.473532	0.717239	0.750200
H501	H	0.647846	-0.710950	0.000139
H502	H	0.897846	-0.460950	0.250139
H503	H	1.147846	-0.210950	0.500139
H504	H	1.397846	0.039050	0.750139
H505	H	0.117558	-0.061861	0.000258
H506	H	0.367558	0.188139	0.250258
H507	H	0.617558	0.438139	0.500258
H508	H	0.867558	0.688139	0.750258
F509	F	-0.172413	-0.031705	0.000232
F510	F	0.077587	0.218295	0.250232
F511	F	0.327587	0.468295	0.500232
F512	F	0.577587	0.718295	0.750232
F513	F	0.338578	-0.026511	0.000173
F514	F	0.588578	0.223489	0.250173
F515	F	0.838578	0.473489	0.500173
F516	F	1.088578	0.723489	0.750173
H517	H	0.023514	0.185643	0.000122
H518	H	0.273514	0.435643	0.250122
H519	H	0.523514	0.685643	0.500122
H520	H	0.773514	0.935643	0.750122
F521	F	0.442651	-0.025450	0.000151
F522	F	0.692651	0.224550	0.250151
F523	F	0.942651	0.474550	0.500151
F524	F	1.192651	0.724550	0.750151
F525	F	0.665178	-0.091114	0.000238
F526	F	0.915178	0.158886	0.250238
F527	F	1.165178	0.408886	0.500238
F528	F	1.415178	0.658886	0.750238
H529	H	0.447710	-0.299629	0.000040
H530	H	0.697710	-0.049629	0.250040
H531	H	0.947710	0.200371	0.500040
H532	H	1.197710	0.450371	0.750040
H533	H	0.695819	-0.333889	0.000190
H534	H	0.945819	-0.083889	0.250190
H535	H	1.195819	0.166111	0.500190
H536	H	1.445819	0.416111	0.750190
H537	H	0.646911	-0.802415	0.000118
H538	H	0.896911	-0.552415	0.250118
H539	H	1.146911	-0.302415	0.500118
H540	H	1.396911	-0.052415	0.750118
F541	F	0.482127	-0.170060	0.000157
F542	F	0.732127	0.079940	0.250157
F543	F	0.982127	0.329940	0.500157
F544	F	1.232127	0.579940	0.750157
F545	F	0.475878	-0.785106	0.000075
F546	F	0.725878	-0.535106	0.250075
F547	F	0.975878	-0.285106	0.500075
F548	F	1.225878	-0.035106	0.750075
H549	H	0.445246	-0.542327	0.000045
H550	H	0.695246	-0.292327	0.250045
H551	H	0.945246	-0.042327	0.500045
H552	H	1.195246	0.207673	0.750045
F553	F	0.704304	-0.584410	0.000142
F554	F	0.954304	-0.334410	0.250142
F555	F	1.204304	-0.084410	0.500142
F556	F	1.454304	0.165590	0.750142
H557	H	0.446177	-0.450879	0.000053
H558	H	0.696177	-0.200879	0.250053
H559	H	0.946177	0.049121	0.500053
H560	H	1.196177	0.299121	0.750053
