data_functionalizedCrystal
_audit_creation_method	'MofGen! by Chris Wilmer'
_symmetry_space_group_name_H-M	'P1'
_symmetry_Int_Tables_number	1
_symmetry_cell_setting	triclinic
loop_
_symmetry_equiv_pos_as_xyz
  x,y,z
_cell_length_a	12.759393
_cell_length_b	13.033409
_cell_length_c	12.759400
_cell_angle_alpha	97.154740
_cell_angle_beta	90.031564
_cell_angle_gamma	97.170546
loop_
_atom_site_label
_atom_site_type_symbol
_atom_site_fract_x
_atom_site_fract_y
_atom_site_fract_z
Zn1	Zn	-0.389659	1.597533	0.621973
Zn2	Zn	-0.213993	1.597428	0.797679
Zn3	Zn	-0.236348	1.422789	0.599739
Zn4	Zn	-0.411972	1.422778	0.775320
O5	O	-0.312993	1.510132	0.698678
O6	O	-0.347663	1.743741	0.663943
O7	O	-0.069942	1.574222	0.771474
O8	O	-0.256703	1.446018	0.455674
O9	O	-0.218601	1.743664	0.793033
O10	O	-0.369340	1.574401	0.472009
O11	O	-0.086366	1.445916	0.626048
O12	O	-0.278338	1.276565	0.604368
O13	O	-0.556028	1.445998	0.754927
O14	O	-0.407368	1.276556	0.733367
O15	O	-0.539635	1.574390	0.642263
O16	O	-0.240237	1.574211	0.941728
O17	O	-0.385691	1.445897	0.925301
C18	C	-0.347701	1.238647	0.664029
C19	C	-0.362574	1.122504	0.649232
C20	C	-0.587017	1.510205	0.698581
C21	C	-0.703790	1.510236	0.698540
C22	C	-0.320623	0.950643	0.691114
C23	C	-0.305245	1.070683	0.706412
C24	C	-0.750116	1.577099	0.639871
C25	C	-0.859837	1.577124	0.639836
C26	C	-0.876895	1.443420	0.757148
C27	C	-0.767177	1.443391	0.757176
C28	C	-0.740268	1.654295	0.572145
C29	C	-0.849989	1.654320	0.572110
C30	C	-0.040027	1.510119	0.698706
C31	C	0.076771	1.510290	0.698477
C32	C	-0.312979	1.510070	0.971637
C33	C	-0.312996	1.510139	1.088423
C34	C	-0.278150	1.782677	0.733463
C35	C	-0.263301	1.898819	0.748286
C36	C	-0.313026	1.510222	0.424656
C37	C	-0.313040	1.510261	0.307884
C38	C	-0.237322	1.577026	1.151813
C39	C	-0.237347	1.577090	1.261545
C40	C	-0.388721	1.443371	1.244486
C41	C	-0.388701	1.443312	1.134757
C42	C	-0.149924	1.654225	1.161662
C43	C	-0.149949	1.654290	1.271394
H44	H	-0.244787	1.115179	0.766694
N45	N	-0.175598	1.756140	1.329341
H46	H	-0.241354	1.743000	1.372187
H47	H	-0.187918	1.805233	1.276559
H48	H	-0.450359	1.388964	1.282226
N49	N	-0.682155	1.756097	0.623747
H50	H	-0.603577	1.752360	0.621882
H51	H	-0.704943	1.769318	0.699508
H52	H	-0.161429	1.735127	1.142123
H53	H	-0.076303	1.625258	1.124020
H54	H	-0.423041	1.078010	0.588957
N55	N	-0.183212	0.957760	0.828121
H56	H	-0.110588	0.938785	0.809313
H57	H	-0.201898	0.938799	0.900780
N58	N	-0.045819	1.625657	1.307311
H59	H	0.000663	1.612826	1.244190
H60	H	-0.058881	1.560414	1.343045
H61	H	-0.381086	0.906143	0.630846
H62	H	-0.713282	1.632644	0.488019
H63	H	-0.729463	1.388941	0.804946
H64	H	-0.928519	1.388995	0.804885
H65	H	-0.887741	1.625364	0.491108
N66	N	-0.875738	1.761512	0.614648
H67	H	-0.808089	1.809327	0.633663
H68	H	-0.920336	1.756765	0.679649
H69	H	-0.450328	1.388857	1.083146
