data_functionalizedCrystal
_audit_creation_method	'MofGen! by Chris Wilmer'
_symmetry_space_group_name_H-M	'P1'
_symmetry_Int_Tables_number	1
_symmetry_cell_setting	triclinic
loop_
_symmetry_equiv_pos_as_xyz
  x,y,z
_cell_length_a	21.606444
_cell_length_b	18.878441
_cell_length_c	21.606444
_cell_angle_alpha	59.999964
_cell_angle_beta	89.998123
_cell_angle_gamma	59.999929
loop_
_atom_site_label
_atom_site_type_symbol
_atom_site_fract_x
_atom_site_fract_y
_atom_site_fract_z
Zr1	Zr	0.596213	0.775377	-0.081228
O2	O	0.497389	0.923152	-0.180047
O3	O	0.626509	0.627601	-0.050937
O4	O	0.626508	0.775381	-0.180055
O5	O	0.497390	0.775369	0.050924
O6	O	0.728358	0.775386	-0.180059
O7	O	0.497390	0.775371	-0.050929
O8	O	0.728359	0.511034	0.050910
O9	O	0.497388	1.039722	-0.180045
O10	O	0.715438	0.688388	-0.038018
O11	O	0.639428	0.688382	0.037997
O12	O	0.639427	0.862375	-0.114024
O13	O	0.563417	0.862369	-0.038009
Zr14	Zr	0.758651	0.775381	0.081210
Zr15	Zr	0.758652	0.775385	-0.081234
Zr16	Zr	0.596212	0.775373	0.081216
Zr17	Zr	0.596211	0.961292	-0.081224
Zr18	Zr	0.758653	0.589466	0.081206
O19	O	0.728355	0.923157	0.050919
O20	O	0.728356	0.923164	-0.180056
O21	O	0.497388	0.923146	0.050927
O22	O	0.857474	0.627606	0.180029
O23	O	0.857476	0.627612	-0.050945
O24	O	0.626508	0.627594	0.180038
O25	O	0.857474	0.775389	-0.050942
O26	O	0.728356	0.775377	0.180037
O27	O	0.626506	0.775372	0.180041
O28	O	0.857473	0.775386	0.050911
O29	O	0.626505	1.039728	-0.180050
O30	O	0.728359	0.511030	0.180032
O31	O	0.857476	0.511036	0.180027
O32	O	0.857476	0.511040	0.050906
O33	O	0.497387	1.039718	-0.050924
O34	O	0.626504	1.039724	-0.050928
O35	O	0.715437	0.688383	0.114006
O36	O	0.791447	0.688389	0.037991
O37	O	0.715436	0.862376	-0.038014
O38	O	0.639426	0.862370	0.038000
C39	C	0.677434	0.542828	-0.000014
C40	C	0.677435	0.463903	-0.000015
C41	C	0.717110	0.426826	-0.039695
C42	C	0.717113	0.352662	-0.039689
C43	C	0.677436	0.315581	-0.000008
C44	C	0.637760	0.352660	0.039677
C45	C	0.637762	0.426818	0.039675
C46	C	0.637757	0.198093	0.039676
C47	C	0.637754	0.123932	0.039677
C48	C	0.717108	0.123938	-0.039688
C49	C	0.717110	0.198095	-0.039690
C50	C	0.677433	0.235171	-0.000006
C51	C	0.474246	0.775369	-0.000002
C52	C	0.405287	0.775366	0.000001
C53	C	0.412564	0.684547	0.039672
C54	C	0.347767	0.684550	0.039673
C55	C	0.275693	0.775372	-0.000003
C56	C	0.268417	0.866198	-0.039675
C57	C	0.333213	0.866194	-0.039671
C58	C	0.007098	0.866215	-0.039692
C59	C	-0.057700	0.866212	-0.039695
C60	C	0.021652	0.684571	0.039652
C61	C	0.086449	0.684567	0.039656
C62	C	0.079167	0.775392	-0.000013
C63	C	0.149428	0.775388	-0.000012
C64	C	0.205432	0.775377	-0.000008
C65	C	0.880618	0.775389	-0.000016
C66	C	0.949577	0.775392	-0.000019
C67	C	0.677433	0.775385	-0.203202
C68	C	0.677434	0.775386	-0.272163
C69	C	0.677429	1.007930	-0.000004
C70	C	0.677428	1.086855	-0.000003
C71	C	0.733543	0.775391	-0.304564
C72	C	0.733546	0.775384	-0.369357
C73	C	0.677434	0.775379	-0.401751
C74	C	0.621322	0.775372	-0.369345
C75	C	0.621323	0.775372	-0.304550
C76	C	0.621315	0.775371	-0.630655
C77	C	0.621317	0.775374	-0.695456
C78	C	0.733538	0.775383	-0.695462
C79	C	0.733539	0.775383	-0.630667
C80	C	0.677429	0.775370	-0.598264
C81	C	0.677428	0.775376	-0.528007
C82	C	0.677432	0.775381	-0.472010
C83	C	0.677431	0.775373	0.203184
C84	C	0.677430	0.775372	0.272145
C85	C	0.880620	0.542838	-0.000021
C86	C	0.949581	0.463916	-0.000025
C87	C	0.677433	0.542823	0.203179
C88	C	0.677434	0.463895	0.272139
C89	C	0.880619	0.542833	0.203172
C90	C	0.949579	0.463909	0.272129
C91	C	0.474245	1.007925	-0.203190
C92	C	0.405285	1.086849	-0.272147
C93	C	0.474243	1.007920	0.000003
C94	C	0.405283	1.086842	0.000007
C95	C	0.677431	1.007935	-0.203197
C96	C	0.677430	1.086863	-0.272157
C97	C	0.942289	0.426852	-0.039710
C98	C	1.007079	0.352707	-0.039729
C99	C	1.079159	0.315621	-0.000058
C100	C	1.086448	0.352692	0.039628
C101	C	1.021660	0.426841	0.039642
C102	C	0.717110	0.426831	0.344206
C103	C	0.717107	0.352681	0.409008
C104	C	0.677433	0.315591	0.401741
C105	C	0.637752	0.352662	0.329666
C106	C	0.637750	0.426816	0.264866
C107	C	1.021646	0.426848	0.264834
C108	C	1.086448	0.352701	0.329621
C109	C	1.079180	0.315610	0.401702
C110	C	1.007105	0.352678	0.408996
C111	C	0.942305	0.426829	0.344210
C112	C	0.333217	1.123919	-0.264852
C113	C	0.268416	1.198089	-0.329638
C114	C	0.275684	1.235183	-0.401720
C115	C	0.347759	1.198111	-0.409014
C116	C	0.412558	1.123947	-0.344228
C117	C	0.412574	1.123913	0.039685
C118	C	0.347785	1.198079	0.039686
C119	C	0.275705	1.235168	0.000013
C120	C	0.268415	1.198093	-0.039669
C121	C	0.333204	1.123934	-0.039675
C122	C	0.717112	1.123929	-0.264866
C123	C	0.717127	1.198080	-0.329655
C124	C	0.677454	1.235168	-0.401735
C125	C	0.637771	1.198095	-0.409025
C126	C	0.637761	1.123940	-0.344236
H127	H	0.749414	0.093746	-0.071999
O128	O	0.594958	0.466779	0.187139
H129	H	0.601613	0.524579	0.143293
O130	O	0.560800	0.775372	-0.404288
H131	H	0.504228	0.843277	-0.421508
H132	H	0.209736	1.228261	-0.323685
H133	H	0.749423	0.322506	0.467688
H134	H	0.677440	0.255210	0.454511
H135	H	0.749415	0.457018	-0.072012
H136	H	0.605450	0.322453	0.323760
H137	H	1.001128	0.322533	-0.072046
H138	H	0.222913	1.295572	-0.454467
O139	O	0.759909	1.083933	-0.187127
H140	H	0.803754	1.002127	-0.155712
O141	O	0.864550	0.466854	-0.082508
H142	H	0.870377	0.428625	-0.110112
H143	H	0.605470	1.228304	-0.467721
H144	H	1.027578	0.457036	0.206147
O145	O	0.759904	0.312683	-0.082493
H146	H	0.803767	0.230882	-0.042438
H147	H	0.209728	0.940147	-0.071975
H148	H	1.131907	0.255243	-0.000075
H149	H	0.471237	1.093766	-0.350177
H150	H	1.145128	0.322528	0.323668
O151	O	0.864580	0.466777	0.352094
H152	H	0.833145	0.548580	0.324487
H153	H	0.749441	1.228257	-0.323704
O154	O	1.149074	0.235622	0.471577
H155	H	1.200405	0.216079	0.454387
O156	O	0.999270	0.312657	0.486743
H157	H	1.056441	0.254858	0.530561
H158	H	0.327257	1.093752	-0.071983
O159	O	0.190667	1.238102	-0.082454
H160	H	0.196472	1.199875	-0.110054
H161	H	0.471260	1.093722	0.071997
O162	O	0.794057	0.775413	-0.404308
H163	H	0.850636	0.707521	-0.362208
H164	H	0.677468	1.295550	-0.454483
H165	H	0.605444	1.093769	-0.350184
H166	H	1.145145	0.322486	0.071926
H167	H	0.027575	0.610617	0.071954
H168	H	0.749418	0.457021	0.350138
O169	O	0.205835	1.315130	0.000051
H170	H	0.205883	1.382697	-0.024760
O171	O	0.759899	0.238099	-0.082491
H172	H	0.787494	0.199856	-0.110080
O173	O	0.794061	0.775380	-0.595722
H174	H	0.833085	0.775370	-0.629132
O175	O	-0.135443	0.964174	-0.082484
H176	H	-0.129621	1.027331	-0.110061
H177	H	0.605445	0.093742	0.071988
H178	H	0.605446	0.228280	0.071989
O179	O	0.325369	1.083923	-0.187110
H180	H	0.264365	1.122180	-0.192934
H181	H	0.353667	1.228323	-0.467711
O182	O	0.325369	0.964147	-0.082464
H183	H	0.264367	1.027304	-0.110061
H184	H	0.353736	1.228253	0.072004
O185	O	1.029528	0.466800	0.082460
H186	H	1.090536	0.428540	0.110048
H187	H	0.605459	0.322457	0.071990
O188	O	0.594966	0.466818	0.082467
H189	H	0.567369	0.428584	0.110054
O190	O	0.355621	0.586591	0.082464
H191	H	0.298457	0.601848	0.075806
H192	H	0.471247	0.610588	0.071984
O193	O	0.560804	0.775356	-0.269605
H194	H	0.587795	0.707435	-0.210423
H195	H	0.575623	0.775369	-0.721830
O196	O	0.164187	0.586610	0.082445
H197	H	0.170777	0.543060	0.143427
O198	O	-0.000774	0.964184	-0.082486
H199	H	-0.032251	1.007728	-0.059555
O200	O	0.794066	0.775390	-0.269622
H201	H	0.833087	0.775381	-0.303035
O202	O	0.794066	0.775383	-0.730403
H203	H	0.784648	0.775370	-0.780896
O204	O	0.560794	0.775371	-0.595715
H205	H	0.521772	0.775381	-0.629135
