data_functionalizedCrystal
_audit_creation_method	'MofGen! by Chris Wilmer'
_symmetry_space_group_name_H-M	'P1'
_symmetry_Int_Tables_number	1
_symmetry_cell_setting	triclinic
loop_
_symmetry_equiv_pos_as_xyz
  x,y,z
_cell_length_a	13.262522
_cell_length_b	14.044220
_cell_length_c	11.804365
_cell_angle_alpha	77.070841
_cell_angle_beta	62.659257
_cell_angle_gamma	91.357939
loop_
_atom_site_label
_atom_site_type_symbol
_atom_site_fract_x
_atom_site_fract_y
_atom_site_fract_z
O1	O	1.520632	-0.013849	-0.591493
O2	O	1.195712	-0.047994	-0.486267
O3	O	1.353294	0.106776	-0.537295
O4	O	1.363050	-0.168619	-0.540465
O5	O	1.311804	0.066069	-0.325804
O6	O	1.154222	-0.088701	-0.274777
O7	O	1.479143	-0.054556	-0.380002
Cu8	Cu	1.312894	-0.075345	-0.308079
Cu9	Cu	1.361960	-0.027205	-0.558191
O10	O	1.321561	-0.209326	-0.328975
C11	C	1.133133	-0.070178	-0.366974
C12	C	1.008480	-0.075619	-0.326605
C13	C	0.927308	-0.100367	-0.192349
C14	C	0.810189	-0.105473	-0.154410
C15	C	0.774230	-0.085838	-0.250723
C16	C	0.855402	-0.061095	-0.384982
C17	C	0.972533	-0.055982	-0.422925
C18	C	0.819455	-0.041452	-0.481299
C19	C	0.900627	-0.016710	-0.615558
C20	C	1.017746	-0.011599	-0.653494
C21	C	1.053705	-0.031234	-0.557181
C22	C	0.702323	-0.046566	-0.443356
C23	C	0.747548	-0.002180	-0.673932
C24	C	0.864667	0.002925	-0.711871
C25	C	1.346575	-0.224036	-0.436104
C26	C	1.359312	-0.328514	-0.440233
C27	C	1.382595	-0.519811	-0.447768
C28	C	1.292267	-0.582742	-0.418514
C29	C	1.305222	-0.689186	-0.422707
C30	C	1.369641	-0.413356	-0.443576
C31	C	1.541722	-0.032372	-0.499299
C32	C	1.666376	-0.026929	-0.539676
C33	C	1.328279	0.121487	-0.430168
C34	C	1.315544	0.225966	-0.426048
N35	N	1.278392	-0.109203	-0.132166
N36	N	1.396470	0.006662	-0.734107
C37	C	1.479320	0.087986	0.176719
C38	C	1.505420	0.113604	0.043606
C39	C	1.448665	0.057904	-0.000344
C40	C	1.365807	-0.023418	0.088833
C41	C	1.339711	-0.049043	0.221957
C42	C	1.309056	-0.079124	0.044894
C43	C	1.226198	-0.160446	0.134071
C44	C	1.200106	-0.186066	0.267182
C45	C	1.256861	-0.130367	0.311132
C46	C	1.335151	-0.053499	-0.088230
C47	C	1.195542	-0.190528	-0.042991
C48	C	1.169443	-0.216145	0.090122
H49	H	0.678865	-0.089997	-0.219825
O50	O	1.105298	0.015103	-0.798300
H51	H	1.156216	-0.046271	-0.819962
H52	H	1.525529	0.133325	0.212511
O53	O	1.134320	-0.250599	-0.090390
H54	H	1.150990	-0.328145	-0.071888
H55	H	1.572882	0.179814	-0.028997
H56	H	1.205205	-0.556678	-0.390318
H57	H	1.469648	-0.545875	-0.475956
H58	H	1.149071	-0.027081	-0.588064
H59	H	1.235608	-0.151222	0.419523
H60	H	0.744107	-0.125605	-0.045097
H61	H	0.930774	0.023070	-0.821187
H62	H	0.718272	0.013807	-0.752359
H63	H	1.402614	0.012713	-0.160826
H64	H	1.469918	0.078766	-0.108731
H65	H	1.132648	-0.252289	0.339788
H66	H	1.101978	-0.282360	0.162746
O67	O	0.614617	-0.073549	-0.298610
H68	H	0.563505	-0.012318	-0.276716
O69	O	0.966089	-0.121546	-0.088476
H70	H	1.061169	-0.113839	-0.137418
