data_functionalizedCrystal
_audit_creation_method	'MofGen! by Chris Wilmer'
_symmetry_space_group_name_H-M	'P1'
_symmetry_Int_Tables_number	1
_symmetry_cell_setting	triclinic
loop_
_symmetry_equiv_pos_as_xyz
  x,y,z
_cell_length_a	27.732048
_cell_length_b	27.732048
_cell_length_c	26.809956
_cell_angle_alpha	90.003258
_cell_angle_beta	89.999364
_cell_angle_gamma	97.357345
loop_
_atom_site_label
_atom_site_type_symbol
_atom_site_fract_x
_atom_site_fract_y
_atom_site_fract_z
O1	O	0.057510	-0.640931	-0.041421
O2	O	0.066256	-0.500138	-0.041436
O3	O	-0.008514	-0.574907	-0.041419
O4	O	0.132280	-0.566162	-0.041439
O5	O	-0.008502	-0.574893	0.041541
O6	O	0.066267	-0.500123	0.041523
O7	O	0.057522	-0.640917	0.041539
Zn8	Zn	0.061896	-0.570518	0.054702
Zn9	Zn	0.061881	-0.570536	-0.054600
O10	O	0.132291	-0.566147	0.041521
C11	C	-0.026515	-0.574716	0.000062
C12	C	-0.080170	-0.574164	0.000066
C13	C	0.066078	-0.482124	0.000041
C14	C	0.065525	-0.428469	0.000036
C15	C	-0.418985	-0.614867	0.000045
C16	C	-0.620645	-0.612816	0.000038
O17	O	-0.651900	-0.650037	0.000021
N18	N	-0.639768	-0.568481	0.000034
C19	C	-0.608474	-0.524656	0.000028
O20	O	-0.629367	-0.486899	0.000019
C21	C	-0.406815	-0.526707	0.000031
C22	C	-0.387694	-0.571045	0.000041
C23	C	-0.399864	-0.659202	0.000054
C24	C	-0.349452	-0.659714	0.000059
C25	C	-0.318161	-0.615892	0.000054
C26	C	-0.337282	-0.571557	0.000045
C27	C	-0.375521	-0.482882	0.000022
C28	C	-0.325104	-0.483399	0.000021
C29	C	-0.305983	-0.527737	0.000031
C30	C	-0.255580	-0.528247	0.000045
N31	N	-0.236456	-0.572583	0.000050
C32	C	-0.267747	-0.616405	0.000054
C33	C	-0.714348	-0.523582	0.000027
C34	C	-0.764762	-0.523069	0.000027
C35	C	-0.776930	-0.611230	0.000036
C36	C	-0.726514	-0.611742	0.000040
C37	C	-0.695224	-0.567917	0.000031
C38	C	-0.161878	-0.617477	0.000064
C39	C	-0.111461	-0.617986	0.000071
C40	C	-0.099298	-0.529825	0.000059
C41	C	-0.149710	-0.529316	0.000055
C42	C	-0.180999	-0.573147	0.000056
O43	O	-0.224296	-0.491047	0.000057
O44	O	-0.246844	-0.654156	0.000053
C45	C	-0.469397	-0.614355	0.000041
C46	C	-0.488518	-0.570021	0.000032
C47	C	-0.457228	-0.526198	0.000027
C48	C	-0.538933	-0.569508	0.000032
C49	C	-0.570223	-0.613330	0.000036
C50	C	-0.551100	-0.657665	0.000041
C51	C	-0.500688	-0.658177	0.000045
C52	C	-0.476351	-0.481863	0.000023
C53	C	-0.526764	-0.481355	0.000019
C54	C	-0.558054	-0.525177	0.000023
C55	C	0.057699	-0.658931	0.000060
C56	C	0.058252	-0.712586	0.000062
C57	C	0.150292	-0.566338	0.000039
C58	C	0.203947	-0.566891	0.000031
N59	N	0.061906	-0.570509	0.129298
C60	C	0.106229	-0.089654	0.000051
C61	C	0.104178	0.112006	0.000056
O62	O	0.141398	0.143262	0.000073
N63	N	0.059843	0.131130	0.000062
C64	C	0.016017	0.099835	0.000069
O65	O	-0.021740	0.120728	0.000079
C66	C	0.018068	-0.101824	0.000068
C67	C	0.062407	-0.120944	0.000057
C68	C	0.150563	-0.108775	0.000042
C69	C	0.151076	-0.159187	0.000038
C70	C	0.107253	-0.190477	0.000044
C71	C	0.062919	-0.171356	0.000054
C72	C	-0.025757	-0.133117	0.000079
C73	C	-0.025240	-0.183535	0.000080
C74	C	0.019098	-0.202655	0.000069
C75	C	0.019609	-0.253059	0.000056
N76	N	0.063944	-0.272183	0.000050
C77	C	0.107766	-0.240892	0.000044
C78	C	0.014943	0.205709	0.000069
C79	C	0.014430	0.256124	0.000068
C80	C	0.102591	0.268291	0.000056
C81	C	0.103104	0.217876	0.000053
C82	C	0.059278	0.186585	0.000063
C83	C	0.108839	-0.346761	0.000036
C84	C	0.109347	-0.397178	0.000030
C85	C	0.021186	-0.409341	0.000044
C86	C	0.020678	-0.358929	0.000048
C87	C	0.064508	-0.327639	0.000045
O88	O	-0.017592	-0.284343	0.000045
O89	O	0.145518	-0.261794	0.000045
C90	C	0.105716	-0.039242	0.000055
C91	C	0.061382	-0.020120	0.000065
C92	C	0.017560	-0.051411	0.000071
C93	C	0.060869	0.030294	0.000065
C94	C	0.104691	0.061585	0.000059
C95	C	0.149026	0.042461	0.000053
C96	C	0.149539	-0.007951	0.000049
C97	C	-0.026775	-0.032287	0.000077
C98	C	-0.027284	0.018125	0.000080
C99	C	0.016538	0.049416	0.000074
N100	N	0.061867	-0.570549	-0.129196
C101	C	0.028781	-0.603640	0.473932
C102	C	0.028774	-0.603652	0.682810
O103	O	0.000613	-0.631801	0.709820
N104	N	0.061870	-0.570539	0.708925
C105	C	0.094969	-0.537419	0.682818
O106	O	0.123116	-0.509252	0.709824
C107	C	0.094974	-0.537406	0.473941
C108	C	0.061878	-0.570524	0.447829
C109	C	-0.004312	-0.636755	0.447819
C110	C	-0.004308	-0.636754	0.395603
C111	C	0.028789	-0.603637	0.369500
C112	C	0.061882	-0.570522	0.395612
C113	C	0.128070	-0.504284	0.447835
C114	C	0.128067	-0.504283	0.395613
C115	C	0.094972	-0.537401	0.369500
C116	C	0.094983	-0.537405	0.317293
N117	N	0.061887	-0.570517	0.291177
C118	C	0.028790	-0.603633	0.317281
C119	C	0.094965	-0.537429	0.792481
C120	C	0.094964	-0.537433	0.844700
C121	C	0.028768	-0.603665	0.844689
C122	C	0.028772	-0.603663	0.792469
C123	C	0.061868	-0.570542	0.766366
C124	C	0.028801	-0.603628	0.207623
C125	C	0.028809	-0.603625	0.155402
C126	C	0.095003	-0.537392	0.155418
C127	C	0.094997	-0.537396	0.207635
C128	C	0.061892	-0.570516	0.233735
O129	O	0.123126	-0.509266	0.290250
O130	O	0.000640	-0.631789	0.290266
C131	C	0.028777	-0.603642	0.526149
C132	C	0.061870	-0.570527	0.552261
C133	C	0.094968	-0.537410	0.526158
C134	C	0.061870	-0.570531	0.604480
C135	C	0.028773	-0.603647	0.630584
C136	C	-0.004324	-0.636759	0.604468
C137	C	-0.004320	-0.636758	0.552252
C138	C	0.128064	-0.504298	0.552273
C139	C	0.128058	-0.504303	0.604489
C140	C	0.094961	-0.537419	0.630593
H141	H	-0.095896	-0.654093	0.000080
H142	H	-0.542327	-0.445246	0.000015
Br143	Br	0.168323	-0.304305	0.000033
Br144	Br	0.139886	-0.492476	0.757062
H145	H	-0.031266	-0.663722	0.469068
H146	H	-0.165279	-0.493213	0.000061
Br147	Br	-0.038284	-0.451816	0.000053
Br148	Br	-0.016145	-0.648610	0.757036
Br149	Br	-0.039496	-0.332978	0.000063
H150	H	0.139207	0.202311	0.000047
H151	H	-0.780325	-0.486964	0.000028
H152	H	-0.187348	-0.653168	0.000063
Br153	Br	0.162064	0.310766	0.000049
Br154	Br	0.209715	-0.033892	0.000034
Br155	Br	-0.087463	0.044068	0.000086
H156	H	-0.688875	-0.487892	0.000020
Br157	Br	-0.016107	-0.648575	0.119966
H158	H	0.121919	-0.510471	0.865958
H159	H	0.155015	-0.477330	0.531024
Br160	Br	-0.086255	-0.074746	0.000087
Br161	Br	-0.045745	0.282067	0.000067
H162	H	-0.391080	-0.446777	0.000011
Br163	Br	-0.474746	-0.718354	0.000055
Br164	Br	-0.433892	-0.422384	0.000014
H165	H	-0.020747	0.180236	0.000077
H166	H	0.145454	-0.412743	0.000021
Br167	Br	0.208499	0.084937	0.000041
Br168	Br	-0.323510	-0.719890	0.000058
H169	H	0.001820	-0.630630	0.865951
Br170	Br	-0.593575	-0.717137	0.000051
Br171	Br	0.139920	-0.492451	0.119984
Br172	Br	-0.084721	-0.225997	0.000096
H173	H	0.155019	-0.477317	0.469089
H174	H	-0.031269	-0.663725	0.530995
H175	H	0.001843	-0.630597	0.228868
H176	H	-0.031271	-0.663726	0.625730
H177	H	0.155018	-0.477310	0.374362
Br178	Br	-0.049227	-0.681698	0.360170
Br179	Br	0.211252	-0.185128	0.000026
Br180	Br	0.139920	-0.492456	0.243072
H181	H	0.155012	-0.477335	0.625747
H182	H	-0.061861	-0.117558	0.000088
Br183	Br	-0.282641	-0.423918	0.000007
H184	H	-0.425336	-0.694889	0.000056
H185	H	-0.710950	-0.647846	0.000047
H186	H	-0.073812	-0.494146	0.000057
H187	H	-0.802415	-0.646911	0.000040
H188	H	0.186251	-0.083302	0.000038
