data_functionalizedCrystal
_audit_creation_method	'MofGen! by Chris Wilmer'
_symmetry_space_group_name_H-M	'P1'
_symmetry_Int_Tables_number	1
_symmetry_cell_setting	triclinic
loop_
_symmetry_equiv_pos_as_xyz
  x,y,z
_cell_length_a	14.519709
_cell_length_b	14.853567
_cell_length_c	13.330367
_cell_angle_alpha	89.999156
_cell_angle_beta	89.998062
_cell_angle_gamma	83.657537
loop_
_atom_site_label
_atom_site_type_symbol
_atom_site_fract_x
_atom_site_fract_y
_atom_site_fract_z
O1	O	1.223824	0.118179	-0.083284
O2	O	0.955341	0.132096	-0.083314
O3	O	1.096754	-0.006090	-0.083301
O4	O	1.082411	0.256364	-0.083297
O5	O	1.096733	-0.006093	0.083546
O6	O	0.955321	0.132093	0.083533
O7	O	1.223803	0.118175	0.083563
Cu8	Cu	1.089560	0.125134	0.098783
Cu9	Cu	1.089584	0.125137	-0.098533
O10	O	1.082390	0.256361	0.083550
C11	C	1.096094	-0.039680	0.000119
C12	C	1.094146	-0.139765	0.000110
C13	C	0.920971	0.131446	0.000106
C14	C	0.818591	0.129502	0.000094
C15	C	1.001911	-0.552334	0.000119
C16	C	1.169913	-0.573550	0.000138
C17	C	1.171744	-0.479516	0.000132
C18	C	1.088658	-0.421886	0.000122
C19	C	1.003740	-0.458291	0.000117
C20	C	1.256661	-0.443104	0.000147
C21	C	1.258495	-0.349064	0.000143
C22	C	1.175408	-0.291433	0.000125
C23	C	1.090486	-0.327843	0.000119
C24	C	1.007400	-0.270213	0.000108
C25	C	0.922478	-0.306621	0.000095
C26	C	0.920653	-0.400660	0.000099
C27	C	1.177233	-0.197394	0.000121
C28	C	1.009229	-0.176170	0.000106
C29	C	0.443698	0.122347	0.000140
C30	C	0.548005	0.124334	0.000127
C31	C	0.631141	0.125924	0.000116
C32	C	0.735455	0.127912	0.000105
C33	C	1.258173	0.118826	0.000141
C34	C	1.360553	0.120769	0.000146
C35	C	1.083050	0.289952	0.000128
C36	C	1.084998	0.390036	0.000130
N37	N	1.089550	0.125131	0.237564
N38	N	1.089602	0.125133	-0.237315
C39	C	1.026964	0.186302	0.710181
C40	C	1.152229	0.063966	0.710161
C41	C	1.152219	0.063963	0.605142
C42	C	1.089581	0.125132	0.552639
C43	C	1.026953	0.186303	0.605153
C44	C	1.214852	0.002799	0.552620
C45	C	1.214844	0.002795	0.447595
C46	C	1.152201	0.063959	0.395089
C47	C	1.089571	0.125132	0.447611
C48	C	1.026933	0.186301	0.395107
C49	C	0.964297	0.247470	0.447626
C50	C	0.964310	0.247468	0.552648
C51	C	1.152188	0.063962	0.290068
C52	C	1.026922	0.186302	0.290079
H53	H	0.941568	-0.129253	0.000093
O54	O	0.903418	0.306976	0.396775
C55	C	0.779130	0.428281	0.407853
C56	C	0.848035	0.360956	0.465571
H57	H	0.734322	0.471927	0.463450
H58	H	0.818953	0.473468	0.358711
H59	H	0.733059	0.389236	0.358658
H60	H	0.894124	0.399926	0.514821
H61	H	0.808155	0.315768	0.514650
H62	H	0.913315	0.297270	0.595416
O63	O	1.250644	-0.629488	0.000325
C64	C	1.393697	-0.676355	0.086742
C65	C	1.302289	-0.612965	0.086669
H66	H	1.435486	-0.663004	0.156532
H67	H	1.377860	-0.749838	0.086810
H68	H	1.435445	-0.663106	0.016885
H69	H	1.260495	-0.626132	0.156514
H70	H	1.318190	-0.539502	0.086549
O71	O	1.337424	-0.498994	0.000023
C72	C	1.480438	-0.545956	-0.086431
C73	C	1.389016	-0.482587	-0.086400
H74	H	1.522167	-0.532727	-0.156307
H75	H	1.522279	-0.532698	-0.016647
H76	H	1.464513	-0.619412	-0.086388
H77	H	1.404857	-0.409109	-0.086478
H78	H	1.347202	-0.495924	-0.156178
O79	O	0.919364	-0.587588	0.000239
C80	C	0.775220	-0.598261	0.086685
C81	C	0.868663	-0.558261	0.086664
H82	H	0.734210	-0.574582	0.156562
H83	H	0.734105	-0.574509	0.016902
H84	H	0.788200	-0.675371	0.086635
H85	H	0.855768	-0.481150	0.086749
H86	H	0.909749	-0.582084	0.156441
O87	O	1.340927	-0.313596	0.000012
C88	C	1.440529	-0.219797	-0.086467
C89	C	1.347134	-0.259888	-0.086426
H90	H	1.445586	-0.176381	-0.156354
H91	H	1.445597	-0.176235	-0.016694
H92	H	1.499580	-0.277157	-0.086409
H93	H	1.288029	-0.202586	-0.086518
H94	H	1.342146	-0.303473	-0.156192
H95	H	1.265845	-0.047013	0.404840
H96	H	1.246375	-0.167755	0.000138
O97	O	1.213196	0.004632	0.761107
C98	C	1.373477	-0.047913	0.793164
C99	C	1.304536	0.019358	0.735421
H100	H	1.447340	-0.036043	0.772402
H101	H	1.362812	-0.037414	0.877260
H102	H	1.361307	-0.120136	0.772523
H103	H	1.316664	0.091607	0.755977
H104	H	1.315218	0.008780	0.651338
O105	O	0.965994	0.245628	0.761149
C106	C	0.805709	0.298132	0.793250
C107	C	0.874656	0.230883	0.735484
H108	H	0.731848	0.286247	0.772506
H109	H	0.816390	0.287624	0.877343
H110	H	0.817858	0.370362	0.772614
H111	H	0.862549	0.158626	0.756036
H112	H	0.863958	0.241469	0.651405
H113	H	0.975911	0.236110	0.247337
O114	O	1.275643	-0.056745	0.603518
C115	C	1.329416	-0.213396	0.635712
C116	C	1.260541	-0.146054	0.577978
H117	H	1.317218	-0.285617	0.615101
H118	H	1.403320	-0.201576	0.615055
H119	H	1.318659	-0.202840	0.719787
H120	H	1.271214	-0.156570	0.493890
H121	H	1.186663	-0.157891	0.598719
O122	O	1.213059	0.004464	0.239206
C123	C	1.337356	-0.116832	0.250275
C124	C	1.268451	-0.049509	0.307998
H125	H	1.382171	-0.160474	0.305867
H126	H	1.297532	-0.162025	0.201143
H127	H	1.383420	-0.077786	0.201068
H128	H	1.222369	-0.088481	0.357259
H129	H	1.308332	-0.004317	0.357066
H130	H	0.851513	-0.430312	0.000089
O131	O	0.841855	-0.250508	0.000042
C132	C	0.770234	-0.096225	0.000102
C133	C	0.861603	-0.159674	0.000138
H134	H	0.786168	-0.022773	0.000201
H135	H	0.728447	-0.109405	-0.069746
H136	H	0.728437	-0.109535	0.069904
H137	H	0.903473	-0.146401	-0.069617
H138	H	0.903319	-0.146481	0.070033
