data_functionalizedCrystal
_audit_creation_method	'MofGen! by Chris Wilmer'
_symmetry_space_group_name_H-M	'P1'
_symmetry_Int_Tables_number	1
_symmetry_cell_setting	triclinic
loop_
_symmetry_equiv_pos_as_xyz
  x,y,z
_cell_length_a	6.817900
_cell_length_b	11.452831
_cell_length_c	11.452834
_cell_angle_alpha	69.701345
_cell_angle_beta	108.697278
_cell_angle_gamma	108.696887
loop_
_atom_site_label
_atom_site_type_symbol
_atom_site_fract_x
_atom_site_fract_y
_atom_site_fract_z
V1	V	-4.058376	-0.092199	-0.361062
V2	V	-3.558376	0.407801	0.138938
O3	O	-4.035231	0.091586	-0.392859
O4	O	-3.535231	0.591586	0.107141
O5	O	-4.019348	-0.266638	-0.321402
O6	O	-3.519348	0.233362	0.178598
O7	O	-4.019351	-0.052538	-0.535502
O8	O	-3.519351	0.447462	-0.035502
O9	O	-4.035229	-0.123996	-0.177277
O10	O	-3.535229	0.376004	0.322723
V11	V	-4.539575	-0.074735	-0.343598
V12	V	-4.039575	0.425265	0.156402
O13	O	-4.324733	-0.130508	-0.399372
O14	O	-3.824733	0.369492	0.100628
O15	O	-4.723415	-0.036426	-0.305289
O16	O	-4.223415	0.463574	0.194711
O17	O	-4.355396	0.099704	-0.383259
O18	O	-3.855396	0.599704	0.116741
O19	O	-4.680116	-0.258520	-0.311801
O20	O	-4.180116	0.241480	0.188199
O21	O	-4.680119	-0.042938	-0.527384
O22	O	-4.180119	0.457062	-0.027384
O23	O	-4.355393	-0.114395	-0.169159
O24	O	-3.855393	0.385605	0.330841
C25	C	-3.866326	-0.310358	-0.306109
C26	C	-3.366326	0.189642	0.193891
C27	C	-3.915766	-0.452718	-0.274844
C28	C	-3.415766	0.047282	0.225156
C29	C	-4.034213	-0.657037	-0.336178
C30	C	-3.534213	-0.157037	0.163822
C31	C	-3.983116	-0.509900	-0.368499
C32	C	-3.483116	-0.009900	0.131501
C33	C	-3.866328	-0.037250	-0.579214
C34	C	-3.366328	0.462750	-0.079214
C35	C	-3.915766	-0.005978	-0.721575
C36	C	-3.415766	0.494022	-0.221575
C37	C	-3.983111	-0.099619	-0.778760
C38	C	-3.483111	0.400381	-0.278760
C39	C	-4.034209	-0.067300	-0.925897
C40	C	-3.534209	0.432700	-0.425897
C41	C	-4.171760	0.143416	-0.398546
C42	C	-3.671760	0.643416	0.101454
C43	C	-4.101559	0.285777	-0.429819
C44	C	-3.601559	0.785777	0.070181
C45	C	-4.171758	-0.129689	-0.125439
C46	C	-3.671758	0.370311	0.374561
C47	C	-4.101558	-0.160955	0.016922
C48	C	-3.601558	0.339045	0.516922
H49	H	-4.121378	-0.654252	-0.533916
H50	H	-3.621378	-0.154252	-0.033916
C51	C	-4.009856	-0.428899	-0.509134
C52	C	-3.509856	0.071101	-0.009134
H53	H	-3.971993	-0.340633	-0.512408
H54	H	-3.471993	0.159367	-0.012408
H55	H	-3.920071	-0.444760	-0.547654
H56	H	-3.420071	0.055240	-0.047654
H57	H	-4.154008	-0.451322	-0.554095
H58	H	-3.654008	0.048678	-0.054095
C59	C	-4.009896	-0.240248	-0.697755
C60	C	-3.509896	0.259752	-0.197755
H61	H	-3.972023	-0.243521	-0.609488
H62	H	-3.472023	0.256479	-0.109488
H63	H	-4.154043	-0.285192	-0.720194
H64	H	-3.654043	0.214808	-0.220194
H65	H	-3.920106	-0.278786	-0.713598
H66	H	-3.420106	0.221214	-0.213598
H67	H	-3.895914	-0.512682	-0.170739
H68	H	-3.395914	-0.012682	0.329261
H69	H	-4.014389	0.036804	-0.985865
H70	H	-3.514389	0.536804	-0.485865
C71	C	-4.128356	-0.301592	-0.902081
C72	C	-3.628356	0.198408	-0.402081
H73	H	-4.090485	-0.304868	-0.813813
H74	H	-3.590485	0.195132	-0.313813
H75	H	-4.272503	-0.346532	-0.924522
H76	H	-3.772503	0.153468	-0.424522
H77	H	-4.038568	-0.340131	-0.917924
H78	H	-3.538568	0.159869	-0.417924
C79	C	-3.888971	0.134651	-0.802579
C80	C	-3.388971	0.634651	-0.302579
H81	H	-3.926815	0.137925	-0.890845
H82	H	-3.426815	0.637925	-0.390845
H83	H	-3.978732	0.173200	-0.786736
H84	H	-3.478732	0.673200	-0.286736
H85	H	-3.744805	0.179585	-0.780140
H86	H	-3.244805	0.679585	-0.280140
H87	H	-4.014375	-0.717007	-0.232080
H88	H	-3.514375	-0.217007	0.267920
