data_functionalizedCrystal
_audit_creation_method	'MofGen! by Chris Wilmer'
_symmetry_space_group_name_H-M	'P1'
_symmetry_Int_Tables_number	1
_symmetry_cell_setting	triclinic
loop_
_symmetry_equiv_pos_as_xyz
  x,y,z
_cell_length_a	18.101398
_cell_length_b	25.639240
_cell_length_c	18.101390
_cell_angle_alpha	89.957963
_cell_angle_beta	89.987205
_cell_angle_gamma	90.030910
loop_
_atom_site_label
_atom_site_type_symbol
_atom_site_fract_x
_atom_site_fract_y
_atom_site_fract_z
Zn1	Zn	1.132101	-0.208157	-0.418594
Zn2	Zn	1.382101	0.041843	-0.168594
Zn3	Zn	1.632101	0.291843	0.081406
Zn4	Zn	1.882101	0.541843	0.331406
Zn5	Zn	1.131997	-0.295600	-0.294733
Zn6	Zn	1.381997	-0.045600	-0.044733
Zn7	Zn	1.631997	0.204400	0.205267
Zn8	Zn	1.881997	0.454400	0.455267
Zn9	Zn	1.008263	-0.208178	-0.294777
Zn10	Zn	1.258263	0.041822	-0.044777
Zn11	Zn	1.508263	0.291822	0.205223
Zn12	Zn	1.758263	0.541822	0.455223
Zn13	Zn	1.008207	-0.295561	-0.418543
Zn14	Zn	1.258207	-0.045561	-0.168543
Zn15	Zn	1.508207	0.204439	0.081457
Zn16	Zn	1.758207	0.454439	0.331457
O17	O	1.070142	-0.251874	-0.356662
O18	O	1.320142	-0.001874	-0.106662
O19	O	1.570142	0.248126	0.143338
O20	O	1.820142	0.498126	0.393338
O21	O	1.235720	-0.219765	-0.402167
O22	O	1.485720	0.030235	-0.152167
O23	O	1.735720	0.280235	0.097833
O24	O	1.985720	0.530235	0.347833
O25	O	1.115563	-0.284029	-0.191106
O26	O	1.365563	-0.034029	0.058894
O27	O	1.615563	0.215971	0.308894
O28	O	1.865563	0.465971	0.558894
O29	O	1.024758	-0.135010	-0.311241
O30	O	1.274758	0.114990	-0.061241
O31	O	1.524758	0.364990	0.188759
O32	O	1.774758	0.614990	0.438759
O33	O	1.235643	-0.284009	-0.311166
O34	O	1.485643	-0.034009	-0.061166
O35	O	1.735643	0.215991	0.188834
O36	O	1.985643	0.465991	0.438834
O37	O	1.115741	-0.134995	-0.402209
O38	O	1.365741	0.115005	-0.152209
O39	O	1.615741	0.365005	0.097791
O40	O	1.865741	0.615005	0.347791
O41	O	1.024657	-0.219800	-0.191138
O42	O	1.274657	0.030200	0.058862
O43	O	1.524657	0.280200	0.308862
O44	O	1.774657	0.530200	0.558862
O45	O	0.904623	-0.219762	-0.311192
O46	O	1.154623	0.030238	-0.061192
O47	O	1.404623	0.280238	0.188808
O48	O	1.654623	0.530238	0.438808
O49	O	1.024662	-0.283941	-0.522183
O50	O	1.274662	-0.033941	-0.272183
O51	O	1.524662	0.216059	-0.022183
O52	O	1.774662	0.466059	0.227817
O53	O	0.904582	-0.283961	-0.402122
O54	O	1.154582	-0.033961	-0.152122
O55	O	1.404582	0.216039	0.097878
O56	O	1.654582	0.466039	0.347878
O57	O	1.115687	-0.219726	-0.522220
O58	O	1.365687	0.030274	-0.272220
O59	O	1.615687	0.280274	-0.022220
O60	O	1.865687	0.530274	0.227780
O61	O	1.115509	-0.368760	-0.311116
O62	O	1.365509	-0.118760	-0.061116
O63	O	1.615509	0.131240	0.188884
O64	O	1.865509	0.381240	0.438884
O65	O	1.024561	-0.368731	-0.402079
O66	O	1.274561	-0.118731	-0.152079
O67	O	1.524561	0.131269	0.097921
O68	O	1.774561	0.381269	0.347921
C69	C	0.877732	-0.251860	-0.356657
C70	C	1.127732	-0.001860	-0.106657
C71	C	1.377732	0.248140	0.143343
C72	C	1.627732	0.498140	0.393343
C73	C	0.795418	-0.251866	-0.356672
C74	C	1.045418	-0.001866	-0.106672
C75	C	1.295418	0.248134	0.143328
C76	C	1.545418	0.498134	0.393328
C77	C	1.070037	-0.387717	-0.356604
C78	C	1.320037	-0.137717	-0.106604
C79	C	1.570037	0.112283	0.143396
C80	C	1.820037	0.362283	0.393396
C81	C	1.070060	-0.445831	-0.356604
C82	C	1.320060	-0.195831	-0.106604
C83	C	1.570060	0.054169	0.143396
C84	C	1.820060	0.304169	0.393396
C85	C	0.644709	-0.251876	-0.356671
C86	C	0.894709	-0.001876	-0.106671
C87	C	1.144709	0.248124	0.143329
C88	C	1.394709	0.498124	0.393329
C89	C	0.613354	-0.292331	-0.413793
C90	C	0.863354	-0.042331	-0.163793
C91	C	1.113354	0.207669	0.086207
C92	C	1.363354	0.457669	0.336207
C93	C	0.527736	-0.292494	-0.413624
C94	C	0.777736	-0.042494	-0.163624
C95	C	1.027736	0.207506	0.086376
C96	C	1.277736	0.457506	0.336376
C97	C	0.496327	-0.251885	-0.356671
C98	C	0.746327	-0.001885	-0.106671
C99	C	0.996327	0.248115	0.143329
C100	C	1.246327	0.498115	0.393329
C101	C	0.527381	-0.266593	-0.278526
C102	C	0.777381	-0.016593	-0.028526
C103	C	1.027381	0.233407	0.221474
C104	C	1.277381	0.483407	0.471474
C105	C	0.613026	-0.266882	-0.278856
C106	C	0.863026	-0.016882	-0.028856
C107	C	1.113026	0.233118	0.221144
C108	C	1.363026	0.483118	0.471144
C109	C	0.613190	-0.196613	-0.377011
C110	C	0.863190	0.053387	-0.127011
C111	C	1.113190	0.303387	0.122989
C112	C	1.363190	0.553387	0.372989
C113	C	0.527539	-0.196915	-0.378732
C114	C	0.777539	0.053085	-0.128732
C115	C	1.027539	0.303085	0.121268
C116	C	1.277539	0.553085	0.371268
C117	C	0.412467	-0.251890	-0.356666
C118	C	0.662467	-0.001890	-0.106666
C119	C	0.912467	0.248110	0.143334
C120	C	1.162467	0.498110	0.393334
C121	C	0.728569	-0.251873	-0.356670
C122	C	0.978569	-0.001873	-0.106670
C123	C	1.228569	0.248127	0.143330
C124	C	1.478569	0.498127	0.393330
C125	C	1.117541	-0.806147	-0.404114
C126	C	1.367541	-0.556147	-0.154114
C127	C	1.617541	-0.306147	0.095886
C128	C	1.867541	-0.056147	0.345886
C129	C	1.117562	-0.860751	-0.404129
C130	C	1.367562	-0.610751	-0.154129
C131	C	1.617562	-0.360751	0.095871
C132	C	1.867562	-0.110751	0.345871
O133	O	1.157807	-0.888949	-0.444465
O134	O	1.407807	-0.638949	-0.194465
O135	O	1.657807	-0.388949	0.055535
O136	O	1.907807	-0.138949	0.305535
N137	N	1.070245	-0.888113	-0.356733
N138	N	1.320245	-0.638113	-0.106733
N139	N	1.570245	-0.388113	0.143267
N140	N	1.820245	-0.138113	0.393267
C141	C	1.022897	-0.860868	-0.309324
C142	C	1.272897	-0.610868	-0.059324
C143	C	1.522897	-0.360868	0.190676
C144	C	1.772897	-0.110868	0.440676
O145	O	0.982651	-0.889155	-0.269012
O146	O	1.232651	-0.639155	-0.019012
O147	O	1.482651	-0.389155	0.230988
O148	O	1.732651	-0.139155	0.480988
C149	C	1.022872	-0.806264	-0.309314
C150	C	1.272872	-0.556264	-0.059314
C151	C	1.522872	-0.306264	0.190686
C152	C	1.772872	-0.056264	0.440686
C153	C	1.070198	-0.778905	-0.356707
C154	C	1.320198	-0.528905	-0.106707
C155	C	1.570198	-0.278905	0.143293
C156	C	1.820198	-0.028905	0.393293
C157	C	1.164862	-0.778788	-0.451505
C158	C	1.414862	-0.528788	-0.201505
C159	C	1.664862	-0.278788	0.048495
C160	C	1.914862	-0.028788	0.298495
C161	C	1.164841	-0.724188	-0.451488
C162	C	1.414841	-0.474188	-0.201488
C163	C	1.664841	-0.224188	0.048512
C164	C	1.914841	0.025812	0.298512
C165	C	1.117498	-0.696946	-0.404082
C166	C	1.367498	-0.446946	-0.154082
C167	C	1.617498	-0.196946	0.095918
C168	C	1.867498	0.053054	0.345918
C169	C	1.070177	-0.724305	-0.356691
C170	C	1.320177	-0.474305	-0.106691
C171	C	1.570177	-0.224305	0.143309
C172	C	1.820177	0.025695	0.393309
C173	C	0.975521	-0.779020	-0.261909
C174	C	1.225521	-0.529020	-0.011909
C175	C	1.475521	-0.279020	0.238091
C176	C	1.725521	-0.029020	0.488091
C177	C	0.975500	-0.724413	-0.261903
C178	C	1.225500	-0.474413	-0.011903
C179	C	1.475500	-0.224413	0.238097
C180	C	1.725500	0.025587	0.488097
C181	C	1.022826	-0.697054	-0.309297
C182	C	1.272826	-0.447054	-0.059297
C183	C	1.522826	-0.197054	0.190703
C184	C	1.772826	0.052946	0.440703
C185	C	1.022813	-0.642463	-0.309268
C186	C	1.272813	-0.392463	-0.059268
C187	C	1.522813	-0.142463	0.190732
C188	C	1.772813	0.107537	0.440732
N189	N	1.070131	-0.615101	-0.356664
N190	N	1.320131	-0.365101	-0.106664
N191	N	1.570131	-0.115101	0.143336
N192	N	1.820131	0.134899	0.393336
C193	C	1.117473	-0.642343	-0.404071
C194	C	1.367473	-0.392343	-0.154071
C195	C	1.617473	-0.142343	0.095929
C196	C	1.867473	0.107657	0.345929
C197	C	1.022952	-0.975538	-0.309352
C198	C	1.272952	-0.725538	-0.059352
C199	C	1.522952	-0.475538	0.190648
C200	C	1.772952	-0.225538	0.440648
C201	C	1.022981	-1.030140	-0.309358
C202	C	1.272981	-0.780140	-0.059358
C203	C	1.522981	-0.530140	0.190642
C204	C	1.772981	-0.280140	0.440642
C205	C	1.117645	-1.030021	-0.404164
C206	C	1.367645	-0.780021	-0.154164
C207	C	1.617645	-0.530021	0.095836
C208	C	1.867645	-0.280021	0.345836
C209	C	1.117620	-0.975417	-0.404153
C210	C	1.367620	-0.725417	-0.154153
C211	C	1.617620	-0.475417	0.095847
C212	C	1.867620	-0.225417	0.345847
C213	C	1.070270	-0.948177	-0.356747
C214	C	1.320270	-0.698177	-0.106747
C215	C	1.570270	-0.448177	0.143253
C216	C	1.820270	-0.198177	0.393253
C217	C	1.117426	-0.527678	-0.404033
C218	C	1.367426	-0.277678	-0.154033
C219	C	1.617426	-0.027678	0.095967
C220	C	1.867426	0.222322	0.345967
C221	C	1.117403	-0.473072	-0.404010
C222	C	1.367403	-0.223072	-0.154010
C223	C	1.617403	0.026928	0.095990
C224	C	1.867403	0.276928	0.345990
C225	C	1.022736	-0.473197	-0.309207
C226	C	1.272736	-0.223197	-0.059207
C227	C	1.522736	0.026803	0.190793
C228	C	1.772736	0.276803	0.440793
C229	C	1.022762	-0.527798	-0.309227
C230	C	1.272762	-0.277798	-0.059227
C231	C	1.522762	-0.027798	0.190773
C232	C	1.772762	0.222202	0.440773
C233	C	1.070109	-0.555037	-0.356646
C234	C	1.320109	-0.305037	-0.106646
C235	C	1.570109	-0.055037	0.143354
C236	C	1.820109	0.194963	0.393354
O237	O	0.982587	-0.614231	-0.268955
O238	O	1.232587	-0.364231	-0.018955
O239	O	1.482587	-0.114231	0.231045
O240	O	1.732587	0.135769	0.481045
O241	O	1.157705	-0.614049	-0.444383
O242	O	1.407705	-0.364049	-0.194383
O243	O	1.657705	-0.114049	0.055617
O244	O	1.907705	0.135951	0.305617
C245	C	1.263304	-0.251889	-0.356667
C246	C	1.513304	-0.001889	-0.106667
C247	C	1.763304	0.248111	0.143333
C248	C	2.013304	0.498111	0.393333
C249	C	1.345618	-0.251895	-0.356670
C250	C	1.595618	-0.001895	-0.106670
C251	C	1.845618	0.248105	0.143330
C252	C	2.095618	0.498105	0.393330
C253	C	1.070180	-0.251827	-0.549824
C254	C	1.320180	-0.001827	-0.299824
C255	C	1.570180	0.248173	-0.049824
C256	C	1.820180	0.498173	0.200176
C257	C	1.070196	-0.251806	-0.632138
C258	C	1.320196	-0.001806	-0.382138
C259	C	1.570196	0.248194	-0.132138
C260	C	1.820196	0.498194	0.117862
C261	C	1.070267	-0.115501	-0.356736
C262	C	1.320267	0.134499	-0.106736
C263	C	1.570267	0.384499	0.143264
C264	C	1.820267	0.634499	0.393264
C265	C	1.070321	-0.057387	-0.356768
C266	C	1.320321	0.192613	-0.106768
C267	C	1.570321	0.442613	0.143232
C268	C	1.820321	0.692613	0.393232
C269	C	1.070222	-0.251790	-0.782846
C270	C	1.320222	-0.001790	-0.532846
C271	C	1.570222	0.248210	-0.282846
C272	C	1.820222	0.498210	-0.032846
C273	C	1.127494	-0.211384	-0.814224
C274	C	1.377494	0.038616	-0.564224
C275	C	1.627494	0.288616	-0.314224
C276	C	1.877494	0.538616	-0.064224
C277	C	1.127734	-0.211493	-0.899842
C278	C	1.377734	0.038507	-0.649842
C279	C	1.627734	0.288507	-0.399842
C280	C	1.877734	0.538507	-0.149842
C281	C	1.070248	-0.251773	-0.931229
C282	C	1.320248	-0.001773	-0.681229
C283	C	1.570248	0.248227	-0.431229
C284	C	1.820248	0.498227	-0.181229
C285	C	1.091122	-0.306920	-0.900104
C286	C	1.341122	-0.056920	-0.650104
C287	C	1.591122	0.193080	-0.400104
C288	C	1.841122	0.443080	-0.150104
C289	C	1.091522	-0.306696	-0.814459
C290	C	1.341522	-0.056696	-0.564459
C291	C	1.591522	0.193304	-0.314459
C292	C	1.841522	0.443304	-0.064459
C293	C	0.991938	-0.237527	-0.814413
C294	C	1.241938	0.012473	-0.564413
C295	C	1.491938	0.262473	-0.314413
C296	C	1.741938	0.512473	-0.064413
C297	C	0.992373	-0.236301	-0.900065
C298	C	1.242373	0.013699	-0.650065
C299	C	1.492373	0.263699	-0.400065
C300	C	1.742373	0.513699	-0.150065
C301	C	1.070262	-0.251767	-1.015088
C302	C	1.320262	-0.001767	-0.765088
C303	C	1.570262	0.248233	-0.515088
C304	C	1.820262	0.498233	-0.265088
C305	C	1.070211	-0.251800	-0.698987
C306	C	1.320211	-0.001800	-0.448987
C307	C	1.570211	0.248200	-0.198987
C308	C	1.820211	0.498200	0.051013
C309	C	1.070147	-0.251884	-0.164251
C310	C	1.320147	-0.001884	0.085749
C311	C	1.570147	0.248116	0.335749
C312	C	1.820147	0.498116	0.585749
C313	C	1.070275	-0.251757	-0.081937
C314	C	1.320275	-0.001757	0.168063
C315	C	1.570275	0.248243	0.418063
C316	C	1.820275	0.498243	0.668063
H317	H	0.506740	-0.283319	-0.471557
H318	H	0.756740	-0.033319	-0.221557
H319	H	1.006740	0.216681	0.028443
H320	H	1.256740	0.466681	0.278443
H321	H	1.156156	-0.953145	-0.442746
H322	H	1.406156	-0.703145	-0.192746
H323	H	1.656156	-0.453145	0.057254
H324	H	1.906156	-0.203145	0.307254
H325	H	1.114693	-0.170609	-0.920889
H326	H	1.364693	0.079391	-0.670889
H327	H	1.614693	0.329391	-0.420889
H328	H	1.864693	0.579391	-0.170889
F329	F	0.641440	-0.345552	-0.396370
F330	F	0.891440	-0.095552	-0.146370
F331	F	1.141440	0.154448	0.103630
F332	F	1.391440	0.404448	0.353630
F333	F	0.499591	-0.155436	-0.328367
F334	F	0.749591	0.094564	-0.078367
F335	F	0.999591	0.344564	0.171633
F336	F	1.249591	0.594564	0.421633
H337	H	0.984231	-0.550074	-0.270629
H338	H	1.234231	-0.300074	-0.020629
H339	H	1.484231	-0.050074	0.229371
H340	H	1.734231	0.199926	0.479371
F341	F	0.640322	-0.280488	-0.489750
F342	F	0.890322	-0.030488	-0.239750
F343	F	1.140322	0.219512	0.010250
F344	F	1.390322	0.469512	0.260250
H345	H	1.114611	-0.170374	-0.793662
H346	H	1.364611	0.079626	-0.543662
H347	H	1.614611	0.329626	-0.293662
H348	H	1.864611	0.579626	-0.043662
F349	F	0.971788	-0.183255	-0.926660
F350	F	1.221788	0.066745	-0.676660
F351	F	1.471788	0.316745	-0.426660
F352	F	1.721788	0.566745	-0.176660
H353	H	0.984396	-0.953361	-0.270742
H354	H	1.234396	-0.703361	-0.020742
H355	H	1.484396	-0.453361	0.229258
H356	H	1.734396	-0.203361	0.479258
H357	H	1.155944	-0.450799	-0.442604
H358	H	1.405944	-0.200799	-0.192604
H359	H	1.655944	0.049201	0.057396
H360	H	1.905944	0.299201	0.307396
H361	H	0.633469	-0.166474	-0.335411
H362	H	0.883469	0.083526	-0.085411
H363	H	1.133469	0.333526	0.164589
H364	H	1.383469	0.583526	0.414589
H365	H	0.632967	-0.307271	-0.261666
H366	H	0.882967	-0.057271	-0.011666
H367	H	1.132967	0.192729	0.238334
H368	H	1.382967	0.442729	0.488334
F369	F	0.936165	-0.275984	-0.787875
F370	F	1.186165	-0.025984	-0.537875
F371	F	1.436165	0.224016	-0.287875
F372	F	1.686165	0.474016	-0.037875
F373	F	1.038280	-0.347341	-0.926671
F374	F	1.288280	-0.097341	-0.676671
F375	F	1.538280	0.152659	-0.426671
F376	F	1.788280	0.402659	-0.176671
F377	F	0.641453	-0.179050	-0.450239
F378	F	0.891453	0.070950	-0.200239
F379	F	1.141453	0.320950	0.049761
F380	F	1.391453	0.570950	0.299761
F381	F	1.202887	-0.223596	-0.786105
F382	F	1.452887	0.026404	-0.536105
F383	F	1.702887	0.276404	-0.286105
F384	F	1.952887	0.526404	-0.036105
F385	F	0.501015	-0.182412	-0.453903
F386	F	0.751015	0.067588	-0.203903
F387	F	1.001015	0.317588	0.046097
F388	F	1.251015	0.567588	0.296097
F389	F	1.167819	-0.556660	-0.454500
F390	F	1.417819	-0.306660	-0.204500
F391	F	1.667819	-0.056660	0.045500
F392	F	1.917819	0.193340	0.295500
H393	H	0.633767	-0.238675	-0.234834
H394	H	0.883767	0.011325	0.015166
H395	H	1.133767	0.261325	0.265166
H396	H	1.383767	0.511325	0.515166
F397	F	1.215208	-0.695077	-0.501936
F398	F	1.465208	-0.445077	-0.251936
F399	F	1.715208	-0.195077	-0.001936
F400	F	1.965208	0.054923	0.248064
F401	F	1.168031	-1.059023	-0.454620
F402	F	1.418031	-0.809023	-0.204620
F403	F	1.668031	-0.559023	0.045380
F404	F	1.918031	-0.309023	0.295380
H405	H	1.203414	-0.800963	-0.490113
H406	H	1.453414	-0.550963	-0.240113
H407	H	1.703414	-0.300963	0.009887
H408	H	1.953414	-0.050963	0.259887
H409	H	1.185749	-0.220944	-0.920331
H410	H	1.435749	0.029056	-0.670331
H411	H	1.685749	0.279056	-0.420331
H412	H	1.935749	0.529056	-0.170331
H413	H	0.984451	-1.052411	-0.270757
H414	H	1.234451	-0.802411	-0.020757
H415	H	1.484451	-0.552411	0.229243
H416	H	1.734451	-0.302411	0.479243
F417	F	0.967017	-0.185863	-0.786216
F418	F	1.217017	0.064137	-0.536216
F419	F	1.467017	0.314137	-0.286216
F420	F	1.717017	0.564137	-0.036216
H421	H	1.148739	-0.318761	-0.794482
H422	H	1.398739	-0.068761	-0.544482
H423	H	1.648739	0.181239	-0.294482
H424	H	1.898739	0.431239	-0.044482
F425	F	0.500907	-0.346025	-0.396000
F426	F	0.750907	-0.096025	-0.146000
F427	F	1.000907	0.153975	0.104000
F428	F	1.250907	0.403975	0.354000
F429	F	0.972354	-0.444195	-0.258755
F430	F	1.222354	-0.194195	-0.008755
F431	F	1.472354	0.055805	0.241245
F432	F	1.722354	0.305805	0.491245
F433	F	0.500791	-0.229262	-0.221365
F434	F	0.750791	0.020738	0.028635
F435	F	1.000791	0.270738	0.278635
F436	F	1.250791	0.520738	0.528635
F437	F	0.925148	-0.808125	-0.211467
F438	F	1.175148	-0.558125	0.038533
F439	F	1.425148	-0.308125	0.288533
F440	F	1.675148	-0.058125	0.538533
H441	H	1.051590	-0.337827	-0.793698
H442	H	1.301590	-0.087827	-0.543698
H443	H	1.551590	0.162173	-0.293698
H444	H	1.801590	0.412173	-0.043698
F445	F	0.499301	-0.318808	-0.255670
F446	F	0.749301	-0.068808	-0.005670
F447	F	0.999301	0.181192	0.244330
F448	F	1.249301	0.431192	0.494330
F449	F	0.925101	-0.695424	-0.211446
F450	F	1.175101	-0.445424	0.038554
F451	F	1.425101	-0.195424	0.288554
F452	F	1.675101	0.054576	0.538554
F453	F	1.165095	-0.322958	-0.928136
F454	F	1.415095	-0.072958	-0.678136
F455	F	1.665095	0.177042	-0.428136
F456	F	1.915095	0.427042	-0.178136
F457	F	0.933652	-0.271937	-0.927988
F458	F	1.183652	-0.021937	-0.677988
F459	F	1.433652	0.228063	-0.427988
F460	F	1.683652	0.478063	-0.177988
