data_functionalizedCrystal
_audit_creation_method	'MofGen! by Chris Wilmer'
_symmetry_space_group_name_H-M	'P1'
_symmetry_Int_Tables_number	1
_symmetry_cell_setting	triclinic
loop_
_symmetry_equiv_pos_as_xyz
  x,y,z
_cell_length_a	17.699083
_cell_length_b	14.519731
_cell_length_c	16.176319
_cell_angle_alpha	89.992219
_cell_angle_beta	89.998611
_cell_angle_gamma	83.485934
loop_
_atom_site_label
_atom_site_type_symbol
_atom_site_fract_x
_atom_site_fract_y
_atom_site_fract_z
O1	O	1.004420	0.116623	-0.068632
O2	O	0.784086	0.131796	-0.068660
O3	O	0.900086	-0.010052	-0.068638
O4	O	0.888420	0.258472	-0.068654
O5	O	0.900070	-0.010061	0.068855
O6	O	0.784070	0.131787	0.068833
O7	O	1.004404	0.116614	0.068861
Cu8	Cu	0.894235	0.124200	0.081401
Cu9	Cu	0.894254	0.124211	-0.081200
O10	O	0.888404	0.258463	0.068839
C11	C	0.755879	0.131248	0.000083
C12	C	0.671857	0.129617	0.000073
C13	C	0.623479	0.212879	0.000068
C14	C	0.544531	0.211341	0.000079
C15	C	0.513962	0.126540	0.000089
C16	C	0.562346	0.043272	0.000096
C17	C	0.641292	0.044811	0.000091
C18	C	0.243965	0.037063	0.000117
C19	C	0.165012	0.035531	0.000119
C20	C	0.147204	0.203594	0.000105
C21	C	0.226150	0.205133	0.000100
C22	C	0.274527	0.121865	0.000112
C23	C	0.360131	0.123533	0.000102
C24	C	0.428360	0.124870	0.000093
C25	C	0.899532	-0.044414	0.000109
C26	C	0.897894	-0.146787	0.000109
C27	C	0.896563	-0.229926	0.000107
C28	C	0.894899	-0.334227	0.000101
C29	C	0.893579	-0.417361	0.000095
C30	C	0.891916	-0.521669	0.000090
C31	C	1.032611	0.117162	0.000116
C32	C	1.116633	0.118793	0.000121
C33	C	0.888958	0.292824	0.000090
C34	C	0.890596	0.395198	0.000085
N35	N	0.894228	0.124192	0.195767
N36	N	0.894268	0.124211	-0.195566
C37	C	0.945608	0.061407	0.239040
C38	C	0.945612	0.061406	0.325587
C39	C	0.894238	0.124195	0.368859
C40	C	0.842852	0.186983	0.325579
C41	C	0.842846	0.186979	0.239034
C42	C	0.842878	0.187000	0.674607
C43	C	0.842891	0.187001	0.761159
C44	C	0.945645	0.061427	0.761161
C45	C	0.945638	0.061423	0.674616
C46	C	0.894250	0.124207	0.631343
C47	C	0.894245	0.124207	0.537499
C48	C	0.894246	0.124201	0.462702
H49	H	0.648362	0.281934	0.000060
C50	C	1.002167	-0.007645	0.808769
N51	N	1.044739	-0.059669	0.844625
H52	H	0.987449	0.010281	0.360821
H53	H	0.801019	0.238104	0.360816
H54	H	0.801053	0.238133	0.796389
C55	C	0.694508	-0.046784	0.000094
N56	N	0.734589	-0.115777	0.000098
H57	H	0.987446	0.010281	0.203814
H58	H	0.801038	0.238123	0.639382
H59	H	0.801005	0.238103	0.203801
C60	C	0.259771	0.298420	0.000094
N61	N	0.285093	0.368686	0.000096
H62	H	0.107806	0.271394	0.000100
H63	H	0.987474	0.010298	0.639387
H64	H	0.505145	0.279141	0.000074
H65	H	0.140127	-0.033529	0.000129
H66	H	0.283344	-0.030739	0.000127
H67	H	0.537451	-0.025775	0.000116
