data_functionalizedCrystal
_audit_creation_method	'MofGen! by Chris Wilmer'
_symmetry_space_group_name_H-M	'P1'
_symmetry_Int_Tables_number	1
_symmetry_cell_setting	triclinic
loop_
_symmetry_equiv_pos_as_xyz
  x,y,z
_cell_length_a	23.532407
_cell_length_b	11.792241
_cell_length_c	10.868271
_cell_angle_alpha	89.998441
_cell_angle_beta	89.998984
_cell_angle_gamma	96.478953
loop_
_atom_site_label
_atom_site_type_symbol
_atom_site_fract_x
_atom_site_fract_y
_atom_site_fract_z
O1	O	0.756076	-0.137765	0.102169
O2	O	1.089409	0.195568	0.435503
O3	O	1.422743	0.528901	0.768836
O4	O	0.590331	-0.157700	0.102205
O5	O	0.923664	0.175634	0.435539
O6	O	1.256998	0.508967	0.768872
O7	O	0.677226	0.017533	0.102178
O8	O	1.010559	0.350866	0.435511
O9	O	1.343892	0.684199	0.768845
O10	O	0.669181	-0.312998	0.102197
O11	O	1.002515	0.020336	0.435530
O12	O	1.335848	0.353669	0.768864
O13	O	0.677218	0.017527	-0.102467
O14	O	1.010551	0.350860	0.230867
O15	O	1.343884	0.684194	0.564200
O16	O	0.590323	-0.157705	-0.102439
O17	O	0.923656	0.175628	0.230894
O18	O	1.256990	0.508961	0.564227
O19	O	0.756068	-0.137771	-0.102475
O20	O	1.089402	0.195562	0.230858
O21	O	1.422735	0.528896	0.564191
Zn22	Zn	0.673194	-0.147739	-0.134949
Zn23	Zn	1.006528	0.185594	0.198384
Zn24	Zn	1.339861	0.518927	0.531718
Zn25	Zn	0.673205	-0.147732	0.134679
Zn26	Zn	1.006538	0.185602	0.468012
Zn27	Zn	1.339871	0.518935	0.801346
O28	O	0.669173	-0.313003	-0.102448
O29	O	1.002507	0.020330	0.230886
O30	O	1.335840	0.353663	0.564219
C31	C	0.569108	-0.157195	-0.000112
C32	C	0.902441	0.176138	0.333221
C33	C	1.235775	0.509472	0.666554
C34	C	0.505882	-0.155669	-0.000099
C35	C	0.839215	0.177665	0.333235
C36	C	1.172549	0.510998	0.666568
N37	N	0.673191	-0.147744	-0.318963
N38	N	1.006525	0.185590	0.014370
N39	N	1.339858	0.518923	0.347704
C40	C	0.676716	0.059809	-0.000144
C41	C	1.010050	0.393142	0.333189
C42	C	1.343383	0.726476	0.666523
C43	C	0.675204	0.185787	-0.000142
C44	C	1.008537	0.519120	0.333191
C45	C	1.341871	0.852454	0.666524
C46	C	0.107337	-0.249795	-0.000149
C47	C	0.440670	0.083538	0.333184
C48	C	0.774003	0.416872	0.666518
C49	C	0.047928	-0.248377	-0.000157
C50	C	0.381261	0.084956	0.333177
C51	C	0.714595	0.418290	0.666510
O52	O	0.011701	-0.335633	-0.000196
O53	O	0.345034	-0.002300	0.333137
O54	O	0.678367	0.331034	0.666470
N55	N	0.024684	-0.144202	-0.000161
N56	N	0.358018	0.189132	0.333173
N57	N	0.691351	0.522465	0.666506
C58	C	0.060853	-0.041437	-0.000169
C59	C	0.394186	0.291896	0.333164
C60	C	0.727520	0.625230	0.666497
O61	O	0.035627	0.047303	-0.000175
O62	O	0.368961	0.380636	0.333159
O63	O	0.702294	0.713969	0.666492
C64	C	0.120260	-0.042856	-0.000171
C65	C	0.453594	0.290477	0.333163
C66	C	0.786927	0.623811	0.666496
C67	C	0.143501	-0.147038	-0.000154
C68	C	0.476834	0.186295	0.333179
C69	C	0.810167	0.519628	0.666512
C70	C	0.130577	-0.353969	-0.000134
C71	C	0.463911	-0.020635	0.333199
C72	C	0.797244	0.312698	0.666533
C73	C	0.189982	-0.355386	-0.000124
C74	C	0.523315	-0.022053	0.333209
C75	C	0.856648	0.311281	0.666543
C76	C	0.226146	-0.252630	-0.000129
C77	C	0.559479	0.080704	0.333204
C78	C	0.892812	0.414037	0.666537
C79	C	0.202905	-0.148456	-0.000144
C80	C	0.536238	0.184878	0.333189
C81	C	0.869572	0.518211	0.666522
C82	C	0.156428	0.059907	-0.000188
C83	C	0.489761	0.393241	0.333145
C84	C	0.823095	0.726574	0.666478
C85	C	0.215839	0.058479	-0.000190
C86	C	0.549172	0.391813	0.333143
C87	C	0.882506	0.725146	0.666476
C88	C	0.239079	-0.045703	-0.000174
C89	C	0.572412	0.287630	0.333159
C90	C	0.905746	0.620964	0.666493
C91	C	0.298474	-0.047116	-0.000140
C92	C	0.631807	0.286217	0.333194
C93	C	0.965140	0.619550	0.666527
N94	N	0.321717	-0.151292	-0.000136
N95	N	0.655050	0.182041	0.333198
N96	N	0.988384	0.515375	0.666531
C97	C	0.285553	-0.254049	-0.000130
C98	C	0.618887	0.079285	0.333203
C99	C	0.952220	0.412618	0.666536
C100	C	-0.063907	-0.038465	-0.000169
C101	C	0.269426	0.294868	0.333164
C102	C	0.602759	0.628202	0.666498
C103	C	-0.123313	-0.037045	-0.000159
C104	C	0.210020	0.296288	0.333174
C105	C	0.543353	0.629622	0.666508
C106	C	-0.136234	-0.243985	-0.000149
C107	C	0.197099	0.089348	0.333185
C108	C	0.530432	0.422681	0.666518
C109	C	-0.076827	-0.245404	-0.000150
C110	C	0.256506	0.087929	0.333184
C111	C	0.589840	0.421262	0.666517
C112	C	-0.040664	-0.142641	-0.000165
C113	C	0.292670	0.190693	0.333168
C114	C	0.626003	0.524026	0.666502
C115	C	0.410308	-0.257017	-0.000109
C116	C	0.743641	0.076316	0.333225
C117	C	1.076974	0.409650	0.666558
C118	C	0.469718	-0.258425	-0.000094
C119	C	0.803051	0.074908	0.333240
C120	C	1.136385	0.408241	0.666573
C121	C	0.482634	-0.051485	-0.000111
C122	C	0.815967	0.281848	0.333223
C123	C	1.149300	0.615181	0.666556
C124	C	0.423229	-0.050077	-0.000119
C125	C	0.756562	0.283257	0.333214
C126	C	1.089895	0.616590	0.666548
C127	C	0.387066	-0.152852	-0.000122
C128	C	0.720400	0.180482	0.333211
C129	C	1.053733	0.513815	0.666544
O130	O	0.334736	0.040094	-0.000105
O131	O	0.668069	0.373427	0.333228
O132	O	1.001403	0.706760	0.666562
O133	O	0.310787	-0.342774	-0.000141
O134	O	0.644120	-0.009440	0.333192
O135	O	0.977454	0.323893	0.666525
C136	C	0.777291	-0.138276	-0.000155
C137	C	1.110625	0.195057	0.333178
C138	C	1.443958	0.528391	0.666512
C139	C	0.840517	-0.139802	-0.000160
C140	C	1.173851	0.193531	0.333173
C141	C	1.507184	0.526865	0.666506
C142	C	0.669683	-0.355280	-0.000123
C143	C	1.003016	-0.021946	0.333210
C144	C	1.336349	0.311387	0.666543
C145	C	0.671195	-0.481258	-0.000117
C146	C	1.004529	-0.147924	0.333217
C147	C	1.337862	0.185409	0.666550
C148	C	0.672423	0.416434	-0.000121
C149	C	1.005756	0.749767	0.333212
C150	C	1.339090	1.083100	0.666545
C151	C	0.673968	0.288085	-0.000133
C152	C	1.007301	0.621418	0.333201
C153	C	1.340635	0.954752	0.666534
C154	C	0.673196	-0.147744	-0.430301
C155	C	1.006529	0.185589	-0.096967
C156	C	1.339863	0.518923	0.236366
C157	C	0.673203	-0.147733	-0.569978
C158	C	1.006537	0.185600	-0.236645
C159	C	1.339870	0.518933	0.096688
N160	N	0.673212	-0.147718	0.318693
N161	N	1.006546	0.185615	0.652027
N162	N	1.339879	0.518949	0.985360
H163	H	0.488636	-0.343267	-0.000079
H164	H	0.821970	-0.009933	0.333254
H165	H	1.155303	0.323400	0.666587
F166	F	-0.025424	0.070918	-0.000174
F167	F	0.307910	0.404251	0.333160
F168	F	0.641243	0.737585	0.666493
F169	F	-0.174733	-0.353349	-0.000148
F170	F	0.158600	-0.020016	0.333185
F171	F	0.491933	0.313318	0.666519
H172	H	0.208898	-0.440222	-0.000110
H173	H	0.542231	-0.106889	0.333223
H174	H	0.875565	0.226445	0.666556
H175	H	0.101138	-0.437650	-0.000134
H176	H	0.434471	-0.104317	0.333199
H177	H	0.767804	0.229016	0.666532
H178	H	0.404306	0.034757	-0.000114
H179	H	0.737639	0.368090	0.333219
H180	H	1.070972	0.701424	0.666552
F181	F	0.371829	-0.366402	-0.000113
F182	F	0.705162	-0.033069	0.333221
F183	F	1.038496	0.300264	0.666554
F184	F	-0.052099	-0.356288	-0.000135
F185	F	0.281235	-0.022955	0.333199
F186	F	0.614568	0.310379	0.666532
H187	H	-0.142230	0.047791	-0.000153
H188	H	0.191103	0.381124	0.333180
H189	H	0.524437	0.714457	0.666513
H190	H	0.245281	0.142164	-0.000204
H191	H	0.578614	0.475497	0.333130
H192	H	0.911948	0.808831	0.666463
H193	H	0.137517	0.144743	-0.000203
H194	H	0.470850	0.478077	0.333131
H195	H	0.804183	0.811410	0.666464
F196	F	0.521132	0.057870	-0.000118
F197	F	0.854465	0.391203	0.333215
F198	F	1.187799	0.724536	0.666549
