data_functionalizedCrystal
_audit_creation_method	'MofGen! by Chris Wilmer'
_symmetry_space_group_name_H-M	'P1'
_symmetry_Int_Tables_number	1
_symmetry_cell_setting	triclinic
loop_
_symmetry_equiv_pos_as_xyz
  x,y,z
_cell_length_a	15.944499
_cell_length_b	19.288862
_cell_length_c	18.366186
_cell_angle_alpha	89.988026
_cell_angle_beta	90.008117
_cell_angle_gamma	96.693554
loop_
_atom_site_label
_atom_site_type_symbol
_atom_site_fract_x
_atom_site_fract_y
_atom_site_fract_z
O1	O	1.114207	-0.089411	0.060606
O2	O	0.869609	-0.100493	0.060599
O3	O	0.998977	0.006161	0.060584
O4	O	0.984839	-0.196065	0.060621
O5	O	0.998963	0.006164	-0.060516
O6	O	0.869595	-0.100490	-0.060500
O7	O	1.114193	-0.089408	-0.060494
Zn8	Zn	0.991892	-0.094949	-0.079724
Zn9	Zn	0.991910	-0.094952	0.079829
O10	O	0.984826	-0.196062	-0.060479
C11	C	0.838309	-0.100038	0.000048
C12	C	0.745066	-0.098678	0.000045
C13	C	0.998515	0.032040	0.000031
C14	C	0.997151	0.109147	0.000021
N15	N	0.991886	-0.094946	-0.188615
C16	C	0.453291	-0.160641	0.000067
C17	C	0.514451	-0.128432	0.059771
C18	C	0.409448	-0.093736	0.000061
C19	C	0.514423	-0.128412	-0.059624
C20	C	0.574348	-0.096168	0.000052
C21	C	0.469381	-0.061509	0.059814
C22	C	0.469347	-0.061497	-0.059634
C23	C	0.530490	-0.029240	0.000084
C24	C	0.314454	-0.092337	0.000067
C25	C	0.669341	-0.097561	0.000051
C26	C	1.145493	-0.089863	0.000059
C27	C	1.238736	-0.091224	0.000067
C28	C	1.073058	0.153655	0.000018
C29	C	1.071776	0.226105	0.000027
C30	C	0.994583	0.254044	0.000024
C31	C	0.918666	0.209526	0.000031
C32	C	0.919950	0.137078	0.000030
C33	C	0.933896	0.362483	-0.042401
C34	C	0.932615	0.434931	-0.042404
C35	C	0.990619	0.477500	0.000030
C36	C	1.049918	0.447614	0.042459
C37	C	1.051202	0.375165	0.042458
C38	C	0.993182	0.332602	0.000025
C39	C	1.065141	0.600568	0.000038
C40	C	1.063856	0.673019	0.000050
C41	C	0.910743	0.656438	0.000048
C42	C	0.912031	0.583989	0.000042
C43	C	0.989232	0.556058	0.000033
C44	C	0.985290	0.778059	0.000065
C45	C	0.986662	0.700953	0.000049
C46	C	1.049208	-0.047736	-0.773173
C47	C	1.049209	-0.047738	-0.696945
C48	C	0.991911	-0.094946	-0.658827
C49	C	0.934621	-0.142168	-0.696943
C50	C	0.934627	-0.142170	-0.773169
C51	C	0.915369	-0.104026	-0.538073
C52	C	0.915362	-0.104019	-0.461849
C53	C	0.991891	-0.094945	-0.423719
C54	C	1.068431	-0.085862	-0.461824
C55	C	1.068438	-0.085863	-0.538051
C56	C	0.991898	-0.094950	-0.576172
C57	C	1.049182	-0.047730	-0.302957
C58	C	1.049184	-0.047737	-0.226728
C59	C	0.934589	-0.142164	-0.226728
C60	C	0.934594	-0.142161	-0.302956
C61	C	0.991890	-0.094940	-0.341066
N62	N	0.991923	-0.094949	0.188721
H63	H	0.419746	-0.216165	0.000135
Cl64	Cl	1.125741	0.337595	0.095800
Cl65	Cl	0.582055	0.056559	0.000118
Cl66	Cl	0.545244	-0.172116	-0.137548
H67	H	0.853038	-0.111407	-0.430829
Cl68	Cl	0.438443	-0.017841	-0.137582
H69	H	1.095860	-0.009290	-0.665912
Cl70	Cl	1.170111	0.118546	0.000028
Cl71	Cl	0.545312	-0.172122	0.137717
H72	H	1.130749	-0.078477	-0.430781
Cl73	Cl	1.122842	0.501121	0.095811
Cl74	Cl	0.824515	0.081121	0.000033
H75	H	0.449517	-0.033238	0.110345
Cl76	Cl	1.167209	0.282069	0.000023
H77	H	1.128003	0.577825	0.000034
Cl78	Cl	1.164655	-0.074453	-0.585952
H79	H	0.850219	0.547749	0.000040
H80	H	0.887968	-0.180607	-0.665904
Cl81	Cl	1.121240	0.011622	-0.821082
H82	H	1.125671	0.709257	0.000052
Cl83	Cl	0.819151	-0.115438	-0.585999
H84	H	0.847891	0.679186	0.000049
H85	H	1.095839	-0.009282	-0.333988
Cl86	Cl	1.121211	0.011618	-0.178819
H87	H	0.887938	-0.180605	-0.195693
H88	H	0.887978	-0.180618	-0.804197
H89	H	0.887943	-0.180604	-0.333984
H90	H	0.884326	0.459258	-0.076948
Cl91	Cl	0.860971	0.308975	-0.095755
Cl92	Cl	0.821622	0.244649	0.000033
