data_functionalizedCrystal
_audit_creation_method	'MofGen! by Chris Wilmer'
_symmetry_space_group_name_H-M	'P1'
_symmetry_Int_Tables_number	1
_symmetry_cell_setting	triclinic
loop_
_symmetry_equiv_pos_as_xyz
  x,y,z
_cell_length_a	18.101398
_cell_length_b	18.101395
_cell_length_c	16.625548
_cell_angle_alpha	90.010657
_cell_angle_beta	90.013579
_cell_angle_gamma	90.026371
loop_
_atom_site_label
_atom_site_type_symbol
_atom_site_fract_x
_atom_site_fract_y
_atom_site_fract_z
Zn1	Zn	1.132042	-0.295046	0.456028
Zn2	Zn	1.131962	-0.418858	0.321196
Zn3	Zn	1.008225	-0.295025	0.321196
Zn4	Zn	1.008152	-0.418840	0.455974
O5	O	1.070095	-0.356942	0.388598
O6	O	1.235665	-0.311486	0.438165
O7	O	1.115544	-0.402430	0.208364
O8	O	1.024713	-0.191395	0.339104
O9	O	1.235605	-0.402451	0.339105
O10	O	1.115682	-0.191410	0.438164
O11	O	1.024635	-0.311451	0.208363
O12	O	0.904582	-0.311433	0.339051
O13	O	1.024590	-0.402420	0.568813
O14	O	0.904529	-0.402399	0.438072
O15	O	1.115612	-0.311469	0.568853
O16	O	1.115474	-0.522489	0.339053
O17	O	1.024511	-0.522475	0.438073
C18	C	0.877685	-0.356912	0.388556
C19	C	0.795371	-0.356917	0.388557
C20	C	0.496280	-0.356963	0.388625
C21	C	0.527613	-0.299444	0.326628
C22	C	0.613232	-0.299598	0.326363
C23	C	0.644662	-0.356940	0.388592
C24	C	0.613548	-0.434946	0.365376
C25	C	0.527903	-0.434626	0.364945
C26	C	0.527879	-0.337156	0.473983
C27	C	0.613530	-0.335418	0.473518
C28	C	0.728522	-0.356931	0.388574
C29	C	0.412420	-0.356977	0.388641
C30	C	1.069996	-0.549353	0.388575
C31	C	1.070021	-0.631667	0.388591
C32	C	1.070184	-0.930758	0.388635
C33	C	1.013086	-0.899455	0.451090
C34	C	1.012814	-0.813837	0.450895
C35	C	1.070103	-0.782375	0.388614
C36	C	1.048989	-0.813502	0.303634
C37	C	1.048621	-0.899148	0.304008
C38	C	1.148522	-0.899114	0.410411
C39	C	1.148061	-0.813463	0.412275
C40	C	1.070059	-0.698516	0.388597
C41	C	1.070226	-1.014617	0.388646
C42	C	1.263257	-0.356973	0.388641
C43	C	1.345571	-0.356986	0.388659
C44	C	1.070102	-0.356944	0.598907
C45	C	1.070104	-0.356945	0.688528
C46	C	1.070215	-0.163780	0.388640
C47	C	1.070266	-0.081466	0.388657
C48	C	1.070074	-0.356952	1.016704
C49	C	1.070080	-0.356952	0.925396
C50	C	1.070089	-0.356949	0.852619
C51	C	1.070095	-0.356949	0.761305
C52	C	1.070082	-0.356955	1.179108
C53	C	1.070074	-0.356950	1.089486
H54	H	0.634973	-0.452038	0.303649
Br55	Br	0.647348	-0.321414	0.220941
Br56	Br	0.954554	-0.777849	0.272335
H57	H	0.954748	-0.793405	0.436470
Br58	Br	1.174604	-0.779557	0.516515
Br59	Br	1.116123	-0.779540	0.223954
Br60	Br	0.953178	-0.932542	0.273262
Br61	Br	1.034828	-0.778754	0.555919
Br62	Br	1.222721	-0.777756	0.341991
Br63	Br	0.494562	-0.462627	0.260940
Br64	Br	0.493348	-0.508474	0.436920
Br65	Br	0.647463	-0.508290	0.438290
H66	H	0.506304	-0.281265	0.495091
Br67	Br	1.034876	-0.933733	0.556459
Br68	Br	1.219429	-0.932865	0.334608
Br69	Br	0.647446	-0.239749	0.502707
Br70	Br	0.494106	-0.406982	0.550977
Br71	Br	1.114922	-0.933667	0.223798
H72	H	0.955372	-0.921033	0.436847
H73	H	1.167775	-0.920680	0.471323
H74	H	0.507041	-0.241422	0.341019
Br75	Br	0.648301	-0.203185	0.350616
H76	H	0.506075	-0.312389	0.263746
Br77	Br	0.649187	-0.400162	0.554638
