data_functionalizedCrystal
_audit_creation_method	'MofGen! by Chris Wilmer'
_symmetry_space_group_name_H-M	'P1'
_symmetry_Int_Tables_number	1
_symmetry_cell_setting	triclinic
loop_
_symmetry_equiv_pos_as_xyz
  x,y,z
_cell_length_a	27.732048
_cell_length_b	27.732048
_cell_length_c	18.366186
_cell_angle_alpha	89.996446
_cell_angle_beta	89.998500
_cell_angle_gamma	97.357346
loop_
_atom_site_label
_atom_site_type_symbol
_atom_site_fract_x
_atom_site_fract_y
_atom_site_fract_z
O1	O	-0.057518	0.640930	-0.060444
O2	O	0.442482	1.140930	0.439556
O3	O	-0.066263	0.500137	-0.060465
O4	O	0.433737	1.000137	0.439535
O5	O	0.008506	0.574906	-0.060463
O6	O	0.508506	1.074906	0.439537
O7	O	-0.132287	0.566161	-0.060445
O8	O	0.367713	1.066161	0.439555
O9	O	0.008510	0.574894	0.060636
O10	O	0.508510	1.074894	0.560636
O11	O	-0.066260	0.500124	0.060635
O12	O	0.433740	1.000124	0.560635
O13	O	-0.057514	0.640918	0.060655
O14	O	0.442486	1.140918	0.560655
Zn15	Zn	-0.061886	0.570519	0.079872
Zn16	Zn	0.438114	1.070519	0.579872
Zn17	Zn	-0.061891	0.570535	-0.079682
Zn18	Zn	0.438109	1.070535	0.420318
O19	O	-0.132284	0.566148	0.060654
O20	O	0.367716	1.066148	0.560654
C21	C	-0.066078	0.482124	0.000082
C22	C	0.433922	0.982124	0.500082
C23	C	-0.065525	0.428469	0.000074
C24	C	0.434475	0.928469	0.500074
C25	C	-0.106229	0.089654	0.000111
C26	C	0.393771	0.589654	0.500111
C27	C	-0.104178	-0.112006	0.000117
C28	C	0.395822	0.387994	0.500117
O29	O	-0.141398	-0.143262	0.000153
O30	O	0.358602	0.356738	0.500153
N31	N	-0.059843	-0.131130	0.000110
N32	N	0.440157	0.368870	0.500110
C33	C	-0.016017	-0.099835	0.000106
C34	C	0.483983	0.400165	0.500106
O35	O	0.021740	-0.120728	0.000108
O36	O	0.521740	0.379272	0.500108
C37	C	-0.018068	0.101824	0.000105
C38	C	0.481932	0.601824	0.500105
C39	C	-0.062407	0.120944	0.000105
C40	C	0.437593	0.620944	0.500105
C41	C	-0.150563	0.108775	0.000111
C42	C	0.349437	0.608775	0.500111
C43	C	-0.151075	0.159187	0.000106
C44	C	0.348925	0.659187	0.500106
C45	C	-0.107253	0.190477	0.000100
C46	C	0.392747	0.690477	0.500100
C47	C	-0.062919	0.171356	0.000099
C48	C	0.437081	0.671356	0.500099
C49	C	0.025757	0.133117	0.000107
C50	C	0.525757	0.633117	0.500107
C51	C	0.025240	0.183535	0.000108
C52	C	0.525240	0.683535	0.500108
C53	C	-0.019098	0.202655	0.000108
C54	C	0.480902	0.702655	0.500108
C55	C	-0.019609	0.253059	0.000088
C56	C	0.480391	0.753059	0.500088
N57	N	-0.063944	0.272183	0.000095
N58	N	0.436056	0.772183	0.500095
C59	C	-0.107766	0.240892	0.000101
C60	C	0.392234	0.740892	0.500101
C61	C	-0.014943	-0.205709	0.000105
C62	C	0.485057	0.294291	0.500105
C63	C	-0.014430	-0.256124	0.000104
C64	C	0.485570	0.243876	0.500104
C65	C	-0.102591	-0.268291	0.000116
C66	C	0.397409	0.231709	0.500116
C67	C	-0.103104	-0.217876	0.000112
C68	C	0.396896	0.282124	0.500112
C69	C	-0.059278	-0.186585	0.000112
C70	C	0.440722	0.313415	0.500112
C71	C	-0.108839	0.346761	0.000088
C72	C	0.391161	0.846761	0.500088
C73	C	-0.109347	0.397178	0.000080
C74	C	0.390653	0.897178	0.500080
C75	C	-0.021186	0.409341	0.000072
C76	C	0.478814	0.909341	0.500072
C77	C	-0.020678	0.358929	0.000076
C78	C	0.479322	0.858929	0.500076
C79	C	-0.064508	0.327639	0.000087
C80	C	0.435492	0.827639	0.500087
O81	O	0.017592	0.284343	0.000060
O82	O	0.517592	0.784343	0.500060
O83	O	-0.145518	0.261794	0.000115
O84	O	0.354482	0.761794	0.500115
C85	C	-0.105716	0.039242	0.000116
C86	C	0.394284	0.539242	0.500116
C87	C	-0.061382	0.020120	0.000116
C88	C	0.438618	0.520120	0.500116
C89	C	-0.017560	0.051411	0.000110
C90	C	0.482440	0.551411	0.500110
C91	C	-0.060869	-0.030294	0.000115
C92	C	0.439131	0.469706	0.500115
C93	C	-0.104691	-0.061585	0.000121
C94	C	0.395309	0.438415	0.500121
C95	C	-0.149026	-0.042461	0.000128
C96	C	0.350974	0.457539	0.500128
C97	C	-0.149539	0.007951	0.000122
C98	C	0.350461	0.507951	0.500122
C99	C	0.026775	0.032287	0.000103
C100	C	0.526775	0.532287	0.500103
C101	C	0.027284	-0.018125	0.000108
C102	C	0.527284	0.481875	0.500108
C103	C	-0.016538	-0.049416	0.000114
C104	C	0.483462	0.450584	0.500114
C105	C	-0.150292	0.566338	0.000107
C106	C	0.349708	1.066338	0.500107
C107	C	-0.203947	0.566891	0.000114
C108	C	0.296053	1.066891	0.500114
C109	C	-0.542762	0.526187	0.000073
C110	C	-0.042762	1.026187	0.500073
C111	C	-0.744422	0.528238	0.000065
C112	C	-0.244422	1.028238	0.500065
O113	O	-0.775677	0.491017	0.000027
O114	O	-0.275677	0.991017	0.500027
N115	N	-0.763546	0.572573	0.000072
N116	N	-0.263546	1.072573	0.500072
C117	C	-0.732251	0.616399	0.000077
C118	C	-0.232251	1.116399	0.500077
O119	O	-0.753144	0.654156	0.000075
O120	O	-0.253144	1.154156	0.500075
C121	C	-0.530592	0.614347	0.000080
C122	C	-0.030592	1.114347	0.500080
C123	C	-0.511472	0.570009	0.000080
C124	C	-0.011472	1.070009	0.500080
C125	C	-0.523641	0.481853	0.000072
C126	C	-0.023641	0.981853	0.500072
C127	C	-0.473229	0.481340	0.000078
C128	C	0.026771	0.981340	0.500078
C129	C	-0.441938	0.525162	0.000085
C130	C	0.058062	1.025162	0.500085
C131	C	-0.461060	0.569497	0.000086
C132	C	0.038940	1.069497	0.500086
C133	C	-0.499299	0.658172	0.000080
C134	C	0.000701	1.158172	0.500080
C135	C	-0.448881	0.657656	0.000078
C136	C	0.051119	1.157656	0.500078
C137	C	-0.429761	0.613317	0.000078
C138	C	0.070239	1.113317	0.500078
C139	C	-0.379357	0.612807	0.000099
C140	C	0.120643	1.112807	0.500099
N141	N	-0.360233	0.568472	0.000092
N142	N	0.139767	1.068472	0.500092
C143	C	-0.391524	0.524649	0.000085
C144	C	0.108476	1.024649	0.500085
C145	C	-0.838125	0.617473	0.000077
C146	C	-0.338125	1.117473	0.500077
C147	C	-0.888539	0.617986	0.000077
C148	C	-0.388539	1.117986	0.500077
C149	C	-0.900707	0.529825	0.000064
C150	C	-0.400707	1.029825	0.500064
C151	C	-0.850291	0.529312	0.000068
C152	C	-0.350291	1.029312	0.500068
C153	C	-0.819001	0.573138	0.000069
C154	C	-0.319001	1.073138	0.500069
C155	C	-0.285655	0.523577	0.000098
C156	C	0.214345	1.023577	0.500098
C157	C	-0.235238	0.523069	0.000107
C158	C	0.264762	1.023069	0.500107
C159	C	-0.223075	0.611229	0.000117
C160	C	0.276925	1.111229	0.500117
C161	C	-0.273487	0.611738	0.000112
C162	C	0.226513	1.111738	0.500112
C163	C	-0.304777	0.567908	0.000100
C164	C	0.195223	1.067908	0.500100
O165	O	-0.348073	0.650008	0.000128
O166	O	0.151927	1.150008	0.500128
O167	O	-0.370621	0.486898	0.000070
O168	O	0.129379	0.986898	0.500070
C169	C	-0.593174	0.526699	0.000067
C170	C	-0.093174	1.026699	0.500067
C171	C	-0.612295	0.571034	0.000068
C172	C	-0.112295	1.071034	0.500068
C173	C	-0.581005	0.614856	0.000075
C174	C	-0.081005	1.114856	0.500075
C175	C	-0.662710	0.571547	0.000068
C176	C	-0.162710	1.071547	0.500068
C177	C	-0.694001	0.527725	0.000061
C178	C	-0.194001	1.027725	0.500061
C179	C	-0.674877	0.483389	0.000054
C180	C	-0.174877	0.983389	0.500054
C181	C	-0.624465	0.482877	0.000060
C182	C	-0.124465	0.982877	0.500060
C183	C	-0.600129	0.659191	0.000082
C184	C	-0.100129	1.159191	0.500082
C185	C	-0.650541	0.659700	0.000077
C186	C	-0.150541	1.159700	0.500077
C187	C	-0.681832	0.615878	0.000070
C188	C	-0.181832	1.115878	0.500070
C189	C	0.026515	0.574716	0.000082
C190	C	0.526515	1.074716	0.500082
C191	C	0.080170	0.574164	0.000070
C192	C	0.580170	1.074164	0.500070
C193	C	-0.057699	0.658931	0.000107
C194	C	0.442301	1.158931	0.500107
C195	C	-0.058252	0.712586	0.000110
C196	C	0.441748	1.212586	0.500110
N197	N	-0.061883	0.570511	0.188763
N198	N	0.438117	1.070511	0.688763
N199	N	-0.061891	0.570547	-0.188573
N200	N	0.438109	1.070547	0.311427
C201	C	-0.028791	0.603630	0.226864
C202	C	0.471209	1.103630	0.726864
C203	C	-0.028789	0.603633	0.303092
C204	C	0.471211	1.103633	0.803092
C205	C	-0.061887	0.570522	0.341216
C206	C	0.438113	1.070522	0.841216
C207	C	-0.094981	0.537397	0.303106
C208	C	0.405019	1.037397	0.803106
C209	C	-0.094979	0.537392	0.226880
C210	C	0.405021	1.037392	0.726880
C211	C	-0.105958	0.563860	0.461981
C212	C	0.394042	1.063860	0.961981
C213	C	-0.105961	0.563869	0.538206
C214	C	0.394039	1.063869	1.038206
C215	C	-0.061893	0.570536	0.576324
C216	C	0.438107	1.070536	1.076324
C217	C	-0.017820	0.577204	0.538206
C218	C	0.482180	1.077204	1.038206
C219	C	-0.017818	0.577199	0.461980
C220	C	0.482182	1.077199	0.961980
C221	C	-0.061892	0.570524	0.423871
C222	C	0.438108	1.070524	0.923871
C223	C	-0.028796	0.603659	0.697079
C224	C	0.471204	1.103659	1.197079
C225	C	-0.028793	0.603659	0.773309
C226	C	0.471207	1.103659	1.273309
C227	C	-0.094989	0.537426	0.773321
C228	C	0.405011	1.037426	1.273321
C229	C	-0.094988	0.537424	0.697093
C230	C	0.405012	1.037424	1.197093
C231	C	-0.061892	0.570543	0.658977
C232	C	0.438108	1.070543	1.158977
H233	H	0.061861	0.117558	0.000108
H234	H	0.561861	0.617558	0.500108
H235	H	-0.185643	0.023514	0.000123
H236	H	0.314357	0.523514	0.500123
Cl237	Cl	-0.204116	-0.081807	0.000132
Cl238	Cl	0.295884	0.418193	0.500132
Cl239	Cl	-0.205662	0.069446	0.000117
Cl240	Cl	0.294338	0.569446	0.500117
H241	H	-0.197589	0.646908	0.000126
H242	H	0.302411	1.146908	0.500126
Cl243	Cl	0.083029	-0.042156	0.000099
Cl244	Cl	0.583029	0.457844	0.500099
Cl245	Cl	-0.523323	0.713915	0.000062
Cl246	Cl	-0.023323	1.213915	0.500062
H247	H	-0.141846	0.558422	0.430953
H248	H	0.358154	1.058422	0.930953
H249	H	-0.001843	0.630627	0.804331
H250	H	0.498157	1.130627	1.304331
H251	H	-0.926193	0.494143	0.000061
H252	H	-0.426193	0.994143	0.500061
Cl253	Cl	-0.158845	-0.193844	0.000114
Cl254	Cl	0.341155	0.306156	0.500114
Cl255	Cl	-0.674571	0.715445	0.000076
Cl256	Cl	-0.174571	1.215445	0.500076
H257	H	-0.121929	0.510437	0.334150
H258	H	0.378071	1.010437	0.834150
Cl259	Cl	-0.165091	0.421212	0.000077
Cl260	Cl	0.334909	0.921212	0.500077
H261	H	-0.121927	0.510422	0.195857
H262	H	0.378073	1.010422	0.695857
H263	H	-0.001841	0.630596	0.195832
H264	H	0.498159	1.130596	0.695832
H265	H	-0.608902	0.446773	0.000061
H266	H	-0.108902	0.946773	0.500061
Cl267	Cl	-0.826260	0.473571	0.000066
Cl268	Cl	-0.326260	0.973571	0.500066
H269	H	0.062462	0.057760	0.000100
H270	H	0.562462	0.557760	0.500100
Cl271	Cl	0.033901	0.448687	0.000068
Cl272	Cl	0.533901	0.948687	0.500068
H273	H	-0.904103	0.654090	0.000089
H274	H	-0.404103	1.154090	0.500089
Cl275	Cl	0.035062	0.334890	0.000080
Cl276	Cl	0.535062	0.834890	0.500080
Cl277	Cl	-0.136594	0.495789	0.649190
Cl278	Cl	0.363406	0.995789	1.149190
Cl279	Cl	-0.157681	-0.307637	0.000127
Cl280	Cl	0.342319	0.192363	0.500127
H281	H	0.021674	-0.271687	0.000093
H282	H	0.521674	0.228313	0.500093
H283	H	-0.121937	0.510464	0.804361
H284	H	0.378063	1.010464	1.304361
H285	H	-0.700363	0.447708	0.000053
H286	H	-0.200363	0.947708	0.500053
Cl287	Cl	-0.560799	0.714288	0.000094
Cl288	Cl	-0.060799	1.214288	0.500094
Cl289	Cl	-0.562970	0.426754	0.000062
Cl290	Cl	-0.062970	0.926754	0.500062
Cl291	Cl	-0.211204	0.467325	0.000108
Cl292	Cl	0.288796	0.967325	0.500108
H293	H	0.020747	-0.180236	0.000105
H294	H	0.520747	0.319764	0.500105
H295	H	-0.001840	0.630603	0.334119
H296	H	0.498160	1.130603	0.834119
H297	H	-0.423407	0.693344	0.000075
H298	H	0.076593	1.193344	0.500075
Cl299	Cl	-0.798795	0.672573	0.000083
Cl300	Cl	-0.298795	1.172573	0.500083
Cl301	Cl	-0.163940	0.307434	0.000101
Cl302	Cl	0.336060	0.807434	0.500101
Cl303	Cl	-0.449199	0.425598	0.000069
Cl304	Cl	0.050801	0.925598	0.500069
H305	H	0.018065	0.582633	0.569240
H306	H	0.518065	1.082633	1.069240
Cl307	Cl	-0.206818	0.183216	0.000110
Cl308	Cl	0.293182	0.683216	0.500110
Cl309	Cl	0.037585	0.585576	0.414064
Cl310	Cl	0.537585	1.085576	0.914064
H311	H	-0.311125	0.487886	0.000088
H312	H	0.188875	0.987886	0.500088
Cl313	Cl	0.080338	0.222868	0.000110
Cl314	Cl	0.580338	0.722868	0.500110
H315	H	-0.141847	0.558442	0.569235
H316	H	0.358153	1.058442	1.069235
H317	H	-0.289056	0.647842	0.000122
H318	H	0.210944	1.147842	0.500122
Cl319	Cl	0.012813	0.645292	0.649161
Cl320	Cl	0.512813	1.145292	1.149161
