data_functionalizedCrystal
_audit_creation_method	'MofGen! by Chris Wilmer'
_symmetry_space_group_name_H-M	'P1'
_symmetry_Int_Tables_number	1
_symmetry_cell_setting	triclinic
loop_
_symmetry_equiv_pos_as_xyz
  x,y,z
_cell_length_a	18.050591
_cell_length_b	16.959454
_cell_length_c	16.959447
_cell_angle_alpha	90.026736
_cell_angle_beta	89.978541
_cell_angle_gamma	89.983919
loop_
_atom_site_label
_atom_site_type_symbol
_atom_site_fract_x
_atom_site_fract_y
_atom_site_fract_z
Zn1	Zn	1.135339	0.314750	-0.447079
Zn2	Zn	1.635339	0.814750	0.052921
Zn3	Zn	1.135266	0.446943	-0.314909
Zn4	Zn	1.635266	0.946943	0.185091
Zn5	Zn	1.011157	0.314773	-0.314900
Zn6	Zn	1.511157	0.814773	0.185100
Zn7	Zn	1.011123	0.446881	-0.447031
Zn8	Zn	1.511123	0.946881	0.052969
O9	O	1.073221	0.380837	-0.380980
O10	O	1.573221	0.880837	0.119020
O11	O	1.239253	0.332302	-0.429570
O12	O	1.739253	0.832302	0.070430
O13	O	1.118786	0.429445	-0.204296
O14	O	1.618786	0.929445	0.295704
O15	O	1.027674	0.204159	-0.332450
O16	O	1.527674	0.704159	0.167550
O17	O	1.239200	0.429423	-0.332465
O18	O	1.739200	0.929423	0.167535
O19	O	1.118910	0.204142	-0.429562
O20	O	1.618910	0.704142	0.070438
O21	O	1.027603	0.332340	-0.204290
O22	O	1.527603	0.832340	0.295710
O23	O	0.907228	0.332281	-0.332404
O24	O	1.407228	0.832281	0.167596
O25	O	1.027617	0.429319	-0.557648
O26	O	1.527617	0.929319	-0.057648
O27	O	0.907203	0.429341	-0.429479
O28	O	1.407203	0.929341	0.070521
O29	O	1.118878	0.332242	-0.557683
O30	O	1.618878	0.832242	-0.057683
O31	O	1.118754	0.557545	-0.332418
O32	O	1.618754	1.057545	0.167582
O33	O	1.027547	0.557500	-0.429488
O34	O	1.527547	1.057500	0.070512
C35	C	1.073159	0.586203	-0.380966
C36	C	1.573159	1.086203	0.119034
C37	C	1.073200	0.674060	-0.380987
C38	C	1.573200	1.174060	0.119013
C39	C	0.880269	0.380807	-0.380936
C40	C	1.380269	0.880807	0.119064
C41	C	0.797723	0.380814	-0.380936
C42	C	1.297723	0.880814	0.119064
C43	C	1.073252	0.380771	-0.587148
C44	C	1.573252	0.880771	-0.087148
C45	C	1.073265	0.380743	-0.675004
C46	C	1.573265	0.880743	-0.175004
C47	C	0.598264	0.327971	-0.328268
C48	C	1.098264	0.827971	0.171732
C49	C	0.548854	0.400068	-0.308821
C50	C	1.048854	0.900068	0.191179
C51	C	0.646593	0.380838	-0.380972
C52	C	1.146593	0.880838	0.119028
C53	C	0.548921	0.308766	-0.400416
C54	C	1.048921	0.808766	0.099584
C55	C	0.500608	0.380854	-0.381005
C56	C	1.000608	0.880854	0.118995
C57	C	0.598270	0.452972	-0.361487
C58	C	1.098270	0.952972	0.138513
C59	C	0.598341	0.361621	-0.453116
C60	C	1.098341	0.861621	0.046884
C61	C	0.548954	0.433768	-0.433697
C62	C	1.048954	0.933768	0.066303
C63	C	0.730691	0.380827	-0.380951
C64	C	1.230691	0.880827	0.119049
C65	C	0.416511	0.380873	-0.381026
C66	C	0.916511	0.880873	0.118974
C67	C	1.266927	0.380867	-0.381024
C68	C	1.766927	0.880867	0.118976
C69	C	1.349472	0.380880	-0.381043
C70	C	1.849472	0.880880	0.118957
C71	C	1.073304	0.174668	-0.381010
C72	C	1.573304	0.674668	0.118990
C73	C	1.073339	0.086812	-0.381023
C74	C	1.573339	0.586812	0.118977
C75	C	1.025799	1.045542	-0.431518
C76	C	1.525799	1.545542	0.068482
C77	C	1.120850	1.045529	-0.330521
C78	C	1.620850	1.545529	0.169479
C79	C	1.120824	0.962983	-0.330514
C80	C	1.620824	1.462983	0.169486
C81	C	1.073284	0.921712	-0.381009
C82	C	1.573284	1.421712	0.118991
C83	C	1.025770	0.962988	-0.431511
C84	C	1.525770	1.462988	0.068489
C85	C	1.168333	0.921701	-0.280007
C86	C	1.668333	1.421701	0.219993
C87	C	1.168308	0.839150	-0.279997
C88	C	1.668308	1.339150	0.220003
C89	C	1.120771	0.797878	-0.330497
C90	C	1.620771	1.297878	0.169503
C91	C	1.073255	0.839159	-0.381001
C92	C	1.573255	1.339159	0.118999
C93	C	1.025715	0.797889	-0.431496
C94	C	1.525715	1.297889	0.068504
C95	C	0.978202	0.839168	-0.482005
C96	C	1.478202	1.339168	0.017995
C97	C	0.978232	0.921716	-0.482010
C98	C	1.478232	1.421716	0.017990
C99	C	1.120741	0.715330	-0.330492
C100	C	1.620741	1.215330	0.169508
C101	C	1.025686	0.715335	-0.431489
C102	C	1.525686	1.215335	0.068511
C103	C	1.025839	0.431203	-1.046464
C104	C	1.525839	0.931203	-0.546464
C105	C	1.120869	0.330117	-1.046496
C106	C	1.620869	0.830117	-0.546496
C107	C	1.120849	0.330134	-0.963950
C108	C	1.620849	0.830134	-0.463950
C109	C	1.073324	0.380687	-0.922658
C110	C	1.573324	0.880687	-0.422658
C111	C	1.025819	0.431223	-0.963911
C112	C	1.525819	0.931223	-0.463911
C113	C	1.168359	0.279604	-0.922691
C114	C	1.668359	0.779604	-0.422691
C115	C	1.168342	0.279619	-0.840140
C116	C	1.668342	0.779619	-0.340140
C117	C	1.120812	0.330169	-0.798846
C118	C	1.620812	0.830169	-0.298846
C119	C	1.073305	0.380707	-0.840104
C120	C	1.573305	0.880707	-0.340104
C121	C	1.025780	0.431260	-0.798811
C122	C	1.525780	0.931260	-0.298811
C123	C	0.978268	0.481794	-0.840068
C124	C	1.478268	0.981794	-0.340068
C125	C	0.978290	0.481773	-0.922617
C126	C	1.478290	0.981773	-0.422617
C127	C	1.120790	0.330190	-0.716297
C128	C	1.620790	0.830190	-0.216297
C129	C	1.025760	0.431280	-0.716258
C130	C	1.525760	0.931280	-0.216258
C131	C	1.073233	0.380845	-0.175613
C132	C	1.573233	0.880845	0.324387
C133	C	1.073364	0.380650	-0.087757
C134	C	1.573364	0.880650	0.412243
H135	H	0.619916	0.283312	-0.283649
H136	H	1.119916	0.783312	0.216351
H137	H	1.207032	0.955309	-0.238891
H138	H	1.707032	1.455309	0.261109
Cl139	Cl	0.515732	0.502879	-0.502532
Cl140	Cl	1.015732	1.002879	-0.002532
Cl141	Cl	0.515292	0.425182	-0.214648
Cl142	Cl	1.015292	0.925182	0.285352
Cl143	Cl	0.631593	0.547113	-0.336007
Cl144	Cl	1.131593	1.047113	0.163993
H145	H	0.939549	0.955333	-0.523131
H146	H	1.439549	1.455333	-0.023131
Cl147	Cl	0.631928	0.336476	-0.547265
Cl148	Cl	1.131928	0.836476	-0.047265
H149	H	0.987052	0.472440	-0.682643
H150	H	1.487052	0.972440	-0.182643
Cl151	Cl	0.918529	0.545348	-0.788147
Cl152	Cl	1.418529	1.045348	-0.288147
Cl153	Cl	0.966075	1.097433	-0.495016
Cl154	Cl	1.466075	1.597433	0.004984
Cl155	Cl	0.515448	0.214655	-0.425785
Cl156	Cl	1.015448	0.714655	0.074215
H157	H	0.986975	0.681738	-0.472611
H158	H	1.486975	1.181738	0.027389
H159	H	0.939491	0.805556	-0.523115
H160	H	1.439491	1.305556	-0.023115
H161	H	1.159421	0.681724	-0.289364
H162	H	1.659421	1.181724	0.210636
H163	H	0.939610	0.522918	-0.956215
H164	H	1.439610	1.022918	-0.456215
Cl165	Cl	1.180613	1.097412	-0.267046
Cl166	Cl	1.680613	1.597412	0.232954
H167	H	0.987154	0.472345	-1.080059
H168	H	1.487154	0.972345	-0.580059
H169	H	1.206996	0.805545	-0.238871
H170	H	1.706996	1.305545	0.261129
Cl171	Cl	1.180616	0.266574	-1.098408
Cl172	Cl	1.680616	0.766574	-0.598408
H173	H	1.207056	0.238451	-0.956318
H174	H	1.707056	0.738451	-0.456318
Cl175	Cl	1.228067	0.216089	-0.788282
Cl176	Cl	1.728067	0.716089	-0.288282
Cl177	Cl	1.180519	0.266672	-0.664435
Cl178	Cl	1.680519	0.766672	-0.164435
