data_functionalizedCrystal
_audit_creation_method	'MofGen! by Chris Wilmer'
_symmetry_space_group_name_H-M	'P1'
_symmetry_Int_Tables_number	1
_symmetry_cell_setting	triclinic
loop_
_symmetry_equiv_pos_as_xyz
  x,y,z
_cell_length_a	6.817900
_cell_length_b	12.850268
_cell_length_c	11.084661
_cell_angle_alpha	84.518059
_cell_angle_beta	78.257694
_cell_angle_gamma	88.222550
loop_
_atom_site_label
_atom_site_type_symbol
_atom_site_fract_x
_atom_site_fract_y
_atom_site_fract_z
V1	V	3.697234	-0.134318	0.377536
O2	O	3.747654	0.015956	0.376006
O3	O	3.596537	-0.275469	0.369514
O4	O	3.529965	-0.128083	0.544675
O5	O	3.814687	-0.132450	0.199633
V6	V	4.203042	-0.116836	0.356918
O7	O	3.909611	-0.172666	0.422763
O8	O	4.440863	-0.078488	0.311692
O9	O	4.080532	0.024314	0.364941
O10	O	4.270019	-0.267111	0.358449
O11	O	4.202986	-0.118704	0.534822
O12	O	4.147104	-0.123072	0.189780
C13	C	3.432673	-0.310010	0.362160
C14	C	3.430800	-0.427544	0.356615
V15	V	3.687906	-0.618457	0.358801
O16	O	3.725259	-0.771293	0.363276
O17	O	3.593436	-0.471611	0.360257
O18	O	3.659342	-0.618964	0.185058
O19	O	3.658896	-0.622920	0.539688
V20	V	4.161225	-0.664523	0.412428
O21	O	3.933081	-0.593463	0.329004
O22	O	4.353147	-0.715419	0.472140
O23	O	4.038985	-0.798527	0.396140
O24	O	4.237853	-0.518442	0.415754
O25	O	4.304216	-0.666815	0.239342
O26	O	3.973078	-0.651174	0.571339
C27	C	3.907763	0.058849	0.372298
C28	C	3.888472	0.176380	0.377871
C29	C	3.347743	-0.122002	0.585588
C30	C	3.291920	-0.117838	0.722189
C31	C	3.992672	-0.129156	0.148860
C32	C	4.027736	-0.133315	0.012258
C33	C	3.514870	-0.615505	0.133130
C34	C	3.570120	-0.619640	-0.003493
C35	C	3.790688	-0.635256	0.600904
C36	C	3.715286	-0.629918	0.736145
C37	C	3.256912	-0.210483	0.800254
C38	C	3.204486	-0.206586	0.928608
C39	C	3.187056	-0.110043	0.978895
C40	C	3.222074	-0.017391	0.900820
C41	C	3.274513	-0.021289	0.772469
C42	C	3.521400	-0.613117	0.779548
C43	C	3.443464	-0.607599	0.919327
C44	C	4.054846	-0.229870	-0.037992
C45	C	4.087768	-0.233794	-0.166341
C46	C	4.093593	-0.141162	-0.244438
C47	C	4.066474	-0.044600	-0.194179
C48	C	4.033539	-0.040677	-0.065832
H49	H	3.271088	-0.289103	0.759329
H50	H	3.207874	0.061212	0.941783
H51	H	4.011480	0.037952	-0.024930
Br52	Br	3.321967	0.104460	0.666536
H53	H	3.175974	-0.282038	0.992160
H54	H	4.109850	-0.312428	-0.207242
H55	H	3.413103	-0.602824	0.713224
Br56	Br	3.166576	-0.583597	0.981633
H57	H	3.823579	-0.640223	0.802470
Br58	Br	3.847017	-0.643620	0.934206
H59	H	3.144347	-0.106884	1.083409
Br60	Br	4.046952	-0.355601	0.067969
Br61	Br	4.074389	0.081106	-0.300185
H62	H	4.120411	-0.144371	-0.348944
