data_functionalizedCrystal
_audit_creation_method	'MofGen! by Chris Wilmer'
_symmetry_space_group_name_H-M	'P1'
_symmetry_Int_Tables_number	1
_symmetry_cell_setting	triclinic
loop_
_symmetry_equiv_pos_as_xyz
  x,y,z
_cell_length_a	14.908571
_cell_length_b	29.839131
_cell_length_c	14.908694
_cell_angle_alpha	93.265636
_cell_angle_beta	83.592472
_cell_angle_gamma	86.737317
loop_
_atom_site_label
_atom_site_type_symbol
_atom_site_fract_x
_atom_site_fract_y
_atom_site_fract_z
Zn1	Zn	1.413164	-0.236510	-0.591460
Zn2	Zn	1.913164	0.263490	-0.091460
Zn3	Zn	1.404279	-0.307038	-0.440081
Zn4	Zn	1.904279	0.192962	0.059919
Zn5	Zn	1.253073	-0.227321	-0.431397
Zn6	Zn	1.753073	0.272679	0.068603
Zn7	Zn	1.261711	-0.307003	-0.582679
Zn8	Zn	1.761711	0.192997	-0.082679
O9	O	1.333056	-0.269468	-0.511404
O10	O	1.833056	0.230532	-0.011404
O11	O	1.538649	-0.249726	-0.578688
O12	O	2.038649	0.250274	-0.078688
O13	O	1.376888	-0.292632	-0.312264
O14	O	1.876888	0.207368	0.187736
O15	O	1.274412	-0.165677	-0.452670
O16	O	1.774412	0.334323	0.047330
O17	O	1.532121	-0.301542	-0.467470
O18	O	2.032121	0.198458	0.032530
O19	O	1.392030	-0.172428	-0.570268
O20	O	1.892030	0.327572	-0.070268
O21	O	1.265797	-0.234065	-0.305884
O22	O	1.765797	0.265935	0.194116
O23	O	1.127554	-0.234031	-0.444156
O24	O	1.627554	0.265969	0.055844
O25	O	1.289135	-0.301483	-0.710509
O26	O	1.789135	0.198517	-0.210509
O27	O	1.133901	-0.292573	-0.555302
O28	O	1.633901	0.207427	-0.055302
O29	O	1.400406	-0.249692	-0.716960
O30	O	1.900406	0.250308	-0.216960
O31	O	1.385264	-0.369896	-0.458956
O32	O	1.885264	0.130104	0.041044
O33	O	1.280519	-0.369870	-0.563722
O34	O	1.780519	0.130130	-0.063722
C35	C	1.097885	-0.262301	-0.497834
C36	C	1.597885	0.237699	0.002166
C37	C	0.997279	-0.259247	-0.492051
C38	C	1.497279	0.240753	0.007949
C39	C	0.814877	-0.314551	-0.596763
C40	C	1.314877	0.185449	-0.096763
C41	C	0.720349	-0.311683	-0.591332
C42	C	1.220349	0.188317	-0.091332
C43	C	0.713693	-0.250640	-0.475762
C44	C	1.213693	0.249360	0.024238
C45	C	0.808221	-0.253508	-0.481193
C46	C	1.308221	0.246492	0.018807
C47	C	0.858810	-0.285465	-0.541695
C48	C	1.358810	0.214535	-0.041695
C49	C	0.953340	-0.288336	-0.547121
C50	C	1.453340	0.211664	-0.047121
C51	C	0.946682	-0.227291	-0.431556
C52	C	1.446682	0.272709	0.068444
C53	C	0.852154	-0.224423	-0.426125
C54	C	1.352154	0.275577	0.073875
C55	C	1.332890	-0.386184	-0.511350
C56	C	1.832890	0.113816	-0.011350
C57	C	1.332904	-0.436119	-0.511362
C58	C	1.832904	0.063881	-0.011362
C59	C	1.387707	-0.745775	-0.456943
C60	C	1.887707	-0.245775	0.043057
C61	C	1.387821	-0.933452	-0.456984
C62	C	1.887821	-0.433452	0.043016
O63	O	1.434284	-0.957722	-0.410674
O64	O	1.934284	-0.457722	0.089326
N65	N	1.333248	-0.956918	-0.511483
N66	N	1.833248	-0.456918	-0.011483
C67	C	1.278648	-0.933461	-0.565980
C68	C	1.778648	-0.433461	-0.065980
O69	O	1.232240	-0.957727	-0.612342
O70	O	1.732240	-0.457727	-0.112342
C71	C	1.278539	-0.745785	-0.565942
C72	C	1.778539	-0.245785	-0.065942
C73	C	1.333109	-0.722321	-0.511433
C74	C	1.833109	-0.222321	-0.011433
C75	C	1.442272	-0.722311	-0.402439
C76	C	1.942272	-0.222311	0.097561
C77	C	1.442240	-0.675394	-0.402425
C78	C	1.942240	-0.175394	0.097575
C79	C	1.387642	-0.651941	-0.456916
C80	C	1.887642	-0.151941	0.043084
C81	C	1.333076	-0.675405	-0.511420
C82	C	1.833076	-0.175405	-0.011420
C83	C	1.223944	-0.722329	-0.620443
C84	C	1.723944	-0.222329	-0.120443
C85	C	1.223924	-0.675407	-0.620431
C86	C	1.723924	-0.175407	-0.120431
C87	C	1.278493	-0.651944	-0.565922
C88	C	1.778493	-0.151944	-0.065922
C89	C	1.278445	-0.605034	-0.565897
C90	C	1.778445	-0.105034	-0.065897
N91	N	1.333018	-0.581569	-0.511398
N92	N	1.833018	-0.081569	-0.011398
C93	C	1.387616	-0.605022	-0.456908
C94	C	1.887616	-0.105022	0.043092
C95	C	1.278707	-1.031994	-0.565994
C96	C	1.778707	-0.531994	-0.065994
C97	C	1.278733	-1.078913	-0.566003
C98	C	1.778733	-0.578913	-0.066003
C99	C	1.387907	-1.078901	-0.457008
C100	C	1.887907	-0.578901	0.042992
C101	C	1.387876	-1.031981	-0.456996
C102	C	1.887876	-0.531981	0.043004
C103	C	1.333280	-1.008528	-0.511496
C104	C	1.833280	-0.508528	-0.011496
C105	C	1.387542	-0.506494	-0.456883
C106	C	1.887542	-0.006494	0.043117
C107	C	1.387502	-0.459573	-0.456871
C108	C	1.887502	0.040427	0.043129
C109	C	1.278332	-0.459589	-0.565869
C110	C	1.778332	0.040411	-0.065869
C111	C	1.278368	-0.506506	-0.565877
C112	C	1.778368	-0.006506	-0.065877
C113	C	1.332981	-0.529957	-0.511381
C114	C	1.832981	-0.029957	-0.011381
O115	O	1.232013	-0.580736	-0.612191
O116	O	1.732013	-0.080736	-0.112191
O117	O	1.434032	-0.580749	-0.410567
O118	O	1.934032	-0.080749	0.089433
C119	C	1.387740	-0.792691	-0.456956
C120	C	1.887740	-0.292691	0.043044
C121	C	1.333174	-0.816155	-0.511460
C122	C	1.833174	-0.316155	-0.011460
C123	C	1.278576	-0.792702	-0.565951
C124	C	1.778576	-0.292702	-0.065951
C125	C	1.333200	-0.863074	-0.511469
C126	C	1.833200	-0.363074	-0.011469
C127	C	1.387798	-0.886527	-0.456978
C128	C	1.887798	-0.386527	0.043022
C129	C	1.442370	-0.863062	-0.402480
C130	C	1.942370	-0.363062	0.097520
C131	C	1.442338	-0.816145	-0.402466
C132	C	1.942338	-0.316145	0.097534
C133	C	1.224003	-0.816167	-0.620449
C134	C	1.724003	-0.316167	-0.120449
C135	C	1.224039	-0.863084	-0.620458
C136	C	1.724039	-0.363084	-0.120458
C137	C	1.278638	-0.886537	-0.565967
C138	C	1.778638	-0.386537	-0.065967
C139	C	1.569146	-0.276663	-0.525027
C140	C	2.069146	0.223337	-0.025027
C141	C	1.669753	-0.279729	-0.530833
C142	C	2.169753	0.220271	-0.030833
C143	C	1.346725	-0.276608	-0.747495
C144	C	1.846725	0.223392	-0.247495
C145	C	1.352550	-0.279651	-0.848103
C146	C	1.852550	0.220349	-0.348103
C147	C	1.333249	-0.152297	-0.511480
C148	C	1.833249	0.347703	-0.011480
C149	C	1.333331	-0.102366	-0.511512
C150	C	1.833331	0.397634	-0.011512
C151	C	1.247796	-0.224383	-1.030513
C152	C	1.747796	0.275617	-0.530513
C153	C	1.253265	-0.227241	-1.125043
C154	C	1.753265	0.272759	-0.625043
C155	C	1.368954	-0.288225	-1.131695
C156	C	1.868954	0.211775	-0.631695
C157	C	1.363484	-0.285368	-1.037165
C158	C	1.863484	0.214632	-0.537165
C159	C	1.302904	-0.253445	-0.986577
C160	C	1.802904	0.246555	-0.486577
C161	C	1.297439	-0.250586	-0.892046
C162	C	1.797439	0.249414	-0.392046
C163	C	1.413123	-0.311572	-0.898699
C164	C	1.913123	0.188428	-0.398699
C165	C	1.418593	-0.314430	-0.993229
C166	C	1.918593	0.185570	-0.493229
C167	C	1.319493	-0.262324	-0.276234
C168	C	1.819493	0.237676	0.223766
C169	C	1.313844	-0.259160	-0.175637
C170	C	1.813844	0.240840	0.324363
H171	H	0.810952	-0.198403	-0.376869
H172	H	1.310952	0.301597	0.123131
H173	H	0.994528	-0.314358	-0.596383
H174	H	1.494528	0.185642	-0.096383
O175	O	0.672921	-0.343052	-0.650692
O176	O	1.172921	0.156948	-0.150692
H177	H	0.627469	-0.363326	-0.607581
H178	H	1.127469	0.136674	-0.107581
H179	H	1.418263	-0.314221	-1.172898
H180	H	1.918263	0.185779	-0.672898
H181	H	1.179594	-0.882183	-0.664844
H182	H	1.679594	-0.382183	-0.164844
H183	H	1.248115	-0.224592	-0.850859
H184	H	1.748115	0.275408	-0.350859
O185	O	1.193839	-0.195888	-1.172429
O186	O	1.693839	0.304112	-0.672429
H187	H	1.207817	-0.203237	-1.246661
H188	H	1.707817	0.296763	-0.746661
O189	O	1.472566	-0.342923	-0.851313
O190	O	1.972566	0.157077	-0.351313
H191	H	1.458583	-0.335576	-0.777081
H192	H	1.958583	0.164424	-0.277081
O193	O	0.869450	-0.349017	-0.662013
O194	O	1.369450	0.150983	-0.162013
H195	H	0.823019	-0.368760	-0.699397
H196	H	1.323019	0.131240	-0.199397
H197	H	0.672487	-0.224619	-0.426511
H198	H	1.172487	0.275381	0.073489
O199	O	1.446815	-1.104201	-0.398251
O200	O	1.946815	-0.604201	0.101749
H201	H	1.437670	-1.140768	-0.407430
H202	H	1.937670	-0.640768	0.092570
H203	H	1.467912	-0.340421	-1.034429
H204	H	1.967912	0.159579	-0.534429
O205	O	0.994064	-0.195915	-0.372157
O206	O	1.494064	0.304085	0.127843
H207	H	1.068295	-0.203276	-0.386099
H208	H	1.568295	0.296724	0.113901
O209	O	1.501172	-0.747598	-0.343659
O210	O	2.001172	-0.247598	0.156341
H211	H	1.549565	-0.771568	-0.386861
H212	H	2.049565	-0.271568	0.113139
H213	H	1.198477	-0.198387	-0.989325
H214	H	1.698477	0.301613	-0.489325
H215	H	1.431939	-0.440470	-0.412480
H216	H	1.931939	0.059530	0.087520
H217	H	1.432015	-0.525582	-0.412509
H218	H	1.932015	-0.025582	0.087491
H219	H	1.486678	-0.656293	-0.358042
H220	H	1.986678	-0.156293	0.141958
H221	H	1.179503	-0.741425	-0.664826
H222	H	1.679503	-0.241425	-0.164826
O223	O	1.446742	-1.006675	-0.398215
O224	O	1.946742	-0.506675	0.101785
H225	H	1.484713	-1.030871	-0.360334
H226	H	1.984713	-0.530871	0.139666
H227	H	1.234288	-1.098012	-0.610380
H228	H	1.734288	-0.598012	-0.110380
H229	H	1.179544	-0.797075	-0.664823
H230	H	1.679544	-0.297075	-0.164823
O231	O	1.165025	-0.650111	-0.679202
O232	O	1.665025	-0.150111	-0.179202
H233	H	1.127080	-0.674312	-0.717094
H234	H	1.627080	-0.174312	-0.217094
O235	O	1.219792	-1.006705	-0.624763
O236	O	1.719792	-0.506705	-0.124763
H237	H	1.239359	-1.018315	-0.696710
H238	H	1.739359	-0.518315	-0.196710
O239	O	1.219511	-0.531817	-0.624664
O240	O	1.719511	-0.031817	-0.124664
H241	H	1.181544	-0.507624	-0.662555
H242	H	1.681544	-0.007624	-0.162555
O243	O	1.219449	-0.434290	-0.624644
O244	O	1.719449	0.065710	-0.124644
H245	H	1.228609	-0.397723	-0.615481
H246	H	1.728609	0.102277	-0.115481
H247	H	1.486773	-0.797044	-0.358080
H248	H	1.986773	-0.297044	0.141920
H249	H	1.486824	-0.882165	-0.358109
H250	H	1.986824	-0.382165	0.141891
