data_functionalizedCrystal
_audit_creation_method	'MofGen! by Chris Wilmer'
_symmetry_space_group_name_H-M	'P1'
_symmetry_Int_Tables_number	1
_symmetry_cell_setting	triclinic
loop_
_symmetry_equiv_pos_as_xyz
  x,y,z
_cell_length_a	12.759401
_cell_length_b	19.076808
_cell_length_c	12.759393
_cell_angle_alpha	92.335254
_cell_angle_beta	90.019684
_cell_angle_gamma	92.322618
loop_
_atom_site_label
_atom_site_type_symbol
_atom_site_fract_x
_atom_site_fract_y
_atom_site_fract_z
Zn1	Zn	1.589373	-0.280193	0.577170
Zn2	Zn	1.582174	-0.397916	0.394412
Zn3	Zn	1.413673	-0.280228	0.401503
Zn4	Zn	1.406574	-0.397860	0.570054
O5	O	1.497949	-0.339049	0.485785
O6	O	1.735439	-0.295818	0.552937
O7	O	1.559781	-0.382343	0.248330
O8	O	1.442964	-0.181726	0.430752
O9	O	1.730150	-0.382309	0.418666
O10	O	1.572050	-0.181701	0.559813
O11	O	1.435983	-0.295877	0.253539
O12	O	1.265711	-0.295823	0.423851
O13	O	1.430865	-0.382213	0.718021
O14	O	1.260495	-0.382247	0.547684
O15	O	1.565166	-0.295764	0.723249
O16	O	1.552897	-0.496406	0.411766
O17	O	1.423884	-0.496364	0.540809
C18	C	1.224982	-0.339033	0.485766
C19	C	1.108205	-0.339043	0.485782
C20	C	1.056031	-0.293983	0.421429
C21	C	0.946306	-0.293999	0.421441
C22	C	0.940938	-0.384138	0.550168
C23	C	1.050661	-0.384125	0.550149
C24	C	1.059130	-0.241940	0.347112
C25	C	0.949405	-0.241956	0.347125
C26	C	1.486868	-0.521924	0.474768
C27	C	1.482223	-0.600159	0.470091
C28	C	1.547199	-0.636840	0.535143
C29	C	1.542831	-0.710349	0.530750
C30	C	1.473491	-0.747177	0.461298
C31	C	1.408508	-0.710491	0.396243
C32	C	1.412872	-0.636982	0.400643
C33	C	1.453235	-0.967031	0.440934
C34	C	1.448878	-1.040545	0.436537
C35	C	1.583200	-1.040398	0.571046
C36	C	1.587562	-0.966888	0.575434
C37	C	1.522575	-0.930209	0.510384
N38	N	1.469027	-0.822315	0.456803
N39	N	1.527035	-0.855071	0.514884
C40	C	1.771981	-0.339066	0.485804
C41	C	1.888757	-0.339073	0.485813
C42	C	1.498026	-0.338978	0.759822
C43	C	1.498060	-0.338948	0.876601
C44	C	1.509102	-0.155460	0.496867
C45	C	1.513854	-0.077226	0.501590
C46	C	1.497935	-0.339069	0.212816
C47	C	1.498117	-0.338901	0.096050
C48	C	1.568000	-0.293929	0.934187
C49	C	1.568027	-0.293904	1.043913
C50	C	1.428169	-0.383921	1.038456
C51	C	1.428138	-0.383943	0.928733
C52	C	1.648749	-0.241961	0.937339
C53	C	1.648775	-0.241935	1.047064
H54	H	1.093136	-0.420824	0.602541
H55	H	1.595750	-0.740212	0.583714
H56	H	1.096301	-0.190177	0.379502
H57	H	1.724843	-0.261503	0.902129
Cl58	Cl	0.868589	-0.440812	0.631079
Cl59	Cl	1.361706	-1.086841	0.349217
Cl60	Cl	1.340273	-0.440484	1.104000
H61	H	1.087987	-0.256470	0.264825
H62	H	1.644024	-0.936905	0.631987
Cl63	Cl	1.620210	-0.157804	0.896448
H64	H	0.914161	-0.261423	0.268611
H65	H	0.922925	-0.187463	0.372337
H66	H	1.603667	-0.606859	0.591693
Cl67	Cl	1.664888	-1.086514	0.652823
H68	H	1.400322	-0.937172	0.387965
H69	H	1.352046	-0.740481	0.339699
Cl70	Cl	1.331183	-0.590869	0.318861
Cl71	Cl	1.340193	-0.440528	0.856342
Cl72	Cl	1.608492	-0.162011	1.104445
Cl73	Cl	1.773046	-0.264468	1.091696
