data_functionalizedCrystal
_audit_creation_method	'MofGen! by Chris Wilmer'
_symmetry_space_group_name_H-M	'P1'
_symmetry_Int_Tables_number	1
_symmetry_cell_setting	triclinic
loop_
_symmetry_equiv_pos_as_xyz
  x,y,z
_cell_length_a	19.805407
_cell_length_b	16.959454
_cell_length_c	19.805399
_cell_angle_alpha	89.977613
_cell_angle_beta	89.980427
_cell_angle_gamma	90.020075
loop_
_atom_site_label
_atom_site_type_symbol
_atom_site_fract_x
_atom_site_fract_y
_atom_site_fract_z
Zn1	Zn	1.034765	-0.314700	-0.382744
Zn2	Zn	1.534765	0.185300	0.117256
Zn3	Zn	1.034693	-0.446882	-0.269566
Zn4	Zn	1.534693	0.053118	0.230434
Zn5	Zn	0.921580	-0.314722	-0.269569
Zn6	Zn	1.421580	0.185278	0.230431
Zn7	Zn	0.921556	-0.446840	-0.382713
Zn8	Zn	1.421556	0.053160	0.117287
O9	O	0.978149	-0.380786	-0.326148
O10	O	1.478149	0.119214	0.173852
O11	O	1.129472	-0.332243	-0.367743
O12	O	1.629472	0.167757	0.132257
O13	O	1.019668	-0.429378	-0.174850
O14	O	1.519668	0.070622	0.325150
O15	O	0.936635	-0.204108	-0.284596
O16	O	1.436635	0.295892	0.215404
O17	O	1.129419	-0.429356	-0.284591
O18	O	1.629419	0.070644	0.215409
O19	O	1.019792	-0.204092	-0.367745
O20	O	1.519792	0.295908	0.132255
O21	O	0.936564	-0.332280	-0.174852
O22	O	1.436564	0.167720	0.325148
O23	O	0.826860	-0.332239	-0.284565
O24	O	1.326860	0.167761	0.215435
O25	O	0.936594	-0.429285	-0.477434
O26	O	1.436594	0.070715	0.022566
O27	O	0.826843	-0.429306	-0.367692
O28	O	1.326843	0.070694	0.132308
O29	O	1.019768	-0.332202	-0.477457
O30	O	1.519768	0.167798	0.022543
O31	O	1.019645	-0.557488	-0.284561
O32	O	1.519645	-0.057488	0.215439
O33	O	0.936524	-0.557457	-0.367690
O34	O	1.436524	-0.057457	0.132310
C35	C	0.802293	-0.380771	-0.326126
C36	C	1.302293	0.119229	0.173874
C37	C	0.727061	-0.380783	-0.326133
C38	C	1.227061	0.119217	0.173867
C39	C	0.691725	-0.431402	-0.369347
C40	C	1.191725	0.068598	0.130653
C41	C	0.621037	-0.431404	-0.369356
C42	C	1.121037	0.068596	0.130644
C43	C	0.585685	-0.380790	-0.326148
C44	C	1.085685	0.119210	0.173852
C45	C	0.621026	-0.330165	-0.282932
C46	C	1.121026	0.169835	0.217068
C47	C	0.691713	-0.330160	-0.282926
C48	C	1.191713	0.169840	0.217074
C49	C	0.335952	-0.330183	-0.282954
C50	C	0.835952	0.169817	0.217046
C51	C	0.265260	-0.330193	-0.282962
C52	C	0.765260	0.169807	0.217038
C53	C	0.265276	-0.431426	-0.369384
C54	C	0.765276	0.068574	0.130616
C55	C	0.335963	-0.431421	-0.369379
C56	C	0.835963	0.068579	0.130621
C57	C	0.371298	-0.380794	-0.326166
C58	C	0.871298	0.119206	0.173834
C59	C	0.447946	-0.380792	-0.326157
C60	C	0.947946	0.119208	0.173843
C61	C	0.509038	-0.380795	-0.326153
C62	C	1.009038	0.119205	0.173847
C63	C	0.978092	-0.586152	-0.326136
C64	C	1.478092	-0.086152	0.173864
C65	C	0.978130	-0.674009	-0.326154
C66	C	1.478130	-0.174009	0.173846
C67	C	0.934930	-1.045498	-0.369428
C68	C	1.434930	-0.545498	0.130572
C69	C	1.021555	-1.045470	-0.282937
C70	C	1.521555	-0.545470	0.217063
C71	C	1.021532	-0.962925	-0.282930
C72	C	1.521532	-0.462925	0.217070
C73	C	0.978206	-0.921662	-0.326173
C74	C	1.478206	-0.421662	0.173827
C75	C	0.934904	-0.962945	-0.369422
C76	C	1.434904	-0.462945	0.130578
C77	C	1.064828	-0.921635	-0.239677
C78	C	1.564828	-0.421635	0.260323
C79	C	1.064806	-0.839085	-0.239669
C80	C	1.564806	-0.339085	0.260331
C81	C	1.021483	-0.797820	-0.282915
C82	C	1.521483	-0.297820	0.217085
C83	C	0.978180	-0.839108	-0.326167
C84	C	1.478180	-0.339108	0.173833
C85	C	0.934854	-0.797845	-0.369409
C86	C	1.434854	-0.297845	0.130591
C87	C	0.891553	-0.839132	-0.412665
C88	C	1.391553	-0.339132	0.087335
C89	C	0.891581	-0.921680	-0.412669
C90	C	1.391581	-0.421680	0.087331
C91	C	1.021455	-0.715272	-0.282911
C92	C	1.521455	-0.215272	0.217089
C93	C	0.934827	-0.715292	-0.369403
C94	C	1.434827	-0.215292	0.130597
C95	C	1.154691	-0.380802	-0.326170
C96	C	1.654691	0.119198	0.173830
C97	C	1.229923	-0.380808	-0.326180
C98	C	1.729923	0.119192	0.173820
C99	C	0.978187	-0.380736	-0.502691
C100	C	1.478187	0.119264	-0.002691
C101	C	0.978203	-0.380715	-0.577923
C102	C	1.478203	0.119285	-0.077923
C103	C	0.978224	-0.174618	-0.326174
C104	C	1.478224	0.325382	0.173826
C105	C	0.978256	-0.086761	-0.326186
C106	C	1.478256	0.413239	0.173814
C107	C	1.021513	-0.330161	-0.613280
C108	C	1.521513	0.169839	-0.113280
C109	C	1.021520	-0.330138	-0.683968
C110	C	1.521520	0.169862	-0.183968
C111	C	0.978220	-0.380674	-0.719298
C112	C	1.478220	0.119326	-0.219298
C113	C	0.934905	-0.431230	-0.683936
C114	C	1.434905	0.068770	-0.183936
C115	C	0.934895	-0.431248	-0.613249
C116	C	1.434895	0.068752	-0.113249
C117	C	0.934943	-0.431156	-0.969010
C118	C	1.434943	0.068844	-0.469010
C119	C	0.934958	-0.431135	-1.039702
C120	C	1.434958	0.068865	-0.539702
C121	C	1.021568	-0.330046	-1.039729
C122	C	1.521568	0.169954	-0.539729
C123	C	1.021558	-0.330065	-0.969042
C124	C	1.521558	0.169935	-0.469042
C125	C	0.978241	-0.380617	-0.933686
C126	C	1.478241	0.119383	-0.433686
C127	C	0.978233	-0.380641	-0.857037
C128	C	1.478233	0.119359	-0.357037
C129	C	0.978230	-0.380655	-0.795946
C130	C	1.478230	0.119345	-0.295946
C131	C	0.978150	-0.380779	-0.150292
C132	C	1.478150	0.119221	0.349708
C133	C	0.978265	-0.380577	-0.075060
C134	C	1.478265	0.119423	0.424940
H135	H	0.720503	-0.472621	-0.404530
H136	H	1.220503	0.027379	0.095470
O137	O	0.370341	-0.281119	-0.240940
O138	O	0.870341	0.218881	0.259060
C139	C	0.450072	-0.270333	-0.149531
C140	C	0.950072	0.229667	0.350469
C141	C	0.411179	-0.325988	-0.197084
C142	C	0.911179	0.174012	0.302916
H143	H	0.483087	-0.306588	-0.114052
H144	H	0.983087	0.193412	0.385948
H145	H	0.483233	-0.229054	-0.180622
H146	H	0.983233	0.270946	0.319378
H147	H	0.412644	-0.234148	-0.118682
H148	H	0.912644	0.265852	0.381318
H149	H	0.448558	-0.362224	-0.227943
H150	H	0.948558	0.137776	0.272057
H151	H	0.378007	-0.367215	-0.165954
H152	H	0.878007	0.132785	0.334046
H153	H	0.236479	-0.288972	-0.247776
H154	H	0.736479	0.211028	0.252224
H155	H	0.899549	-0.681701	-0.404619
H156	H	1.399549	-0.181701	0.095381
O157	O	1.063546	-0.280856	-0.934758
O158	O	1.563546	0.219144	-0.434758
C159	C	1.096465	-0.146406	-0.913201
C160	C	1.596465	0.353594	-0.413201
C161	C	1.048863	-0.202052	-0.952052
C162	C	1.548863	0.297948	-0.452052
H163	H	1.084620	-0.082682	-0.927180
H164	H	1.584620	0.417318	-0.427180
H165	H	1.089020	-0.155028	-0.856596
H166	H	1.589020	0.344972	-0.356596
H167	H	1.151036	-0.160325	-0.927101
H168	H	1.651036	0.339675	-0.427101
H169	H	0.994274	-0.188168	-0.938209
H170	H	1.494274	0.311832	-0.438209
H171	H	1.056366	-0.193420	-1.008648
H172	H	1.556366	0.306580	-0.508648
O173	O	0.849539	-0.961908	-0.454614
O174	O	1.349539	-0.461908	0.045386
C175	C	0.811212	-1.089094	-0.492973
C176	C	1.311212	-0.589094	0.007027
C177	C	0.858849	-1.043631	-0.445428
C178	C	1.358849	-0.543631	0.054572
H179	H	0.818733	-1.155175	-0.485572
H180	H	1.318733	-0.655175	0.014428
H181	H	0.756623	-1.072972	-0.481031
H182	H	1.256623	-0.572972	0.018969
H183	H	0.823050	-1.072781	-0.547555
H184	H	1.323050	-0.572781	-0.047555
H185	H	0.847073	-1.059919	-0.390830
H186	H	1.347073	-0.559919	0.109170
H187	H	0.913424	-1.059756	-0.457428
H188	H	1.413424	-0.559756	0.042572
O189	O	1.106831	-0.961839	-0.197679
O190	O	1.606831	-0.461839	0.302321
C191	C	1.145096	-1.089003	-0.159198
C192	C	1.645096	-0.589003	0.340802
C193	C	1.097541	-1.043567	-0.206846
C194	C	1.597541	-0.543567	0.293154
H195	H	1.137591	-1.155088	-0.166583
H196	H	1.637591	-0.655088	0.333417
H197	H	1.199705	-1.072830	-0.171051
H198	H	1.699705	-0.572830	0.328949
H199	H	1.133162	-1.072719	-0.104643
H200	H	1.633162	-0.572719	0.395357
H201	H	1.109413	-1.059827	-0.261416
H202	H	1.609413	-0.559827	0.238584
H203	H	1.042945	-1.059744	-0.194935
H204	H	1.542945	-0.559744	0.305065
O205	O	0.586685	-0.480468	-0.411405
O206	O	1.086685	0.019532	0.088595
C207	C	0.506892	-0.491267	-0.502758
C208	C	1.006892	0.008733	-0.002758
C209	C	0.545762	-0.435609	-0.455188
C210	C	1.045762	0.064391	0.044812
H211	H	0.473785	-0.455022	-0.538159
H212	H	0.973785	0.044978	-0.038159
H213	H	0.544275	-0.527429	-0.533682
H214	H	1.044275	-0.027429	-0.033682
H215	H	0.473804	-0.532567	-0.471610
H216	H	0.973804	-0.032567	0.028390
H217	H	0.578851	-0.394262	-0.486284
H218	H	1.078851	0.105738	0.013716
H219	H	0.508343	-0.399503	-0.424262
H220	H	1.008343	0.100497	0.075738
H221	H	0.364743	-0.472639	-0.404561
H222	H	0.864743	0.027361	0.095439
O223	O	1.106934	-0.799105	-0.197636
O224	O	1.606934	-0.299105	0.302364
C225	C	1.192834	-0.807796	-0.111823
C226	C	1.692834	-0.307796	0.388177
C227	C	1.145167	-0.853172	-0.159399
C228	C	1.645167	-0.353172	0.340601
H229	H	1.223747	-0.851490	-0.080885
H230	H	1.723747	-0.351490	0.419115
H231	H	1.228240	-0.769128	-0.142899
H232	H	1.728240	-0.269128	0.357101
H233	H	1.161761	-0.769169	-0.076429
H234	H	1.661761	-0.269169	0.423571
H235	H	1.176186	-0.891843	-0.194803
H236	H	1.676186	-0.391843	0.305197
H237	H	1.109758	-0.891791	-0.128280
H238	H	1.609758	-0.391791	0.371720
O239	O	0.892876	-0.480429	-0.718180
O240	O	1.392876	0.019571	-0.218180
C241	C	0.860002	-0.614877	-0.739813
C242	C	1.360002	-0.114877	-0.239813
C243	C	0.907629	-0.559244	-0.700980
C244	C	1.407629	-0.059244	-0.200980
H245	H	0.871922	-0.678611	-0.725933
H246	H	1.371922	-0.178611	-0.225933
H247	H	0.805416	-0.601060	-0.725895
H248	H	1.305416	-0.101060	-0.225895
H249	H	0.867438	-0.606141	-0.796406
H250	H	1.367438	-0.106141	-0.296406
H251	H	0.900253	-0.567949	-0.644379
H252	H	1.400253	-0.067949	-0.144379
H253	H	0.962198	-0.573075	-0.714955
H254	H	1.462198	-0.073075	-0.214955
H255	H	0.899678	-1.079117	-0.404647
H256	H	1.399678	-0.579117	0.095353
O257	O	0.892932	-0.480371	-0.934708
O258	O	1.392932	0.019629	-0.434708
C259	C	0.859963	-0.614818	-0.913102
C260	C	1.359963	-0.114818	-0.413102
C261	C	0.907603	-0.559174	-0.951978
C262	C	1.407603	-0.059174	-0.451978
H263	H	0.871798	-0.678541	-0.927062
H264	H	1.371798	-0.178541	-0.427062
H265	H	0.867379	-0.606226	-0.856501
H266	H	1.367379	-0.106226	-0.356501
H267	H	0.805404	-0.600873	-0.927000
H268	H	1.305404	-0.100873	-0.427000
H269	H	0.962180	-0.573085	-0.938137
H270	H	1.462180	-0.073085	-0.438137
H271	H	0.900128	-0.567776	-1.008570
H272	H	1.400128	-0.067776	-0.508570
H273	H	1.056836	-0.288881	-1.068524
H274	H	1.556836	0.211119	-0.568524
O275	O	0.726145	-0.281017	-0.241010
O276	O	1.226145	0.218983	0.258990
C277	C	0.835037	-0.236174	-0.202672
C278	C	1.335037	0.263826	0.297328
C279	C	0.796129	-0.291861	-0.250185
C280	C	1.296129	0.208139	0.249815
H281	H	0.891626	-0.244934	-0.210063
H282	H	1.391626	0.255066	0.289937
H283	H	0.821210	-0.172440	-0.214654
H284	H	1.321210	0.327560	0.285346
H285	H	0.821073	-0.249962	-0.148082
H286	H	1.321073	0.250038	0.351918
H287	H	0.810072	-0.278144	-0.304791
H288	H	1.310072	0.221856	0.195209
H289	H	0.809960	-0.355578	-0.238145
H290	H	1.309960	0.144422	0.261855
H291	H	1.056707	-0.681660	-0.247691
H292	H	1.556707	-0.181660	0.252309
O293	O	0.892988	-0.480311	-1.074051
O294	O	1.392988	0.019689	-0.574051
C295	C	0.883854	-0.586977	-1.153872
C296	C	1.383854	-0.086977	-0.653872
C297	C	0.931456	-0.531348	-1.115003
C298	C	1.431456	-0.031348	-0.615003
H299	H	0.914936	-0.628243	-1.187001
H300	H	1.414936	-0.128243	-0.687001
H301	H	0.852904	-0.623168	-1.116490
H302	H	1.352904	-0.123168	-0.616490
H303	H	0.848472	-0.550656	-1.186938
H304	H	1.348472	-0.050656	-0.686938
H305	H	0.966879	-0.567607	-1.081936
H306	H	1.466879	-0.067607	-0.581936
H307	H	0.962358	-0.495155	-1.152422
H308	H	1.462358	0.004845	-0.652422
O309	O	0.586760	-0.281037	-0.240867
O310	O	1.086760	0.218963	0.259133
C311	C	0.565058	-0.242522	-0.125790
C312	C	1.065058	0.257478	0.374210
C313	C	0.603917	-0.298196	-0.173355
C314	C	1.103917	0.201804	0.326645
H315	H	0.578904	-0.256387	-0.071196
H316	H	1.078904	0.243613	0.428804
H317	H	0.578988	-0.178790	-0.137713
H318	H	1.078988	0.321210	0.362287
H319	H	0.508470	-0.251210	-0.133252
H320	H	1.008470	0.248790	0.366748
H321	H	0.660514	-0.289578	-0.165920
H322	H	1.160514	0.210422	0.334080
H323	H	0.589930	-0.361908	-0.161420
H324	H	1.089930	0.138092	0.338580
H325	H	0.899621	-0.472406	-0.584462
H326	H	1.399621	0.027594	-0.084462
H327	H	0.236498	-0.472646	-0.404573
H328	H	0.736498	0.027354	0.095427
O329	O	1.063492	-0.280939	-0.718339
O330	O	1.563492	0.219061	-0.218339
C331	C	1.072643	-0.174213	-0.798176
C332	C	1.572643	0.325787	-0.298176
C333	C	1.025033	-0.229879	-0.759285
C334	C	1.525033	0.270121	-0.259285
H335	H	1.041569	-0.132928	-0.831301
H336	H	1.541569	0.367072	-0.331301
H337	H	1.103574	-0.138045	-0.760808
H338	H	1.603574	0.361955	-0.260808
H339	H	1.108043	-0.210503	-0.831248
H340	H	1.608043	0.289497	-0.331248
H341	H	0.989593	-0.193650	-0.726213
H342	H	1.489593	0.306350	-0.226213
H343	H	0.994150	-0.266050	-0.796691
H344	H	1.494150	0.233950	-0.296691
O345	O	0.849531	-0.798923	-0.454647
O346	O	1.349531	-0.298923	0.045353
C347	C	0.811073	-0.671755	-0.492925
C348	C	1.311073	-0.171755	0.007075
C349	C	0.858707	-0.717196	-0.445360
C350	C	1.358707	-0.217196	0.054640
H351	H	0.818466	-0.605671	-0.485423
H352	H	1.318466	-0.105671	0.014577
H353	H	0.822933	-0.687876	-0.547532
H354	H	1.322933	-0.187876	-0.047532
H355	H	0.756515	-0.688086	-0.481000
H356	H	1.256515	-0.188086	0.019000
H357	H	0.913282	-0.700889	-0.457224
H358	H	1.413282	-0.200889	0.042776
H359	H	0.846789	-0.701071	-0.390767
H360	H	1.346789	-0.201071	0.109233
O361	O	1.063597	-0.280996	-0.579068
O362	O	1.563597	0.219004	-0.079068
C363	C	1.149532	-0.180754	-0.586564
C364	C	1.649532	0.319246	-0.086564
C365	C	1.101896	-0.236384	-0.625390
C366	C	1.601896	0.263616	-0.125390
H367	H	1.180519	-0.144682	-0.623999
H368	H	1.680519	0.355318	-0.123999
H369	H	1.118500	-0.139376	-0.553488
H370	H	1.618500	0.360624	-0.053488
H371	H	1.184877	-0.217067	-0.553454
H372	H	1.684877	0.282933	-0.053454
H373	H	1.066541	-0.200134	-0.658537
H374	H	1.566541	0.299866	-0.158537
H375	H	1.132970	-0.277764	-0.658423
H376	H	1.632970	0.222236	-0.158423
H377	H	1.056825	-1.079072	-0.247726
H378	H	1.556825	-0.579072	0.252274
