data_functionalizedCrystal
_audit_creation_method	'MofGen! by Chris Wilmer'
_symmetry_space_group_name_H-M	'P1'
_symmetry_Int_Tables_number	1
_symmetry_cell_setting	triclinic
loop_
_symmetry_equiv_pos_as_xyz
  x,y,z
_cell_length_a	12.811457
_cell_length_b	10.654549
_cell_length_c	11.892095
_cell_angle_alpha	93.928104
_cell_angle_beta	91.498327
_cell_angle_gamma	84.264152
loop_
_atom_site_label
_atom_site_type_symbol
_atom_site_fract_x
_atom_site_fract_y
_atom_site_fract_z
O1	O	1.390457	0.173270	0.048544
O2	O	1.087210	0.189022	0.017454
O3	O	1.245803	-0.001568	0.033718
O4	O	1.231864	0.363861	0.032280
O5	O	1.232579	0.014298	0.220369
O6	O	1.073987	0.204889	0.204106
O7	O	1.377233	0.189136	0.235195
Zn8	Zn	1.223511	0.199532	0.249285
Zn9	Zn	1.240933	0.178627	0.003364
O10	O	1.218641	0.379727	0.218932
C11	C	1.041769	0.195587	0.106799
C12	C	0.926070	0.191493	0.094937
C13	C	0.694241	0.201075	0.276158
C14	C	0.585531	0.197229	0.265018
C15	C	0.599937	0.179944	0.061520
C16	C	0.708648	0.183791	0.072659
C17	C	0.755795	0.194358	0.179982
C18	C	0.864507	0.198214	0.191120
C19	C	0.878912	0.180920	-0.012377
C20	C	0.770202	0.177073	-0.023517
C21	C	1.238167	-0.040437	0.126937
C22	C	1.235102	-0.179891	0.126619
C23	C	1.418987	-0.469236	0.145478
C24	C	1.515250	-0.417364	0.155349
C25	C	1.518134	-0.286336	0.155643
C26	C	1.424744	-0.207175	0.146068
C27	C	1.328481	-0.259047	0.136197
C28	C	1.325608	-0.390080	0.135900
C29	C	1.138838	-0.231762	0.116748
C30	C	1.135953	-0.362791	0.116445
C31	C	1.045448	-0.152601	0.107173
C32	C	0.949183	-0.204473	0.097293
C33	C	0.946303	-0.335510	0.096998
C34	C	1.039689	-0.414662	0.106574
C35	C	1.422674	0.182572	0.145848
C36	C	1.538375	0.186665	0.157703
C37	C	1.226277	0.418595	0.125710
C38	C	1.229343	0.558048	0.126020
N39	N	1.211628	0.213798	0.417121
N40	N	1.252824	0.164351	-0.164471
C41	C	1.335508	0.065009	0.666473
C42	C	1.327210	0.074990	0.783964
C43	C	1.186729	0.243734	0.769595
C44	C	1.195027	0.233753	0.652104
C45	C	1.269420	0.144389	0.600548
C46	C	1.277723	0.134414	0.483055
C47	C	1.137238	0.303152	0.468689
C48	C	1.128939	0.313133	0.586179
H49	H	0.732627	0.209697	0.363544
H50	H	1.427100	-0.100485	0.146322
C51	C	1.399904	-0.012324	0.856483
H52	H	1.384304	0.006409	0.933841
H53	H	1.470909	0.000689	0.844351
H54	H	1.389330	-0.097951	0.836006
H55	H	1.068367	0.385889	0.628170
C56	C	1.104903	0.342021	0.826321
H57	H	1.109432	0.336595	0.905736
H58	H	1.036619	0.325735	0.799943
H59	H	1.118193	0.424380	0.808295
H60	H	1.047803	-0.045912	0.107420
H61	H	1.416650	-0.575928	0.145225
H62	H	1.338300	0.061653	0.441079
H63	H	1.083427	0.367792	0.414999
C64	C	1.417337	-0.033281	0.609757
H65	H	1.455508	-0.079131	0.665848
H66	H	1.464275	0.008642	0.568391
H67	H	1.382706	-0.090011	0.560054
H68	H	1.591286	-0.481831	0.163148
H69	H	0.902892	0.206826	0.278508
H70	H	0.873153	-0.140011	0.089506
H71	H	0.535416	0.202705	0.343335
C72	C	1.624017	-0.229268	0.166505
H73	H	1.612353	-0.139894	0.165316
H74	H	1.667125	-0.261876	0.105366
H75	H	1.657889	-0.250810	0.235552
H76	H	0.731800	0.168463	-0.110896
C77	C	0.548063	0.168314	-0.056522
H78	H	0.474503	0.166989	-0.049376
H79	H	0.576256	0.092311	-0.095746
H80	H	0.561413	0.238487	-0.097262
H81	H	0.929041	0.175458	-0.090691
H82	H	0.867913	-0.377733	0.088971
H83	H	1.037354	-0.521354	0.106328
