data_functionalizedCrystal
_audit_creation_method	'MofGen! by Chris Wilmer'
_symmetry_space_group_name_H-M	'P1'
_symmetry_Int_Tables_number	1
_symmetry_cell_setting	triclinic
loop_
_symmetry_equiv_pos_as_xyz
  x,y,z
_cell_length_a	16.109301
_cell_length_b	16.109304
_cell_length_c	9.730223
_cell_angle_alpha	89.998411
_cell_angle_beta	89.999429
_cell_angle_gamma	83.462059
loop_
_atom_site_label
_atom_site_type_symbol
_atom_site_fract_x
_atom_site_fract_y
_atom_site_fract_z
O1	O	1.103132	0.106867	-0.114194
O2	O	1.353132	0.356867	0.135806
O3	O	1.603132	0.606867	0.385806
O4	O	1.853132	0.856867	0.635806
O5	O	0.861070	0.120166	-0.114215
O6	O	1.111070	0.370166	0.135785
O7	O	1.361070	0.620166	0.385785
O8	O	1.611070	0.870166	0.635785
O9	O	0.988749	-0.007514	-0.114205
O10	O	1.238749	0.242486	0.135795
O11	O	1.488749	0.492486	0.385795
O12	O	1.738749	0.742486	0.635795
O13	O	0.975452	0.234547	-0.114204
O14	O	1.225452	0.484547	0.135796
O15	O	1.475452	0.734547	0.385796
O16	O	1.725452	0.984547	0.635796
O17	O	0.988741	-0.007518	0.114375
O18	O	1.238741	0.242482	0.364375
O19	O	1.488741	0.492482	0.614375
O20	O	1.738741	0.742482	0.864375
O21	O	0.861062	0.120163	0.114365
O22	O	1.111062	0.370163	0.364365
O23	O	1.361062	0.620163	0.614365
O24	O	1.611062	0.870163	0.864365
O25	O	1.103123	0.106863	0.114386
O26	O	1.353123	0.356863	0.364386
O27	O	1.603123	0.606863	0.614386
O28	O	1.853123	0.856863	0.864386
Zn29	Zn	0.982091	0.113512	0.150667
Zn30	Zn	1.232091	0.363512	0.400667
Zn31	Zn	1.482091	0.613512	0.650667
Zn32	Zn	1.732091	0.863512	0.900667
Zn33	Zn	0.982102	0.113517	-0.150497
Zn34	Zn	1.232102	0.363517	0.099503
Zn35	Zn	1.482102	0.613517	0.349503
Zn36	Zn	1.732102	0.863517	0.599503
O37	O	0.975444	0.234544	0.114375
O38	O	1.225444	0.484544	0.364375
O39	O	1.475444	0.734544	0.614375
O40	O	1.725444	0.984544	0.864375
C41	C	0.830091	0.119626	0.000072
C42	C	1.080091	0.369626	0.250072
C43	C	1.330091	0.619626	0.500072
C44	C	1.580091	0.869626	0.750072
C45	C	0.737795	0.118010	0.000064
C46	C	0.987795	0.368010	0.250064
C47	C	1.237795	0.618010	0.500064
C48	C	1.487795	0.868010	0.750064
C49	C	0.515524	0.190018	0.000080
C50	C	0.765524	0.440018	0.250080
C51	C	1.015524	0.690018	0.500080
C52	C	1.265524	0.940018	0.750080
C53	C	0.428803	0.188494	0.000089
C54	C	0.678803	0.438494	0.250089
C55	C	0.928803	0.688494	0.500089
C56	C	1.178803	0.938494	0.750089
C57	C	0.448676	0.037005	0.000083
C58	C	0.698676	0.287005	0.250083
C59	C	0.948676	0.537005	0.500083
C60	C	1.198676	0.787005	0.750083
C61	C	0.535395	0.038530	0.000084
C62	C	0.785395	0.288530	0.250084
C63	C	1.035395	0.538530	0.500084
C64	C	1.285395	0.788530	0.750084
C65	C	0.568816	0.115039	0.000075
C66	C	0.818816	0.365039	0.250075
C67	C	1.068816	0.615039	0.500075
C68	C	1.318816	0.865039	0.750075
C69	C	0.395377	0.111990	0.000083
C70	C	0.645377	0.361990	0.250083
C71	C	0.895377	0.611990	0.500083
C72	C	1.145377	0.861990	0.750083
C73	C	0.301351	0.110337	0.000093
C74	C	0.551351	0.360337	0.250093
C75	C	0.801351	0.610337	0.500093
C76	C	1.051351	0.860337	0.750093
C77	C	0.662848	0.116693	0.000068
C78	C	0.912848	0.366693	0.250068
C79	C	1.162848	0.616693	0.500068
C80	C	1.412848	0.866693	0.750068
C81	C	0.988206	-0.038491	0.000082
C82	C	1.238206	0.211509	0.250082
C83	C	1.488206	0.461509	0.500082
C84	C	1.738206	0.711509	0.750082
C85	C	0.986590	-0.130786	0.000072
C86	C	1.236590	0.119214	0.250072
C87	C	1.486590	0.369214	0.500072
C88	C	1.736590	0.619214	0.750072
C89	C	0.982861	-0.343122	-0.124522
C90	C	1.232861	-0.093122	0.125478
C91	C	1.482861	0.156878	0.375478
C92	C	1.732861	0.406878	0.625478
C93	C	0.981335	-0.429842	-0.124521
C94	C	1.231335	-0.179842	0.125479
C95	C	1.481335	0.070158	0.375479
C96	C	1.731335	0.320158	0.625479
C97	C	0.981330	-0.429843	0.124690
C98	C	1.231330	-0.179843	0.374690
C99	C	1.481330	0.070157	0.624690
C100	C	1.731330	0.320157	0.874690
C101	C	0.982850	-0.343123	0.124687
C102	C	1.232850	-0.093123	0.374687
C103	C	1.482850	0.156877	0.624687
C104	C	1.732850	0.406877	0.874687
C105	C	0.983620	-0.299766	0.000077
C106	C	1.233620	-0.049766	0.250077
C107	C	1.483620	0.200234	0.500077
C108	C	1.733620	0.450234	0.750077
C109	C	0.980573	-0.473205	0.000081
C110	C	1.230573	-0.223205	0.250081
C111	C	1.480573	0.026795	0.500081
C112	C	1.730573	0.276795	0.750081
C113	C	0.978919	-0.567231	0.000083
C114	C	1.228919	-0.317231	0.250083
C115	C	1.478919	-0.067231	0.500083
C116	C	1.728919	0.182769	0.750083
C117	C	0.985273	-0.205734	0.000075
C118	C	1.235273	0.044266	0.250075
C119	C	1.485273	0.294266	0.500075
C120	C	1.735273	0.544266	0.750075
C121	C	1.134102	0.107404	0.000095
C122	C	1.384102	0.357404	0.250095
C123	C	1.634102	0.607404	0.500095
C124	C	1.884102	0.857404	0.750095
C125	C	1.226398	0.109019	0.000095
C126	C	1.476398	0.359019	0.250095
C127	C	1.726398	0.609019	0.500095
C128	C	1.976398	0.859019	0.750095
C129	C	0.975987	0.265520	0.000086
C130	C	1.225987	0.515520	0.250086
C131	C	1.475987	0.765520	0.500086
C132	C	1.725987	1.015520	0.750086
C133	C	0.977603	0.357816	0.000086
C134	C	1.227603	0.607816	0.250086
C135	C	1.477603	0.857816	0.500086
C136	C	1.727603	1.107816	0.750086
N137	N	0.982090	0.113509	0.356204
N138	N	1.232090	0.363509	0.606204
N139	N	1.482090	0.613509	0.856204
N140	N	1.732090	0.863509	1.106204
N141	N	0.982110	0.113514	-0.356033
N142	N	1.232110	0.363514	-0.106033
N143	N	1.482110	0.613514	0.143967
N144	N	1.732110	0.863514	0.393967
C145	C	1.038645	0.056996	0.428134
C146	C	1.288645	0.306996	0.678134
C147	C	1.538645	0.556996	0.928134
C148	C	1.788645	0.806996	1.178134
C149	C	1.038654	0.056996	0.572017
C150	C	1.288654	0.306996	0.822017
C151	C	1.538654	0.556996	1.072017
C152	C	1.788654	0.806996	1.322017
C153	C	0.925548	0.170030	0.572026
C154	C	1.175548	0.420030	0.822026
C155	C	1.425548	0.670030	1.072026
C156	C	1.675548	0.920030	1.322026
C157	C	0.925537	0.170025	0.428146
C158	C	1.175537	0.420025	0.678146
C159	C	1.425537	0.670025	0.928146
C160	C	1.675537	0.920025	1.178146
H161	H	0.578788	-0.022530	0.000084
H162	H	0.828788	0.227470	0.250084
H163	H	1.078788	0.477470	0.500084
H164	H	1.328788	0.727470	0.750084
H165	H	0.385416	0.249550	0.000095
H166	H	0.635416	0.499550	0.250095
H167	H	0.885416	0.749550	0.500095
H168	H	1.135416	0.999550	0.750095
H169	H	0.542732	0.252316	0.000083
H170	H	0.792732	0.502316	0.250083
H171	H	1.042732	0.752316	0.500083
H172	H	1.292732	1.002316	0.750083
H173	H	0.983485	-0.307822	-0.225987
H174	H	1.233485	-0.057822	0.024013
H175	H	1.483485	0.192178	0.274013
H176	H	1.733485	0.442178	0.524013
H177	H	0.879478	0.216045	0.369576
H178	H	1.129478	0.466045	0.619576
H179	H	1.379478	0.716045	0.869576
H180	H	1.629478	0.966045	1.119576
H181	H	1.084705	0.010977	0.630579
H182	H	1.334705	0.260977	0.880579
H183	H	1.584705	0.510977	1.130579
H184	H	1.834705	0.760977	1.380579
Br185	Br	0.848802	0.246729	0.669667
Br186	Br	1.098802	0.496729	0.919667
Br187	Br	1.348802	0.746729	1.169667
Br188	Br	1.598802	0.996729	1.419667
H189	H	0.980715	-0.465138	-0.225982
H190	H	1.230715	-0.215138	0.024018
H191	H	1.480715	0.034862	0.274018
H192	H	1.730715	0.284862	0.524018
Br193	Br	0.403313	-0.066823	0.000089
Br194	Br	0.653313	0.183177	0.250089
Br195	Br	0.903313	0.433177	0.500089
Br196	Br	1.153313	0.683177	0.750089
H197	H	0.980705	-0.465155	0.226143
H198	H	1.230705	-0.215155	0.476143
H199	H	1.480705	0.034845	0.726143
H200	H	1.730705	0.284845	0.976143
Br201	Br	1.115394	-0.019706	0.330503
Br202	Br	1.365394	0.230294	0.580503
Br203	Br	1.615394	0.480294	0.830503
Br204	Br	1.865394	0.730294	1.080503
H205	H	0.983463	-0.307821	0.226157
H206	H	1.233463	-0.057821	0.476157
H207	H	1.483463	0.192179	0.726157
H208	H	1.733463	0.442179	0.976157
