data_functionalizedCrystal
_audit_creation_method	'MofGen! by Chris Wilmer'
_symmetry_space_group_name_H-M	'P1'
_symmetry_Int_Tables_number	1
_symmetry_cell_setting	triclinic
loop_
_symmetry_equiv_pos_as_xyz
  x,y,z
_cell_length_a	10.723023
_cell_length_b	10.723023
_cell_length_c	8.140239
_cell_angle_alpha	89.997483
_cell_angle_beta	89.997738
_cell_angle_gamma	84.467548
loop_
_atom_site_label
_atom_site_type_symbol
_atom_site_fract_x
_atom_site_fract_y
_atom_site_fract_z
O1	O	1.657186	0.175021	-0.136593
O2	O	1.294033	0.191775	-0.136599
O3	O	1.483986	0.001822	-0.136589
O4	O	1.467232	0.364974	-0.136603
O5	O	1.483976	0.001819	0.136638
O6	O	1.294022	0.191773	0.136628
O7	O	1.657175	0.175018	0.136634
Zn8	Zn	1.475597	0.183395	0.180012
Zn9	Zn	1.475611	0.183398	-0.179977
O10	O	1.467222	0.364972	0.136624
C11	C	1.247528	0.190555	0.000013
C12	C	1.108974	0.186908	0.000011
C13	C	1.047196	0.185280	0.141549
C14	C	0.903993	0.181511	0.141550
C15	C	1.482762	-0.044679	0.000023
C16	C	1.479115	-0.183233	0.000017
C17	C	1.477494	-0.244998	-0.141525
C18	C	1.473725	-0.388201	-0.141534
C19	C	1.703680	0.176239	0.000018
C20	C	1.842234	0.179886	0.000010
C21	C	1.468446	0.411473	0.000009
C22	C	1.472093	0.550027	0.000003
N23	N	1.475597	0.183393	0.425694
N24	N	1.475621	0.183391	-0.425659
H25	H	1.055847	0.185507	-0.121165
O26	O	0.905396	0.181608	-0.144715
C27	C	0.891958	0.181183	-0.440201
C28	C	0.820258	0.179257	-0.276422
H29	H	0.823159	0.179257	-0.546729
H30	H	0.942201	0.269990	-0.447660
H31	H	0.963622	0.095632	-0.447453
H32	H	0.748534	0.264747	-0.269060
H33	H	0.770100	0.090395	-0.269031
O34	O	1.479025	-0.181452	-0.285980
C35	C	1.374988	-0.021109	-0.458653
C36	C	1.373103	-0.092957	-0.294983
H37	H	1.289346	0.050437	-0.466001
H38	H	1.463723	0.029257	-0.465979
H39	H	1.373252	-0.089906	-0.565210
H40	H	1.374793	-0.024245	-0.188333
H41	H	1.284375	-0.143343	-0.287800
H42	H	1.472337	-0.441318	-0.262713
H43	H	1.477704	-0.236371	0.121190
O44	O	1.473795	-0.386823	0.144732
C45	C	1.473328	-0.400284	0.440217
C46	C	1.471431	-0.471972	0.276434
H47	H	1.471390	-0.469093	0.546740
H48	H	1.562128	-0.350034	0.447693
H49	H	1.387770	-0.328628	0.447459
H50	H	1.556928	-0.543689	0.269082
H51	H	1.382575	-0.522136	0.269026
O52	O	1.110379	0.186883	0.286267
C53	C	1.096909	0.186597	0.581753
C54	C	1.025208	0.184751	0.417975
H55	H	1.028076	0.184900	0.688282
H56	H	1.168503	0.100997	0.589210
H57	H	1.147233	0.275360	0.589006
H58	H	0.974809	0.096046	0.410613
H59	H	0.953686	0.270410	0.410587
O60	O	0.840597	0.179615	0.286080
C61	C	0.706598	0.067849	0.458671
C62	C	0.778360	0.069826	0.294944
H63	H	0.656239	-0.020894	0.465876
H64	H	0.775334	0.069574	0.565301
H65	H	0.635019	0.153465	0.465996
H66	H	0.849939	-0.015776	0.287458
H67	H	0.709549	0.068164	0.188391
