data_functionalizedCrystal
_audit_creation_method	'MofGen! by Chris Wilmer'
_symmetry_space_group_name_H-M	'P1'
_symmetry_Int_Tables_number	1
_symmetry_cell_setting	triclinic
loop_
_symmetry_equiv_pos_as_xyz
  x,y,z
_cell_length_a	17.699083
_cell_length_b	19.288865
_cell_length_c	16.776229
_cell_angle_alpha	90.008647
_cell_angle_beta	90.000273
_cell_angle_gamma	96.790368
loop_
_atom_site_label
_atom_site_type_symbol
_atom_site_fract_x
_atom_site_fract_y
_atom_site_fract_z
O1	O	1.003954	-0.087835	-0.066186
O2	O	0.783559	-0.099262	-0.066213
O3	O	0.900125	0.007574	-0.066183
O4	O	0.887388	-0.194671	-0.066216
O5	O	0.900112	0.007575	0.066394
O6	O	0.783546	-0.099262	0.066363
O7	O	1.003941	-0.087834	0.066391
Zn8	Zn	0.893741	-0.093548	0.087427
Zn9	Zn	0.893759	-0.093549	-0.087249
O10	O	0.887375	-0.194671	0.066361
C11	C	0.755356	-0.098853	0.000072
C12	C	0.671340	-0.097624	0.000062
N13	N	0.893735	-0.093547	0.206638
C14	C	0.899709	0.033451	0.000108
C15	C	0.898478	0.110556	0.000115
C16	C	0.622631	-0.160335	0.000052
C17	C	0.543689	-0.159177	0.000063
C18	C	0.513458	-0.095307	0.000078
C19	C	0.562174	-0.032591	0.000090
C20	C	0.641114	-0.033750	0.000085
C21	C	0.243817	-0.027915	0.000110
C22	C	0.164871	-0.026761	0.000113
C23	C	0.146393	-0.153342	0.000088
C24	C	0.225333	-0.154501	0.000083
C25	C	0.274041	-0.091785	0.000100
C26	C	0.359639	-0.093042	0.000090
C27	C	0.427862	-0.094049	0.000082
C28	C	1.032144	-0.088244	0.000104
C29	C	1.116160	-0.089472	0.000109
C30	C	0.887792	-0.220548	0.000068
C31	C	0.889022	-0.297653	0.000056
C32	C	0.966874	0.155172	0.000127
C33	C	0.965718	0.227620	0.000114
C34	C	0.896163	0.255450	0.000105
C35	C	0.827759	0.210825	0.000088
C36	C	0.828916	0.138378	0.000093
C37	C	0.841480	0.363802	0.046537
C38	C	0.840325	0.436248	0.046537
C39	C	0.892589	0.478900	0.000087
C40	C	0.946021	0.449098	-0.046353
C41	C	0.947179	0.376652	-0.046349
C42	C	0.894900	0.334006	0.000099
C43	C	0.959736	0.602073	0.000084
C44	C	0.958578	0.674522	0.000067
C45	C	0.820616	0.657725	0.000049
C46	C	0.821777	0.585277	0.000058
C47	C	0.891339	0.557456	0.000080
N48	N	0.893771	-0.093544	-0.206460
C49	C	0.939491	-0.135624	0.248350
C50	C	0.939499	-0.135621	0.331802
C51	C	0.893747	-0.093545	0.373541
C52	C	0.847990	-0.051464	0.331822
C53	C	0.847986	-0.051464	0.248372
C54	C	0.848005	-0.051465	0.668370
C55	C	0.848011	-0.051471	0.751826
C56	C	0.939519	-0.135623	0.751800
C57	C	0.939515	-0.135622	0.668349
C58	C	0.893760	-0.093538	0.626639
C59	C	0.893753	-0.093541	0.536150
C60	C	0.893750	-0.093546	0.464027
H61	H	0.647238	-0.212346	0.000040
O62	O	0.983843	-0.176577	0.627772
C63	C	0.937530	-0.224014	0.579480
H64	H	0.877282	-0.231540	0.604630
H65	H	0.961533	-0.276310	0.578523
H66	H	0.936324	-0.202552	0.516238
H67	H	0.810749	-0.017198	0.634419
O68	O	0.496481	-0.220158	0.000016
C69	C	0.540092	-0.276780	0.000018
H70	H	0.599069	-0.259049	-0.025085
H71	H	0.510816	-0.320710	-0.038480
H72	H	0.545653	-0.296366	0.063616
H73	H	0.990684	0.352390	-0.084163
H74	H	0.976776	-0.169887	0.785771
H75	H	0.810741	-0.017202	0.365813
O76	O	1.034424	0.128112	0.000279
C77	C	1.039207	0.086702	0.068932
H78	H	0.999712	0.103776	0.116919
H79	H	1.100226	0.093309	0.091986
H80	H	1.021553	0.029538	0.053406
H81	H	0.140260	0.025253	0.000126
H82	H	1.021416	0.263953	0.000121
H83	H	0.283467	0.023152	0.000125
H84	H	0.771126	0.233489	0.000079
H85	H	0.810727	-0.017201	0.214411
O86	O	0.688325	0.027231	0.000055
C87	C	0.644717	0.083854	0.000087
H88	H	0.585735	0.066126	-0.025012
H89	H	0.673987	0.127785	-0.038397
H90	H	0.639166	0.103438	0.063695
O91	O	0.254572	-0.216605	0.000105
C92	C	0.194652	-0.271709	0.000079
H93	H	0.141090	-0.252329	0.025184
H94	H	0.210999	-0.316308	0.038563
H95	H	0.183412	-0.291048	-0.063527
O96	O	0.532684	0.029392	0.000070
C97	C	0.452564	0.016970	0.000090
H98	H	0.433839	-0.037265	-0.025019
H99	H	0.428464	0.057832	-0.038391
H100	H	0.430602	0.020298	0.063695
H101	H	0.773219	0.102051	0.000083
O102	O	0.983978	-0.176399	0.207721
C103	C	1.035777	-0.133985	0.159469
H104	H	1.012403	-0.082474	0.146977
H105	H	1.044108	-0.161899	0.100782
H106	H	1.092706	-0.123287	0.191630
H107	H	1.016378	0.579419	0.000098
O108	O	0.098968	-0.214202	0.000115
C109	C	0.022810	-0.199488	0.000105
H110	H	0.019969	-0.144938	0.025219
H111	H	-0.013089	-0.239473	0.038588
H112	H	-0.000034	-0.202157	-0.063497
O113	O	0.996692	0.490537	-0.091578
C114	C	0.957065	0.527699	-0.146957
H115	H	0.897986	0.498629	-0.157363
H116	H	0.989653	0.532473	-0.205694
H117	H	0.951513	0.582042	-0.122596
O118	O	0.753116	0.684866	0.000071
C119	C	0.766758	0.758377	0.000044
H120	H	0.825877	0.775494	0.025154
H121	H	0.722259	0.780556	0.038522
H122	H	0.763170	0.778524	-0.063563
O123	O	0.755267	0.542033	0.000092
C124	C	0.693626	0.582128	0.000061
H125	H	0.713020	0.636238	0.025158
H126	H	0.645715	0.555330	0.038548
H127	H	0.672298	0.587239	-0.063546
O128	O	0.790670	0.322477	0.091730
C129	C	0.743254	0.364311	0.132704
H130	H	0.773320	0.419714	0.138321
H131	H	0.730233	0.341762	0.194676
H132	H	0.687870	0.365286	0.098251
O133	O	0.788524	0.465240	0.091737
C134	C	0.826801	0.511912	0.147111
H135	H	0.886574	0.497314	0.157539
H136	H	0.794174	0.508778	0.205840
H137	H	0.830606	0.567382	0.122733
O138	O	0.803549	-0.010528	0.792250
C139	C	0.763150	0.026606	0.737543
H140	H	0.794489	0.030698	0.678054
H141	H	0.758654	0.081219	0.761672
H142	H	0.703641	-0.002071	0.728665
H143	H	1.014276	0.710848	0.000072
H144	H	0.976760	-0.169882	0.365761
