data_functionalizedCrystal
_audit_creation_method	'MofGen! by Chris Wilmer'
_symmetry_space_group_name_H-M	'P1'
_symmetry_Int_Tables_number	1
_symmetry_cell_setting	triclinic
loop_
_symmetry_equiv_pos_as_xyz
  x,y,z
_cell_length_a	19.188905
_cell_length_b	18.266242
_cell_length_c	12.837942
_cell_angle_alpha	89.994721
_cell_angle_beta	91.018252
_cell_angle_gamma	90.016163
loop_
_atom_site_label
_atom_site_type_symbol
_atom_site_fract_x
_atom_site_fract_y
_atom_site_fract_z
O1	O	0.935026	0.061002	-0.129255
O2	O	1.268359	0.394336	0.204078
O3	O	1.601693	0.727669	0.537411
O4	O	0.732909	0.060978	-0.146699
O5	O	1.066242	0.394311	0.186634
O6	O	1.399575	0.727644	0.519968
O7	O	0.829486	0.060985	0.012905
O8	O	1.162819	0.394318	0.346238
O9	O	1.496152	0.727652	0.679571
O10	O	0.838449	0.060995	-0.288859
O11	O	1.171782	0.394328	0.044474
O12	O	1.505116	0.727662	0.377808
O13	O	0.829467	-0.060777	0.012913
O14	O	1.162800	0.272556	0.346246
O15	O	1.496134	0.605890	0.679579
O16	O	0.732890	-0.060784	-0.146691
O17	O	1.066223	0.272549	0.186642
O18	O	1.399557	0.605882	0.519976
O19	O	0.935007	-0.060760	-0.129247
O20	O	1.268341	0.272574	0.204086
O21	O	1.601674	0.605907	0.537419
Zn22	Zn	0.833946	-0.080104	-0.137968
Zn23	Zn	1.167279	0.253229	0.195365
Zn24	Zn	1.500612	0.586562	0.528699
Zn25	Zn	0.833970	0.080322	-0.137979
Zn26	Zn	1.167304	0.413656	0.195355
Zn27	Zn	1.500637	0.746989	0.528688
O28	O	0.838430	-0.060767	-0.288851
O29	O	1.171764	0.272566	0.044482
O30	O	1.505097	0.605900	0.377816
C31	C	0.706850	0.000093	-0.146134
C32	C	1.040183	0.333427	0.187199
C33	C	1.373516	0.666760	0.520532
C34	C	0.629229	0.000084	-0.144452
C35	C	0.962562	0.333417	0.188882
C36	C	1.295895	0.666750	0.522215
C37	C	0.592792	0.066458	-0.143648
C38	C	0.926125	0.399791	0.189685
C39	C	1.259458	0.733125	0.523019
C40	C	0.519859	0.066467	-0.142055
C41	C	0.853192	0.399800	0.191278
C42	C	1.186525	0.733134	0.524611
C43	C	0.483366	0.000098	-0.141246
C44	C	0.816700	0.333431	0.192088
C45	C	1.150033	0.666765	0.525421
C46	C	0.519812	-0.066285	-0.142056
C47	C	0.853145	0.267048	0.191278
C48	C	1.186479	0.600381	0.524611
C49	C	0.592743	-0.066292	-0.143659
C50	C	0.926076	0.267041	0.189675
C51	C	1.259410	0.600374	0.523008
N52	N	0.370121	-0.049296	-0.079752
N53	N	0.703454	0.284037	0.253581
N54	N	1.036787	0.617370	0.586914
N55	N	0.300839	-0.049285	-0.078227
N56	N	0.634172	0.284048	0.255106
N57	N	0.967506	0.617382	0.588439
C58	C	0.263628	0.000115	-0.136418
C59	C	0.596962	0.333449	0.196915
C60	C	0.930295	0.666782	0.530249
N61	N	0.298317	0.049515	-0.196178
N62	N	0.631650	0.382849	0.137155
N63	N	0.964983	0.716182	0.470489
N64	N	0.367605	0.049506	-0.197699
N65	N	0.700938	0.382839	0.135635
N66	N	1.034272	0.716173	0.468968
C67	C	0.404284	0.000098	-0.139508
C68	C	0.737618	0.333432	0.193825
C69	C	1.070951	0.666765	0.527159
C70	C	0.148109	0.066504	-0.133889
C71	C	0.481443	0.399838	0.199445
C72	C	0.814776	0.733171	0.532778
C73	C	0.075175	0.066510	-0.132303
C74	C	0.408508	0.399844	0.201031
C75	C	0.741842	0.733177	0.534364
C76	C	0.075130	-0.066244	-0.132292
C77	C	0.408463	0.267090	0.201041
C78	C	0.741796	0.600423	0.534374
C79	C	0.148062	-0.066248	-0.133889
C80	C	0.481396	0.267085	0.199444
C81	C	0.814729	0.600419	0.532778
C82	C	0.184548	0.000128	-0.134682
C83	C	0.517881	0.333461	0.198651
C84	C	0.851215	0.666795	0.531985
N85	N	0.833934	-0.189591	-0.137960
N86	N	1.167267	0.143742	0.195373
N87	N	1.500601	0.477075	0.528707
C88	C	0.876716	-0.227897	-0.067322
C89	C	1.210049	0.105436	0.266011
C90	C	1.543383	0.438770	0.599345
C91	C	0.876720	-0.304542	-0.067317
C92	C	1.210053	0.028792	0.266016
C93	C	1.543387	0.362125	0.599350
C94	C	0.833950	-0.342878	-0.137968
C95	C	1.167283	-0.009545	0.195365
C96	C	1.500617	0.323788	0.528699
C97	C	0.791159	-0.304563	-0.208611
C98	C	1.124493	0.028770	0.124722
C99	C	1.457826	0.362103	0.458055
C100	C	0.791151	-0.227920	-0.208607
C101	C	1.124485	0.105413	0.124726
C102	C	1.457818	0.438747	0.458059
N103	N	0.831166	-0.463208	-0.229706
N104	N	1.164500	-0.129875	0.103627
N105	N	1.497833	0.203458	0.436960
N106	N	0.831178	-0.536016	-0.229707
N107	N	1.164511	-0.202683	0.103627
N108	N	1.497845	0.130650	0.436960
C109	C	0.833971	-0.573801	-0.137983
C110	C	1.167304	-0.240467	0.195350
C111	C	1.500637	0.092866	0.528684
N112	N	0.836764	-0.536026	-0.046256
N113	N	1.170098	-0.202693	0.287078
N114	N	1.503431	0.130640	0.620411
N115	N	0.836756	-0.463212	-0.046256
N116	N	1.170090	-0.129878	0.287077
N117	N	1.503423	0.203455	0.620411
C118	C	0.833954	-0.425985	-0.137980
C119	C	1.167287	-0.092652	0.195353
C120	C	1.500620	0.240682	0.528687
C121	C	0.876759	-0.695213	-0.067334
C122	C	1.210093	-0.361880	0.265999
C123	C	1.543426	-0.028547	0.599333
C124	C	0.876759	-0.771860	-0.067328
C125	C	1.210092	-0.438526	0.266006
C126	C	1.543425	-0.105193	0.599339
C127	C	0.791202	-0.771880	-0.208631
C128	C	1.124535	-0.438546	0.124702
C129	C	1.457868	-0.105213	0.458036
C130	C	0.791198	-0.695235	-0.208628
C131	C	1.124532	-0.361902	0.124705
C132	C	1.457865	-0.028568	0.458038
C133	C	0.833981	-0.656906	-0.137981
C134	C	1.167314	-0.323573	0.195352
C135	C	1.500648	0.009760	0.528686
C136	C	0.961066	0.000126	-0.129812
C137	C	1.294400	0.333460	0.203521
C138	C	1.627733	0.666793	0.536855
C139	C	1.038687	0.000141	-0.131495
C140	C	1.372021	0.333474	0.201839
C141	C	1.705354	0.666807	0.535172
C142	C	0.826448	0.000104	0.051515
C143	C	1.159782	0.333437	0.384848
C144	C	1.493115	0.666771	0.718182
C145	C	0.817417	0.000104	0.166550
C146	C	1.150751	0.333437	0.499883
C147	C	1.484084	0.666771	0.833217
N148	N	0.833987	0.189809	-0.137978
N149	N	1.167320	0.523143	0.195355
N150	N	1.500654	0.856476	0.528688
C151	C	0.841468	0.000116	-0.327462
C152	C	1.174801	0.333449	0.005872
C153	C	1.508134	0.666782	0.339205
C154	C	0.850499	0.000120	-0.442496
C155	C	1.183832	0.333454	-0.109163
C156	C	1.517165	0.666787	0.224170
C157	C	0.925985	0.000133	0.408015
C158	C	1.259319	0.333466	0.741348
C159	C	1.592652	0.666799	1.074682
C160	C	0.917503	0.000133	0.516101
C161	C	1.250837	0.333466	0.849435
C162	C	1.584170	0.666800	1.182768
C163	C	0.791972	0.000110	0.490811
C164	C	1.125305	0.333443	0.824144
C165	C	1.458638	0.666776	1.157478
C166	C	0.800454	0.000110	0.382725
C167	C	1.133787	0.333443	0.716058
C168	C	1.467120	0.666776	1.049391
C169	C	0.867463	0.000120	0.341331
C170	C	1.200796	0.333453	0.674664
C171	C	1.534129	0.666787	1.007998
C172	C	0.875944	0.000115	0.233243
C173	C	1.209278	0.333448	0.566576
C174	C	1.542611	0.666781	0.899909
C175	C	0.750413	0.000097	0.207954
C176	C	1.083747	0.333430	0.541288
C177	C	1.417080	0.666763	0.874621
C178	C	0.741931	0.000097	0.316041
C179	C	1.075264	0.333430	0.649374
C180	C	1.408598	0.666764	0.982707
H181	H	0.177730	-0.120297	-0.134537
H182	H	0.511063	0.213036	0.198797
H183	H	0.844396	0.546369	0.532130
C184	C	0.632825	-0.139313	-0.144534
C185	C	0.966159	0.194021	0.188799
C186	C	1.299492	0.527354	0.522132
N187	N	0.663016	-0.194313	-0.145190
N188	N	0.996350	0.139021	0.188143
N189	N	1.329683	0.472354	0.521477
H190	H	0.737416	0.000109	0.524533
H191	H	1.070749	0.333443	0.857866
H192	H	1.404083	0.666776	1.191200
C193	C	0.744119	-0.185782	-0.286363
C194	C	1.077452	0.147551	0.046970
C195	C	1.410785	0.480884	0.380304
N196	N	0.708706	-0.154043	-0.344947
N197	N	1.042039	0.179290	-0.011614
N198	N	1.375372	0.512623	0.321720
H199	H	0.687374	0.000091	0.349759
H200	H	1.020707	0.333425	0.683092
H201	H	1.354041	0.666758	1.016425
C202	C	0.744190	-0.653097	-0.286412
C203	C	1.077523	-0.319764	0.046922
C204	C	1.410856	0.013570	0.380255
N205	N	0.708797	-0.621359	-0.345025
N206	N	1.042131	-0.288026	-0.011691
N207	N	1.375464	0.045307	0.321642
H208	H	0.622494	0.120507	-0.144294
H209	H	0.955827	0.453840	0.189039
H210	H	1.289160	0.787173	0.522373
H211	H	0.911550	-0.196692	-0.009794
H212	H	1.244884	0.136641	0.323539
H213	H	1.578217	0.469975	0.656872
H214	H	0.930506	0.000120	0.199542
H215	H	1.263840	0.333454	0.532876
H216	H	1.597173	0.666787	0.866209
H217	H	0.911593	-0.664005	-0.009805
H218	H	1.244927	-0.330672	0.323528
H219	H	1.578260	0.002662	0.656861
C220	C	0.686034	0.000082	0.134592
C221	C	1.019367	0.333416	0.467925
C222	C	1.352701	0.666749	0.801259
N223	N	0.637545	0.000069	0.079335
N224	N	0.970878	0.333403	0.412668
N225	N	1.304212	0.666736	0.746002
H226	H	0.490186	0.120519	-0.141402
H227	H	0.823519	0.453852	0.191931
H228	H	1.156853	0.787185	0.525264
C229	C	0.035094	0.139532	-0.131414
C230	C	0.368428	0.472865	0.201920
C231	C	0.701761	0.806198	0.535253
N232	N	0.004905	0.194533	-0.130740
N233	N	0.338239	0.527866	0.202593
N234	N	0.671572	0.861199	0.535927
C235	C	0.479669	-0.139291	-0.141163
C236	C	0.813002	0.194042	0.192170
C237	C	1.146335	0.527375	0.525503
N238	N	0.449433	-0.194282	-0.140494
N239	N	0.782766	0.139051	0.192839
N240	N	1.116099	0.472385	0.526173
C241	C	0.744154	-0.814045	-0.286349
C242	C	1.077488	-0.480712	0.046984
C243	C	1.410821	-0.147379	0.380317
N244	N	0.708716	-0.845808	-0.344888
N245	N	1.042050	-0.512475	-0.011555
N246	N	1.375383	-0.179142	0.321778
C247	C	0.999695	0.000140	0.362480
C248	C	1.333028	0.333473	0.695813
C249	C	1.666361	0.666807	1.029146
N250	N	1.055214	0.000146	0.328184
N251	N	1.388548	0.333480	0.661518
N252	N	1.721881	0.666813	0.994851
C253	C	0.981883	0.000142	0.589451
C254	C	1.315217	0.333475	0.922784
C255	C	1.648550	0.666808	1.256118
N256	N	1.030377	0.000147	0.644698
N257	N	1.363710	0.333481	0.978032
N258	N	1.697044	0.666814	1.311365
H259	H	0.177817	0.120551	-0.134546
H260	H	0.511150	0.453885	0.198788
H261	H	0.844484	0.787218	0.532121
H262	H	0.045418	-0.120283	-0.131639
H263	H	0.378751	0.213051	0.201694
H264	H	0.712085	0.546384	0.535027
H265	H	0.911560	-0.335736	-0.009793
H266	H	1.244893	-0.002403	0.323540
H267	H	1.578226	0.330931	0.656874
C268	C	0.744109	-0.346735	-0.286323
C269	C	1.077442	-0.013402	0.047010
C270	C	1.410775	0.319932	0.380343
N271	N	0.708666	-0.378498	-0.344855
N272	N	1.041999	-0.045165	-0.011521
N273	N	1.375332	0.288168	0.321812
H274	H	0.911594	-0.803049	-0.009800
H275	H	1.244928	-0.469715	0.323533
H276	H	1.578261	-0.136382	0.656866
