data_functionalizedCrystal
_audit_creation_method	'MofGen! by Chris Wilmer'
_symmetry_space_group_name_H-M	'P1'
_symmetry_Int_Tables_number	1
_symmetry_cell_setting	triclinic
loop_
_symmetry_equiv_pos_as_xyz
  x,y,z
_cell_length_a	9.065218
_cell_length_b	14.853567
_cell_length_c	7.540329
_cell_angle_alpha	90.000203
_cell_angle_beta	89.996962
_cell_angle_gamma	84.325408
loop_
_atom_site_label
_atom_site_type_symbol
_atom_site_fract_x
_atom_site_fract_y
_atom_site_fract_z
O1	O	1.957778	0.132191	-0.147470
O2	O	1.528279	0.143034	-0.147471
O3	O	1.754501	0.006468	-0.147476
O4	O	1.731556	0.268757	-0.147465
O5	O	1.754488	0.006466	0.147489
O6	O	1.528265	0.143032	0.147494
O7	O	1.957765	0.132189	0.147495
Cu8	Cu	1.743014	0.137611	0.174427
Cu9	Cu	1.743030	0.137613	-0.174403
O10	O	1.731542	0.268756	0.147500
C11	C	1.473306	0.141991	0.000011
C12	C	1.309525	0.138875	0.000010
C13	C	1.753455	-0.027130	0.000001
C14	C	1.750339	-0.127236	-0.000014
C15	C	1.602788	-0.540862	0.000019
C16	C	1.871546	-0.560154	0.000020
C17	C	1.874475	-0.466099	0.000010
C18	C	1.741559	-0.409421	0.000007
C19	C	1.605714	-0.446798	0.000014
C20	C	2.010318	-0.428714	0.000020
C21	C	2.013253	-0.334654	0.000012
C22	C	1.880335	-0.277974	-0.000004
C23	C	1.744484	-0.315356	0.000002
C24	C	1.611568	-0.258678	-0.000001
C25	C	1.475716	-0.296059	-0.000008
C26	C	1.472796	-0.390118	-0.000001
C27	C	1.883255	-0.183915	-0.000011
C28	C	1.614494	-0.164614	-0.000006
C29	C	2.012738	0.133232	0.000009
C30	C	2.176519	0.136348	-0.000002
C31	C	1.732589	0.302353	0.000019
C32	C	1.735704	0.402460	0.000022
N33	N	1.743013	0.137609	0.419776
N34	N	1.743042	0.137608	-0.419752
H35	H	1.506255	-0.118471	-0.000016
O36	O	1.340968	-0.426578	0.000088
C37	C	1.217362	-0.562935	0.000020
C38	C	1.366756	-0.521759	-0.000049
H39	H	1.238160	-0.639894	-0.000128
H40	H	1.151647	-0.539745	0.123492
H41	H	1.151671	-0.539639	-0.123393
H42	H	1.432567	-0.545036	0.123280
H43	H	1.432358	-0.544946	-0.123603
O44	O	1.346741	-0.240868	-0.000087
C45	C	1.232167	-0.087406	0.000033
C46	C	1.378332	-0.149808	0.000079
H47	H	1.257657	-0.013771	0.000206
H48	H	1.165311	-0.101064	-0.123442
H49	H	1.165312	-0.101193	0.123443
H50	H	1.445306	-0.136057	-0.123246
H51	H	1.445076	-0.136137	0.123637
O52	O	2.015076	-0.147453	0.000076
C53	C	2.138696	-0.011102	-0.000041
C54	C	1.989297	-0.052272	-0.000095
H55	H	2.117905	0.065857	-0.000216
H56	H	2.204396	-0.034282	0.123439
H57	H	2.204398	-0.034413	-0.123446
H58	H	1.923475	-0.028981	0.123227
H59	H	1.923709	-0.029096	-0.123656
H60	H	1.492180	-0.571302	0.000007
H61	H	1.979760	-0.606307	0.000037
H62	H	2.123872	-0.304227	0.000015
H63	H	2.118531	-0.474868	0.000039
