data_functionalizedCrystal
_audit_creation_method	'MofGen! by Chris Wilmer'
_symmetry_space_group_name_H-M	'P1'
_symmetry_Int_Tables_number	1
_symmetry_cell_setting	triclinic
loop_
_symmetry_equiv_pos_as_xyz
  x,y,z
_cell_length_a	14.519731
_cell_length_b	12.996460
_cell_length_c	16.992695
_cell_angle_alpha	89.993670
_cell_angle_beta	92.821462
_cell_angle_gamma	90.005673
loop_
_atom_site_label
_atom_site_type_symbol
_atom_site_fract_x
_atom_site_fract_y
_atom_site_fract_z
O1	O	1.231239	0.085570	-0.102876
O2	O	1.731239	0.585570	0.397124
O3	O	0.963632	0.085572	-0.114964
O4	O	1.463632	0.585572	0.385036
O5	O	1.096363	0.085563	0.005224
O6	O	1.596363	0.585563	0.505224
O7	O	1.098508	0.085579	-0.223065
O8	O	1.598508	0.585579	0.276935
O9	O	1.096348	-0.085571	0.005230
O10	O	1.596348	0.414429	0.505230
O11	O	0.963617	-0.085562	-0.114958
O12	O	1.463617	0.414438	0.385042
O13	O	1.231224	-0.085564	-0.102870
O14	O	1.731224	0.414436	0.397130
Cu15	Cu	1.097419	-0.101189	-0.108913
Cu16	Cu	1.597419	0.398811	0.391087
Cu17	Cu	1.097437	0.101197	-0.108921
Cu18	Cu	1.597437	0.601197	0.391079
O19	O	1.098493	-0.085555	-0.223058
O20	O	1.598493	0.414445	0.276942
C21	C	0.929225	0.000005	-0.114395
C22	C	1.429225	0.500005	0.385605
C23	C	0.826723	0.000006	-0.112697
C24	C	1.326723	0.500006	0.387303
C25	C	0.743479	0.000010	-0.111318
C26	C	1.243479	0.500010	0.388682
C27	C	0.639047	0.000010	-0.109595
C28	C	1.139047	0.500010	0.390405
C29	C	0.555810	0.000010	-0.108227
C30	C	1.055810	0.500010	0.391773
C31	C	0.451371	0.000012	-0.106504
C32	C	0.951371	0.500012	0.393496
N33	N	1.097413	-0.243536	-0.108907
N34	N	1.597413	0.256464	0.391093
C35	C	1.097436	-0.663350	-0.108922
C36	C	1.597436	-0.163350	0.391078
C37	C	1.097427	-0.546545	-0.108920
C38	C	1.597427	-0.046545	0.391080
C39	C	1.097425	-0.453447	-0.108915
C40	C	1.597425	0.046553	0.391085
C41	C	1.097415	-0.336634	-0.108912
C42	C	1.597415	0.163366	0.391088
C43	C	1.265632	0.000005	-0.103439
C44	C	1.765632	0.500005	0.396561
C45	C	1.368134	0.000012	-0.105137
C46	C	1.868134	0.500012	0.394863
C47	C	1.093595	-0.000004	0.034444
C48	C	1.593595	0.499996	0.534444
C49	C	1.085360	-0.000003	0.121500
C50	C	1.585360	0.499997	0.621500
N51	N	1.097450	0.243544	-0.108921
N52	N	1.597450	0.743544	0.391079
C53	C	1.101261	0.000015	-0.252278
C54	C	1.601261	0.500015	0.247722
C55	C	1.109496	0.000021	-0.339334
C56	C	1.609496	0.500021	0.160666
C57	C	1.164819	-0.000005	0.171624
C58	C	1.664819	0.499995	0.671624
C59	C	1.157076	0.000005	0.253422
C60	C	1.657076	0.500005	0.753422
C61	C	1.069872	0.000009	0.285094
C62	C	1.569872	0.500009	0.785094
C63	C	0.990407	0.000013	0.234964
C64	C	1.490407	0.500013	0.734964
C65	C	0.998151	0.000011	0.153168
C66	C	1.498151	0.500011	0.653168
C67	C	1.037775	0.000023	0.528739
C68	C	1.537775	0.500023	1.028739
C69	C	1.030037	0.000023	0.610542
C70	C	1.530037	0.500023	1.110542
C71	C	1.196707	0.000016	0.628994
C72	C	1.696707	0.500016	1.128994
C73	C	1.204443	0.000007	0.547195
C74	C	1.704443	0.500007	1.047195
C75	C	1.124978	0.000017	0.497072
C76	C	1.624978	0.500017	0.997072
N77	N	1.061955	0.000016	0.368705
N78	N	1.561955	0.500016	0.868705
N79	N	1.132896	0.000018	0.413463
N80	N	1.632896	0.500018	0.913463
H81	H	1.235830	-0.000015	0.145843
H82	H	1.735830	0.499985	0.645843
H83	H	1.221781	0.000001	0.294230
H84	H	1.721781	0.500001	0.794230
H85	H	1.275454	0.000004	0.521414
H86	H	1.775454	0.500004	1.021414
H87	H	1.261403	0.000009	0.669813
H88	H	1.761403	0.500009	1.169813
H89	H	0.973068	0.000031	0.487938
H90	H	1.473068	0.500031	0.987938
H91	H	0.959022	0.000009	0.636326
H92	H	1.459022	0.500009	1.136326
O93	O	0.905767	-0.000028	0.265858
O94	O	1.405767	0.499972	0.765858
C95	C	0.915968	-0.000004	0.348802
C96	C	1.415968	0.499996	0.848802
H97	H	0.986525	-0.032404	0.367908
H98	H	1.486525	0.467596	0.867908
H99	H	0.909828	0.082097	0.371571
H100	H	1.409828	0.582097	0.871571
C101	C	0.753435	-0.027322	0.359375
C102	C	1.253435	0.472678	0.859375
C103	C	0.840092	-0.067124	0.382841
C104	C	1.340092	0.432876	0.882841
H105	H	0.706629	-0.068720	0.380372
H106	H	1.206629	0.431280	0.880372
H107	H	0.746561	-0.027334	0.303494
H108	H	1.246561	0.472666	0.803494
H109	H	0.748331	0.041095	0.378350
H110	H	1.248331	0.541095	0.878350
H111	H	0.845199	-0.135535	0.363857
H112	H	1.345199	0.364465	0.863857
H113	H	0.846965	-0.067125	0.438719
H114	H	1.346965	0.432875	0.938719
O115	O	0.920870	-0.000033	0.104587
O116	O	1.420870	0.499967	0.604587
C117	C	0.842241	-0.000003	0.150079
C118	C	1.342241	0.499997	0.650079
H119	H	0.861145	-0.032406	0.211094
H120	H	1.361145	0.467594	0.711094
H121	H	0.815807	0.082101	0.155936
H122	H	1.315807	0.582101	0.655936
C123	C	0.743303	-0.027309	0.034501
C124	C	1.243303	0.472691	0.534501
C125	C	0.766520	-0.067115	0.109438
C126	C	1.266520	0.432885	0.609438
H127	H	0.696592	-0.068702	0.009430
H128	H	1.196592	0.431298	0.509430
H129	H	0.796276	-0.027325	0.003850
H130	H	1.296276	0.472675	0.503850
H131	H	0.721280	0.041110	0.039392
H132	H	1.221280	0.541110	0.539392
H133	H	0.788553	-0.135528	0.104545
H134	H	1.288553	0.364472	0.604545
H135	H	0.713548	-0.067112	0.140086
H136	H	1.213548	0.432888	0.640086
