data_functionalizedCrystal
_audit_creation_method	'MofGen! by Chris Wilmer'
_symmetry_space_group_name_H-M	'P1'
_symmetry_Int_Tables_number	1
_symmetry_cell_setting	triclinic
loop_
_symmetry_equiv_pos_as_xyz
  x,y,z
_cell_length_a	15.995350
_cell_length_b	15.995350
_cell_length_c	14.472310
_cell_angle_alpha	89.998838
_cell_angle_beta	89.990621
_cell_angle_gamma	96.507625
loop_
_atom_site_label
_atom_site_type_symbol
_atom_site_fract_x
_atom_site_fract_y
_atom_site_fract_z
O1	O	1.110997	-0.107921	-0.076758
O2	O	0.867221	-0.121248	-0.076776
O3	O	0.995773	0.007303	-0.076766
O4	O	0.982445	-0.236472	-0.076769
O5	O	0.995740	0.007296	0.076916
O6	O	0.867188	-0.121256	0.076906
O7	O	1.110963	-0.107928	0.076924
Cu8	Cu	0.989073	-0.114593	0.090947
Cu9	Cu	0.989112	-0.114584	-0.090800
O10	O	0.982412	-0.236480	0.076913
C11	C	0.836010	-0.120701	0.000062
C12	C	0.743060	-0.119049	0.000055
C13	C	0.405312	-0.113117	0.000074
C14	C	0.452746	-0.021565	0.000418
C15	C	0.549436	-0.023217	0.000065
C16	C	0.572873	-0.116060	0.000065
C17	C	0.531804	-0.161212	-0.087692
C18	C	0.435169	-0.158912	-0.087759
C19	C	0.434792	-0.160812	0.087007
C20	C	0.531737	-0.160790	0.088160
C21	C	0.667570	-0.117727	0.000057
C22	C	0.310614	-0.111452	0.000076
C23	C	0.995205	0.038494	0.000073
C24	C	0.993553	0.131444	0.000068
C25	C	1.142175	-0.108476	0.000083
C26	C	1.235125	-0.110127	0.000084
C27	C	0.982980	-0.267671	0.000072
C28	C	0.984631	-0.360621	0.000071
N29	N	0.989051	-0.114598	0.218778
C30	C	0.987621	0.469192	0.000071
C31	C	0.896069	0.421758	-0.000281
C32	C	0.897721	0.325068	0.000066
C33	C	0.990564	0.301631	0.000069
C34	C	1.035701	0.342705	0.087831
C35	C	1.033401	0.439340	0.087904
C36	C	1.035330	0.439707	-0.086861
C37	C	1.035309	0.342762	-0.088021
C38	C	0.992231	0.206934	0.000071
C39	C	0.985956	0.563890	0.000075
N40	N	0.989140	-0.114572	-0.218631
C41	C	0.989111	-0.114581	0.592869
C42	C	0.920095	-0.183135	0.553698
C43	C	0.920254	-0.183385	0.446610
C44	C	0.989081	-0.114590	0.407278
C45	C	1.076445	-0.133671	0.446122
C46	C	1.076057	-0.134159	0.553243
C47	C	0.971542	-0.026741	0.553398
C48	C	0.969538	-0.027327	0.446270
C49	C	0.989069	-0.114593	0.302390
C50	C	0.989128	-0.114579	0.697757
H51	H	0.416874	-0.125979	-0.153359
N52	N	0.935071	-0.269773	0.412753
H53	H	0.987978	-0.265464	0.374124
H54	H	0.885586	-0.293957	0.374089
H55	H	1.092297	-0.197002	0.419285
H56	H	0.433166	0.014865	-0.062168
H57	H	0.854945	-0.171953	0.579481
H58	H	0.577852	0.012275	0.062973
N59	N	0.392444	-0.247943	-0.092998
H60	H	0.436411	-0.288508	-0.095262
H61	H	0.356553	-0.254667	-0.150507
H62	H	0.545930	-0.229421	-0.090955
N63	N	0.989757	0.463577	0.174794
H64	H	0.938336	0.491510	0.157784
H65	H	1.029559	0.503917	0.212089
H66	H	1.100617	0.471588	0.091888
N67	N	0.994146	0.305125	0.174349
H68	H	1.036641	0.277752	0.212120
H69	H	0.946085	0.261534	0.156827
H70	H	0.861973	0.297200	0.063079
H71	H	0.547101	-0.228494	0.093461
N72	N	0.407578	-0.121174	0.175121
H73	H	0.375858	-0.071893	0.159576
H74	H	0.458830	-0.101007	0.213198
H75	H	0.909219	-0.008392	0.580461
N76	N	1.038190	0.040848	0.586959
H77	H	1.068812	0.068981	0.532211
H78	H	1.079522	0.014689	0.627547
H79	H	1.129029	-0.085068	0.420643
H80	H	1.103909	0.328579	0.091097
N81	N	0.569398	-0.119653	-0.174200
H82	H	0.523580	-0.097374	-0.211836
H83	H	0.596787	-0.162182	-0.211910
H84	H	0.559040	-0.127830	0.153082
H85	H	0.403031	-0.228313	0.087600
H86	H	1.005412	0.460250	-0.153379
N87	N	0.991651	0.306618	-0.174027
H88	H	0.943093	0.263777	-0.156015
H89	H	1.032884	0.278621	-0.212971
H90	H	1.129018	-0.086196	0.579154
N91	N	1.124995	0.322421	-0.095044
H92	H	1.137950	0.286096	-0.040979
H93	H	1.164489	0.376359	-0.094289
H94	H	0.862239	0.296649	-0.062846
H95	H	1.102831	0.471468	-0.087449
N96	N	0.847606	0.446307	-0.083641
H97	H	0.884523	0.488416	-0.121989
H98	H	0.796127	0.472243	-0.062624
N99	N	1.096565	-0.219011	0.586337
H100	H	1.105770	-0.255747	0.531339
H101	H	1.048312	-0.246533	0.624664
N102	N	0.884382	-0.008168	0.412709
H103	H	0.858567	-0.055805	0.372406
H104	H	0.891055	0.045771	0.375811
H105	H	0.859626	0.441349	0.062299
N106	N	0.834236	-0.168330	0.411814
H107	H	0.795873	-0.161472	0.466064
H108	H	0.810177	-0.217868	0.373152
H109	H	0.434210	0.015027	0.063352
N110	N	0.586366	0.024123	-0.083403
H111	H	0.539824	0.046142	-0.120114
H112	H	0.616222	-0.014946	-0.123326
N113	N	0.934771	-0.269003	0.589294
H114	H	0.985928	-0.263688	0.630689
H115	H	0.944211	-0.306955	0.535419
H116	H	1.016541	0.026079	0.419500
