data_functionalizedCrystal
_audit_creation_method	'MofGen! by Chris Wilmer'
_symmetry_space_group_name_H-M	'P1'
_symmetry_Int_Tables_number	1
_symmetry_cell_setting	triclinic
loop_
_symmetry_equiv_pos_as_xyz
  x,y,z
_cell_length_a	18.101398
_cell_length_b	21.295417
_cell_length_c	21.295420
_cell_angle_alpha	90.018953
_cell_angle_beta	90.011709
_cell_angle_gamma	90.025773
loop_
_atom_site_label
_atom_site_type_symbol
_atom_site_fract_x
_atom_site_fract_y
_atom_site_fract_z
Zn1	Zn	1.132032	-0.250777	0.356000
Zn2	Zn	1.632032	0.249223	0.856000
Zn3	Zn	1.131956	-0.356024	0.250726
Zn4	Zn	1.631956	0.143976	0.750726
Zn5	Zn	1.008218	-0.250764	0.250736
Zn6	Zn	1.508218	0.249236	0.750736
Zn7	Zn	1.008143	-0.356004	0.355948
Zn8	Zn	1.508143	0.143996	0.855948
O9	O	1.070087	-0.303392	0.303352
O10	O	1.570087	0.196608	0.803352
O11	O	1.235655	-0.264752	0.342053
O12	O	1.735655	0.235248	0.842053
O13	O	1.115542	-0.342064	0.162638
O14	O	1.615542	0.157936	0.662638
O15	O	1.024705	-0.162676	0.264725
O16	O	1.524705	0.337324	0.764725
O17	O	1.235599	-0.342077	0.264709
O18	O	1.735599	0.157923	0.764709
O19	O	1.115671	-0.162686	0.342063
O20	O	1.615671	0.337314	0.842063
O21	O	1.024632	-0.264730	0.162645
O22	O	1.524632	0.235270	0.662645
O23	O	0.904575	-0.264710	0.264674
O24	O	1.404575	0.235290	0.764674
O25	O	1.024577	-0.342042	0.444044
O26	O	1.524577	0.157958	0.944044
O27	O	0.904520	-0.342029	0.341973
O28	O	1.404520	0.157971	0.841973
O29	O	1.115598	-0.264733	0.444083
O30	O	1.615598	0.235267	0.944083
O31	O	1.115469	-0.444111	0.264657
O32	O	1.615469	0.055889	0.764657
O33	O	1.024504	-0.444096	0.341964
O34	O	1.524504	0.055904	0.841964
C35	C	0.877677	-0.303367	0.303319
C36	C	1.377677	0.196633	0.803319
C37	C	0.795363	-0.303371	0.303320
C38	C	1.295363	0.196629	0.803320
C39	C	0.496272	-0.303410	0.303373
C40	C	0.996272	0.196590	0.803373
C41	C	0.527607	-0.254520	0.254976
C42	C	1.027607	0.245480	0.754976
C43	C	0.613225	-0.254651	0.254770
C44	C	1.113225	0.245349	0.754770
C45	C	0.644654	-0.303390	0.303347
C46	C	1.144654	0.196610	0.803347
C47	C	0.613542	-0.369697	0.285216
C48	C	1.113542	0.130303	0.785216
C49	C	0.527896	-0.369425	0.284880
C50	C	1.027896	0.130575	0.784880
C51	C	0.527869	-0.286570	0.370015
C52	C	1.027869	0.213430	0.870015
C53	C	0.613520	-0.285093	0.369651
C54	C	1.113520	0.214907	0.869651
C55	C	0.728514	-0.303383	0.303333
C56	C	1.228514	0.196617	0.803333
C57	C	0.412412	-0.303422	0.303385
C58	C	0.912412	0.196578	0.803385
C59	C	1.069990	-0.466944	0.303317
C60	C	1.569990	0.033056	0.803317
C61	C	1.070016	-0.536912	0.303324
C62	C	1.570016	-0.036912	0.803324
C63	C	1.117424	-0.569765	0.263112
C64	C	1.617424	-0.069765	0.763112
C65	C	1.117459	-0.635508	0.263126
C66	C	1.617459	-0.135508	0.763126
C67	C	1.070073	-0.668394	0.303345
C68	C	1.570073	-0.168394	0.803345
C69	C	1.022662	-0.635533	0.343565
C70	C	1.522662	-0.135533	0.843565
C71	C	1.022633	-0.569792	0.343554
C72	C	1.522633	-0.069792	0.843554
N73	N	1.005287	-0.771657	0.308133
N74	N	1.505287	-0.271657	0.808133
N75	N	1.005316	-0.834108	0.308140
N76	N	1.505316	-0.334108	0.808140
C77	C	1.070155	-0.866469	0.303381
C78	C	1.570155	-0.366469	0.803381
N79	N	1.134967	-0.834019	0.298604
N80	N	1.634967	-0.334019	0.798604
N81	N	1.134937	-0.771562	0.298594
N82	N	1.634937	-0.271562	0.798594
C83	C	1.070098	-0.739680	0.303362
C84	C	1.570098	-0.239680	0.803362
C85	C	1.117605	-0.970608	0.263183
C86	C	1.617605	-0.470608	0.763183
C87	C	1.117641	-1.036352	0.263201
C88	C	1.617641	-0.536352	0.763201
C89	C	1.022837	-1.036376	0.343637
C90	C	1.522837	-0.536376	0.843637
C91	C	1.022808	-0.970633	0.343622
C92	C	1.522808	-0.470633	0.843622
C93	C	1.070191	-0.937753	0.303391
C94	C	1.570191	-0.437753	0.803391
C95	C	1.263249	-0.303418	0.303386
C96	C	1.763249	0.196582	0.803386
C97	C	1.345563	-0.303429	0.303400
C98	C	1.845563	0.196571	0.803400
C99	C	1.070087	-0.303387	0.467543
C100	C	1.570087	0.196613	0.967543
C101	C	1.070088	-0.303384	0.537511
C102	C	1.570088	0.196616	1.037511
C103	C	1.070205	-0.139202	0.303401
C104	C	1.570205	0.360798	0.803401
C105	C	1.070255	-0.069234	0.303422
C106	C	1.570255	0.430766	0.803422
C107	C	1.117449	-0.263136	1.036990
C108	C	1.617449	0.236864	1.536990
C109	C	1.117457	-0.263137	0.971247
C110	C	1.617457	0.236863	1.471247
C111	C	1.070069	-0.303387	0.938350
C112	C	1.570069	0.196613	1.438350
C113	C	1.022683	-0.343649	0.971201
C114	C	1.522683	0.156351	1.471201
C115	C	1.022682	-0.343651	1.036942
C116	C	1.522682	0.156349	1.536942
N117	N	1.005243	-0.308204	0.835116
N118	N	1.505243	0.191796	1.335116
N119	N	1.005246	-0.308198	0.772665
N120	N	1.505246	0.191802	1.272665
C121	C	1.070071	-0.303384	0.740275
C122	C	1.570071	0.196616	1.240275
N123	N	1.134894	-0.298563	0.772697
N124	N	1.634894	0.201437	1.272697
N125	N	1.134890	-0.298565	0.835154
N126	N	1.634890	0.201435	1.335154
C127	C	1.070065	-0.303389	0.867065
C128	C	1.570065	0.196611	1.367065
C129	C	1.117466	-0.263128	0.636147
C130	C	1.617466	0.236872	1.136147
C131	C	1.117475	-0.263134	0.570403
C132	C	1.617475	0.236866	1.070403
C133	C	1.022695	-0.343642	0.570358
C134	C	1.522695	0.156358	1.070358
C135	C	1.022692	-0.343640	0.636101
C136	C	1.522692	0.156360	1.136101
C137	C	1.070077	-0.303380	0.668991
C138	C	1.570077	0.196620	1.168991
C139	C	1.070078	-0.303406	1.139801
C140	C	1.570078	0.196594	1.639801
C141	C	1.070067	-0.303391	1.069833
C142	C	1.570067	0.196609	1.569833
H143	H	0.506070	-0.265525	0.205883
H144	H	1.006070	0.234475	0.705883
H145	H	1.156037	-0.230356	1.063765
H146	H	1.656037	0.269644	1.563765
C147	C	1.169580	-0.218849	0.935113
C148	C	1.669580	0.281151	1.435113
N149	N	1.208838	-0.185490	0.907898
N150	N	1.708838	0.314510	1.407898
C151	C	0.499809	-0.187889	0.270158
C152	C	0.999809	0.312111	0.770158
N153	N	0.478867	-0.137702	0.281593
N154	N	0.978867	0.362298	0.781593
H155	H	1.156066	-0.662263	0.230380
H156	H	1.656066	-0.162263	0.730380
C157	C	0.970554	-0.387922	0.935013
C158	C	1.470554	0.112078	1.435013
N159	N	0.931290	-0.421271	0.907756
N160	N	1.431290	0.078729	1.407756
C161	C	0.641647	-0.188223	0.270115
C162	C	1.141647	0.311777	0.770115
N163	N	0.663051	-0.138185	0.281669
N164	N	1.163051	0.361815	0.781669
H165	H	0.984096	-0.376433	1.063682
H166	H	1.484096	0.123567	1.563682
C167	C	0.500877	-0.388713	0.219061
C168	C	1.000877	0.111287	0.719061
N169	N	0.480529	-0.403239	0.169484
N170	N	0.980529	0.096761	0.669484
H171	H	0.984105	-0.376417	0.662842
H172	H	1.484105	0.123583	1.162842
H173	H	0.984113	-0.376417	0.543574
H174	H	1.484113	0.123583	1.043574
H175	H	0.633692	-0.265782	0.205389
H176	H	1.133692	0.234218	0.705389
C177	C	0.499889	-0.420304	0.330419
C178	C	0.999889	0.079696	0.830419
N179	N	0.478797	-0.458628	0.364717
N180	N	0.978797	0.041372	0.864717
H181	H	0.633898	-0.407099	0.319363
H182	H	1.133898	0.092901	0.819363
C183	C	0.642481	-0.389326	0.220107
C184	C	1.142481	0.110674	0.720107
N185	N	0.664276	-0.404107	0.171065
N186	N	1.164276	0.095893	0.671065
C187	C	1.169737	-0.934438	0.218938
C188	C	1.669737	-0.434438	0.718938
N189	N	1.209007	-0.907197	0.185614
N190	N	1.709007	-0.407197	0.685614
H191	H	0.506292	-0.239062	0.386499
H192	H	1.006292	0.260938	0.886499
H193	H	0.633860	-0.236299	0.383323
H194	H	1.133860	0.263701	0.883323
H195	H	0.634915	-0.318109	0.407644
H196	H	1.134915	0.181891	0.907644
H197	H	0.507603	-0.322180	0.406075
H198	H	1.007603	0.177820	0.906075
H199	H	1.156008	-0.542997	0.230355
H200	H	1.656008	-0.042997	0.730355
H201	H	1.156049	-0.230345	0.662928
H202	H	1.656049	0.269655	1.162928
C203	C	0.970534	-0.671709	0.387805
C204	C	1.470534	-0.171709	0.887805
N205	N	0.931271	-0.698957	0.421128
N206	N	1.431271	-0.198957	0.921128
C207	C	0.970488	-0.533652	0.387801
C208	C	1.470488	-0.033652	0.887801
N209	N	0.931215	-0.506430	0.421130
N210	N	1.431215	-0.006430	0.921130
C211	C	1.169795	-1.072491	0.218962
C212	C	1.669795	-0.572491	0.718962
N213	N	1.209077	-1.099711	0.185638
N214	N	1.709077	-0.599711	0.685638
C215	C	0.970713	-1.072547	0.387881
C216	C	1.470713	-0.572547	0.887881
N217	N	0.931452	-1.099794	0.421207
N218	N	1.431452	-0.599794	0.921207
C219	C	0.970670	-0.934493	0.387872
C220	C	1.470670	-0.434493	0.887872
N221	N	0.931406	-0.907272	0.421210
N222	N	1.431406	-0.407272	0.921210
C223	C	1.169601	-0.218846	0.534276
C224	C	1.669601	0.281154	1.034276
N225	N	1.208861	-0.185487	0.507065
N226	N	1.708861	0.314513	1.007065
