data_functionalizedCrystal
_audit_creation_method	'MofGen! by Chris Wilmer'
_symmetry_space_group_name_H-M	'P1'
_symmetry_Int_Tables_number	1
_symmetry_cell_setting	triclinic
loop_
_symmetry_equiv_pos_as_xyz
  x,y,z
_cell_length_a	23.532355
_cell_length_b	23.532357
_cell_length_c	13.930277
_cell_angle_alpha	89.989902
_cell_angle_beta	89.998607
_cell_angle_gamma	82.827896
loop_
_atom_site_label
_atom_site_type_symbol
_atom_site_fract_x
_atom_site_fract_y
_atom_site_fract_z
O1	O	0.755269	0.068995	-0.079712
O2	O	0.589399	0.079030	-0.079744
O3	O	0.677351	-0.008922	-0.079707
O4	O	0.667317	0.156947	-0.079749
O5	O	0.677338	-0.008924	0.079955
O6	O	0.589387	0.079028	0.079918
O7	O	0.755256	0.068994	0.079950
Zn8	Zn	0.672320	0.074010	0.105284
Zn9	Zn	0.672336	0.074013	-0.105078
O10	O	0.667305	0.156945	0.079913
C11	C	0.568177	0.078778	0.000083
C12	C	0.504958	0.078024	0.000072
C13	C	0.112939	0.073285	0.087145
C14	C	0.053539	0.072567	0.087149
O15	O	0.022815	0.072176	0.161165
N16	N	0.023837	0.072212	0.000117
C17	C	0.053539	0.072569	-0.086923
O18	O	0.022821	0.072201	-0.160950
C19	C	0.112938	0.073283	-0.086926
C20	C	0.142636	0.073643	0.000111
C21	C	0.142637	0.073645	0.174175
C22	C	0.202032	0.074363	0.174170
C23	C	0.231729	0.074722	0.087136
C24	C	0.202031	0.074362	0.000106
C25	C	0.142638	0.073636	-0.173966
C26	C	0.202041	0.074349	-0.173962
C27	C	0.231739	0.074709	-0.086925
C28	C	0.291123	0.075439	-0.086932
N29	N	0.320824	0.075794	0.000099
C30	C	0.291127	0.075435	0.087133
C31	C	-0.071202	0.071070	-0.086911
C32	C	-0.130601	0.070361	-0.086909
C33	C	-0.130596	0.070358	0.087164
C34	C	-0.071197	0.071071	0.087161
C35	C	-0.041501	0.071425	0.000121
C36	C	0.415861	0.076944	0.087118
C37	C	0.475261	0.077665	0.087106
C38	C	0.475252	0.077665	-0.086966
C39	C	0.415856	0.076948	-0.086955
C40	C	0.386163	0.076585	0.000095
O41	O	0.321885	0.075828	-0.160910
O42	O	0.321854	0.075796	0.161148
C43	C	0.677094	-0.030140	0.000127
C44	C	0.676339	-0.093358	0.000136
C45	C	0.671609	-0.485367	-0.086949
C46	C	0.670891	-0.544767	-0.086954
O47	O	0.670507	-0.575482	-0.160972
N48	N	0.670529	-0.574479	0.000076
C49	C	0.670878	-0.544788	0.087118
O50	O	0.670504	-0.575514	0.161143
C51	C	0.671592	-0.485389	0.087122
C52	C	0.671960	-0.455681	0.000086
C53	C	0.671976	-0.455659	-0.173978
C54	C	0.672694	-0.396264	-0.173972
C55	C	0.673045	-0.366577	-0.086937
C56	C	0.672678	-0.396286	0.000092
C57	C	0.671937	-0.455698	0.174163
C58	C	0.672649	-0.396296	0.174160
C59	C	0.673017	-0.366587	0.087124
C60	C	0.673747	-0.307204	0.087133
N61	N	0.674109	-0.277492	0.000103
C62	C	0.673758	-0.307178	-0.086932
C63	C	0.669380	-0.669529	0.087101
C64	C	0.668671	-0.728927	0.087098
C65	C	0.668683	-0.728902	-0.086975
C66	C	0.669396	-0.669503	-0.086970
C67	C	0.669742	-0.639817	0.000071
C68	C	0.675267	-0.182445	-0.086913
C69	C	0.675988	-0.123045	-0.086899
C70	C	0.675973	-0.123075	0.087172
C71	C	0.675255	-0.182470	0.087159
C72	C	0.674901	-0.212153	0.000109
O73	O	0.674130	-0.276450	0.161112
O74	O	0.674126	-0.276444	-0.160945
C75	C	0.776479	0.069245	0.000121
C76	C	0.839698	0.069999	0.000126
C77	C	0.667562	0.178163	0.000077
C78	C	0.668317	0.241381	0.000062
N79	N	0.672313	0.074008	0.248850
N80	N	0.672347	0.074010	-0.248644
C81	C	0.633390	0.112943	0.701103
C82	C	0.711298	0.035078	0.701105
C83	C	0.711291	0.035077	0.600609
C84	C	0.672334	0.074009	0.550356
C85	C	0.633383	0.112943	0.600598
C86	C	0.750245	-0.003853	0.550359
C87	C	0.750240	-0.003856	0.449857
C88	C	0.711279	0.035074	0.399602
C89	C	0.672327	0.074010	0.449851
C90	C	0.633369	0.112942	0.399597
C91	C	0.594413	0.151875	0.449844
C92	C	0.594422	0.151874	0.550343
C93	C	0.711271	0.035076	0.299103
C94	C	0.633362	0.112943	0.299092
H95	H	0.391691	0.076654	0.158002
C96	C	-0.163267	0.069959	0.182903
H97	H	-0.137076	0.070278	0.234742
H98	H	-0.181898	0.036463	0.186525
H99	H	-0.190979	0.102901	0.186510
H100	H	0.781959	-0.035558	0.408953
C101	C	0.673096	-0.363589	-0.269710
H102	H	0.673577	-0.323961	-0.257255
H103	H	0.639766	-0.368783	-0.305477
H104	H	0.706203	-0.377864	-0.305459
H105	H	0.562696	0.183577	0.408916
C106	C	0.671521	-0.488366	0.269902
H107	H	0.671046	-0.527995	0.257449
H108	H	0.638414	-0.474086	0.305639
H109	H	0.704852	-0.483176	0.305680
C110	C	0.551558	0.194679	0.605610
H111	H	0.528345	0.217857	0.561290
H112	H	0.571888	0.218287	0.644820
H113	H	0.527982	0.174291	0.644809
C114	C	0.671596	-0.488306	-0.269725
H115	H	0.671922	-0.462098	-0.321547
H116	H	0.638104	-0.506941	-0.273370
H117	H	0.704542	-0.516013	-0.273337
H118	H	0.668395	-0.753083	-0.157843
H119	H	0.669695	-0.645319	-0.157843
H120	H	0.601671	0.144640	0.742016
C121	C	0.668271	-0.761601	0.182837
H122	H	0.668579	-0.735408	0.234668
H123	H	0.701206	-0.789315	0.186468
H124	H	0.634769	-0.780228	0.186448
C125	C	0.590511	0.155770	0.243816
H126	H	0.596084	0.150195	0.176766
H127	H	0.596472	0.193748	0.260279
H128	H	0.552538	0.149780	0.260293
H129	H	-0.154777	0.070077	-0.157783
H130	H	0.674961	-0.206660	0.158031
C131	C	0.754147	-0.007743	0.756381
H132	H	0.748571	-0.002169	0.823430
H133	H	0.792119	-0.001761	0.739898
H134	H	0.748180	-0.045724	0.739927
H135	H	0.676261	-0.098893	0.158034
H136	H	-0.047028	0.071364	-0.157794
H137	H	0.499438	0.077961	0.157985
H138	H	0.669663	-0.645362	0.157985
C139	C	0.754116	-0.007745	0.243836
H140	H	0.777317	-0.030932	0.288159
H141	H	0.777697	0.012619	0.204615
H142	H	0.733764	-0.031350	0.204648
H143	H	0.781966	-0.035548	0.591279
H144	H	0.226207	0.074653	0.245045
H145	H	0.674976	-0.206605	-0.157798
C146	C	0.234707	0.074740	-0.269706
H147	H	0.274337	0.075214	-0.257250
H148	H	0.220429	0.107837	-0.305478
H149	H	0.229513	0.041400	-0.305451
C150	C	0.676394	-0.090366	-0.182640
H151	H	0.676877	-0.050739	-0.170178
H152	H	0.643063	-0.095555	-0.218412
H153	H	0.709501	-0.104641	-0.218389
C154	C	0.109978	0.073255	0.269921
H155	H	0.136180	0.073576	0.321743
H156	H	0.091343	0.039762	0.273566
H157	H	0.082271	0.106200	0.273532
C158	C	0.109985	0.073226	-0.269708
H159	H	0.136188	0.073532	-0.321534
H160	H	0.082269	0.106159	-0.273361
H161	H	0.091362	0.039722	-0.273307
C162	C	-0.038533	0.071453	0.182900
H163	H	-0.064731	0.071132	0.234730
H164	H	-0.019895	0.104944	0.186524
H165	H	-0.010827	0.038506	0.186519
C166	C	0.507927	0.078055	-0.182696
H167	H	0.547555	0.078527	-0.170225
H168	H	0.493657	0.111151	-0.218478
H169	H	0.502735	0.044714	-0.218438
C170	C	0.383185	0.076570	-0.182692
H171	H	0.409381	0.076888	-0.234526
H172	H	0.355473	0.109508	-0.186306
H173	H	0.364555	0.043070	-0.186314
H174	H	0.672923	-0.372127	0.245041
