data_functionalizedCrystal
_audit_creation_method	'MofGen! by Chris Wilmer'
_symmetry_space_group_name_H-M	'P1'
_symmetry_Int_Tables_number	1
_symmetry_cell_setting	triclinic
loop_
_symmetry_equiv_pos_as_xyz
  x,y,z
_cell_length_a	15.944499
_cell_length_b	15.944551
_cell_length_c	14.421503
_cell_angle_alpha	90.003340
_cell_angle_beta	89.989779
_cell_angle_gamma	83.488174
loop_
_atom_site_label
_atom_site_type_symbol
_atom_site_fract_x
_atom_site_fract_y
_atom_site_fract_z
O1	O	1.114556	0.108114	-0.077169
O2	O	1.614556	0.608114	0.422831
O3	O	0.870001	0.121515	-0.077159
O4	O	1.370001	0.621515	0.422841
O5	O	0.998957	-0.007462	-0.077156
O6	O	1.498957	0.492538	0.422844
O7	O	0.985600	0.237090	-0.077172
O8	O	1.485600	0.737090	0.422828
O9	O	0.998935	-0.007442	0.077067
O10	O	1.498935	0.492558	0.577067
O11	O	0.869979	0.121534	0.077064
O12	O	1.369979	0.621534	0.577064
O13	O	1.114535	0.108133	0.077054
O14	O	1.614535	0.608133	0.577054
Cu15	Cu	0.992255	0.114835	0.091141
Cu16	Cu	1.492255	0.614835	0.591141
Cu17	Cu	0.992281	0.114813	-0.091246
Cu18	Cu	1.492281	0.614813	0.408754
O19	O	0.985579	0.237110	0.077051
O20	O	1.485579	0.737110	0.577051
C21	C	0.838695	0.120976	-0.000046
C22	C	1.338695	0.620976	0.499954
C23	C	0.745447	0.119331	-0.000042
C24	C	1.245447	0.619331	0.499958
C25	C	0.453911	0.194263	-0.000061
C26	C	0.953911	0.694263	0.499939
C27	C	0.514951	0.155302	-0.076100
C28	C	1.014951	0.655302	0.423900
C29	C	0.409810	0.113355	-0.000063
C30	C	0.909810	0.613355	0.499937
C31	C	0.514916	0.155299	0.075952
C32	C	1.014916	0.655299	0.575952
C33	C	0.574719	0.116296	-0.000051
C34	C	1.074719	0.616296	0.499949
C35	C	0.469622	0.074371	-0.076165
C36	C	0.969622	0.574371	0.423835
C37	C	0.469581	0.074380	0.075955
C38	C	0.969581	0.574380	0.575955
C39	C	0.530603	0.035360	-0.000102
C40	C	1.030603	0.535360	0.499898
C41	C	0.314810	0.111663	-0.000071
C42	C	0.814810	0.611663	0.499929
C43	C	0.669718	0.117981	-0.000050
C44	C	1.169718	0.617981	0.499950
C45	C	0.998392	-0.038746	-0.000044
C46	C	1.498392	0.461254	0.499956
C47	C	0.996729	-0.131992	-0.000044
C48	C	1.496729	0.368008	0.499956
C49	C	0.912823	-0.346833	-0.000053
C50	C	1.412823	0.153167	0.499947
C51	C	0.951776	-0.407848	0.075987
C52	C	1.451776	0.092152	0.575987
C53	C	0.993722	-0.302717	-0.000051
C54	C	1.493722	0.197283	0.499949
C55	C	0.951816	-0.407850	-0.076065
C56	C	1.451816	0.092150	0.423935
C57	C	0.990811	-0.467629	-0.000061
C58	C	1.490811	0.032371	0.499939
C59	C	1.032697	-0.362504	0.076052
C60	C	1.532697	0.137496	0.576052
C61	C	1.032726	-0.362500	-0.076069
C62	C	1.532726	0.137500	0.423931
C63	C	1.071737	-0.423497	-0.000010
C64	C	1.571737	0.076503	0.499990
C65	C	0.995397	-0.207715	-0.000044
C66	C	1.495397	0.292285	0.499956
C67	C	0.989143	-0.562630	-0.000062
C68	C	1.489143	-0.062630	0.499938
C69	C	1.145840	0.108672	-0.000061
C70	C	1.645840	0.608672	0.499939
C71	C	1.239089	0.110317	-0.000071
C72	C	1.739089	0.610317	0.499929
C73	C	0.986144	0.268394	-0.000063
C74	C	1.486144	0.768394	0.499937
C75	C	0.987806	0.361640	-0.000069
C76	C	1.487806	0.861640	0.499931
N77	N	0.992244	0.114851	0.219422
N78	N	1.492244	0.614851	0.719422
N79	N	0.992299	0.114791	-0.219527
N80	N	1.492299	0.614791	0.280473
C81	C	0.932604	0.174463	0.469075
C82	C	1.432604	0.674463	0.969075
C83	C	1.008506	0.190756	0.530873
C84	C	1.508506	0.690756	1.030873
C85	C	0.992264	0.114831	0.408584
C86	C	1.492264	0.614831	0.908584
C87	C	0.916382	0.098557	0.530879
C88	C	1.416382	0.598557	1.030879
C89	C	0.992277	0.114813	0.591305
C90	C	1.492277	0.614813	1.091305
C91	C	1.068204	0.131162	0.469021
C92	C	1.568204	0.631162	0.969021
C93	C	0.976030	0.038930	0.469022
C94	C	1.476030	0.538930	0.969022
C95	C	1.051987	0.055191	0.530793
C96	C	1.551987	0.555191	1.030793
C97	C	0.992255	0.114843	0.303323
C98	C	1.492255	0.614843	0.803323
C99	C	0.992294	0.114800	0.696564
C100	C	1.492294	0.614800	1.196564
H101	H	0.534982	0.189542	0.140235
H102	H	1.034982	0.689542	0.640235
H103	H	0.845673	-0.313513	0.000026
H104	H	1.345673	0.186487	0.500026
O105	O	0.906451	-0.434467	0.161150
O106	O	1.406451	0.065533	0.661150
H107	H	0.840507	-0.403466	0.161000
H108	H	1.340507	0.096534	0.661000
H109	H	1.132396	0.144995	0.441964
H110	H	1.632396	0.644995	0.941964
O111	O	0.574504	-0.053680	-0.000145
O112	O	1.074504	0.446320	0.499855
H113	H	0.614990	-0.063472	-0.062705
H114	H	1.114990	0.436528	0.437295
H115	H	1.138946	-0.456668	0.000030
H116	H	1.638946	0.043332	0.500030
O117	O	0.906496	-0.434469	-0.161218
O118	O	1.406496	0.065531	0.338782
H119	H	0.884629	-0.377904	-0.203292
H120	H	1.384629	0.122096	0.296708
H121	H	0.962264	-0.025230	0.441833
H122	H	1.462264	0.474770	0.941833
O123	O	0.409758	0.283203	-0.000161
O124	O	0.909758	0.783203	0.499839
H125	H	0.370122	0.293310	0.063009
H126	H	0.870122	0.793310	0.563009
O127	O	0.443182	0.029074	-0.161419
O128	O	0.943182	0.529074	0.338581
H129	H	0.373673	0.028218	-0.160774
H130	H	0.873673	0.528218	0.339226
O131	O	1.077968	-0.336034	0.161306
O132	O	1.577968	0.163966	0.661306
H133	H	1.078813	-0.266524	0.160660
H134	H	1.578813	0.233476	0.660660
H135	H	0.449455	0.040195	0.140247
H136	H	0.949455	0.540195	0.640247
O137	O	0.831376	0.080326	0.566878
O138	O	1.331376	0.580326	1.066878
H139	H	0.788843	0.071846	0.507520
H140	H	1.288843	0.571846	1.007520
H141	H	1.066922	-0.342384	-0.140360
H142	H	1.566922	0.157616	0.359640
O143	O	0.865842	0.241307	0.433163
O144	O	1.365842	0.741307	0.933163
H145	H	0.879532	0.304244	0.457936
H146	H	1.379532	0.804244	0.957936
O147	O	1.026686	0.275757	0.566918
O148	O	1.526686	0.775757	1.066918
H149	H	0.977065	0.325156	0.542226
H150	H	1.477065	0.825156	1.042226
O151	O	0.541581	0.200620	-0.161258
O152	O	1.041581	0.700620	0.338742
H153	H	0.585611	0.156839	-0.203046
H154	H	1.085611	0.656839	0.296954
H155	H	1.102500	0.004751	0.557722
H156	H	1.602500	0.504751	1.057722
