data_functionalizedCrystal
_audit_creation_method	'MofGen! by Chris Wilmer'
_symmetry_space_group_name_H-M	'P1'
_symmetry_Int_Tables_number	1
_symmetry_cell_setting	triclinic
loop_
_symmetry_equiv_pos_as_xyz
  x,y,z
_cell_length_a	16.109293
_cell_length_b	22.610064
_cell_length_c	16.109304
_cell_angle_alpha	89.993120
_cell_angle_beta	96.539546
_cell_angle_gamma	89.988360
loop_
_atom_site_label
_atom_site_type_symbol
_atom_site_fract_x
_atom_site_fract_y
_atom_site_fract_z
O1	O	-1.103143	0.049228	0.106825
O2	O	-0.603143	0.549228	0.606825
O3	O	-0.861080	0.049218	0.120131
O4	O	-0.361080	0.549218	0.620131
O5	O	-0.988760	0.049223	-0.007553
O6	O	-0.488760	0.549223	0.492447
O7	O	-0.975463	0.049222	0.234509
O8	O	-0.475463	0.549222	0.734509
O9	O	-0.988737	-0.049146	-0.007535
O10	O	-0.488737	0.450854	0.492465
O11	O	-0.861058	-0.049151	0.120149
O12	O	-0.361058	0.450849	0.620149
O13	O	-1.103120	-0.049142	0.106843
O14	O	-0.603120	0.450858	0.606843
Zn15	Zn	-0.982085	-0.064765	0.113499
Zn16	Zn	-0.482085	0.435235	0.613499
Zn17	Zn	-0.982115	0.064841	0.113475
Zn18	Zn	-0.482115	0.564841	0.613475
O19	O	-0.975440	-0.049147	0.234527
O20	O	-0.475440	0.450853	0.734527
C21	C	-0.830094	0.000032	0.119602
C22	C	-0.330094	0.500032	0.619602
C23	C	-0.737798	0.000029	0.117990
C24	C	-0.237798	0.500029	0.617990
N25	N	-0.982071	-0.153217	0.113515
N26	N	-0.482071	0.346783	0.613515
C27	C	-0.525444	-0.053590	0.114271
C28	C	-0.025444	0.446410	0.614271
C29	C	-0.438724	-0.053590	0.112747
C30	C	0.061276	0.446410	0.612747
C31	C	-0.438759	0.053658	0.112731
C32	C	0.061241	0.553658	0.612731
C33	C	-0.525478	0.053657	0.114249
C34	C	-0.025478	0.553657	0.614249
C35	C	-0.568818	0.000031	0.115023
C36	C	-0.068818	0.500031	0.615023
C37	C	-0.395378	0.000032	0.111981
C38	C	0.104622	0.500032	0.611981
C39	C	-0.301352	0.000033	0.110329
C40	C	0.198648	0.500033	0.610329
C41	C	-0.662850	0.000030	0.116674
C42	C	-0.162850	0.500030	0.616674
C43	C	-1.038654	-0.561856	0.056945
C44	C	-0.538654	-0.061856	0.556945
C45	C	-1.038658	-0.623776	0.056939
C46	C	-0.538658	-0.123776	0.556939
O47	O	-1.086732	-0.655793	0.008853
O48	O	-0.586732	-0.155793	0.508853
N49	N	-0.982114	-0.654754	0.113457
N50	N	-0.482114	-0.154754	0.613457
C51	C	-0.925557	-0.623809	0.169980
C52	C	-0.425557	-0.123809	0.669980
O53	O	-0.877461	-0.655844	0.218053
O54	O	-0.377461	-0.155844	0.718053
C55	C	-0.925549	-0.561891	0.169982
C56	C	-0.425549	-0.061891	0.669982
C57	C	-0.982103	-0.530916	0.113465
C58	C	-0.482103	-0.030916	0.613465
C59	C	-1.095202	-0.530881	0.000432
C60	C	-0.595202	-0.030881	0.500432
C61	C	-1.095199	-0.468965	0.000439
C62	C	-0.595199	0.031035	0.500439
C63	C	-1.038647	-0.438025	0.056959
C64	C	-0.538647	0.061975	0.556959
C65	C	-0.982099	-0.469000	0.113472
C66	C	-0.482099	0.031000	0.613472
C67	C	-0.868988	-0.530947	0.226500
C68	C	-0.368988	-0.030947	0.726500
C69	C	-0.868985	-0.469024	0.226496
C70	C	-0.368985	0.030976	0.726496
C71	C	-0.925538	-0.438049	0.169979
C72	C	-0.425538	0.061951	0.669979
C73	C	-0.925544	-0.376144	0.169999
C74	C	-0.425544	0.123856	0.669999
N75	N	-0.982088	-0.345165	0.113481
N76	N	-0.482088	0.154835	0.613481
C77	C	-1.038640	-0.376106	0.056961
C78	C	-0.538640	0.123894	0.556961
C79	C	-0.925576	-0.753843	0.169972
C80	C	-0.425576	-0.253843	0.669972
C81	C	-0.925587	-0.815761	0.169975
C82	C	-0.425587	-0.315761	0.669975
C83	C	-1.038688	-0.815723	0.056933
C84	C	-0.538688	-0.315723	0.556933
C85	C	-1.038680	-0.753804	0.056934
C86	C	-0.538680	-0.253804	0.556934
C87	C	-0.982120	-0.722865	0.113453
C88	C	-0.482120	-0.222865	0.613453
C89	C	-1.038629	-0.246079	0.056981
C90	C	-0.538629	0.253921	0.556981
C91	C	-1.038623	-0.184158	0.056995
C92	C	-0.538623	0.315842	0.556995
C93	C	-0.925519	-0.184201	0.170035
C94	C	-0.425519	0.315799	0.670035
C95	C	-0.925528	-0.246116	0.170023
C96	C	-0.425528	0.253884	0.670023
C97	C	-0.982086	-0.277054	0.113490
C98	C	-0.482086	0.222946	0.613490
O99	O	-0.877493	-0.344088	0.218059
O100	O	-0.377493	0.155912	0.718059
O101	O	-1.086720	-0.344063	0.008889
O102	O	-0.586720	0.155937	0.508889
C103	C	-0.134106	0.000041	0.107379
C104	C	0.365894	0.500041	0.607379
C105	C	-0.226398	0.000034	0.109015
C106	C	0.273602	0.500034	0.609015
C107	C	-0.988210	0.000040	-0.038519
C108	C	-0.488210	0.500040	0.461481
C109	C	-0.986594	0.000044	-0.130814
C110	C	-0.486594	0.500044	0.369186
N111	N	-0.982136	0.153293	0.113452
N112	N	-0.482136	0.653293	0.613452
C113	C	-0.982872	0.053663	-0.343161
C114	C	-0.482872	0.553663	0.156839
C115	C	-0.981346	0.053662	-0.429882
C116	C	-0.481346	0.553662	0.070118
C117	C	-0.981326	-0.053585	-0.429858
C118	C	-0.481326	0.446415	0.070142
C119	C	-0.982846	-0.053584	-0.343139
C120	C	-0.482846	0.446416	0.156861
C121	C	-0.983623	0.000042	-0.299793
C122	C	-0.483623	0.500042	0.200207
C123	C	-0.980577	0.000040	-0.473233
C124	C	-0.480577	0.500040	0.026767
C125	C	-0.978922	0.000039	-0.567259
C126	C	-0.478922	0.500039	-0.067259
C127	C	-0.985276	0.000043	-0.205761
C128	C	-0.485276	0.500043	0.294239
C129	C	-0.975991	0.000038	0.265493
C130	C	-0.475991	0.500038	0.765493
C131	C	-0.977607	0.000038	0.357788
C132	C	-0.477607	0.500038	0.857788
H133	H	-0.560729	-0.097256	0.114902
H134	H	-0.060729	0.402744	0.614902
C135	C	-0.391083	0.112643	0.111902
C136	C	0.108917	0.612643	0.611902
H137	H	-0.429338	0.144577	0.112564
H138	H	0.070662	0.644577	0.612564
H139	H	-0.350906	0.114864	0.159769
H140	H	0.149094	0.614864	0.659769
H141	H	-0.363604	0.114880	0.062853
H142	H	0.136396	0.614880	0.562853
H143	H	-0.560795	0.097324	0.114860
H144	H	-0.060795	0.597324	0.614860
H145	H	-0.403412	-0.097254	0.112135
H146	H	0.096588	0.402746	0.612135
H147	H	-0.983453	-0.097251	-0.307827
H148	H	-0.483453	0.402749	0.192173
H149	H	-0.983503	0.097328	-0.307872
H150	H	-0.483503	0.597328	0.192128
H151	H	-1.084678	-0.158940	0.010973
H152	H	-0.584678	0.341060	0.510973
H153	H	-0.980733	0.097326	-0.465188
H154	H	-0.480733	0.597326	0.034812
H155	H	-0.822937	-0.556158	0.272520
H156	H	-0.322937	-0.056158	0.772520
H157	H	-1.141247	-0.443749	-0.045583
H158	H	-0.641247	0.056251	0.454417
C159	C	-0.980483	-0.112569	-0.477543
C160	C	-0.480483	0.387431	0.022457
H161	H	-0.979479	-0.104891	-0.535402
H162	H	-0.479479	0.395109	-0.035402
H163	H	-0.932275	-0.134607	-0.456974
H164	H	-0.432275	0.365393	0.043026
H165	H	-1.029190	-0.134594	-0.469679
H166	H	-0.529190	0.365406	0.030321
H167	H	-1.084683	-0.271261	0.010945
H168	H	-0.584683	0.228739	0.510945
H169	H	-1.141254	-0.556067	-0.045597
H170	H	-0.641254	-0.056067	0.454403
C171	C	-1.100882	-0.719737	-0.005240
C172	C	-0.600882	-0.219737	0.494760
H173	H	-1.134557	-0.747038	-0.038901
H174	H	-0.634557	-0.247038	0.461099
H175	H	-1.135479	-0.695576	0.024673
H176	H	-0.635479	-0.195576	0.524673
H177	H	-1.070979	-0.695589	-0.039864
H178	H	-0.570979	-0.195589	0.460136
C179	C	-1.100886	-0.849766	-0.005247
C180	C	-0.600886	-0.349766	0.494753
H181	H	-1.092780	-0.891078	0.002844
H182	H	-0.592780	-0.391078	0.502844
H183	H	-1.156371	-0.839614	0.003789
H184	H	-0.656371	-0.339614	0.503789
H185	H	-1.091863	-0.839614	-0.060740
H186	H	-0.591863	-0.339614	0.439260
C187	C	-0.863387	-0.849829	0.232149
C188	C	-0.363387	-0.349829	0.732149
H189	H	-0.871487	-0.891138	0.224061
H190	H	-0.371487	-0.391138	0.724061
H191	H	-0.807905	-0.839687	0.223106
H192	H	-0.307905	-0.339687	0.723106
H193	H	-0.872407	-0.839685	0.287642
H194	H	-0.372407	-0.339685	0.787642
C195	C	-0.863367	-0.719815	0.232158
C196	C	-0.363367	-0.219815	0.732158
H197	H	-0.829702	-0.747136	0.265820
H198	H	-0.329702	-0.247136	0.765820
H199	H	-0.828761	-0.695662	0.202251
H200	H	-0.328761	-0.195662	0.702251
H201	H	-0.893266	-0.695661	0.266782
H202	H	-0.393266	-0.195661	0.766782
H203	H	-0.822924	-0.443836	0.272520
H204	H	-0.322924	0.056164	0.772520
C205	C	-0.863312	-0.150158	0.232196
C206	C	-0.363312	0.349842	0.732196
H207	H	-0.871406	-0.108846	0.224093
H208	H	-0.371406	0.391154	0.724093
H209	H	-0.872310	-0.160305	0.287692
H210	H	-0.372310	0.339695	0.787692
H211	H	-0.807830	-0.160314	0.223135
H212	H	-0.307830	0.339686	0.723135
C213	C	-0.863290	-0.280190	0.232158
C214	C	-0.363290	0.219810	0.732158
H215	H	-0.829597	-0.252892	0.265807
H216	H	-0.329597	0.247108	0.765807
H217	H	-0.893145	-0.304363	0.266788
H218	H	-0.393145	0.195637	0.766788
H219	H	-0.828703	-0.304327	0.202193
H220	H	-0.328703	0.195673	0.702193
