data_functionalizedCrystal
_audit_creation_method	'MofGen! by Chris Wilmer'
_symmetry_space_group_name_H-M	'P1'
_symmetry_Int_Tables_number	1
_symmetry_cell_setting	triclinic
loop_
_symmetry_equiv_pos_as_xyz
  x,y,z
_cell_length_a	19.288864
_cell_length_b	11.792254
_cell_length_c	17.766277
_cell_angle_alpha	89.993496
_cell_angle_beta	89.976791
_cell_angle_gamma	83.667422
loop_
_atom_site_label
_atom_site_type_symbol
_atom_site_fract_x
_atom_site_fract_y
_atom_site_fract_z
O1	O	0.922161	0.141581	-0.062836
O2	O	0.720010	0.160681	-0.062785
O3	O	0.825987	-0.014113	-0.062806
O4	O	0.816184	0.316375	-0.062815
O5	O	0.825968	-0.014122	0.062382
O6	O	0.719991	0.160672	0.062404
O7	O	0.922143	0.141573	0.062352
Cu8	Cu	0.821065	0.151121	0.073809
Cu9	Cu	0.821087	0.151132	-0.074241
O10	O	0.816166	0.316366	0.062374
C11	C	0.694120	0.160062	-0.000184
C12	C	0.617006	0.158217	-0.000164
C13	C	0.825360	-0.056399	-0.000212
C14	C	0.823512	-0.182384	-0.000212
C15	C	0.572895	0.260778	-0.000178
C16	C	0.500438	0.259045	-0.000187
C17	C	0.472095	0.154745	-0.000196
C18	C	0.516216	0.052170	-0.000177
C19	C	0.588671	0.053906	-0.000161
C20	C	0.363372	0.072757	-0.044078
C21	C	0.290918	0.071025	-0.044099
C22	C	0.248619	0.149386	-0.000241
C23	C	0.278783	0.229498	0.043627
C24	C	0.351238	0.231234	0.043643
C25	C	0.393531	0.152851	-0.000212
C26	C	0.125942	0.250075	-0.000263
C27	C	0.053484	0.248337	-0.000267
C28	C	0.069263	0.041460	-0.000265
C29	C	0.141719	0.043200	-0.000254
C30	C	0.170054	0.147511	-0.000257
C31	C	0.822010	-0.284697	-0.000215
C32	C	0.820132	-0.413056	-0.000221
C33	C	0.948032	0.142192	-0.000250
C34	C	1.025146	0.144036	-0.000275
C35	C	0.816792	0.358652	-0.000222
C36	C	0.818641	0.484637	-0.000227
N37	N	0.821054	0.151113	0.177939
N38	N	0.821103	0.151131	-0.178371
C39	C	0.867996	0.073753	0.217316
C40	C	0.868000	0.073747	0.296118
C41	C	0.821069	0.151122	0.335540
C42	C	0.774118	0.228489	0.296153
C43	C	0.774111	0.228484	0.217353
C44	C	0.812361	0.254532	0.460377
C45	C	0.812373	0.254538	0.539175
C46	C	0.821088	0.151136	0.578586
C47	C	0.829805	0.047723	0.539188
C48	C	0.829798	0.047718	0.460388
C49	C	0.821072	0.151135	0.420985
C50	C	0.868037	0.073763	0.703409
C51	C	0.868036	0.073756	0.782213
C52	C	0.774157	0.228508	0.782246
C53	C	0.774154	0.228505	0.703444
C54	C	0.821098	0.151134	0.664030
H55	H	0.595960	0.345715	-0.000182
C56	C	0.409897	-0.013446	-0.092321
H57	H	0.457369	-0.000948	-0.086024
H58	H	0.397292	-0.003754	-0.143791
H59	H	0.403740	-0.088824	-0.076897
H60	H	0.906219	0.010750	0.185228
C61	C	0.722497	0.313602	0.339513
H62	H	0.729229	0.302534	0.392084
H63	H	0.676096	0.301470	0.326628
H64	H	0.730328	0.389320	0.326584
C65	C	0.384417	0.319339	0.091900
H66	H	0.348854	0.365758	0.118024
H67	H	0.409207	0.365844	0.060289
H68	H	0.415653	0.280762	0.127175
C69	C	0.802779	0.368283	0.417032
H70	H	0.797600	0.429869	0.451780
H71	H	0.762344	0.370754	0.386311
H72	H	0.842493	0.374405	0.386273
H73	H	0.017569	0.331858	-0.000274
C74	C	0.451905	0.371862	-0.000206
H75	H	0.404695	0.355886	-0.000211
H76	H	0.460562	0.414646	-0.043862
H77	H	0.460510	0.414649	0.043455
C78	C	0.232264	0.315706	0.091868
H79	H	0.184793	0.303196	0.085583
H80	H	0.238421	0.391078	0.076445
H81	H	0.244871	0.306013	0.143341
C82	C	0.157114	0.364809	-0.000259
H83	H	0.120462	0.425644	-0.000258
H84	H	0.185072	0.369790	-0.043910
H85	H	0.185028	0.369781	0.043407
H86	H	0.735884	0.291482	0.185291
C87	C	0.038095	-0.073268	-0.000279
H88	H	-0.011375	-0.059615	-0.000296
H89	H	0.053186	-0.115493	0.043377
H90	H	0.053234	-0.115471	-0.043940
C91	C	0.722525	0.313615	0.660127
H92	H	0.694578	0.359704	0.694888
H93	H	0.693457	0.272910	0.629405
H94	H	0.747691	0.360758	0.629371
C95	C	0.839397	-0.066029	0.582525
H96	H	0.844593	-0.127613	0.547776
H97	H	0.799692	-0.072169	0.613288
H98	H	0.879838	-0.068485	0.613242
H99	H	0.836894	-0.036484	0.428313
C100	C	0.190243	-0.069618	-0.000250
H101	H	0.162988	-0.131985	-0.000262
H102	H	0.218814	-0.073247	0.043411
H103	H	0.218858	-0.073233	-0.043907
H104	H	0.624587	-0.029614	-0.000150
H105	H	0.266364	0.005797	-0.079822
H106	H	0.906259	0.010759	0.671318
H107	H	0.906227	0.010748	0.328185
H108	H	0.906260	0.010754	0.814274
H109	H	0.493135	-0.032751	-0.000195
H110	H	0.735942	0.291504	0.814342
H111	H	0.805279	0.338743	0.571247
