data_functionalizedCrystal
_audit_creation_method	'MofGen! by Chris Wilmer'
_symmetry_space_group_name_H-M	'P1'
_symmetry_Int_Tables_number	1
_symmetry_cell_setting	triclinic
loop_
_symmetry_equiv_pos_as_xyz
  x,y,z
_cell_length_a	10.489716
_cell_length_b	10.489746
_cell_length_c	8.965430
_cell_angle_alpha	90.000118
_cell_angle_beta	89.996523
_cell_angle_gamma	84.535218
loop_
_atom_site_label
_atom_site_type_symbol
_atom_site_fract_x
_atom_site_fract_y
_atom_site_fract_z
O1	O	1.694075	0.179809	-0.124029
O2	O	1.322876	0.196734	-0.124034
O3	O	1.516918	0.002673	-0.124020
O4	O	1.500032	0.373870	-0.124043
O5	O	1.516902	0.002686	0.124059
O6	O	1.322859	0.196747	0.124044
O7	O	1.694059	0.179822	0.124050
Cu8	Cu	1.508457	0.188286	0.146699
Cu9	Cu	1.508477	0.188270	-0.146683
O10	O	1.500016	0.373883	0.124036
C11	C	1.275335	0.195469	0.000004
C12	C	1.133704	0.191664	0.000002
C13	C	1.515633	-0.044852	0.000019
C14	C	1.511813	-0.186480	0.000018
C15	C	1.036032	0.310669	-0.000008
C16	C	0.958677	0.247791	0.122318
C17	C	0.958700	0.247750	-0.122268
C18	C	1.058214	0.128836	0.122430
C19	C	1.058242	0.128813	-0.122266
C20	C	0.980936	0.065848	0.000090
C21	C	1.386089	-0.339327	-0.000003
C22	C	1.448954	-0.261947	-0.122315
C23	C	1.448967	-0.261975	0.122272
C24	C	1.567937	-0.361449	-0.122428
C25	C	1.567933	-0.361483	0.122268
C26	C	1.630885	-0.284151	-0.000074
C27	C	1.741599	0.181087	0.000008
C28	C	1.883230	0.184892	0.000000
C29	C	1.501301	0.421408	-0.000006
C30	C	1.505121	0.563037	-0.000015
N31	N	1.508453	0.188296	0.353048
N32	N	1.508491	0.188250	-0.353032
C33	C	1.418687	0.278013	0.450347
C34	C	1.534185	0.303813	0.549761
C35	C	1.393004	0.162506	0.549762
C36	C	1.624010	0.214154	0.450273
C37	C	1.482752	0.072797	0.450265
C38	C	1.598333	0.098549	0.549634
H39	H	1.060704	0.414184	0.000100
C40	C	1.116183	0.062100	-0.260333
C41	C	1.065561	0.124863	-0.388065
C42	C	1.118923	0.063468	-0.515291
H43	H	1.096415	-0.024403	-0.261420
H44	H	1.206497	0.064402	-0.258914
H45	H	0.975267	0.122548	-0.389485
H46	H	1.085326	0.211362	-0.387028
H47	H	1.209237	0.065770	-0.513872
H48	H	1.099151	-0.023033	-0.516363
H49	H	1.084592	0.106051	-0.601972
C50	C	1.634761	-0.418964	-0.260656
C51	C	1.572681	-0.367238	-0.388274
C52	C	1.634207	-0.420179	-0.515636
H53	H	1.631929	-0.509203	-0.260059
H54	H	1.721443	-0.399702	-0.261091
H55	H	1.486021	-0.386509	-0.387840
H56	H	1.575511	-0.277004	-0.388921
H57	H	1.720889	-0.400917	-0.516070
H58	H	1.631372	-0.510416	-0.515023
H59	H	1.592103	-0.385082	-0.602239
H60	H	1.398712	-0.218472	-0.225724
H61	H	1.101523	0.078634	0.225949
H62	H	1.342845	0.353953	0.406753
H63	H	0.956504	-0.037744	0.000167
H64	H	0.915189	0.298033	0.225728
H65	H	1.674346	0.022655	0.592954
C66	C	1.769054	-0.251699	0.000093
C67	C	1.831469	-0.304328	0.127055
C68	C	1.958752	-0.274470	0.127248
H69	H	1.770897	-0.161342	0.001002
H70	H	1.811222	-0.286127	-0.086808
H71	H	1.789312	-0.269895	0.213933
H72	H	1.829662	-0.394684	0.126172
H73	H	2.000920	-0.308898	0.040347
H74	H	1.960582	-0.184113	0.128153
H75	H	2.001120	-0.310184	0.213382
C76	C	1.381732	-0.204204	0.260119
C77	C	1.253717	-0.231713	0.259543
C78	C	1.191738	-0.178542	0.386511
H79	H	1.385168	-0.114042	0.259761
H80	H	1.423085	-0.239660	0.347006
H81	H	1.212375	-0.196253	0.172679
H82	H	1.250244	-0.321865	0.259924
H83	H	1.233091	-0.213998	0.473398
H84	H	1.195183	-0.088383	0.386141
H85	H	1.104877	-0.197210	0.386144
H86	H	0.915224	0.298005	-0.225670
C87	C	1.754254	0.243612	0.392518
C88	C	1.781049	0.364147	0.444233
C89	C	1.901022	0.391335	0.391095
H90	H	1.753614	0.243603	0.286570
H91	H	1.818110	0.180304	0.427368
H92	H	1.717209	0.427439	0.409375
H93	H	1.781715	0.364187	0.550174
H94	H	1.964879	0.328027	0.425944
H95	H	1.900371	0.391320	0.285148
H96	H	1.919223	0.473115	0.426186
H97	H	1.282586	-0.364037	-0.000126
H98	H	1.618130	-0.404980	0.225682
H99	H	1.555949	0.401468	0.593464
H100	H	1.460952	-0.024828	0.406527
H101	H	1.295354	0.140714	0.593467
