data_functionalizedCrystal
_audit_creation_method	'MofGen! by Chris Wilmer'
_symmetry_space_group_name_H-M	'P1'
_symmetry_Int_Tables_number	1
_symmetry_cell_setting	triclinic
loop_
_symmetry_equiv_pos_as_xyz
  x,y,z
_cell_length_a	10.686220
_cell_length_b	10.685194
_cell_length_c	10.686551
_cell_angle_alpha	81.584560
_cell_angle_beta	90.308082
_cell_angle_gamma	99.069756
loop_
_atom_site_label
_atom_site_type_symbol
_atom_site_fract_x
_atom_site_fract_y
_atom_site_fract_z
Zn1	Zn	1.946781	-0.311311	-0.540461
Zn2	Zn	1.911615	-0.542431	-0.314426
Zn3	Zn	1.718223	-0.343976	-0.344478
Zn4	Zn	1.718258	-0.539843	-0.540385
O5	O	1.823719	-0.434390	-0.434938
O6	O	2.118689	-0.329382	-0.497932
O7	O	1.871230	-0.530859	-0.141828
O8	O	1.763244	-0.160946	-0.383085
O9	O	2.092853	-0.499185	-0.331864
O10	O	1.931165	-0.136948	-0.527073
O11	O	1.729146	-0.385055	-0.163907
O12	O	1.541655	-0.382545	-0.383011
O13	O	1.763303	-0.494775	-0.716980
O14	O	1.541680	-0.526449	-0.526943
O15	O	1.931198	-0.326873	-0.717036
O16	O	1.871264	-0.720784	-0.331791
O17	O	1.729204	-0.718883	-0.497802
C18	C	1.495884	-0.457762	-0.458231
C19	C	1.355634	-0.467788	-0.468224
C20	C	1.796458	-0.766163	-0.411552
C21	C	1.784915	-0.908084	-0.401582
C22	C	2.152835	-0.410928	-0.411554
C23	C	2.293085	-0.400930	-0.401589
C24	C	1.851177	-0.406891	-0.764075
C25	C	1.862878	-0.395173	-0.904333
C26	C	1.851123	-0.101318	-0.458440
C27	C	1.862801	0.040618	-0.468455
C28	C	1.796448	-0.461685	-0.107083
C29	C	1.785022	-0.473026	0.033167
H30	H	1.346828	-0.336021	-0.336895
H31	H	1.709417	-0.548648	-0.913039
O32	O	1.291333	-0.545135	-0.545387
C33	C	1.088213	-0.626093	-0.625934
C34	C	1.160879	-0.538429	-0.538523
H35	H	0.982725	-0.620721	-0.620394
H36	H	1.124297	-0.593496	-0.727505
H37	H	1.103824	-0.729041	-0.594544
H38	H	1.145300	-0.435458	-0.569799
H39	H	1.124783	-0.571134	-0.436971
O40	O	1.952773	-0.882306	-0.546048
C41	C	2.035114	-0.818890	-0.759258
C42	C	1.933131	-0.906240	-0.671529
H43	H	2.019285	-0.838229	-0.860723
H44	H	2.028695	-0.714309	-0.753892
H45	H	2.132928	-0.839529	-0.728079
H46	H	1.835270	-0.885715	-0.702648
H47	H	1.939662	-1.010794	-0.676905
H48	H	1.709385	-0.972749	-0.336703
O49	O	1.952979	-0.304983	-0.968705
C50	C	2.047265	-0.210762	-1.171870
C51	C	1.945157	-0.312937	-1.099130
H52	H	2.040993	-0.217176	-1.277329
H53	H	2.031450	-0.111474	-1.154966
H54	H	2.145016	-0.228055	-1.137143
H55	H	1.847363	-0.295764	-1.133812
H56	H	1.961084	-0.412190	-1.116035
