data_functionalizedCrystal
_audit_creation_method	'MofGen! by Chris Wilmer'
_symmetry_space_group_name_H-M	'P1'
_symmetry_Int_Tables_number	1
_symmetry_cell_setting	triclinic
loop_
_symmetry_equiv_pos_as_xyz
  x,y,z
_cell_length_a	9.065215
_cell_length_b	15.995300
_cell_length_c	8.140239
_cell_angle_alpha	90.001029
_cell_angle_beta	89.997810
_cell_angle_gamma	84.243252
loop_
_atom_site_label
_atom_site_type_symbol
_atom_site_fract_x
_atom_site_fract_y
_atom_site_fract_z
O1	O	1.957471	0.122761	-0.136575
O2	O	2.457471	0.622761	0.363425
O3	O	1.527945	0.132834	-0.136581
O4	O	2.027945	0.632834	0.363419
O5	O	1.754488	0.005996	-0.136586
O6	O	2.254488	0.505996	0.363414
O7	O	1.730928	0.249599	-0.136570
O8	O	2.230928	0.749599	0.363430
O9	O	1.754475	0.005995	0.136641
O10	O	2.254475	0.505995	0.636641
O11	O	1.527932	0.132833	0.136646
O12	O	2.027932	0.632833	0.636646
O13	O	1.957458	0.122760	0.136652
O14	O	2.457458	0.622760	0.636652
Zn15	Zn	1.742693	0.127796	0.180029
Zn16	Zn	2.242693	0.627796	0.680029
Zn17	Zn	1.742710	0.127798	-0.179959
Zn18	Zn	2.242710	0.627798	0.320041
O19	O	1.730915	0.249597	0.136657
O20	O	2.230915	0.749597	0.636657
C21	C	1.472975	0.131866	0.000031
C22	C	1.972975	0.631866	0.500031
C23	C	1.309201	0.128973	0.000028
C24	C	1.809201	0.628973	0.500028
C25	C	1.753521	-0.025207	0.000022
C26	C	2.253521	0.474793	0.500022
C27	C	1.750640	-0.118182	0.000005
C28	C	2.250640	0.381818	0.500005
C29	C	1.745320	-0.288405	0.000021
C30	C	2.245320	0.211595	0.500021
C31	C	1.906623	-0.334648	0.000020
C32	C	2.406623	0.165352	0.500020
C33	C	1.903680	-0.431359	0.000646
C34	C	2.403680	0.068641	0.500646
C35	C	1.740083	-0.456001	0.000035
C36	C	2.240083	0.043999	0.500035
C37	C	1.660048	-0.415474	0.155752
C38	C	2.160048	0.084526	0.655752
C39	C	1.664130	-0.318810	0.155876
C40	C	2.164130	0.181190	0.655876
C41	C	1.661756	-0.318550	-0.154845
C42	C	2.161756	0.181450	0.345155
C43	C	1.661771	-0.415495	-0.156886
C44	C	2.161771	0.084505	0.343114
C45	C	1.737116	-0.550719	0.000048
C46	C	2.237116	-0.050719	0.500048
C47	C	1.748283	-0.193687	0.000019
C48	C	2.248283	0.306313	0.500019
C49	C	2.012428	0.123728	0.000035
C50	C	2.512428	0.623728	0.500035
C51	C	2.176202	0.126621	0.000028
C52	C	2.676202	0.626621	0.500028
C53	C	1.731882	0.280801	0.000045
C54	C	2.231882	0.780801	0.500045
C55	C	1.734763	0.373775	0.000051
C56	C	2.234763	0.873775	0.500051
N57	N	1.742693	0.127794	0.425712
N58	N	2.242693	0.627794	0.925712
N59	N	1.742722	0.127793	-0.425642
N60	N	2.242722	0.627793	0.074358
H61	H	1.966570	-0.459346	-0.110951
H62	H	2.466570	0.040654	0.389049
C63	C	1.500631	-0.437431	-0.170209
C64	C	2.000631	0.062569	0.329791
N65	N	1.379253	-0.453950	-0.180229
N66	N	1.879253	0.046050	0.319771
C67	C	1.992885	-0.307512	0.150659
C68	C	2.492885	0.192488	0.650659
N69	N	2.057851	-0.287073	0.264126
N70	N	2.557851	0.212927	0.764126
C71	C	1.733514	-0.290319	-0.314345
C72	C	2.233514	0.209681	0.185655
N73	N	1.787579	-0.269057	-0.434472
N74	N	2.287579	0.230943	0.065528
H75	H	1.721799	-0.300053	0.272720
H76	H	2.221799	0.199947	0.772720
H77	H	1.545683	-0.287434	0.162520
H78	H	2.045683	0.212566	0.662520
C79	C	1.734207	-0.453227	0.312902
C80	C	2.234207	0.046773	0.812902
N81	N	1.790070	-0.481663	0.431265
N82	N	2.290070	0.018337	0.931265
C83	C	1.988244	-0.468341	0.152340
C84	C	2.488244	0.031659	0.652340
N85	N	2.051933	-0.496194	0.266609
N86	N	2.551933	0.003806	0.766609
H87	H	1.720217	-0.442392	-0.272087
H88	H	2.220217	0.057608	0.227913
H89	H	1.542822	-0.287681	-0.156331
H90	H	2.042822	0.212319	0.343669
C91	C	1.497643	-0.435736	0.162969
C92	C	1.997643	0.064264	0.662969
N93	N	1.375315	-0.450993	0.168394
N94	N	1.875315	0.049007	0.668394
H95	H	1.971443	-0.315678	-0.111644
H96	H	2.471443	0.184322	0.388356
