data_functionalizedCrystal
_audit_creation_method	'MofGen! by Chris Wilmer'
_symmetry_space_group_name_H-M	'P1'
_symmetry_Int_Tables_number	1
_symmetry_cell_setting	triclinic
loop_
_symmetry_equiv_pos_as_xyz
  x,y,z
_cell_length_a	14.853567
_cell_length_b	14.853568
_cell_length_c	13.930277
_cell_angle_alpha	90.003934
_cell_angle_beta	89.999243
_cell_angle_gamma	96.364815
loop_
_atom_site_label
_atom_site_type_symbol
_atom_site_fract_x
_atom_site_fract_y
_atom_site_fract_z
O1	O	0.117709	-1.196368	-0.079749
O2	O	0.131729	-0.933908	-0.079766
O3	O	-0.006511	-1.072149	-0.079760
O4	O	0.255949	-1.058127	-0.079755
O5	O	-0.006514	-1.072129	0.079901
O6	O	0.131726	-0.933889	0.079895
O7	O	0.117706	-1.196348	0.079912
Zn8	Zn	0.124716	-1.065116	0.105254
Zn9	Zn	0.124719	-1.065141	-0.105108
O10	O	0.255946	-1.058108	0.079906
C11	C	0.131092	-0.900310	0.000062
C12	C	0.129188	-0.800226	0.000055
C13	C	0.121135	-0.377053	-0.086963
C14	C	0.121132	-0.377053	0.087106
C15	C	0.122921	-0.471087	0.087104
C16	C	0.123817	-0.518108	0.000067
C17	C	0.122926	-0.471095	-0.086968
C18	C	0.123821	-0.518106	0.174138
C19	C	0.125611	-0.612145	0.174139
C20	C	0.126501	-0.659169	0.087101
C21	C	0.125609	-0.612150	0.000062
C22	C	0.126505	-0.659171	-0.086975
C23	C	0.125607	-0.612155	-0.174014
C24	C	0.123817	-0.518118	-0.174006
C25	C	0.128291	-0.753205	0.087093
C26	C	0.128297	-0.753213	-0.086980
C27	C	-0.040101	-1.071504	0.000068
C28	C	-0.140185	-1.069600	0.000059
C29	C	-0.552719	-0.979434	0.000072
C30	C	-0.573999	-1.143667	0.000082
C31	C	-0.479965	-1.145457	0.000077
C32	C	-0.422304	-1.064235	0.000070
C33	C	-0.458676	-0.981222	0.000069
C34	C	-0.443586	-1.228468	0.000088
C35	C	-0.349547	-1.230262	0.000083
C36	C	-0.291884	-1.149038	0.000070
C37	C	-0.328261	-1.066022	0.000067
C38	C	-0.270600	-0.984800	0.000061
C39	C	-0.306975	-0.901783	0.000052
C40	C	-0.401013	-0.899998	0.000056
C41	C	-0.197846	-1.150822	0.000066
C42	C	-0.176557	-0.986587	0.000058
C43	C	0.289536	-1.058753	0.000076
C44	C	0.389620	-1.060657	0.000078
N45	N	0.124712	-1.065105	0.248820
C46	C	0.118341	-0.229947	0.000080
C47	C	0.120238	-0.330032	0.000074
N48	N	0.124716	-1.065159	-0.248674
C49	C	0.185908	-1.003926	0.701086
C50	C	0.063524	-1.126381	0.701061
C51	C	0.063521	-1.126370	0.600565
C52	C	0.124714	-1.065137	0.550326
C53	C	0.185909	-1.003915	0.600581
C54	C	0.002333	-1.187598	0.550302
C55	C	0.002328	-1.187590	0.449800
C56	C	0.063517	-1.126352	0.399558
C57	C	0.124714	-1.065127	0.449820
C58	C	0.185907	-1.003894	0.399581
C59	C	0.247100	-0.942663	0.449841
C60	C	0.247098	-0.942677	0.550340
C61	C	0.063520	-1.126338	0.299060
C62	C	0.185908	-1.003883	0.299076
H63	H	0.129024	-0.791492	-0.157857
C64	C	0.252200	-0.937406	0.755773
C65	C	0.204070	-0.882184	0.813495
C66	C	0.265107	-0.820904	0.863897
H67	H	0.288669	-0.900851	0.711568
H68	H	0.289775	-0.969858	0.795030
H69	H	0.166510	-0.849735	0.774242
H70	H	0.167604	-0.918715	0.857718
H71	H	0.302683	-0.853356	0.903154
H72	H	0.301573	-0.784355	0.819685
H73	H	0.232460	-0.783434	0.903074
C74	C	-0.636495	-1.231916	-0.000060
C75	C	-0.620032	-1.281910	-0.082191
C76	C	-0.677583	-1.363217	-0.082351
H77	H	-0.697739	-1.219088	-0.000106
H78	H	-0.625442	-1.265995	0.055588
H79	H	-0.631092	-1.247837	-0.137825
H80	H	-0.558799	-1.294762	-0.082163
H81	H	-0.666530	-1.397297	-0.026703
H82	H	-0.738824	-1.350380	-0.082394
H83	H	-0.666415	-1.397152	-0.138071
H84	H	-0.168233	-1.218414	0.000079
C85	C	-0.114106	-0.898302	0.000098
C86	C	-0.166093	-0.825224	0.000113
C87	C	-0.108595	-0.743883	0.000162
H88	H	-0.076958	-0.895465	-0.055564
H89	H	-0.076993	-0.895526	0.055798
H90	H	-0.203189	-0.827998	-0.055582
H91	H	-0.203238	-0.828030	0.055771
H92	H	-0.071482	-0.741107	0.055862
H93	H	-0.071450	-0.741055	-0.055501
H94	H	-0.143859	-0.694290	0.000181
H95	H	-0.260015	-0.835652	0.000053
C96	C	0.120124	-0.326180	-0.181560
C97	C	0.121275	-0.387493	-0.257780
C98	C	0.120335	-0.340663	-0.344937
H99	H	0.171942	-0.282684	-0.185311
H100	H	0.066873	-0.296329	-0.185235
H101	H	0.174520	-0.417329	-0.254107
H102	H	0.069461	-0.430990	-0.254061
H103	H	0.067084	-0.310812	-0.348612
H104	H	0.172154	-0.297169	-0.348678
H105	H	0.121107	-0.382257	-0.396662
C106	C	-0.064354	-1.253814	0.395233
C107	C	-0.119599	-1.205563	0.337677
C108	C	-0.181121	-1.266489	0.287438
H109	H	-0.100873	-1.290204	0.439535
H110	H	-0.032089	-1.291477	0.355877
H111	H	-0.151862	-1.167915	0.377029
H112	H	-0.083106	-1.169176	0.293357
H113	H	-0.148855	-1.304152	0.248083
H114	H	-0.217633	-1.302876	0.331748
H115	H	-0.218606	-1.233760	0.248374
H116	H	0.296920	-0.892826	0.591268
H117	H	0.126341	-0.650418	0.245012
H118	H	0.296928	-0.892810	0.408924
C119	C	-0.002932	-1.192677	0.244355
C120	C	-0.058201	-1.144605	0.186637
C121	C	-0.119413	-1.205694	0.136215
H122	H	-0.039461	-1.229187	0.288548
H123	H	0.029572	-1.230208	0.205094
H124	H	-0.090703	-1.107090	0.225895
H125	H	-0.021697	-1.108098	0.142426
H126	H	-0.086909	-1.243225	0.096954
H127	H	-0.155936	-1.242201	0.180415
H128	H	-0.156915	-1.173086	0.097041
H129	H	0.013707	-1.176240	0.741970
H130	H	-0.490540	-1.294595	0.000102
H131	H	0.123097	-0.479814	0.244999
C132	C	-0.064059	-1.253977	0.605020
C133	C	-0.050979	-1.240860	0.703790
C134	C	-0.112134	-1.301985	0.754231
H135	H	-0.054214	-1.314193	0.588660
H136	H	-0.124267	-1.244108	0.588608
H137	H	0.009215	-1.250735	0.720196
H138	H	-0.060831	-1.180656	0.720179
H139	H	-0.172342	-1.292117	0.737818
H140	H	-0.102284	-1.362197	0.737862
H141	H	-0.103273	-1.293088	0.821251
C142	C	0.120207	-0.326161	0.181700
C143	C	0.121391	-0.387460	0.257919
C144	C	0.120549	-0.340608	0.345077
H145	H	0.066993	-0.296279	0.185452
H146	H	0.172063	-0.282686	0.185374
H147	H	0.069541	-0.430919	0.254247
H148	H	0.174602	-0.417345	0.254199
H149	H	0.172405	-0.297133	0.348751
H150	H	0.067334	-0.310727	0.348819
H151	H	0.121361	-0.382190	0.396802
H152	H	0.123084	-0.479830	-0.244869
C153	C	0.126540	-0.663380	-0.268410
C154	C	0.128284	-0.755797	-0.249776
C155	C	0.129133	-0.803017	-0.336706
H156	H	0.178763	-0.641270	-0.304245
H157	H	0.073693	-0.654843	-0.304180
H158	H	0.181125	-0.764328	-0.214022
H159	H	0.076065	-0.777932	-0.213955
H160	H	0.076287	-0.794480	-0.372476
H161	H	0.181358	-0.780901	-0.372534
H162	H	0.130309	-0.865728	-0.324075
C163	C	0.252494	-0.937503	0.244584
C164	C	0.341113	-0.952244	0.269014
C165	C	0.402476	-0.891121	0.218827
H166	H	0.242712	-0.877288	0.261023
H167	H	0.243796	-0.946269	0.177523
H168	H	0.349807	-0.943471	0.336061
H169	H	0.350924	-1.012447	0.252574
H170	H	0.393778	-0.899887	0.151766
H171	H	0.392685	-0.830911	0.235270
H172	H	0.462610	-0.901121	0.235389
C173	C	0.129216	-0.804095	0.181681
C174	C	0.128030	-0.742791	0.257905
C175	C	0.128867	-0.789639	0.345059
H176	H	0.182429	-0.833979	0.185433
H177	H	0.077359	-0.847569	0.185351
H178	H	0.179882	-0.699334	0.254237
H179	H	0.074821	-0.712905	0.254185
H180	H	0.077010	-0.833112	0.348729
H181	H	0.182081	-0.819521	0.348801
H182	H	0.128054	-0.748053	0.396787
H183	H	-0.430639	-0.832410	0.000049
H184	H	-0.319938	-1.297859	0.000089
C185	C	-0.592381	-0.889396	0.000112
C186	C	-0.687077	-0.905207	0.000136
C187	C	-0.723644	-0.822286	0.000187
H188	H	-0.572694	-0.855887	-0.055552
H189	H	-0.572647	-0.855935	0.055811
H190	H	-0.706802	-0.938654	-0.055557
H191	H	-0.706788	-0.938703	0.055796
H192	H	-0.703911	-0.788825	0.055885
H193	H	-0.703951	-0.788783	-0.055478
H194	H	-0.787898	-0.833002	0.000212
