data_functionalizedCrystal
_audit_creation_method	'MofGen! by Chris Wilmer'
_symmetry_space_group_name_H-M	'P1'
_symmetry_Int_Tables_number	1
_symmetry_cell_setting	triclinic
loop_
_symmetry_equiv_pos_as_xyz
  x,y,z
_cell_length_a	19.121102
_cell_length_b	25.639239
_cell_length_c	19.120904
_cell_angle_alpha	92.410104
_cell_angle_beta	90.088173
_cell_angle_gamma	87.592882
loop_
_atom_site_label
_atom_site_type_symbol
_atom_site_fract_x
_atom_site_fract_y
_atom_site_fract_z
Zn1	Zn	1.054765	-0.255751	-0.442042
Zn2	Zn	1.059658	-0.339618	-0.324799
Zn3	Zn	0.942536	-0.248315	-0.319827
Zn4	Zn	0.937469	-0.339266	-0.437001
O5	O	0.998607	-0.295738	-0.380917
O6	O	1.153518	-0.270136	-0.430680
O7	O	1.048290	-0.324541	-0.226035
O8	O	0.957496	-0.176139	-0.336067
O9	O	1.157113	-0.331752	-0.344542
O10	O	1.039950	-0.181603	-0.425859
O11	O	0.962241	-0.257461	-0.222382
O12	O	0.843760	-0.257121	-0.331180
O13	O	0.948861	-0.331153	-0.535775
O14	O	0.840037	-0.323942	-0.417267
O15	O	1.035037	-0.269795	-0.539478
O16	O	1.043377	-0.412733	-0.339654
O17	O	0.953605	-0.412475	-0.422089
C18	C	0.816461	-0.289687	-0.373137
C19	C	0.738537	-0.287111	-0.369826
C20	C	0.700012	-0.320740	-0.413021
C21	C	0.626794	-0.318313	-0.409912
C22	C	0.592104	-0.282260	-0.363605
C23	C	0.630634	-0.248627	-0.320408
C24	C	0.703850	-0.251052	-0.323520
C25	C	0.371134	-0.273194	-0.351972
C26	C	0.297913	-0.270773	-0.348862
C27	C	0.294078	-0.340458	-0.438367
C28	C	0.367296	-0.342882	-0.441472
C29	C	0.405820	-0.309247	-0.398278
C30	C	0.517264	-0.279779	-0.360425
C31	C	0.480658	-0.311726	-0.401462
C32	C	0.998491	-0.431575	-0.380880
C33	C	0.998504	-0.489690	-0.380890
C34	C	1.045465	-0.850185	-0.338075
C35	C	1.045491	-0.904791	-0.338085
O36	O	1.085298	-0.933135	-0.301642
N37	N	0.998728	-0.931982	-0.380969
C38	C	0.951940	-0.904565	-0.423850
O39	O	0.912167	-0.932708	-0.460327
C40	C	0.951917	-0.849961	-0.423843
C41	C	0.998679	-0.822772	-0.380951
C42	C	1.092223	-0.822997	-0.295188
C43	C	1.092195	-0.768395	-0.295176
C44	C	1.045409	-0.740982	-0.338052
C45	C	0.998651	-0.768171	-0.380940
C46	C	0.905133	-0.822546	-0.466727
C47	C	0.905115	-0.767938	-0.466716
C48	C	0.951876	-0.740749	-0.423825
C49	C	0.951837	-0.686156	-0.423805
N50	N	0.998600	-0.658965	-0.380921
C51	C	1.045386	-0.686378	-0.338045
C52	C	0.951992	-1.019238	-0.423863
C53	C	0.952011	-1.073841	-0.423867
C54	C	1.045564	-1.074063	-0.338103
C55	C	1.045541	-1.019459	-0.338096
C56	C	0.998756	-0.992047	-0.380980
C57	C	1.045324	-0.571710	-0.338024
C58	C	1.045290	-0.517103	-0.338014
C59	C	0.951740	-0.516886	-0.423780
C60	C	0.951771	-0.571488	-0.423788
C61	C	0.998569	-0.598899	-0.380907
O62	O	0.912052	-0.657777	-0.460232
O63	O	1.085159	-0.658229	-0.301581
C64	C	1.181464	-0.301813	-0.388728
C65	C	1.259387	-0.304401	-0.392057
C66	C	0.990838	-0.301264	-0.563775
C67	C	0.987527	-0.303619	-0.641698
C68	C	0.998742	-0.159371	-0.380971
C69	C	0.998800	-0.101259	-0.380993
C70	C	1.030837	-0.272781	-0.680236
C71	C	1.027718	-0.274992	-0.753453
C72	C	0.981292	-0.308044	-0.788130
C73	C	0.937977	-0.338883	-0.749587
C74	C	0.941093	-0.336669	-0.676372
C75	C	0.969635	-0.316324	-1.009097
C76	C	0.966523	-0.318536	-1.082318
C77	C	1.056263	-0.254644	-1.086178
C78	C	1.059378	-0.252436	-1.012961
C79	C	1.016061	-0.283273	-0.974424
C80	C	0.978104	-0.310306	-0.862970
C81	C	1.019246	-0.281008	-0.899586
C82	C	1.006386	-0.290196	-0.198772
C83	C	1.009833	-0.287698	-0.120856
H84	H	0.262704	-0.367840	-0.473534
N85	N	1.106797	-0.218678	-0.977526
N86	N	1.153186	-0.237324	-0.938571
H87	H	1.186677	-0.213484	-0.913542
N88	N	0.919071	-0.352285	-1.117730
N89	N	0.880383	-0.379803	-1.083314
H90	H	0.846863	-0.403631	-1.108323
N91	N	0.904249	-1.101618	-0.467674
N92	N	0.904273	-1.150372	-0.467685
H93	H	0.870542	-1.169989	-0.498628
H94	H	0.913696	-0.593627	-0.458716
H95	H	1.062987	-0.249882	-0.784827
N96	N	1.139949	-0.740624	-0.251351
N97	N	1.117200	-0.708027	-0.205591
H98	H	1.150926	-0.688418	-0.174632
H99	H	1.091528	-0.229538	-1.117562
H100	H	1.068644	-0.245869	-0.652007
N101	N	0.903962	-0.488870	-0.467576
N102	N	0.926690	-0.460534	-0.513308
H103	H	0.892950	-0.440745	-0.544242
N104	N	0.410469	-0.238838	-0.307843
N105	N	0.379484	-0.206653	-0.266497
H106	H	0.407266	-0.182389	-0.235326
H107	H	0.934373	-0.341441	-0.977730
H108	H	0.728252	-0.350100	-0.450727
N109	N	0.262484	-0.233934	-0.301563
N110	N	0.270494	-0.186110	-0.306687
H111	H	0.245473	-0.160094	-0.273284
H112	H	0.602383	-0.219270	-0.282707
N113	N	0.516079	-0.348553	-0.448770
N114	N	0.505172	-0.346851	-0.513123
H115	H	0.530192	-0.372862	-0.546534
H116	H	0.900174	-0.365793	-0.777828
N117	N	0.896844	-0.368169	-0.637015
N118	N	0.855393	-0.397677	-0.667983
H119	H	0.824137	-0.419923	-0.640188
N120	N	1.093351	-1.102069	-0.294298
N121	N	1.070633	-1.130403	-0.248559
H122	H	1.104379	-1.150183	-0.217622
N123	N	0.743195	-0.216692	-0.279400
N124	N	0.712214	-0.184502	-0.238059
H125	H	0.740000	-0.160231	-0.206901
H126	H	1.057043	-0.254095	-0.871348
N127	N	0.481838	-0.242955	-0.313112
N128	N	0.516239	-0.212932	-0.274542
H129	H	0.491219	-0.186924	-0.241128
N130	N	1.093059	-0.489339	-0.294191
N131	N	1.134828	-0.513826	-0.255914
H132	H	1.168564	-0.494219	-0.224964
N133	N	1.093129	-0.599696	-0.294218
N134	N	1.134868	-0.575404	-0.255930
H135	H	1.168627	-0.595168	-0.224987
N136	N	0.930675	-0.344055	-0.898403
N137	N	0.884289	-0.325399	-0.937353
H138	H	0.850789	-0.349231	-0.962384
N139	N	0.587452	-0.352665	-0.454044
N140	N	0.618434	-0.384854	-0.495386
H141	H	0.590650	-0.409116	-0.526558
H142	H	0.395536	-0.372241	-0.479179
N143	N	0.857379	-0.850311	-0.510552
N144	N	0.880126	-0.882913	-0.556307
H145	H	0.846399	-0.902523	-0.587263
H146	H	1.130325	-0.845310	-0.260273
H147	H	1.083618	-0.997325	-0.303171
H148	H	0.913888	-0.996922	-0.458781
N149	N	0.857322	-0.739947	-0.510531
N150	N	0.815580	-0.764233	-0.548821
H151	H	0.781826	-0.744466	-0.579765
