data_functionalizedCrystal
_audit_creation_method	'MofGen! by Chris Wilmer'
_symmetry_space_group_name_H-M	'P1'
_symmetry_Int_Tables_number	1
_symmetry_cell_setting	triclinic
loop_
_symmetry_equiv_pos_as_xyz
  x,y,z
_cell_length_a	14.971482
_cell_length_b	14.519731
_cell_length_c	14.048226
_cell_angle_alpha	89.992586
_cell_angle_beta	89.994098
_cell_angle_gamma	83.650731
loop_
_atom_site_label
_atom_site_type_symbol
_atom_site_fract_x
_atom_site_fract_y
_atom_site_fract_z
O1	O	1.187026	0.120166	-0.079150
O2	O	1.687026	0.620166	0.420850
O3	O	0.926634	0.134562	-0.079155
O4	O	1.426634	0.634562	0.420845
O5	O	1.063724	-0.006877	-0.079144
O6	O	1.563724	0.493123	0.420856
O7	O	1.049936	0.261605	-0.079162
O8	O	1.549936	0.761605	0.420838
O9	O	1.063707	-0.006886	0.079177
O10	O	1.563707	0.493114	0.579177
O11	O	0.926618	0.134553	0.079166
O12	O	1.426618	0.634553	0.579166
O13	O	1.187009	0.120158	0.079171
O14	O	1.687009	0.620158	0.579171
Zn15	Zn	1.056811	0.127354	0.104305
Zn16	Zn	1.556811	0.627354	0.604305
Zn17	Zn	1.056832	0.127365	-0.104290
Zn18	Zn	1.556832	0.627365	0.395710
O19	O	1.049919	0.261597	0.079160
O20	O	1.549919	0.761597	0.579160
C21	C	0.893301	0.133915	0.000005
C22	C	1.393301	0.633915	0.500005
C23	C	0.794002	0.131987	0.000003
C24	C	1.294002	0.631987	0.500003
C25	C	0.747348	0.131075	0.086305
C26	C	1.247348	0.631075	0.586305
C27	C	0.654048	0.129249	0.086306
C28	C	1.154048	0.629249	0.586306
C29	C	0.607404	0.128342	0.000005
C30	C	1.107404	0.628342	0.500005
C31	C	0.654065	0.129252	-0.086304
C32	C	1.154065	0.629252	0.413696
C33	C	0.747364	0.131071	-0.086304
C34	C	1.247364	0.631071	0.413696
C35	C	0.459601	0.125462	-0.086298
C36	C	0.959601	0.625462	0.413702
C37	C	0.366295	0.123645	-0.086298
C38	C	0.866295	0.623645	0.413702
C39	C	0.366285	0.123640	0.086313
C40	C	0.866285	0.623640	0.586313
C41	C	0.459584	0.125460	0.086313
C42	C	0.959584	0.625460	0.586313
C43	C	0.506238	0.126371	0.000004
C44	C	1.006238	0.626371	0.500004
C45	C	1.063069	-0.041241	0.000017
C46	C	1.563069	0.458759	0.500017
C47	C	1.061134	-0.143620	0.000017
C48	C	1.561134	0.356380	0.500017
C49	C	1.059560	-0.226763	0.000015
C50	C	1.559560	0.273237	0.500015
C51	C	1.057595	-0.331070	0.000008
C52	C	1.557595	0.168930	0.500008
C53	C	1.056035	-0.414208	0.000002
C54	C	1.556035	0.085792	0.500002
C55	C	1.054070	-0.518523	-0.000004
C56	C	1.554070	-0.018523	0.499996
C57	C	1.220342	0.120805	0.000009
C58	C	1.720342	0.620805	0.500009
C59	C	1.319641	0.122733	0.000004
C60	C	1.819641	0.622733	0.500004
C61	C	1.050574	0.295960	-0.000003
C62	C	1.550574	0.795960	0.499997
C63	C	1.052510	0.398339	-0.000010
C64	C	1.552510	0.898339	0.499990
N65	N	1.056802	0.127346	0.246666
N66	N	1.556802	0.627346	0.746666
N67	N	1.056848	0.127366	-0.246650
N68	N	1.556848	0.627366	0.253350
C69	C	1.117525	0.064743	0.296489
C70	C	1.617525	0.564743	0.796489
C71	C	1.117531	0.064742	0.396147
C72	C	1.617531	0.564742	0.896147
C73	C	1.056818	0.127350	0.445980
C74	C	1.556818	0.627350	0.945980
C75	C	0.996089	0.189957	0.396150
C76	C	1.496089	0.689957	0.896150
C77	C	0.996079	0.189952	0.296494
C78	C	1.496079	0.689952	0.796494
C79	C	0.996115	0.189963	0.603864
C80	C	1.496115	0.689963	1.103864
C81	C	0.996125	0.189970	0.703527
C82	C	1.496125	0.689970	1.203527
C83	C	1.117566	0.064754	0.703517
C84	C	1.617566	0.564754	1.203517
C85	C	1.117557	0.064749	0.603861
C86	C	1.617557	0.564749	1.103861
C87	C	1.056829	0.127357	0.554038
C88	C	1.556829	0.627357	1.054038
H89	H	0.328320	0.122907	-0.156573
H90	H	0.828320	0.622907	0.343427
H91	H	0.616080	0.128507	-0.156573
H92	H	1.116080	0.628507	0.343427
Br93	Br	0.913692	0.274929	0.536250
Br94	Br	1.413692	0.774929	1.036250
H95	H	1.166998	0.013774	0.563287
H96	H	1.666998	0.513774	1.063287
Br97	Br	1.199932	-0.020224	0.228869
Br98	Br	1.699932	0.479776	0.728869
H99	H	0.328295	0.122899	0.156589
H100	H	0.828295	0.622899	0.656589
H101	H	1.166975	0.013765	0.436712
H102	H	1.666975	0.513765	0.936712
H103	H	0.497584	0.126205	-0.156580
H104	H	0.997584	0.626205	0.343420
Br105	Br	0.810683	0.132301	-0.203433
Br106	Br	1.310683	0.632301	0.296567
Br107	Br	1.199985	-0.020208	0.771137
Br108	Br	1.699985	0.479792	1.271137
Br109	Br	0.913684	0.274921	0.463776
Br110	Br	1.413684	0.774921	0.963776
H111	H	0.946686	0.240950	0.744095
H112	H	1.446686	0.740950	1.244095
H113	H	0.785318	0.131821	0.156582
H114	H	1.285318	0.631821	0.656582
Br115	Br	0.590733	0.128026	0.203436
Br116	Br	1.090733	0.628026	0.703436
Br117	Br	0.913661	0.274912	0.228877
Br118	Br	1.413661	0.774912	0.728877
Br119	Br	0.522886	0.126704	0.203438
Br120	Br	1.022886	0.626704	0.703438
