data_functionalizedCrystal
_audit_creation_method	'MofGen! by Chris Wilmer'
_symmetry_space_group_name_H-M	'P1'
_symmetry_Int_Tables_number	1
_symmetry_cell_setting	triclinic
loop_
_symmetry_equiv_pos_as_xyz
  x,y,z
_cell_length_a	18.215407
_cell_length_b	16.959453
_cell_length_c	18.215399
_cell_angle_alpha	90.028024
_cell_angle_beta	90.019833
_cell_angle_gamma	90.020436
loop_
_atom_site_label
_atom_site_type_symbol
_atom_site_fract_x
_atom_site_fract_y
_atom_site_fract_z
Zn1	Zn	1.125097	-0.314680	0.416115
Zn2	Zn	1.125016	-0.446866	0.293049
Zn3	Zn	1.002030	-0.314706	0.293063
Zn4	Zn	1.002006	-0.446822	0.416074
O5	O	1.063537	-0.380768	0.354575
O6	O	1.228070	-0.332222	0.399802
O7	O	1.108677	-0.429364	0.190067
O8	O	1.018399	-0.204092	0.309409
O9	O	1.228011	-0.429339	0.309386
O10	O	1.108816	-0.204073	0.399815
O11	O	1.018320	-0.332267	0.190077
O12	O	0.899042	-0.332224	0.309369
O13	O	1.018358	-0.429264	0.519064
O14	O	0.899025	-0.429289	0.399745
O15	O	1.108793	-0.332180	0.519094
O16	O	1.108655	-0.557471	0.309345
O17	O	1.018280	-0.557438	0.399731
C18	C	0.872331	-0.380755	0.354554
C19	C	0.790532	-0.380768	0.354563
C20	C	0.602348	-0.431389	0.401562
C21	C	0.525490	-0.431392	0.401571
C22	C	0.525478	-0.330162	0.307605
C23	C	0.602335	-0.330156	0.307600
C24	C	0.640768	-0.380774	0.354577
C25	C	0.487052	-0.380783	0.354591
C26	C	0.403719	-0.380785	0.354601
C27	C	0.724107	-0.380771	0.354569
C28	C	1.063476	-0.586135	0.354548
C29	C	1.063517	-0.673991	0.354561
C30	C	1.110678	-1.045398	0.401739
C31	C	1.016602	-1.045535	0.307521
C32	C	1.016575	-0.962989	0.307504
C33	C	1.063599	-0.921644	0.354606
C34	C	1.110650	-0.962845	0.401725
C35	C	0.969519	-0.921782	0.260392
C36	C	0.969489	-0.839231	0.260374
C37	C	1.016518	-0.797885	0.307472
C38	C	1.063571	-0.839091	0.354592
C39	C	1.110595	-0.797745	0.401694
C40	C	1.157654	-0.838950	0.448811
C41	C	1.157678	-0.921498	0.448823
C42	C	1.016493	-0.715336	0.307460
C43	C	1.110568	-0.715192	0.401680
C44	C	1.255490	-0.380783	0.354597
C45	C	1.337289	-0.380789	0.354606
C46	C	1.063582	-0.380714	0.546528
C47	C	1.063601	-0.380691	0.628327
C48	C	1.063619	-0.174600	0.354619
C49	C	1.063654	-0.086744	0.354637
C50	C	1.063535	-0.380766	0.163369
C51	C	1.063658	-0.380566	0.081571
C52	C	1.110707	-0.330092	0.816538
C53	C	1.110716	-0.330069	0.893397
C54	C	1.016547	-0.431167	0.893354
C55	C	1.016535	-0.431186	0.816497
C56	C	1.063619	-0.380649	0.778091
C57	C	1.063640	-0.380608	0.931807
C58	C	1.063649	-0.380583	1.015141
C59	C	1.063609	-0.380673	0.694752
H60	H	0.633618	-0.288934	0.269339
C61	C	0.483231	-0.487080	0.453252
N62	N	0.451402	-0.529028	0.492178
H63	H	0.931173	-0.805688	0.222008
H64	H	1.149058	-0.288899	0.924698
C65	C	0.964730	-0.486803	0.774202
N66	N	0.925710	-0.528690	0.742346
C67	C	1.162302	-0.669719	0.453494
N68	N	1.201269	-0.635469	0.492521
H69	H	0.633638	-0.472604	0.439816
C70	C	1.209378	-0.793460	0.500621
N71	N	1.248337	-0.759193	0.539643
C72	C	1.162439	-1.090723	0.453565
N73	N	1.201425	-1.124863	0.492602
H74	H	1.195990	-0.955054	0.487184
H75	H	0.494176	-0.288952	0.269356
H76	H	0.978314	-1.079203	0.269176
C77	C	0.917883	-0.967267	0.208497
N78	N	0.879023	-1.001529	0.169374
H79	H	0.978175	-0.681792	0.269101
H80	H	1.149044	-0.288940	0.785271
H81	H	0.978214	-0.472314	0.924634
