data_functionalizedCrystal
_audit_creation_method	'MofGen! by Chris Wilmer'
_symmetry_space_group_name_H-M	'P1'
_symmetry_Int_Tables_number	1
_symmetry_cell_setting	triclinic
loop_
_symmetry_equiv_pos_as_xyz
  x,y,z
_cell_length_a	18.050591
_cell_length_b	29.839131
_cell_length_c	18.050582
_cell_angle_alpha	90.025477
_cell_angle_beta	90.019760
_cell_angle_gamma	90.037867
loop_
_atom_site_label
_atom_site_type_symbol
_atom_site_fract_x
_atom_site_fract_y
_atom_site_fract_z
Zn1	Zn	1.135224	-0.178924	0.419993
Zn2	Zn	1.135106	-0.254047	0.295797
Zn3	Zn	1.011044	-0.178927	0.295807
Zn4	Zn	1.010963	-0.254023	0.419935
O5	O	1.073084	-0.216480	0.357883
O6	O	1.239133	-0.188898	0.403539
O7	O	1.118634	-0.244093	0.191874
O8	O	1.027600	-0.116059	0.312309
O9	O	1.239047	-0.244090	0.312292
O10	O	1.118835	-0.116058	0.403548
O11	O	1.027485	-0.188902	0.191881
O12	O	0.907108	-0.188880	0.312253
O13	O	1.027462	-0.244051	0.523867
O14	O	0.907049	-0.244053	0.403449
O15	O	1.118756	-0.188876	0.523910
O16	O	1.118555	-0.316911	0.312236
O17	O	1.027348	-0.316894	0.403439
C18	C	0.880132	-0.216465	0.357846
C19	C	0.797586	-0.216469	0.357848
C20	C	0.548772	-0.186434	0.308372
C21	C	0.598208	-0.175497	0.376149
C22	C	0.500466	-0.216492	0.357908
C23	C	0.598112	-0.227397	0.290105
C24	C	0.646451	-0.216479	0.357875
C25	C	0.548815	-0.205533	0.425722
C26	C	0.548715	-0.257452	0.339632
C27	C	0.598128	-0.246530	0.407456
C28	C	0.416368	-0.216498	0.357927
C29	C	0.730548	-0.216473	0.357864
C30	C	1.072950	-0.333203	0.357846
C31	C	1.072961	-0.383137	0.357855
C32	C	1.120663	-0.692777	0.310463
C33	C	1.120754	-0.880450	0.310492
O34	O	1.161206	-0.904712	0.270168
N35	N	1.073238	-0.903922	0.357939
C36	C	1.025700	-0.880474	0.405386
O37	O	0.985292	-0.904745	0.445749
C38	C	1.025612	-0.692801	0.405361
C39	C	1.073126	-0.669332	0.357905
C40	C	1.168173	-0.669307	0.263011
C41	C	1.168147	-0.622391	0.263002
C42	C	1.120610	-0.598946	0.310444
C43	C	1.073100	-0.622416	0.357895
C44	C	0.978078	-0.669354	0.452811
C45	C	0.978062	-0.622433	0.452802
C46	C	1.025575	-0.598963	0.405346
C47	C	1.025537	-0.552055	0.405327
N48	N	1.073053	-0.528583	0.357880
C49	C	1.120589	-0.552028	0.310438
C50	C	1.025748	-0.979004	0.405395
C51	C	1.025769	-1.025922	0.405401
C52	C	1.120824	-1.025895	0.310507
C53	C	1.120799	-0.978976	0.310498
C54	C	1.073264	-0.955532	0.357948
C55	C	1.120530	-0.453502	0.310421
C56	C	1.120497	-0.406583	0.310413
C57	C	1.025445	-0.406614	0.405310
C58	C	1.025474	-0.453529	0.405315
C59	C	1.073023	-0.476972	0.357868
O60	O	0.985113	-0.527765	0.445635
O61	O	1.161002	-0.527749	0.270093
C62	C	1.120689	-0.739692	0.310472
C63	C	1.073178	-0.763162	0.357924
C64	C	1.025642	-0.739717	0.405366
C65	C	1.073199	-0.810080	0.357929
C66	C	1.120736	-0.833526	0.310488
C67	C	1.168252	-0.810053	0.263040
C68	C	1.168225	-0.763138	0.263030
C69	C	0.978126	-0.763189	0.452813
C70	C	0.978155	-0.810105	0.452818
C71	C	1.025692	-0.833550	0.405377
C72	C	1.266790	-0.216497	0.357921
C73	C	1.349336	-0.216503	0.357937
C74	C	1.073113	-0.216460	0.551589
C75	C	1.073126	-0.216452	0.634135
C76	C	1.073239	-0.099302	0.357936
C77	C	1.073305	-0.049368	0.357959
C78	C	1.073098	-0.216468	0.164931
C79	C	1.073230	-0.216350	0.082386
C80	C	1.023518	-0.246415	0.833562
C81	C	1.091269	-0.257399	0.882958
C82	C	1.073162	-0.216418	0.785265
C83	C	1.005449	-0.205421	0.882951
C84	C	1.073192	-0.216385	0.931250
C85	C	1.140949	-0.227423	0.833574
C86	C	1.055083	-0.175426	0.833562
C87	C	1.122881	-0.186395	0.882936
C88	C	1.073145	-0.216437	0.701167
C89	C	1.073218	-0.216366	1.015347
H90	H	0.526960	-0.292087	0.324163
H91	H	0.987037	-0.959919	0.444035
H92	H	0.527250	-0.196263	0.483064
C93	C	0.627573	-0.128697	0.397030
H94	H	0.656543	-0.130769	0.440844
H95	H	0.657259	-0.117399	0.357803
H96	H	0.587022	-0.109050	0.405336
C97	C	0.925890	-0.835919	0.505024
H98	H	0.932706	-0.867220	0.498239
H99	H	0.936728	-0.828202	0.554928
H100	H	0.875991	-0.828264	0.494104
H101	H	0.986739	-0.387517	0.443934
H102	H	0.981575	-0.271816	0.811884
C103	C	0.627229	-0.280859	0.464088
H104	H	0.610259	-0.273034	0.512198
H105	H	0.609534	-0.309873	0.451528
H106	H	0.679855	-0.280840	0.463487
C107	C	0.925771	-0.596646	0.504998
H108	H	0.897478	-0.617347	0.533255
H109	H	0.954150	-0.578316	0.537380
H110	H	0.893415	-0.578373	0.476554
C111	C	1.111950	-0.304208	0.912277
H112	H	1.076619	-0.325500	0.895377
H113	H	1.159722	-0.312216	0.894645
H114	H	1.112249	-0.303788	0.964902
C115	C	1.218357	-0.240003	0.804403
H116	H	1.217870	-0.239946	0.751773
H117	H	1.253635	-0.218805	0.821713
H118	H	1.231317	-0.269020	0.821715
H119	H	0.619768	-0.236626	0.232779
H120	H	1.159189	-0.387475	0.271766
H121	H	1.159250	-0.472584	0.271787
H122	H	1.039754	-0.140784	0.811848
H123	H	0.948172	-0.196134	0.904641
C124	C	0.519485	-0.152080	0.251876
H125	H	0.536433	-0.122986	0.264975
H126	H	0.537087	-0.159545	0.203844
H127	H	0.466860	-0.152509	0.251969
C128	C	1.220421	-0.596580	0.210809
H129	H	1.248738	-0.617269	0.182565
H130	H	1.192036	-0.578303	0.178413
H131	H	1.252756	-0.578253	0.239254
H132	H	0.939383	-0.688455	0.491451
C133	C	1.220463	-0.695090	0.210816
H134	H	1.248747	-0.674386	0.182556
H135	H	1.252818	-0.713367	0.239248
H136	H	1.192078	-0.713415	0.178426
H137	H	1.164925	-0.161013	0.904478
H138	H	1.159489	-0.959870	0.271856
H139	H	1.159531	-1.044992	0.271878
C140	C	0.973499	-1.051734	0.457598
H141	H	0.945193	-1.031047	0.485854
H142	H	0.941165	-1.070065	0.429165
H143	H	1.001900	-1.070008	0.489992
H144	H	0.986787	-0.472640	0.443960
H145	H	0.939417	-0.744104	0.491447
H146	H	1.206916	-0.744032	0.224388
H147	H	1.206956	-0.829151	0.224409
