data_functionalizedCrystal
_audit_creation_method	'MofGen! by Chris Wilmer'
_symmetry_space_group_name_H-M	'P1'
_symmetry_Int_Tables_number	1
_symmetry_cell_setting	triclinic
loop_
_symmetry_equiv_pos_as_xyz
  x,y,z
_cell_length_a	10.686220
_cell_length_b	12.759400
_cell_length_c	12.759393
_cell_angle_alpha	90.030448
_cell_angle_beta	85.650225
_cell_angle_gamma	94.396325
loop_
_atom_site_label
_atom_site_type_symbol
_atom_site_fract_x
_atom_site_fract_y
_atom_site_fract_z
Zn1	Zn	1.929118	-0.294844	0.470994
Zn2	Zn	1.928992	-0.470567	0.295322
Zn3	Zn	1.718104	-0.308390	0.308786
Zn4	Zn	1.718090	-0.483977	0.484409
O5	O	1.823576	-0.389444	0.389877
O6	O	2.105674	-0.306873	0.436441
O7	O	1.900970	-0.449111	0.150090
O8	O	1.746154	-0.159568	0.330323
O9	O	2.105581	-0.435976	0.307376
O10	O	1.901185	-0.149616	0.449497
O11	O	1.746032	-0.329960	0.159982
O12	O	1.541529	-0.342963	0.343332
O13	O	1.746130	-0.458831	0.629647
O14	O	1.541519	-0.471966	0.472361
O15	O	1.901171	-0.319876	0.619791
O16	O	1.900956	-0.619371	0.320384
O17	O	1.746008	-0.629223	0.459306
C18	C	1.495741	-0.410390	0.410764
C19	C	1.355492	-0.419376	0.419724
C20	C	1.823501	-0.662417	0.389860
C21	C	1.823584	-0.779188	0.389881
C22	C	1.904356	-0.828879	0.317613
C23	C	1.904433	-0.938598	0.317640
C24	C	1.742957	-0.948926	0.462207
C25	C	1.742887	-0.839208	0.462184
C26	C	1.985053	-0.768859	0.245310
C27	C	2.065830	-0.818550	0.173035
C28	C	2.065907	-0.928269	0.173063
C29	C	1.985208	-0.988297	0.245365
C30	C	2.152691	-0.368417	0.368910
C31	C	2.292940	-0.359457	0.359975
C32	C	1.823663	-0.389338	0.663905
C33	C	1.823700	-0.389293	0.780680
C34	C	1.823685	-0.115404	0.389916
C35	C	1.823732	0.001376	0.389932
C36	C	1.823562	-0.389470	0.116911
C37	C	1.823769	-0.389203	0.000122
C38	C	1.904380	-0.451309	0.830388
C39	C	1.904418	-0.451262	0.940110
C40	C	1.743085	-0.327180	0.950406
C41	C	1.743055	-0.327222	0.840686
C42	C	1.985026	-0.513380	0.770382
C43	C	2.065712	-0.575402	0.820090
C44	C	2.065750	-0.575354	0.929812
C45	C	1.985102	-0.513285	0.989826
H46	H	1.346682	-0.301284	0.301966
O47	O	1.284363	-0.496528	0.496515
H48	H	1.309628	-0.477073	0.577423
O49	O	1.656040	-0.260335	0.787058
H50	H	1.557004	-0.284673	0.814407
O51	O	2.153041	-0.981872	0.095131
H52	H	2.096640	-1.035564	0.045256
H53	H	1.984995	-0.679520	0.245277
O54	O	2.152890	-0.753814	0.095072
H55	H	2.139269	-0.669172	0.107191
O56	O	1.985284	-1.106639	0.245398
H57	H	2.055004	-1.131111	0.182995
O58	O	1.984999	-0.513428	0.652040
H59	H	1.889811	-0.540753	0.629167
O60	O	1.655899	-1.013663	0.540171
H61	H	1.669505	-1.098306	0.528035
H62	H	1.985149	-0.513243	1.079168
H63	H	1.677117	-0.798749	0.521032
O64	O	2.152696	-0.642345	0.755372
H65	H	2.139109	-0.631968	0.670725
H66	H	2.131456	-0.625848	0.970281
H67	H	1.677425	-0.276647	0.999277
