data_functionalizedCrystal
_audit_creation_method	'MofGen! by Chris Wilmer'
_symmetry_space_group_name_H-M	'P1'
_symmetry_Int_Tables_number	1
_symmetry_cell_setting	triclinic
loop_
_symmetry_equiv_pos_as_xyz
  x,y,z
_cell_length_a	12.759401
_cell_length_b	21.295417
_cell_length_c	12.759393
_cell_angle_alpha	89.961880
_cell_angle_beta	89.981287
_cell_angle_gamma	90.032032
loop_
_atom_site_label
_atom_site_type_symbol
_atom_site_fract_x
_atom_site_fract_y
_atom_site_fract_z
Zn1	Zn	1.606128	-0.250553	-0.593965
Zn2	Zn	1.605977	-0.355835	-0.418261
Zn3	Zn	1.430433	-0.250587	-0.418300
Zn4	Zn	1.430370	-0.355791	-0.593899
O5	O	1.518227	-0.303191	-0.506106
O6	O	1.753129	-0.264523	-0.570669
O7	O	1.582655	-0.341906	-0.271245
O8	O	1.453829	-0.162493	-0.441646
O9	O	1.753018	-0.341874	-0.441580
O10	O	1.582911	-0.162468	-0.570706
O11	O	1.453683	-0.264580	-0.271274
O12	O	1.283404	-0.264538	-0.441582
O13	O	1.453721	-0.341799	-0.740929
O14	O	1.283357	-0.341831	-0.570594
O15	O	1.582850	-0.264481	-0.740977
O16	O	1.582593	-0.443919	-0.441516
O17	O	1.453575	-0.443886	-0.570556
C18	C	1.245260	-0.303184	-0.506085
C19	C	1.128483	-0.303196	-0.506101
C20	C	1.073624	-0.343503	-0.573172
C21	C	0.963900	-0.343506	-0.573193
C22	C	0.963903	-0.262891	-0.439063
C23	C	1.073626	-0.262886	-0.439048
C24	C	0.813989	-0.366093	-0.697048
C25	C	0.759127	-0.406411	-0.764110
C26	C	0.794696	-0.467844	-0.780044
C27	C	0.885125	-0.488971	-0.728901
C28	C	0.939982	-0.448657	-0.661832
C29	C	0.904415	-0.387215	-0.645918
C30	C	1.223539	-0.240305	-0.315192
C31	C	1.278397	-0.199993	-0.248116
C32	C	1.242831	-0.138559	-0.232171
C33	C	1.152398	-0.117434	-0.283295
C34	C	1.097539	-0.157746	-0.350371
C35	C	1.133113	-0.219179	-0.366317
C36	C	1.518089	-0.466743	-0.506048
C37	C	1.518127	-0.536711	-0.506058
C38	C	1.585366	-0.569574	-0.438936
C39	C	1.585415	-0.635316	-0.438960
C40	C	1.518206	-0.668194	-0.506094
C41	C	1.450962	-0.635323	-0.573230
C42	C	1.450922	-0.569582	-0.573212
N43	N	1.426299	-0.771460	-0.514097
N44	N	1.426340	-0.833912	-0.514108
C45	C	1.518324	-0.866268	-0.506155
N46	N	1.610268	-0.833814	-0.498169
N47	N	1.610226	-0.771357	-0.498153
C48	C	1.518243	-0.739479	-0.506122
C49	C	1.585622	-0.970416	-0.439054
C50	C	1.585673	-1.036160	-0.439085
C51	C	1.451211	-1.036166	-0.573350
C52	C	1.451170	-0.970423	-0.573325
C53	C	1.518374	-0.937553	-0.506171
C54	C	1.792260	-0.303200	-0.506128
C55	C	1.909037	-0.303203	-0.506137
C56	C	1.518295	-0.303131	-0.780140
C57	C	1.518324	-0.303105	-0.896916
C58	C	1.518394	-0.139001	-0.506188
C59	C	1.518465	-0.069033	-0.506222
C60	C	1.451110	-0.343346	-0.951755
C61	C	1.451147	-0.343322	-1.061479
C62	C	1.585617	-0.262812	-1.061517
C63	C	1.585584	-0.262839	-0.951794
C64	C	1.413576	-0.417523	-1.211397
C65	C	1.346345	-0.457758	-1.266239
C66	C	1.243810	-0.467428	-1.230621
C67	C	1.208485	-0.436853	-1.140163
C68	C	1.275710	-0.396613	-1.085327
C69	C	1.378260	-0.386956	-1.120943
C70	C	1.623144	-0.188638	-0.801875
C71	C	1.690365	-0.148394	-0.747036
C72	C	1.792901	-0.138718	-0.782652
C73	C	1.828223	-0.169282	-0.873113
C74	C	1.761002	-0.209526	-0.927952
C75	C	1.658466	-0.219202	-0.892329
C76	C	1.518220	-0.303206	-0.233139
C77	C	1.518395	-0.303055	-0.116363
H78	H	0.685499	-0.389203	-0.805751
H79	H	0.919225	-0.230073	-0.384470
H80	H	1.396493	-1.062934	-0.628017
O81	O	0.779590	-0.306373	-0.681686
C82	C	0.818753	-0.195984	-0.695833
C83	C	0.857835	-0.263584	-0.713309
H84	H	0.882003	-0.161371	-0.721370
H85	H	0.744730	-0.187764	-0.743927
H86	H	0.800612	-0.188774	-0.609181
H87	H	0.876037	-0.270842	-0.799932
H88	H	0.931823	-0.271772	-0.665146
O89	O	1.651028	-1.067988	-0.373781
C90	C	1.784420	-1.061041	-0.240640
C91	C	1.710442	-1.024918	-0.314527
H92	H	1.832491	-1.026235	-0.192730
H93	H	1.736282	-1.091859	-0.185607
H94	H	1.839308	-1.091780	-0.288947
H95	H	1.655539	-0.994145	-0.266305
H96	H	1.758646	-0.994140	-0.369564
H97	H	1.375116	-0.482652	-1.339890
H98	H	0.914071	-0.538998	-0.741872
H99	H	1.847627	-0.105941	-0.738000
H100	H	1.396336	-0.376129	-0.907076
O101	O	1.523487	-0.197983	-0.767373
C102	C	1.356657	-0.150946	-0.726675
C103	C	1.469479	-0.140246	-0.765762
H104	H	1.312966	-0.104271	-0.725339
H105	H	1.314703	-0.184941	-0.781456
H106	H	1.358804	-0.171547	-0.644214
H107	H	1.467427	-0.119624	-0.848207
H108	H	1.511388	-0.106273	-0.710910
H109	H	1.497072	-0.409661	-1.240398
H110	H	1.396167	-0.542825	-0.627872
H111	H	1.640375	-0.230028	-1.106212
H112	H	1.640348	-0.943652	-0.384377
H113	H	1.013607	-0.465858	-0.620192
H114	H	1.352033	-0.217199	-0.206488
H115	H	1.023909	-0.140539	-0.392006
O116	O	1.795490	-0.239186	-1.015786
C117	C	1.939291	-0.255621	-1.135107
C118	C	1.900381	-0.222007	-1.035605
H119	H	2.024092	-0.241734	-1.151174
H120	H	1.934235	-0.308610	-1.123346
H121	H	1.888314	-0.241371	-1.204513
H122	H	1.951326	-0.236206	-0.966152
H123	H	1.905413	-0.169025	-1.047456
O124	O	1.118010	-0.057729	-0.267731
C125	C	1.146646	0.040949	-0.179944
C126	C	1.185717	-0.026646	-0.197503
H127	H	1.201355	0.066095	-0.123148
H128	H	1.145474	0.067124	-0.257904
H129	H	1.064126	0.039653	-0.145725
H130	H	1.268249	-0.025408	-0.231689
H131	H	1.186812	-0.052794	-0.119517
O132	O	1.650572	-0.667310	-0.373676
C133	C	1.664758	-0.741547	-0.231783
C134	C	1.590862	-0.705372	-0.305681
H135	H	1.616511	-0.772318	-0.176776
H136	H	1.719686	-0.772323	-0.279981
H137	H	1.712792	-0.706740	-0.183836
H138	H	1.542760	-0.740133	-0.353644
H139	H	1.536002	-0.674586	-0.257423
O140	O	1.385893	-0.938567	-0.638664
C141	C	1.334813	-0.918362	-0.817326
C142	C	1.408790	-0.954488	-0.743441
H143	H	1.353313	-0.931211	-0.902054
H144	H	1.250100	-0.931358	-0.798887
H145	H	1.346309	-0.865731	-0.805727
H146	H	1.397388	-1.007127	-0.754999
H147	H	1.493476	-0.941440	-0.761898
O148	O	1.126868	-0.382587	-0.638462
C149	C	1.160445	-0.413291	-0.817075
C150	C	1.100105	-0.368981	-0.743249
H151	H	1.138813	-0.402315	-0.901809
H152	H	1.248303	-0.406363	-0.805637
H153	H	1.138833	-0.464034	-0.798420
H154	H	1.121628	-0.318222	-0.761859
H155	H	1.012262	-0.375963	-0.754701
H156	H	1.911714	-0.161400	-0.902117
H157	H	1.189070	-0.500188	-1.275282
H158	H	1.661594	-0.123503	-0.673383
H159	H	0.750019	-0.500670	-0.834648
H160	H	1.287502	-0.105740	-0.177544
O161	O	1.257912	-0.300024	-0.330654
C162	C	1.218802	-0.410415	-0.316409
C163	C	1.179735	-0.342817	-0.298877
H164	H	1.155625	-0.445032	-0.290706
H165	H	1.236868	-0.417692	-0.403062
H166	H	1.292879	-0.418564	-0.268367
H167	H	1.105636	-0.334621	-0.346855
H168	H	1.161741	-0.335573	-0.212203
H169	H	1.640090	-0.542812	-0.384258
O170	O	1.385820	-0.667327	-0.638495
C171	C	1.371656	-0.741461	-0.780388
C172	C	1.445544	-0.705269	-0.706518
H173	H	1.419914	-0.772136	-0.835418
H174	H	1.316781	-0.772335	-0.732170
H175	H	1.323565	-0.706666	-0.828313
H176	H	1.493703	-0.740019	-0.658577
H177	H	1.500350	-0.674385	-0.754796
H178	H	1.246948	-0.371717	-1.011680
H179	H	1.124986	-0.444723	-1.111178
