data_functionalizedCrystal
_audit_creation_method	'MofGen! by Chris Wilmer'
_symmetry_space_group_name_H-M	'P1'
_symmetry_Int_Tables_number	1
_symmetry_cell_setting	triclinic
loop_
_symmetry_equiv_pos_as_xyz
  x,y,z
_cell_length_a	18.760492
_cell_length_b	14.628931
_cell_length_c	14.628931
_cell_angle_alpha	59.999836
_cell_angle_beta	89.998744
_cell_angle_gamma	59.998201
loop_
_atom_site_label
_atom_site_type_symbol
_atom_site_fract_x
_atom_site_fract_y
_atom_site_fract_z
Zr1	Zr	-0.093544	1.000582	0.880618
O2	O	-0.207363	1.191292	0.734657
O3	O	-0.058653	0.809874	0.925363
O4	O	-0.207362	1.000586	0.925364
O5	O	0.058652	1.000576	0.734655
O6	O	-0.207362	1.000585	1.075796
O7	O	-0.058653	1.000581	0.734656
O8	O	0.058652	0.659437	1.075794
O9	O	-0.207363	1.341725	0.734657
O10	O	-0.043772	0.888313	1.056711
O11	O	0.043771	0.888310	0.944445
O12	O	-0.131315	1.112849	0.944446
O13	O	-0.043772	1.112846	0.832179
Zr14	Zr	0.093543	1.000574	1.120538
Zr15	Zr	-0.093544	1.000581	1.120540
Zr16	Zr	0.093543	1.000574	0.880616
Zr17	Zr	-0.093545	1.240504	0.880617
Zr18	Zr	0.093544	0.760652	1.120538
O19	O	0.058652	1.191281	1.075793
O20	O	-0.207362	1.191291	1.075795
O21	O	0.058651	1.191282	0.734655
O22	O	0.207362	0.809863	1.266498
O23	O	-0.058652	0.809873	1.266501
O24	O	0.207361	0.809864	0.925360
O25	O	-0.058652	1.000579	1.266500
O26	O	0.207361	1.000569	1.075792
O27	O	0.207361	1.000570	0.925360
O28	O	0.058652	1.000575	1.266499
O29	O	-0.207363	1.341724	0.925363
O30	O	0.207362	0.659431	1.075793
O31	O	0.207362	0.659431	1.266499
O32	O	0.058653	0.659436	1.266500
O33	O	-0.058654	1.341719	0.734656
O34	O	-0.058653	1.341718	0.925362
O35	O	0.131314	0.888306	1.056710
O36	O	0.043771	0.888310	1.168976
O37	O	-0.043772	1.112845	1.056711
O38	O	0.043771	1.112842	0.944444
C39	C	0.000000	0.700472	1.000578
C40	C	0.000000	0.598619	1.000579
C41	C	-0.234018	1.000587	1.000580
C42	C	-0.313441	1.000590	1.000581
C43	C	-0.061415	0.631972	0.921820
C44	C	-0.061417	0.526703	0.921818
C45	C	-0.649252	1.000567	1.083455
C46	C	-0.649240	1.000567	0.917698
C47	C	-0.574622	1.000574	0.917697
C48	C	-0.537314	1.000576	1.000576
C49	C	-0.574625	1.000570	1.083458
C50	C	-0.537300	1.000567	0.834824
C51	C	-0.462676	1.000573	0.834819
C52	C	-0.425371	1.000584	0.917696
C53	C	-0.462687	1.000579	1.000579
C54	C	-0.425379	1.000581	1.083459
C55	C	-0.462698	1.000586	1.166339
C56	C	-0.537319	1.000581	1.166334
C57	C	-0.350749	1.000588	0.917701
C58	C	-0.350752	1.000584	1.083462
C59	C	0.234017	1.000568	1.000576
C60	C	0.313441	1.000565	1.000575
C61	C	-0.000001	1.000578	0.700472
C62	C	-0.000001	1.000579	0.598619
C63	C	-0.000001	1.300683	1.000577
C64	C	-0.000001	1.402537	1.000577
C65	C	0.043427	0.889194	0.608901
C66	C	0.043427	0.889192	0.503632
C67	C	-0.000000	1.000577	1.300684
C68	C	-0.000000	1.000576	1.402537
C69	C	0.000000	0.700471	1.300684
C70	C	0.000001	0.598617	1.402537
C71	C	0.234018	0.700463	1.000576
C72	C	0.313441	0.598606	1.000576
C73	C	0.234018	0.700462	1.300682
C74	C	0.313442	0.598605	1.402535
C75	C	-0.234019	1.300693	0.700474
C76	C	-0.313443	1.402550	0.598621
C77	C	-0.000001	1.300684	0.700472
C78	C	-0.000002	1.402538	0.598618
C79	C	-0.234019	1.300693	1.000579
C80	C	-0.313442	1.402549	1.000580
C81	C	0.396444	0.550772	1.059177
C82	C	0.471078	0.455080	1.059172
C83	C	0.462707	0.407219	1.000572
C84	C	0.379696	0.455063	0.941964
C85	C	0.305064	0.550759	0.941963
C86	C	0.305043	0.550774	1.508978
C87	C	0.379663	0.455082	1.604688
C88	C	0.462681	0.407217	1.593953
C89	C	0.471077	0.455058	1.487499
C90	C	0.396458	0.550754	1.391791
C91	C	-0.305044	1.450393	0.492178
C92	C	-0.379664	1.546114	0.396467
C93	C	-0.462681	1.593985	0.407202
C94	C	-0.471078	1.546138	0.513657
C95	C	-0.396459	1.450425	0.609365
C96	C	-0.305044	1.450380	1.059191
C97	C	-0.379663	1.546072	1.059213
C98	C	-0.462681	1.593938	1.000617
C99	C	-0.471078	1.546097	0.942004
C100	C	-0.396459	1.450400	0.941989
C101	C	-0.043427	0.553210	1.392256
C102	C	-0.043427	0.447939	1.497525
H103	H	-0.113997	0.738460	0.854396
H104	H	0.080601	0.793831	0.512260
H105	H	-0.037178	1.095937	0.511883
H106	H	-0.372810	1.585014	1.106941
C107	C	-0.050234	1.129414	0.390856
H108	H	-0.077484	1.199294	0.313774
H109	H	-0.010767	1.134221	0.425792
H110	H	-0.093456	1.134219	0.425788
H111	H	0.237453	0.589732	1.517740
H112	H	0.403276	0.589730	1.106896
C113	C	-0.544754	1.699212	1.000633
H114	H	-0.527854	1.720846	1.043925
H115	H	-0.578521	1.667860	1.032008
H116	H	-0.578511	1.773894	0.925967
H117	H	0.052578	0.492131	1.068008
C118	C	-0.421639	1.000584	0.743649
H119	H	-0.454550	1.000592	0.694285
H120	H	-0.363290	0.925611	0.777686
H121	H	-0.421776	1.075582	0.702711
H122	H	-0.372810	1.585055	0.309797
H123	H	-0.679615	1.000557	0.850225
C124	C	0.370416	0.402433	1.721776
H125	H	0.426742	0.338585	1.777246
H126	H	0.339414	0.365099	1.730137
H127	H	0.339396	0.471132	1.730182
H128	H	0.403308	0.589686	1.305124
H129	H	-0.679640	1.000576	1.150932
C130	C	-0.132451	0.565053	0.830724
H131	H	-0.123136	0.489270	0.842677
H132	H	-0.129788	0.614770	0.759160
H133	H	-0.188256	0.614765	0.834149
H134	H	0.037188	0.441568	1.607257
C135	C	-0.562399	1.598793	0.525451
H136	H	-0.605630	1.662635	0.453200
H137	H	-0.568962	1.636132	0.565214
H138	H	-0.568950	1.530088	0.565199
C139	C	0.071039	0.364170	1.091675
H140	H	0.109574	0.272614	1.141082
H141	H	0.044458	0.398111	1.132564
H142	H	0.102926	0.398106	1.057574
H143	H	0.523433	0.329295	1.671894
C144	C	-0.544755	1.699249	0.301917
H145	H	-0.527855	1.720868	0.236989
H146	H	-0.578526	1.773932	0.301891
H147	H	-0.578508	1.667868	0.301907
H148	H	0.037176	0.559562	1.489274
H149	H	0.080610	0.793835	0.695638
H150	H	-0.403308	1.411472	0.696033
C151	C	-0.309703	1.000586	0.826544
H152	H	-0.342612	1.000588	0.777182
H153	H	-0.251355	0.925610	0.860588
H154	H	-0.309838	1.075582	0.785602
H155	H	0.538662	0.416137	1.106902
H156	H	-0.320384	1.000592	1.150949
C157	C	0.544808	0.301947	1.000590
H158	H	0.595437	0.280311	1.043896
H159	H	0.544824	0.333302	0.925933
H160	H	0.544821	0.227265	1.031980
C161	C	-0.562399	1.598769	0.877543
H162	H	-0.605629	1.662623	0.885942
H163	H	-0.568964	1.530086	0.906466
H164	H	-0.568948	1.636126	0.800437
C165	C	0.562398	0.402386	1.475705
H166	H	0.605629	0.338531	1.547956
H167	H	0.568963	0.471069	1.435943
H168	H	0.568947	0.365029	1.435956
H169	H	-0.403309	1.411467	0.894256
C170	C	-0.213734	1.397740	1.123656
H171	H	-0.219432	1.439933	1.158571
H172	H	-0.182719	1.413426	1.073080
H173	H	-0.182726	1.307381	1.179114
H174	H	-0.237454	1.411422	0.483416
C175	C	0.370500	0.402392	0.877525
H176	H	0.426840	0.338537	0.885938
H177	H	0.339494	0.471076	0.800422
H178	H	0.339504	0.365037	0.906485
H179	H	-0.080609	0.592275	1.305519
C180	C	0.213766	0.603359	0.877507
H181	H	0.219478	0.561134	0.842620
H182	H	0.182741	0.693712	0.822047
H183	H	0.182758	0.587653	0.928097
H184	H	-0.567675	1.000556	0.767350
C185	C	-0.093656	0.395194	1.485860
H186	H	-0.087072	0.331366	1.558142
H187	H	-0.071103	0.357818	1.446123
H188	H	-0.153792	0.463864	1.446129
H189	H	-0.432310	1.000579	1.233825
H190	H	-0.567708	1.000583	1.233813
