data_functionalizedCrystal
_audit_creation_method	'MofGen! by Chris Wilmer'
_symmetry_space_group_name_H-M	'P1'
_symmetry_Int_Tables_number	1
_symmetry_cell_setting	triclinic
loop_
_symmetry_equiv_pos_as_xyz
  x,y,z
_cell_length_a	14.519731
_cell_length_b	14.519709
_cell_length_c	14.586319
_cell_angle_alpha	89.995260
_cell_angle_beta	89.996401
_cell_angle_gamma	83.684499
loop_
_atom_site_label
_atom_site_type_symbol
_atom_site_fract_x
_atom_site_fract_y
_atom_site_fract_z
O1	O	1.223854	0.120984	-0.076244
O2	O	0.955380	0.135200	-0.076246
O3	O	1.096735	-0.006146	-0.076237
O4	O	1.082499	0.262330	-0.076253
O5	O	1.096725	-0.006148	0.076244
O6	O	0.955370	0.135198	0.076235
O7	O	1.223844	0.120982	0.076236
Cu8	Cu	1.089606	0.128089	0.090158
Cu9	Cu	1.089618	0.128092	-0.090168
O10	O	1.082489	0.262327	0.076227
C11	C	0.921016	0.134532	-0.000006
C12	C	0.818635	0.132536	-0.000006
C13	C	0.735491	0.130915	-0.000010
C14	C	0.631182	0.128888	-0.000010
C15	C	0.548043	0.127280	-0.000010
C16	C	0.443728	0.125253	-0.000012
C17	C	1.096067	-0.040507	0.000004
C18	C	1.094079	-0.142889	0.000004
C19	C	1.086759	-0.517785	-0.000020
C20	C	1.088792	-0.413477	-0.000013
C21	C	1.090419	-0.330340	-0.000007
C22	C	1.092452	-0.226025	-0.000002
C23	C	1.258209	0.121649	-0.000006
C24	C	1.360589	0.123645	-0.000011
C25	C	1.083157	0.296688	-0.000015
C26	C	1.085146	0.399070	-0.000022
N27	N	1.089605	0.128087	0.216990
N28	N	1.089627	0.128087	-0.217000
C29	C	1.152218	0.065520	0.452001
C30	C	1.152220	0.065518	0.547982
C31	C	1.027007	0.190657	0.547983
C32	C	1.027001	0.190654	0.452004
C33	C	1.089611	0.128087	0.404015
C34	C	1.089620	0.128087	0.595976
C35	C	1.089623	0.128085	0.700043
C36	C	1.089608	0.128087	0.299941
H37	H	1.203198	0.014573	0.412930
H38	H	1.203199	0.014570	0.587049
H39	H	0.976015	0.241603	0.412931
H40	H	0.976032	0.241599	0.587065
