data_functionalizedCrystal
_audit_creation_method	'MofGen! by Chris Wilmer'
_symmetry_space_group_name_H-M	'P1'
_symmetry_Int_Tables_number	1
_symmetry_cell_setting	triclinic
loop_
_symmetry_equiv_pos_as_xyz
  x,y,z
_cell_length_a	18.101398
_cell_length_b	19.121111
_cell_length_c	18.101389
_cell_angle_alpha	87.578568
_cell_angle_beta	89.985654
_cell_angle_gamma	87.531715
loop_
_atom_site_label
_atom_site_type_symbol
_atom_site_fract_x
_atom_site_fract_y
_atom_site_fract_z
Zn1	Zn	1.119549	0.279724	-0.431217
Zn2	Zn	1.452883	0.613057	-0.097884
Zn3	Zn	1.786216	0.946391	0.235450
Zn4	Zn	1.114167	0.397160	-0.312655
Zn5	Zn	1.447501	0.730493	0.020678
Zn6	Zn	1.780834	1.063827	0.354011
Zn7	Zn	0.995708	0.279723	-0.307400
Zn8	Zn	1.329042	0.613056	0.025934
Zn9	Zn	1.662375	0.946389	0.359267
Zn10	Zn	0.990382	0.397136	-0.436464
Zn11	Zn	1.323716	0.730469	-0.103131
Zn12	Zn	1.657049	1.063803	0.230202
O13	O	1.054952	0.338436	-0.371934
O14	O	1.388285	0.671769	-0.038601
O15	O	1.721618	1.005102	0.294733
O16	O	1.222468	0.295313	-0.415493
O17	O	1.555801	0.628646	-0.082160
O18	O	1.889134	0.961980	0.251174
O19	O	1.098430	0.381591	-0.208326
O20	O	1.431763	0.714925	0.125008
O21	O	1.765097	1.048258	0.458341
O22	O	1.016618	0.181438	-0.319429
O23	O	1.349951	0.514771	0.013904
O24	O	1.683284	0.848104	0.347238
O25	O	1.218514	0.381593	-0.328386
O26	O	1.551847	0.714926	0.004947
O27	O	1.885180	1.048259	0.338281
O28	O	1.107603	0.181439	-0.410397
O29	O	1.440936	0.514772	-0.077064
O30	O	1.774270	0.848105	0.256270
O31	O	1.011399	0.295310	-0.204464
O32	O	1.344732	0.628644	0.128869
O33	O	1.678065	0.961977	0.462202
O34	O	0.891369	0.295287	-0.324517
O35	O	1.224703	0.628620	0.008816
O36	O	1.558036	0.961954	0.342150
O37	O	1.007540	0.381551	-0.539401
O38	O	1.340873	0.714885	-0.206067
O39	O	1.674207	1.048218	0.127266
O40	O	0.887456	0.381550	-0.419340
O41	O	1.220790	0.714883	-0.086007
O42	O	1.554123	1.048217	0.247327
O43	O	1.102438	0.295289	-0.535546
O44	O	1.435772	0.628623	-0.202212
O45	O	1.769105	0.961956	0.131121
O46	O	1.093266	0.495442	-0.333474
O47	O	1.426599	0.828775	-0.000141
O48	O	1.759932	1.162109	0.333193
O49	O	1.002321	0.495424	-0.424436
O50	O	1.335654	0.828758	-0.091103
O51	O	1.668988	1.162091	0.242231
C52	C	0.862542	0.338416	-0.371928
C53	C	1.195875	0.671750	-0.038595
C54	C	1.529209	1.005083	0.294739
C55	C	0.780228	0.338425	-0.371944
C56	C	1.113561	0.671758	-0.038611
C57	C	1.446894	1.005092	0.294723
C58	C	0.629519	0.338438	-0.371943
C59	C	0.962852	0.671771	-0.038610
C60	C	1.296185	1.005105	0.294723
C61	C	0.595724	0.392796	-0.431519
C62	C	0.929057	0.726129	-0.098185
C63	C	1.262391	1.059463	0.235148
C64	C	0.510096	0.393016	-0.431359
C65	C	0.843429	0.726349	-0.098026
C66	C	1.176762	1.059683	0.235308
C67	C	0.481136	0.338451	-0.371944
C68	C	0.814469	0.671784	-0.038611
C69	C	1.147802	1.005118	0.294723
C70	C	0.511301	0.358190	-0.294689
C71	C	0.844634	0.691523	0.038644
C72	C	1.177968	1.024857	0.371977
C73	C	0.596929	0.358577	-0.295037
C74	C	0.930262	0.691910	0.038296
C75	C	1.263595	1.025244	0.371629
C76	C	0.601334	0.264206	-0.388934
C77	C	0.934667	0.597539	-0.055601
C78	C	1.268000	0.930873	0.277733
C79	C	0.515665	0.264613	-0.390673
C80	C	0.848998	0.597947	-0.057340
C81	C	1.182332	0.931280	0.275993
C82	C	0.397276	0.338457	-0.371939
C83	C	0.730609	0.671790	-0.038606
C84	C	1.063942	1.005124	0.294727
C85	C	0.713378	0.338434	-0.371943
C86	C	1.046712	0.671767	-0.038609
C87	C	1.380045	1.005100	0.294724
C88	C	1.046651	0.520917	-0.380111
C89	C	1.379985	0.854251	-0.046778
C90	C	1.713318	1.187584	0.286556
C91	C	1.043168	0.598984	-0.383634
C92	C	1.376502	0.932317	-0.050300
C93	C	1.709835	1.265651	0.283033
C94	C	1.088919	0.635646	-0.337969
C95	C	1.422252	0.968979	-0.004636
C96	C	1.755585	1.302312	0.328698
C97	C	1.085647	0.708997	-0.341286
C98	C	1.418980	1.042331	-0.007953
C99	C	1.752314	1.375664	0.325380
C100	C	1.036621	0.745686	-0.390266
C101	C	1.369954	1.079019	-0.056932
C102	C	1.703288	1.412353	0.276401
C103	C	0.990869	0.709019	-0.435935
C104	C	1.324202	1.042352	-0.102602
C105	C	1.657536	1.375686	0.230731
C106	C	0.994145	0.635669	-0.432621
C107	C	1.327478	0.969002	-0.099288
C108	C	1.660811	1.302335	0.234046
C109	C	1.024363	0.967158	-0.402644
C110	C	1.357696	1.300491	-0.069310
C111	C	1.691030	1.633824	0.264023
C112	C	1.021089	1.040513	-0.405953
C113	C	1.354423	1.373846	-0.072620
C114	C	1.687756	1.707180	0.260714
C115	C	1.115869	1.040486	-0.311305
C116	C	1.449202	1.373820	0.022029
C117	C	1.782535	1.707153	0.355362
C118	C	1.119137	0.967134	-0.307991
C119	C	1.452470	1.300468	0.025342
C120	C	1.785804	1.633801	0.358675
C121	C	1.073388	0.930474	-0.353664
C122	C	1.406721	1.263807	-0.020331
C123	C	1.740054	1.597141	0.313003
C124	C	1.033274	0.820663	-0.393656
C125	C	1.366608	1.153997	-0.060323
C126	C	1.699941	1.487330	0.273010
C127	C	1.076739	0.855498	-0.350277
C128	C	1.410072	1.188831	-0.016943
C129	C	1.743405	1.522165	0.316390
C130	C	1.248113	0.338456	-0.371941
C131	C	1.581446	0.671789	-0.038607
C132	C	1.914779	1.005122	0.294726
C133	C	1.330426	0.338464	-0.371943
C134	C	1.663760	0.671797	-0.038610
C135	C	1.997093	1.005131	0.294723
C136	C	1.063299	1.155241	-0.363751
C137	C	1.396632	1.488575	-0.030418
C138	C	1.729965	1.821908	0.302916
C139	C	1.066839	1.077175	-0.360288
C140	C	1.400173	1.410508	-0.026955
C141	C	1.733506	1.743841	0.306379
C142	C	1.054995	0.338418	-0.565095
C143	C	1.388329	0.671751	-0.231762
C144	C	1.721662	1.005085	0.101571
C145	C	1.055014	0.338410	-0.647409
C146	C	1.388347	0.671744	-0.314076
C147	C	1.721681	1.005077	0.019258
C148	C	1.055063	0.338279	-0.946494
C149	C	1.388396	0.671612	-0.613161
C150	C	1.721730	1.004945	-0.279828
C151	C	0.995166	0.392380	-0.917587
C152	C	1.328499	0.725713	-0.584253
C153	C	1.661833	1.059046	-0.250920
C154	C	0.995310	0.392631	-0.831980
C155	C	1.328643	0.725964	-0.498646
C156	C	1.661977	1.059297	-0.165313
C157	C	1.055038	0.338344	-0.798115
C158	C	1.388371	0.671677	-0.464781
C159	C	1.721705	1.005011	-0.131448
C160	C	1.132160	0.358437	-0.830110
C161	C	1.465494	0.691771	-0.496777
C162	C	1.798827	1.025104	-0.163443
C163	C	1.131824	0.358792	-0.915771
C164	C	1.465158	0.692126	-0.582438
C165	C	1.798491	1.025459	-0.249104
C166	C	1.038522	0.263964	-0.911581
C167	C	1.371855	0.597297	-0.578248
C168	C	1.705188	0.930631	-0.244914
C169	C	1.036766	0.264393	-0.825950
C170	C	1.370100	0.597727	-0.492616
C171	C	1.703433	0.931060	-0.159283
C172	C	1.055029	0.338380	-0.714257
C173	C	1.388362	0.671713	-0.380923
C174	C	1.721695	1.005046	-0.047590
C175	C	1.055077	0.338245	-1.030352
C176	C	1.388411	0.671578	-0.697019
C177	C	1.721744	1.004911	-0.363686
C178	C	1.054953	0.338403	-0.179522
C179	C	1.388287	0.671736	0.153811
C180	C	1.721620	1.005069	0.487145
C181	C	1.055087	0.338212	-0.097200
C182	C	1.388420	0.671546	0.236133
C183	C	1.721754	1.004879	0.569467
H184	H	0.614433	0.412829	-0.280295
H185	H	0.947766	0.746163	0.053038
H186	H	1.281099	1.079496	0.386371
H187	H	0.981175	1.070383	-0.445850
H188	H	1.314508	1.403716	-0.112517
H189	H	1.647842	1.737050	0.220816
H190	H	1.116659	0.825624	-0.310400
H191	H	1.449992	1.158957	0.022933
H192	H	1.783325	1.492291	0.356266
H193	H	1.153116	1.070343	-0.274122
H194	H	1.486450	1.403676	0.059212
H195	H	1.819783	1.737010	0.392545
F196	F	0.483375	0.376925	-0.506356
F197	F	0.816708	0.710258	-0.173023
F198	F	1.150042	1.043592	0.160310
F199	F	0.938696	0.748068	-0.488067
F200	F	1.272029	1.081401	-0.154734
F201	F	1.605362	1.414735	0.178600
H202	H	0.993356	0.850543	-0.433534
H203	H	1.326689	1.183877	-0.100200
H204	H	1.660022	1.517210	0.233133
F205	F	1.171325	0.928093	-0.255869
F206	F	1.504659	1.261426	0.077464
F207	F	1.837992	1.594759	0.410797
H208	H	1.077475	0.221945	-0.802650
H209	H	1.410808	0.555278	-0.469317
H210	H	1.744142	0.888612	-0.135984
H211	H	1.177842	0.320271	-0.808041
H212	H	1.511175	0.653604	-0.474707
H213	H	1.844508	0.986937	-0.141374
F214	F	0.975671	0.928150	-0.451252
F215	F	1.309005	1.261483	-0.117919
F216	F	1.642338	1.594817	0.215415
F217	F	0.962600	0.244589	-0.798506
F218	F	1.295934	0.577923	-0.465172
F219	F	1.629267	0.911256	-0.131839
H220	H	1.146237	0.413117	-0.938194
H221	H	1.479570	0.746451	-0.604860
H222	H	1.812904	1.079784	-0.271527
F223	F	0.620598	0.464285	-0.417322
F224	F	0.953932	0.797619	-0.083989
F225	F	1.287265	1.130952	0.249345
F226	F	1.191869	0.309492	-0.940656
F227	F	1.525202	0.642826	-0.607323
F228	F	1.858536	0.976159	-0.273990
H229	H	0.623770	0.246169	-0.444144
H230	H	0.957104	0.579503	-0.110811
H231	H	1.290437	0.912836	0.222523
F232	F	0.480071	0.428327	-0.274999
F233	F	0.813404	0.761660	0.058334
F234	F	1.146738	1.094993	0.391668
F235	F	0.920424	0.376192	-0.803761
F236	F	1.253757	0.709525	-0.470427
F237	F	1.587091	1.042859	-0.137094
H238	H	0.616891	0.380627	-0.489083
H239	H	0.950225	0.713961	-0.155750
H240	H	1.283558	1.047294	0.177584
F241	F	0.945453	0.596651	-0.481226
F242	F	1.278786	0.929984	-0.147892
F243	F	1.612119	1.263318	0.185441
H244	H	0.487101	0.448026	-0.420346
H245	H	0.820435	0.781359	-0.087012
H246	H	1.153768	1.114692	0.246321
F247	F	0.626265	0.309058	-0.235246
F248	F	0.959598	0.642392	0.098087
F249	F	1.292931	0.975725	0.431420
H250	H	1.122901	0.738844	-0.304101
H251	H	1.456235	1.072177	0.029233
H252	H	1.789568	1.405511	0.362566
F253	F	0.920040	0.376110	-0.943768
F254	F	1.253374	0.709444	-0.610435
F255	F	1.586707	1.042777	-0.277102
H256	H	1.082188	0.223656	-0.930037
H257	H	1.415522	0.556989	-0.596704
H258	H	1.748855	0.890323	-0.263371
F259	F	1.008901	0.463932	-0.948979
F260	F	1.342234	0.797265	-0.615645
F261	F	1.675568	1.130599	-0.282312
H262	H	1.146891	0.412185	-0.811081
H263	H	1.480224	0.745518	-0.477748
H264	H	1.813557	1.078852	-0.144415
H265	H	1.005960	0.447715	-0.813971
H266	H	1.339294	0.781048	-0.480638
H267	H	1.672627	1.114382	-0.147305
F268	F	0.486963	0.308028	-0.235265
F269	F	0.820296	0.641361	0.098068
F270	F	1.153629	0.974695	0.431402
H271	H	0.983437	0.245658	-0.932354
H272	H	1.316770	0.578991	-0.599020
H273	H	1.650104	0.912324	-0.265687
H274	H	1.128838	0.605778	-0.298082
H275	H	1.462171	0.939112	0.035252
H276	H	1.795504	1.272445	0.368585
F277	F	0.490218	0.208880	-0.337793
F278	F	0.823551	0.542214	-0.004459
F279	F	1.156885	0.875547	0.328874
F280	F	0.490017	0.245148	-0.464966
F281	F	0.823351	0.578481	-0.131633
F282	F	1.156684	0.911814	0.201701
H283	H	0.623431	0.223710	-0.345506
H284	H	0.956764	0.557044	-0.012173
H285	H	1.290097	0.890377	0.321161
