data_functionalizedCrystal
_audit_creation_method	'MofGen! by Chris Wilmer'
_symmetry_space_group_name_H-M	'P1'
_symmetry_Int_Tables_number	1
_symmetry_cell_setting	triclinic
loop_
_symmetry_equiv_pos_as_xyz
  x,y,z
_cell_length_a	12.759401
_cell_length_b	12.594516
_cell_length_c	12.759393
_cell_angle_alpha	90.029124
_cell_angle_beta	90.018496
_cell_angle_gamma	90.016214
loop_
_atom_site_label
_atom_site_type_symbol
_atom_site_fract_x
_atom_site_fract_y
_atom_site_fract_z
Zn1	Zn	1.606246	-0.423675	0.593999
Zn2	Zn	1.606136	-0.601694	0.418327
Zn3	Zn	1.430547	-0.423730	0.418339
Zn4	Zn	1.430532	-0.601612	0.593968
O5	O	1.518365	-0.512678	0.506158
O6	O	1.753252	-0.447300	0.570704
O7	O	1.582804	-0.578144	0.271307
O8	O	1.453907	-0.274777	0.441658
O9	O	1.753171	-0.578090	0.441638
O10	O	1.582991	-0.274736	0.570715
O11	O	1.453800	-0.447395	0.271316
O12	O	1.283524	-0.447316	0.441628
O13	O	1.453880	-0.577951	0.740993
O14	O	1.283513	-0.578005	0.570663
O15	O	1.582976	-0.447221	0.741016
O16	O	1.582789	-0.750629	0.441608
O17	O	1.453774	-0.750569	0.570651
C18	C	1.245398	-0.512658	0.506144
C19	C	1.128621	-0.512676	0.506163
C20	C	1.073781	-0.580834	0.573240
C21	C	0.964057	-0.580848	0.573251
C22	C	0.964023	-0.444541	0.439099
C23	C	1.073745	-0.444523	0.439094
C24	C	1.073799	-0.659533	0.650688
C25	C	0.964075	-0.659547	0.650700
C26	C	1.518296	-0.789219	0.506148
C27	C	1.518363	-0.907524	0.506179
C28	C	1.448185	-0.976783	0.576316
C29	C	1.422585	-1.047654	0.480449
C30	C	1.544058	-1.047453	0.602062
C31	C	1.492713	-0.976836	0.410261
C32	C	1.614230	-0.976629	0.531938
C33	C	1.588667	-1.047468	0.436006
C34	C	1.792398	-0.512698	0.506173
C35	C	1.909175	-0.512707	0.506179
C36	C	1.518439	-0.512570	0.780192
C37	C	1.518470	-0.512525	0.896968
C38	C	1.518463	-0.235057	0.506192
C39	C	1.518505	-0.116752	0.506206
C40	C	1.518352	-0.512708	0.233191
C41	C	1.518525	-0.512454	0.116415
C42	C	1.585700	-0.444447	0.951844
C43	C	1.585725	-0.444409	1.061568
C44	C	1.451288	-0.580534	1.061531
C45	C	1.451258	-0.580567	0.951809
C46	C	1.663319	-0.365859	0.951866
C47	C	1.663344	-0.365821	1.061590
H48	H	0.930078	-0.630122	0.728050
C49	C	1.377299	-0.655440	0.891444
H50	H	1.386898	-0.645710	0.818243
H51	H	1.392641	-0.726954	0.909410
H52	H	1.306718	-0.639833	0.909428
C53	C	0.923813	-0.770873	0.621071
H54	H	0.981713	-0.816645	0.608866
H55	H	0.882473	-0.798335	0.676717
H56	H	0.882426	-0.766316	0.559332
C57	C	1.767696	-0.405784	0.905875
H58	H	1.764112	-0.404458	0.831514
H59	H	1.823162	-0.361156	0.928871
H60	H	1.780193	-0.476392	0.928853
C61	C	1.624037	-0.260015	1.107590
H62	H	1.606520	-0.212921	1.052149
H63	H	1.563785	-0.272637	1.149489
H64	H	1.677569	-0.229205	1.149502
C65	C	1.119760	-0.765257	0.611145
H66	H	1.194122	-0.761638	0.612484
H67	H	1.096780	-0.821471	0.655115
H68	H	1.096747	-0.777876	0.541425
H69	H	1.648075	-1.078309	0.376636
C70	C	1.367875	-0.934843	0.656322
H71	H	1.299841	-0.959166	0.637853
H72	H	1.385409	-0.960060	0.724252
H73	H	1.368816	-0.859419	0.656199
H74	H	1.396564	-0.635930	1.106196
C75	C	1.463293	-0.935114	0.300707
H76	H	1.463384	-0.859684	0.301376
H77	H	1.512878	-0.959879	0.250852
H78	H	1.395448	-0.960025	0.282317
C79	C	1.573346	-1.089356	0.711584
H80	H	1.523365	-1.065140	0.761317
H81	H	1.573817	-1.164773	0.710659
H82	H	1.640920	-1.063982	0.730354
C83	C	1.313151	-1.089803	0.451022
H84	H	1.263317	-1.065608	0.500913
H85	H	1.294464	-1.064586	0.383400
H86	H	1.314156	-1.165225	0.450624
H87	H	1.744714	-0.387898	1.091369
H88	H	1.641552	-0.283430	0.922107
C89	C	1.134067	-0.369546	0.365313
H90	H	1.085667	-0.328970	0.325364
H91	H	1.176893	-0.323214	0.405577
H92	H	1.176843	-0.410205	0.319458
C93	C	0.903656	-0.369583	0.365327
H94	H	0.830455	-0.379357	0.374933
H95	H	0.921656	-0.298085	0.380821
H96	H	0.921607	-0.385078	0.294705
H97	H	1.103608	-0.637550	0.732094
H98	H	1.695219	-0.945412	0.553750
