data_functionalizedCrystal
_audit_creation_method	'MofGen! by Chris Wilmer'
_symmetry_space_group_name_H-M	'P1'
_symmetry_Int_Tables_number	1
_symmetry_cell_setting	triclinic
loop_
_symmetry_equiv_pos_as_xyz
  x,y,z
_cell_length_a	12.759401
_cell_length_b	18.050589
_cell_length_c	12.759393
_cell_angle_alpha	89.970202
_cell_angle_beta	89.981827
_cell_angle_gamma	90.028382
loop_
_atom_site_label
_atom_site_type_symbol
_atom_site_fract_x
_atom_site_fract_y
_atom_site_fract_z
Zn1	Zn	1.606153	-0.295619	-0.593988
Zn2	Zn	2.106153	0.204381	-0.093988
Zn3	Zn	1.606007	-0.419827	-0.418311
Zn4	Zn	2.106007	0.080173	0.081689
Zn5	Zn	1.430456	-0.295656	-0.418328
Zn6	Zn	1.930456	0.204344	0.081672
Zn7	Zn	1.430403	-0.419772	-0.593953
Zn8	Zn	1.930403	0.080228	-0.093953
O9	O	1.518255	-0.357718	-0.506145
O10	O	2.018255	0.142282	-0.006145
O11	O	1.753155	-0.312103	-0.570692
O12	O	2.253155	0.187897	-0.070692
O13	O	1.582681	-0.403394	-0.271292
O14	O	2.082681	0.096606	0.228708
O15	O	1.453847	-0.191726	-0.441651
O16	O	1.953847	0.308274	0.058349
O17	O	1.753048	-0.403358	-0.441623
O18	O	2.253048	0.096642	0.058377
O19	O	1.582930	-0.191699	-0.570708
O20	O	2.082930	0.308301	-0.070708
O21	O	1.453705	-0.312166	-0.271304
O22	O	1.953705	0.187834	0.228696
O23	O	1.283428	-0.312112	-0.441617
O24	O	1.783428	0.187888	0.058383
O25	O	1.453755	-0.403264	-0.740979
O26	O	1.953755	0.096736	-0.240979
O27	O	1.283389	-0.403300	-0.570648
O28	O	1.783389	0.096700	-0.070648
O29	O	1.582878	-0.312049	-0.741005
O30	O	2.082878	0.187951	-0.241005
O31	O	1.582629	-0.523744	-0.441589
O32	O	2.082629	-0.023744	0.058411
O33	O	1.453613	-0.523703	-0.570632
O34	O	1.953613	-0.023703	-0.070632
C35	C	1.245287	-0.357704	-0.506131
C36	C	1.745287	0.142296	-0.006131
C37	C	1.128511	-0.357716	-0.506149
C38	C	1.628511	0.142284	-0.006149
C39	C	1.073656	-0.405274	-0.573225
C40	C	1.573656	0.094726	-0.073225
C41	C	0.963932	-0.405283	-0.573236
C42	C	1.463932	0.094717	-0.073236
C43	C	0.963928	-0.310176	-0.439088
C44	C	1.463928	0.189824	0.060912
C45	C	1.073650	-0.310163	-0.439083
C46	C	1.573650	0.189837	0.060917
C47	C	1.128517	-0.452827	-0.640292
C48	C	1.628517	0.047173	-0.140292
C49	C	1.073662	-0.500389	-0.707372
C50	C	1.573662	-0.000389	-0.207372
C51	C	0.963938	-0.500398	-0.707383
C52	C	1.463938	-0.000398	-0.207383
C53	C	0.909069	-0.452846	-0.640314
C54	C	1.409069	0.047154	-0.140314
C55	C	1.518128	-0.550670	-0.506127
C56	C	2.018128	-0.050670	-0.006127
C57	C	1.518170	-0.633216	-0.506155
C58	C	2.018170	-0.133216	-0.006155
C59	C	1.448080	-0.832672	-0.576304
C60	C	1.948080	-0.332672	-0.076304
C61	C	1.422466	-0.882119	-0.480436
C62	C	1.922466	-0.382119	0.019564
C63	C	1.518273	-0.784346	-0.506169
C64	C	2.018273	-0.284346	-0.006169
C65	C	1.543938	-0.881980	-0.602048
C66	C	2.043938	-0.381980	-0.102048
C67	C	1.518371	-0.930331	-0.506191
C68	C	2.018371	-0.430331	-0.006191
C69	C	1.492609	-0.832707	-0.410250
C70	C	1.992609	-0.332707	0.089750
C71	C	1.614126	-0.832564	-0.531927
C72	C	2.114126	-0.332564	-0.031927
C73	C	1.588548	-0.881989	-0.435992
C74	C	2.088548	-0.381989	0.064008
C75	C	1.518214	-0.700248	-0.506158
C76	C	2.018214	-0.200248	-0.006158
C77	C	1.518430	-1.014428	-0.506191
C78	C	2.018430	-0.514428	-0.006191
C79	C	1.792288	-0.357732	-0.506160
C80	C	2.292288	0.142268	-0.006160
C81	C	1.909065	-0.357738	-0.506166
C82	C	2.409065	0.142262	-0.006166
C83	C	1.518327	-0.357646	-0.780178
C84	C	2.018327	0.142354	-0.280178
C85	C	1.518358	-0.357615	-0.896955
C86	C	2.018358	0.142385	-0.396955
C87	C	1.518411	-0.164013	-0.506185
C88	C	2.018411	0.335987	-0.006185
C89	C	1.518477	-0.081467	-0.506203
C90	C	2.018477	0.418533	-0.006203
C91	C	1.451177	-0.405064	-1.061530
C92	C	1.951177	0.094936	-0.561530
C93	C	1.451145	-0.405091	-0.951806
C94	C	1.951145	0.094909	-0.451806
C95	C	1.585600	-0.310104	-0.951834
C96	C	2.085600	0.189896	-0.451834
C97	C	1.585626	-0.310074	-1.061556
C98	C	2.085626	0.189926	-0.561556
C99	C	1.383967	-0.452548	-1.116375
C100	C	1.883967	0.047452	-0.616375
C101	C	1.316723	-0.500058	-1.061504
C102	C	1.816723	-0.000058	-0.561504
C103	C	1.316691	-0.500086	-0.951780
C104	C	1.816691	-0.000086	-0.451780
C105	C	1.383902	-0.452602	-0.896927
C106	C	1.883902	0.047398	-0.396927
C107	C	1.518244	-0.357736	-0.233178
C108	C	2.018244	0.142264	0.266822
C109	C	1.518416	-0.357558	-0.116401
C110	C	2.018416	0.142442	0.383599
H111	H	1.217860	-0.452826	-0.640288
H112	H	1.717860	0.047174	-0.140288
H113	H	1.383868	-0.452626	-0.807582
H114	H	1.883868	0.047374	-0.307582
H115	H	1.640321	-0.271446	-0.907164
H116	H	2.140321	0.228554	-0.407164
H117	H	1.640373	-0.271387	-1.106233
H118	H	2.140373	0.228613	-0.606233
H119	H	1.383988	-0.452533	-1.205718
H120	H	1.883988	0.047467	-0.705718
C121	C	1.367771	-0.803408	-0.656313
C122	C	1.867771	-0.303408	-0.156313
N123	N	1.307279	-0.781365	-0.716568
N124	N	1.807279	-0.281365	-0.216568
C125	C	1.242786	-0.552280	-1.121844
C126	C	1.742786	-0.052280	-0.621844
N127	N	1.187092	-0.591614	-1.167291
N128	N	1.687092	-0.091614	-0.667291
C129	C	1.313015	-0.911526	-0.451008
C130	C	1.813015	-0.411526	0.048992
N131	N	1.230574	-0.933673	-0.428849
N132	N	1.730574	-0.433673	0.071151
H133	H	1.118343	-0.539099	-0.761983
H134	H	1.618343	-0.039099	-0.261983
C135	C	1.723538	-0.803122	-0.561404
C136	C	2.223538	-0.303122	-0.061404
N137	N	1.805945	-0.780941	-0.583621
N138	N	2.305945	-0.280941	-0.083621
C139	C	0.903600	-0.552719	-0.781168
C140	C	1.403600	-0.052719	-0.281168
N141	N	0.858156	-0.592133	-0.836738
N142	N	1.358156	-0.092133	-0.336738
H143	H	0.819724	-0.452851	-0.640338
H144	H	1.319724	0.047149	-0.140338
C145	C	1.133994	-0.257850	-0.365293
C146	C	1.633994	0.242150	0.134707
N147	N	1.179445	-0.218446	-0.309714
N148	N	1.679445	0.281554	0.190286
C149	C	0.903567	-0.257876	-0.365312
C150	C	1.403567	0.242124	0.134688
N151	N	0.858104	-0.218486	-0.309739
N152	N	1.358104	0.281514	0.190261
C153	C	1.463203	-0.803590	-0.300691
C154	C	1.963203	-0.303590	0.199309
N155	N	1.441050	-0.781657	-0.218174
N156	N	1.941050	-0.281657	0.281826
H157	H	1.647950	-0.903507	-0.376622
H158	H	2.147950	-0.403507	0.123378
H159	H	1.565607	-0.903625	-0.683124
H160	H	2.065607	-0.403625	-0.183124
H161	H	1.261929	-0.538765	-0.907107
H162	H	1.761929	-0.038765	-0.407107
