data_functionalizedCrystal
_audit_creation_method	'MofGen! by Chris Wilmer'
_symmetry_space_group_name_H-M	'P1'
_symmetry_Int_Tables_number	1
_symmetry_cell_setting	triclinic
loop_
_symmetry_equiv_pos_as_xyz
  x,y,z
_cell_length_a	27.732048
_cell_length_b	14.971486
_cell_length_c	13.448316
_cell_angle_alpha	90.001801
_cell_angle_beta	89.988441
_cell_angle_gamma	96.871608
loop_
_atom_site_label
_atom_site_type_symbol
_atom_site_fract_x
_atom_site_fract_y
_atom_site_fract_z
O1	O	0.062991	-1.185952	-0.082589
O2	O	0.070534	-0.925433	-0.082617
O3	O	-0.003597	-1.063784	-0.082583
O4	O	0.137122	-1.047601	-0.082623
O5	O	-0.003601	-1.063766	0.082801
O6	O	0.070530	-0.925416	0.082767
O7	O	0.062986	-1.185935	0.082795
Cu8	Cu	0.066758	-1.055674	0.097882
Cu9	Cu	0.066763	-1.055694	-0.097704
O10	O	0.137117	-1.047584	0.082761
C11	C	0.070195	-0.892105	0.000071
C12	C	0.069184	-0.792824	0.000061
C13	C	-0.021608	-1.063435	0.000111
C14	C	-0.075267	-1.062412	0.000120
C15	C	0.063326	-1.219263	0.000104
C16	C	0.064337	-1.318544	0.000108
C17	C	-0.413735	-1.137729	0.000077
C18	C	-0.615412	-1.133934	0.000062
O19	O	-0.646350	-1.202806	0.000026
N20	N	-0.634914	-1.051898	0.000054
C21	C	-0.603994	-0.970804	0.000043
O22	O	-0.625209	-0.900940	0.000026
C23	C	-0.402318	-0.974601	0.000051
C24	C	-0.382818	-1.056642	0.000069
C25	C	-0.394235	-1.219764	0.000094
C26	C	-0.343819	-1.220712	0.000103
C27	C	-0.312902	-1.139625	0.000095
C28	C	-0.332402	-1.057590	0.000078
C29	C	-0.371398	-0.893508	0.000033
C30	C	-0.320976	-0.894464	0.000032
C31	C	-0.301477	-0.976506	0.000050
C32	C	-0.251069	-0.977451	0.000079
N33	N	-0.231567	-1.059487	0.000087
C34	C	-0.262483	-1.140574	0.000095
C35	C	-0.709877	-0.968817	0.000042
C36	C	-0.760296	-0.967868	0.000042
C37	C	-0.771710	-1.130998	0.000059
C38	C	-0.721291	-1.131946	0.000066
C39	C	-0.690375	-1.050854	0.000050
C40	C	-0.156605	-1.142559	0.000114
C41	C	-0.106184	-1.143500	0.000128
C42	C	-0.094773	-0.980370	0.000105
C43	C	-0.145190	-0.979429	0.000097
C44	C	-0.176105	-1.060530	0.000099
O45	O	-0.220103	-0.908616	0.000104
O46	O	-0.241258	-1.210428	0.000090
C47	C	-0.464151	-1.136781	0.000068
C48	C	-0.483651	-1.054746	0.000051
C49	C	-0.452734	-0.973659	0.000043
C50	C	-0.534070	-1.053797	0.000051
C51	C	-0.564986	-1.134884	0.000059
C52	C	-0.545484	-1.216921	0.000067
C53	C	-0.495067	-1.217868	0.000076
C54	C	-0.472237	-0.891623	0.000035
C55	C	-0.522654	-0.890682	0.000027
C56	C	-0.553570	-0.971769	0.000035
C57	C	0.155128	-1.047932	0.000064
C58	C	0.208788	-1.048955	0.000050
N59	N	0.066753	-1.055666	0.235446
C60	C	0.112734	-0.734910	0.000051
C61	C	0.111781	-0.641626	0.000066
C62	C	0.067278	-0.606257	0.000084
C63	C	0.023724	-0.664177	0.000098
C64	C	0.024678	-0.757460	0.000090
C65	C	0.021740	-0.469746	0.000113
C66	C	0.020787	-0.376457	0.000119
C67	C	0.108844	-0.353912	0.000088
C68	C	0.109797	-0.447195	0.000080
C69	C	0.066243	-0.505109	0.000092
N70	N	0.066763	-1.055709	-0.235268
C71	C	0.033942	-1.116946	0.287501
C72	C	0.033941	-1.116952	0.391605
C73	C	0.066755	-1.055681	0.443651
C74	C	0.099569	-0.994394	0.391588
C75	C	0.099566	-0.994385	0.287487
C76	C	0.099572	-0.994418	0.608568
C77	C	0.099575	-0.994428	0.712676
C78	C	0.033947	-1.116986	0.712686
C79	C	0.033945	-1.116977	0.608585
C80	C	0.066759	-1.055691	0.556529
H81	H	-0.090310	-1.210310	0.000145
H82	H	-0.295806	-0.828427	0.000017
F83	F	-0.676979	-0.882501	0.000024
H84	H	-0.181771	-1.208600	0.000112
H85	H	0.007223	-1.166844	0.245133
H86	H	-0.015451	-0.347663	0.000135
F87	F	-0.543400	-0.803355	0.000014
H88	H	-0.013726	-0.516899	0.000124
H89	H	0.144307	-0.306753	0.000083
H90	H	0.126295	-0.944534	0.755047
F91	F	-0.165944	-0.892112	0.000096
H92	H	0.146035	-0.475989	0.000055
H93	H	-0.012511	-0.635373	0.000128
F94	F	0.158133	-0.579993	0.000050
F95	F	-0.578396	-1.303219	0.000081
F96	F	0.134495	-0.929187	0.553171
F97	F	-0.021674	-0.819096	0.000105
F98	F	-0.000981	-1.182172	0.447006
F99	F	-0.000976	-1.182192	0.553193
F100	F	-0.700543	-1.219265	0.000085
F101	F	0.160101	-0.772543	0.000024
H102	H	-0.447069	-0.825590	0.000026
F103	F	0.134490	-0.929179	0.446980
H104	H	0.126284	-0.944483	0.245104
H105	H	0.007229	-1.166887	0.755076
H106	H	-0.419403	-1.285799	0.000097
F107	F	-0.804623	-1.217297	0.000065
F108	F	-0.781043	-0.880548	0.000040
F109	F	-0.323073	-1.308033	0.000100
H110	H	-0.387265	-0.826701	0.000012
H111	H	-0.069592	-0.914351	0.000102
F112	F	-0.474322	-1.305189	0.000089
