data_functionalizedCrystal
_audit_creation_method	'MofGen! by Chris Wilmer'
_symmetry_space_group_name_H-M	'P1'
_symmetry_Int_Tables_number	1
_symmetry_cell_setting	triclinic
loop_
_symmetry_equiv_pos_as_xyz
  x,y,z
_cell_length_a	21.395362
_cell_length_b	16.120444
_cell_length_c	21.395355
_cell_angle_alpha	87.118536
_cell_angle_beta	90.043940
_cell_angle_gamma	92.943436
loop_
_atom_site_label
_atom_site_type_symbol
_atom_site_fract_x
_atom_site_fract_y
_atom_site_fract_z
Zn1	Zn	0.945240	-0.331660	0.367218
Zn2	Zn	0.939838	-0.471059	0.267751
Zn3	Zn	0.840453	-0.331699	0.262421
Zn4	Zn	0.835119	-0.471077	0.372456
O5	O	0.890163	-0.401374	0.317462
O6	O	1.032202	-0.350128	0.354062
O7	O	0.926626	-0.452582	0.179366
O8	O	0.858846	-0.215025	0.271900
O9	O	1.028234	-0.452544	0.280984
O10	O	0.935833	-0.214996	0.348895
O11	O	0.853609	-0.350194	0.175451
O12	O	0.752067	-0.350211	0.276979
O13	O	0.849755	-0.452574	0.459439
O14	O	0.748148	-0.452611	0.357821
O15	O	0.930660	-0.350145	0.455591
O16	O	0.921454	-0.587731	0.286062
O17	O	0.844518	-0.587743	0.362989
C18	C	0.727373	-0.401418	0.317391
C19	C	0.657731	-0.401457	0.317376
C20	C	0.622991	-0.454847	0.359413
C21	C	0.557556	-0.454827	0.359440
C22	C	0.526864	-0.401425	0.317419
C23	C	0.561612	-0.348024	0.275379
C24	C	0.627045	-0.348040	0.275357
C25	C	0.423394	-0.394708	0.260758
C26	C	0.357962	-0.394698	0.260779
C27	C	0.325045	-0.401370	0.317486
C28	C	0.357568	-0.408070	0.374175
C29	C	0.423002	-0.408086	0.374153
C30	C	0.455912	-0.401401	0.317438
C31	C	0.219353	-0.454741	0.359556
C32	C	0.153918	-0.454715	0.359584
C33	C	0.157975	-0.347917	0.275518
C34	C	0.223409	-0.347939	0.275495
C35	C	0.254094	-0.401355	0.317514
C36	C	0.881838	-0.617988	0.325686
C37	C	0.878334	-0.710657	0.329225
C38	C	0.908494	-0.921578	0.299236
C39	C	0.871948	-0.880318	0.335694
C40	C	0.875502	-0.785910	0.332094
C41	C	0.904940	-1.015995	0.302835
C42	C	1.053588	-0.401330	0.317533
C43	C	1.123230	-0.401312	0.317564
C44	C	0.890215	-0.401357	0.480884
C45	C	0.890238	-0.401350	0.550525
C46	C	0.898537	-0.183914	0.309219
C47	C	0.902106	-0.091245	0.305706
C48	C	0.890149	-0.401330	0.154672
C49	C	0.890257	-0.401103	0.085023
C50	C	0.932363	-0.348013	0.581236
C51	C	0.932364	-0.347977	0.646670
C52	C	0.890245	-0.401293	0.681392
C53	C	0.848111	-0.454633	0.650673
C54	C	0.848108	-0.454662	0.585240
C55	C	0.882412	-0.476364	0.787915
C56	C	0.882420	-0.476337	0.853347
C57	C	0.890252	-0.401205	0.883209
C58	C	0.898089	-0.326097	0.847631
C59	C	0.898086	-0.326126	0.782198
C60	C	0.890244	-0.401268	0.752343
C61	C	0.932381	-0.347825	0.984870
C62	C	0.932377	-0.347787	1.050306
C63	C	0.848127	-0.454451	1.054308
C64	C	0.848128	-0.454481	0.988874
C65	C	0.890258	-0.401169	0.954159
H66	H	0.529265	-0.498303	0.393674
F67	F	0.803270	-0.511433	0.552555
F68	F	0.322541	-0.415168	0.434532
F69	F	0.458421	-0.387608	0.200398
H70	H	0.813828	-0.497919	0.963870
H71	H	0.966667	-0.304539	0.671679
H72	H	0.655331	-0.304561	0.241125
H73	H	0.966668	-0.304601	0.552975
H74	H	0.966680	-0.304349	1.075308
F75	F	0.952875	-0.875078	0.254906
H76	H	0.904468	-0.264917	0.871943
H77	H	0.837991	-0.915896	0.369611
H78	H	0.904465	-0.264970	0.753233
H79	H	0.876043	-0.537494	0.882309
H80	H	0.966682	-0.304410	0.956604
F81	F	0.803296	-0.511188	1.091257
F82	F	0.874091	-0.556337	0.756140
F83	F	0.803283	-0.511373	0.687627
H84	H	0.647970	-0.498342	0.393629
H85	H	0.449479	-0.413539	0.420311
H86	H	0.244339	-0.498232	0.393774
H87	H	0.125633	-0.498190	0.393820
H88	H	0.132986	-0.304432	0.241306
H89	H	0.331486	-0.389248	0.214620
F90	F	0.528946	-0.291186	0.230660
F91	F	0.260383	-0.291114	0.230751
