data_functionalizedCrystal
_audit_creation_method	'MofGen! by Chris Wilmer'
_symmetry_space_group_name_H-M	'P1'
_symmetry_Int_Tables_number	1
_symmetry_cell_setting	triclinic
loop_
_symmetry_equiv_pos_as_xyz
  x,y,z
_cell_length_a	9.065218
_cell_length_b	16.992695
_cell_length_c	7.540329
_cell_angle_alpha	89.996072
_cell_angle_beta	89.996962
_cell_angle_gamma	87.842054
loop_
_atom_site_label
_atom_site_type_symbol
_atom_site_fract_x
_atom_site_fract_y
_atom_site_fract_z
O1	O	1.971074	0.115065	-0.147490
O2	O	1.542664	0.124504	-0.147492
O3	O	1.755152	0.005630	-0.147477
O4	O	1.758586	0.233939	-0.147505
O5	O	1.755138	0.005628	0.147488
O6	O	1.542651	0.124502	0.147473
O7	O	1.971060	0.115064	0.147476
Cu8	Cu	1.756854	0.119783	0.174407
Cu9	Cu	1.756870	0.119785	-0.174424
O10	O	1.758573	0.233938	0.147460
C11	C	1.487587	0.123596	-0.000010
C12	C	1.323492	0.120884	-0.000011
C13	C	1.750726	-0.023615	0.000005
C14	C	1.737542	-0.110753	0.000005
C15	C	1.864748	-0.160090	0.000008
C16	C	1.852352	-0.241964	-0.000009
C17	C	1.712748	-0.274500	-0.000016
C18	C	1.585533	-0.225157	-0.000024
C19	C	1.597931	-0.143284	-0.000020
C20	C	1.661364	-0.518463	-0.000041
C21	C	1.648976	-0.600343	-0.000040
C22	C	1.915797	-0.617144	-0.000028
C23	C	1.928182	-0.535269	-0.000013
C24	C	1.800967	-0.485933	-0.000031
N25	N	1.700074	-0.358189	-0.000028
N26	N	1.813642	-0.402245	-0.000032
C27	C	2.026138	0.115972	-0.000011
C28	C	2.190232	0.118684	-0.000022
C29	C	1.762998	0.263183	-0.000026
C30	C	1.776182	0.350320	-0.000037
N31	N	1.756853	0.119781	0.419755
N32	N	1.756882	0.119780	-0.419772
H33	H	1.955937	-0.282132	-0.000003
H34	H	2.041862	-0.508785	-0.000008
C35	C	1.332948	-0.134895	-0.000018
C36	C	1.458102	-0.089049	-0.000018
H37	H	1.246623	-0.101411	-0.000013
H38	H	1.333669	-0.167173	-0.102872
H39	H	1.333663	-0.167182	0.102851
H40	H	1.457392	-0.056766	-0.102895
H41	H	1.457379	-0.056757	0.102846
C42	C	2.015272	-0.750110	-0.000048
C43	C	2.055626	-0.671376	-0.000035
H44	H	2.101603	-0.783589	-0.000068
H45	H	1.958438	-0.760078	0.102809
H46	H	1.958426	-0.760062	-0.102914
H47	H	2.112462	-0.661423	0.102839
H48	H	2.112484	-0.661405	-0.102902
H49	H	1.978428	-0.133606	0.000024
H50	H	1.471864	-0.251654	-0.000041
C51	C	1.437751	-0.478949	-0.151657
C52	C	1.521524	-0.464244	-0.000035
H53	H	1.351410	-0.445477	-0.151641
H54	H	1.494593	-0.468970	-0.254502
H55	H	1.410415	-0.532370	-0.151639
H56	H	1.548868	-0.410824	-0.000061
H57	H	1.464671	-0.474217	0.102836
C58	C	1.480274	-0.682678	-0.151677
C59	C	1.495517	-0.636114	-0.000055
H60	H	1.385544	-0.704767	-0.151673
H61	H	1.490649	-0.651085	-0.254521
H62	H	1.554279	-0.723772	-0.151647
H63	H	1.421519	-0.595016	-0.000091
H64	H	1.485127	-0.667708	0.102816
