data_functionalizedCrystal
_audit_creation_method	'MofGen! by Chris Wilmer'
_symmetry_space_group_name_H-M	'P1'
_symmetry_Int_Tables_number	1
_symmetry_cell_setting	triclinic
loop_
_symmetry_equiv_pos_as_xyz
  x,y,z
_cell_length_a	15.944545
_cell_length_b	12.837942
_cell_length_c	11.295483
_cell_angle_alpha	85.469583
_cell_angle_beta	94.102760
_cell_angle_gamma	89.162556
loop_
_atom_site_label
_atom_site_type_symbol
_atom_site_fract_x
_atom_site_fract_y
_atom_site_fract_z
O1	O	-1.130315	-0.126689	-0.098946
O2	O	-0.887085	-0.143178	-0.098965
O3	O	-1.003306	0.015969	-0.098949
O4	O	-1.014094	-0.285836	-0.098963
O5	O	-0.993096	0.002012	0.099100
O6	O	-0.876875	-0.157135	0.099084
O7	O	-1.120105	-0.140646	0.099103
Cu8	Cu	-0.997558	-0.150165	0.117177
Cu9	Cu	-1.009632	-0.133659	-0.117039
O10	O	-1.003884	-0.299793	0.099087
C11	C	-0.850631	-0.149473	0.000057
C12	C	-0.757221	-0.147423	0.000050
C13	C	-0.994557	0.047611	0.000075
C14	C	-0.983690	0.162689	0.000072
C15	C	-1.156559	-0.134351	0.000078
C16	C	-1.249969	-0.136400	0.000078
C17	C	-0.478207	-0.042655	0.000067
C18	C	-0.527795	-0.100048	0.097716
C19	C	-0.420992	-0.140118	0.000070
C20	C	-0.537844	-0.086314	-0.097545
C21	C	-0.586193	-0.143702	0.000058
C22	C	-0.469346	-0.197491	0.097800
C23	C	-0.479395	-0.183736	-0.097549
C24	C	-0.528955	-0.241202	0.000125
C25	C	-0.325824	-0.138051	0.000078
C26	C	-0.681358	-0.145778	0.000059
C27	C	-1.012633	-0.331435	0.000060
C28	C	-1.023501	-0.446512	0.000055
N29	N	-0.989072	-0.161773	0.281912
C30	C	-1.114343	0.403643	0.000057
C31	C	-1.104136	0.511769	0.000055
C32	C	-0.953069	0.487071	0.000055
C33	C	-0.963276	0.378945	0.000058
C34	C	-1.043916	0.337235	0.000061
C35	C	-1.054122	0.229106	0.000072
C36	C	-0.903056	0.204410	0.000064
C37	C	-0.892849	0.312536	0.000061
N38	N	-1.018124	-0.122043	-0.281774
C39	C	-1.079208	-0.038421	0.531214
C40	C	-1.072802	-0.047201	0.655877
C41	C	-0.969848	-0.188107	0.655903
C42	C	-0.976255	-0.179327	0.531240
C43	C	-1.030937	-0.104483	0.468900
C44	C	-1.037348	-0.095709	0.344235
C45	C	-0.934390	-0.236609	0.344263
C46	C	-0.927984	-0.245389	0.468926
H47	H	-0.549177	-0.064705	0.180275
O48	O	-0.805877	0.357531	0.000076
H49	H	-0.801767	0.411894	-0.080640
H50	H	-1.180002	0.369682	0.000071
O51	O	-1.138184	0.042297	0.463963
H52	H	-1.170672	0.086763	0.528240
O53	O	-0.429911	-0.259668	0.207290
H54	H	-0.360385	-0.257624	0.206464
H55	H	-1.081876	-0.034770	0.293479
H56	H	-0.925320	-0.249037	0.706676
O57	O	-0.448540	0.068503	0.000216
H58	H	-0.414772	0.088349	-0.080898
H59	H	-0.845709	0.150327	0.000076
O60	O	-0.577440	-0.024091	-0.206897
H61	H	-0.527283	0.009045	-0.260943
H62	H	-1.112108	0.006594	0.706610
O63	O	-0.558389	-0.352468	0.000188
H64	H	-0.530656	-0.398387	0.081322
H65	H	-0.457994	-0.219043	-0.180110
O66	O	-0.869012	-0.326118	0.536164
H67	H	-0.872670	-0.321132	0.633319
H68	H	-1.119782	0.195147	0.000079
H69	H	-0.895088	-0.290404	0.293512
O70	O	-1.180096	0.583395	0.000068
H71	H	-1.222439	0.574244	-0.080645
O72	O	-0.866098	0.532065	0.000060
H73	H	-0.870836	0.618408	0.000066
