data_functionalizedCrystal
_audit_creation_method	'MofGen! by Chris Wilmer'
_symmetry_space_group_name_H-M	'P1'
_symmetry_Int_Tables_number	1
_symmetry_cell_setting	triclinic
loop_
_symmetry_equiv_pos_as_xyz
  x,y,z
_cell_length_a	15.995292
_cell_length_b	15.995350
_cell_length_c	14.185569
_cell_angle_alpha	76.847063
_cell_angle_beta	103.150398
_cell_angle_gamma	83.480495
loop_
_atom_site_label
_atom_site_type_symbol
_atom_site_fract_x
_atom_site_fract_y
_atom_site_fract_z
O1	O	1.092017	0.126687	-0.083439
O2	O	0.848236	0.140065	-0.083435
O3	O	0.976791	0.011487	-0.083436
O4	O	0.963463	0.255265	-0.083438
O5	O	1.014767	-0.026492	0.083398
O6	O	0.886212	0.102086	0.083400
O7	O	1.129993	0.088708	0.083395
Cu8	Cu	1.011570	0.091929	0.098631
Cu9	Cu	0.966659	0.136844	-0.098670
O10	O	1.001439	0.217286	0.083396
C11	C	0.836029	0.120531	-0.000017
C12	C	0.743076	0.118898	-0.000015
C13	C	0.995228	-0.038697	-0.000021
C14	C	0.993574	-0.131646	-0.000026
C15	C	0.987643	-0.469393	-0.000023
C16	C	0.896004	-0.421855	-0.000395
C17	C	0.897741	-0.325251	-0.000019
C18	C	0.990585	-0.301832	-0.000025
C19	C	1.057428	-0.364606	0.095243
C20	C	1.055147	-0.461260	0.095322
C21	C	1.013852	-0.418429	-0.094399
C22	C	1.013544	-0.321197	-0.095658
C23	C	0.992253	-0.207136	-0.000023
C24	C	0.985979	-0.564091	-0.000018
C25	C	0.405335	0.112899	-0.000027
C26	C	0.428563	0.205788	-0.000400
C27	C	0.525325	0.207466	-0.000020
C28	C	0.572892	0.115876	-0.000022
C29	C	0.565476	0.047791	0.095246
C30	C	0.468703	0.046656	0.095321
C31	C	0.425661	0.087951	-0.094400
C32	C	0.521868	0.091675	-0.095655
C33	C	0.667590	0.117552	-0.000015
C34	C	0.310640	0.111218	-0.000026
C35	C	1.142200	0.108243	-0.000025
C36	C	1.235151	0.109877	-0.000033
C37	C	0.983002	0.267470	-0.000021
C38	C	0.984653	0.360421	-0.000022
N39	N	1.043165	0.060338	0.237401
N40	N	0.935072	0.168428	-0.237441
C41	C	0.842248	0.261206	0.605053
C42	C	0.866186	0.237282	0.710075
C43	C	0.980044	0.123468	0.710034
C44	C	0.956113	0.147380	0.605011
C45	C	0.887215	0.216250	0.552529
C46	C	1.001080	0.102424	0.552486
C47	C	0.977153	0.126338	0.447472
C48	C	0.908259	0.195206	0.394983
C49	C	0.863288	0.240163	0.447515
C50	C	1.069981	0.033559	0.604971
C51	C	1.114948	-0.011397	0.552446
C52	C	1.091018	0.012512	0.447430
C53	C	1.022124	0.081381	0.394940
C54	C	1.135989	-0.032445	0.394898
C55	C	1.112063	-0.008532	0.289883
C56	C	0.998198	0.105294	0.289926
H57	H	0.846699	-0.281275	-0.068311
Cl58	Cl	1.100061	0.003503	0.736990
H59	H	0.411521	0.019787	-0.095046
H60	H	0.380898	0.133396	-0.166608
H61	H	0.385015	0.257112	-0.068721
H62	H	1.171048	-0.067470	0.595189
H63	H	0.455137	-0.022373	0.099647
H64	H	0.601674	0.063871	0.166145
Cl65	Cl	0.866607	-0.306255	0.105598
Cl66	Cl	0.452322	0.071243	0.205269
Cl67	Cl	0.815491	-0.426440	-0.105875
Cl68	Cl	1.160443	-0.512595	0.102004
Cl69	Cl	0.911572	0.191867	0.223944
Cl70	Cl	1.117842	-0.467261	-0.095398
H71	H	1.192092	-0.088514	0.437642
H72	H	1.038429	-0.495767	0.166541
Cl73	Cl	1.033923	-0.345702	0.204708
Cl74	Cl	0.755622	0.347779	0.539072
H75	H	0.967482	-0.422525	-0.166607
H76	H	0.528806	0.259344	-0.068313
Cl77	Cl	0.809647	0.293810	0.776098
H78	H	0.415008	0.225896	0.067537
Cl79	Cl	1.163986	-0.344067	0.100712
Cl80	Cl	0.878183	0.225273	0.262963
Cl81	Cl	0.863405	-0.476259	0.104187
H82	H	0.807179	0.296238	0.404782
H83	H	0.964485	-0.277898	-0.166135
Cl84	Cl	1.066658	0.036893	0.776019
Cl85	Cl	1.168597	-0.065047	0.223851
H86	H	1.079940	-0.304539	-0.101415
H87	H	0.598150	-0.020413	0.098787
Cl88	Cl	0.577788	0.239855	0.105602
Cl89	Cl	0.525807	0.168576	-0.204473
H90	H	0.553528	0.026134	-0.101411
