data_functionalizedCrystal
_audit_creation_method	'MofGen! by Chris Wilmer'
_symmetry_space_group_name_H-M	'P1'
_symmetry_Int_Tables_number	1
_symmetry_cell_setting	triclinic
loop_
_symmetry_equiv_pos_as_xyz
  x,y,z
_cell_length_a	29.839134
_cell_length_b	29.839131
_cell_length_c	18.101389
_cell_angle_alpha	90.028941
_cell_angle_beta	90.028730
_cell_angle_gamma	90.030088
loop_
_atom_site_label
_atom_site_type_symbol
_atom_site_fract_x
_atom_site_fract_y
_atom_site_fract_z
Zn1	Zn	0.686769	-0.178962	0.418872
Zn2	Zn	0.936769	0.071038	0.668872
Zn3	Zn	1.186769	0.321038	0.918872
Zn4	Zn	1.436769	0.571038	1.168872
Zn5	Zn	0.686700	-0.254079	0.295007
Zn6	Zn	0.936700	-0.004079	0.545007
Zn7	Zn	1.186700	0.245921	0.795007
Zn8	Zn	1.436700	0.495921	1.045007
Zn9	Zn	0.611643	-0.178957	0.295023
Zn10	Zn	0.861643	0.071043	0.545023
Zn11	Zn	1.111643	0.321043	0.795023
Zn12	Zn	1.361643	0.571043	1.045023
Zn13	Zn	0.611608	-0.254059	0.418786
Zn14	Zn	0.861608	-0.004059	0.668786
Zn15	Zn	1.111608	0.245941	0.918786
Zn16	Zn	1.361608	0.495941	1.168786
O17	O	0.649180	-0.216514	0.356922
O18	O	0.899180	0.033486	0.606922
O19	O	1.149180	0.283486	0.856922
O20	O	1.399180	0.533486	1.106922
O21	O	0.749627	-0.188937	0.402470
O22	O	0.999627	0.061063	0.652470
O23	O	1.249627	0.311063	0.902470
O24	O	1.499627	0.561063	1.152470
O25	O	0.676730	-0.244120	0.191376
O26	O	0.926730	0.005880	0.441376
O27	O	1.176730	0.255880	0.691376
O28	O	1.426730	0.505880	0.941376
O29	O	0.621652	-0.116090	0.311494
O30	O	0.871652	0.133910	0.561494
O31	O	1.121652	0.383910	0.811494
O32	O	1.371652	0.633910	1.061494
O33	O	0.749576	-0.244125	0.311467
O34	O	0.999576	0.005875	0.561467
O35	O	1.249576	0.255875	0.811467
O36	O	1.499576	0.505875	1.061467
O37	O	0.676847	-0.116094	0.402485
O38	O	0.926847	0.133906	0.652485
O39	O	1.176847	0.383906	0.902485
O40	O	1.426847	0.633906	1.152485
O41	O	0.621585	-0.188928	0.191388
O42	O	0.871585	0.061072	0.441388
O43	O	1.121585	0.311072	0.691388
O44	O	1.371585	0.561072	0.941388
O45	O	0.548771	-0.188909	0.311412
O46	O	0.798771	0.061091	0.561412
O47	O	1.048771	0.311091	0.811412
O48	O	1.298771	0.561091	1.061412
O49	O	0.621592	-0.244091	0.522431
O50	O	0.871592	0.005909	0.772431
O51	O	1.121592	0.255909	1.022431
O52	O	1.371592	0.505909	1.272431
O53	O	0.548745	-0.244086	0.402340
O54	O	0.798745	0.005914	0.652340
O55	O	1.048745	0.255914	0.902340
O56	O	1.298745	0.505914	1.152340
O57	O	0.676812	-0.188918	0.522493
O58	O	0.926812	0.061082	0.772493
O59	O	1.176812	0.311082	1.022493
O60	O	1.426812	0.561082	1.272493
O61	O	0.676696	-0.316943	0.311384
O62	O	0.926696	-0.066943	0.561384
O63	O	1.176696	0.183057	0.811384
O64	O	1.426696	0.433057	1.061384
O65	O	0.621525	-0.316929	0.402324
O66	O	0.871525	-0.066929	0.652324
O67	O	1.121525	0.183071	0.902324
O68	O	1.371525	0.433071	1.152324
C69	C	0.532457	-0.216495	0.356869
C70	C	0.782457	0.033505	0.606869
C71	C	1.032457	0.283505	0.856869
C72	C	1.282457	0.533505	1.106869
C73	C	0.482523	-0.216498	0.356863
C74	C	0.732523	0.033502	0.606863
C75	C	0.982523	0.283502	0.856863
C76	C	1.232523	0.533502	1.106863
C77	C	0.649111	-0.333237	0.356860
C78	C	0.899111	-0.083237	0.606860
C79	C	1.149111	0.166763	0.856860
C80	C	1.399111	0.416763	1.106860
C81	C	0.649123	-0.383171	0.356858
C82	C	0.899123	-0.133171	0.606858
C83	C	1.149123	0.116829	0.856858
C84	C	1.399123	0.366829	1.106858
C85	C	0.172875	-0.245287	0.404210
C86	C	0.422875	0.004713	0.654210
C87	C	0.672875	0.254713	0.904210
C88	C	0.922875	0.504713	1.154210
C89	C	-0.014798	-0.245300	0.404243
C90	C	0.235202	0.004700	0.654243
C91	C	0.485202	0.254700	0.904243
C92	C	0.735202	0.504700	1.154243
O93	O	-0.039066	-0.269757	0.444468
O94	O	0.210934	-0.019757	0.694468
O95	O	0.460934	0.230243	0.944468
O96	O	0.710934	0.480243	1.194468
N97	N	-0.038262	-0.216531	0.356978
N98	N	0.211738	0.033469	0.606978
N99	N	0.461738	0.283469	0.856978
N100	N	0.711738	0.533469	1.106978
C101	C	-0.014806	-0.187754	0.309704
C102	C	0.235194	0.062246	0.559704
C103	C	0.485194	0.312246	0.809704
C104	C	0.735194	0.562246	1.059704
O105	O	-0.039070	-0.163281	0.269508
O106	O	0.210930	0.086719	0.519508
O107	O	0.460930	0.336719	0.769508
O108	O	0.710930	0.586719	1.019508
C109	C	0.172867	-0.187739	0.309676
C110	C	0.422867	0.062261	0.559676
C111	C	0.672867	0.312261	0.809676
C112	C	0.922867	0.562261	1.059676
C113	C	0.196329	-0.216514	0.356939
C114	C	0.446329	0.033486	0.606939
C115	C	0.696329	0.283486	0.856939
C116	C	0.946329	0.533486	1.106939
C117	C	0.196338	-0.274059	0.451470
C118	C	0.446338	-0.024059	0.701470
C119	C	0.696338	0.225941	0.951470
C120	C	0.946338	0.475941	1.201470
C121	C	0.243253	-0.274058	0.451459
C122	C	0.493253	-0.024058	0.701459
C123	C	0.743253	0.225942	0.951459
C124	C	0.993253	0.475942	1.201459
C125	C	0.266706	-0.245284	0.404187
C126	C	0.516706	0.004716	0.654187
C127	C	0.766706	0.254716	0.904187
C128	C	1.016706	0.504716	1.154187
C129	C	0.243244	-0.216512	0.356927
C130	C	0.493244	0.033488	0.606927
C131	C	0.743244	0.283488	0.856927
C132	C	0.993244	0.533488	1.106927
C133	C	0.196322	-0.158961	0.262406
C134	C	0.446322	0.091039	0.512406
C135	C	0.696322	0.341039	0.762406
C136	C	0.946322	0.591039	1.012406
C137	C	0.243243	-0.158959	0.262405
C138	C	0.493243	0.091041	0.512405
C139	C	0.743243	0.341041	0.762405
C140	C	0.993243	0.591041	1.012405
C141	C	0.266705	-0.187733	0.309668
C142	C	0.516705	0.062267	0.559668
C143	C	0.766705	0.312267	0.809668
C144	C	1.016705	0.562267	1.059668
C145	C	0.313613	-0.187737	0.309644
C146	C	0.563613	0.062263	0.559644
C147	C	0.813613	0.312263	0.809644
C148	C	1.063613	0.562263	1.059644
N149	N	0.337077	-0.216506	0.356910
N150	N	0.587077	0.033494	0.606910
N151	N	0.837077	0.283494	0.856910
N152	N	1.087077	0.533494	1.106910
C153	C	0.313624	-0.245280	0.404181
C154	C	0.563624	0.004720	0.654181
C155	C	0.813624	0.254720	0.904181
C156	C	1.063624	0.504720	1.154181
C157	C	-0.113336	-0.187764	0.309722
C158	C	0.136664	0.062236	0.559722
C159	C	0.386664	0.312236	0.809722
C160	C	0.636664	0.562236	1.059722
C161	C	-0.160254	-0.187768	0.309728
C162	C	0.089746	0.062232	0.559728
C163	C	0.339746	0.312232	0.809728
C164	C	0.589746	0.562232	1.059728
C165	C	-0.160243	-0.245314	0.404268
C166	C	0.089757	0.004686	0.654268
C167	C	0.339757	0.254686	0.904268
C168	C	0.589757	0.504686	1.154268
C169	C	-0.113324	-0.245312	0.404257
C170	C	0.136676	0.004688	0.654257
C171	C	0.386676	0.254688	0.904257
C172	C	0.636676	0.504688	1.154257
C173	C	-0.089872	-0.216534	0.356987
C174	C	0.160128	0.033466	0.606987
C175	C	0.410128	0.283466	0.856987
C176	C	0.660128	0.533466	1.106987
C177	C	0.412150	-0.245274	0.404153
C178	C	0.662150	0.004726	0.654153
C179	C	0.912150	0.254726	0.904153
C180	C	1.162150	0.504726	1.154153
C181	C	0.459070	-0.245271	0.404135
C182	C	0.709070	0.004729	0.654135
C183	C	0.959070	0.254729	0.904135
C184	C	1.209070	0.504729	1.154135
C185	C	0.459054	-0.187724	0.309598
C186	C	0.709054	0.062276	0.559598
C187	C	0.959054	0.312276	0.809598
C188	C	1.209054	0.562276	1.059598
C189	C	0.412139	-0.187729	0.309613
C190	C	0.662139	0.062271	0.559613
C191	C	0.912139	0.312271	0.809613
C192	C	1.162139	0.562271	1.059613
C193	C	0.388688	-0.216505	0.356896
C194	C	0.638688	0.033495	0.606896
C195	C	0.888688	0.283495	0.856896
C196	C	1.138688	0.533495	1.106896
O197	O	0.337910	-0.163289	0.269447
O198	O	0.587910	0.086711	0.519447
O199	O	0.837910	0.336711	0.769447
O200	O	1.087910	0.586711	1.019447
O201	O	0.337897	-0.269742	0.444383
O202	O	0.587897	-0.019742	0.694383
O203	O	0.837897	0.230258	0.944383
O204	O	1.087897	0.480258	1.194383
C205	C	0.125960	-0.245289	0.404222
C206	C	0.375960	0.004711	0.654222
C207	C	0.625960	0.254711	0.904222
C208	C	0.875960	0.504711	1.154222
C209	C	0.102498	-0.216517	0.356962
C210	C	0.352498	0.033483	0.606962
C211	C	0.602498	0.283483	0.856962
C212	C	0.852498	0.533483	1.106962
C213	C	0.125951	-0.187744	0.309690
C214	C	0.375951	0.062256	0.559690
C215	C	0.625951	0.312256	0.809690
C216	C	0.875951	0.562256	1.059690
C217	C	0.055580	-0.216521	0.356968
C218	C	0.305580	0.033479	0.606968
C219	C	0.555580	0.283479	0.856968
C220	C	0.805580	0.533479	1.106968
C221	C	0.032127	-0.245295	0.404240
C222	C	0.282127	0.004705	0.654240
C223	C	0.532127	0.254705	0.904240
C224	C	0.782127	0.504705	1.154240
C225	C	0.055591	-0.274064	0.451505
C226	C	0.305591	-0.024064	0.701505
C227	C	0.555591	0.225936	0.951505
C228	C	0.805591	0.475936	1.201505
C229	C	0.102507	-0.274063	0.451493
C230	C	0.352507	-0.024063	0.701493
C231	C	0.602507	0.225937	0.951493
C232	C	0.852507	0.475937	1.201493
C233	C	0.102486	-0.158974	0.262425
C234	C	0.352486	0.091026	0.512425
C235	C	0.602486	0.341026	0.762425
C236	C	0.852486	0.591026	1.012425
C237	C	0.055571	-0.158979	0.262440
C238	C	0.305571	0.091021	0.512440
C239	C	0.555571	0.341021	0.762440
C240	C	0.805571	0.591021	1.012440
C241	C	0.032118	-0.187752	0.309711
C242	C	0.282118	0.062248	0.559711
C243	C	0.532118	0.312248	0.809711
C244	C	0.782118	0.562248	1.059711
C245	C	0.677914	-0.692782	0.404368
C246	C	0.927914	-0.442782	0.654368
C247	C	1.177914	-0.192782	0.904368
C248	C	1.427914	0.057218	1.154368
C249	C	0.677962	-0.880455	0.404413
C250	C	0.927962	-0.630455	0.654413
C251	C	1.177962	-0.380455	0.904413
C252	C	1.427962	-0.130455	1.154413
O253	O	0.702374	-0.904691	0.444762
O254	O	0.952374	-0.654691	0.694762
O255	O	1.202374	-0.404691	0.944762
O256	O	1.452374	-0.154691	1.194762
N257	N	0.649256	-0.903956	0.357004
N258	N	0.899256	-0.653956	0.607004
N259	N	1.149256	-0.403956	0.857004
N260	N	1.399256	-0.153956	1.107004
C261	C	0.620534	-0.880537	0.309584
C262	C	0.870534	-0.630537	0.559584
C263	C	1.120534	-0.380537	0.809584
C264	C	1.370534	-0.130537	1.059584
O265	O	0.596115	-0.904832	0.269267
O266	O	0.846115	-0.654832	0.519267
O267	O	1.096115	-0.404832	0.769267
O268	O	1.346115	-0.154832	1.019267
C269	C	0.620483	-0.692864	0.309544
C270	C	0.870483	-0.442864	0.559544
C271	C	1.120483	-0.192864	0.809544
C272	C	1.370483	0.057136	1.059544
C273	C	0.649194	-0.669365	0.356951
C274	C	0.899194	-0.419365	0.606951
C275	C	1.149194	-0.169365	0.856951
C276	C	1.399194	0.080635	1.106951
C277	C	0.706622	-0.669282	0.451772
C278	C	0.956622	-0.419282	0.701772
C279	C	1.206622	-0.169282	0.951772
C280	C	1.456622	0.080718	1.201772
C281	C	0.706611	-0.622367	0.451757
C282	C	0.956611	-0.372367	0.701757
C283	C	1.206611	-0.122367	0.951757
C284	C	1.456611	0.127633	1.201757
C285	C	0.677892	-0.598951	0.404340
C286	C	0.927892	-0.348951	0.654340
C287	C	1.177892	-0.098951	0.904340
C288	C	1.427892	0.151049	1.154340
C289	C	0.649184	-0.622450	0.356936
C290	C	0.899184	-0.372450	0.606936
C291	C	1.149184	-0.122450	0.856936
C292	C	1.399184	0.127550	1.106936
C293	C	0.591759	-0.669446	0.262129
C294	C	0.841759	-0.419446	0.512129
C295	C	1.091759	-0.169446	0.762129
C296	C	1.341759	0.080554	1.012129
C297	C	0.591748	-0.622525	0.262124
C298	C	0.841748	-0.372525	0.512124
C299	C	1.091748	-0.122525	0.762124
C300	C	1.341748	0.127475	1.012124
C301	C	0.620459	-0.599026	0.309531
C302	C	0.870459	-0.349026	0.559531
C303	C	1.120459	-0.099026	0.809531
C304	C	1.370459	0.150974	1.059531
C305	C	0.620453	-0.552118	0.309504
C306	C	0.870453	-0.302118	0.559504
C307	C	1.120453	-0.052118	0.809504
C308	C	1.370453	0.197882	1.059504
N309	N	0.649160	-0.528617	0.356913
N310	N	0.899160	-0.278617	0.606913
N311	N	1.149160	-0.028617	0.856913
N312	N	1.399160	0.221383	1.106913
C313	C	0.677879	-0.552033	0.404331
C314	C	0.927879	-0.302033	0.654331
C315	C	1.177879	-0.052033	0.904331
C316	C	1.427879	0.197967	1.154331
C317	C	0.620563	-0.979067	0.309608
C318	C	0.870563	-0.729067	0.559608
C319	C	1.120563	-0.479067	0.809608
C320	C	1.370563	-0.229067	1.059608
C321	C	0.620576	-1.025985	0.309617
C322	C	0.870576	-0.775985	0.559617
C323	C	1.120576	-0.525985	0.809617
C324	C	1.370576	-0.275985	1.059617
C325	C	0.678004	-1.025900	0.404447
C326	C	0.928004	-0.775900	0.654447
C327	C	1.178004	-0.525900	0.904447
C328	C	1.428004	-0.275900	1.154447
C329	C	0.677993	-0.978981	0.404433
C330	C	0.927993	-0.728981	0.654433
C331	C	1.177993	-0.478981	0.904433
C332	C	1.427993	-0.228981	1.154433
C333	C	0.649269	-0.955566	0.357017
C334	C	0.899269	-0.705566	0.607017
C335	C	1.149269	-0.455566	0.857017
C336	C	1.399269	-0.205566	1.107017
C337	C	0.677854	-0.453507	0.404296
C338	C	0.927854	-0.203507	0.654296
C339	C	1.177854	0.046493	0.904296
C340	C	1.427854	0.296493	1.154296
C341	C	0.677842	-0.406587	0.404275
C342	C	0.927842	-0.156587	0.654275
C343	C	1.177842	0.093413	0.904275
C344	C	1.427842	0.343413	1.154275
C345	C	0.620413	-0.406677	0.309449
C346	C	0.870413	-0.156677	0.559449
C347	C	1.120413	0.093323	0.809449
C348	C	1.370413	0.343323	1.059449
C349	C	0.620426	-0.453592	0.309466
C350	C	0.870426	-0.203592	0.559466
C351	C	1.120426	0.046408	0.809466
C352	C	1.370426	0.296408	1.059466
C353	C	0.649149	-0.477006	0.356896
C354	C	0.899149	-0.227006	0.606896
C355	C	1.149149	0.022994	0.856896
C356	C	1.399149	0.272994	1.106896
O357	O	0.596051	-0.527852	0.269182
O358	O	0.846051	-0.277852	0.519182
O359	O	1.096051	-0.027852	0.769182
O360	O	1.346051	0.222148	1.019182
O361	O	0.702287	-0.527729	0.444654
O362	O	0.952287	-0.277729	0.694654
O363	O	1.202287	-0.027729	0.944654
O364	O	1.452287	0.222271	1.194654
C365	C	0.677924	-0.739697	0.404383
C366	C	0.927924	-0.489697	0.654383
C367	C	1.177924	-0.239697	0.904383
C368	C	1.427924	0.010303	1.154383
C369	C	0.649216	-0.763196	0.356980
C370	C	0.899216	-0.513196	0.606980
C371	C	1.149216	-0.263196	0.856980
C372	C	1.399216	-0.013196	1.106980
C373	C	0.620496	-0.739780	0.309562
C374	C	0.870496	-0.489780	0.559562
C375	C	1.120496	-0.239780	0.809562
C376	C	1.370496	0.010220	1.059562
C377	C	0.649229	-0.810114	0.356989
C378	C	0.899229	-0.560114	0.606989
C379	C	1.149229	-0.310114	0.856989
C380	C	1.399229	-0.060114	1.106989
C381	C	0.677948	-0.833530	0.404406
C382	C	0.927948	-0.583530	0.654406
C383	C	1.177948	-0.333530	0.904406
C384	C	1.427948	-0.083530	1.154406
C385	C	0.706654	-0.810029	0.451815
C386	C	0.956654	-0.560029	0.701815
C387	C	1.206654	-0.310029	0.951815
C388	C	1.456654	-0.060029	1.201815
C389	C	0.706644	-0.763113	0.451801
C390	C	0.956644	-0.513113	0.701801
C391	C	1.206644	-0.263113	0.951801
C392	C	1.456644	-0.013113	1.201801
C393	C	0.591790	-0.763281	0.262153
C394	C	0.841790	-0.513281	0.512153
C395	C	1.091790	-0.263281	0.762153
C396	C	1.341790	-0.013281	1.012153
C397	C	0.591804	-0.810197	0.262171
C398	C	0.841804	-0.560197	0.512171
C399	C	1.091804	-0.310197	0.762171
C400	C	1.341804	-0.060197	1.012171
C401	C	0.620523	-0.833613	0.309589
C402	C	0.870523	-0.583613	0.559589
C403	C	1.120523	-0.333613	0.809589
C404	C	1.370523	-0.083613	1.059589
C405	C	0.766358	-0.216534	0.356976
C406	C	1.016358	0.033466	0.606976
C407	C	1.266358	0.283466	0.856976
C408	C	1.516358	0.533466	1.106976
C409	C	0.816293	-0.216542	0.356999
C410	C	1.066293	0.033458	0.606999
C411	C	1.316293	0.283458	0.856999
C412	C	1.566293	0.533458	1.106999
C413	C	0.649206	-0.216503	0.550084
C414	C	0.899206	0.033497	0.800084
C415	C	1.149206	0.283497	1.050084
C416	C	1.399206	0.533497	1.300084
C417	C	0.649217	-0.216498	0.632398
C418	C	0.899217	0.033502	0.882398
C419	C	1.149217	0.283502	1.132398
C420	C	1.399217	0.533502	1.382398
C421	C	0.649261	-0.099336	0.357001
C422	C	0.899261	0.150664	0.607001
C423	C	1.149261	0.400664	0.857001
C424	C	1.399261	0.650664	1.107001
C425	C	0.649295	-0.049401	0.357035
C426	C	0.899295	0.200599	0.607035
C427	C	1.149295	0.450599	0.857035
C428	C	1.399295	0.700599	1.107035
C429	C	0.649180	-0.216493	0.164512
C430	C	0.899180	0.033507	0.414512
C431	C	1.149180	0.283507	0.664512
C432	C	1.399180	0.533507	0.914512
C433	C	0.649256	-0.216371	0.082198
C434	C	0.899256	0.033629	0.332198
C435	C	1.149256	0.283629	0.582198
C436	C	1.399256	0.533629	0.832198
C437	C	0.649243	-0.216414	0.931489
C438	C	0.899243	0.033586	1.181489
C439	C	1.149243	0.283586	1.431489
C440	C	1.399243	0.533586	1.681489
C441	C	0.614380	-0.251017	0.900125
C442	C	0.864380	-0.001017	1.150125
C443	C	1.114380	0.248983	1.400125
C444	C	1.364380	0.498983	1.650125
C445	C	0.614474	-0.251177	0.814506
C446	C	0.864474	-0.001177	1.064506
C447	C	1.114474	0.248823	1.314506
C448	C	1.364474	0.498823	1.564506
C449	C	0.649230	-0.216456	0.783107
C450	C	0.899230	0.033544	1.033107
C451	C	1.149230	0.283544	1.283107
C452	C	1.399230	0.533544	1.533107
C453	C	0.696562	-0.229311	0.814215
C454	C	0.946562	0.020689	1.064215
C455	C	1.196562	0.270689	1.314215
C456	C	1.446562	0.520689	1.564215
C457	C	0.696367	-0.229538	0.899859
C458	C	0.946367	0.020462	1.149859
C459	C	1.196367	0.270462	1.399859
C460	C	1.446367	0.520462	1.649859
C461	C	0.637186	-0.168878	0.899926
C462	C	0.887186	0.081122	1.149926
C463	C	1.137186	0.331122	1.399926
C464	C	1.387186	0.581122	1.649926
C465	C	0.636133	-0.169153	0.814275
C466	C	0.886133	0.080847	1.064275
C467	C	1.136133	0.330847	1.314275
C468	C	1.386133	0.580847	1.564275
C469	C	0.649225	-0.216478	0.699247
C470	C	0.899225	0.033522	0.949247
C471	C	1.149225	0.283522	1.199247
C472	C	1.399225	0.533522	1.449247
C473	C	0.649251	-0.216392	1.015349
C474	C	0.899251	0.033608	1.265349
C475	C	1.149251	0.283608	1.515349
C476	C	1.399251	0.533608	1.765349
H477	H	0.478170	-0.268705	0.442623
H478	H	0.728170	-0.018705	0.692623
H479	H	0.978170	0.231295	0.942623
H480	H	1.228170	0.481295	1.192623
H481	H	-0.179346	-0.268743	0.442758
H482	H	0.070654	-0.018743	0.692758
H483	H	0.320654	0.231257	0.942758
H484	H	0.570654	0.481257	1.192758
H485	H	0.597051	-0.472726	0.270858
H486	H	0.847051	-0.222726	0.520858
H487	H	1.097051	0.027274	0.770858
H488	H	1.347051	0.277274	1.020858
H489	H	0.262352	-0.297488	0.489947
H490	H	0.512352	-0.047488	0.739947
H491	H	0.762352	0.202512	0.989947
H492	H	1.012352	0.452512	1.239947
H493	H	0.121577	-0.135543	0.223930
H494	H	0.371577	0.114457	0.473930
H495	H	0.621577	0.364457	0.723930
H496	H	0.871577	0.614457	0.973930
H497	H	0.701389	-1.044973	0.443055
H498	H	0.951389	-0.794973	0.693055
H499	H	1.201389	-0.544973	0.943055
H500	H	1.451389	-0.294973	1.193055
H501	H	0.706960	-0.263690	0.792763
H502	H	0.956960	-0.013690	1.042763
H503	H	1.206960	0.236310	1.292763
H504	H	1.456960	0.486310	1.542763
H505	H	0.729989	-0.603237	0.490362
H506	H	0.979989	-0.353237	0.740362
H507	H	1.229989	-0.103237	0.990362
H508	H	1.479989	0.146763	1.240362
H509	H	0.730009	-0.688343	0.490389
H510	H	0.980009	-0.438343	0.740389
H511	H	1.230009	-0.188343	0.990389
H512	H	1.480009	0.061657	1.240389
H513	H	0.723235	-0.204899	0.793879
H514	H	0.973235	0.045101	1.043879
H515	H	1.223235	0.295101	1.293879
H516	H	1.473235	0.545101	1.543879
H517	H	0.177247	-0.297490	0.489969
H518	H	0.427247	-0.047490	0.739969
H519	H	0.677247	0.202510	0.989969
H520	H	0.927247	0.452510	1.239969
H521	H	-0.179353	-0.164342	0.271234
H522	H	0.070647	0.085658	0.521234
H523	H	0.320647	0.335658	0.771234
H524	H	0.570647	0.585658	1.021234
H525	H	0.723223	-0.205429	0.920610
H526	H	0.973223	0.044571	1.170610
H527	H	1.223223	0.294571	1.420610
H528	H	1.473223	0.544571	1.670610
H529	H	0.701372	-0.959851	0.443036
H530	H	0.951372	-0.709851	0.693036
H531	H	1.201372	-0.459851	0.943036
H532	H	1.451372	-0.209851	1.193036
H533	H	0.177227	-0.135530	0.223917
H534	H	0.427227	0.114470	0.473917
H535	H	0.677227	0.364470	0.723917
H536	H	0.927227	0.614470	0.973917
H537	H	0.603272	-0.157167	0.921512
H538	H	0.853272	0.092833	1.171512
H539	H	1.103272	0.342833	1.421512
H540	H	1.353272	0.592833	1.671512
H541	H	0.659673	-0.142003	0.792902
H542	H	0.909673	0.107997	1.042902
H543	H	1.159673	0.357997	1.292902
H544	H	1.409673	0.607997	1.542902
H545	H	0.568424	-0.829326	0.223560
H546	H	0.818424	-0.579326	0.473560
H547	H	1.068424	-0.329326	0.723560
H548	H	1.318424	-0.079326	0.973560
H549	H	0.706589	-0.264287	0.919834
H550	H	0.956589	-0.014287	1.169834
H551	H	1.206589	0.235713	1.419834
H552	H	1.456589	0.485713	1.669834
H553	H	0.597201	-1.045114	0.271006
H554	H	0.847201	-0.795114	0.521006
H555	H	1.097201	-0.545114	0.771006
H556	H	1.347201	-0.295114	1.021006
H557	H	0.597172	-0.960005	0.270994
H558	H	0.847172	-0.710005	0.520994
H559	H	1.097172	-0.460005	0.770994
H560	H	1.347172	-0.210005	1.020994
H561	H	0.568379	-0.688571	0.223525
H562	H	0.818379	-0.438571	0.473525
H563	H	1.068379	-0.188571	0.723525
H564	H	1.318379	0.061429	0.973525
H565	H	0.601301	-0.159459	0.793942
H566	H	0.851301	0.090541	1.043942
H567	H	1.101301	0.340541	1.293942
H568	H	1.351301	0.590541	1.543942
H569	H	0.568356	-0.603462	0.223513
H570	H	0.818356	-0.353462	0.473513
H571	H	1.068356	-0.103462	0.723513
H572	H	1.318356	0.146538	0.973513
H573	H	0.662578	-0.143097	0.920213
H574	H	0.912578	0.106903	1.170213
H575	H	1.162578	0.356903	1.420213
H576	H	1.412578	0.606903	1.670213
H577	H	0.568403	-0.744220	0.223541
H578	H	0.818403	-0.494220	0.473541
H579	H	1.068403	-0.244220	0.723541
H580	H	1.318403	0.005780	0.973541
H581	H	-0.094224	-0.268742	0.442745
H582	H	0.155776	-0.018742	0.692745
H583	H	0.405776	0.231258	0.942745
H584	H	0.655776	0.481258	1.192745
H585	H	0.393062	-0.268706	0.442657
H586	H	0.643062	-0.018706	0.692657
H587	H	0.893062	0.231294	0.942657
H588	H	1.143062	0.481294	1.192657
H589	H	0.121606	-0.297494	0.489980
H590	H	0.371606	-0.047494	0.739980
H591	H	0.621606	0.202506	0.989980
H592	H	0.871606	0.452506	1.239980
H593	H	0.597031	-0.387604	0.270839
H594	H	0.847031	-0.137604	0.520839
H595	H	1.097031	0.112396	0.770839
H596	H	1.347031	0.362396	1.020839
H597	H	0.730023	-0.743984	0.490404
H598	H	0.980023	-0.493984	0.740404
H599	H	1.230023	-0.243984	0.990404
H600	H	1.480023	0.006016	1.240404
H601	H	0.262336	-0.135521	0.223915
H602	H	0.512336	0.114479	0.473915
H603	H	0.762336	0.364479	0.723915
H604	H	1.012336	0.614479	0.973915
H605	H	-0.094246	-0.164329	0.271225
H606	H	0.155754	0.085671	0.521225
H607	H	0.405754	0.335671	0.771225
H608	H	0.655754	0.585671	1.021225
H609	H	0.730040	-0.829103	0.490422
H610	H	0.980040	-0.579103	0.740422
H611	H	1.230040	-0.329103	0.990422
H612	H	1.480040	-0.079103	1.240422
H613	H	0.701224	-0.387456	0.442879
H614	H	0.951224	-0.137456	0.692879
H615	H	1.201224	0.112544	0.942879
H616	H	1.451224	0.362544	1.192879
H617	H	0.579376	-0.243133	0.793472
H618	H	0.829376	0.006867	1.043472
H619	H	1.079376	0.256867	1.293472
H620	H	1.329376	0.506867	1.543472
H621	H	0.579176	-0.243054	0.920709
H622	H	0.829176	0.006946	1.170709
H623	H	1.079176	0.256946	1.420709
H624	H	1.329176	0.506946	1.670709
H625	H	0.478158	-0.164299	0.271108
H626	H	0.728158	0.085701	0.521108
H627	H	0.978158	0.335701	0.771108
H628	H	1.228158	0.585701	1.021108
H629	H	0.393035	-0.164299	0.271126
H630	H	0.643035	0.085701	0.521126
H631	H	0.893035	0.335701	0.771126
H632	H	1.143035	0.585701	1.021126
H633	H	0.036487	-0.297494	0.489993
H634	H	0.286487	-0.047494	0.739993
H635	H	0.536487	0.202506	0.989993
H636	H	0.786487	0.452506	1.239993
H637	H	0.036472	-0.135548	0.223946
H638	H	0.286472	0.114452	0.473946
H639	H	0.536472	0.364452	0.723946
H640	H	0.786472	0.614452	0.973946
H641	H	0.701240	-0.472565	0.442923
H642	H	0.951240	-0.222565	0.692923
H643	H	1.201240	0.027435	0.942923
H644	H	1.451240	0.277435	1.192923
H645	H	0.622261	-0.286037	0.921641
H646	H	0.872261	-0.036037	1.171641
H647	H	1.122261	0.213963	1.421641
H648	H	1.372261	0.463963	1.671641
H649	H	0.622434	-0.286412	0.794014
H650	H	0.872434	-0.036412	1.044014
H651	H	1.122434	0.213588	1.294014
H652	H	1.372434	0.463588	1.544014
