data_functionalizedCrystal
_audit_creation_method	'MofGen! by Chris Wilmer'
_symmetry_space_group_name_H-M	'P1'
_symmetry_Int_Tables_number	1
_symmetry_cell_setting	triclinic
loop_
_symmetry_equiv_pos_as_xyz
  x,y,z
_cell_length_a	14.971486
_cell_length_b	27.732048
_cell_length_c	14.048226
_cell_angle_alpha	89.988614
_cell_angle_beta	89.998499
_cell_angle_gamma	83.128392
loop_
_atom_site_label
_atom_site_type_symbol
_atom_site_fract_x
_atom_site_fract_y
_atom_site_fract_z
O1	O	1.185952	0.062991	-0.079062
O2	O	0.925432	0.070534	-0.079089
O3	O	1.063783	-0.003597	-0.079057
O4	O	1.047601	0.137122	-0.079094
O5	O	1.063767	-0.003601	0.079265
O6	O	0.925416	0.070530	0.079232
O7	O	1.185935	0.062986	0.079259
Zn8	Zn	1.055673	0.066757	0.104383
Zn9	Zn	1.055695	0.066763	-0.104212
O10	O	1.047584	0.137117	0.079227
C11	C	0.892105	0.070195	0.000068
C12	C	0.792824	0.069184	0.000059
C13	C	1.063435	-0.021608	0.000107
C14	C	1.062412	-0.075267	0.000114
C15	C	0.734910	0.112734	0.000048
C16	C	0.641626	0.111781	0.000063
C17	C	0.606257	0.067278	0.000081
C18	C	0.664178	0.023724	0.000094
C19	C	0.757460	0.024678	0.000086
C20	C	0.469746	0.021740	0.000108
C21	C	0.376457	0.020787	0.000114
C22	C	0.353912	0.108844	0.000084
C23	C	0.447195	0.109797	0.000076
C24	C	0.505109	0.066243	0.000088
C25	C	1.137729	-0.413735	0.000073
C26	C	1.133934	-0.615412	0.000060
O27	O	1.202806	-0.646350	0.000025
N28	N	1.051898	-0.634914	0.000052
C29	C	0.970804	-0.603994	0.000042
O30	O	0.900940	-0.625209	0.000025
C31	C	0.974601	-0.402318	0.000048
C32	C	1.056642	-0.382818	0.000066
C33	C	1.219764	-0.394235	0.000090
C34	C	1.220712	-0.343819	0.000098
C35	C	1.139625	-0.312902	0.000091
C36	C	1.057590	-0.332402	0.000074
C37	C	0.893508	-0.371398	0.000031
C38	C	0.894464	-0.320976	0.000030
C39	C	0.976506	-0.301477	0.000048
C40	C	0.977451	-0.251069	0.000075
N41	N	1.059487	-0.231567	0.000083
C42	C	1.140574	-0.262483	0.000091
C43	C	0.968817	-0.709877	0.000040
C44	C	0.967868	-0.760296	0.000040
C45	C	1.130998	-0.771710	0.000056
C46	C	1.131946	-0.721291	0.000063
C47	C	1.050854	-0.690375	0.000048
C48	C	1.142559	-0.156605	0.000110
C49	C	1.143500	-0.106184	0.000122
C50	C	0.980370	-0.094773	0.000101
C51	C	0.979429	-0.145190	0.000093
C52	C	1.060530	-0.176105	0.000094
O53	O	0.908616	-0.220103	0.000099
O54	O	1.210428	-0.241258	0.000086
C55	C	1.136781	-0.464151	0.000065
C56	C	1.054746	-0.483651	0.000049
C57	C	0.973659	-0.452734	0.000041
C58	C	1.053797	-0.534070	0.000049
C59	C	1.134884	-0.564986	0.000056
C60	C	1.216921	-0.545484	0.000064
C61	C	1.217868	-0.495067	0.000072
C62	C	0.891623	-0.472237	0.000033
C63	C	0.890682	-0.522654	0.000026
C64	C	0.971769	-0.553570	0.000033
C65	C	1.219263	0.063326	0.000100
C66	C	1.318544	0.064337	0.000103
C67	C	1.047932	0.155128	0.000062
C68	C	1.048955	0.208788	0.000048
N69	N	1.055665	0.066753	0.246743
N70	N	1.055710	0.066764	-0.246573
C71	C	1.116945	0.033942	0.296576
C72	C	1.116951	0.033941	0.396234
C73	C	1.055680	0.066755	0.446057
C74	C	0.994393	0.099569	0.396217
C75	C	0.994384	0.099566	0.296562
C76	C	0.994419	0.099572	0.603932
C77	C	0.994429	0.099575	0.703594
C78	C	1.116987	0.033947	0.703604
C79	C	1.116977	0.033945	0.603948
C80	C	1.055691	0.066759	0.554115
H81	H	0.594476	0.147244	0.000053
H82	H	0.635373	-0.012511	0.000122
C83	C	0.797763	-0.421473	0.081382
C84	C	0.803325	-0.392824	0.000002
H85	H	0.742082	-0.434697	0.081362
H86	H	0.845907	-0.447104	0.081385
H87	H	0.801516	-0.402045	0.136591
H88	H	0.799579	-0.412253	-0.055207
H89	H	0.755168	-0.367189	-0.000010
H90	H	0.944535	0.126295	0.744156
C91	C	1.282845	-0.100383	-0.081253
C92	C	1.233685	-0.084750	0.000134
H93	H	1.338517	-0.087149	-0.081248
H94	H	1.293880	-0.134831	-0.081249
H95	H	1.249483	-0.089763	-0.136457
H96	H	1.267045	-0.095373	0.055339
H97	H	1.222653	-0.050294	0.000139
H98	H	0.475989	0.146035	0.000053
C99	C	0.284631	-0.031362	0.081535
C100	C	0.337579	-0.028132	0.000145
H101	H	0.260627	-0.061562	0.081551
H102	H	0.320556	-0.029160	0.136731
H103	H	0.236792	-0.005559	0.081512
H104	H	0.385422	-0.053933	0.000172
H105	H	0.301652	-0.030339	-0.055065
C106	C	0.770381	-0.062458	0.000100
C107	C	0.821123	-0.023194	0.000089
H108	H	0.809685	-0.092012	0.000098
H109	H	0.733535	-0.061001	0.055310
H110	H	0.733523	-0.060992	-0.055111
H111	H	0.857977	-0.024657	0.055304
H112	H	0.857985	-0.024652	-0.055126
H113	H	0.944510	0.126291	0.563361
H114	H	1.166843	0.007223	0.256016
H115	H	0.306753	0.144307	0.000079
C116	C	1.238115	-0.030915	0.386233
C117	C	1.184327	-0.002119	0.451009
H118	H	1.279717	-0.053174	0.420051
H119	H	1.201131	-0.048342	0.347384
H120	H	1.269987	-0.010757	0.347343
H121	H	1.152450	-0.022277	0.489895
H122	H	1.221316	0.015309	0.489874
H123	H	0.825590	-0.447069	0.000025
H124	H	0.828427	-0.295806	0.000016
C125	C	0.883738	-0.195259	-0.081312
C126	C	0.889252	-0.166630	0.000083
H127	H	0.828069	-0.208495	-0.081320
H128	H	0.887500	-0.175816	-0.136505
H129	H	0.931901	-0.220886	-0.081303
H130	H	0.841093	-0.141001	0.000070
H131	H	0.885482	-0.186074	0.055290
H132	H	0.516899	-0.013726	0.000119
H133	H	0.944482	0.126284	0.255989
H134	H	0.763700	0.148973	0.000033
C135	C	0.909409	-0.012413	0.000088
C136	C	0.891242	-0.060783	0.000086
H137	H	0.854384	0.008571	0.000068
H138	H	0.943061	-0.006506	0.055304
H139	H	0.943093	-0.006499	-0.055117
H140	H	0.857563	-0.066699	0.055296
H141	H	0.857576	-0.066693	-0.055135
H142	H	1.208600	-0.181771	0.000107
H143	H	1.166873	0.007228	0.563382
C144	C	0.872542	0.109950	0.508312
C145	C	0.927043	0.135638	0.450986
H146	H	0.830969	0.132219	0.542126
H147	H	0.840646	0.089804	0.469451
H148	H	0.909053	0.090410	0.552248
H149	H	0.890533	0.155175	0.407045
H150	H	0.958942	0.155791	0.489850
C151	C	1.381858	-0.360181	0.000104
C152	C	1.310896	-0.322389	0.000105
H153	H	1.437536	-0.346953	0.000100
H154	H	1.378087	-0.379612	0.055311
H155	H	1.378084	-0.379603	-0.055110
H156	H	1.314666	-0.302969	0.055323
H157	H	1.314669	-0.302950	-0.055108
H158	H	1.284675	-0.479196	0.000086
C159	C	1.287883	-0.627844	0.000052
C160	C	1.306053	-0.579474	0.000065
H161	H	1.342908	-0.648829	0.000042
H162	H	1.254218	-0.633764	0.055256
H163	H	1.254212	-0.633744	-0.055164
H164	H	1.339719	-0.573573	0.055285
H165	H	1.339733	-0.573552	-0.055145
C166	C	1.313372	-0.457543	-0.081287
C167	C	1.308908	-0.428212	0.000099
H168	H	1.368413	-0.478514	-0.081278
H169	H	1.264396	-0.476379	-0.081287
H170	H	1.310350	-0.437627	-0.136492
H171	H	1.311923	-0.448128	0.055304
H172	H	1.357898	-0.409375	0.000108
C173	C	1.293094	-0.737649	0.000073
C174	C	1.222128	-0.699860	0.000067
H175	H	1.348770	-0.724420	0.000067
H176	H	1.289324	-0.757078	0.055282
H177	H	1.289322	-0.757074	-0.055138
H178	H	1.225896	-0.680437	0.055282
H179	H	1.225900	-0.680422	-0.055148
C180	C	1.224557	-0.835024	-0.081341
C181	C	1.220134	-0.805699	0.000052
H182	H	1.279586	-0.856005	-0.081350
H183	H	1.175565	-0.853849	-0.081332
H184	H	1.221536	-0.815104	-0.136541
H185	H	1.223148	-0.825618	0.055253
H186	H	1.269139	-0.786872	0.000052
H187	H	0.823869	-0.538525	0.000020
H188	H	1.166888	0.007229	0.744183
H189	H	0.901062	-0.776167	0.000042
H190	H	0.902778	-0.684709	0.000027
