data_functionalizedCrystal
_audit_creation_method	'MofGen! by Chris Wilmer'
_symmetry_space_group_name_H-M	'P1'
_symmetry_Int_Tables_number	1
_symmetry_cell_setting	triclinic
loop_
_symmetry_equiv_pos_as_xyz
  x,y,z
_cell_length_a	33.510554
_cell_length_b	33.509711
_cell_length_c	33.506470
_cell_angle_alpha	60.004186
_cell_angle_beta	60.008358
_cell_angle_gamma	59.994760
loop_
_atom_site_label
_atom_site_type_symbol
_atom_site_fract_x
_atom_site_fract_y
_atom_site_fract_z
O1	O	0.055430	-0.583081	0.487524
O2	O	0.020931	-0.453975	0.392819
O3	O	0.102693	-0.535652	0.392731
O4	O	-0.026332	-0.501404	0.487613
O5	O	0.129823	-0.508526	0.419767
O6	O	0.048062	-0.426850	0.419856
O7	O	0.082561	-0.555956	0.514561
Cu8	Cu	0.067789	-0.488926	0.469677
Cu9	Cu	0.035703	-0.521005	0.437703
O10	O	0.000799	-0.474279	0.514649
N11	N	0.090357	-0.466366	0.492168
N12	N	0.013139	-0.543569	0.415212
C13	C	0.143028	-0.279707	0.544737
C14	C	0.143165	-0.413746	0.678712
C15	C	0.143043	-0.413725	0.544739
C16	C	0.277090	-0.413694	0.544637
C17	C	0.157791	-0.323929	0.559462
C18	C	0.157869	-0.398994	0.634489
C19	C	0.232865	-0.398963	0.559407
C20	C	0.157801	-0.398982	0.559463
C21	C	0.124237	-0.223419	0.525994
C22	C	0.124262	-0.432490	0.525997
C23	C	0.176583	-0.380217	0.578205
C24	C	0.358938	-0.399566	0.501510
C25	C	0.410104	-0.416609	0.484423
C26	C	0.410135	-0.499402	0.515995
C27	C	0.358969	-0.482358	0.533084
C28	C	0.136554	-0.197822	0.475693
C29	C	0.119469	-0.146653	0.458657
C30	C	0.077755	-0.146680	0.542223
C31	C	0.094840	-0.197850	0.559260
C32	C	0.073954	-0.420144	0.538396
C33	C	0.056884	-0.437203	0.521352
C34	C	0.140427	-0.478952	0.479524
C35	C	0.157498	-0.461894	0.496561
C36	C	0.074158	-0.420182	0.760618
C37	C	0.057149	-0.437256	0.811786
C38	C	0.140732	-0.479014	0.811717
C39	C	0.157740	-0.461942	0.760547
C40	C	0.124452	-0.432525	0.734999
C41	C	0.333372	-0.432439	0.525839
C42	C	-0.020612	-0.577650	0.170305
C43	C	-0.020943	-0.788098	0.380897
C44	C	-0.020912	-0.577638	0.380991
C45	C	-0.231336	-0.577418	0.380585
C46	C	-0.129735	-0.611383	0.346870
C47	C	-0.054722	-0.611464	0.347017
C48	C	-0.073450	-0.630202	0.328195
C49	C	-0.087616	-0.712029	0.371239
C50	C	-0.070599	-0.763199	0.388315
C51	C	0.012191	-0.763282	0.356872
C52	C	-0.004828	-0.712113	0.339795
C53	C	-0.155381	-0.623711	0.397158
C54	C	-0.206547	-0.606601	0.414133
C55	C	-0.206417	-0.564839	0.330529
C56	C	-0.155251	-0.581949	0.313554
C57	C	-0.067051	-0.561160	0.334643
C58	C	-0.050026	-0.544131	0.351759
C59	C	-0.008343	-0.627704	0.393612
C60	C	-0.025368	-0.644736	0.376502
C61	C	-0.066922	-0.561168	0.246303
C62	C	-0.049794	-0.544141	0.195134
C63	C	-0.008048	-0.627719	0.195183
C64	C	-0.025175	-0.644745	0.246352
C65	C	-0.054614	-0.611468	0.271911
C66	C	-0.054732	-0.686488	0.346980
C67	C	-0.002117	-0.558258	0.114025
C68	C	-0.002879	-0.844379	0.399940
C69	C	-0.002504	-0.558243	0.399473
C70	C	-0.287615	-0.558285	0.398601
N71	N	0.434975	-0.466279	0.491900
O72	O	0.591199	-0.470749	0.375150
O73	O	0.591395	-0.565767	0.504116
O74	O	0.591311	-0.565550	0.422329
O75	O	0.591283	-0.470966	0.456937
O76	O	0.510024	-0.538522	0.449509
O77	O	0.510108	-0.538739	0.531297
O78	O	0.509913	-0.443721	0.402330
Cu79	Cu	0.502588	-0.488762	0.469295
Cu80	Cu	0.598719	-0.520726	0.437151
O81	O	0.509997	-0.443938	0.484117
N82	N	0.666332	-0.543209	0.414541
N83	N	0.090323	-0.121809	0.492157
O84	O	-0.026342	0.034503	0.487582
O85	O	0.102626	0.034543	0.392540
O86	O	0.020797	0.034507	0.392812
O87	O	0.055487	0.034539	0.487310
O88	O	0.047933	-0.046785	0.419900
O89	O	0.129763	-0.046749	0.419628
O90	O	0.000794	-0.046789	0.514670
Cu91	Cu	0.067756	-0.054192	0.469623
Cu92	Cu	0.035664	0.041946	0.437588
O93	O	0.082623	-0.046753	0.514399
N94	N	0.013091	0.109564	0.415054
N95	N	0.090671	-0.466416	0.836606
O96	O	0.086120	-0.583065	0.992910
O97	O	-0.008880	-0.454051	0.992954
O98	O	-0.008658	-0.535864	0.992931
O99	O	0.085897	-0.501252	0.992933
O100	O	0.018407	-0.508749	0.911642
O101	O	0.018185	-0.426936	0.911665
O102	O	0.113185	-0.555949	0.911621
Cu103	Cu	0.068156	-0.488967	0.904221
Cu104	Cu	0.036148	-0.521034	1.000355
O105	O	0.112963	-0.474136	0.911644
N106	N	0.013633	-0.543590	1.067970
C107	C	0.031262	-0.424144	0.393290
C108	C	0.132513	-0.525291	0.393180
C109	C	0.072229	-0.585787	0.514090
C110	C	-0.029022	-0.484640	0.514200
C111	C	0.550775	-0.565338	0.533954
C112	C	0.550672	-0.565070	0.432670
C113	C	0.550530	-0.444149	0.372492
C114	C	0.550635	-0.444418	0.473776
C115	C	0.132408	-0.005998	0.392963
C116	C	0.031106	-0.006142	0.393333
C117	C	-0.029021	-0.006147	0.514213
C118	C	0.072314	-0.006104	0.513878
C119	C	-0.008430	-0.424240	0.952316
C120	C	-0.008150	-0.525550	0.952271
C121	C	0.112735	-0.585760	0.952260
C122	C	0.112461	-0.484444	0.952286
H123	H	0.016194	-0.427197	0.832639
H124	H	0.198696	-0.471996	0.739692
O125	O	0.550602	-0.409016	0.482694
C126	C	0.550678	-0.426828	0.530720
H127	H	0.535330	-0.458227	0.553852
H128	H	0.527074	-0.396228	0.547185
H129	H	0.589689	-0.440433	0.529959
H130	H	-0.037843	-0.532946	0.952238
O131	O	-0.073244	-0.006066	0.549766
C132	C	-0.110111	0.036022	0.533065
H133	H	-0.093470	0.065451	0.502616
H134	H	-0.139270	0.050158	0.564575
H135	H	-0.127404	0.026492	0.518499
O136	O	0.080945	-0.629997	0.549638
C137	C	0.038954	-0.630126	0.591790
H138	H	0.015642	-0.590953	0.591316
H139	H	0.050392	-0.651888	0.625740
H140	H	0.016873	-0.647641	0.592399
H141	H	-0.038255	-0.387188	0.952329
H142	H	0.169370	-0.005761	0.363053
O143	O	0.148259	-0.629996	0.952263
C144	C	0.130671	-0.660409	0.952242
H145	H	0.089039	-0.647175	0.967641
H146	H	0.145670	-0.699566	0.975828
H147	H	0.143081	-0.659077	0.913239
H148	H	-0.066081	-0.477343	0.543993
O149	O	0.022178	-0.006188	0.357978
C150	C	-0.025868	-0.006200	0.375804
H151	H	-0.038704	-0.021578	0.417437
H152	H	-0.026576	-0.029824	0.360948
H153	H	-0.051173	0.032791	0.363441
H154	H	0.550826	-0.595166	0.570996
O155	O	0.550664	-0.600458	0.423766
C156	C	0.550615	-0.582654	0.375731
H157	H	0.535185	-0.541022	0.362890
H158	H	0.527020	-0.597560	0.375048
H159	H	0.589599	-0.594986	0.350412
O160	O	0.550478	-0.408618	0.328274
C161	C	0.550443	-0.426212	0.297869
H162	H	0.565878	-0.467846	0.311081
H163	H	0.573991	-0.411197	0.258704
H164	H	0.511432	-0.413822	0.299237
H165	H	0.079744	-0.006095	0.543566
H166	H	0.142166	-0.477036	0.952281
H167	H	0.167840	-0.502959	0.832516
O168	O	0.041800	-0.391677	0.735825
C169	C	0.012214	-0.417518	0.748360
H170	H	0.031993	-0.458455	0.762404
H171	H	0.004441	-0.408357	0.714728
H172	H	-0.023716	-0.406637	0.778084
O173	O	0.041601	-0.391566	0.566963
C174	C	-0.006462	-0.384335	0.574255
H175	H	-0.006396	-0.390047	0.543415
H176	H	-0.030762	-0.345531	0.574540
H177	H	-0.021092	-0.411579	0.610708
H178	H	0.015920	-0.427139	0.531437
H179	H	0.169570	-0.532590	0.363385
H180	H	-0.015331	-0.685697	0.386578
H181	H	0.167497	-0.502899	0.455559
H182	H	0.198463	-0.471942	0.486461
H183	H	0.338156	-0.509129	0.552896
H184	H	0.430920	-0.389838	0.464614
O185	O	0.434946	-0.547895	0.523002
C186	C	0.422431	-0.563521	0.500030
H187	H	0.385264	-0.537580	0.495701
H188	H	0.420704	-0.602022	0.523317
H189	H	0.451202	-0.563599	0.462497
O190	O	0.334147	-0.351061	0.494452
C191	C	0.367687	-0.325701	0.469304
H192	H	0.404176	-0.351958	0.475184
H193	H	0.352911	-0.294844	0.483795
H194	H	0.373097	-0.309794	0.428600
H195	H	0.015913	-0.654818	0.174378
O196	O	0.165085	-0.222583	0.443312
C197	C	0.172298	-0.189017	0.395261
H198	H	0.141437	-0.152550	0.395376
H199	H	0.172544	-0.203799	0.370977
H200	H	0.208743	-0.183560	0.380573
O201	O	0.022419	-0.379922	0.357788
C202	C	-0.017169	-0.371202	0.346565
H203	H	-0.021052	-0.407511	0.357351
H204	H	-0.010264	-0.351375	0.305660
H205	H	-0.052204	-0.347670	0.367607
O206	O	0.049191	-0.121915	0.574603
C207	C	0.042001	-0.155482	0.622654
H208	H	0.047723	-0.191958	0.622562
H209	H	0.003207	-0.140714	0.646973
H210	H	0.069258	-0.160916	0.637283
O211	O	0.082976	-0.222753	0.608113
C212	C	0.126002	-0.252314	0.620425
H213	H	0.158121	-0.259978	0.586691
H214	H	0.121465	-0.288299	0.650118
H215	H	0.133214	-0.232569	0.634424
O216	O	0.131452	-0.121731	0.409804
C217	C	0.157210	-0.092129	0.397419
H218	H	0.148006	-0.084470	0.431134
H219	H	0.146291	-0.056144	0.367759
H220	H	0.198162	-0.111834	0.383347
O221	O	-0.130646	-0.652351	0.429565
C222	C	-0.143186	-0.695242	0.459124
H223	H	-0.180321	-0.688341	0.459561
H224	H	-0.144993	-0.706027	0.497948
H225	H	-0.114386	-0.726040	0.443765
H226	H	-0.090896	-0.534066	0.267110
O227	O	-0.061823	-0.495259	0.170339
C228	C	-0.091469	-0.469544	0.203873
H229	H	-0.110114	-0.493923	0.240329
H230	H	-0.120383	-0.435381	0.189037
H231	H	-0.067884	-0.458534	0.209369
H232	H	-0.015148	-0.685706	0.267200
H233	H	-0.060067	-0.503170	0.341685
O234	O	-0.095638	-0.528818	0.306079
C235	C	-0.138559	-0.499192	0.331865
H236	H	-0.145732	-0.518938	0.372811
H237	H	-0.170761	-0.491422	0.322644
H238	H	-0.133892	-0.463261	0.320991
O239	O	0.020150	-0.660092	0.422262
C240	C	0.027391	-0.708141	0.429497
H241	H	-0.003435	-0.708016	0.423714
H242	H	0.027599	-0.732427	0.468324
H243	H	0.063862	-0.722835	0.402305
H244	H	0.052828	-0.784146	0.351024
O245	O	0.027181	-0.687377	0.316259
C246	C	0.074878	-0.720969	0.313572
H247	H	0.072887	-0.757429	0.343796
H248	H	0.095865	-0.706209	0.318253
H249	H	0.094450	-0.726431	0.276496
H250	H	-0.097376	-0.783993	0.408060
H251	H	-0.227429	-0.616637	0.455084
O252	O	-0.136083	-0.687155	0.378139
C253	C	-0.151662	-0.699653	0.355109
H254	H	-0.118956	-0.713760	0.324918
H255	H	-0.179795	-0.665984	0.338651
H256	H	-0.168833	-0.729319	0.383135
O257	O	-0.231131	-0.536240	0.298102
C258	C	-0.197523	-0.529047	0.250074
H259	H	-0.161065	-0.534800	0.250228
H260	H	-0.212257	-0.490239	0.225747
H261	H	-0.192071	-0.556284	0.235409
O262	O	-0.130280	-0.570062	0.264713
C263	C	-0.100695	-0.613073	0.252375
H264	H	-0.093092	-0.645221	0.286122
H265	H	-0.064684	-0.608540	0.222752
H266	H	-0.120385	-0.620237	0.238275
