data_functionalizedCrystal
_audit_creation_method	'MofGen! by Chris Wilmer'
_symmetry_space_group_name_H-M	'P1'
_symmetry_Int_Tables_number	1
_symmetry_cell_setting	triclinic
loop_
_symmetry_equiv_pos_as_xyz
  x,y,z
_cell_length_a	15.500227
_cell_length_b	17.038272
_cell_length_c	17.038272
_cell_angle_alpha	91.111556
_cell_angle_beta	93.033254
_cell_angle_gamma	86.956295
loop_
_atom_site_label
_atom_site_type_symbol
_atom_site_fract_x
_atom_site_fract_y
_atom_site_fract_z
O1	O	0.071836	-1.052160	-0.167139
O2	O	0.071862	-0.824350	-0.164430
O3	O	0.071842	-0.936901	-0.051879
O4	O	0.071856	-0.939609	-0.279690
O5	O	-0.072045	-0.930069	-0.058680
O6	O	-0.072026	-0.817518	-0.171231
O7	O	-0.072051	-1.045328	-0.173940
Cu8	Cu	-0.085177	-0.930799	-0.173207
Cu9	Cu	0.084987	-0.938879	-0.165164
O10	O	-0.072032	-0.932777	-0.286491
C11	C	-0.000079	-0.791641	-0.165368
C12	C	-0.000069	-0.704358	-0.158019
C13	C	-0.000101	-0.931022	-0.025987
C14	C	-0.000100	-0.923674	0.061297
N15	N	-0.204861	-0.925122	-0.178864
C16	C	-0.250145	-0.972833	-0.131192
C17	C	-0.340718	-0.968547	-0.135478
C18	C	-0.386003	-0.916555	-0.187440
C19	C	-0.340712	-0.868839	-0.235114
C20	C	-0.250142	-0.873121	-0.230823
C21	C	-0.659467	-0.901128	-0.202884
C22	C	-0.750044	-0.896851	-0.207172
C23	C	-0.750044	-0.996559	-0.107535
C24	C	-0.659471	-1.000840	-0.103252
C25	C	-0.614188	-0.953121	-0.150923
C26	C	-0.478582	-0.912174	-0.191824
C27	C	-0.521610	-0.957498	-0.146534
N28	N	0.204671	-0.944561	-0.159501
C29	C	-0.000109	-1.078037	-0.173003
C30	C	-0.000113	-1.165320	-0.180351
C31	C	-0.000066	-0.658749	-0.225482
C32	C	-0.000078	-0.576737	-0.218574
C33	C	-0.000088	-0.540335	-0.144201
C34	C	-0.000094	-0.585950	-0.076733
C35	C	-0.000088	-0.667961	-0.083642
C36	C	-0.000112	-0.292946	-0.119792
C37	C	-0.000116	-0.210929	-0.112887
C38	C	-0.000102	-0.201721	-0.254729
C39	C	-0.000091	-0.283734	-0.261632
C40	C	-0.000101	-0.329342	-0.194164
C41	C	-0.000098	-0.456505	-0.137138
C42	C	-0.000098	-0.413170	-0.201228
C43	C	-0.000087	-0.938656	-0.312383
C44	C	-0.000082	-0.946004	-0.399667
C45	C	-0.000108	-0.991137	0.106906
C46	C	-0.000100	-0.984229	0.188918
C47	C	-0.000088	-0.909856	0.225320
C48	C	-0.000077	-0.842388	0.179705
C49	C	-0.000080	-0.849297	0.097694
C50	C	-0.000074	-0.885446	0.472708
C51	C	-0.000074	-0.878541	0.554725
C52	C	-0.000094	-1.020383	0.563932
C53	C	-0.000102	-1.027286	0.481919
C54	C	-0.000087	-0.959818	0.436312
C55	C	-0.000082	-0.902792	0.309149
C56	C	-0.000087	-0.966882	0.352484
H57	H	-0.377588	-1.007397	-0.096659
H58	H	-0.000075	-0.539605	-0.273510
H59	H	-0.000096	-0.164579	-0.309658
C60	C	-0.222328	-1.011204	0.002993
C61	C	-0.200393	-1.029982	-0.074054
H62	H	-0.191617	-1.046482	0.038274
H63	H	-0.282747	-1.015472	0.007236
H64	H	-0.207481	-0.958926	0.015725
H65	H	-0.215246	-1.082258	-0.086788
H66	H	-0.139961	-1.025721	-0.078300
H67	H	-0.000114	-0.556305	-0.016177
C68	C	-0.479548	-0.818008	-0.285939
C69	C	-0.390488	-0.811688	-0.292235
H70	H	-0.510275	-0.782729	-0.321209
H71	H	-0.494400	-0.805291	-0.233664
H72	H	-0.494371	-0.870289	-0.298688
H73	H	-0.375664	-0.759408	-0.279480
H74	H	-0.375630	-0.824400	-0.344521
C75	C	-0.000087	-0.668831	0.057256
C76	C	-0.000083	-0.718098	-0.009484
H77	H	-0.000081	-0.699785	0.103038
H78	H	-0.050263	-0.634280	0.054630
H79	H	0.050091	-0.639025	0.059366
H80	H	-0.050264	-0.747900	-0.011598
H81	H	0.050098	-0.752663	-0.006858
H82	H	-0.622602	-1.043177	-0.060940
H83	H	-0.786921	-1.035409	-0.068723
C84	C	0.073893	-0.503549	-0.287773
C85	C	-0.000081	-0.453178	-0.282979
H86	H	0.073907	-0.528249	-0.338245
H87	H	0.073880	-0.542443	-0.248585
H88	H	0.124059	-0.474113	-0.279753
H89	H	-0.050248	-0.482615	-0.290993
H90	H	-0.000076	-0.414278	-0.322178
H91	H	-0.484736	-0.999827	-0.104223
H92	H	-0.000073	-0.794361	0.060560
H93	H	-0.622605	-0.862274	-0.241701
H94	H	-0.213271	-0.834269	-0.269642
H95	H	-0.000077	-1.027437	0.322844
H96	H	-0.000075	-0.842237	0.338796
H97	H	-0.000130	-0.426857	-0.076584
H98	H	-0.000123	-1.051699	0.077273
C99	C	-0.777964	-0.762636	-0.245466
C100	C	-0.799831	-0.839688	-0.264282
H101	H	-0.808707	-0.727349	-0.280718
H102	H	-0.717552	-0.758355	-0.249743
H103	H	-0.792817	-0.749943	-0.193179
H104	H	-0.784972	-0.852383	-0.316568
H105	H	-0.860257	-0.843972	-0.260012
H106	H	-0.000123	-0.181294	-0.052321
H107	H	-0.000111	-1.087848	0.452287
H108	H	-0.000108	-1.039164	0.226049
C109	C	-0.000063	-0.641401	-0.364992
C110	C	-0.000058	-0.698757	-0.307237
H111	H	-0.000065	-0.666100	-0.415464
H112	H	0.050109	-0.611983	-0.356976
H113	H	-0.050245	-0.607229	-0.361711
H114	H	0.050128	-0.732926	-0.310514
H115	H	-0.050234	-0.728189	-0.315255
C116	C	0.073933	-0.374087	-0.348182
C117	C	-0.000053	-0.323730	-0.343391
H118	H	0.073968	-0.398770	-0.398661
H119	H	0.073917	-0.412994	-0.309008
H120	H	0.124091	-0.344642	-0.340139
H121	H	-0.050212	-0.353176	-0.351429
H122	H	-0.000045	-0.284817	-0.382577
C123	C	-0.000120	-0.293798	0.021105
C124	C	-0.000117	-0.343071	-0.045631
H125	H	-0.000118	-0.324748	0.066890
H126	H	-0.050294	-0.259245	0.018475
H127	H	0.050060	-0.263995	0.023214
H128	H	-0.050300	-0.372870	-0.047743
H129	H	0.050062	-0.377638	-0.043000
H130	H	-0.000105	-1.075311	0.601074
H131	H	-0.515461	-0.869842	-0.234135
H132	H	-0.000078	-0.817974	0.584359
C133	C	-0.000073	-0.744549	0.471855
C134	C	-0.000073	-0.811285	0.422583
H135	H	-0.000081	-0.698764	0.440905
H136	H	0.050102	-0.747184	0.506399
H137	H	-0.050252	-0.742435	0.501669
H138	H	0.050109	-0.813402	0.392773
H139	H	-0.050254	-0.808649	0.388026
C140	C	-0.000074	-0.768814	0.301330
C141	C	-0.000068	-0.760635	0.219715
H142	H	-0.000076	-0.718341	0.326028
H143	H	0.050097	-0.799197	0.319029
H144	H	-0.050257	-0.794441	0.314285
H145	H	0.050119	-0.735013	0.206761
H146	H	-0.050244	-0.730240	0.202011
