data_functionalizedCrystal
_audit_creation_method	'MofGen! by Chris Wilmer'
_symmetry_space_group_name_H-M	'P1'
_symmetry_Int_Tables_number	1
_symmetry_cell_setting	triclinic
loop_
_symmetry_equiv_pos_as_xyz
  x,y,z
_cell_length_a	19.288864
_cell_length_b	17.699083
_cell_length_c	18.366186
_cell_angle_alpha	89.992864
_cell_angle_beta	89.977106
_cell_angle_gamma	83.209630
loop_
_atom_site_label
_atom_site_type_symbol
_atom_site_fract_x
_atom_site_fract_y
_atom_site_fract_z
O1	O	0.921465	0.094417	-0.060785
O2	O	0.719219	0.107154	-0.060735
O3	O	0.826056	-0.009412	-0.060755
O4	O	0.814628	0.210983	-0.060765
O5	O	0.826038	-0.009417	0.060345
O6	O	0.719201	0.107148	0.060364
O7	O	0.921446	0.094412	0.060315
Zn8	Zn	0.820321	0.100779	0.079567
Zn9	Zn	0.820345	0.100786	-0.079987
O10	O	0.814610	0.210977	0.060335
C11	C	0.693333	0.106741	-0.000179
C12	C	0.616228	0.105511	-0.000160
C13	C	0.571613	0.173906	-0.000174
C14	C	0.499164	0.172751	-0.000182
C15	C	0.471334	0.103196	-0.000190
C16	C	0.515959	0.034791	-0.000172
C17	C	0.588406	0.035949	-0.000156
C18	C	0.363014	0.048520	-0.042639
C19	C	0.290568	0.047365	-0.042659
C20	C	0.247884	0.099622	-0.000234
C21	C	0.277654	0.153047	0.042200
C22	C	0.350101	0.154205	0.042216
C23	C	0.392779	0.101932	-0.000206
C24	C	0.124712	0.166769	-0.000256
C25	C	0.052262	0.165610	-0.000260
C26	C	0.069059	0.027649	-0.000257
C27	C	0.141507	0.028809	-0.000246
C28	C	0.169329	0.098371	-0.000249
C29	C	0.825637	-0.037611	-0.000205
C30	C	0.824409	-0.121627	-0.000204
C31	C	0.887120	-0.170336	-0.000219
C32	C	0.885961	-0.249278	-0.000225
C33	C	0.822091	-0.279509	-0.000211
C34	C	0.759375	-0.230794	-0.000199
C35	C	0.760535	-0.151854	-0.000198
C36	C	0.754699	-0.549150	-0.000204
C37	C	0.753545	-0.628097	-0.000203
C38	C	0.880126	-0.646575	-0.000230
C39	C	0.881285	-0.567635	-0.000230
C40	C	0.818570	-0.518926	-0.000221
C41	C	0.819827	-0.433329	-0.000216
C42	C	0.820834	-0.365105	-0.000211
C43	C	0.947332	0.094824	-0.000243
C44	C	1.024437	0.096054	-0.000267
C45	C	0.815028	0.239176	-0.000217
C46	C	0.816257	0.323193	-0.000222
N47	N	0.820310	0.100773	0.188458
N48	N	0.820361	0.100786	-0.188878
C49	C	0.867632	0.049183	0.226550
C50	C	0.867637	0.049180	0.302777
C51	C	0.820325	0.100780	0.340911
C52	C	0.772993	0.152373	0.302810
C53	C	0.772986	0.152370	0.226583
C54	C	0.811108	0.169742	0.461669
C55	C	0.811121	0.169746	0.537894
C56	C	0.820345	0.100789	0.576018
C57	C	0.829571	0.031825	0.537908
C58	C	0.829563	0.031822	0.461681
C59	C	0.820328	0.100788	0.423565
C60	C	0.867675	0.049191	0.696765
C61	C	0.867674	0.049187	0.772994
C62	C	0.773034	0.152387	0.773025
C63	C	0.773031	0.152385	0.696797
C64	C	0.820355	0.100788	0.658672
H65	H	0.594260	0.230549	-0.000178
H66	H	0.015936	0.221308	-0.000268
H67	H	0.709469	-0.112195	-0.000187
O68	O	0.455913	0.239263	-0.000235
C69	C	0.496005	0.300907	-0.000216
H70	H	0.550125	0.281511	-0.023123
H71	H	0.501088	0.322247	0.057880
C72	C	0.393353	0.389438	-0.019592
C73	C	0.459823	0.365617	-0.047733
H74	H	0.371034	0.429356	-0.048900
H75	H	0.366342	0.347907	-0.019602
H76	H	0.397599	0.407216	0.028821
H77	H	0.455576	0.347830	-0.096141
H78	H	0.486833	0.407146	-0.047732
H79	H	0.939130	-0.145729	-0.000225
H80	H	0.374336	0.197703	0.076770
H81	H	0.906174	0.007168	0.333797
O82	O	0.726951	0.202388	0.189544
C83	C	0.684182	0.161974	0.145462
H84	H	0.683111	0.102287	0.168442
H85	H	0.705926	0.157945	0.087682
C86	C	0.610853	0.277204	0.116092
C87	C	0.609533	0.203898	0.144320
H88	H	0.564807	0.303065	0.115384
H89	H	0.639668	0.304432	0.145789
H90	H	0.628976	0.273836	0.067945
H91	H	0.591418	0.207267	0.192469
H92	H	0.580713	0.176671	0.114631
O93	O	0.042118	-0.039966	-0.000361
C94	C	0.064950	-0.081635	-0.063084
H95	H	0.115174	-0.061178	-0.083985
H96	H	0.023035	-0.072724	-0.107009
C97	C	0.016981	-0.191949	-0.018356
C98	C	0.078670	-0.166827	-0.044024
H99	H	0.025442	-0.244500	-0.006602
H100	H	0.001596	-0.163875	0.023900
H101	H	-0.017942	-0.184517	-0.054965
H102	H	0.113589	-0.174251	-0.007413
H103	H	0.094062	-0.194904	-0.086275
O104	O	0.261612	-0.004427	-0.083967
C105	C	0.214982	0.033863	-0.134556
H106	H	0.229586	0.093640	-0.144059
H107	H	0.159493	0.037658	-0.112311
C108	C	0.201340	-0.083607	-0.195360
C109	C	0.219280	-0.010189	-0.207036
H110	H	0.203988	-0.110781	-0.240068
H111	H	0.232753	-0.109405	-0.161275
H112	H	0.155100	-0.080433	-0.176820
H113	H	0.265522	-0.013364	-0.225567
H114	H	0.187875	0.015607	-0.241125
H115	H	0.937027	-0.288934	-0.000235
H116	H	0.734500	0.194397	0.665781
O117	O	0.236276	0.203976	0.083321
C118	C	0.245056	0.278484	0.061031
H119	H	0.265150	0.277246	0.002611
H120	H	0.284301	0.302540	0.098306
C121	C	0.149813	0.330569	0.136995
C122	C	0.174486	0.329049	0.065241
H123	H	0.106283	0.361761	0.139594
H124	H	0.143899	0.280372	0.152015
H125	H	0.182523	0.350613	0.168050
H126	H	0.141781	0.308996	0.034189
H127	H	0.180394	0.379244	0.050215
H128	H	0.147365	0.223410	-0.000249
O129	O	0.693716	-0.501950	-0.000154
C130	C	0.637098	-0.545564	-0.000155
H131	H	0.654829	-0.604547	0.022765
H132	H	0.617518	-0.551110	-0.058246
C133	C	0.555970	-0.433591	0.019206
C134	C	0.577746	-0.506033	0.047362
H135	H	0.519357	-0.409206	0.048514
H136	H	0.594114	-0.404207	0.019204
H137	H	0.539658	-0.438224	-0.029203
H138	H	0.594065	-0.501399	0.095766
H139	H	0.539603	-0.535416	0.047373
H140	H	0.177834	-0.026886	-0.000238
H141	H	0.397762	0.005964	-0.077190
H142	H	0.931192	-0.686243	-0.000241
H143	H	0.493296	-0.021841	-0.000188
O144	O	0.943389	-0.538395	-0.000275
C145	C	0.998493	-0.598316	-0.000272
H146	H	0.979116	-0.651876	-0.023194
H147	H	1.017824	-0.609559	0.057820
C148	C	1.082546	-0.510448	-0.019627
C149	C	1.058749	-0.576230	-0.047785
H150	H	1.119716	-0.496824	-0.048932
H151	H	1.045422	-0.470077	-0.019626
H152	H	1.098650	-0.519826	0.028783
H153	H	1.042637	-0.566848	-0.096190
H154	H	1.095871	-0.616599	-0.047795
H155	H	0.734510	0.194397	0.804072
H156	H	0.734470	0.194386	0.333862
H157	H	0.906165	0.007168	0.195510
O158	O	0.697314	-0.260123	-0.000317
C159	C	0.659097	-0.235190	-0.063018
H160	H	0.696456	-0.218891	-0.106863
H161	H	0.620302	-0.183608	-0.048831
C162	C	0.573407	-0.319668	-0.037598
C163	C	0.619292	-0.299656	-0.091451
H164	H	0.548850	-0.359432	-0.055135
H165	H	0.599153	-0.336464	0.004647
H166	H	0.541084	-0.276678	-0.025780
H167	H	0.651619	-0.342643	-0.103262
H168	H	0.593551	-0.282868	-0.133698
O169	O	0.802279	0.236715	0.574947
C170	C	0.861219	0.242663	0.619022
H171	H	0.908044	0.204811	0.596031
H172	H	0.850254	0.223720	0.676800
C173	C	0.819649	0.372368	0.648417
C174	C	0.877162	0.325884	0.620174
H175	H	0.829483	0.423703	0.649130
H176	H	0.779939	0.368361	0.618724
H177	H	0.810518	0.356574	0.696562
H178	H	0.886287	0.341673	0.572027
H179	H	0.916874	0.329896	0.649859
H180	H	0.701531	-0.652707	-0.000190
O181	O	0.838496	-0.035232	0.424774
C182	C	0.846658	-0.096099	0.474761
H183	H	0.822213	-0.076548	0.529110
H184	H	0.904609	-0.115623	0.482836
C185	C	0.840335	-0.186634	0.378286
C186	C	0.810306	-0.162623	0.445036
H187	H	0.817914	-0.227671	0.359950
H188	H	0.834839	-0.145628	0.344608
H189	H	0.888626	-0.202899	0.385024
H190	H	0.762018	-0.146349	0.438295
H191	H	0.815793	-0.203628	0.478713
H192	H	0.803585	0.225898	0.430635
H193	H	0.837081	-0.024326	0.568947
O194	O	0.913663	-0.001006	0.659837
C195	C	0.955441	-0.046536	0.709808
H196	H	0.926970	-0.047312	0.764159
H197	H	1.006996	-0.022105	0.717886
C198	C	1.004863	-0.127274	0.613307
C199	C	0.969892	-0.128232	0.680060
H200	H	1.013780	-0.177667	0.594957
H201	H	0.976719	-0.096599	0.579640
H202	H	1.047821	-0.106911	0.620048
H203	H	0.926931	-0.148585	0.673317
H204	H	0.998029	-0.158913	0.713726
H205	H	0.624733	-0.019749	-0.000145
H206	H	0.906208	0.007172	0.804009
