data_functionalizedCrystal
_audit_creation_method	'MofGen! by Chris Wilmer'
_symmetry_space_group_name_H-M	'P1'
_symmetry_Int_Tables_number	1
_symmetry_cell_setting	triclinic
loop_
_symmetry_equiv_pos_as_xyz
  x,y,z
_cell_length_a	29.839134
_cell_length_b	21.295417
_cell_length_c	29.839126
_cell_angle_alpha	89.976722
_cell_angle_beta	90.035740
_cell_angle_gamma	89.974633
loop_
_atom_site_label
_atom_site_type_symbol
_atom_site_fract_x
_atom_site_fract_y
_atom_site_fract_z
Zn1	Zn	0.686815	0.250757	0.254121
Zn2	Zn	0.936815	0.500757	0.504121
Zn3	Zn	1.186815	0.750757	0.754121
Zn4	Zn	1.436815	1.000757	1.004121
Zn5	Zn	0.686743	0.356012	0.178989
Zn6	Zn	0.936743	0.606012	0.428989
Zn7	Zn	1.186743	0.856012	0.678989
Zn8	Zn	1.436743	1.106012	0.928989
Zn9	Zn	0.611679	0.250751	0.178991
Zn10	Zn	0.861679	0.500751	0.428991
Zn11	Zn	1.111679	0.750751	0.678991
Zn12	Zn	1.361679	1.000751	0.928991
Zn13	Zn	0.611660	0.355983	0.254078
Zn14	Zn	0.861660	0.605983	0.504078
Zn15	Zn	1.111660	0.855983	0.754078
Zn16	Zn	1.361660	1.105983	1.004078
O17	O	0.649224	0.303376	0.216545
O18	O	0.899224	0.553376	0.466545
O19	O	1.149224	0.803376	0.716545
O20	O	1.399224	1.053376	0.966545
O21	O	0.749672	0.264734	0.244172
O22	O	0.999672	0.514734	0.494172
O23	O	1.249672	0.764734	0.744172
O24	O	1.499672	1.014734	0.994172
O25	O	0.676764	0.342058	0.116122
O26	O	0.926764	0.592058	0.366122
O27	O	1.176764	0.842058	0.616122
O28	O	1.426764	1.092058	0.866122
O29	O	0.621685	0.162662	0.188976
O30	O	0.871685	0.412662	0.438976
O31	O	1.121685	0.662662	0.688976
O32	O	1.371685	0.912662	0.938976
O33	O	0.749620	0.342064	0.188973
O34	O	0.999620	0.592064	0.438973
O35	O	1.249620	0.842064	0.688973
O36	O	1.499620	1.092064	0.938973
O37	O	0.676886	0.162667	0.244174
O38	O	0.926886	0.412667	0.494174
O39	O	1.176886	0.662667	0.744174
O40	O	1.426886	0.912667	0.994174
O41	O	0.621615	0.264724	0.116123
O42	O	0.871615	0.514724	0.366123
O43	O	1.121615	0.764724	0.616123
O44	O	1.371615	1.014724	0.866123
O45	O	0.548810	0.264696	0.188933
O46	O	0.798810	0.514696	0.438933
O47	O	1.048810	0.764696	0.688933
O48	O	1.298810	1.014696	0.938933
O49	O	0.621651	0.342015	0.316951
O50	O	0.871651	0.592015	0.566951
O51	O	1.121651	0.842015	0.816951
O52	O	1.371651	1.092015	1.066951
O53	O	0.548795	0.342009	0.244100
O54	O	0.798795	0.592009	0.494100
O55	O	1.048795	0.842009	0.744100
O56	O	1.298795	1.092009	0.994100
O57	O	0.676867	0.264706	0.316982
O58	O	0.926867	0.514706	0.566982
O59	O	1.176867	0.764706	0.816982
O60	O	1.426867	1.014706	1.066982
O61	O	0.676745	0.444097	0.188931
O62	O	0.926745	0.694097	0.438931
O63	O	1.176745	0.944097	0.688931
O64	O	1.426745	1.194097	0.938931
O65	O	0.621581	0.444076	0.244098
O66	O	0.871581	0.694076	0.494098
O67	O	1.121581	0.944076	0.744098
O68	O	1.371581	1.194076	0.994098
C69	C	0.649165	0.466927	0.216520
C70	C	0.899165	0.716927	0.466520
C71	C	1.149165	0.966927	0.716520
C72	C	1.399165	1.216927	0.966520
C73	C	0.649181	0.536895	0.216524
C74	C	0.899181	0.786895	0.466524
C75	C	1.149181	1.036895	0.716524
C76	C	1.399181	1.286895	0.966524
C77	C	0.532502	0.303349	0.216512
C78	C	0.782502	0.553349	0.466512
C79	C	1.032502	0.803349	0.716512
C80	C	1.282502	1.053349	0.966512
C81	C	0.482567	0.303353	0.216509
C82	C	0.732567	0.553353	0.466509
C83	C	0.982567	0.803353	0.716509
C84	C	1.232567	1.053353	0.966509
C85	C	0.649265	0.303358	0.333723
C86	C	0.899265	0.553358	0.583723
C87	C	1.149265	0.803358	0.833723
C88	C	1.399265	1.053358	1.083723
C89	C	0.649282	0.303350	0.383658
C90	C	0.899282	0.553350	0.633658
C91	C	1.149282	0.803350	0.883658
C92	C	1.399282	1.053350	1.133658
C93	C	0.172926	0.343692	0.245235
C94	C	0.422926	0.593692	0.495235
C95	C	0.672926	0.843692	0.745235
C96	C	0.922926	1.093692	0.995235
C97	C	-0.014747	0.343710	0.245254
C98	C	0.235253	0.593710	0.495254
C99	C	0.485253	0.843710	0.745254
C100	C	0.735253	1.093710	0.995254
O101	O	-0.039011	0.377979	0.269659
O102	O	0.210989	0.627979	0.519659
O103	O	0.460989	0.877979	0.769659
O104	O	0.710989	1.127979	1.019659
N105	N	-0.038218	0.303399	0.216579
N106	N	0.211782	0.553399	0.466579
N107	N	0.461782	0.803399	0.716579
N108	N	0.711782	1.053399	0.966579
C109	C	-0.014767	0.263077	0.187898
C110	C	0.235233	0.513077	0.437898
C111	C	0.485233	0.763077	0.687898
C112	C	0.735233	1.013077	0.937898
O113	O	-0.039037	0.228786	0.163511
O114	O	0.210963	0.478786	0.413511
O115	O	0.460963	0.728786	0.663511
O116	O	0.710963	0.978786	0.913511
C117	C	0.172905	0.263057	0.187880
C118	C	0.422905	0.513057	0.437880
C119	C	0.672905	0.763057	0.687880
C120	C	0.922905	1.013057	0.937880
C121	C	0.196373	0.303375	0.216555
C122	C	0.446373	0.553375	0.466555
C123	C	0.696373	0.803375	0.716555
C124	C	0.946373	1.053375	0.966555
C125	C	0.196394	0.384007	0.273907
C126	C	0.446394	0.634007	0.523907
C127	C	0.696394	0.884007	0.773907
C128	C	0.946394	1.134007	1.023907
C129	C	0.243309	0.384004	0.273900
C130	C	0.493309	0.634004	0.523900
C131	C	0.743309	0.884004	0.773900
C132	C	0.993309	1.134004	1.023900
C133	C	0.266757	0.343687	0.245220
C134	C	0.516757	0.593687	0.495220
C135	C	0.766757	0.843687	0.745220
C136	C	1.016757	1.093687	0.995220
C137	C	0.243289	0.303373	0.216548
C138	C	0.493289	0.553373	0.466548
C139	C	0.743289	0.803373	0.716548
C140	C	0.993289	1.053373	0.966548
C141	C	0.196355	0.222733	0.159202
C142	C	0.446355	0.472733	0.409202
C143	C	0.696355	0.722733	0.659202
C144	C	0.946355	0.972733	0.909202
C145	C	0.243276	0.222730	0.159201
C146	C	0.493276	0.472730	0.409201
C147	C	0.743276	0.722730	0.659201
C148	C	0.993276	0.972730	0.909201
C149	C	0.266744	0.263048	0.187876
C150	C	0.516744	0.513048	0.437876
C151	C	0.766744	0.763048	0.687876
C152	C	1.016744	1.013048	0.937876
C153	C	0.313651	0.263053	0.187861
C154	C	0.563651	0.513053	0.437861
C155	C	0.813651	0.763053	0.687861
C156	C	1.063651	1.013053	0.937861
N157	N	0.337122	0.303365	0.216537
N158	N	0.587122	0.553365	0.466537
N159	N	0.837122	0.803365	0.716537
N160	N	1.087122	1.053365	0.966537
C161	C	0.313674	0.343682	0.245217
C162	C	0.563674	0.593682	0.495217
C163	C	0.813674	0.843682	0.745217
C164	C	1.063674	1.093682	0.995217
C165	C	-0.113298	0.263092	0.187908
C166	C	0.136702	0.513092	0.437908
C167	C	0.386702	0.763092	0.687908
C168	C	0.636702	1.013092	0.937908
C169	C	-0.160216	0.263098	0.187912
C170	C	0.089784	0.513098	0.437912
C171	C	0.339784	0.763098	0.687912
C172	C	0.589784	1.013098	0.937912
C173	C	-0.160193	0.343730	0.245269
C174	C	0.089807	0.593730	0.495269
C175	C	0.339807	0.843730	0.745269
C176	C	0.589807	1.093730	0.995269
C177	C	-0.113274	0.343727	0.245263
C178	C	0.136726	0.593727	0.495263
C179	C	0.386726	0.843727	0.745263
C180	C	0.636726	1.093727	0.995263
C181	C	-0.089827	0.303403	0.216584
C182	C	0.160173	0.553403	0.466584
C183	C	0.410173	0.803403	0.716584
C184	C	0.660173	1.053403	0.966584
C185	C	0.412200	0.343674	0.245200
C186	C	0.662200	0.593674	0.495200
C187	C	0.912200	0.843674	0.745200
C188	C	1.162200	1.093674	0.995200
C189	C	0.459120	0.343670	0.245189
C190	C	0.709120	0.593670	0.495189
C191	C	0.959120	0.843670	0.745189
C192	C	1.209120	1.093670	0.995189
C193	C	0.459093	0.263036	0.187833
C194	C	0.709093	0.513036	0.437833
C195	C	0.959093	0.763036	0.687833
C196	C	1.209093	1.013036	0.937833
C197	C	0.412177	0.263042	0.187842
C198	C	0.662177	0.513042	0.437842
C199	C	0.912177	0.763042	0.687842
C200	C	1.162177	1.013042	0.937842
C201	C	0.388732	0.303363	0.216529
C202	C	0.638732	0.553363	0.466529
C203	C	0.888732	0.803363	0.716529
C204	C	1.138732	1.053363	0.966529
O205	O	0.337943	0.228798	0.163473
O206	O	0.587943	0.478798	0.413473
O207	O	0.837943	0.728798	0.663473
O208	O	1.087943	0.978798	0.913473
O209	O	0.337952	0.377958	0.269607
O210	O	0.587952	0.627958	0.519607
O211	O	0.837952	0.877958	0.769607
O212	O	1.087952	1.127958	1.019607
C213	C	0.126010	0.343695	0.245242
C214	C	0.376010	0.593695	0.495242
C215	C	0.626010	0.843695	0.745242
C216	C	0.876010	1.093695	0.995242
C217	C	0.102542	0.303380	0.216569
C218	C	0.352542	0.553380	0.466569
C219	C	0.602542	0.803380	0.716569
C220	C	0.852542	1.053380	0.966569
C221	C	0.125990	0.263063	0.187889
C222	C	0.375990	0.513063	0.437889
C223	C	0.625990	0.763063	0.687889
C224	C	0.875990	1.013063	0.937889
C225	C	0.055624	0.303386	0.216573
C226	C	0.305624	0.553386	0.466573
C227	C	0.555624	0.803386	0.716573
C228	C	0.805624	1.053386	0.966573
C229	C	0.032177	0.343703	0.245252
C230	C	0.282177	0.593703	0.495252
C231	C	0.532177	0.843703	0.745252
C232	C	0.782177	1.093703	0.995252
C233	C	0.055647	0.384014	0.273928
C234	C	0.305647	0.634014	0.523928
C235	C	0.555647	0.884014	0.773928
C236	C	0.805647	1.134014	1.023928
C237	C	0.102563	0.384012	0.273921
C238	C	0.352563	0.634012	0.523921
C239	C	0.602563	0.884012	0.773921
C240	C	0.852563	1.134012	1.023921
C241	C	0.102519	0.222752	0.159213
C242	C	0.352519	0.472752	0.409213
C243	C	0.602519	0.722752	0.659213
C244	C	0.852519	0.972752	0.909213
C245	C	0.055604	0.222758	0.159222
C246	C	0.305604	0.472758	0.409222
C247	C	0.555604	0.722758	0.659222
C248	C	0.805604	0.972758	0.909222
C249	C	0.032156	0.263075	0.187902
C250	C	0.282156	0.513075	0.437902
C251	C	0.532156	0.763075	0.687902
C252	C	0.782156	1.013075	0.937902
C253	C	0.766403	0.303403	0.216577
C254	C	1.016403	0.553403	0.466577
C255	C	1.266403	0.803403	0.716577
C256	C	1.516403	1.053403	0.966577
C257	C	0.816337	0.303415	0.216591
C258	C	1.066337	0.553415	0.466591
C259	C	1.316337	0.803415	0.716591
C260	C	1.566337	1.053415	0.966591
C261	C	0.649296	0.139185	0.216580
C262	C	0.899296	0.389185	0.466580
C263	C	1.149296	0.639185	0.716580
C264	C	1.399296	0.889185	0.966580
C265	C	0.649326	0.069217	0.216594
C266	C	0.899326	0.319217	0.466594
C267	C	1.149326	0.569217	0.716594
C268	C	1.399326	0.819217	0.966594
C269	C	0.677930	0.569752	0.187828
C270	C	0.927930	0.819752	0.437828
C271	C	1.177930	1.069752	0.687828
C272	C	1.427930	1.319752	0.937828
C273	C	0.677951	0.635495	0.187838
C274	C	0.927951	0.885495	0.437838
C275	C	1.177951	1.135495	0.687838
C276	C	1.427951	1.385495	0.937838
C277	C	0.649215	0.668378	0.216540
C278	C	0.899215	0.918378	0.466540
C279	C	1.149215	1.168378	0.716540
C280	C	1.399215	1.418378	0.966540
C281	C	0.620464	0.635513	0.245241
C282	C	0.870464	0.885513	0.495241
C283	C	1.120464	1.135513	0.745241
C284	C	1.370464	1.385513	0.995241
C285	C	0.620447	0.569772	0.245234
C286	C	0.870447	0.819772	0.495234
C287	C	1.120447	1.069772	0.745234
C288	C	1.370447	1.319772	0.995234
N289	N	0.609915	0.771639	0.219954
N290	N	0.859915	1.021639	0.469954
N291	N	1.109915	1.271639	0.719954
N292	N	1.359915	1.521639	0.969954
N293	N	0.609933	0.834091	0.219958
N294	N	0.859933	1.084091	0.469958
N295	N	1.109933	1.334091	0.719958
N296	N	1.359933	1.584091	0.969958
C297	C	0.649266	0.866453	0.216565
C298	C	0.899266	1.116453	0.466565
C299	C	1.149266	1.366453	0.716565
C300	C	1.399266	1.616453	0.966565
N301	N	0.688581	0.834004	0.213159
N302	N	0.938581	1.084004	0.463159
N303	N	1.188581	1.334004	0.713159
N304	N	1.438581	1.584004	0.963159
N305	N	0.688563	0.771546	0.213152
N306	N	0.938563	1.021546	0.463152
N307	N	1.188563	1.271546	0.713152
N308	N	1.438563	1.521546	0.963152
C309	C	0.649231	0.739663	0.216551
C310	C	0.899231	0.989663	0.466551
C311	C	1.149231	1.239663	0.716551
C312	C	1.399231	1.489663	0.966551
C313	C	0.678040	0.970595	0.187879
C314	C	0.928040	1.220595	0.437879
C315	C	1.178040	1.470595	0.687879
C316	C	1.428040	1.720595	0.937879
C317	C	0.678062	1.036339	0.187892
C318	C	0.928062	1.286339	0.437892
C319	C	1.178062	1.536339	0.687892
C320	C	1.428062	1.786339	0.937892
C321	C	0.620571	1.036356	0.245293
C322	C	0.870571	1.286356	0.495293
C323	C	1.120571	1.536356	0.745293
C324	C	1.370571	1.786356	0.995293
C325	C	0.620553	0.970613	0.245282
C326	C	0.870553	1.220613	0.495282
C327	C	1.120553	1.470613	0.745282
C328	C	1.370553	1.720613	0.995282
C329	C	0.649287	0.937737	0.216573
C330	C	0.899287	1.187737	0.466573
C331	C	1.149287	1.437737	0.716573
C332	C	1.399287	1.687737	0.966573
C333	C	0.649210	0.303348	0.099822
C334	C	0.899210	0.553348	0.349822
C335	C	1.149210	0.803348	0.599822
C336	C	1.399210	1.053348	0.849822
C337	C	0.649280	0.303179	0.049888
C338	C	0.899280	0.553179	0.299888
C339	C	1.149280	0.803179	0.549888
C340	C	1.399280	1.053179	0.799888
C341	C	0.677992	0.343534	0.740247
C342	C	0.927992	0.593534	0.990247
C343	C	1.177992	0.843534	1.240247
C344	C	1.427992	1.093534	1.490247
C345	C	0.677992	0.343578	0.552574
C346	C	0.927992	0.593578	0.802574
C347	C	1.177992	0.843578	1.052574
C348	C	1.427992	1.093578	1.302574
O349	O	0.702398	0.377843	0.528312
O350	O	0.952398	0.627843	0.778312
O351	O	1.202398	0.877843	1.028312
O352	O	1.452398	1.127843	1.278312
N353	N	0.649280	0.303320	0.529103
N354	N	0.899280	0.553320	0.779103
N355	N	1.149280	0.803320	1.029103
N356	N	1.399280	1.053320	1.279103
C357	C	0.620563	0.263050	0.552552
C358	C	0.870563	0.513050	0.802552
C359	C	1.120563	0.763050	1.052552
C360	C	1.370563	1.013050	1.302552
O361	O	0.596137	0.228814	0.528282
O362	O	0.846137	0.478814	0.778282
O363	O	1.096137	0.728814	1.028282
O364	O	1.346137	0.978814	1.278282
C365	C	0.620560	0.263010	0.740225
C366	C	0.870560	0.513010	0.990225
C367	C	1.120560	0.763010	1.240225
C368	C	1.370560	1.013010	1.490225
C369	C	0.649278	0.303267	0.763694
C370	C	0.899278	0.553267	1.013694
C371	C	1.149278	0.803267	1.263694
C372	C	1.399278	1.053267	1.513694
C373	C	0.706707	0.383788	0.763716
C374	C	0.956707	0.633788	1.013716
C375	C	1.206707	0.883788	1.263716
C376	C	1.456707	1.133788	1.513716
C377	C	0.706708	0.383774	0.810632
C378	C	0.956708	0.633774	1.060632
C379	C	1.206708	0.883774	1.310632
C380	C	1.456708	1.133774	1.560632
C381	C	0.677994	0.343507	0.834078
C382	C	0.927994	0.593507	1.084078
C383	C	1.177994	0.843507	1.334078
C384	C	1.427994	1.093507	1.584078
C385	C	0.649279	0.303253	0.810609
C386	C	0.899279	0.553253	1.060609
C387	C	1.149279	0.803253	1.310609
C388	C	1.399279	1.053253	1.560609
C389	C	0.591841	0.222745	0.763673
C390	C	0.841841	0.472745	1.013673
C391	C	1.091841	0.722745	1.263673
C392	C	1.341841	0.972745	1.513673
C393	C	0.591842	0.222739	0.810595
C394	C	0.841842	0.472739	1.060595
C395	C	1.091842	0.722739	1.310595
C396	C	1.341842	0.972739	1.560595
C397	C	0.620560	0.262996	0.834064
C398	C	0.870560	0.512996	1.084064
C399	C	1.120560	0.762996	1.334064
C400	C	1.370560	1.012996	1.584064
C401	C	0.620566	0.262972	0.880971
C402	C	0.870566	0.512972	1.130971
C403	C	1.120566	0.762972	1.380971
C404	C	1.370566	1.012972	1.630971
N405	N	0.649279	0.303230	0.904443
N406	N	0.899279	0.553230	1.154443
N407	N	1.149279	0.803230	1.404443
N408	N	1.399279	1.053230	1.654443
C409	C	0.677993	0.343498	0.880996
C410	C	0.927993	0.593498	1.130996
C411	C	1.177993	0.843498	1.380996
C412	C	1.427993	1.093498	1.630996
C413	C	0.620567	0.263073	0.454022
C414	C	0.870567	0.513073	0.704022
C415	C	1.120567	0.763073	0.954022
C416	C	1.370567	1.013073	1.204022
C417	C	0.620568	0.263083	0.407104
C418	C	0.870568	0.513083	0.657104
C419	C	1.120568	0.763083	0.907104
C420	C	1.370568	1.013083	1.157104
C421	C	0.677997	0.343611	0.407129
C422	C	0.927997	0.593611	0.657129
C423	C	1.177997	0.843611	0.907129
C424	C	1.427997	1.093611	1.157129
C425	C	0.677998	0.343599	0.454048
C426	C	0.927998	0.593599	0.704048
C427	C	1.177998	0.843599	0.954048
C428	C	1.427998	1.093599	1.204048
C429	C	0.649279	0.303332	0.477493
C430	C	0.899279	0.553332	0.727493
C431	C	1.149279	0.803332	0.977493
C432	C	1.399279	1.053332	1.227493
C433	C	0.677994	0.343465	0.979522
C434	C	0.927994	0.593465	1.229522
C435	C	1.177994	0.843465	1.479522
C436	C	1.427994	1.093465	1.729522
C437	C	0.677994	0.343446	1.026442
C438	C	0.927994	0.593446	1.276442
C439	C	1.177994	0.843446	1.526442
C440	C	1.427994	1.093446	1.776442
C441	C	0.620563	0.262920	1.026413
C442	C	0.870563	0.512920	1.276413
C443	C	1.120563	0.762920	1.526413
C444	C	1.370563	1.012920	1.776413
C445	C	0.620564	0.262937	0.979497
C446	C	0.870564	0.512937	1.229497
C447	C	1.120564	0.762937	1.479497
C448	C	1.370564	1.012937	1.729497
C449	C	0.649281	0.303214	0.956053
C450	C	0.899281	0.553214	1.206053
C451	C	1.149281	0.803214	1.456053
C452	C	1.399281	1.053214	1.706053
O453	O	0.596170	0.228730	0.905262
O454	O	0.846170	0.478730	1.155262
O455	O	1.096170	0.728730	1.405262
O456	O	1.346170	0.978730	1.655262
O457	O	0.702408	0.377739	0.905274
O458	O	0.952408	0.627739	1.155274
O459	O	1.202408	0.877739	1.405274
O460	O	1.452408	1.127739	1.655274
C461	C	0.677990	0.343548	0.693332
C462	C	0.927990	0.593548	0.943332
C463	C	1.177990	0.843548	1.193332
C464	C	1.427990	1.093548	1.443332
C465	C	0.649275	0.303294	0.669863
C466	C	0.899275	0.553294	0.919863
C467	C	1.149275	0.803294	1.169863
C468	C	1.399275	1.053294	1.419863
C469	C	0.620561	0.263027	0.693309
C470	C	0.870561	0.513027	0.943309
C471	C	1.120561	0.763027	1.193309
C472	C	1.370561	1.013027	1.443309
C473	C	0.649276	0.303303	0.622945
C474	C	0.899276	0.553303	0.872945
C475	C	1.149276	0.803303	1.122945
C476	C	1.399276	1.053303	1.372945
C477	C	0.677990	0.343571	0.599499
C478	C	0.927990	0.593571	0.849499
C479	C	1.177990	0.843571	1.099499
C480	C	1.427990	1.093571	1.349499
C481	C	0.706703	0.383829	0.622970
C482	C	0.956703	0.633829	0.872970
C483	C	1.206703	0.883829	1.122970
C484	C	1.456703	1.133829	1.372970
C485	C	0.706704	0.383816	0.669886
C486	C	0.956704	0.633816	0.919886
C487	C	1.206704	0.883816	1.169886
C488	C	1.456704	1.133816	1.419886
C489	C	0.591849	0.222768	0.669838
C490	C	0.841849	0.472768	0.919838
C491	C	1.091849	0.722768	1.169838
C492	C	1.341849	0.972768	1.419838
C493	C	0.591850	0.222785	0.622922
C494	C	0.841850	0.472785	0.872922
C495	C	1.091850	0.722785	1.122922
C496	C	1.341850	0.972785	1.372922
C497	C	0.620564	0.263052	0.599476
C498	C	0.870564	0.513052	0.849476
C499	C	1.120564	0.763052	1.099476
C500	C	1.370564	1.013052	1.349476
H501	H	0.478225	0.376504	0.268539
H502	H	0.728225	0.626504	0.518539
H503	H	0.978225	0.876504	0.768539
H504	H	1.228225	1.126504	1.018539
H505	H	0.262364	0.189889	0.135849
H506	H	0.512364	0.439889	0.385849
H507	H	0.762364	0.689889	0.635849
H508	H	1.012364	0.939889	0.885849
O509	O	0.386861	0.219559	0.156915
O510	O	0.636861	0.469559	0.406915
O511	O	0.886861	0.719559	0.656915
O512	O	1.136861	0.969559	0.906915
H513	H	0.411049	0.191522	0.136972
H514	H	0.661049	0.441522	0.386972
H515	H	0.911049	0.691522	0.636972
H516	H	1.161049	0.941522	0.886972
O517	O	0.560881	0.179326	0.695121
O518	O	0.810881	0.429326	0.945121
O519	O	1.060881	0.679326	1.195121
O520	O	1.310881	0.929326	1.445121
H521	H	0.538006	0.207480	0.716478
H522	H	0.788006	0.457480	0.966478
H523	H	1.038006	0.707480	1.216478
H524	H	1.288006	0.957480	1.466478
O525	O	0.127873	0.427492	0.304853
O526	O	0.377873	0.677492	0.554853
O527	O	0.627873	0.927492	0.804853
O528	O	0.877873	1.177492	1.054853
H529	H	0.103680	0.455518	0.324798
H530	H	0.353680	0.705518	0.574798
H531	H	0.603680	0.955518	0.824798
H532	H	0.853680	1.205518	1.074798
O533	O	-0.185530	0.219622	0.156980
O534	O	0.064470	0.469622	0.406980
O535	O	0.314470	0.719622	0.656980
O536	O	0.564470	0.969622	0.906980
H537	H	-0.176509	0.170231	0.164752
H538	H	0.073491	0.420231	0.414752
H539	H	0.323491	0.670231	0.664752
H540	H	0.573491	0.920231	0.914752
H541	H	0.730092	0.416557	0.829736
H542	H	0.980092	0.666557	1.079736
H543	H	1.230092	0.916557	1.329736
H544	H	1.480092	1.166557	1.579736
H545	H	0.701381	0.376228	1.045548
H546	H	0.951381	0.626228	1.295548
H547	H	1.201381	0.876228	1.545548
H548	H	1.451381	1.126228	1.795548
O549	O	0.030370	0.427546	0.304843
O550	O	0.280370	0.677546	0.554843
O551	O	0.530370	0.927546	0.804843
O552	O	0.780370	1.177546	1.054843
H553	H	0.039401	0.416858	0.340122
H554	H	0.289401	0.666858	0.590122
H555	H	0.539401	0.916858	0.840122
H556	H	0.789401	1.166858	1.090122
O557	O	-0.087968	0.387205	0.276200
O558	O	0.162032	0.637205	0.526200
O559	O	0.412032	0.887205	0.776200
O560	O	0.662032	1.137205	1.026200
H561	H	-0.066572	0.359068	0.299091
H562	H	0.183428	0.609068	0.549091
H563	H	0.433428	0.859068	0.799091
H564	H	0.683428	1.109068	1.049091
O565	O	0.484386	0.219548	0.156902
O566	O	0.734386	0.469548	0.406902
O567	O	0.984386	0.719548	0.656902
O568	O	1.234386	0.969548	0.906902
H569	H	0.520953	0.226318	0.161722
H570	H	0.770953	0.476318	0.411722
H571	H	1.020953	0.726318	0.661722
H572	H	1.270953	0.976318	0.911722
H573	H	0.701476	1.063090	0.164525
H574	H	0.951476	1.313090	0.414525
H575	H	1.201476	1.563090	0.664525
H576	H	1.451476	1.813090	0.914525
O577	O	0.708925	0.534296	0.156865
O578	O	0.958925	0.784296	0.406865
O579	O	1.208925	1.034296	0.656865
O580	O	1.458925	1.284296	0.906865
H581	H	0.704082	0.483061	0.161677
H582	H	0.954082	0.733061	0.411677
H583	H	1.204082	0.983061	0.661677
H584	H	1.454082	1.233061	0.911677
H585	H	0.036500	0.189927	0.135868
H586	H	0.286500	0.439927	0.385868
H587	H	0.536500	0.689927	0.635868
H588	H	0.786500	0.939927	0.885868
O589	O	0.386916	0.387208	0.276106
O590	O	0.636916	0.637208	0.526106
O591	O	0.886916	0.887208	0.776106
O592	O	1.136916	1.137208	1.026106
H593	H	0.411123	0.415258	0.296026
H594	H	0.661123	0.665258	0.546026
H595	H	0.911123	0.915258	0.796026
H596	H	1.161123	1.165258	1.046026
O597	O	0.708959	0.670954	0.156890
O598	O	0.958959	0.920954	0.406890
O599	O	1.208959	1.170954	0.656890
O600	O	1.458959	1.420954	0.906890
H601	H	0.701264	0.658385	0.121619
H602	H	0.951264	0.908385	0.371619
H603	H	1.201264	1.158385	0.621619
H604	H	1.451264	1.408385	0.871619
O605	O	0.127806	0.179279	0.128269
O606	O	0.377806	0.429279	0.378269
O607	O	0.627806	0.679279	0.628269
O608	O	0.877806	0.929279	0.878269
H609	H	0.103599	0.151259	0.108327
H610	H	0.353599	0.401259	0.358327
H611	H	0.603599	0.651259	0.608327
H612	H	0.853599	0.901259	0.858327
O613	O	0.560878	0.179357	0.597610
O614	O	0.810878	0.429357	0.847610
O615	O	1.060878	0.679357	1.097610
O616	O	1.310878	0.929357	1.347610
H617	H	0.540912	0.151359	0.621801
H618	H	0.790912	0.401359	0.871801
H619	H	1.040912	0.651359	1.121801
H620	H	1.290912	0.901359	1.371801
O621	O	0.589535	0.935178	0.276229
O622	O	0.839535	1.185178	0.526229
O623	O	1.089535	1.435178	0.776229
O624	O	1.339535	1.685178	1.026229
H625	H	0.609620	0.905188	0.299110
H626	H	0.859620	1.155188	0.549110
H627	H	1.109620	1.405188	0.799110
H628	H	1.359620	1.655188	1.049110
H629	H	0.597068	0.662291	0.268611
H630	H	0.847068	0.912291	0.518611
H631	H	1.097068	1.162291	0.768611
H632	H	1.347068	1.412291	1.018611
O633	O	0.589573	1.071815	0.276247
O634	O	0.839573	1.321815	0.526247
O635	O	1.089573	1.571815	0.776247
O636	O	1.339573	1.821815	1.026247
H637	H	0.609677	1.101730	0.299128
H638	H	0.859677	1.351730	0.549128
H639	H	1.109677	1.601730	0.799128
H640	H	1.359677	1.851730	1.049128
O641	O	0.708972	0.386898	0.954239
O642	O	0.958972	0.636898	1.204239
O643	O	1.208972	0.886898	1.454239
O644	O	1.458972	1.136898	1.704239
H645	H	0.728941	0.414877	0.978447
H646	H	0.978941	0.664877	1.228447
H647	H	1.228941	0.914877	1.478447
H648	H	1.478941	1.164877	1.728447
H649	H	0.701382	0.376379	0.473153
H650	H	0.951382	0.626379	0.723153
H651	H	1.201382	0.876379	0.973153
H652	H	1.451382	1.126379	1.223153
H653	H	0.730090	0.416582	0.744631
H654	H	0.980090	0.666582	0.994631
H655	H	1.230090	0.916582	1.244631
H656	H	1.480090	1.166582	1.494631
O657	O	0.589430	0.534327	0.276177
O658	O	0.839430	0.784327	0.526177
O659	O	1.089430	1.034327	0.776177
O660	O	1.339430	1.284327	1.026177
H661	H	0.569447	0.568234	0.296134
H662	H	0.819447	0.818234	0.546134
H663	H	1.069447	1.068234	0.796134
H664	H	1.319447	1.318234	1.046134
H665	H	0.262413	0.416835	0.297251
H666	H	0.512413	0.666835	0.547251
H667	H	0.762413	0.916835	0.797251
H668	H	1.012413	1.166835	1.047251
O669	O	0.171107	0.427568	0.304791
O670	O	0.421107	0.677568	0.554791
O671	O	0.671107	0.927568	0.804791
O672	O	0.921107	1.177568	1.054791
H673	H	0.195316	0.455624	0.324704
H674	H	0.445316	0.705624	0.574704
H675	H	0.695316	0.955624	0.824704
H676	H	0.945316	1.205624	1.074704
H677	H	0.597186	0.230148	0.960387
H678	H	0.847186	0.480148	1.210387
H679	H	1.097186	0.730148	1.460387
H680	H	1.347186	0.980148	1.710387
H681	H	0.701378	0.376398	0.388031
H682	H	0.951378	0.626398	0.638031
H683	H	1.201378	0.876398	0.888031
H684	H	1.451378	1.126398	1.138031
H685	H	0.597188	0.230294	0.387999
H686	H	0.847188	0.480294	0.637999
H687	H	1.097188	0.730294	0.887999
H688	H	1.347188	0.980294	1.137999
H689	H	0.597179	0.230282	0.473107
H690	H	0.847179	0.480282	0.723107
H691	H	1.097179	0.730282	0.973107
H692	H	1.347179	0.980282	1.223107
H693	H	0.597186	0.230133	1.045511
H694	H	0.847186	0.480133	1.295511
H695	H	1.097186	0.730133	1.545511
H696	H	1.347186	0.980133	1.795511
H697	H	0.568455	0.189964	0.744573
H698	H	0.818455	0.439964	0.994573
H699	H	1.068455	0.689964	1.244573
H700	H	1.318455	0.939964	1.494573
H701	H	0.568455	0.189948	0.829681
H702	H	0.818455	0.439948	1.079681
H703	H	1.068455	0.689948	1.329681
H704	H	1.318455	0.939948	1.579681
H705	H	-0.179291	0.376557	0.268622
H706	H	0.070709	0.626557	0.518622
H707	H	0.320709	0.876557	0.768622
H708	H	0.570709	1.126557	1.018622
O709	O	0.737670	0.427247	0.695197
O710	O	0.987670	0.677247	0.945197
O711	O	1.237670	0.927247	1.195197
O712	O	1.487670	1.177247	1.445197
H713	H	0.757628	0.455253	0.671004
H714	H	1.007628	0.705253	0.921004
H715	H	1.257628	0.955253	1.171004
H716	H	1.507628	1.205253	1.421004
H717	H	0.730085	0.416614	0.603872
H718	H	0.980085	0.666614	0.853872
H719	H	1.230085	0.916614	1.103872
H720	H	1.480085	1.166614	1.353872
H721	H	0.701439	0.943826	0.164503
H722	H	0.951439	1.193826	0.414503
H723	H	1.201439	1.443826	0.664503
H724	H	1.451439	1.693826	0.914503
H725	H	-0.094212	0.230255	0.164552
H726	H	0.155788	0.480255	0.414552
H727	H	0.405788	0.730255	0.664552
H728	H	0.655788	0.980255	0.914552
H729	H	0.177255	0.189903	0.135851
H730	H	0.427255	0.439903	0.385851
H731	H	0.677255	0.689903	0.635851
H732	H	0.927255	0.939903	0.885851
