data_functionalizedCrystal
_audit_creation_method	'MofGen! by Chris Wilmer'
_symmetry_space_group_name_H-M	'P1'
_symmetry_Int_Tables_number	1
_symmetry_cell_setting	triclinic
loop_
_symmetry_equiv_pos_as_xyz
  x,y,z
_cell_length_a	12.594517
_cell_length_b	17.077402
_cell_length_c	17.077404
_cell_angle_alpha	89.990103
_cell_angle_beta	89.998969
_cell_angle_gamma	90.025089
loop_
_atom_site_label
_atom_site_type_symbol
_atom_site_fract_x
_atom_site_fract_y
_atom_site_fract_z
Zn1	Zn	-1.627073	0.312628	0.443696
Zn2	Zn	-1.127073	0.812628	0.943696
Zn3	Zn	-1.626978	0.443863	0.312432
Zn4	Zn	-1.126978	0.943863	0.812432
Zn5	Zn	-1.449116	0.312617	0.312460
Zn6	Zn	-0.949116	0.812617	0.812460
Zn7	Zn	-1.449034	0.443858	0.443672
Zn8	Zn	-0.949034	0.943858	0.943672
O9	O	-1.538050	0.378241	0.378065
O10	O	-1.038050	0.878241	0.878065
O11	O	-1.776006	0.330044	0.426281
O12	O	-1.276006	0.830044	0.926281
O13	O	-1.603378	0.426450	0.202589
O14	O	-1.103378	0.926450	0.702589
O15	O	-1.472797	0.202771	0.329890
O16	O	-0.972797	0.702771	0.829890
O17	O	-1.775936	0.426461	0.329842
O18	O	-1.275936	0.926461	0.829842
O19	O	-1.603542	0.202780	0.426308
O20	O	-1.103542	0.702780	0.926308
O21	O	-1.472704	0.330024	0.202610
O22	O	-0.972704	0.830024	0.702610
O23	O	-1.300160	0.330019	0.329868
O24	O	-0.800160	0.830019	0.829868
O25	O	-1.472656	0.426452	0.553522
O26	O	-0.972656	0.926452	1.053522
O27	O	-1.300099	0.426441	0.426269
O28	O	-0.800099	0.926441	0.926269
O29	O	-1.603461	0.330039	0.553539
O30	O	-1.103461	0.830039	1.053539
O31	O	-1.603298	0.553709	0.329820
O32	O	-1.103298	1.053709	0.829820
O33	O	-1.472564	0.553705	0.426241
O34	O	-0.972564	1.053705	0.926241
C35	C	-1.261509	0.378229	0.378069
C36	C	-0.761509	0.878229	0.878069
C37	C	-1.143204	0.378243	0.378090
C38	C	-0.643204	0.878243	0.878090
C39	C	-1.003185	0.430783	0.430426
C40	C	-0.503185	0.930783	0.930426
C41	C	-1.073973	0.449863	0.358783
C42	C	-0.573973	0.949863	0.858783
C43	C	-1.073987	0.359197	0.449725
C44	C	-0.573987	0.859197	0.949725
C45	C	-1.003206	0.397388	0.306387
C46	C	-0.503206	0.897388	0.806387
C47	C	-1.003214	0.306688	0.397377
C48	C	-0.503214	0.806688	0.897377
C49	C	-1.073970	0.325741	0.325685
C50	C	-0.573970	0.825741	0.825685
C51	C	-1.537940	0.582189	0.378042
C52	C	-1.037940	1.082189	0.878042
C53	C	-1.537991	0.669439	0.378058
C54	C	-1.037991	1.169439	0.878058
C55	C	-0.815671	0.378257	0.378063
C56	C	-0.315671	0.878257	0.878063
C57	C	-0.933976	0.378270	0.378068
C58	C	-0.433976	0.878270	0.878068
C59	C	-1.606132	0.710405	0.327907
C60	C	-1.106132	1.210405	0.827907
C61	C	-1.606182	0.792386	0.327931
C62	C	-1.106182	1.292386	0.827931
C63	C	-1.538083	0.833398	0.378102
C64	C	-1.038083	1.333398	0.878102
C65	C	-1.469939	0.792427	0.428259
C66	C	-0.969939	1.292427	0.928259
C67	C	-1.469895	0.710448	0.428239
C68	C	-0.969895	1.210448	0.928239
C69	C	-1.470031	0.963297	0.428295
C70	C	-0.970031	1.463297	0.928295
C71	C	-1.470073	1.045281	0.428315
C72	C	-0.970073	1.545281	0.928315
C73	C	-1.606318	1.045235	0.327988
C74	C	-1.106318	1.545235	0.827988
C75	C	-1.606274	0.963256	0.327968
C76	C	-1.106274	1.463256	0.827968
C77	C	-1.538128	0.922289	0.378123
C78	C	-1.038128	1.422289	0.878123
C79	C	-1.538060	0.378246	0.582809
C80	C	-1.038060	0.878246	1.082809
C81	C	-1.538065	0.378248	0.670059
C82	C	-1.038065	0.878248	1.170059
C83	C	-1.538181	1.173497	0.378116
C84	C	-1.038181	1.673497	0.878116
C85	C	-1.538214	1.086247	0.378163
C86	C	-1.038214	1.586247	0.878163
C87	C	-1.606166	0.328054	0.711059
C88	C	-1.106166	0.828054	1.211059
C89	C	-1.606158	0.328053	0.793040
C90	C	-1.106158	0.828053	1.293040
C91	C	-1.538051	0.378251	0.834018
C92	C	-1.038051	0.878251	1.334018
C93	C	-1.469942	0.428447	0.793012
C94	C	-0.969942	0.928447	1.293012
C95	C	-1.469947	0.428444	0.711033
C96	C	-0.969947	0.928444	1.211033
C97	C	-1.469940	0.428452	0.963882
C98	C	-0.969940	0.928452	1.463882
C99	C	-1.469937	0.428457	1.045867
C100	C	-0.969937	0.928457	1.545867
C101	C	-1.606151	0.328062	1.045889
C102	C	-1.106151	0.828062	1.545889
C103	C	-1.606155	0.328058	0.963910
C104	C	-1.106155	0.828058	1.463910
C105	C	-1.538047	0.378256	0.922909
C106	C	-1.038047	0.878256	1.422909
C107	C	-1.538035	0.378257	1.174117
C108	C	-1.038035	0.878257	1.674117
C109	C	-1.538038	0.378263	1.086867
C110	C	-1.038038	0.878263	1.586867
H111	H	-1.105079	0.343077	0.510314
H112	H	-0.605079	0.843077	1.010314
F113	F	-1.397454	0.481869	0.836627
F114	F	-0.897454	0.981869	1.336627
F115	F	-1.397461	0.481865	0.667398
F116	F	-0.897461	0.981865	1.167398
F117	F	-1.678607	0.666763	0.274503
F118	F	-1.178607	1.166763	0.774503
F119	F	-1.678751	0.919608	0.274569
F120	F	-1.178751	1.419608	0.774569
F121	F	-1.678711	0.835981	0.274555
F122	F	-1.178711	1.335981	0.774555
F123	F	-0.962743	0.418551	0.227169
F124	F	-0.462743	0.918551	0.727169
H125	H	-1.661808	1.078593	0.287151
H126	H	-1.161808	1.578593	0.787151
F127	F	-1.397585	1.088929	0.481705
F128	F	-0.897585	1.588929	0.981705
H129	H	-1.104854	0.281321	0.281365
H130	H	-0.604854	0.781321	0.781365
F131	F	-1.397449	0.481877	0.920249
F132	F	-0.897449	0.981877	1.420249
H133	H	-1.414543	0.929945	0.469140
H134	H	-0.914543	1.429945	0.969140
H135	H	-0.972105	0.475237	0.474639
H136	H	-0.472105	0.975237	0.974639
H137	H	-1.414496	0.825826	0.469112
H138	H	-0.914496	1.325826	0.969112
H139	H	-1.105054	0.510387	0.342455
H140	H	-0.605054	1.010387	0.842455
F141	F	-0.962554	0.227602	0.418746
F142	F	-0.462554	0.727602	0.918746
F143	F	-1.397373	0.666849	0.481618
F144	F	-0.897373	1.166849	0.981618
F145	F	-1.678661	0.274630	0.667454
F146	F	-1.178661	0.774630	1.167454
H147	H	-1.661615	0.287182	0.826419
H148	H	-1.161615	0.787182	1.326419
F149	F	-1.678647	0.274637	0.920299
F150	F	-1.178647	0.774637	1.420299
H151	H	-1.661605	0.287188	1.079275
H152	H	-1.161605	0.787188	1.579275
F153	F	-1.397442	0.481877	1.089478
F154	F	-0.897442	0.981877	1.589478
