data_functionalizedCrystal
_audit_creation_method	'MofGen! by Chris Wilmer'
_symmetry_space_group_name_H-M	'P1'
_symmetry_Int_Tables_number	1
_symmetry_cell_setting	triclinic
loop_
_symmetry_equiv_pos_as_xyz
  x,y,z
_cell_length_a	19.805407
_cell_length_b	21.295417
_cell_length_c	19.805407
_cell_angle_alpha	90.016581
_cell_angle_beta	90.009221
_cell_angle_gamma	90.030507
loop_
_atom_site_label
_atom_site_type_symbol
_atom_site_fract_x
_atom_site_fract_y
_atom_site_fract_z
Zn1	Zn	1.034647	-0.250712	0.382704
Zn2	Zn	1.367981	0.082621	0.716037
Zn3	Zn	1.701314	0.415954	1.049371
Zn4	Zn	1.034574	-0.355955	0.269509
Zn5	Zn	1.367908	-0.022622	0.602843
Zn6	Zn	1.701241	0.310712	0.936176
Zn7	Zn	0.921482	-0.250704	0.269529
Zn8	Zn	1.254816	0.082630	0.602862
Zn9	Zn	1.588149	0.415963	0.936195
Zn10	Zn	0.921417	-0.355948	0.382656
Zn11	Zn	1.254751	-0.022614	0.715989
Zn12	Zn	1.588084	0.310719	1.049323
O13	O	0.978030	-0.303330	0.326100
O14	O	1.311364	0.030004	0.659433
O15	O	1.644697	0.363337	0.992766
O16	O	1.129354	-0.264680	0.367701
O17	O	1.462687	0.068654	0.701034
O18	O	1.796021	0.401987	1.034367
O19	O	1.019569	-0.341992	0.174795
O20	O	1.352903	-0.008659	0.508129
O21	O	1.686236	0.324674	0.841462
O22	O	0.936552	-0.162615	0.284570
O23	O	1.269885	0.170718	0.617903
O24	O	1.603218	0.504051	0.951236
O25	O	1.129301	-0.342001	0.284537
O26	O	1.462634	-0.008668	0.617870
O27	O	1.795967	0.324666	0.951204
O28	O	1.019693	-0.162622	0.367719
O29	O	1.353027	0.170711	0.701053
O30	O	1.686360	0.504045	1.034386
O31	O	0.936481	-0.264665	0.174810
O32	O	1.269814	0.068669	0.508143
O33	O	1.603148	0.402002	0.841476
O34	O	0.826757	-0.264658	0.284523
O35	O	1.160090	0.068676	0.617857
O36	O	1.493424	0.402009	0.951190
O37	O	0.936441	-0.341989	0.477379
O38	O	1.269774	-0.008655	0.810712
O39	O	1.603107	0.324678	1.144046
O40	O	0.826709	-0.341980	0.367638
O41	O	1.160043	-0.008647	0.700971
O42	O	1.493376	0.324687	1.034304
O43	O	1.019630	-0.264673	0.477414
O44	O	1.352964	0.068661	0.810748
O45	O	1.686297	0.401994	1.144081
O46	O	1.019506	-0.444043	0.284490
O47	O	1.352840	-0.110710	0.617824
O48	O	1.686173	0.222623	0.951157
O49	O	0.936370	-0.444038	0.367619
O50	O	1.269703	-0.110705	0.700952
O51	O	1.603037	0.222629	1.034286
C52	C	0.802174	-0.303318	0.326078
C53	C	1.135508	0.030016	0.659411
C54	C	1.468841	0.363349	0.992744
C55	C	0.726942	-0.303328	0.326084
C56	C	1.060276	0.030006	0.659418
C57	C	1.393609	0.363339	0.992751
C58	C	0.691591	-0.343650	0.369292
C59	C	1.024924	-0.010317	0.702625
C60	C	1.358258	0.323017	1.035959
C61	C	0.620903	-0.343651	0.369301
C62	C	0.954236	-0.010318	0.702635
C63	C	1.287569	0.323016	1.035968
C64	C	0.585567	-0.303333	0.326100
C65	C	0.918900	0.030001	0.659433
C66	C	1.252233	0.363334	0.992766
C67	C	0.620923	-0.263006	0.282890
C68	C	0.954256	0.070328	0.616224
C69	C	1.287590	0.403661	0.949557
C70	C	0.691610	-0.263002	0.282885
C71	C	1.024943	0.070331	0.616218
C72	C	1.358277	0.403665	0.949551
C73	C	0.335850	-0.263020	0.282913
C74	C	0.669183	0.070314	0.616246
C75	C	1.002516	0.403647	0.949579
C76	C	0.265158	-0.263028	0.282920
C77	C	0.598491	0.070305	0.616253
C78	C	0.931824	0.403639	0.949587
C79	C	0.265142	-0.343669	0.369329
C80	C	0.598475	-0.010335	0.702663
C81	C	0.931809	0.322998	1.035996
C82	C	0.335829	-0.343665	0.369324
C83	C	0.669163	-0.010332	0.702657
C84	C	1.002496	0.323002	1.035990
C85	C	0.371179	-0.303336	0.326117
C86	C	0.704513	0.029997	0.659451
C87	C	1.037846	0.363331	0.992784
C88	C	0.447828	-0.303335	0.326108
C89	C	0.781161	0.029999	0.659442
C90	C	1.114494	0.363332	0.992775
C91	C	0.508920	-0.303337	0.326105
C92	C	0.842253	0.029997	0.659438
C93	C	1.175586	0.363330	0.992771
C94	C	0.977942	-0.466881	0.326062
C95	C	1.311275	-0.133548	0.659395
C96	C	1.644608	0.199785	0.992729
C97	C	0.977966	-0.536849	0.326069
C98	C	1.311299	-0.203516	0.659402
C99	C	1.644632	0.129817	0.992735
C100	C	1.021293	-0.569698	0.282828
C101	C	1.354626	-0.236365	0.616161
C102	C	1.687960	0.096969	0.949495
C103	C	1.021325	-0.635440	0.282843
C104	C	1.354658	-0.302107	0.616177
C105	C	1.687991	0.031226	0.949510
C106	C	0.978017	-0.668332	0.326092
C107	C	1.311350	-0.334999	0.659425
C108	C	1.644684	-0.001665	0.992759
C109	C	0.934686	-0.635475	0.369341
C110	C	1.268020	-0.302142	0.702674
C111	C	1.601353	0.031191	1.036008
C112	C	0.934661	-0.569734	0.369329
C113	C	1.267994	-0.236401	0.702663
C114	C	1.601327	0.096932	1.035996
N115	N	0.918806	-0.771599	0.331245
N116	N	1.252139	-0.438266	0.664578
N117	N	1.585472	-0.104932	0.997911
N118	N	0.918832	-0.834050	0.331252
N119	N	1.252165	-0.500717	0.664585
N120	N	1.585499	-0.167384	0.997918
C121	C	0.978093	-0.866407	0.326131
C122	C	1.311426	-0.533073	0.659464
C123	C	1.644759	-0.199740	0.992798
N124	N	1.037328	-0.833952	0.320989
N125	N	1.370661	-0.500619	0.654323
N126	N	1.703994	-0.167285	0.987656
N127	N	1.037300	-0.771495	0.320979
N128	N	1.370634	-0.438162	0.654312
N129	N	1.703967	-0.104828	0.987645
C130	C	0.978040	-0.739617	0.326110
C131	C	1.311374	-0.406284	0.659443
C132	C	1.644707	-0.072951	0.992776
C133	C	1.021458	-0.970541	0.282904
C134	C	1.354791	-0.637207	0.616238
C135	C	1.688125	-0.303874	0.949571
C136	C	1.021491	-1.036284	0.282924
C137	C	1.354824	-0.702951	0.616258
C138	C	1.688158	-0.369618	0.949591
C139	C	0.934847	-1.036318	0.369419
C140	C	1.268180	-0.702985	0.702752
C141	C	1.601513	-0.369651	1.036085
C142	C	0.934820	-0.970576	0.369402
C143	C	1.268153	-0.637242	0.702736
C144	C	1.601487	-0.303909	1.036069
C145	C	0.978125	-0.937691	0.326142
C146	C	1.311458	-0.604358	0.659475
C147	C	1.644791	-0.271024	0.992808
C148	C	1.154573	-0.303342	0.326122
C149	C	1.487906	0.029991	0.659455
C150	C	1.821240	0.363324	0.992789
C151	C	1.229805	-0.303348	0.326131
C152	C	1.563138	0.029986	0.659465
C153	C	1.896472	0.363319	0.992798
C154	C	0.978036	-0.303331	0.502642
C155	C	1.311370	0.030002	0.835976
C156	C	1.644703	0.363336	1.169309
C157	C	0.978039	-0.303331	0.577874
C158	C	1.311372	0.030002	0.911208
C159	C	1.644706	0.363335	1.244541
C160	C	0.978138	-0.139139	0.326152
C161	C	1.311471	0.194194	0.659485
C162	C	1.644804	0.527527	0.992819
C163	C	0.978184	-0.069171	0.326174
C164	C	1.311517	0.264162	0.659508
C165	C	1.644850	0.597495	0.992841
C166	C	1.021350	-0.263079	0.613238
C167	C	1.354684	0.070254	0.946571
C168	C	1.688017	0.403587	1.279905
C169	C	1.021344	-0.263077	0.683926
C170	C	1.354678	0.070256	1.017260
C171	C	1.688011	0.403589	1.350593
C172	C	0.978030	-0.303331	0.719250
C173	C	1.311364	0.030002	1.052583
C174	C	1.644697	0.363335	1.385917
C175	C	0.934714	-0.343585	0.683881
C176	C	1.268047	-0.010252	1.017215
C177	C	1.601381	0.323081	1.350548
C178	C	0.934717	-0.343584	0.613194
C179	C	1.268050	-0.010250	0.946528
C180	C	1.601384	0.323083	1.279861
C181	C	0.934701	-0.343593	0.968955
C182	C	1.268034	-0.010259	1.302288
C183	C	1.601367	0.323074	1.635621
C184	C	0.934703	-0.343593	1.039647
C185	C	1.268036	-0.010259	1.372980
C186	C	1.601369	0.323074	1.706313
C187	C	1.021328	-0.263086	1.039687
C188	C	1.354662	0.070247	1.373020
C189	C	1.687995	0.403580	1.706353
C190	C	1.021331	-0.263085	0.969000
C191	C	1.354664	0.070249	1.302333
C192	C	1.687998	0.403582	1.635666
C193	C	0.978013	-0.303336	0.933637
C194	C	1.311346	0.029997	1.266971
C195	C	1.644679	0.363331	1.600304
C196	C	0.978019	-0.303337	0.856989
C197	C	1.311352	0.029997	1.190322
C198	C	1.644685	0.363330	1.523655
C199	C	0.978027	-0.303334	0.795897
C200	C	1.311360	0.029999	1.129230
C201	C	1.644694	0.363332	1.462564
C202	C	0.978018	-0.303341	1.150244
C203	C	1.311351	0.029992	1.483577
C204	C	1.644684	0.363325	1.816910
C205	C	0.978011	-0.303337	1.075012
C206	C	1.311344	0.029997	1.408345
C207	C	1.644678	0.363330	1.741678
H208	H	0.364596	-0.376499	0.404501
H209	H	0.697930	-0.043165	0.737834
H210	H	1.031263	0.290168	1.071168
F211	F	0.227514	-0.386590	0.415315
F212	F	0.560848	-0.053257	0.748648
F213	F	0.894181	0.280076	1.081982
H214	H	0.899588	-1.063098	0.404636
H215	H	1.232921	-0.729764	0.737969
H216	H	1.566254	-0.396431	1.071302
H217	H	0.899442	-0.376355	0.584402
H218	H	1.232775	-0.043021	0.917735
H219	H	1.566108	0.290312	1.251069
F220	F	0.888544	-0.534773	0.415354
F221	F	1.221877	-0.201440	0.748687
F222	F	1.555210	0.131893	1.082021
H223	H	0.899426	-0.662260	0.404556
H224	H	1.232760	-0.328927	0.737889
H225	H	1.566093	0.004407	1.071222
H226	H	0.364623	-0.230186	0.247726
H227	H	0.697957	0.103147	0.581059
H228	H	1.031290	0.436480	0.914393
H229	H	0.899444	-0.376358	0.712647
H230	H	1.232778	-0.043025	1.045981
H231	H	1.566111	0.290308	1.379314
H232	H	0.236389	-0.230192	0.247740
H233	H	0.569722	0.103142	0.581073
H234	H	0.903056	0.436475	0.914406
H235	H	0.592147	-0.230175	0.247717
H236	H	0.925480	0.103158	0.581051
H237	H	1.258814	0.436492	0.914384
H238	H	1.056604	-0.230308	0.940243
H239	H	1.389938	0.103025	1.273576
H240	H	1.723271	0.436359	1.606909
H241	H	0.899536	-0.943829	0.404610
H242	H	1.232869	-0.610495	0.737943
H243	H	1.566203	-0.277162	1.071277
F244	F	1.067466	-0.220257	0.721560
F245	F	1.400799	0.113076	1.054893
F246	F	1.734132	0.446410	1.388226
H247	H	1.056598	-0.230310	1.068487
H248	H	1.389931	0.103024	1.401821
H249	H	1.723264	0.436357	1.735154
H250	H	1.056624	-0.230302	0.584482
H251	H	1.389957	0.103032	0.917816
H252	H	1.723291	0.436365	1.251149
F253	F	1.067441	-0.670407	0.236818
F254	F	1.400774	-0.337074	0.570152
F255	F	1.734108	-0.003741	0.903485
H256	H	1.056556	-0.542925	0.247604
H257	H	1.389889	-0.209592	0.580938
H258	H	1.723222	0.123742	0.914271
H259	H	0.720356	-0.376484	0.404470
H260	H	1.053690	-0.043151	0.737803
H261	H	1.387023	0.290182	1.071136
F262	F	0.888597	-0.386432	0.931328
F263	F	1.221931	-0.053098	1.264662
F264	F	1.555264	0.280235	1.597995
H265	H	0.899428	-0.376373	1.068405
H266	H	1.232761	-0.043040	1.401739
H267	H	1.566095	0.290293	1.735072
H268	H	0.720392	-0.230164	0.247704
H269	H	1.053726	0.103169	0.581037
H270	H	1.387059	0.436503	0.914371
H271	H	0.592123	-0.376486	0.404485
H272	H	0.925456	-0.043153	0.737818
H273	H	1.258789	0.290180	1.071151
H274	H	1.056778	-1.063028	0.247714
H275	H	1.390111	-0.729695	0.581047
H276	H	1.723444	-0.396362	0.914381
H277	H	1.056722	-0.943765	0.247681
H278	H	1.390055	-0.610431	0.581014
H279	H	1.723388	-0.277098	0.914348
