data_functionalizedCrystal
_audit_creation_method	'MofGen! by Chris Wilmer'
_symmetry_space_group_name_H-M	'P1'
_symmetry_Int_Tables_number	1
_symmetry_cell_setting	triclinic
loop_
_symmetry_equiv_pos_as_xyz
  x,y,z
_cell_length_a	19.121063
_cell_length_b	19.805407
_cell_length_c	19.805399
_cell_angle_alpha	89.978275
_cell_angle_beta	87.588895
_cell_angle_gamma	87.529649
loop_
_atom_site_label
_atom_site_type_symbol
_atom_site_fract_x
_atom_site_fract_y
_atom_site_fract_z
Zn1	Zn	-0.279608	-1.023235	0.394240
Zn2	Zn	0.053725	-0.689901	0.727574
Zn3	Zn	0.387059	-0.356568	1.060907
Zn4	Zn	-0.397060	-1.018318	0.285875
Zn5	Zn	-0.063727	-0.684985	0.619208
Zn6	Zn	0.269606	-0.351652	0.952542
Zn7	Zn	-0.279630	-0.910048	0.281062
Zn8	Zn	0.053704	-0.576715	0.614395
Zn9	Zn	0.387037	-0.243382	0.947728
Zn10	Zn	-0.397026	-0.905183	0.399016
Zn11	Zn	-0.063692	-0.571850	0.732350
Zn12	Zn	0.269641	-0.238516	1.065683
O13	O	-0.338331	-0.964196	0.340048
O14	O	-0.004998	-0.630863	0.673382
O15	O	0.328336	-0.297529	1.006715
O16	O	-0.295194	-1.117299	0.379881
O17	O	0.038140	-0.783966	0.713215
O18	O	0.371473	-0.450632	1.046548
O19	O	-0.381507	-1.003935	0.190521
O20	O	-0.048173	-0.670601	0.523854
O21	O	0.285160	-0.337268	0.857188
O22	O	-0.181342	-0.929156	0.292062
O23	O	0.151991	-0.595823	0.625395
O24	O	0.485325	-0.262490	0.958728
O25	O	-0.381485	-1.113687	0.300266
O26	O	-0.048152	-0.780354	0.633599
O27	O	0.285181	-0.447020	0.966932
O28	O	-0.181326	-1.012314	0.375214
O29	O	0.152007	-0.678981	0.708547
O30	O	0.485341	-0.345647	1.041880
O31	O	-0.295231	-0.924389	0.186984
O32	O	0.038102	-0.591056	0.520318
O33	O	0.371436	-0.257723	0.853651
O34	O	-0.295197	-0.814687	0.296693
O35	O	0.038136	-0.481353	0.630026
O36	O	0.371470	-0.148020	0.963359
O37	O	-0.381426	-0.920864	0.493098
O38	O	-0.048093	-0.587531	0.826432
O39	O	0.285241	-0.254198	1.159765
O40	O	-0.381447	-0.811112	0.383353
O41	O	-0.048114	-0.477779	0.716687
O42	O	0.285219	-0.144446	1.050020
O43	O	-0.295160	-1.007596	0.489589
O44	O	0.038173	-0.674263	0.822923
O45	O	0.371507	-0.340930	1.156256
O46	O	-0.495341	-0.999217	0.304897
O47	O	-0.162007	-0.665884	0.638230
O48	O	0.171326	-0.332550	0.971563
O49	O	-0.495315	-0.916097	0.388021
O50	O	-0.161982	-0.582764	0.721354
O51	O	0.171352	-0.249430	1.054688
C52	C	-0.338321	-0.788341	0.340019
C53	C	-0.004988	-0.455007	0.673353
C54	C	0.328345	-0.121674	1.006686
C55	C	-0.338334	-0.713108	0.340024
C56	C	-0.005001	-0.379775	0.673357
C57	C	0.328332	-0.046441	1.006690
C58	C	-0.293474	-0.253198	0.381583
C59	C	0.039860	0.080135	0.714917
C60	C	0.373193	0.413468	1.048250
C61	C	-0.293476	-0.323887	0.381580
C62	C	0.039858	0.009447	0.714913
C63	C	0.373191	0.342780	1.048247
C64	C	-0.338334	-0.357346	0.340056
C65	C	-0.005000	-0.024013	0.673390
C66	C	0.328333	0.309320	1.006723
C67	C	-0.383197	-0.320114	0.298538
C68	C	-0.049864	0.013220	0.631871
C69	C	0.283469	0.346553	0.965205
C70	C	-0.383198	-0.249426	0.298545
C71	C	-0.049865	0.083907	0.631879
C72	C	0.283468	0.417240	0.965212
C73	C	-0.383196	-0.605187	0.298509
C74	C	-0.049862	-0.271854	0.631842
C75	C	0.283471	0.061480	0.965175
C76	C	-0.383190	-0.675879	0.298503
C77	C	-0.049857	-0.342546	0.631837
C78	C	0.283477	-0.009213	0.965170
C79	C	-0.293473	-0.679647	0.381544
C80	C	0.039860	-0.346314	0.714877
C81	C	0.373193	-0.012981	1.048210
C82	C	-0.293474	-0.608960	0.381551
C83	C	0.039859	-0.275627	0.714884
C84	C	0.373193	0.057707	1.048217
C85	C	-0.338340	-0.571733	0.340035
C86	C	-0.005007	-0.238400	0.673369
C87	C	0.328327	0.094933	1.006702
C88	C	-0.338338	-0.495085	0.340040
C89	C	-0.005005	-0.161752	0.673374
C90	C	0.328329	0.171582	1.006707
C91	C	-0.338333	-0.433993	0.340047
C92	C	-0.004999	-0.100660	0.673381
C93	C	0.328334	0.232673	1.006714
C94	C	-0.520812	-0.956614	0.347514
C95	C	-0.187479	-0.623281	0.680848
C96	C	0.145855	-0.289947	1.014181
C97	C	-0.598878	-0.953432	0.350731
C98	C	-0.265545	-0.620099	0.684064
C99	C	0.067789	-0.286766	1.017398
C100	C	-0.635544	-0.995247	0.309000
C101	C	-0.302210	-0.661914	0.642333
C102	C	0.031123	-0.328581	0.975666
C103	C	-0.708895	-0.992259	0.312029
C104	C	-0.375562	-0.658926	0.645362
C105	C	-0.042229	-0.325592	0.978695
C106	C	-0.745580	-0.947452	0.356786
C107	C	-0.412246	-0.614118	0.690120
C108	C	-0.078913	-0.280785	1.023453
C109	C	-0.708909	-0.905635	0.398522
C110	C	-0.375576	-0.572302	0.731855
C111	C	-0.042242	-0.238968	1.065189
C112	C	-0.635559	-0.908627	0.395496
C113	C	-0.302225	-0.575294	0.728829
C114	C	0.031108	-0.241961	1.062163
C115	C	-0.967050	-0.936253	0.368090
C116	C	-0.633717	-0.602920	0.701423
C117	C	-0.300383	-0.269587	1.034757
C118	C	-1.040405	-0.933263	0.371112
C119	C	-0.707072	-0.599929	0.704445
C120	C	-0.373739	-0.266596	1.037778
C121	C	-1.040387	-1.019888	0.284619
C122	C	-0.707053	-0.686555	0.617952
C123	C	-0.373720	-0.353221	0.951285
C124	C	-0.967035	-1.022873	0.281594
C125	C	-0.633702	-0.689540	0.614927
C126	C	-0.300368	-0.356207	0.948260
C127	C	-0.930371	-0.981059	0.323332
C128	C	-0.597037	-0.647726	0.656665
C129	C	-0.263704	-0.314393	0.989999
C130	C	-0.820557	-0.944395	0.359882
C131	C	-0.487223	-0.611061	0.693215
C132	C	-0.153890	-0.277728	1.026549
C133	C	-0.855395	-0.984120	0.320239
C134	C	-0.522062	-0.650787	0.653572
C135	C	-0.188728	-0.317454	0.986906
C136	C	-0.155137	-0.971826	0.332568
C137	C	0.178196	-0.638493	0.665901
C138	C	0.511529	-0.305160	0.999235
C139	C	-0.077071	-0.975078	0.329380
C140	C	0.256262	-0.641744	0.662714
C141	C	0.589596	-0.308411	0.996047
C142	C	-0.338287	-0.964236	0.516589
C143	C	-0.004953	-0.630903	0.849923
C144	C	0.328380	-0.297569	1.183256
C145	C	-0.338268	-0.964253	0.591821
C146	C	-0.004934	-0.630920	0.925154
C147	C	0.328399	-0.297586	1.258487
C148	C	-0.338338	-0.140739	0.340072
C149	C	-0.005004	0.192595	0.673405
C150	C	0.328329	0.525928	1.006738
C151	C	-0.338332	-0.215971	0.340067
C152	C	-0.004999	0.117363	0.673400
C153	C	0.328334	0.450696	1.006733
C154	C	-0.338324	-0.964198	0.164192
C155	C	-0.004991	-0.630864	0.497525
C156	C	0.328342	-0.297531	0.830859
C157	C	-0.338145	-0.964320	0.088953
C158	C	-0.004812	-0.630987	0.422286
C159	C	0.328521	-0.297653	0.755620
C160	C	-0.293347	-1.009415	0.625339
C161	C	0.039987	-0.676082	0.958672
C162	C	0.373320	-0.342749	1.292005
C163	C	-0.293326	-1.009423	0.696026
C164	C	0.040007	-0.676090	1.029360
C165	C	0.373340	-0.342756	1.362693
C166	C	-0.338231	-0.964271	0.733195
C167	C	-0.004898	-0.630938	1.066528
C168	C	0.328436	-0.297605	1.399861
C169	C	-0.383154	-0.919104	0.699672
C170	C	-0.049821	-0.585771	1.033005
C171	C	0.283512	-0.252437	1.366338
C172	C	-0.383170	-0.919093	0.628985
C173	C	-0.049837	-0.585760	0.962319
C174	C	0.283496	-0.252427	1.295652
C175	C	-0.383089	-0.919145	0.984742
C176	C	-0.049755	-0.585812	1.318076
C177	C	0.283578	-0.252478	1.651409
C178	C	-0.383070	-0.919160	1.055434
C179	C	-0.049737	-0.585827	1.388767
C180	C	0.283596	-0.252494	1.722101
C181	C	-0.293245	-1.009475	1.051784
C182	C	0.040089	-0.676141	1.385117
C183	C	0.373422	-0.342808	1.718450
C184	C	-0.293261	-1.009464	0.981097
C185	C	0.040072	-0.676131	1.314430
C186	C	0.373406	-0.342797	1.647764
C187	C	-0.338181	-0.964295	0.947580
C188	C	-0.004848	-0.630961	1.280913
C189	C	0.328486	-0.297628	1.614247
C190	C	-0.338202	-0.964286	0.870933
C191	C	-0.004868	-0.630953	1.204266
C192	C	0.328465	-0.297619	1.537599
C193	C	-0.338215	-0.964283	0.809841
C194	C	-0.004881	-0.630949	1.143175
C195	C	0.328452	-0.297616	1.476508
H196	H	-0.256950	-0.354194	0.415389
H197	H	0.076384	-0.020861	0.748723
H198	H	0.409717	0.312472	1.082056
Cl199	Cl	-0.439588	-0.717942	0.246298
Cl200	Cl	-0.106254	-0.384609	0.579631
Cl201	Cl	0.227079	-0.051275	0.912965
Cl202	Cl	-0.809276	-1.040450	0.263977
Cl203	Cl	-0.475943	-0.707117	0.597310
Cl204	Cl	-0.142610	-0.373783	0.930644
Cl205	Cl	-0.439643	-0.862313	0.586848
Cl206	Cl	-0.106310	-0.528980	0.920181
Cl207	Cl	0.227024	-0.195647	1.253515
Cl208	Cl	-0.236895	-1.066184	0.578620
Cl209	Cl	0.096438	-0.732851	0.911953
Cl210	Cl	0.429772	-0.399518	1.245286
H211	H	-0.419728	-0.219116	0.264740
H212	H	-0.086395	0.114217	0.598073
H213	H	0.246938	0.447550	0.931406
H214	H	-0.256666	-1.046251	1.079081
H215	H	0.076667	-0.712918	1.412415
H216	H	0.410001	-0.379585	1.745748
H217	H	-0.605680	-1.031731	0.272550
H218	H	-0.272347	-0.698398	0.605884
H219	H	0.060987	-0.365065	0.939217
Cl220	Cl	-0.237073	-0.211142	0.433784
Cl221	Cl	0.096260	0.122191	0.767117
Cl222	Cl	0.429593	0.455525	1.100451
Cl223	Cl	-0.589465	-0.856060	0.447963
Cl224	Cl	-0.256131	-0.522726	0.781296
Cl225	Cl	0.077202	-0.189393	1.114629
H226	H	-0.419639	-0.882389	1.085695
H227	H	-0.086305	-0.549056	1.419028
H228	H	0.247028	-0.215723	1.752361
H229	H	-0.256944	-0.581721	0.415361
H230	H	0.076390	-0.248388	0.748694
H231	H	0.409723	0.084946	1.082028
Cl232	Cl	-0.237072	-0.726451	0.433739
Cl233	Cl	0.096261	-0.393117	0.767072
Cl234	Cl	0.429594	-0.059784	1.100405
H235	H	-0.419724	-0.347362	0.264732
H236	H	-0.086391	-0.014029	0.598065
H237	H	0.246942	0.319305	0.931398
Cl238	Cl	-0.439560	-0.862361	0.942616
Cl239	Cl	-0.106227	-0.529027	1.275949
Cl240	Cl	0.227106	-0.195694	1.609283
Cl241	Cl	-0.439604	-0.862339	0.746398
Cl242	Cl	-0.106271	-0.529006	1.079731
Cl243	Cl	0.227063	-0.195672	1.413064
H244	H	-0.850433	-0.907911	0.396323
H245	H	-0.517100	-0.574578	0.729656
H246	H	-0.183767	-0.241244	1.062989
H247	H	-0.738745	-1.026309	0.278046
H248	H	-0.405412	-0.692975	0.611379
H249	H	-0.072079	-0.359642	0.944713
H250	H	-0.256749	-1.046200	0.723314
H251	H	0.076585	-0.712867	1.056647
H252	H	0.409918	-0.379534	1.389980
H253	H	-1.070272	-0.896783	0.407571
H254	H	-0.736939	-0.563450	0.740904
H255	H	-0.403605	-0.230117	1.074237
Cl256	Cl	-0.236809	-1.066230	0.934375
Cl257	Cl	0.096524	-0.732897	1.267708
Cl258	Cl	0.429858	-0.399564	1.601042
H259	H	-0.419727	-0.574886	0.264702
H260	H	-0.086393	-0.241552	0.598036
H261	H	0.246940	0.091781	0.931369
H262	H	-0.738783	-0.869155	0.434968
H263	H	-0.405450	-0.535822	0.768301
H264	H	-0.072117	-0.202488	1.101634
H265	H	-0.937168	-1.059359	0.245149
H266	H	-0.603835	-0.726026	0.578482
H267	H	-0.270501	-0.392692	0.911815
Cl268	Cl	-1.086483	-1.072455	0.232156
Cl269	Cl	-0.753150	-0.739122	0.565489
Cl270	Cl	-0.419816	-0.405789	0.898822
Cl271	Cl	-0.920967	-0.883685	0.420560
Cl272	Cl	-0.587634	-0.550352	0.753894
Cl273	Cl	-0.254301	-0.217019	1.087227
