data_functionalizedCrystal
_audit_creation_method	'MofGen! by Chris Wilmer'
_symmetry_space_group_name_H-M	'P1'
_symmetry_Int_Tables_number	1
_symmetry_cell_setting	triclinic
loop_
_symmetry_equiv_pos_as_xyz
  x,y,z
_cell_length_a	10.868271
_cell_length_b	11.792241
_cell_length_c	11.792241
_cell_angle_alpha	84.193416
_cell_angle_beta	89.994263
_cell_angle_gamma	90.004182
loop_
_atom_site_label
_atom_site_type_symbol
_atom_site_fract_x
_atom_site_fract_y
_atom_site_fract_z
O1	O	0.102185	-1.506902	-0.155570
O2	O	0.602185	-1.006902	0.344430
O3	O	0.102218	-1.176561	-0.171603
O4	O	0.602218	-0.676561	0.328397
O5	O	0.102192	-1.349748	0.001584
O6	O	0.602192	-0.849748	0.501584
O7	O	0.102211	-1.333715	-0.328757
O8	O	0.602211	-0.833715	0.171243
O9	O	-0.102453	-1.349746	0.001594
O10	O	0.397547	-0.849746	0.501594
O11	O	-0.102427	-1.176559	-0.171593
O12	O	0.397573	-0.676559	0.328407
O13	O	-0.102460	-1.506900	-0.155560
O14	O	0.397540	-1.006900	0.344440
Zn15	Zn	-0.134935	-1.341729	-0.163575
Zn16	Zn	0.365065	-0.841729	0.336425
Zn17	Zn	0.134693	-1.341732	-0.163588
Zn18	Zn	0.634693	-0.841732	0.336412
O19	O	-0.102434	-1.333713	-0.328747
O20	O	0.397566	-0.833713	0.171253
C21	C	-0.000101	-1.134269	-0.170591
C22	C	0.499899	-0.634269	0.329409
C23	C	-0.000088	-1.008255	-0.167576
C24	C	0.499912	-0.508255	0.332424
N25	N	-0.318949	-1.341736	-0.163566
N26	N	0.181051	-0.841736	0.336434
N27	N	0.318707	-1.341735	-0.163588
N28	N	0.818707	-0.841735	0.336412
C29	C	-0.000121	-0.777543	-0.162034
C30	C	0.499879	-0.277543	0.337966
C31	C	-0.000103	-0.905928	-0.165113
C32	C	0.499897	-0.405928	0.334887
C33	C	0.569713	-1.341731	-0.163581
C34	C	1.069713	-0.841731	0.336419
C35	C	0.430036	-1.341730	-0.163589
C36	C	0.930036	-0.841730	0.336411
C37	C	-0.000130	-1.348740	0.043880
C38	C	0.499870	-0.848740	0.543880
C39	C	-0.000129	-1.345726	0.169894
C40	C	0.499871	-0.845726	0.669894
C41	C	-0.000136	-0.549192	-0.156572
C42	C	0.499864	-0.049192	0.343428
C43	C	-0.000131	-0.675206	-0.159587
C44	C	0.499869	-0.175206	0.340413
C45	C	-0.000109	-1.334721	-0.371043
C46	C	0.499891	-0.834721	0.128957
C47	C	-0.000103	-1.337736	-0.497057
C48	C	0.499897	-0.837736	0.002943
C49	C	-0.000107	-1.340183	0.400606
C50	C	0.499893	-0.840183	0.900606
C51	C	-0.000119	-1.343262	0.272221
C52	C	0.499881	-0.843262	0.772221
