data_functionalizedCrystal
_audit_creation_method	'MofGen! by Chris Wilmer'
_symmetry_space_group_name_H-M	'P1'
_symmetry_Int_Tables_number	1
_symmetry_cell_setting	triclinic
loop_
_symmetry_equiv_pos_as_xyz
  x,y,z
_cell_length_a	19.188930
_cell_length_b	19.188925
_cell_length_c	17.666332
_cell_angle_alpha	89.993867
_cell_angle_beta	89.976766
_cell_angle_gamma	83.143665
loop_
_atom_site_label
_atom_site_type_symbol
_atom_site_fract_x
_atom_site_fract_y
_atom_site_fract_z
O1	O	0.926148	0.087169	-0.063191
O2	O	1.259481	0.420502	0.270142
O3	O	1.592815	0.753836	0.603476
O4	O	0.722836	0.098903	-0.063139
O5	O	1.056170	0.432237	0.270194
O6	O	1.389503	0.765570	0.603528
O7	O	0.830361	-0.008620	-0.063162
O8	O	1.163695	0.324714	0.270171
O9	O	1.497028	0.658047	0.603504
O10	O	0.818623	0.194692	-0.063168
O11	O	1.151956	0.528025	0.270165
O12	O	1.485290	0.861359	0.603499
O13	O	0.830342	-0.008625	0.062734
O14	O	1.163676	0.324708	0.396068
O15	O	1.497009	0.658041	0.729401
O16	O	0.722818	0.098898	0.062758
O17	O	1.056151	0.432231	0.396091
O18	O	1.389484	0.765564	0.729424
O19	O	0.926129	0.087163	0.062706
O20	O	1.259462	0.420497	0.396039
O21	O	1.592796	0.753830	0.729372
Cu22	Cu	0.824472	0.093030	0.074227
Cu23	Cu	1.157805	0.426363	0.407560
Cu24	Cu	1.491138	0.759697	0.740894
Cu25	Cu	0.824494	0.093037	-0.074660
Cu26	Cu	1.157827	0.426370	0.258673
Cu27	Cu	1.491161	0.759703	0.592006
O28	O	0.818604	0.194686	0.062729
O29	O	1.151938	0.528020	0.396062
O30	O	1.485271	0.861353	0.729396
C31	C	0.696816	0.098520	-0.000184
C32	C	1.030149	0.431854	0.333149
C33	C	1.363483	0.765187	0.666483
C34	C	0.619311	0.097380	-0.000164
C35	C	0.952645	0.430713	0.333169
C36	C	1.285978	0.764046	0.666503
C37	C	0.829972	-0.034634	-0.000214
C38	C	1.163306	0.298700	0.333119
C39	C	1.496639	0.632033	0.666452
C40	C	0.828833	-0.112138	-0.000216
C41	C	1.162167	0.221195	0.333118
C42	C	1.495500	0.554528	0.666451
C43	C	0.884297	-0.673909	-0.000249
C44	C	1.217631	-0.340575	0.333084
C45	C	1.550964	-0.007242	0.666418
C46	C	0.885374	-0.601085	-0.000242
C47	C	1.218707	-0.267752	0.333091
C48	C	1.552040	0.065581	0.666424
C49	C	0.822282	-0.556151	-0.000226
C50	C	1.155615	-0.222818	0.333107
C51	C	1.488948	0.110516	0.666440
C52	C	0.758108	-0.584045	-0.000198
C53	C	1.091441	-0.250712	0.333136
C54	C	1.424775	0.082622	0.666469
C55	C	0.757033	-0.656867	-0.000197
C56	C	1.090367	-0.323534	0.333137
C57	C	1.423700	0.009800	0.666470
N58	N	0.776612	-0.435468	-0.043067
N59	N	1.109945	-0.102135	0.290267
N60	N	1.443279	0.231198	0.623600
N61	N	0.777637	-0.366291	-0.043069
N62	N	1.110970	-0.032958	0.290264
N63	N	1.444304	0.300376	0.623597
C64	C	0.825516	-0.336742	-0.000228
C65	C	1.158849	-0.003408	0.333106
C66	C	1.492182	0.329925	0.666439
N67	N	0.872341	-0.378984	0.042607
N68	N	1.205674	-0.045651	0.375940
N69	N	1.539008	0.287682	0.709274
N70	N	0.871318	-0.448168	0.042606
N71	N	1.204651	-0.114835	0.375939
N72	N	1.537984	0.218498	0.709273
C73	C	0.823440	-0.477187	-0.000227
C74	C	1.156773	-0.143853	0.333106
C75	C	1.490106	0.189480	0.666440
C76	C	0.890852	-0.229893	-0.000244
C77	C	1.224185	0.103441	0.333089
C78	C	1.557519	0.436774	0.666423
C79	C	0.891926	-0.157068	-0.000233
C80	C	1.225259	0.176265	0.333101
C81	C	1.558593	0.509599	0.666434
C82	C	0.764659	-0.140029	-0.000196
C83	C	1.097992	0.193305	0.333138
C84	C	1.431325	0.526638	0.666471
C85	C	0.763587	-0.212852	-0.000199
C86	C	1.096920	0.120481	0.333134
C87	C	1.430253	0.453814	0.666467
C88	C	0.826685	-0.257780	-0.000227
C89	C	1.160019	0.075553	0.333106
C90	C	1.493352	0.408886	0.666440
C91	C	0.574386	0.160471	-0.000178
C92	C	0.907720	0.493804	0.333156
C93	C	1.241053	0.827137	0.666489
C94	C	0.501563	0.159399	-0.000186
C95	C	0.834896	0.492732	0.333147
C96	C	1.168229	0.826066	0.666481
C97	C	0.473667	0.095233	-0.000196
C98	C	0.807001	0.428566	0.333137
C99	C	1.140334	0.761900	0.666471
C100	C	0.518602	0.032134	-0.000178
C101	C	0.851936	0.365467	0.333155
C102	C	1.185269	0.698800	0.666489
C103	C	0.591424	0.033207	-0.000162
C104	C	0.924758	0.366540	0.333171
C105	C	1.258091	0.699874	0.666504
N106	N	0.365694	0.046188	-0.043073
N107	N	0.699028	0.379521	0.290260
N108	N	1.032361	0.712854	0.623593
N109	N	0.296516	0.045172	-0.043090
N110	N	0.629849	0.378506	0.290243
N111	N	0.963182	0.711839	0.623577
C112	C	0.254259	0.091995	-0.000242
C113	C	0.587592	0.425328	0.333091
C114	C	0.920925	0.758661	0.666425
N115	N	0.283792	0.139882	0.042613
N116	N	0.617125	0.473215	0.375947
N117	N	0.950459	0.806548	0.709280
N118	N	0.352977	0.140899	0.042627
N119	N	0.686310	0.474233	0.375960
N120	N	1.019643	0.807566	0.709293
C121	C	0.394705	0.094062	-0.000213
C122	C	0.728038	0.427395	0.333121
C123	C	1.061371	0.760728	0.666454
C124	C	0.130369	0.153928	-0.000264
C125	C	0.463702	0.487261	0.333070
C126	C	0.797036	0.820595	0.666403
C127	C	0.057544	0.152854	-0.000267
C128	C	0.390878	0.486187	0.333066
C129	C	0.724211	0.819520	0.666399
C130	C	0.074586	0.025586	-0.000267
C131	C	0.407919	0.358920	0.333066
C132	C	0.741252	0.692253	0.666400
C133	C	0.147409	0.026663	-0.000256
C134	C	0.480742	0.359996	0.333078
C135	C	0.814075	0.693329	0.666411
C136	C	0.175296	0.090835	-0.000258
C137	C	0.508629	0.424169	0.333076
C138	C	0.841962	0.757502	0.666409
C139	C	0.952150	0.087546	-0.000251
C140	C	1.285483	0.420880	0.333082
C141	C	1.618816	0.754213	0.666416
C142	C	1.029654	0.088687	-0.000276
C143	C	1.362987	0.422020	0.333057
C144	C	1.696321	0.755354	0.666391
C145	C	0.818993	0.220700	-0.000221
C146	C	1.152326	0.554034	0.333113
C147	C	1.485660	0.887367	0.666446
C148	C	0.820132	0.298205	-0.000224
C149	C	1.153466	0.631538	0.333109
C150	C	1.486799	0.964872	0.666442
N151	N	0.824461	0.093025	0.178946
N152	N	1.157794	0.426358	0.512280
N153	N	1.491128	0.759692	0.845613
N154	N	0.824510	0.093036	-0.179380
N155	N	1.157843	0.426370	0.153953
N156	N	1.491177	0.759703	0.487287
C157	C	0.872088	0.045437	0.218546
C158	C	1.205422	0.378770	0.551879
C159	C	1.538755	0.712104	0.885213
C160	C	0.872093	0.045433	0.297794
C161	C	1.205426	0.378767	0.631127
C162	C	1.538759	0.712100	0.964460
C163	C	0.824476	0.093030	0.337439
C164	C	1.157809	0.426363	0.670772
C165	C	1.491143	0.759697	1.004105
C166	C	0.776840	0.140622	0.297830
C167	C	1.110173	0.473955	0.631163
C168	C	1.443506	0.807288	0.964496
C169	C	0.776832	0.140619	0.218584
C170	C	1.110166	0.473952	0.551917
C171	C	1.443499	0.807286	0.885250
N172	N	0.815398	0.154838	0.461857
N173	N	1.148732	0.488171	0.795190
N174	N	1.482065	0.821504	1.128524
N175	N	0.815410	0.154838	0.537137
N176	N	1.148743	0.488171	0.870471
N177	N	1.482076	0.821505	1.203804
C178	C	0.824494	0.093040	0.576203
C179	C	1.157828	0.426373	0.909536
C180	C	1.491161	0.759707	1.242869
N181	N	0.833581	0.031239	0.537143
N182	N	1.166914	0.364573	0.870477
N183	N	1.500248	0.697906	1.203810
N184	N	0.833573	0.031240	0.461856
N185	N	1.166907	0.364573	0.795189
N186	N	1.500240	0.697906	1.128523
C187	C	0.824478	0.093038	0.423368
C188	C	1.157812	0.426371	0.756701
C189	C	1.491145	0.759705	1.090034
C190	C	0.872129	0.045444	0.701731
C191	C	1.205462	0.378778	1.035065
C192	C	1.538795	0.712111	1.368398
C193	C	0.872128	0.045440	0.780980
C194	C	1.205461	0.378773	1.114314
C195	C	1.538795	0.712107	1.447647
C196	C	0.776878	0.140634	0.781015
C197	C	1.110212	0.473968	1.114348
C198	C	1.443545	0.807301	1.447682
C199	C	0.776876	0.140633	0.701767
C200	C	1.110209	0.473966	1.035101
C201	C	1.443542	0.807299	1.368434
C202	C	0.824505	0.093038	0.662130
C203	C	1.157838	0.426372	0.995464
C204	C	1.491171	0.759705	1.328797
H205	H	0.935677	-0.710485	-0.000267
H206	H	1.269011	-0.377152	0.333066
H207	H	1.602344	-0.043818	0.666399
H208	H	0.464977	0.210777	-0.000195
H209	H	0.798311	0.544110	0.333138
H210	H	1.131644	0.877444	0.666472
C211	C	0.924514	-0.006916	0.658128
C212	C	1.257848	0.326417	0.991461
C213	C	1.591181	0.659750	1.324795
N214	N	0.963971	-0.046356	0.625288
N215	N	1.297304	0.286977	0.958621
N216	N	1.630637	0.620311	1.291955
H217	H	0.713288	-0.103444	-0.000176
H218	H	1.046621	0.229890	0.333157
H219	H	1.379954	0.563223	0.666490
H220	H	0.738047	0.179372	0.186341
H221	H	1.071381	0.512705	0.519674
H222	H	1.404714	0.846038	0.853008
C223	C	0.924475	-0.006925	0.174950
C224	C	1.257808	0.326408	0.508283
C225	C	1.591142	0.659741	0.841616
N226	N	0.963931	-0.046367	0.142112
N227	N	1.297264	0.286966	0.475445
N228	N	1.630598	0.620300	0.808779
H229	H	0.910910	0.006684	0.813223
H230	H	1.244243	0.340018	1.146556
H231	H	1.577576	0.673351	1.479890
H232	H	0.910878	0.006680	0.330041
H233	H	1.244211	0.340013	0.663375
H234	H	1.577544	0.673347	0.996708
H235	H	0.738068	0.179375	0.330113
H236	H	1.071402	0.512708	0.663446
H237	H	1.404735	0.846041	0.996779
H238	H	0.738105	0.179386	0.813293
H239	H	1.071439	0.512719	1.146627
H240	H	1.404772	0.846052	1.479960
H241	H	0.597087	0.212725	-0.000181
H242	H	0.930420	0.546059	0.333153
H243	H	1.263754	0.879392	0.666486
C244	C	0.487916	-0.038450	-0.000190
C245	C	0.821249	0.294884	0.333144
C246	C	1.154583	0.628217	0.666477
N247	N	0.464803	-0.091615	-0.000196
N248	N	0.798137	0.241718	0.333137
N249	N	1.131470	0.575052	0.666470
C250	C	0.692999	-0.243528	-0.000182
C251	C	1.026332	0.089805	0.333151
C252	C	1.359666	0.423138	0.666485
N253	N	0.639829	-0.266632	-0.000168
N254	N	0.973163	0.066701	0.333166
N255	N	1.306496	0.400034	0.666499
H256	H	0.738096	0.179386	0.669523
H257	H	1.071429	0.512719	1.002857
H258	H	1.404762	0.846053	1.336190
C259	C	0.686444	-0.687542	-0.000175
C260	C	1.019777	-0.354209	0.333158
C261	C	1.353111	-0.020876	0.666491
N262	N	0.633275	-0.710648	-0.000162
N263	N	0.966608	-0.377314	0.333172
N264	N	1.299941	-0.043981	0.666505
C265	C	0.962516	-0.126394	-0.000256
C266	C	1.295850	0.206939	0.333077
C267	C	1.629183	0.540273	0.666410
N268	N	1.015686	-0.103290	-0.000275
N269	N	1.349020	0.230043	0.333058
N270	N	1.682353	0.563376	0.666392
C271	C	0.161047	0.224519	-0.000256
C272	C	0.494381	0.557852	0.333077
C273	C	0.827714	0.891185	0.666410
N274	N	0.184152	0.277688	-0.000249
N275	N	0.517485	0.611022	0.333084
N276	N	0.850819	0.944355	0.666417
H277	H	0.937626	-0.578376	-0.000262
H278	H	1.270959	-0.245042	0.333071
H279	H	1.604293	0.088291	0.666405
H280	H	0.628003	-0.018171	-0.000152
H281	H	0.961337	0.315162	0.333182
H282	H	1.294670	0.648496	0.666515
C283	C	0.688707	-0.534616	-0.000183
C284	C	1.022040	-0.201282	0.333150
C285	C	1.355373	0.132051	0.666484
N286	N	0.636431	-0.497385	-0.000171
N287	N	0.969765	-0.164052	0.333163
N288	N	1.303098	0.169281	0.666496
H289	H	0.942231	-0.266475	-0.000266
H290	H	1.275564	0.066858	0.333067
H291	H	1.608898	0.400192	0.666401
H292	H	0.051874	-0.026659	-0.000322
H293	H	0.385207	0.306674	0.333011
H294	H	0.718541	0.640008	0.666345
C295	C	0.196829	-0.042744	-0.000250
C296	C	0.530162	0.290590	0.333084
C297	C	0.863495	0.623923	0.666417
N298	N	0.234052	-0.095024	-0.000244
N299	N	0.567385	0.238310	0.333090
N300	N	0.900719	0.571643	0.666423
H301	H	0.020966	0.204232	-0.000274
H302	H	0.354299	0.537566	0.333059
H303	H	0.687633	0.870899	0.666393
