data_functionalizedCrystal
_audit_creation_method	'MofGen! by Chris Wilmer'
_symmetry_space_group_name_H-M	'P1'
_symmetry_Int_Tables_number	1
_symmetry_cell_setting	triclinic
loop_
_symmetry_equiv_pos_as_xyz
  x,y,z
_cell_length_a	14.908979
_cell_length_b	14.908178
_cell_length_c	14.908308
_cell_angle_alpha	90.221621
_cell_angle_beta	83.628929
_cell_angle_gamma	96.795332
loop_
_atom_site_label
_atom_site_type_symbol
_atom_site_fract_x
_atom_site_fract_y
_atom_site_fract_z
Zn1	Zn	1.337569	-0.305881	0.415333
Zn2	Zn	1.837569	0.194119	0.915333
Zn3	Zn	1.338485	-0.447535	0.256244
Zn4	Zn	1.838485	0.052465	0.756244
Zn5	Zn	1.194939	-0.305925	0.272710
Zn6	Zn	1.694939	0.194075	0.772710
Zn7	Zn	1.177452	-0.465956	0.415270
Zn8	Zn	1.677452	0.034044	0.915270
O9	O	1.262111	-0.381324	0.339889
O10	O	1.762111	0.118676	0.839889
O11	O	1.464774	-0.316945	0.387365
O12	O	1.964774	0.183055	0.887365
O13	O	1.327146	-0.421059	0.132187
O14	O	1.827146	0.078941	0.632187
O15	O	1.220795	-0.179663	0.298546
O16	O	1.720795	0.320337	0.798546
O17	O	1.465447	-0.421018	0.270483
O18	O	1.965447	0.078982	0.770483
O19	O	1.325584	-0.179631	0.403331
O20	O	1.825584	0.320369	0.903331
O21	O	1.221683	-0.317019	0.144285
O22	O	1.721683	0.182981	0.644285
O23	O	1.065536	-0.334880	0.298485
O24	O	1.565536	0.165120	0.798485
O25	O	1.190989	-0.452412	0.541519
O26	O	1.690989	0.047588	1.041519
O27	O	1.052688	-0.452454	0.403224
O28	O	1.552688	0.047546	0.903224
O29	O	1.308627	-0.334806	0.541566
O30	O	1.808627	0.165194	1.041566
O31	O	1.310189	-0.576235	0.270422
O32	O	1.810189	-0.076235	0.770422
O33	O	1.191878	-0.589768	0.387258
O34	O	1.691878	-0.089768	0.887258
C35	C	1.026160	-0.395671	0.352635
C36	C	1.526160	0.104329	0.852635
C37	C	0.925217	-0.401832	0.358108
C38	C	1.425217	0.098168	0.858108
C39	C	0.776278	-0.471811	0.420244
C40	C	1.276278	0.028189	0.920244
C41	C	0.871123	-0.466024	0.415110
C42	C	1.371123	0.033976	0.915110
C43	C	0.884460	-0.343426	0.306234
C44	C	1.384460	0.156574	0.806234
C45	C	0.789616	-0.349214	0.311369
C46	C	1.289616	0.150786	0.811369
C47	C	0.735527	-0.413408	0.368377
C48	C	1.235527	0.086592	0.868377
C49	C	0.640681	-0.419191	0.373515
C50	C	1.140681	0.080809	0.873515
C51	C	0.654020	-0.296598	0.264635
C52	C	1.154020	0.203402	0.764635
C53	C	0.748865	-0.290810	0.259501
C54	C	1.248865	0.209190	0.759501
C55	C	1.249259	-0.615738	0.327064
C56	C	1.749259	-0.115738	0.827064
C57	C	1.243842	-0.716018	0.321604
C58	C	1.743842	-0.216018	0.821604
C59	C	1.342683	-0.904285	0.420583
C60	C	1.842683	-0.404285	0.920583
C61	C	1.337596	-0.998507	0.415455
C62	C	1.837596	-0.498507	0.915455
C63	C	1.228576	-0.998687	0.306225
C64	C	1.728576	-0.498687	0.806225
C65	C	1.233663	-0.904465	0.311353
C66	C	1.733663	-0.404465	0.811353
C67	C	1.290720	-0.857267	0.368533
C68	C	1.790720	-0.357267	0.868533
C69	C	1.295811	-0.763043	0.373656
C70	C	1.795811	-0.263043	0.873656
C71	C	1.186787	-0.763225	0.264431
C72	C	1.686787	-0.263225	0.764431
C73	C	1.181700	-0.857447	0.259303
C74	C	1.681700	-0.357447	0.759303
C75	C	1.498983	-0.366922	0.327094
C76	C	1.998983	0.133078	0.827094
C77	C	1.599924	-0.360784	0.321642
C78	C	2.099924	0.139216	0.821642
C79	C	1.247755	-0.395659	0.575191
C80	C	1.747755	0.104341	1.075191
C81	C	1.241637	-0.401768	0.675462
C82	C	1.741637	0.098232	1.175462
C83	C	1.275038	-0.145995	0.352782
C84	C	1.775038	0.354005	0.852782
C85	C	1.280546	-0.045711	0.358277
C86	C	1.780546	0.454289	0.858277
C87	C	1.276467	-0.366977	0.105504
C88	C	1.776467	0.133023	0.605504
C89	C	1.282775	-0.360603	0.005237
C90	C	1.782775	0.139397	0.505237
C91	C	1.352636	-0.290763	0.863934
C92	C	1.852636	0.209237	1.363934
C93	C	1.346890	-0.296500	0.958148
C94	C	1.846890	0.203500	1.458148
C95	C	1.224398	-0.418972	0.958106
C96	C	1.724398	0.081028	1.458106
C97	C	1.230143	-0.413236	0.863892
C98	C	1.730143	0.086764	1.363892
C99	C	1.294265	-0.349130	0.816809
C100	C	1.794265	0.150870	1.316809
C101	C	1.300014	-0.343399	0.722593
C102	C	1.800014	0.156601	1.222593
C103	C	1.177518	-0.465867	0.722554
C104	C	1.677518	0.034133	1.222554
C105	C	1.171773	-0.471603	0.816768
C106	C	1.671773	0.028397	1.316768
H107	H	0.904298	-0.513583	0.457346
H108	H	1.404298	-0.013583	0.957346
O109	O	1.114522	-0.528788	0.671726
O110	O	1.614522	-0.028788	1.171726
H111	H	1.068964	-0.574317	0.720298
H112	H	1.568964	-0.074317	1.220298
H113	H	0.732239	-0.524073	0.466671
H114	H	1.232239	-0.024073	0.966671
O115	O	1.421802	-0.221633	0.813148
O116	O	1.921802	0.278367	1.313148
H117	H	1.415996	-0.227456	0.739718
H118	H	1.915996	0.272544	1.239718
H119	H	1.394420	-0.248969	0.996514
H120	H	1.894420	0.251031	1.496514
O121	O	1.120173	-0.908365	0.197630
O122	O	1.620173	-0.408365	0.697630
H123	H	1.048913	-0.895627	0.217869
H124	H	1.548913	-0.395627	0.717869
H125	H	0.792916	-0.238547	0.213084
H126	H	1.292916	0.261453	0.713084
H127	H	1.172193	-0.471164	0.996458
H128	H	1.672193	0.028836	1.496458
H129	H	0.928515	-0.291169	0.259814
H130	H	1.428515	0.208831	0.759814
O131	O	1.357353	-0.712129	0.435318
O132	O	1.857353	-0.212129	0.935318
H133	H	1.392627	-0.760658	0.470654
H134	H	1.892627	-0.260658	0.970654
O135	O	0.610070	-0.233596	0.208689
O136	O	1.110070	0.266404	0.708689
H137	H	0.631750	-0.243528	0.136036
H138	H	1.131750	0.256472	0.636036
O139	O	1.404226	-0.853368	0.482242
O140	O	1.904226	-0.353368	0.982242
H141	H	1.439507	-0.901893	0.517575
H142	H	1.939507	-0.401893	1.017575
O143	O	1.369171	-0.274262	0.671803
O144	O	1.869171	0.225738	1.171803
H145	H	1.356372	-0.205500	0.694598
H146	H	1.856372	0.294500	1.194598
O147	O	0.582373	-0.488486	0.434957
O148	O	1.082373	0.011514	0.934957
H149	H	0.597102	-0.476380	0.505648
H150	H	1.097102	0.023620	1.005648
H151	H	1.379906	-1.036786	0.457844
H152	H	1.879906	-0.536786	0.957844
H153	H	1.182120	-1.037132	0.259676
H154	H	1.682120	-0.537132	0.759676
H155	H	1.119565	-0.523794	0.855116
H156	H	1.619565	-0.023794	1.355116
O157	O	1.130731	-0.712515	0.208287
O158	O	1.630731	-0.212515	0.708287
H159	H	1.143848	-0.639067	0.221461
H160	H	1.643848	-0.139067	0.721461
