data_functionalizedCrystal
_audit_creation_method	'MofGen! by Chris Wilmer'
_symmetry_space_group_name_H-M	'P1'
_symmetry_Int_Tables_number	1
_symmetry_cell_setting	triclinic
loop_
_symmetry_equiv_pos_as_xyz
  x,y,z
_cell_length_a	12.759395
_cell_length_b	16.625545
_cell_length_c	12.759387
_cell_angle_alpha	90.033270
_cell_angle_beta	90.020509
_cell_angle_gamma	90.027095
loop_
_atom_site_label
_atom_site_type_symbol
_atom_site_fract_x
_atom_site_fract_y
_atom_site_fract_z
Zn1	Zn	1.606189	-0.320926	0.593987
Zn2	Zn	1.606047	-0.455781	0.418300
Zn3	Zn	1.430488	-0.320970	0.418324
Zn4	Zn	1.430447	-0.455724	0.593939
O5	O	1.518293	-0.388350	0.506137
O6	O	1.753192	-0.338821	0.570692
O7	O	1.582716	-0.437941	0.271282
O8	O	1.453872	-0.208132	0.441656
O9	O	1.753087	-0.437898	0.441615
O10	O	1.582959	-0.208099	0.570715
O11	O	1.453733	-0.338895	0.271300
O12	O	1.283461	-0.338840	0.441610
O13	O	1.453802	-0.437800	0.740967
O14	O	1.283431	-0.437843	0.570633
O15	O	1.582919	-0.338765	0.741002
O16	O	1.582676	-0.568606	0.441569
O17	O	1.453664	-0.568564	0.570610
C18	C	1.245325	-0.388341	0.506119
C19	C	1.128548	-0.388356	0.506137
C20	C	1.128556	-0.491615	0.640272
C21	C	1.073698	-0.543250	0.707342
C22	C	0.963977	-0.543260	0.707355
C23	C	0.909110	-0.491627	0.640292
C24	C	0.963967	-0.439991	0.573222
C25	C	1.073691	-0.439989	0.573214
C26	C	0.963960	-0.336730	0.439094
C27	C	1.073681	-0.336723	0.439074
C28	C	0.909093	-0.285096	0.372031
C29	C	0.963950	-0.233463	0.304954
C30	C	1.073678	-0.233456	0.304943
C31	C	1.128539	-0.285087	0.372003
C32	C	1.518178	-0.597841	0.506104
C33	C	1.518226	-0.687462	0.506125
C34	C	1.518267	-0.760245	0.506146
C35	C	1.518328	-0.851553	0.506169
C36	C	1.518382	-0.924330	0.506183
C37	C	1.518442	-1.015644	0.506204
C38	C	1.792326	-0.388361	0.506156
C39	C	1.909103	-0.388365	0.506164
C40	C	1.518372	-0.388271	0.780171
C41	C	1.518406	-0.388238	0.896948
C42	C	1.518436	-0.178041	0.506194
C43	C	1.518497	-0.088420	0.506218
C44	C	1.518274	-0.388371	0.233170
C45	C	1.518444	-0.388177	0.116394
C46	C	1.652865	-0.285119	0.897004
C47	C	1.720109	-0.233547	0.951893
C48	C	1.720135	-0.233518	1.061615
C49	C	1.652907	-0.285064	1.116450
C50	C	1.585662	-0.336635	1.061561
C51	C	1.585646	-0.336661	0.951837
C52	C	1.451200	-0.439749	1.061505
C53	C	1.451178	-0.439784	0.951783
C54	C	1.383971	-0.491295	1.116340
C55	C	1.316731	-0.542872	1.061451
C56	C	1.316709	-0.542900	0.951722
C57	C	1.383934	-0.491355	0.896894
H58	H	1.118337	-0.191402	0.250333
N59	N	1.383887	-0.491364	0.778552
H60	H	1.331081	-0.531848	0.752097
H61	H	1.455971	-0.506170	0.752189
N62	N	1.246897	-0.491614	0.640243
H63	H	1.273331	-0.532159	0.692898
H64	H	1.273288	-0.436294	0.659654
N65	N	0.790768	-0.491638	0.640305
H66	H	0.764373	-0.436347	0.659751
H67	H	0.764431	-0.532218	0.692963
N68	N	1.132874	-0.598941	0.779668
H69	H	1.210707	-0.591106	0.769483
H70	H	1.113653	-0.656509	0.763170
H71	H	0.919269	-0.191424	0.250362
N72	N	1.652851	-0.285162	0.778663
H73	H	1.705643	-0.244686	0.752254
H74	H	1.580752	-0.270363	0.752302
H75	H	0.919312	-0.585302	0.761975
N76	N	0.790751	-0.285109	0.372033
H77	H	0.764322	-0.325658	0.424691
H78	H	0.764382	-0.299837	0.299886
H79	H	1.217880	-0.285088	0.371998
N80	N	1.792643	-0.177973	0.892752
H81	H	1.782439	-0.185823	0.814915
H82	H	1.867659	-0.190551	0.911957
N83	N	1.792650	-0.177890	1.120825
H84	H	1.835232	-0.145237	1.069443
H85	H	1.841253	-0.210704	1.166347
H86	H	1.261994	-0.584832	1.106106
N87	N	1.652904	-0.285013	1.234792
H88	H	1.705694	-0.244514	1.261243
H89	H	1.672140	-0.340343	1.261147
N90	N	1.383992	-0.491245	1.234682
H91	H	1.456055	-0.506065	1.261125
H92	H	1.331153	-0.531710	1.261015
N93	N	1.244165	-0.598512	0.892523
H94	H	1.201581	-0.631155	0.943913
H95	H	1.286879	-0.635849	0.846990
