data_functionalizedCrystal
_audit_creation_method	'MofGen! by Chris Wilmer'
_symmetry_space_group_name_H-M	'P1'
_symmetry_Int_Tables_number	1
_symmetry_cell_setting	triclinic
loop_
_symmetry_equiv_pos_as_xyz
  x,y,z
_cell_length_a	15.944551
_cell_length_b	18.266242
_cell_length_c	15.944551
_cell_angle_alpha	89.992703
_cell_angle_beta	96.501262
_cell_angle_gamma	90.004545
loop_
_atom_site_label
_atom_site_type_symbol
_atom_site_fract_x
_atom_site_fract_y
_atom_site_fract_z
O1	O	1.114530	0.060806	-0.108333
O2	O	0.869980	0.060825	-0.121690
O3	O	0.998933	0.060808	0.007263
O4	O	0.985577	0.060822	-0.237286
O5	O	0.998911	-0.060954	0.007270
O6	O	0.869958	-0.060937	-0.121683
O7	O	1.114508	-0.060956	-0.108327
Zn8	Zn	0.992229	-0.080279	-0.115004
Zn9	Zn	0.992258	0.080148	-0.115013
O10	O	0.985555	-0.060940	-0.237280
C11	C	0.838675	-0.000054	-0.121132
C12	C	0.745429	-0.000047	-0.119470
N13	N	0.992216	-0.189766	-0.114997
C14	C	0.530572	-0.000066	-0.035565
C15	C	0.469563	0.059971	-0.074531
C16	C	0.574703	-0.000056	-0.116462
C17	C	0.469564	-0.060077	-0.074543
C18	C	0.409790	-0.000068	-0.113551
C19	C	0.514922	0.060031	-0.155450
C20	C	0.514929	-0.060071	-0.155451
C21	C	0.453937	-0.000019	-0.194476
C22	C	0.669705	-0.000049	-0.118137
C23	C	0.314789	-0.000070	-0.111883
C24	C	1.049335	-0.228082	-0.057925
C25	C	1.049340	-0.304727	-0.057921
C26	C	0.992235	-0.343053	-0.115004
C27	C	0.935105	-0.304727	-0.172081
C28	C	0.935095	-0.228084	-0.172077
N29	N	0.981547	-0.463380	-0.189328
N30	N	0.981561	-0.536188	-0.189328
C31	C	0.992258	-0.573975	-0.115016
N32	N	1.002957	-0.536203	-0.040701
N33	N	1.002947	-0.463389	-0.040702
C34	C	0.992238	-0.426160	-0.115014
C35	C	1.049386	-0.695398	-0.057935
C36	C	1.049386	-0.772045	-0.057930
C37	C	0.935154	-0.772044	-0.172097
C38	C	0.935151	-0.695399	-0.172094
C39	C	0.992271	-0.657081	-0.115014
C40	C	1.145813	-0.000075	-0.108885
C41	C	1.239059	-0.000078	-0.110547
C42	C	0.998367	-0.000073	0.038561
C43	C	0.996705	-0.000073	0.131807
N44	N	0.992278	0.189635	-0.115012
C45	C	0.986120	-0.000057	-0.268577
C46	C	0.987782	-0.000052	-0.361823
C47	C	0.912801	-0.000057	0.346663
C48	C	0.951752	-0.060096	0.407684
C49	C	0.993698	-0.000067	0.302533
C50	C	0.951793	0.059952	0.407661
C51	C	0.990787	-0.000058	0.467445
C52	C	1.032672	-0.060156	0.362325
C53	C	1.032701	0.059946	0.362295
C54	C	1.071711	-0.000108	0.423298
C55	C	0.995372	-0.000073	0.207530
C56	C	0.989119	-0.000058	0.562446
H57	H	0.563905	0.000004	0.031573
N58	N	0.873482	-0.186758	-0.233638
H59	H	0.883153	-0.200087	-0.293262
H60	H	0.882171	-0.132403	-0.224905
H61	H	1.066897	0.110702	0.342162
H62	H	1.095844	-0.196886	-0.011445
N63	N	1.111010	-0.813376	0.003616
H64	H	1.147198	-0.777468	0.039766
H65	H	1.148131	-0.845157	-0.028591
N66	N	1.110955	-0.346070	0.003628
H67	H	1.078868	-0.377883	0.040841
H68	H	1.147126	-0.310122	0.039732
H69	H	0.888607	-0.335936	-0.218557
H70	H	1.138919	-0.000147	0.456457
N71	N	0.873541	-0.654074	-0.233657
H72	H	0.883215	-0.667401	-0.293280
H73	H	0.882226	-0.599718	-0.224923
H74	H	0.535051	-0.110827	-0.189636
H75	H	0.449462	0.110724	-0.040317
N76	N	0.823857	-0.000120	0.302542
H77	H	0.793400	-0.045511	0.318923
H78	H	0.825673	0.000373	0.239434
N79	N	0.873556	-0.813372	-0.233660
H80	H	0.837368	-0.777465	-0.269816
H81	H	0.836431	-0.845178	-0.201469
H82	H	0.534919	0.110843	-0.189643
N83	N	0.906469	0.127183	0.434274
H84	H	0.846452	0.127130	0.406109
H85	H	0.936488	0.172489	0.416959
H86	H	0.420779	0.000019	-0.261683
H87	H	0.449468	-0.110832	-0.040309
H88	H	1.095895	-0.664199	-0.011454
H89	H	0.917527	-0.110849	0.427795
H90	H	1.066850	-0.110970	0.342337
