data_functionalizedCrystal
_audit_creation_method	'MofGen! by Chris Wilmer'
_symmetry_space_group_name_H-M	'P1'
_symmetry_Int_Tables_number	1
_symmetry_cell_setting	triclinic
loop_
_symmetry_equiv_pos_as_xyz
  x,y,z
_cell_length_a	11.026607
_cell_length_b	9.016244
_cell_length_c	11.026607
_cell_angle_alpha	89.999400
_cell_angle_beta	108.586017
_cell_angle_gamma	90.007145
loop_
_atom_site_label
_atom_site_type_symbol
_atom_site_fract_x
_atom_site_fract_y
_atom_site_fract_z
O1	O	1.726738	0.123337	0.533620
O2	O	1.360158	0.123339	0.472856
O3	O	1.513066	0.123333	0.319948
O4	O	1.573830	0.123343	0.686528
O5	O	1.513039	-0.123348	0.319946
O6	O	1.360131	-0.123342	0.472854
O7	O	1.726710	-0.123344	0.533618
Cu8	Cu	1.543418	-0.145867	0.503236
Cu9	Cu	1.543451	0.145862	0.503238
O10	O	1.573802	-0.123338	0.686526
C11	C	1.312485	-0.000001	0.461645
C12	C	1.170471	-0.000000	0.428228
N13	N	1.543404	-0.351053	0.503236
C14	C	1.116821	0.000003	0.520498
C15	C	0.970043	0.000004	0.485962
C16	C	1.461218	-0.586082	0.584618
C17	C	1.461529	-0.414191	0.585052
C18	C	1.682716	-0.413391	0.561326
C19	C	1.682303	-0.585336	0.561938
C20	C	1.487528	-0.585600	0.363703
C21	C	1.484658	-0.413646	0.363929
C22	C	1.774384	-0.000001	0.544828
C23	C	1.916398	0.000008	0.578245
C24	C	1.501843	-0.000006	0.272287
C25	C	1.468426	-0.000000	0.130273
N26	N	1.543472	0.351048	0.503230
C27	C	1.560695	0.000001	0.076624
C28	C	1.526160	0.000007	-0.070155
C29	C	1.585026	0.000004	0.734187
C30	C	1.618443	0.000008	0.876200
H31	H	1.179555	-0.000002	0.625061
C32	C	1.384895	0.000010	-0.154886
H33	H	1.380215	0.000003	-0.242422
H34	H	1.343670	0.086029	-0.137255
H35	H	1.343657	-0.086028	-0.137266
C36	C	1.742890	-0.639498	0.700598
H37	H	1.767518	-0.556416	0.756025
H38	H	1.816079	-0.698147	0.706362
H39	H	1.682431	-0.697322	0.724962
H40	H	1.665258	-0.000009	0.139357
C41	C	1.759708	-0.000006	-0.039071
H42	H	1.764392	-0.000023	0.048466
H43	H	1.800959	0.086011	-0.056690
H44	H	1.800919	-0.086046	-0.056705
C45	C	1.001126	0.000020	0.719511
H46	H	1.088663	0.000031	0.724194
H47	H	0.983492	-0.085996	0.760750
H48	H	0.983507	0.086061	0.760734
H49	H	1.363863	0.000010	0.067540
H50	H	0.907314	0.000039	0.381393
H51	H	1.107738	0.000035	0.323666
C52	C	1.346021	-0.358611	0.305273
H53	H	1.311008	-0.396852	0.221008
H54	H	1.345250	-0.253307	0.302384
H55	H	1.296267	-0.391743	0.356238
H56	H	1.358911	-0.372047	0.546157
C57	C	1.322254	-0.642015	0.532382
H58	H	1.313151	-0.704219	0.460474
H59	H	1.265939	-0.559775	0.507397
H60	H	1.301949	-0.696595	0.597049
H61	H	1.499608	-0.629273	0.686944
C62	C	1.513869	-0.358591	0.724107
H63	H	1.535036	-0.441091	0.780551
H64	H	1.450658	-0.300117	0.743268
H65	H	1.588229	-0.300280	0.734297
H66	H	1.746586	-0.372489	0.504840
H67	H	1.746966	-0.626921	0.506551
H68	H	1.386580	-0.629048	0.315054
C69	C	1.743747	-0.355210	0.698657
H70	H	1.684546	-0.292947	0.720797
H71	H	1.818677	-0.300253	0.703592
H72	H	1.765645	-0.436550	0.756312
H73	H	1.538437	-0.370673	0.298279
H74	H	1.547172	-0.626255	0.302795
