data_functionalizedCrystal
_audit_creation_method	'MofGen! by Chris Wilmer'
_symmetry_space_group_name_H-M	'P1'
_symmetry_Int_Tables_number	1
_symmetry_cell_setting	triclinic
loop_
_symmetry_equiv_pos_as_xyz
  x,y,z
_cell_length_a	19.121321
_cell_length_b	19.120786
_cell_length_c	19.805399
_cell_angle_alpha	87.531070
_cell_angle_beta	92.422685
_cell_angle_gamma	90.133760
loop_
_atom_site_label
_atom_site_type_symbol
_atom_site_fract_x
_atom_site_fract_y
_atom_site_fract_z
Zn1	Zn	1.059816	-0.324787	-0.325736
Zn2	Zn	1.559816	0.175213	0.174264
Zn3	Zn	1.054728	-0.442030	-0.207934
Zn4	Zn	1.554728	0.057970	0.292066
Zn5	Zn	0.942584	-0.319813	-0.217591
Zn6	Zn	1.442584	0.180187	0.282409
Zn7	Zn	0.937550	-0.437001	-0.326111
Zn8	Zn	1.437550	0.062999	0.173889
O9	O	0.998669	-0.380908	-0.269343
O10	O	1.498669	0.119092	0.230657
O11	O	1.157242	-0.344526	-0.305911
O12	O	1.657242	0.155474	0.194089
O13	O	1.039830	-0.425840	-0.114498
O14	O	1.539830	0.074160	0.385502
O15	O	0.962371	-0.222363	-0.235821
O16	O	1.462371	0.277637	0.264179
O17	O	1.153505	-0.430663	-0.219363
O18	O	1.653505	0.069337	0.280637
O19	O	1.048501	-0.226018	-0.315275
O20	O	1.548501	0.273982	0.184725
O21	O	0.957438	-0.336048	-0.121593
O22	O	1.457438	0.163952	0.378407
O23	O	0.843815	-0.331173	-0.236184
O24	O	1.343815	0.168827	0.263816
O25	O	0.953791	-0.422093	-0.420778
O26	O	1.453791	0.077907	0.079222
O27	O	0.840116	-0.417270	-0.315913
O28	O	1.340116	0.082730	0.184087
O29	O	1.043619	-0.339650	-0.420502
O30	O	1.543619	0.160350	0.079498
O31	O	1.034948	-0.539472	-0.219726
O32	O	1.534948	-0.039472	0.280274
O33	O	0.948857	-0.535778	-0.306550
O34	O	1.448857	-0.035778	0.193450
C35	C	0.816529	-0.373136	-0.277138
C36	C	1.316529	0.126864	0.222862
C37	C	0.738607	-0.369829	-0.280488
C38	C	1.238607	0.130171	0.219512
C39	C	0.298000	-0.348819	-0.301732
C40	C	0.798000	0.151181	0.198268
C41	C	0.371215	-0.351940	-0.298580
C42	C	0.871215	0.148060	0.201420
C43	C	0.405870	-0.398274	-0.251876
C44	C	0.905870	0.101726	0.248124
C45	C	0.367307	-0.441495	-0.208325
C46	C	0.867307	0.058505	0.291675
C47	C	0.294093	-0.438377	-0.211481
C48	C	0.794093	0.061623	0.288519
C49	C	0.626830	-0.409931	-0.240093
C50	C	1.126830	0.090069	0.259907
C51	C	0.700049	-0.413045	-0.236939
C52	C	1.200049	0.086955	0.263061
C53	C	0.703952	-0.323491	-0.327195
C54	C	1.203952	0.176509	0.172805
C55	C	0.630737	-0.320374	-0.330344
C56	C	1.130737	0.179626	0.169656
C57	C	0.592180	-0.363597	-0.286796
C58	C	1.092180	0.136403	0.213204
C59	C	0.480708	-0.401464	-0.248651
C60	C	0.980708	0.098536	0.251349
C61	C	0.517344	-0.360410	-0.290024
C62	C	1.017344	0.139590	0.209976
C63	C	0.990823	-0.563065	-0.262145
C64	C	1.490823	-0.063065	0.237855
C65	C	0.987531	-0.640995	-0.259085
C66	C	1.487531	-0.140995	0.240915
C67	C	1.030794	-0.679448	-0.299052
C68	C	1.530794	-0.179448	0.200948
C69	C	1.027697	-0.752671	-0.296178
C70	C	1.527697	-0.252671	0.203822
C71	C	0.981341	-0.787441	-0.253334
C72	C	1.481341	-0.287441	0.246666
C73	C	0.938073	-0.748983	-0.213366
C74	C	1.438073	-0.248983	0.286634
C75	C	0.941167	-0.675761	-0.216243
C76	C	1.441167	-0.175761	0.283757
C77	C	0.969756	-1.008433	-0.242578
C78	C	1.469756	-0.508433	0.257422
C79	C	0.966667	-1.081661	-0.239702
C80	C	1.466667	-0.581661	0.260298
C81	C	1.056290	-1.085344	-0.322516
C82	C	1.556290	-0.585344	0.177484
C83	C	1.059383	-1.012120	-0.325386
C84	C	1.559383	-0.512120	0.174614
C85	C	1.016113	-0.973668	-0.285421
C86	C	1.516113	-0.473668	0.214579
C87	C	0.978176	-0.862287	-0.250394
C88	C	1.478176	-0.362287	0.249606
C89	C	1.019274	-0.898823	-0.288364
C90	C	1.519274	-0.398823	0.211636
C91	C	1.181521	-0.388710	-0.261518
C92	C	1.681521	0.111290	0.238482
C93	C	1.259442	-0.392035	-0.258184
C94	C	1.759442	0.107965	0.241816
C95	C	0.998711	-0.380865	-0.445886
C96	C	1.498711	0.119135	0.054114
C97	C	0.998728	-0.380847	-0.521118
C98	C	1.498728	0.119153	-0.021118
C99	C	1.006565	-0.198040	-0.276583
C100	C	1.506565	0.301960	0.223417
C101	C	1.009930	-0.120113	-0.279669
C102	C	1.509930	0.379887	0.220331
C103	C	1.045503	-0.337917	-0.556320
C104	C	1.545503	0.162083	-0.056320
C105	C	1.045511	-0.337897	-0.627009
C106	C	1.545511	0.162103	-0.127009
C107	C	0.998747	-0.380811	-0.662494
C108	C	1.498747	0.119189	-0.162494
C109	C	0.951967	-0.423743	-0.627287
C110	C	1.451967	0.076257	-0.127287
C111	C	0.951956	-0.423759	-0.556600
C112	C	1.451956	0.076241	-0.056600
C113	C	0.952010	-0.423680	-0.912362
C114	C	1.452010	0.076320	-0.412362
C115	C	0.952026	-0.423662	-0.983054
C116	C	1.452026	0.076338	-0.483054
C117	C	1.045564	-0.337817	-0.982770
C118	C	1.545564	0.162183	-0.482770
C119	C	1.045553	-0.337833	-0.912083
C120	C	1.545553	0.162167	-0.412083
C121	C	0.998771	-0.380762	-0.876883
C122	C	1.498771	0.119238	-0.376883
C123	C	0.998762	-0.380783	-0.800234
C124	C	1.498762	0.119217	-0.300234
C125	C	0.998759	-0.380795	-0.739141
C126	C	1.498759	0.119205	-0.239141
C127	C	0.998671	-0.380901	-0.093487
C128	C	1.498671	0.119099	0.406513
C129	C	0.998798	-0.380728	-0.018257
C130	C	1.498798	0.119272	0.481743
H131	H	0.395529	-0.479223	-0.170300
H132	H	0.895529	0.020777	0.329700
H133	H	0.262700	-0.473569	-0.176020
H134	H	0.762700	0.026431	0.323980
H135	H	0.900326	-0.777298	-0.178484
H136	H	1.400326	-0.277298	0.321516
H137	H	0.402606	-0.316751	-0.334044
H138	H	0.902606	0.183249	0.165956
O139	O	0.733747	-0.457961	-0.191500
O140	O	1.233747	0.042039	0.308500
C141	C	0.777806	-0.419788	-0.147610
C142	C	1.277806	0.080212	0.352390
H143	H	0.758117	-0.363625	-0.146649
H144	H	1.258117	0.136375	0.353351
H145	H	0.833408	-0.419762	-0.166242
H146	H	1.333408	0.080238	0.333758
C147	C	0.801601	-0.522973	-0.076978
C148	C	1.301601	-0.022973	0.423022
C149	C	0.777415	-0.453994	-0.075793
C150	C	1.277415	0.046006	0.424207
H151	H	0.801363	-0.544074	-0.032678
H152	H	1.301363	-0.044074	0.467322
H153	H	0.771920	-0.548692	-0.106548
H154	H	1.271920	-0.048692	0.393452
H155	H	0.847934	-0.522942	-0.092508
H156	H	1.347934	-0.022942	0.407492
H157	H	0.731080	-0.454027	-0.060272
H158	H	1.231080	0.045973	0.439728
H159	H	0.807088	-0.428277	-0.046219
H160	H	1.307088	0.071723	0.453781
O161	O	0.596997	-0.275462	-0.375751
O162	O	1.096997	0.224538	0.124249
C163	C	0.552964	-0.313641	-0.419658
C164	C	1.052964	0.186359	0.080342
H165	H	0.539691	-0.366270	-0.394072
H166	H	1.039691	0.133730	0.105928
H167	H	0.580875	-0.322621	-0.468278
H168	H	1.080875	0.177379	0.031722
C169	C	0.501389	-0.207482	-0.467927
C170	C	1.001389	0.292518	0.032073
C171	C	0.485083	-0.272119	-0.436500
C172	C	0.985083	0.227881	0.063500
H173	H	0.459518	-0.181869	-0.478320
H174	H	0.959518	0.318131	0.021680
H175	H	0.531057	-0.181760	-0.438349
H176	H	1.031057	0.318240	0.061651
H177	H	0.524650	-0.214975	-0.508440
H178	H	1.024650	0.285025	-0.008440
H179	H	0.461831	-0.264625	-0.395984
H180	H	0.961831	0.235375	0.104016
H181	H	0.455410	-0.297839	-0.466073
H182	H	0.955410	0.202161	0.033927
O183	O	1.090998	-0.296331	-0.521814
O184	O	1.590998	0.203669	-0.021814
C185	C	1.134538	-0.338182	-0.477396
C186	C	1.634538	0.161818	0.022604
H187	H	1.136492	-0.393581	-0.496324
H188	H	1.636492	0.106419	0.003676
H189	H	1.112748	-0.339685	-0.424654
H190	H	1.612748	0.160315	0.075346
C191	C	1.206491	-0.238993	-0.451304
C192	C	1.706491	0.261007	0.048696
C193	C	1.208896	-0.307033	-0.474555
C194	C	1.708896	0.192967	0.025445
H195	H	1.252358	-0.219777	-0.449548
H196	H	1.752358	0.280223	0.050452
H197	H	1.177156	-0.210795	-0.481227
H198	H	1.677156	0.289205	0.018773
H199	H	1.188330	-0.240254	-0.407354
H200	H	1.688330	0.259746	0.092646
H201	H	1.227048	-0.305769	-0.518507
H202	H	1.727048	0.194231	-0.018507
H203	H	1.238236	-0.335229	-0.444639
H204	H	1.738236	0.164771	0.055361
O205	O	0.741512	-0.281581	-0.369470
O206	O	1.241512	0.218419	0.130530
C207	C	0.813564	-0.294253	-0.356662
C208	C	1.313564	0.205747	0.143338
H209	H	0.821223	-0.348752	-0.331837
H210	H	1.321223	0.151248	0.168163
H211	H	0.836116	-0.253498	-0.321439
H212	H	1.336116	0.246502	0.178561
C213	C	0.842055	-0.222594	-0.454276
C214	C	1.342055	0.277406	0.045724
C215	C	0.851462	-0.289533	-0.423791
C216	C	1.351462	0.210467	0.076209
H217	H	0.865433	-0.219679	-0.495684
H218	H	1.365433	0.280321	0.004316
H219	H	0.793512	-0.214054	-0.462905
H220	H	1.293512	0.285946	0.037095
H221	H	0.860847	-0.188638	-0.424917
H222	H	1.360847	0.311362	0.075083
H223	H	0.832661	-0.323486	-0.453146
H224	H	1.332661	0.176514	0.046854
H225	H	0.900002	-0.298078	-0.415169
H226	H	1.400002	0.201922	0.084831
O227	O	1.091071	-0.296089	-1.016859
O228	O	1.591071	0.203911	-0.516859
C229	C	1.132332	-0.258205	-0.970380
C230	C	1.632332	0.241795	-0.470380
H231	H	1.133511	-0.287041	-0.918753
H232	H	1.633511	0.212959	-0.418753
H233	H	1.108960	-0.203864	-0.966065
H234	H	1.608960	0.296136	-0.466065
C235	C	1.205938	-0.215862	-1.058590
C236	C	1.705938	0.284138	-0.558590
C237	C	1.207390	-0.251281	-0.995181
C238	C	1.707390	0.248719	-0.495181
H239	H	1.252236	-0.211588	-1.073889
H240	H	1.752236	0.288412	-0.573889
H241	H	1.178138	-0.241382	-1.089904
H242	H	1.678138	0.258618	-0.589904
H243	H	1.186458	-0.170582	-1.054985
H244	H	1.686458	0.329418	-0.554985
H245	H	1.226862	-0.296564	-0.998788
H246	H	1.726862	0.203436	-0.498788
H247	H	1.235195	-0.225768	-0.963867
H248	H	1.735195	0.274232	-0.463867
O249	O	0.483602	-0.315497	-0.335424
O250	O	0.983602	0.184503	0.164576
C251	C	0.439567	-0.353675	-0.379330
C252	C	0.939567	0.146325	0.120670
H253	H	0.426305	-0.406308	-0.353749
H254	H	0.926305	0.093692	0.146251
H255	H	0.467473	-0.362644	-0.427955
H256	H	0.967473	0.137356	0.072045
C257	C	0.387974	-0.247516	-0.427579
C258	C	0.887974	0.252484	0.072421
C259	C	0.371680	-0.312159	-0.396158
C260	C	0.871680	0.187841	0.103842
H261	H	0.346099	-0.221907	-0.437963
H262	H	0.846099	0.278093	0.062037
H263	H	0.417642	-0.221795	-0.398001
H264	H	0.917642	0.278205	0.101999
H265	H	0.411230	-0.255000	-0.468097
H266	H	0.911230	0.245000	0.031903
H267	H	0.348432	-0.304675	-0.355638
H268	H	0.848432	0.195325	0.144362
H269	H	0.342006	-0.337879	-0.425730
H270	H	0.842006	0.162121	0.074270
O271	O	0.514451	-0.446504	-0.203370
O272	O	1.014451	0.053496	0.296630
C273	C	0.554854	-0.493655	-0.238217
C274	C	1.054854	0.006345	0.261783
H275	H	0.566903	-0.469472	-0.290055
H276	H	1.066903	0.030528	0.209945
H277	H	0.524407	-0.544425	-0.244723
H278	H	1.024407	-0.044425	0.255277
C279	C	0.609042	-0.538951	-0.133799
C280	C	1.109042	-0.038951	0.366201
C281	C	0.623846	-0.509246	-0.197466
C282	C	1.123846	-0.009246	0.302534
H283	H	0.651599	-0.548571	-0.108662
H284	H	1.151599	-0.048571	0.391338
H285	H	0.581820	-0.507187	-0.110322
H286	H	1.081820	-0.007187	0.389678
H287	H	0.583668	-0.581255	-0.139231
H288	H	1.083668	-0.081255	0.360769
H289	H	0.649212	-0.466938	-0.192034
H290	H	1.149212	0.033062	0.307966
H291	H	0.651074	-0.541004	-0.220942
H292	H	1.151074	-0.041004	0.279058
O293	O	1.075841	-0.645784	-0.340732
O294	O	1.575841	-0.145784	0.159268
C295	C	1.113371	-0.695430	-0.375380
C296	C	1.613371	-0.195430	0.124620
H297	H	1.082449	-0.746425	-0.376874
H298	H	1.582449	-0.246425	0.123126
H299	H	1.166304	-0.705454	-0.348055
H300	H	1.666304	-0.205454	0.151945
C301	C	1.162614	-0.604597	-0.446287
C302	C	1.662614	-0.104597	0.053713
C303	C	1.124632	-0.667230	-0.448126
C304	C	1.624632	-0.167230	0.051874
H305	H	1.169563	-0.587202	-0.491159
H306	H	1.669563	-0.087202	0.008841
H307	H	1.137331	-0.571150	-0.422942
H308	H	1.637331	-0.071150	0.077058
H309	H	1.206720	-0.612960	-0.423513
H310	H	1.706720	-0.112960	0.076487
H311	H	1.080524	-0.658865	-0.470892
H312	H	1.580524	-0.158865	0.029108
H313	H	1.149908	-0.700675	-0.471477
H314	H	1.649908	-0.200675	0.028523
O315	O	0.906630	-0.465480	-0.878204
O316	O	1.406630	0.034520	-0.378204
C317	C	0.918915	-0.536007	-0.892068
C318	C	1.418915	-0.036007	-0.392068
H319	H	0.974774	-0.541944	-0.908950
H320	H	1.474774	-0.041944	-0.408950
H321	H	0.880554	-0.552709	-0.933992
H322	H	1.380554	-0.052709	-0.433992
C323	C	0.840088	-0.575173	-0.807042
C324	C	1.340088	-0.075173	-0.307042
C325	C	0.908697	-0.582466	-0.827771
C326	C	1.408697	-0.082466	-0.327771
H327	H	0.833782	-0.603832	-0.767382
H328	H	1.333782	-0.103832	-0.267382
H329	H	0.831809	-0.527658	-0.797703
H330	H	1.331809	-0.027658	-0.297703
H331	H	0.808128	-0.589090	-0.841983
H332	H	1.308128	-0.089090	-0.341983
H333	H	0.940655	-0.568540	-0.792833
H334	H	1.440655	-0.068540	-0.292833
H335	H	0.916981	-0.629980	-0.837103
H336	H	1.416981	-0.129980	-0.337103
O337	O	1.091018	-0.296178	-0.661097
O338	O	1.591018	0.203822	-0.161097
C339	C	1.132282	-0.258296	-0.614619
C340	C	1.632282	0.241704	-0.114619
H341	H	1.133459	-0.287129	-0.562991
H342	H	1.633459	0.212871	-0.062991
H343	H	1.108913	-0.203953	-0.610306
H344	H	1.608913	0.296047	-0.110306
C345	C	1.205889	-0.215960	-0.702831
C346	C	1.705889	0.284040	-0.202831
C347	C	1.207340	-0.251377	-0.639421
C348	C	1.707340	0.248623	-0.139421
H349	H	1.252188	-0.211689	-0.718130
H350	H	1.752188	0.288311	-0.218130
H351	H	1.178088	-0.241480	-0.734144
H352	H	1.678088	0.258520	-0.234144
H353	H	1.186412	-0.170678	-0.699227
H354	H	1.686412	0.329322	-0.199227
H355	H	1.226809	-0.296661	-0.643027
H356	H	1.726809	0.203339	-0.143027
H357	H	1.235147	-0.225865	-0.608108
H358	H	1.735147	0.274135	-0.108108
H359	H	1.083636	-0.302890	-0.883194
H360	H	1.583636	0.197110	-0.383194
H361	H	0.913942	-0.458610	-1.011944
H362	H	1.413942	0.041390	-0.511944
H363	H	1.062932	-0.783976	-0.328718
H364	H	1.562932	-0.283976	0.171282
H365	H	1.097130	-0.983812	-0.360273
H366	H	1.597130	-0.483812	0.139727
H367	H	0.595446	-0.445125	-0.204631
H368	H	1.095446	0.054875	0.295369
H369	H	1.091518	-1.116659	-0.355054
H370	H	1.591518	-0.616659	0.144946
H371	H	0.928915	-1.109968	-0.204813
H372	H	1.428915	-0.609968	0.295187
O373	O	0.927707	-0.971195	-0.203681
O374	O	1.427707	-0.471195	0.296319
C375	C	0.886123	-1.017588	-0.165258
C376	C	1.386123	-0.517588	0.334742
H377	H	0.912637	-1.070983	-0.159666
H378	H	1.412637	-0.570983	0.340334
H379	H	0.832531	-1.023136	-0.191968
H380	H	1.332531	-0.523136	0.308032
C381	C	0.844714	-0.923061	-0.101628
C382	C	1.344714	-0.423061	0.398372
C383	C	0.877281	-0.988641	-0.094755
C384	C	1.377281	-0.488641	0.405245
H385	H	0.839257	-0.905205	-0.058139
H386	H	1.339257	-0.405205	0.441861
H387	H	0.872727	-0.891805	-0.127516
H388	H	1.372727	-0.391805	0.372484
H389	H	0.800058	-0.927694	-0.123888
H390	H	1.300058	-0.427694	0.376112
H391	H	0.921940	-0.984006	-0.072503
H392	H	1.421940	-0.484006	0.427497
H393	H	0.849275	-1.019896	-0.068862
H394	H	1.349275	-0.519896	0.431138
H395	H	0.905937	-0.644453	-0.183699
H396	H	1.405937	-0.144453	0.316301
H397	H	1.057015	-0.870511	-0.323251
H398	H	1.557015	-0.370511	0.176749
H399	H	0.913889	-0.458682	-0.656185
H400	H	1.413889	0.041318	-0.156185
H401	H	0.940435	-0.890605	-0.215509
H402	H	1.440435	-0.390605	0.284491
H403	H	0.913861	-0.458710	-0.527940
H404	H	1.413861	0.041290	-0.027940
H405	H	0.269789	-0.311085	-0.339760
H406	H	0.769789	0.188915	0.160240
