data_functionalizedCrystal
_audit_creation_method	'MofGen! by Chris Wilmer'
_symmetry_space_group_name_H-M	'P1'
_symmetry_Int_Tables_number	1
_symmetry_cell_setting	triclinic
loop_
_symmetry_equiv_pos_as_xyz
  x,y,z
_cell_length_a	18.215407
_cell_length_b	25.639240
_cell_length_c	18.215399
_cell_angle_alpha	90.032103
_cell_angle_beta	89.982632
_cell_angle_gamma	89.959394
loop_
_atom_site_label
_atom_site_type_symbol
_atom_site_fract_x
_atom_site_fract_y
_atom_site_fract_z
Zn1	Zn	1.124978	0.208192	-0.416046
Zn2	Zn	1.624978	0.708192	0.083954
Zn3	Zn	1.124848	0.295628	-0.292971
Zn4	Zn	1.624848	0.795628	0.207029
Zn5	Zn	1.001911	0.208204	-0.292999
Zn6	Zn	1.501911	0.708204	0.207001
Zn7	Zn	1.001838	0.295594	-0.416001
Zn8	Zn	1.501838	0.795594	0.083999
O9	O	1.063394	0.251905	-0.354504
O10	O	1.563394	0.751905	0.145496
O11	O	1.227945	0.219799	-0.399727
O12	O	1.727945	0.719799	0.100273
O13	O	1.108516	0.284050	-0.189990
O14	O	1.608516	0.784050	0.310010
O15	O	1.018322	0.135037	-0.309352
O16	O	1.518322	0.635037	0.190648
O17	O	1.227849	0.284038	-0.309304
O18	O	1.727849	0.784038	0.190696
O19	O	1.108739	0.135028	-0.399754
O20	O	1.608739	0.635028	0.100246
O21	O	1.018195	0.219821	-0.190011
O22	O	1.518195	0.719821	0.309989
O23	O	0.898917	0.219788	-0.309308
O24	O	1.398917	0.719788	0.190692
O25	O	1.018197	0.283981	-0.518991
O26	O	1.518197	0.783981	-0.018991
O27	O	0.898863	0.283993	-0.399677
O28	O	1.398863	0.783993	0.100323
O29	O	1.108668	0.219767	-0.519025
O30	O	1.608668	0.719767	-0.019025
O31	O	1.108445	0.368789	-0.309261
O32	O	1.608445	0.868789	0.190739
O33	O	1.018070	0.368764	-0.399650
O34	O	1.518070	0.868764	0.100350
C35	C	0.872187	0.251888	-0.354491
C36	C	1.372187	0.751888	0.145509
C37	C	0.790389	0.251894	-0.354503
C38	C	1.290389	0.751894	0.145497
C39	C	0.602244	0.218514	-0.401661
C40	C	1.102244	0.718514	0.098339
C41	C	0.525385	0.218518	-0.401663
C42	C	1.025385	0.718518	0.098337
C43	C	0.525296	0.285310	-0.307361
C44	C	1.025296	0.785310	0.192639
C45	C	0.602153	0.285302	-0.307355
C46	C	1.102153	0.785302	0.192645
C47	C	0.640625	0.251905	-0.354509
C48	C	1.140625	0.751905	0.145491
C49	C	0.486909	0.251917	-0.354517
C50	C	0.986909	0.751917	0.145483
C51	C	0.403575	0.251922	-0.354520
C52	C	0.903575	0.751922	0.145480
C53	C	0.723964	0.251899	-0.354506
C54	C	1.223964	0.751899	0.145494
C55	C	1.063255	0.387747	-0.354464
C56	C	1.563255	0.887747	0.145536
C57	C	1.063263	0.445861	-0.354471
C58	C	1.563263	0.945861	0.145529
C59	C	1.110514	0.806225	-0.307490
C60	C	1.610514	1.306225	0.192510
C61	C	1.110536	0.860829	-0.307497
C62	C	1.610536	1.360829	0.192503
O63	O	1.150613	0.889066	-0.267530
O64	O	1.650613	1.389066	0.232470
N65	N	1.063453	0.888144	-0.354521
N66	N	1.563453	1.388144	0.145479
C67	C	1.016350	0.860851	-0.401545
C68	C	1.516350	1.360851	0.098455
O69	O	0.976304	0.889099	-0.441543
O70	O	1.476304	1.389099	0.058457
C71	C	1.016331	0.806248	-0.401541
C72	C	1.516331	1.306248	0.098459
C73	C	1.063412	0.778936	-0.354510
C74	C	1.563412	1.278936	0.145490
C75	C	1.157591	0.778913	-0.260463
C76	C	1.657591	1.278913	0.239537
C77	C	1.157568	0.724312	-0.260455
C78	C	1.657568	1.224312	0.239545
C79	C	1.110466	0.697023	-0.307475
C80	C	1.610466	1.197023	0.192525
C81	C	1.063389	0.724335	-0.354502
C82	C	1.563389	1.224335	0.145498
C83	C	0.969232	0.778957	-0.448569
C84	C	1.469232	1.278957	0.051431
C85	C	0.969218	0.724350	-0.448562
C86	C	1.469218	1.224350	0.051438
C87	C	1.016299	0.697038	-0.401530
C88	C	1.516299	1.197038	0.098470
C89	C	1.016264	0.642446	-0.401513
C90	C	1.516264	1.142446	0.098487
N91	N	1.063347	0.615132	-0.354490
N92	N	1.563347	1.115132	0.145510
C93	C	1.110448	0.642420	-0.307471
C94	C	1.610448	1.142420	0.192529
C95	C	1.016392	0.975522	-0.401551
C96	C	1.516392	1.475522	0.098449
C97	C	1.016406	1.030124	-0.401552
C98	C	1.516406	1.530124	0.098448
C99	C	1.110594	1.030098	-0.307504
C100	C	1.610594	1.530098	0.192496
C101	C	1.110576	0.975495	-0.307501
C102	C	1.610576	1.475495	0.192499
C103	C	1.063476	0.948207	-0.354527
C104	C	1.563476	1.448207	0.145473
C105	C	1.110394	0.527755	-0.307457
C106	C	1.610394	1.027755	0.192543
C107	C	1.110364	0.473150	-0.307452
C108	C	1.610364	0.973150	0.192548
C109	C	1.016180	0.473181	-0.401501
C110	C	1.516180	0.973181	0.098499
C111	C	1.016207	0.527781	-0.401504
C112	C	1.516207	1.027781	0.098496
C113	C	1.063320	0.555067	-0.354480
C114	C	1.563320	1.055067	0.145520
O115	O	0.976210	0.614175	-0.441463
O116	O	1.476210	1.114175	0.058537
O117	O	1.150494	0.614166	-0.267486
O118	O	1.650494	1.114166	0.232514
C119	C	1.255347	0.251921	-0.354518
C120	C	1.755347	0.751921	0.145482
C121	C	1.337145	0.251928	-0.354523
C122	C	1.837145	0.751928	0.145477
C123	C	1.063525	1.115532	-0.354548
C124	C	1.563525	1.615532	0.145452
C125	C	1.063511	1.057417	-0.354535
C126	C	1.563511	1.557417	0.145465
C127	C	1.063439	0.251869	-0.546457
C128	C	1.563439	0.751869	-0.046457
C129	C	1.063458	0.251853	-0.628256
C130	C	1.563458	0.751853	-0.128256
C131	C	1.110583	0.218386	-0.816469
C132	C	1.610583	0.718386	-0.316469
C133	C	1.110592	0.218370	-0.893327
C134	C	1.610592	0.718370	-0.393327
C135	C	1.016385	0.285240	-0.893282
C136	C	1.516385	0.785240	-0.393282
C137	C	1.016373	0.285252	-0.816424
C138	C	1.516373	0.785252	-0.316424
C139	C	1.063476	0.251826	-0.778020
C140	C	1.563476	0.751826	-0.278020
C141	C	1.063497	0.251798	-0.931736
C142	C	1.563497	0.751798	-0.431736
C143	C	1.063506	0.251782	-1.015070
C144	C	1.563506	0.751782	-0.515070
C145	C	1.063466	0.251841	-0.694681
C146	C	1.563466	0.751841	-0.194681
C147	C	1.063391	0.251903	-0.163298
C148	C	1.563391	0.751903	0.336702
C149	C	1.063515	0.251771	-0.081500
C150	C	1.563515	0.751771	0.418500
H151	H	1.148703	0.450914	-0.269150
H152	H	1.648703	0.950914	0.230850
H153	H	0.493962	0.312501	-0.268970
H154	H	0.993962	0.812501	0.231030
N155	N	0.643557	0.321315	-0.256491
N156	N	1.143557	0.821315	0.243509
H157	H	0.607524	0.342475	-0.226623
H158	H	1.107524	0.842475	0.273377
H159	H	0.675440	0.345534	-0.286381
H160	H	1.175440	0.845534	0.213619
N161	N	1.161208	0.557180	-0.256740
N162	N	1.661208	1.057180	0.243260
H163	H	1.191024	0.531586	-0.226951
H164	H	1.691024	1.031586	0.273049
H165	H	1.131282	0.579872	-0.222657
H166	H	1.631282	1.079872	0.277343
N167	N	0.965624	1.059577	-0.452277
N168	N	1.465624	1.559577	0.047723
H169	H	0.972780	1.098310	-0.445153
H170	H	1.472780	1.598310	0.054847
H171	H	0.913068	1.050073	-0.440775
H172	H	1.413068	1.550073	0.059225
H173	H	1.195907	0.702078	-0.222160
H174	H	1.695907	1.202078	0.277840
N175	N	1.161398	0.182296	-0.934789
N176	N	1.661398	0.682296	-0.434789
H177	H	1.213969	0.190421	-0.921420
H178	H	1.713969	0.690421	-0.421420
H179	H	1.154198	0.187370	-0.989294
H180	H	1.654198	0.687370	-0.489294
H181	H	0.978036	0.312456	-0.924560
H182	H	1.478036	0.812456	-0.424560
N183	N	1.208399	0.808340	-0.209746
N184	N	1.708399	1.308340	0.290254
H185	H	1.238215	0.782745	-0.179959
H186	H	1.738215	1.282745	0.320041
H187	H	1.178470	0.831028	-0.175661
H188	H	1.678470	1.331028	0.324339
H189	H	1.148914	0.953260	-0.269204
H190	H	1.648914	1.453260	0.230796
H191	H	0.930890	0.801185	-0.486864
H192	H	1.430890	1.301185	0.013136
H193	H	0.978007	0.312483	-0.785118
H194	H	1.478007	0.812483	-0.285118
H195	H	1.148949	1.052326	-0.269221
H196	H	1.648949	1.552326	0.230779
H197	H	0.978031	0.953307	-0.439844
H198	H	1.478031	1.453307	0.060156
N199	N	0.918416	0.694915	-0.499281
N200	N	1.418416	1.194915	0.000719
H201	H	0.929821	0.704386	-0.551874
H202	H	1.429821	1.204386	-0.051874
H203	H	0.865865	0.704472	-0.487745
H204	H	1.365865	1.204472	0.012255
N205	N	0.643740	0.182494	-0.452516
N206	N	1.143740	0.682494	0.047484
H207	H	0.607760	0.161341	-0.482386
H208	H	1.107760	0.661341	0.017614
H209	H	0.675638	0.158269	-0.422620
H210	H	1.175638	0.658269	0.077380
H211	H	0.494138	0.191327	-0.440058
H212	H	0.994138	0.691327	0.059942
N213	N	0.965420	0.557243	-0.452221
N214	N	1.465420	1.057243	0.047779
H215	H	0.935577	0.531668	-0.482004
H216	H	1.435577	1.031668	0.017996
H217	H	0.995368	0.579858	-0.486311
H218	H	1.495368	1.079858	0.013689
H219	H	1.148935	0.191166	-0.785202
H220	H	1.648935	0.691166	-0.285202
N221	N	0.965374	0.443743	-0.452208
N222	N	1.465374	0.943743	0.047792
H223	H	0.972509	0.405008	-0.445064
H224	H	1.472509	0.905008	0.054936
H225	H	0.976803	0.453252	-0.504780
H226	H	1.476803	0.953252	-0.004780
