data_functionalizedCrystal
_audit_creation_method	'MofGen! by Chris Wilmer'
_symmetry_space_group_name_H-M	'P1'
_symmetry_Int_Tables_number	1
_symmetry_cell_setting	triclinic
loop_
_symmetry_equiv_pos_as_xyz
  x,y,z
_cell_length_a	10.654545
_cell_length_b	17.699083
_cell_length_c	16.776229
_cell_angle_alpha	90.000273
_cell_angle_beta	90.001051
_cell_angle_gamma	96.115779
loop_
_atom_site_label
_atom_site_type_symbol
_atom_site_fract_x
_atom_site_fract_y
_atom_site_fract_z
O1	O	0.158803	-1.005087	0.066172
O2	O	0.179464	-0.784840	0.066198
O3	O	-0.013694	-0.900027	0.066184
O4	O	0.351962	-0.889900	0.066186
O5	O	-0.013695	-0.900014	-0.066393
O6	O	0.179464	-0.784827	-0.066379
O7	O	0.158803	-1.005074	-0.066404
Zn8	Zn	0.169133	-0.894949	-0.087441
Zn9	Zn	0.169134	-0.894966	0.087234
O10	O	0.351961	-0.889887	-0.066390
C11	C	0.178724	-0.756632	-0.000087
C12	C	0.176503	-0.672600	-0.000077
C13	C	-0.060479	-0.899277	-0.000103
C14	C	-0.199884	-0.897052	-0.000098
N15	N	0.169132	-0.894942	-0.206652
C16	C	-0.199892	-0.897075	0.144441
C17	C	-0.265388	-0.896044	0.216710
C18	C	-0.396370	-0.893954	0.216712
C19	C	-0.461859	-0.892892	0.144436
C20	C	-0.396363	-0.893923	0.072166
C21	C	-0.265378	-0.896015	0.072173
C22	C	-0.396354	-0.893894	-0.072371
C23	C	-0.265373	-0.895990	-0.072374
C24	C	-0.461843	-0.892832	-0.144647
C25	C	-0.396348	-0.893868	-0.216918
C26	C	-0.265358	-0.895959	-0.216916
C27	C	-0.199877	-0.897021	-0.144643
C28	C	0.398746	-0.890638	-0.000102
C29	C	0.538151	-0.892863	-0.000102
C30	C	0.159543	-1.033283	-0.000118
C31	C	0.161764	-1.117315	-0.000122
C32	C	0.289883	-0.624700	-0.000077
C33	C	0.287788	-0.545743	-0.000087
C34	C	0.172313	-0.514688	-0.000092
C35	C	0.058924	-0.562594	-0.000095
C36	C	0.061020	-0.641549	-0.000090
C37	C	0.050470	-0.244177	-0.000115
C38	C	0.048383	-0.165216	-0.000117
C39	C	0.277239	-0.148372	-0.000111
C40	C	0.279334	-0.227327	-0.000107
C41	C	0.165946	-0.275226	-0.000114
C42	C	0.168219	-0.360839	-0.000104
C43	C	0.170039	-0.429076	-0.000096
C44	C	0.245205	-0.941241	-0.248371
C45	C	0.245200	-0.941250	-0.331823
C46	C	0.169128	-0.894955	-0.373555
C47	C	0.093047	-0.848654	-0.331830
C48	C	0.093046	-0.848650	-0.248380
C49	C	0.093048	-0.848669	-0.668378
C50	C	0.093058	-0.848675	-0.751834
C51	C	0.245203	-0.941269	-0.751821
C52	C	0.245202	-0.941265	-0.668370
C53	C	0.169116	-0.894967	-0.626653
C54	C	0.169120	-0.894960	-0.536165
C55	C	0.169130	-0.894958	-0.464042
N56	N	0.169125	-0.894978	0.206446
H57	H	-0.093241	-0.898786	0.144448
F58	F	-0.466076	-0.892851	0.293628
H59	H	0.307144	-0.978952	-0.365787
F60	F	-0.195685	-0.897191	0.293628
F61	F	0.012087	-0.799400	-0.796247
H62	H	-0.045657	-0.139935	-0.000122
F63	F	-0.060475	-0.899251	-0.144635
F64	F	-0.070208	-0.295145	-0.000122
H65	H	-0.568509	-0.891180	0.144443
H66	H	0.383916	-0.649979	-0.000072
F67	F	0.012068	-0.799379	-0.203980
H68	H	-0.035098	-0.537303	-0.000111
F69	F	-0.059655	-0.692528	-0.000094
F70	F	0.326175	-0.990514	-0.203964
F71	F	-0.601244	-0.890600	-0.144644
F72	F	0.012109	-0.799372	-0.623989
F73	F	0.012082	-0.799385	-0.376247
F74	F	0.408463	-0.494768	-0.000083
H75	H	0.307152	-0.978960	-0.634396
F76	F	-0.466051	-0.892730	-0.293830
H77	H	-0.212037	-0.896787	-0.275766
F78	F	0.402239	-0.260373	-0.000097
H79	H	0.369564	-0.109362	-0.000110
H80	H	0.307152	-0.978968	-0.785797
