data_functionalizedCrystal
_audit_creation_method	'MofGen! by Chris Wilmer'
_symmetry_space_group_name_H-M	'P1'
_symmetry_Int_Tables_number	1
_symmetry_cell_setting	triclinic
loop_
_symmetry_equiv_pos_as_xyz
  x,y,z
_cell_length_a	15.944551
_cell_length_b	15.944493
_cell_length_c	12.996460
_cell_angle_alpha	89.999729
_cell_angle_beta	89.998907
_cell_angle_gamma	83.486891
loop_
_atom_site_label
_atom_site_type_symbol
_atom_site_fract_x
_atom_site_fract_y
_atom_site_fract_z
O1	O	1.114503	0.108337	-0.085446
O2	O	1.614503	0.608337	0.414554
O3	O	0.869950	0.121693	-0.085470
O4	O	1.369950	0.621693	0.414530
O5	O	0.998930	-0.007263	-0.085466
O6	O	1.498930	0.492737	0.414534
O7	O	0.985523	0.237293	-0.085450
O8	O	1.485523	0.737293	0.414550
O9	O	0.998917	-0.007270	0.085668
O10	O	1.498917	0.492730	0.585668
O11	O	0.869937	0.121686	0.085664
O12	O	1.369937	0.621686	0.585664
O13	O	1.114489	0.108329	0.085688
O14	O	1.614489	0.608329	0.585688
Cu15	Cu	0.992212	0.115007	0.101302
Cu16	Cu	1.492212	0.615007	0.601302
Cu17	Cu	0.992228	0.115016	-0.101084
Cu18	Cu	1.492228	0.615016	0.398916
O19	O	0.985510	0.237286	0.085684
O20	O	1.485510	0.737286	0.585684
C21	C	0.838650	0.121135	0.000094
C22	C	1.338650	0.621135	0.500094
C23	C	0.745404	0.119473	0.000084
C24	C	1.245404	0.619473	0.500084
C25	C	0.530565	0.035566	0.000098
C26	C	1.030565	0.535566	0.500098
C27	C	0.469543	0.074533	-0.084277
C28	C	0.969543	0.574533	0.415723
C29	C	0.574679	0.116465	0.000096
C30	C	1.074679	0.616465	0.500096
C31	C	0.469552	0.074545	0.084447
C32	C	0.969552	0.574545	0.584447
C33	C	0.409767	0.113555	0.000112
C34	C	0.909767	0.613555	0.500112
C35	C	0.514885	0.155455	-0.084349
C36	C	1.014885	0.655455	0.415651
C37	C	0.514901	0.155455	0.084451
C38	C	1.014901	0.655455	0.584451
C39	C	0.453897	0.194481	0.000055
C40	C	0.953897	0.694481	0.500055
C41	C	0.669681	0.118140	0.000086
C42	C	1.169681	0.618140	0.500086
C43	C	0.314766	0.111886	0.000115
C44	C	0.814766	0.611886	0.500115
C45	C	0.998375	-0.038562	0.000097
C46	C	1.498375	0.461438	0.500097
C47	C	0.996733	-0.131810	0.000083
C48	C	1.496733	0.368190	0.500083
C49	C	1.072653	-0.367570	0.000110
C50	C	1.572653	0.132430	0.500110
C51	C	1.031719	-0.418135	-0.084271
C52	C	1.531719	0.081865	0.415729
C53	C	0.993688	-0.302531	0.000096
C54	C	1.493688	0.197469	0.500096
C55	C	1.031687	-0.418118	0.084454
C56	C	1.531687	0.081882	0.584454
C57	C	0.990754	-0.467441	0.000112
C58	C	1.490754	0.032559	0.500112
C59	C	0.952775	-0.351868	-0.084355
C60	C	1.452775	0.148132	0.415645
C61	C	0.952755	-0.351847	0.084445
C62	C	1.452755	0.148153	0.584445
C63	C	0.911763	-0.402379	0.000043
C64	C	1.411763	0.097621	0.500043
C65	C	0.995381	-0.207531	0.000085
C66	C	1.495381	0.292469	0.500085
C67	C	0.989055	-0.562438	0.000115
C68	C	1.489055	-0.062438	0.500115
C69	C	1.145790	0.108887	0.000122
C70	C	1.645790	0.608887	0.500122
C71	C	1.239036	0.110550	0.000125
C72	C	1.739036	0.610550	0.500125
C73	C	0.986064	0.268584	0.000119
C74	C	1.486064	0.768584	0.500119
C75	C	0.987707	0.361833	0.000126
C76	C	1.487707	0.861833	0.500126
N77	N	0.992207	0.115001	0.243649
N78	N	1.492207	0.615001	0.743649
N79	N	0.992239	0.115015	-0.243431
N80	N	1.492239	0.615015	0.256569
C81	C	0.992227	0.115016	0.663463
C82	C	1.492227	0.615016	1.163463
C83	C	0.992219	0.115015	0.546658
C84	C	1.492219	0.615015	1.046658
C85	C	0.992217	0.115009	0.453560
C86	C	1.492217	0.615009	0.953560
C87	C	0.992208	0.115006	0.336747
C88	C	1.492208	0.615006	0.836747
H89	H	0.449468	0.040310	0.155778
H90	H	0.949468	0.540310	0.655778
H91	H	1.065072	-0.447077	-0.155604
H92	H	1.565072	0.052923	0.344396
H93	H	0.534872	0.189649	-0.155760
H94	H	1.034872	0.689649	0.344240
H95	H	0.535019	0.189641	0.155792
H96	H	1.035019	0.689641	0.655792
H97	H	1.140671	-0.351942	0.000032
H98	H	1.640671	0.148058	0.500032
C99	C	0.907731	-0.312731	0.180818
C100	C	1.407731	0.187269	0.680818
N101	N	0.873823	-0.283271	0.253415
N102	N	1.373823	0.216729	0.753415
C103	C	0.442385	0.028310	-0.180647
C104	C	0.942385	0.528310	0.319353
N105	N	0.421932	-0.006511	-0.253228
N106	N	0.921932	0.493489	0.246772
H107	H	0.843692	-0.417845	-0.000010
H108	H	1.343692	0.082155	0.499990
H109	H	0.563912	-0.031574	-0.000010
H110	H	1.063912	0.468426	0.499990
C111	C	0.907767	-0.312934	-0.180841
C112	C	1.407767	0.187066	0.319159
N113	N	0.873872	-0.283607	-0.253515
N114	N	1.373872	0.216393	0.246485
H115	H	1.065046	-0.447052	0.155787
H116	H	1.565046	0.052948	0.655787
C117	C	0.409074	0.285274	-0.000004
C118	C	0.909074	0.785274	0.499996
N119	N	0.375311	0.353659	-0.000054
N120	N	0.875311	0.853659	0.499946
