data_functionalizedCrystal
_audit_creation_method	'MofGen! by Chris Wilmer'
_symmetry_space_group_name_H-M	'P1'
_symmetry_Int_Tables_number	1
_symmetry_cell_setting	triclinic
loop_
_symmetry_equiv_pos_as_xyz
  x,y,z
_cell_length_a	15.944551
_cell_length_b	8.559649
_cell_length_c	15.021413
_cell_angle_alpha	89.994774
_cell_angle_beta	89.990496
_cell_angle_gamma	76.638701
loop_
_atom_site_label
_atom_site_type_symbol
_atom_site_fract_x
_atom_site_fract_y
_atom_site_fract_z
O1	O	-0.028491	2.120125	-0.074016
O2	O	0.014888	1.654926	-0.074022
O3	O	-0.129896	1.900229	-0.074011
O4	O	0.116294	1.874822	-0.074028
O5	O	-0.129908	1.900208	0.074053
O6	O	0.014877	1.654904	0.074042
O7	O	-0.028502	2.120104	0.074048
Zn8	Zn	-0.006815	1.887501	0.097553
Zn9	Zn	-0.006799	1.887529	-0.097528
O10	O	0.116282	1.874800	0.074037
C11	C	0.018170	1.595386	0.000009
C12	C	0.027955	1.418007	0.000007
C13	C	-0.161128	1.899164	0.000021
C14	C	-0.254170	1.896001	0.000021
C15	C	-0.458726	1.736393	0.000007
C16	C	-0.524532	1.810499	0.073013
C17	C	-0.424526	1.890281	0.000015
C18	C	-0.524506	1.810557	-0.072967
C19	C	-0.589082	1.884744	0.000004
C20	C	-0.489107	1.964429	0.073080
C21	C	-0.489074	1.964465	-0.072965
C22	C	-0.554870	2.038684	0.000058
C23	C	-0.329730	1.893466	0.000021
C24	C	-0.683878	1.881570	0.000004
C25	C	0.147514	1.875866	0.000002
C26	C	0.240555	1.879028	-0.000004
C27	C	-0.031784	2.179644	0.000014
C28	C	-0.041569	2.357023	0.000010
N29	N	-0.006827	1.887493	0.230691
N30	N	-0.006795	1.887549	-0.230665
C31	C	-0.074194	2.000072	0.529687
C32	C	-0.000609	2.032386	0.470316
C33	C	-0.006804	1.887531	0.587728
C34	C	-0.080403	1.855273	0.470357
C35	C	-0.006820	1.887516	0.412304
C36	C	0.066815	1.919917	0.529663
C37	C	-0.013025	1.742741	0.529710
C38	C	0.060619	1.774995	0.470365
C39	C	-0.006796	1.887543	0.688785
C40	C	-0.006818	1.887503	0.311248
H41	H	-0.540445	1.745401	0.134731
H42	H	0.094968	1.334508	-0.000002
O43	O	-0.121559	1.456452	0.000134
C44	C	-0.257247	1.540351	0.076876
C45	C	-0.166691	1.427620	0.076838
H46	H	-0.293756	1.517104	0.138894
H47	H	-0.293859	1.517056	0.014956
H48	H	-0.251141	1.670448	0.076833
H49	H	-0.172719	1.297483	0.076912
H50	H	-0.130113	1.451053	0.138753
H51	H	-0.417174	1.608659	0.000078
O52	O	-0.543591	1.732884	-0.146533
C53	C	-0.653440	1.644314	-0.229399
C54	C	-0.631947	1.732297	-0.146045
H55	H	-0.724879	1.643840	-0.229041
H56	H	-0.613376	1.515413	-0.229304
H57	H	-0.637982	1.708658	-0.291599
H58	H	-0.647410	1.668087	-0.083800
H59	H	-0.672005	1.861200	-0.146218
H60	H	-0.473135	2.029507	-0.134687
O61	O	-0.470124	2.041895	0.146769
C62	C	-0.360596	2.131863	0.229415
C63	C	-0.381975	2.044074	0.145937
H64	H	-0.289332	2.133682	0.228761
H65	H	-0.375407	2.066698	0.291583
H66	H	-0.401248	2.260313	0.229670
H67	H	-0.341336	1.915621	0.145596
H68	H	-0.367187	2.109363	0.083807
H69	H	-0.596279	2.166530	0.000101
H70	H	0.129056	1.947327	0.555605
O71	O	-0.019221	1.596589	0.560757
C72	C	0.043975	1.312308	0.564562
C73	C	0.051099	1.477718	0.529321
H74	H	0.100830	1.216161	0.539175
H75	H	-0.018801	1.284855	0.540215
H76	H	0.044649	1.313475	0.640447
H77	H	0.050461	1.476673	0.453438
H78	H	0.113867	1.505106	0.553735
O79	O	-0.142131	2.113806	0.560620
C80	C	-0.266339	2.323151	0.523352
C81	C	-0.189430	2.194433	0.488200
H82	H	-0.304612	2.388351	0.464819
H83	H	-0.241653	2.413050	0.566107
H84	H	-0.309726	2.263255	0.565166
H85	H	-0.146013	2.254189	0.446349
H86	H	-0.214176	2.104547	0.445494
O87	O	0.005703	2.178330	0.439033
C88	C	0.013444	2.341387	0.309873
C89	C	0.006325	2.176015	0.345177
H90	H	0.013931	2.339581	0.233987
H91	H	0.075643	2.369859	0.335215
H92	H	-0.044038	2.437196	0.334289
H93	H	0.063762	2.080100	0.320775
H94	H	-0.055908	2.147681	0.319841
O95	O	0.128757	1.661613	0.439520
C96	C	0.283280	1.567504	0.434952
C97	C	0.206192	1.696024	0.469928
H98	H	0.345904	1.595261	0.459537
H99	H	0.282532	1.567612	0.359062
H100	H	0.278465	1.444411	0.460416
H101	H	0.210956	1.819181	0.444530
H102	H	0.206965	1.695774	0.545817
O103	O	-0.154612	1.822803	0.439128
C104	C	-0.237368	1.784831	0.310031
C105	C	-0.153295	1.821637	0.345274
H106	H	-0.236324	1.783843	0.234146
H107	H	-0.294777	1.880925	0.334336
H108	H	-0.243221	1.662352	0.335531
H109	H	-0.147359	1.944070	0.319789
H110	H	-0.095928	1.725446	0.320976
