data_functionalizedCrystal
_audit_creation_method	'MofGen! by Chris Wilmer'
_symmetry_space_group_name_H-M	'P1'
_symmetry_Int_Tables_number	1
_symmetry_cell_setting	triclinic
loop_
_symmetry_equiv_pos_as_xyz
  x,y,z
_cell_length_a	42.784839
_cell_length_b	42.784841
_cell_length_c	42.784893
_cell_angle_alpha	90.002418
_cell_angle_beta	59.997780
_cell_angle_gamma	119.999863
loop_
_atom_site_label
_atom_site_type_symbol
_atom_site_fract_x
_atom_site_fract_y
_atom_site_fract_z
O1	O	0.275695	-0.214412	-0.009300
O2	O	0.211692	-0.168961	0.009253
O3	O	0.275692	-0.168961	-0.054750
O4	O	0.211694	-0.214412	0.054702
O5	O	0.223708	-0.220945	-0.054749
O6	O	0.159708	-0.220945	0.009253
O7	O	0.223710	-0.266397	-0.009300
Cu8	Cu	0.186962	-0.248417	-0.000023
Cu9	Cu	0.248440	-0.186940	-0.000024
O10	O	0.159710	-0.266396	0.054703
C11	C	0.051021	-0.022778	0.028112
C12	C	0.013142	-0.041761	0.028375
C13	C	0.051018	-0.079378	0.028116
C14	C	0.013139	-0.098275	0.028379
C15	C	-0.005578	-0.079377	0.028112
C16	C	0.069652	-0.041762	0.028379
C17	C	0.152948	0.113708	0.017863
C18	C	0.173786	0.152360	0.014965
C19	C	0.155902	0.171750	0.013509
C20	C	0.178499	0.213661	0.010359
C21	C	0.117177	0.152485	0.014953
C22	C	0.096339	0.113835	0.017857
C23	C	0.114226	0.094447	0.019312
C24	C	-0.131813	-0.113936	0.017859
C25	C	-0.167567	-0.131750	0.014961
C26	C	-0.185502	-0.169024	0.013506
C27	C	-0.224264	-0.188340	0.010358
C28	C	-0.167685	-0.188485	0.014954
C29	C	-0.131938	-0.170675	0.017859
C30	C	-0.114002	-0.133396	0.019309
C31	C	0.152939	-0.113943	0.017877
C32	C	0.173778	-0.131757	0.014977
C33	C	0.155892	-0.169032	0.013523
C34	C	0.178486	-0.188349	0.010377
C35	C	0.117170	-0.188491	0.014967
C36	C	0.096334	-0.170675	0.017865
C37	C	0.114220	-0.133401	0.019323
C38	C	0.091629	0.052537	0.022456
C39	C	0.073617	0.019131	0.024964
C40	C	0.073613	-0.098693	0.024971
C41	C	0.091623	-0.114089	0.022466
C42	C	-0.044339	-0.098690	0.024964
C43	C	-0.075237	-0.114084	0.022456
O44	O	-0.327856	-0.266388	-0.009322
O45	O	-0.236954	-0.220935	0.009228
O46	O	-0.236950	-0.220939	-0.054773
O47	O	-0.327860	-0.266385	0.054680
O48	O	-0.236948	-0.168954	-0.054776
O49	O	-0.236952	-0.168950	0.009225
O50	O	-0.327854	-0.214403	-0.009325
Cu51	Cu	-0.282403	-0.186930	-0.000050
Cu52	Cu	-0.282405	-0.248408	-0.000046
O53	O	-0.327858	-0.214400	0.054676
C54	C	0.384390	-0.079141	-0.361606
C55	C	0.422270	-0.041526	-0.380503
C56	C	0.384390	-0.079141	-0.305008
C57	C	0.422270	-0.041526	-0.323990
C58	C	0.440988	-0.022543	-0.361606
C59	C	0.365758	-0.098038	-0.323991
C60	C	0.282465	-0.170819	-0.396168
C61	C	0.261627	-0.188759	-0.413983
C62	C	0.279513	-0.169420	-0.451257
C63	C	0.256917	-0.188867	-0.470572
C64	C	0.318239	-0.132140	-0.470717
C65	C	0.339076	-0.114205	-0.452905
C66	C	0.321187	-0.133546	-0.415628
C67	C	0.567227	0.113942	-0.453282
C68	C	0.602981	0.152594	-0.471222
C69	C	0.620916	0.171985	-0.451883
C70	C	0.659678	0.213894	-0.471328
C71	C	0.603097	0.152719	-0.414603
C72	C	0.567349	0.114068	-0.396667
C73	C	0.549414	0.094682	-0.416011
C74	C	0.282465	-0.170819	-0.168522
C75	C	0.261624	-0.188757	-0.129868
C76	C	0.279510	-0.169418	-0.110479
C77	C	0.256914	-0.188865	-0.068568
C78	C	0.318233	-0.132140	-0.129742
C79	C	0.339070	-0.114203	-0.168394
C80	C	0.321184	-0.133548	-0.187782
C81	C	0.343783	-0.114094	-0.396315
C82	C	0.361794	-0.098590	-0.380920
C83	C	0.361794	-0.098590	-0.263099
C84	C	0.343783	-0.114094	-0.229693
C85	C	0.479750	0.019366	-0.381054
C86	C	0.510649	0.052771	-0.396557
C87	C	0.440758	-0.356212	-0.028193
C88	C	0.422041	-0.393827	-0.028459
C89	C	0.384158	-0.356213	-0.028190
C90	C	0.365526	-0.393828	-0.028456
C91	C	0.384160	-0.412810	-0.028193
C92	C	0.422038	-0.337315	-0.028456
C93	C	0.567000	-0.264532	-0.017949
C94	C	0.602755	-0.246591	-0.015053
C95	C	0.620692	-0.265931	-0.013601
C96	C	0.659455	-0.246483	-0.010453
C97	C	0.602873	-0.303210	-0.015048
C98	C	0.567125	-0.321146	-0.017949
C99	C	0.549188	-0.301805	-0.019399
C100	C	0.339356	-0.549295	-0.017951
C101	C	0.318645	-0.587947	-0.015055
C102	C	0.279915	-0.607338	-0.013597
C103	C	0.257452	-0.649247	-0.010452
C104	C	0.261899	-0.588073	-0.015042
C105	C	0.282613	-0.549422	-0.017945
C106	C	0.321343	-0.530035	-0.019397
C107	C	0.339344	-0.264537	-0.017936
C108	C	0.318628	-0.246599	-0.015032
C109	C	0.279898	-0.265939	-0.013577
C110	C	0.257433	-0.246493	-0.010426
C111	C	0.261884	-0.303217	-0.015022
C112	C	0.282601	-0.321153	-0.017924
C113	C	0.321334	-0.301808	-0.019385
C114	C	0.510421	-0.321258	-0.022542
C115	C	0.479522	-0.336762	-0.025048
C116	C	0.361696	-0.336765	-0.025041
C117	C	0.343793	-0.321261	-0.022532
C118	C	0.361701	-0.454719	-0.025047
C119	C	0.343799	-0.488125	-0.022541
O120	O	0.223728	0.336934	-0.009323
O121	O	0.159726	0.227482	0.009227
O122	O	0.223729	0.291478	-0.054775
O123	O	0.159725	0.272938	0.054678
O124	O	0.275711	0.291477	-0.054771
O125	O	0.211707	0.227481	0.009230
O126	O	0.275710	0.336932	-0.009320
Cu127	Cu	0.248455	0.282206	-0.000045
Cu128	Cu	0.186981	0.282208	-0.000049
O129	O	0.211707	0.272936	0.054681
O130	O	0.763271	0.337164	-0.496871
O131	O	0.672367	0.227713	-0.451422
O132	O	0.672365	0.291711	-0.451418
O133	O	0.763273	0.273165	-0.496876
O134	O	0.672366	0.291712	-0.503402
O135	O	0.672368	0.227714	-0.503407
O136	O	0.763272	0.337165	-0.548856
Cu137	Cu	0.717820	0.282440	-0.530878
Cu138	Cu	0.717819	0.282438	-0.469400
O139	O	0.763275	0.273167	-0.548860
O140	O	0.211690	-0.214417	-0.548617
O141	O	0.275691	-0.168962	-0.503167
O142	O	0.211689	-0.168964	-0.503163
O143	O	0.275692	-0.214415	-0.548621
O144	O	0.159706	-0.220947	-0.451179
O145	O	0.223708	-0.220945	-0.451183
O146	O	0.159707	-0.266400	-0.496633
Cu147	Cu	0.186961	-0.248419	-0.469161
Cu148	Cu	0.248437	-0.186943	-0.530639
O149	O	0.223709	-0.266398	-0.496637
C150	C	-0.005343	-0.412572	0.361558
C151	C	0.013375	-0.393590	0.380456
C152	C	0.051255	-0.355974	0.304961
C153	C	0.069887	-0.337077	0.323944
C154	C	0.051254	-0.355974	0.361560
C155	C	0.013375	-0.393589	0.323943
C156	C	-0.131582	-0.549057	0.396116
C157	C	-0.167336	-0.587709	0.413930
C158	C	-0.185271	-0.607098	0.451205
C159	C	-0.224034	-0.649009	0.470519
C160	C	-0.167452	-0.587833	0.470666
C161	C	-0.131705	-0.549184	0.452854
C162	C	-0.113770	-0.529796	0.415578
C163	C	0.096061	-0.321414	0.453239
C164	C	0.116773	-0.303600	0.471179
C165	C	0.155502	-0.266327	0.451842
C166	C	0.177965	-0.247011	0.471288
C167	C	0.173517	-0.246866	0.414562
C168	C	0.152802	-0.264677	0.396625
C169	C	0.114073	-0.301955	0.415968
C170	C	0.096064	-0.321412	0.168474
C171	C	0.116779	-0.303599	0.129820
C172	C	0.155508	-0.266324	0.110432
C173	C	0.177972	-0.247009	0.068521
C174	C	0.173522	-0.246865	0.129696
C175	C	0.152807	-0.264680	0.168348
C176	C	0.114075	-0.301953	0.187735
C177	C	-0.075004	-0.487887	0.396265
C178	C	-0.044106	-0.454481	0.380871
C179	C	0.073715	-0.336660	0.263052
C180	C	0.091618	-0.321265	0.229646
C181	C	0.073714	-0.336661	0.381009
C182	C	0.091616	-0.321267	0.396513
C183	C	0.051046	-0.022794	-0.361634
C184	C	0.069679	-0.041778	-0.380530
C185	C	-0.005555	-0.079390	-0.305034
C186	C	0.013163	-0.098288	-0.324016
C187	C	0.051045	-0.079393	-0.361631
C188	C	0.013164	-0.041775	-0.324018
C189	C	0.095858	0.113693	-0.396200
C190	C	0.116571	0.152344	-0.414015
C191	C	0.155302	0.171732	-0.451290
C192	C	0.177767	0.213642	-0.470607
C193	C	0.173317	0.152465	-0.470750
C194	C	0.152600	0.113815	-0.452936
C195	C	0.113869	0.094429	-0.415659
C196	C	0.152973	-0.113959	-0.453306
C197	C	0.173810	-0.131775	-0.471245
C198	C	0.155926	-0.169048	-0.451906
C199	C	0.178519	-0.188366	-0.471350
C200	C	0.117198	-0.188507	-0.414626
C201	C	0.096358	-0.170694	-0.396690
C202	C	0.114251	-0.133416	-0.416035
C203	C	-0.131801	-0.113944	-0.168548
C204	C	-0.167554	-0.131755	-0.129895
C205	C	-0.185491	-0.169029	-0.110504
C206	C	-0.224255	-0.188343	-0.068593
C207	C	-0.167671	-0.188490	-0.129767
C208	C	-0.131918	-0.170677	-0.168418
C209	C	-0.113988	-0.133404	-0.187808
C210	C	0.091411	0.052521	-0.396344
C211	C	0.073508	0.019115	-0.380949
C212	C	-0.044320	-0.098701	-0.263125
C213	C	-0.075220	-0.114094	-0.229719
C214	C	0.073641	-0.098707	-0.381079
C215	C	0.091652	-0.114103	-0.396582
C216	C	-0.615853	-0.356193	0.361535
C217	C	-0.634487	-0.393808	0.380433
C218	C	-0.559253	-0.356195	0.304938
C219	C	-0.577972	-0.393810	0.323921
C220	C	-0.615854	-0.412792	0.361537
C221	C	-0.577972	-0.337297	0.323920
C222	C	-0.660661	-0.264512	0.396093
C223	C	-0.681373	-0.246571	0.413906
C224	C	-0.720104	-0.265909	0.451181
C225	C	-0.742568	-0.246461	0.470495
C226	C	-0.738120	-0.303189	0.470643
C227	C	-0.717405	-0.321125	0.452831
C228	C	-0.678674	-0.301785	0.415554
C229	C	-0.717784	-0.549275	0.453218
C230	C	-0.738622	-0.587926	0.471159
C231	C	-0.720740	-0.607319	0.451822
C232	C	-0.743333	-0.649227	0.471268
C233	C	-0.682012	-0.588055	0.414542
C234	C	-0.661170	-0.549403	0.396604
C235	C	-0.679063	-0.530016	0.415946
C236	C	-0.433006	-0.264522	0.168449
C237	C	-0.397253	-0.246585	0.129796
C238	C	-0.379317	-0.265926	0.110407
C239	C	-0.340553	-0.246480	0.068496
C240	C	-0.397138	-0.303204	0.129672
C241	C	-0.432891	-0.321139	0.168324
C242	C	-0.450820	-0.301793	0.187711
C243	C	-0.656216	-0.321238	0.396242
C244	C	-0.638314	-0.336743	0.380848
C245	C	-0.520488	-0.336748	0.263028
C246	C	-0.489588	-0.321245	0.229622
C247	C	-0.638451	-0.454700	0.380987
C248	C	-0.656463	-0.488106	0.396492
C249	C	0.440756	0.310302	-0.361620
C250	C	0.422038	0.310564	-0.380518
C251	C	0.384160	0.310312	-0.305026
C252	C	0.365528	0.310574	-0.324010
C253	C	0.384159	0.310303	-0.361624
C254	C	0.422038	0.310573	-0.324006
C255	C	0.566989	0.300046	-0.396172
C256	C	0.602741	0.297145	-0.413984
C257	C	0.620675	0.295684	-0.451257
C258	C	0.659436	0.292531	-0.470569
C259	C	0.602857	0.297127	-0.470719
C260	C	0.567111	0.300033	-0.452909
C261	C	0.549177	0.301493	-0.415634
C262	C	0.339351	0.300042	-0.453303
C263	C	0.318640	0.297142	-0.471244
C264	C	0.279912	0.295690	-0.451908
C265	C	0.257449	0.292541	-0.471354
C266	C	0.261899	0.297143	-0.414629
C267	C	0.282613	0.300049	-0.396692
C268	C	0.321341	0.301496	-0.416033
C269	C	0.339354	0.300088	-0.168540
C270	C	0.318640	0.297192	-0.129888
C271	C	0.279912	0.295742	-0.110501
C272	C	0.257450	0.292601	-0.068591
C273	C	0.261898	0.297184	-0.129766
C274	C	0.282612	0.300078	-0.168417
C275	C	0.321344	0.301533	-0.187802
C276	C	0.510413	0.304640	-0.396323
C277	C	0.479516	0.307151	-0.380931
C278	C	0.361701	0.307173	-0.263117
C279	C	0.343799	0.304671	-0.229712
C280	C	0.361700	0.307154	-0.381073
C281	C	0.343798	0.304644	-0.396578
O282	O	0.275503	0.336913	-0.548651
O283	O	0.211494	0.227461	-0.503201
O284	O	0.275490	0.291455	-0.503192
O285	O	0.211507	0.272919	-0.548659
O286	O	0.223502	0.291457	-0.451211
O287	O	0.159506	0.227463	-0.451219
O288	O	0.223515	0.336915	-0.496669
Cu289	Cu	0.186764	0.282189	-0.469197
Cu290	Cu	0.248246	0.282187	-0.530672
O291	O	0.159519	0.272921	-0.496677
C292	C	0.051032	0.254111	0.361530
C293	C	0.013154	0.253851	0.380425
C294	C	0.051031	0.254102	0.304932
C295	C	0.013153	0.253842	0.323913
C296	C	-0.005564	0.254113	0.361527
C297	C	0.069663	0.253840	0.323916
C298	C	0.152954	0.264360	0.396096
C299	C	0.173791	0.267260	0.413911
C300	C	0.155906	0.268721	0.451185
C301	C	0.178502	0.271871	0.470501
C302	C	0.117182	0.267279	0.470643
C303	C	0.096345	0.264374	0.452830
C304	C	0.114233	0.262915	0.415555
C305	C	-0.131796	0.264379	0.453195
C306	C	-0.167548	0.267281	0.471133
C307	C	-0.185483	0.268734	0.451793
C308	C	-0.224243	0.271886	0.471236
C309	C	-0.167664	0.267282	0.414515
C310	C	-0.131919	0.264374	0.396581
C311	C	-0.113984	0.262925	0.415925
C312	C	0.152952	0.264325	0.168451
C313	C	0.173792	0.267221	0.129798
C314	C	0.155907	0.268673	0.110407
C315	C	0.178502	0.271814	0.068498
C316	C	0.117186	0.267232	0.129669
C317	C	0.096350	0.264339	0.168320
C318	C	0.114234	0.262881	0.187709
C319	C	0.091638	0.259769	0.396240
C320	C	0.073627	0.257260	0.380845
C321	C	0.073626	0.257242	0.263024
C322	C	0.091636	0.259743	0.229619
C323	C	-0.044324	0.257264	0.380973
C324	C	-0.075221	0.259775	0.396474
H325	H	0.064802	-0.186523	0.019045
C326	C	0.502966	0.079056	-0.453969
C327	C	0.547520	0.092634	-0.474548
H328	H	0.490801	0.065903	-0.467099
H329	H	0.487239	0.062052	-0.429206
H330	H	0.500642	0.100006	-0.451652
H331	H	0.549844	0.071684	-0.476862
H332	H	0.563252	0.109640	-0.499318
H333	H	0.230097	-0.219111	-0.398135
H334	H	0.100149	0.253421	0.308676
C335	C	0.311429	-0.134497	-0.523214
C336	C	0.337896	-0.110883	-0.511687
H337	H	0.323565	-0.121370	-0.548507
H338	H	0.310393	-0.157202	-0.522619
H339	H	0.282380	-0.140926	-0.506335
H340	H	0.366945	-0.104455	-0.528565
H341	H	0.338938	-0.088170	-0.512285
H342	H	0.230362	0.296001	-0.113978
H343	H	0.230091	-0.219108	-0.114185
H344	H	0.230368	0.295965	-0.398887
C345	C	-0.051230	-0.424681	0.445329
C346	C	-0.007778	-0.414140	0.422187
H347	H	-0.064289	-0.437363	0.471093
H348	H	-0.051061	-0.402442	0.443842
H349	H	-0.067810	-0.441395	0.436750
H350	H	0.008803	-0.397425	0.430764
H351	H	-0.007944	-0.436383	0.423675
C352	C	0.381271	0.328882	-0.537025
C353	C	0.338437	0.295541	-0.512215
H354	H	0.393493	0.327891	-0.562318
H355	H	0.380226	0.350547	-0.536478
H356	H	0.399146	0.330815	-0.529106
H357	H	0.320561	0.293610	-0.520133
H358	H	0.339479	0.273870	-0.512763
H359	H	0.370881	-0.248784	-0.019122
H360	H	0.064321	0.097912	-0.365848
H361	H	-0.769653	-0.318930	0.500992
H362	H	-0.629638	-0.533721	0.366252
H363	H	0.332793	-0.116391	-0.113952
H364	H	0.167518	0.263140	0.184235
C365	C	0.307620	-0.639988	0.020847
C366	C	0.338445	-0.609121	-0.013464
H367	H	0.319844	-0.653060	0.021827
H368	H	0.300519	-0.630776	0.041855
H369	H	0.281593	-0.657064	0.022123
H370	H	0.364471	-0.592043	-0.014739
H371	H	0.345552	-0.618332	-0.034478
C372	C	0.480451	0.311318	-0.328044
C373	C	0.443186	0.311152	-0.303430
H374	H	0.493506	0.311679	-0.315341
H375	H	0.471895	0.288997	-0.335197
H376	H	0.501228	0.333397	-0.350284
H377	H	0.422407	0.289072	-0.281191
H378	H	0.451741	0.333476	-0.296272
H379	H	0.267941	0.301250	-0.184099
H380	H	-0.629125	-0.248761	0.365741
H381	H	-0.770155	-0.603608	0.501511
H382	H	0.167543	-0.083608	-0.469060
C383	C	0.019199	-0.362347	0.477922
C384	C	0.053481	-0.362381	0.474511
H385	H	-0.007089	-0.387638	0.491054
H386	H	0.014470	-0.346072	0.491873
H387	H	0.026965	-0.353314	0.453152
H388	H	0.045716	-0.371411	0.499281
H389	H	0.058210	-0.378662	0.460561
C390	C	0.062334	0.296143	0.483692
C391	C	0.053784	0.262792	0.474215
H392	H	0.036059	0.295167	0.496892
H393	H	0.072178	0.298076	0.499637
H394	H	0.084558	0.317804	0.460973
H395	H	0.031562	0.241131	0.496935
H396	H	0.043933	0.260855	0.458270
H397	H	0.204850	0.168253	-0.501099
H398	H	-0.117197	0.263199	0.468949
H399	H	-0.002510	0.253416	0.308669
C400	C	0.215439	0.296088	0.330255
C401	C	0.172615	0.262752	0.355126
H402	H	0.227576	0.295093	0.304963
H403	H	0.214400	0.317757	0.330847
H404	H	0.233384	0.298018	0.338086
H405	H	0.154669	0.260823	0.347297
H406	H	0.173651	0.241077	0.354532
H407	H	0.102624	0.268416	0.113879
H408	H	-0.666703	-0.216219	0.398058
C409	C	0.570469	0.299774	-0.341882
C410	C	0.547279	0.301652	-0.355201
H411	H	0.558300	0.300767	-0.316589
H412	H	0.568137	0.276500	-0.341869
H413	H	0.600695	0.320787	-0.358153
H414	H	0.517053	0.280637	-0.338931
H415	H	0.549607	0.324929	-0.355211
H416	H	0.370607	-0.083853	-0.468752
H417	H	-0.667447	-0.603843	0.398798
C418	C	0.219976	-0.546282	0.013822
C419	C	0.262807	-0.528251	-0.019528
H420	H	0.207748	-0.533211	0.012846
H421	H	0.202104	-0.572072	0.015752
H422	H	0.221031	-0.545786	0.035485
H423	H	0.261752	-0.528750	-0.041191
H424	H	0.280684	-0.502455	-0.021462
H425	H	0.102633	-0.218858	-0.398880
C426	C	0.443674	0.011835	-0.424379
C427	C	0.443435	-0.020948	-0.422229
H428	H	0.456747	0.024540	-0.450140
H429	H	0.414196	0.004677	-0.408679
H430	H	0.460247	0.028524	-0.415784
H431	H	0.426858	-0.037639	-0.430822
H432	H	0.472917	-0.013791	-0.437935
C433	C	0.210775	0.117818	-0.510800
C434	C	0.172404	0.092640	-0.474322
H435	H	0.223002	0.104746	-0.524001
H436	H	0.203671	0.127021	-0.524710
H437	H	0.231676	0.138760	-0.508427
H438	H	0.151501	0.071699	-0.476696
H439	H	0.179506	0.083432	-0.460409
C440	C	-0.775577	-0.375288	0.510698
C441	C	-0.737207	-0.362100	0.474221
H442	H	-0.787804	-0.400585	0.523902
H443	H	-0.768473	-0.358978	0.524606
H444	H	-0.796480	-0.375249	0.508325
H445	H	-0.716303	-0.362135	0.476594
H446	H	-0.744310	-0.378414	0.460310
H447	H	0.617485	0.168277	-0.501573
H448	H	-0.002512	0.253428	0.411332
H449	H	0.205343	-0.115928	-0.501596
H450	H	-0.447397	-0.351491	0.184007
C451	C	-0.497274	-0.263844	0.203341
C452	C	-0.452718	-0.243260	0.189759
H453	H	-0.509444	-0.250719	0.216499
H454	H	-0.499598	-0.266161	0.182394
H455	H	-0.512996	-0.288609	0.220345
H456	H	-0.436994	-0.218495	0.172752
H457	H	-0.450390	-0.240938	0.210708
H458	H	-0.732353	-0.533492	0.468971
C459	C	0.311907	0.311337	-0.266347
C460	C	0.324386	0.311158	-0.303442
H461	H	0.286511	0.311701	-0.253653
H462	H	0.305293	0.289017	-0.252577
H463	H	0.335453	0.333418	-0.267656
H464	H	0.300841	0.289076	-0.302133
H465	H	0.330998	0.333480	-0.317215
C466	C	0.480448	-0.282944	-0.029194
C467	C	0.443181	-0.295595	-0.029025
H468	H	0.493499	-0.257189	-0.029546
H469	H	0.471893	-0.298658	-0.006877
H470	H	0.501228	-0.284401	-0.051279
H471	H	0.422400	-0.294141	-0.006939
H472	H	0.451735	-0.279877	-0.051344
C473	C	0.123318	0.015893	-0.434901
C474	C	0.110834	-0.021205	-0.422249
H475	H	0.148728	0.028593	-0.460654
H476	H	0.099785	0.014591	-0.433450
H477	H	0.129917	0.029655	-0.419180
H478	H	0.104232	-0.034968	-0.437968
H479	H	0.134372	-0.019905	-0.423703
C480	C	-0.008240	-0.142141	-0.003596
C481	C	-0.008013	-0.139997	0.028955
H482	H	-0.021297	-0.167898	-0.003240
H483	H	-0.024819	-0.133554	-0.003709
H484	H	0.021244	-0.126429	-0.025913
H485	H	-0.037497	-0.155707	0.051272
H486	H	0.008565	-0.148589	0.029072
C487	C	0.289163	-0.373787	-0.022371
C488	C	0.262803	-0.362127	-0.019517
H489	H	0.276938	-0.399083	-0.023351
H490	H	0.318217	-0.356957	-0.044990
H491	H	0.290206	-0.373233	-0.000702
H492	H	0.261762	-0.362678	-0.041187
H493	H	0.233741	-0.378962	0.003105
C494	C	-0.077169	0.259922	0.343951
C495	C	-0.112334	0.262778	0.355607
H496	H	-0.065080	0.258935	0.318656
H497	H	-0.055012	0.281588	0.344503
H498	H	-0.087570	0.237301	0.360787
H499	H	-0.101932	0.285400	0.338773
H500	H	-0.134495	0.241109	0.355053
H501	H	0.617704	0.168507	-0.398859
H502	H	0.552845	0.098385	-0.366316
H503	H	0.230346	-0.318966	-0.013835
C504	C	0.666873	0.326527	-0.413100
C505	C	0.622324	0.295555	-0.392592
H506	H	0.678960	0.325546	-0.399891
H507	H	0.682665	0.325240	-0.437843
H508	H	0.669204	0.349802	-0.415468
H509	H	0.619993	0.272280	-0.390227
H510	H	0.606527	0.296839	-0.367842
H511	H	0.101900	0.168027	-0.398169
H512	H	0.100368	-0.306171	0.308703
C513	C	0.250709	0.303162	0.389036
C514	C	0.216357	0.268850	0.392523
H515	H	0.276987	0.304142	0.375833
H516	H	0.255406	0.324168	0.375126
H517	H	0.243033	0.304441	0.413787
H518	H	0.224031	0.267572	0.367772
H519	H	0.211660	0.247838	0.406433
C520	C	0.227807	-0.591435	-0.046790
C521	C	0.219331	-0.609385	-0.013447
H522	H	0.201526	-0.604594	-0.045805
H523	H	0.237560	-0.565663	-0.048720
H524	H	0.250077	-0.591878	-0.068457
H525	H	0.197062	-0.608939	0.008221
H526	H	0.209571	-0.635163	-0.011513
H527	H	-0.382753	-0.216236	0.114110
H528	H	-0.002293	-0.408830	0.308704
C529	C	-0.076750	-0.489746	0.343628
C530	C	-0.111887	-0.527741	0.355152
H531	H	-0.064593	-0.476586	0.318340
H532	H	-0.087196	-0.477583	0.360515
H533	H	-0.054628	-0.489304	0.344209
H534	H	-0.134011	-0.528184	0.354574
H535	H	-0.101442	-0.539907	0.338261
C536	C	0.657707	0.292665	-0.523212
C537	C	0.622568	0.295521	-0.511688
H538	H	0.669873	0.291671	-0.548504
H539	H	0.679819	0.314335	-0.522618
H540	H	0.647257	0.270048	-0.506331
H541	H	0.633019	0.318140	-0.528567
H542	H	0.600453	0.273849	-0.512285
C543	C	0.022644	0.011571	-0.301517
C544	C	-0.007986	-0.021202	-0.303442
H545	H	0.009586	0.024271	-0.288816
H546	H	0.031186	0.004403	-0.287748
H547	H	0.047929	0.028269	-0.326684
H548	H	-0.033270	-0.037901	-0.278275
H549	H	-0.016535	-0.014034	-0.317211
C550	C	0.183070	-0.263795	0.331609
C551	C	0.172602	-0.243287	0.355651
H552	H	0.195292	-0.250590	0.306314
H553	H	0.203977	-0.266159	0.331644
H554	H	0.157038	-0.288542	0.340564
H555	H	0.198635	-0.218541	0.346698
H556	H	0.151694	-0.240918	0.355615
C557	C	0.224417	-0.228589	-0.341879
C558	C	0.262803	-0.192082	-0.355196
H559	H	0.212282	-0.241714	-0.316586
H560	H	0.203462	-0.226270	-0.341868
H561	H	0.231477	-0.242544	-0.358151
H562	H	0.255743	-0.178126	-0.338926
H563	H	0.283762	-0.194399	-0.355205
C564	C	0.550721	-0.239872	-0.053863
C565	C	0.547285	-0.243275	-0.019552
H566	H	0.538545	-0.226753	-0.054852
H567	H	0.580945	-0.225912	-0.074871
H568	H	0.534994	-0.264644	-0.055132
H569	H	0.563015	-0.218503	-0.018284
H570	H	0.517055	-0.257235	0.001462
C571	C	-0.342269	-0.300849	0.070372
C572	C	-0.377418	-0.324463	0.108365
H573	H	-0.330093	-0.313972	0.057221
H574	H	-0.352710	-0.294424	0.058194
H575	H	-0.320164	-0.278138	0.069937
H576	H	-0.399525	-0.347173	0.108800
H577	H	-0.366978	-0.330893	0.120546
C578	C	-0.222314	-0.133866	0.010511
C579	C	-0.187147	-0.110358	0.013365
H580	H	-0.234402	-0.120659	0.009528
H581	H	-0.211917	-0.140302	-0.012107
H582	H	-0.244475	-0.156576	0.032182
H583	H	-0.164985	-0.087649	-0.008307
H584	H	-0.197544	-0.103916	0.035985
H585	H	-0.002509	-0.129196	-0.308775
C586	C	0.058607	-0.361463	0.133827
C587	C	0.096977	-0.324987	0.108646
H588	H	0.046380	-0.374666	0.120755
H589	H	0.065711	-0.375372	0.143031
H590	H	0.037704	-0.359089	0.154768
H591	H	0.117881	-0.327362	0.087706
H592	H	0.089874	-0.311076	0.099436
H593	H	0.552607	0.301210	-0.468757
H594	H	0.267945	0.301232	-0.366341
C595	C	0.058614	-0.361474	0.525336
C596	C	0.096978	-0.324994	0.512151
H597	H	0.046397	-0.374682	0.550629
H598	H	0.037705	-0.359106	0.525309
H599	H	0.065725	-0.375375	0.509014
H600	H	0.089866	-0.311091	0.528471
H601	H	0.117891	-0.327360	0.512180
H602	H	0.064825	-0.186540	-0.366338
C603	C	0.042486	0.264634	0.164313
C604	C	0.053786	0.262751	0.189492
H605	H	0.016207	0.263652	0.177385
H606	H	0.065794	0.287905	0.143373
H607	H	0.037786	0.243617	0.155109
H608	H	0.058489	0.283769	0.198694
H609	H	0.030472	0.239477	0.210439
C610	C	0.311907	-0.451498	-0.029206
C611	C	0.324377	-0.414405	-0.029027
H612	H	0.286503	-0.464201	-0.029557
H613	H	0.335449	-0.450187	-0.051290
H614	H	0.305307	-0.465262	-0.006889
H615	H	0.330980	-0.400639	-0.051347
H616	H	0.300830	-0.415714	-0.006941
C617	C	0.392928	-0.060038	-0.164386
C618	C	0.381630	-0.073226	-0.189566
H619	H	0.419203	-0.034740	-0.177457
H620	H	0.369616	-0.060078	-0.143445
H621	H	0.397634	-0.076349	-0.155184
H622	H	0.376921	-0.056917	-0.198766
H623	H	0.404948	-0.073183	-0.210514
H624	H	0.102606	-0.218843	0.013783
C625	C	0.101046	-0.041495	0.061859
C626	C	0.110798	-0.021194	0.028955
H627	H	0.126448	-0.028800	0.062213
H628	H	0.077511	-0.042790	0.083935
H629	H	0.092571	-0.066663	0.061741
H630	H	0.119270	0.003973	0.029075
H631	H	0.134340	-0.019895	0.006874
H632	H	0.437707	0.310988	-0.411425
H633	H	0.333309	0.296016	-0.114204
C634	C	0.393360	0.299803	-0.164778
C635	C	0.381925	0.301684	-0.189849
H636	H	0.419640	0.300786	-0.177934
H637	H	0.398107	0.320816	-0.155568
H638	H	0.370090	0.276528	-0.143831
H639	H	0.405194	0.324961	-0.210794
H640	H	0.377181	0.280670	-0.199064
H641	H	0.370885	0.301223	-0.469054
H642	H	-0.117412	-0.186525	-0.184100
H643	H	0.617482	-0.318952	-0.013867
C644	C	0.123997	0.271748	0.523137
C645	C	0.097529	0.268891	0.511610
H646	H	0.111865	0.272747	0.548427
H647	H	0.125029	0.250076	0.522549
H648	H	0.153048	0.294362	0.506254
H649	H	0.068479	0.246274	0.528491
H650	H	0.096493	0.290565	0.512201
H651	H	-0.182279	-0.218843	-0.113977
C652	C	-0.076962	-0.061437	0.022313
C653	C	-0.112104	-0.072965	0.019462
H654	H	-0.064794	-0.036143	0.023301
H655	H	-0.087407	-0.078311	0.044928
H656	H	-0.054850	-0.062034	0.000640
H657	H	-0.134218	-0.072370	0.041137
H658	H	-0.101660	-0.056086	-0.003156
H659	H	0.205322	0.268398	0.114116
H660	H	0.437709	-0.409066	-0.028885
H661	H	0.617258	-0.216240	-0.013873
H662	H	-0.182052	0.268464	0.501484
C663	C	0.376799	-0.192434	-0.015337
C664	C	0.338428	-0.205624	-0.013443
H665	H	0.389025	-0.167137	-0.014359
H666	H	0.369696	-0.208744	0.005674
H667	H	0.397702	-0.192472	-0.038615
H668	H	0.317524	-0.205589	0.009837
H669	H	0.345530	-0.189310	-0.034455
H670	H	0.335269	-0.128941	-0.308748
H671	H	-0.664969	-0.409045	0.411340
C672	C	0.570829	-0.375309	-0.017650
C673	C	0.547539	-0.362121	-0.019538
H674	H	0.558735	-0.400607	-0.018627
H675	H	0.601046	-0.359000	-0.038663
H676	H	0.568495	-0.375271	0.005626
H677	H	0.549876	-0.362156	-0.042815
H678	H	0.517314	-0.378435	0.001477
H679	H	-0.562304	-0.409050	0.308680
C680	C	-0.222514	0.271736	0.416865
C681	C	-0.187376	0.268877	0.393254
H682	H	-0.234680	0.272725	0.403738
H683	H	-0.244626	0.250070	0.439574
H684	H	-0.212064	0.294357	0.423292
H685	H	-0.197827	0.246255	0.386830
H686	H	-0.165261	0.290546	0.370539
C687	C	0.412779	-0.019014	-0.270651
C688	C	0.443417	-0.020938	-0.303420
H689	H	0.425834	-0.006302	-0.257952
H690	H	0.404229	-0.005256	-0.277824
H691	H	0.387500	-0.044181	-0.253949
H692	H	0.468695	0.004229	-0.320123
H693	H	0.451973	-0.034696	-0.296247
C694	C	-0.222537	-0.240984	0.010502
C695	C	-0.187398	-0.229458	0.013357
H696	H	-0.234704	-0.266277	0.009512
H697	H	-0.244648	-0.240386	0.032170
H698	H	-0.212087	-0.224107	-0.012118
H699	H	-0.197849	-0.246333	0.035979
H700	H	-0.165283	-0.230058	-0.008313
C701	C	0.146133	-0.061444	0.022328
C702	C	0.172601	-0.072970	0.019475
H703	H	0.158271	-0.036150	0.023316
H704	H	0.145096	-0.062043	0.000659
H705	H	0.117085	-0.078320	0.044947
H706	H	0.201649	-0.056096	-0.003146
H707	H	0.173643	-0.072368	0.041146
C708	C	-0.581261	-0.282921	0.327961
C709	C	-0.556816	-0.295574	0.303345
H710	H	-0.568197	-0.257163	0.315259
H711	H	-0.610736	-0.298629	0.335115
H712	H	-0.581421	-0.284385	0.350200
H713	H	-0.556659	-0.294113	0.281107
H714	H	-0.527334	-0.279862	0.296186
H715	H	-0.117435	-0.186523	0.019040
H716	H	-0.002524	-0.026519	0.028802
C717	C	0.207813	0.155509	0.046718
C718	C	0.216353	0.173534	0.013372
H719	H	0.234093	0.168580	0.045732
H720	H	0.185598	0.156008	0.068381
H721	H	0.197961	0.129715	0.048651
H722	H	0.226201	0.199328	0.011441
H723	H	0.238574	0.173039	-0.008297
H724	H	0.370892	-0.533512	-0.019136
C725	C	0.227634	-0.073893	0.015287
C726	C	0.216339	-0.110369	0.013394
H727	H	0.253907	-0.060691	0.014314
H728	H	0.232341	-0.059984	-0.005727
H729	H	0.204317	-0.076266	0.038562
H730	H	0.239654	-0.107996	-0.009883
H731	H	0.211634	-0.124281	0.034409
C732	C	0.019204	-0.362354	0.220662
C733	C	0.053490	-0.362383	0.189788
H734	H	-0.007079	-0.387648	0.233821
H735	H	0.026972	-0.353313	0.237661
H736	H	0.014463	-0.346088	0.211442
H737	H	0.058233	-0.378647	0.199009
H738	H	0.045721	-0.371429	0.172787
H739	H	-0.181841	-0.603391	0.398082
C740	C	-0.222304	-0.647140	0.523161
C741	C	-0.187165	-0.609146	0.511635
H742	H	-0.234470	-0.660297	0.548453
H743	H	-0.244415	-0.647581	0.522567
H744	H	-0.211855	-0.659310	0.506281
H745	H	-0.197614	-0.596976	0.528514
H746	H	-0.165049	-0.608703	0.512232
C747	C	-0.144793	-0.528739	0.507724
C748	C	-0.112121	-0.528007	0.474244
H749	H	-0.132702	-0.515668	0.520930
H750	H	-0.155184	-0.516514	0.501286
H751	H	-0.168648	-0.554534	0.523666
H752	H	-0.088266	-0.502212	0.458301
H753	H	-0.101723	-0.540232	0.480681
C754	C	0.215431	0.110349	-0.013870
C755	C	0.172608	0.092398	0.019469
H756	H	0.227568	0.097193	-0.012877
H757	H	0.214392	0.109902	-0.035538
H758	H	0.233378	0.136124	-0.015800
H759	H	0.154661	0.066623	0.021397
H760	H	0.173645	0.092841	0.041143
C761	C	0.209080	-0.181923	0.413891
C762	C	0.216085	-0.205894	0.393305
H763	H	0.235362	-0.156630	0.400767
H764	H	0.185817	-0.181915	0.416208
H765	H	0.201318	-0.190967	0.438657
H766	H	0.223844	-0.196852	0.368539
H767	H	0.239355	-0.205901	0.390983
C768	C	0.087127	0.187380	0.044329
C769	C	0.097518	0.173797	0.013355
H770	H	0.074991	0.200538	0.043340
H771	H	0.066171	0.166434	0.067601
H772	H	0.113174	0.204384	0.043048
H773	H	0.071470	0.156791	0.014637
H774	H	0.118476	0.194746	-0.009923
C775	C	0.062326	0.110687	-0.013908
C776	C	0.053777	0.092660	0.019442
H777	H	0.036051	0.097612	-0.012931
H778	H	0.072171	0.136476	-0.015840
H779	H	0.084549	0.110191	-0.035571
H780	H	0.031555	0.093158	0.041105
H781	H	0.043926	0.066864	0.021378
C782	C	0.224411	-0.228585	-0.164762
C783	C	0.262802	-0.192080	-0.189832
H784	H	0.212272	-0.241707	-0.177919
H785	H	0.231464	-0.242543	-0.155551
H786	H	0.203458	-0.226260	-0.143815
H787	H	0.283757	-0.194404	-0.210777
H788	H	0.255750	-0.178118	-0.199048
H789	H	0.205059	-0.216514	0.113907
C790	C	0.210970	-0.206810	0.164346
C791	C	0.172605	-0.243289	0.189524
H792	H	0.223191	-0.193604	0.177420
H793	H	0.231876	-0.209179	0.143407
H794	H	0.203860	-0.192906	0.155139
H795	H	0.179716	-0.257194	0.198728
H796	H	0.151695	-0.240922	0.210469
H797	H	-0.117212	-0.083598	-0.184336
C798	C	-0.163852	-0.073888	-0.133904
C799	C	-0.187141	-0.110364	-0.108722
H800	H	-0.175947	-0.060684	-0.120833
H801	H	-0.133634	-0.059981	-0.143109
H802	H	-0.166187	-0.076264	-0.154845
H803	H	-0.184803	-0.107989	-0.087783
H804	H	-0.217366	-0.124275	-0.099511
