data_functionalizedCrystal
_audit_creation_method	'MofGen! by Chris Wilmer'
_symmetry_space_group_name_H-M	'P1'
_symmetry_Int_Tables_number	1
_symmetry_cell_setting	triclinic
loop_
_symmetry_equiv_pos_as_xyz
  x,y,z
_cell_length_a	9.065218
_cell_length_b	14.750779
_cell_length_c	9.065218
_cell_angle_alpha	77.168743
_cell_angle_beta	94.984115
_cell_angle_gamma	77.167641
loop_
_atom_site_label
_atom_site_type_symbol
_atom_site_fract_x
_atom_site_fract_y
_atom_site_fract_z
O1	O	1.928800	0.079824	-0.247942
O2	O	1.499514	0.079825	-0.265689
O3	O	1.723031	0.079822	-0.042172
O4	O	1.705283	0.079826	-0.471458
O5	O	1.786217	-0.079829	0.021007
O6	O	1.562700	-0.079826	-0.202510
O7	O	1.991985	-0.079827	-0.184763
Zn8	Zn	1.787375	-0.105175	-0.183606
Zn9	Zn	1.704125	0.105172	-0.266846
O10	O	1.768469	-0.079825	-0.408280
C11	C	1.476121	-0.000001	-0.232394
C12	C	1.312277	-0.000000	-0.227294
N13	N	1.844201	-0.248731	-0.126796
C14	C	1.488601	-0.600545	-0.482242
C15	C	1.528432	-0.701045	-0.442443
C16	C	1.726399	-0.701010	-0.244593
C17	C	1.686579	-0.600508	-0.284371
C18	C	1.567680	-0.550284	-0.403197
C19	C	1.765658	-0.550247	-0.205326
C20	C	1.725846	-0.449754	-0.245106
C21	C	1.606956	-0.399523	-0.363931
C22	C	1.527869	-0.449791	-0.442977
C23	C	1.884564	-0.600473	-0.086507
C24	C	1.963643	-0.550212	-0.007463
C25	C	1.923824	-0.449717	-0.047235
C26	C	1.804933	-0.399486	-0.166060
C27	C	2.002911	-0.399448	0.031811
C28	C	1.963100	-0.298956	-0.007969
C29	C	1.765122	-0.298993	-0.205840
C30	C	2.015378	0.000000	-0.218059
C31	C	2.179219	0.000006	-0.223161
C32	C	1.752918	-0.000002	0.044403
C33	C	1.747816	0.000003	0.208244
N34	N	1.647310	0.248729	-0.323645
C35	C	1.738581	0.000001	-0.494856
C36	C	1.743680	0.000003	-0.658700
H37	H	1.574547	-0.317695	-0.396323
O38	O	1.360346	-0.546348	-0.610386
H39	H	1.388297	-0.565615	-0.718064
H40	H	1.464027	-0.741963	-0.506823
H41	H	2.060455	-0.591116	0.089283
O42	O	1.399625	-0.395607	-0.571140
H43	H	1.351320	-0.447437	-0.619431
H44	H	1.823211	-0.741914	-0.147847
O45	O	1.636867	-0.244796	-0.333985
H46	H	1.664817	-0.264062	-0.441662
O47	O	1.927520	-0.708863	-0.043591
H48	H	1.827497	-0.735381	-0.007932
O49	O	2.131154	-0.453621	0.159965
H50	H	2.145550	-0.531945	0.174348
O51	O	2.048375	-0.244733	0.077287
H52	H	2.137728	-0.296540	0.166609
