data_functionalizedCrystal
_audit_creation_method	'MofGen! by Chris Wilmer'
_symmetry_space_group_name_H-M	'P1'
_symmetry_Int_Tables_number	1
_symmetry_cell_setting	triclinic
loop_
_symmetry_equiv_pos_as_xyz
  x,y,z
_cell_length_a	11.169417
_cell_length_b	18.101395
_cell_length_c	11.169409
_cell_angle_alpha	89.964384
_cell_angle_beta	89.979747
_cell_angle_gamma	90.032353
loop_
_atom_site_label
_atom_site_type_symbol
_atom_site_fract_x
_atom_site_fract_y
_atom_site_fract_z
Zn1	Zn	1.834798	-0.294745	-0.678505
Zn2	Zn	1.834612	-0.418612	-0.477810
Zn3	Zn	1.634081	-0.294791	-0.477840
Zn4	Zn	1.634019	-0.418552	-0.678456
O5	O	1.734377	-0.356675	-0.578153
O6	O	2.002723	-0.311182	-0.651890
O7	O	1.807960	-0.402231	-0.309864
O8	O	1.660811	-0.191152	-0.504492
O9	O	2.002586	-0.402186	-0.504440
O10	O	1.808276	-0.191119	-0.651919
O11	O	1.660630	-0.311260	-0.309887
O12	O	1.466123	-0.311203	-0.504445
O13	O	1.660704	-0.402085	-0.846412
O14	O	1.466077	-0.402129	-0.651836
O15	O	1.808216	-0.311125	-0.846448
O16	O	1.807899	-0.522237	-0.504393
O17	O	1.660524	-0.522193	-0.651807
C18	C	1.422553	-0.356665	-0.578139
C19	C	1.289153	-0.356679	-0.578162
C20	C	1.734217	-0.549086	-0.578118
C21	C	1.734258	-0.631400	-0.578143
C22	C	1.734521	-0.930491	-0.578207
C23	C	1.642012	-0.899169	-0.671186
C24	C	1.641572	-0.813551	-0.670895
C25	C	1.734391	-0.782108	-0.578176
C26	C	1.700137	-0.813271	-0.451690
C27	C	1.699541	-0.898916	-0.452246
C28	C	1.861486	-0.898830	-0.610602
C29	C	1.860740	-0.813178	-0.613375
C30	C	1.734319	-0.698249	-0.578151
C31	C	1.734590	-1.014350	-0.578224
C32	C	2.047420	-0.356686	-0.578167
C33	C	2.180820	-0.356690	-0.578174
C34	C	1.734474	-0.356593	-0.891195
C35	C	1.734515	-0.356558	-1.024596
C36	C	1.734571	-0.163513	-0.578215
C37	C	1.734654	-0.081199	-0.578241
C38	C	1.734351	-0.356703	-0.266328
C39	C	1.734542	-0.356530	-0.132929
H40	H	1.663231	-0.919708	-0.765279
O41	O	1.588740	-0.922713	-0.419546
C42	C	1.389077	-0.888369	-0.359783
C43	C	1.514501	-0.861324	-0.396823
H44	H	1.329027	-0.838750	-0.341377
H45	H	1.348894	-0.922879	-0.435085
H46	H	1.396486	-0.923508	-0.275375
H47	H	1.507196	-0.826155	-0.481202
H48	H	1.554638	-0.826854	-0.321449
O49	O	1.776429	-0.923520	-0.366688
C50	C	1.916300	-0.890638	-0.211374
C51	C	1.829254	-0.862678	-0.308212
H52	H	1.959051	-0.841462	-0.164086
H53	H	1.865263	-0.925565	-0.143407
H54	H	1.989095	-0.925594	-0.255004
H55	H	1.756440	-0.827692	-0.264687
H56	H	1.880374	-0.827791	-0.376168
H57	H	1.548475	-0.920759	-0.649999
H58	H	1.547463	-0.793131	-0.649438
H59	H	1.765397	-0.792907	-0.380525
H60	H	1.608309	-0.791890	-0.423756
O61	O	1.898808	-0.924394	-0.718818
C62	C	1.959937	-0.893418	-0.919594
C63	C	1.917723	-0.864365	-0.797087
H64	H	1.975218	-0.844900	-0.982916
H65	H	2.047118	-0.925351	-0.908004
H66	H	1.888638	-0.931525	-0.958581
H67	H	1.988939	-0.826229	-0.758032
H68	H	1.830513	-0.832475	-0.808752
O69	O	1.891776	-0.788874	-0.724365
C70	C	2.033565	-0.720076	-0.842915
C71	C	1.998573	-0.747551	-0.717147
H72	H	2.119899	-0.686647	-0.837118
H73	H	2.047688	-0.769441	-0.904650
H74	H	1.958951	-0.683754	-0.880078
H75	H	2.073143	-0.783859	-0.679876
H76	H	1.984408	-0.698152	-0.655494
O77	O	1.667085	-0.788530	-0.782867
C78	C	1.714068	-0.820653	-0.986868
C79	C	1.685176	-0.849084	-0.860115
H80	H	1.728727	-0.869596	-1.049353
H81	H	1.636266	-0.785844	-1.021189
H82	H	1.798690	-0.785461	-0.983875
H83	H	1.600589	-0.884306	-0.863007
H84	H	1.763046	-0.883853	-0.825843
O85	O	1.947401	-0.787771	-0.538452
C86	C	2.101153	-0.819058	-0.395914
C87	C	2.003074	-0.847931	-0.480755
H88	H	2.146175	-0.867682	-0.349223
H89	H	2.170687	-0.786918	-0.449581
H90	H	2.059142	-0.781186	-0.326061
H91	H	2.044978	-0.885832	-0.550624
H92	H	1.933553	-0.880028	-0.427007
O93	O	1.943715	-0.923120	-0.529918
C94	C	2.040898	-1.028376	-0.440501
C95	C	1.947772	-1.000961	-0.531938
H96	H	2.044191	-1.091313	-0.442086
H97	H	2.132787	-1.005262	-0.464537
H98	H	2.014598	-1.008841	-0.347117
H99	H	1.973960	-1.020486	-0.625354
H100	H	1.855907	-1.024069	-0.507798
