data_functionalizedCrystal
_audit_creation_method	'MofGen! by Chris Wilmer'
_symmetry_space_group_name_H-M	'P1'
_symmetry_Int_Tables_number	1
_symmetry_cell_setting	triclinic
loop_
_symmetry_equiv_pos_as_xyz
  x,y,z
_cell_length_a	27.440280
_cell_length_b	16.704494
_cell_length_c	16.704495
_cell_angle_alpha	54.477050
_cell_angle_beta	85.840603
_cell_angle_gamma	63.425370
loop_
_atom_site_label
_atom_site_type_symbol
_atom_site_fract_x
_atom_site_fract_y
_atom_site_fract_z
Zr1	Zr	0.503610	0.878466	-0.150436
O2	O	0.437072	1.045927	-0.287229
O3	O	0.520114	0.711013	-0.102526
O4	O	0.533130	0.878459	-0.278591
O5	O	0.418217	0.878485	0.020923
O6	O	0.613331	0.878443	-0.278574
O7	O	0.424055	0.878482	-0.111164
O8	O	0.590048	0.578913	0.036374
O9	O	0.441501	1.178014	-0.294026
O10	O	0.591710	0.779874	-0.089299
O11	O	0.527499	0.779888	0.009263
O12	O	0.542824	0.977033	-0.198031
O13	O	0.478614	0.977047	-0.099469
Zr14	Zr	0.622211	0.878446	0.060255
Zr15	Zr	0.631522	0.878441	-0.150408
Zr16	Zr	0.494298	0.878470	0.060228
Zr17	Zr	0.510674	1.089129	-0.161275
Zr18	Zr	0.615147	0.667783	0.071095
O19	O	0.605707	1.045899	0.012346
O20	O	0.618946	1.045892	-0.287190
O21	O	0.423832	1.045934	0.012307
O22	O	0.688749	0.710984	0.197049
O23	O	0.701988	0.710978	-0.102487
O24	O	0.506874	0.711019	0.197010
O25	O	0.707603	0.878427	-0.111103
O26	O	0.592690	0.878453	0.188411
O27	O	0.512489	0.878469	0.188394
O28	O	0.701765	0.878430	0.020984
O29	O	0.543174	1.177995	-0.294004
O30	O	0.582646	0.578917	0.203823
O31	O	0.684319	0.578897	0.203845
O32	O	0.691721	0.578894	0.036396
O33	O	0.434099	1.178018	-0.126577
O34	O	0.535773	1.177998	-0.126555
O35	O	0.582996	0.779878	0.107851
O36	O	0.647206	0.779865	0.009289
O37	O	0.598321	0.977024	-0.099443
O38	O	0.534110	0.977038	-0.000881
C39	C	0.554074	0.614948	-0.031532
C40	C	0.551075	0.525516	-0.026930
C41	C	0.402912	0.878487	-0.045125
C42	C	0.348609	0.878497	-0.045136
C43	C	0.612490	0.357433	-0.121175
C44	C	0.609674	0.273404	-0.116854
C45	C	0.542631	0.273420	-0.013961
C46	C	0.545447	0.357450	-0.018282
C47	C	0.580377	0.399455	-0.071892
C48	C	0.583189	0.483491	-0.076219
C49	C	0.516150	0.483501	0.026680
C50	C	0.513334	0.399471	0.031001
C51	C	0.037424	0.775522	0.011695
C52	C	-0.013595	0.775516	0.011704
O53	O	-0.018282	0.687990	0.060004
N54	N	-0.064629	0.878430	-0.045054
C55	C	-0.064644	0.981357	-0.101816
O56	O	-0.112738	1.068892	-0.150092
C57	C	-0.013626	0.981362	-0.101819
C58	C	0.037408	0.878441	-0.045066
C59	C	0.088456	0.672610	0.068445
C60	C	0.139472	0.672616	0.068434
C61	C	0.139455	0.775535	0.011673
C62	C	0.088424	0.878448	-0.045076
C63	C	-0.013641	1.084288	-0.158575
C64	C	0.037382	1.084284	-0.158572
C65	C	0.088416	0.981363	-0.101819
C66	C	0.139423	0.981374	-0.101848
N67	N	0.190457	0.878460	-0.045090
C68	C	0.190473	0.775540	0.011671
C69	C	-0.171784	0.981338	-0.101805
C70	C	-0.222801	0.981334	-0.101809
C71	C	-0.171748	0.775493	0.011713
C72	C	-0.120730	0.775498	0.011711
C73	C	-0.120749	0.878424	-0.045047
C74	C	0.297608	0.775562	0.011643
C75	C	0.348626	0.775578	0.011624
C76	C	0.297568	0.981419	-0.101893
C77	C	0.246555	0.981404	-0.101879
C78	C	0.246578	0.878466	-0.045103
O79	O	0.144153	1.068854	-0.150119
O80	O	0.238569	0.688019	0.059949
C81	C	0.722909	0.878425	-0.045056
C82	C	0.777211	0.878415	-0.045044
C83	C	0.574557	0.878450	-0.308598
C84	C	0.578510	0.878448	-0.398030
C85	C	0.571746	1.141964	-0.058649
C86	C	0.574745	1.231396	-0.063250
C87	C	0.497555	0.878482	-0.566114
C88	C	0.501267	0.878481	-0.650144
C89	C	0.589643	0.878451	-0.650124
C90	C	0.585932	0.878453	-0.566095
C91	C	0.539886	0.878467	-0.524092
C92	C	0.536177	0.878460	-0.440056
C93	C	0.624551	0.878439	-0.440043
C94	C	0.628263	0.878437	-0.524072
C95	C	0.551263	0.878462	0.218417
C96	C	0.547310	0.878464	0.307849
C97	C	0.714073	0.614917	-0.031497
C98	C	0.765376	0.525475	-0.026884
C99	C	0.542427	0.614954	0.231976
C100	C	0.535475	0.525524	0.326010
C101	C	0.702426	0.614923	0.232011
C102	C	0.749776	0.525482	0.326056
C103	C	0.423395	1.141989	-0.322191
C104	C	0.376044	1.231429	-0.416236
C105	C	0.411747	1.141994	-0.058683
C106	C	0.360444	1.231437	-0.063297
C107	C	0.583393	1.141958	-0.322156
C108	C	0.590345	1.231388	-0.416190
C109	C	0.760500	0.483476	-0.076188
C110	C	0.808702	0.399447	-0.071873
C111	C	0.861777	0.357412	-0.018248
C112	C	0.866652	0.399419	0.031057
C113	C	0.818452	0.483452	0.026736
C114	C	0.561179	0.483522	0.421640
C115	C	0.554645	0.399504	0.510002
C116	C	0.522410	0.357485	0.502732
C117	C	0.496703	0.399495	0.407092
C118	C	0.503234	0.483517	0.318732
C119	C	0.805535	0.483473	0.318772
C120	C	0.850031	0.399446	0.407129
C121	C	0.838767	0.357424	0.502769
C122	C	0.783003	0.399441	0.510051
C123	C	0.738508	0.483473	0.421694
C124	C	0.320286	1.273449	-0.408953
C125	C	0.275791	1.357502	-0.497312
C126	C	0.287055	1.399529	-0.592952
C127	C	0.342819	1.357506	-0.600233
C128	C	0.387313	1.273460	-0.511876
C129	C	0.365321	1.273444	-0.014002
C130	C	0.317121	1.357496	-0.018341
C131	C	0.264046	1.399534	-0.071969
C132	C	0.259171	1.357524	-0.121270
C133	C	0.307370	1.273479	-0.116937
C134	C	0.622583	1.273381	-0.408887
C135	C	0.629126	1.357399	-0.497233
C136	C	0.603427	1.399428	-0.592881
C137	C	0.571187	1.357427	-0.600181
C138	C	0.564648	1.273405	-0.511836
H139	H	0.611629	0.517694	-0.119874
H140	H	0.901021	0.288986	-0.014737
Br141	Br	0.323750	1.414490	0.048577
Br142	Br	0.604932	0.540524	0.431534
H143	H	0.909873	0.365182	0.074717
Br144	Br	0.358096	1.414552	-0.730038
H145	H	0.460066	0.878483	-0.531909
H146	H	0.311103	1.239236	-0.331086
Br147	Br	0.473690	0.878472	-0.383049
Br148	Br	0.452958	0.342456	0.397243
Br149	Br	0.443814	0.878510	-0.707177
Br150	Br	0.200117	1.414514	-0.487406
Br151	Br	0.589537	0.342506	0.639785
Br152	Br	0.925705	0.342437	0.397224
H153	H	0.814717	0.517675	0.240906
H154	H	0.250819	1.467964	-0.664890
Br155	Br	0.662836	0.540471	0.431598
Br156	Br	0.437346	1.216415	0.058784
Br157	Br	0.513552	0.243454	0.622661
Br158	Br	0.462985	1.216437	-0.521778
H159	H	0.627129	0.878451	-0.684340
H160	H	0.088479	0.588796	0.114671
Br161	Br	0.899160	0.243380	0.622673
Br162	Br	0.198637	1.513597	-0.077840
H163	H	0.717289	0.517701	-0.119868
Br164	Br	0.187134	1.414585	-0.194044
H165	H	0.665751	0.878430	-0.558283
H166	H	0.303391	1.239279	-0.157076
H167	H	0.804721	0.365256	-0.112024
H168	H	0.643512	1.239173	-0.331014
H169	H	0.655378	1.391587	-0.491270
H170	H	0.608756	1.467845	-0.664810
Br171	Br	-0.171735	0.635815	0.088745
H172	H	0.773839	0.365215	0.587932
Br173	Br	0.536308	1.414489	-0.729998
Br174	Br	0.465940	0.342442	0.103770
H175	H	0.659021	0.878422	-0.405816
H176	H	0.640927	0.391642	-0.164835
H177	H	0.822429	0.517636	0.066892
H178	H	0.538394	1.239224	-0.517796
H179	H	0.635824	0.239191	-0.156984
H180	H	0.514200	0.239193	0.029699
H181	H	0.482304	0.517704	0.240869
H182	H	0.489999	0.517728	0.066805
H183	H	0.297635	0.691741	0.057877
Br184	Br	0.417885	0.635891	0.088647
H185	H	-0.079180	0.691691	0.057933
Br186	Br	0.208725	0.532931	0.145467
H187	H	-0.171807	1.065158	-0.148029
Br188	Br	-0.292055	1.121018	-0.178852
H189	H	0.037360	1.168101	-0.204780
Br190	Br	0.177295	1.121082	-0.178926
Br191	Br	-0.082891	1.223975	-0.235595
H192	H	0.297565	1.065213	-0.148110
