data_functionalizedCrystal
_audit_creation_method	'MofGen! by Chris Wilmer'
_symmetry_space_group_name_H-M	'P1'
_symmetry_Int_Tables_number	1
_symmetry_cell_setting	triclinic
loop_
_symmetry_equiv_pos_as_xyz
  x,y,z
_cell_length_a	27.732064
_cell_length_b	27.732048
_cell_length_c	9.130313
_cell_angle_alpha	89.990549
_cell_angle_beta	90.004113
_cell_angle_gamma	82.646040
loop_
_atom_site_label
_atom_site_type_symbol
_atom_site_fract_x
_atom_site_fract_y
_atom_site_fract_z
O1	O	0.640921	0.057555	-0.121554
O2	O	0.500129	0.066292	-0.121616
O3	O	0.574898	-0.008473	-0.121555
O4	O	0.566152	0.132320	-0.121615
O5	O	0.574893	-0.008475	0.122044
O6	O	0.500124	0.066290	0.121983
O7	O	0.640916	0.057553	0.122045
Cu8	Cu	0.570520	0.061921	0.144256
Cu9	Cu	0.570525	0.061924	-0.143827
O10	O	0.566147	0.132318	0.121984
C11	C	0.482120	0.066106	0.000176
C12	C	0.428465	0.065551	0.000153
C13	C	0.051392	0.017583	0.000257
C14	C	0.253053	0.019630	0.000218
O15	O	0.284305	-0.017591	0.000288
N16	N	0.272180	0.063964	0.000193
C17	C	0.240889	0.107790	0.000187
O18	O	0.261785	0.145546	0.000179
C19	C	0.039230	0.105743	0.000236
C20	C	0.020105	0.061406	0.000247
C21	C	0.032267	-0.026750	0.000269
C22	C	-0.018145	-0.027261	0.000271
C23	C	-0.049432	0.016561	0.000260
C24	C	-0.030307	0.060895	0.000248
C25	C	0.007940	0.149568	0.000241
C26	C	-0.042478	0.149053	0.000257
C27	C	-0.061602	0.104716	0.000267
C28	C	-0.112006	0.104206	0.000240
N29	N	-0.131134	0.059872	0.000265
C30	C	-0.099846	0.016049	0.000275
C31	C	0.346763	0.108861	0.000158
C32	C	0.397178	0.109373	0.000143
C33	C	0.409338	0.021213	0.000177
C34	C	0.358923	0.020701	0.000181
C35	C	0.327636	0.064527	0.000183
C36	C	-0.205716	0.014979	0.000278
C37	C	-0.256133	0.014472	0.000273
C38	C	-0.268289	0.102632	0.000247
C39	C	-0.217876	0.103140	0.000244
C40	C	-0.186590	0.059309	0.000264
O41	O	-0.143287	0.141407	0.000186
O42	O	-0.120752	-0.021701	0.000315
C43	C	0.101805	0.018094	0.000255
C44	C	0.120930	0.062428	0.000243
C45	C	0.089642	0.106250	0.000233
C46	C	0.171344	0.062940	0.000228
C47	C	0.202631	0.019117	0.000238
C48	C	0.183504	-0.025217	0.000264
C49	C	0.133092	-0.025728	0.000265
C50	C	0.108770	0.150585	0.000207
C51	C	0.159183	0.151092	0.000204
C52	C	0.190470	0.107270	0.000214
C53	C	0.574712	-0.026481	0.000248
C54	C	0.574159	-0.080136	0.000260
C55	C	0.614862	-0.418948	0.000203
C56	C	0.612811	-0.620608	0.000182
O57	O	0.650032	-0.651862	0.000134
N58	N	0.568476	-0.639735	0.000163
C59	C	0.524651	-0.608442	0.000141
O60	O	0.486895	-0.629338	0.000110
C61	C	0.526703	-0.406784	0.000152
C62	C	0.571040	-0.387660	0.000185
C63	C	0.659196	-0.399824	0.000235
C64	C	0.659709	-0.349412	0.000248
C65	C	0.615887	-0.318124	0.000230
C66	C	0.571553	-0.337248	0.000198
C67	C	0.482878	-0.375493	0.000119
C68	C	0.483395	-0.325075	0.000118
C69	C	0.527733	-0.305952	0.000151
C70	C	0.528243	-0.255548	0.000193
N71	N	0.572578	-0.236422	0.000212
C72	C	0.616400	-0.267710	0.000230
C73	C	0.523577	-0.714317	0.000138
C74	C	0.523064	-0.764731	0.000138
C75	C	0.611225	-0.776893	0.000176
C76	C	0.611737	-0.726478	0.000187
C77	C	0.567912	-0.695190	0.000156
C78	C	0.617472	-0.161841	0.000259
C79	C	0.617981	-0.111424	0.000278
C80	C	0.529821	-0.099266	0.000232
C81	C	0.529312	-0.149679	0.000221
C82	C	0.573142	-0.180965	0.000229
O83	O	0.491043	-0.224267	0.000224
O84	O	0.654151	-0.246805	0.000228
C85	C	0.614350	-0.469360	0.000190
C86	C	0.570016	-0.488484	0.000158
C87	C	0.526194	-0.457196	0.000140
C88	C	0.569503	-0.538899	0.000158
C89	C	0.613325	-0.570187	0.000176
C90	C	0.657660	-0.551060	0.000195
C91	C	0.658172	-0.500648	0.000208
C92	C	0.481859	-0.476323	0.000122
C93	C	0.481351	-0.526735	0.000110
C94	C	0.525172	-0.558023	0.000128
C95	C	0.658925	0.057739	0.000250
C96	C	0.712580	0.058295	0.000263
C97	C	0.566333	0.150326	0.000178
C98	C	0.566886	0.203981	0.000156
N99	N	0.570519	0.061919	0.346879
N100	N	0.570530	0.061922	-0.346450
C101	C	0.603637	0.028827	0.423558
C102	C	0.603642	0.028827	0.576895
C103	C	0.537408	0.095016	0.576860
C104	C	0.537401	0.095013	0.423526
H105	H	-0.067950	0.184742	0.000265
C106	C	0.640074	-0.007574	0.661244
C107	C	0.676508	-0.043967	0.576931
C108	C	0.712941	-0.080369	0.661280
C109	C	0.712941	-0.080379	0.829941
C110	C	0.676506	-0.043984	0.914263
C111	C	0.640072	-0.007582	0.829914
H112	H	0.676510	-0.043961	0.452069
H113	H	0.739913	-0.107311	0.598858
H114	H	0.739911	-0.107326	0.892382
H115	H	0.676504	-0.043990	1.039125
H116	H	0.613101	0.019360	0.892336
H117	H	0.023502	0.185672	0.000225
H118	H	0.630603	0.001879	0.361155
H119	H	0.654087	-0.095857	0.000309
C120	C	0.500969	0.131417	0.339166
C121	C	0.464562	0.167841	0.423465
C122	C	0.428130	0.204241	0.339103
C123	C	0.428106	0.204218	0.170442
C124	C	0.464515	0.167794	0.086133
C125	C	0.500947	0.131393	0.170495
H126	H	0.464578	0.167859	0.548327
H127	H	0.401178	0.231205	0.401515
H128	H	0.401137	0.231164	0.107992
H129	H	0.464498	0.167776	-0.038729
H130	H	0.527899	0.104429	0.108083
H131	H	0.057737	-0.062438	0.000282
C132	C	-0.171306	-0.033234	0.000289
C133	C	-0.173222	-0.069674	0.126786
C134	C	-0.138813	-0.117887	0.126786
C135	C	-0.102488	-0.129658	0.000289
C136	C	-0.100571	-0.093216	-0.126218
C137	C	-0.134980	-0.045004	-0.126217
H138	H	-0.200113	-0.060961	0.220435
H139	H	-0.140232	-0.144863	0.220435
H140	H	-0.077016	-0.165348	0.000288
H141	H	-0.073679	-0.101929	-0.219867
H142	H	-0.133561	-0.018027	-0.219867
C143	C	0.337888	-0.028070	0.000207
C144	C	0.349849	-0.064365	0.126713
C145	C	0.328818	-0.113138	0.126744
C146	C	0.295825	-0.125616	0.000268
C147	C	0.283862	-0.089319	-0.126248
C148	C	0.304894	-0.040546	-0.126278
H149	H	0.374274	-0.055129	0.220347
H150	H	0.337674	-0.140007	0.220400
H151	H	0.280256	-0.161721	0.000290
H152	H	0.259438	-0.098555	-0.219881
H153	H	0.296038	-0.013677	-0.219934
C154	C	0.312353	0.157074	0.000149
C155	C	0.314268	0.193508	-0.126366
C156	C	0.279860	0.241722	-0.126382
C157	C	0.243538	0.253501	0.000118
C158	C	0.241621	0.217066	0.126643
C159	C	0.276029	0.168852	0.126658
H160	H	0.341157	0.184789	-0.220018
H161	H	0.281279	0.268693	-0.220045
H162	H	0.218067	0.289191	0.000106
H163	H	0.214732	0.225785	0.220294
H164	H	0.274610	0.141881	0.220321
H165	H	-0.271701	-0.021634	0.000278
C166	C	-0.196832	0.151908	0.000215
C167	C	-0.208777	0.188201	0.126695
C168	C	-0.187736	0.236969	0.126680
C169	C	-0.154750	0.249444	0.000185
C170	C	-0.142804	0.213150	-0.126304
C171	C	-0.163845	0.164382	-0.126289
H172	H	-0.233196	0.178967	0.220343
H173	H	-0.196579	0.263836	0.220317
H174	H	-0.139174	0.285545	0.000174
H175	H	-0.118385	0.222384	-0.219952
H176	H	-0.155002	0.137515	-0.219926
C177	C	0.665685	-0.196251	0.000280
C178	C	0.702112	-0.194340	0.126804
C179	C	0.750323	-0.228750	0.126837
C180	C	0.762108	-0.265072	0.000346
C181	C	0.725679	-0.266985	-0.126187
C182	C	0.677468	-0.232575	-0.126220
H183	H	0.693389	-0.167451	0.220449
H184	H	0.777290	-0.227334	0.220506
H185	H	0.797797	-0.290545	0.000371
H186	H	0.734402	-0.293874	-0.219832
H187	H	0.650501	-0.233991	-0.219890
C188	C	0.433652	-0.441909	0.000112
C189	C	0.421878	-0.405590	0.126616
C190	C	0.373668	-0.371177	0.126617
C191	C	0.337231	-0.373084	0.000114
C192	C	0.349005	-0.409405	-0.126398
C193	C	0.397215	-0.443817	-0.126400
H194	H	0.448851	-0.404177	0.220269
H195	H	0.364953	-0.344290	0.220271
H196	H	0.301543	-0.347610	0.000115
H197	H	0.322031	-0.410818	-0.220051
H198	H	0.405930	-0.470704	-0.220053
C199	C	0.432575	-0.547768	0.000079
C200	C	0.420102	-0.580742	-0.126435
C201	C	0.371329	-0.601774	-0.126478
C202	C	0.335029	-0.589831	-0.000008
C203	C	0.347501	-0.556856	0.126515
C204	C	0.396274	-0.535824	0.126559
H205	H	0.446975	-0.589584	-0.220064
H206	H	0.362097	-0.626185	-0.220140
H207	H	0.298925	-0.605400	-0.000040
H208	H	0.320629	-0.548014	0.220145
H209	H	0.405507	-0.511413	0.220221
H210	H	-0.033711	-0.063365	0.000285
H211	H	0.510445	0.121961	0.639282
H212	H	0.117526	-0.061832	0.000274
H213	H	0.447706	-0.299603	0.000091
C214	C	0.074359	0.198794	0.000189
C215	C	0.076278	0.235227	-0.126326
C216	C	0.041870	0.283440	-0.126352
C217	C	0.005543	0.295220	0.000136
C218	C	0.003623	0.258785	0.126660
C219	C	0.038031	0.210572	0.126687
H220	H	0.103170	0.226508	-0.219968
H221	H	0.043291	0.310412	-0.220015
H222	H	-0.019928	0.330910	0.000116
H223	H	-0.023270	0.267504	0.220303
H224	H	0.036609	0.183601	0.220350
C225	C	0.707406	-0.434236	0.000262
C226	C	0.743833	-0.432318	0.126785
C227	C	0.792046	-0.466725	0.126827
C228	C	0.803833	-0.503051	0.000346
C229	C	0.767405	-0.504970	-0.126187
C230	C	0.719192	-0.470563	-0.126228
H231	H	0.735108	-0.405427	0.220423
H232	H	0.819012	-0.465304	0.220495
H233	H	0.839524	-0.528521	0.000377
H234	H	0.776130	-0.531862	-0.219824
H235	H	0.692226	-0.471984	-0.219897
H236	H	0.434821	-0.014469	0.000180
C237	C	0.660509	-0.705444	0.000210
C238	C	0.696800	-0.717404	0.126721
C239	C	0.745574	-0.696373	0.126741
C240	C	0.758056	-0.663384	0.000250
C241	C	0.721764	-0.651423	-0.126270
C242	C	0.672990	-0.672453	-0.126290
H243	H	0.687561	-0.741826	0.220366
H244	H	0.772440	-0.705228	0.220401
H245	H	0.794162	-0.647816	0.000265
H246	H	0.731003	-0.627001	-0.219915
H247	H	0.646124	-0.663599	-0.219950
C248	C	0.480543	-0.170721	0.000192
C249	C	0.444243	-0.158787	0.126665
C250	C	0.395474	-0.179827	0.126617
C251	C	0.383006	-0.212801	0.000096
C252	C	0.419307	-0.224736	-0.126386
C253	C	0.468076	-0.203696	-0.126339
H254	H	0.453471	-0.134377	0.220332
H255	H	0.368601	-0.170992	0.220249
H256	H	0.346904	-0.228376	0.000061
H257	H	0.410079	-0.249147	-0.220053
H258	H	0.494949	-0.212532	-0.219970
H259	H	0.412744	0.145477	0.000114
H260	H	-0.293772	0.138311	0.000231
H261	H	0.208987	-0.060899	0.000263
H262	H	0.174748	0.187200	0.000185
H263	H	0.695813	-0.333847	0.000269
H264	H	0.646906	-0.802377	0.000192
H265	H	0.486960	-0.780296	0.000136
H266	H	0.487888	-0.688846	0.000114
H267	H	0.446774	-0.391054	0.000083
H268	H	0.494142	-0.073782	0.000223
H269	H	0.694276	-0.485083	0.000234
H270	H	0.693341	-0.576544	0.000216
