data_functionalizedCrystal
_audit_creation_method	'MofGen! by Chris Wilmer'
_symmetry_space_group_name_H-M	'P1'
_symmetry_Int_Tables_number	1
_symmetry_cell_setting	triclinic
loop_
_symmetry_equiv_pos_as_xyz
  x,y,z
_cell_length_a	25.639239
_cell_length_b	19.805407
_cell_length_c	19.805399
_cell_angle_alpha	90.019573
_cell_angle_beta	89.971274
_cell_angle_gamma	89.961314
loop_
_atom_site_label
_atom_site_type_symbol
_atom_site_fract_x
_atom_site_fract_y
_atom_site_fract_z
Zn1	Zn	-0.208163	-1.034678	-0.382714
Zn2	Zn	0.125170	-0.701345	-0.049381
Zn3	Zn	0.458504	-0.368011	0.283952
Zn4	Zn	-0.295597	-1.034569	-0.269524
Zn5	Zn	0.037736	-0.701235	0.063810
Zn6	Zn	0.371070	-0.367902	0.397143
Zn7	Zn	-0.208177	-0.921493	-0.269539
Zn8	Zn	0.125156	-0.588159	0.063795
Zn9	Zn	0.458489	-0.254826	0.397128
Zn10	Zn	-0.295569	-0.921432	-0.382670
Zn11	Zn	0.037764	-0.588099	-0.049337
Zn12	Zn	0.371098	-0.254765	0.283996
O13	O	-0.251877	-0.978043	-0.326112
O14	O	0.081457	-0.644709	0.007222
O15	O	0.414790	-0.311376	0.340555
O16	O	-0.219767	-1.129380	-0.367711
O17	O	0.113567	-0.796047	-0.034378
O18	O	0.446900	-0.462713	0.298955
O19	O	-0.284018	-1.019548	-0.174809
O20	O	0.049315	-0.686215	0.158524
O21	O	0.382648	-0.352882	0.491858
O22	O	-0.135010	-0.936578	-0.284576
O23	O	0.198323	-0.603245	0.048757
O24	O	0.531656	-0.269911	0.382090
O25	O	-0.284004	-1.129300	-0.284551
O26	O	0.049329	-0.795966	0.048783
O27	O	0.382662	-0.462633	0.382116
O28	O	-0.135000	-1.019735	-0.367726
O29	O	0.198334	-0.686402	-0.034393
O30	O	0.531667	-0.353068	0.298941
O31	O	-0.219791	-0.936472	-0.174820
O32	O	0.113542	-0.603139	0.158513
O33	O	0.446875	-0.269805	0.491846
O34	O	-0.219764	-0.826768	-0.284534
O35	O	0.113569	-0.493435	0.048799
O36	O	0.446902	-0.160101	0.382133
O37	O	-0.283957	-0.936475	-0.477393
O38	O	0.049376	-0.603141	-0.144060
O39	O	0.382710	-0.269808	0.189274
O40	O	-0.283971	-0.826723	-0.367651
O41	O	0.049362	-0.493390	-0.034318
O42	O	0.382696	-0.160057	0.299015
O43	O	-0.219740	-1.019676	-0.477425
O44	O	0.113593	-0.686343	-0.144092
O45	O	0.446927	-0.353009	0.189242
O46	O	-0.368758	-1.019489	-0.284508
O47	O	-0.035425	-0.686156	0.048825
O48	O	0.297908	-0.352823	0.382158
O49	O	-0.368738	-0.936368	-0.367637
O50	O	-0.035405	-0.603035	-0.034303
O51	O	0.297929	-0.269702	0.299030
C52	C	-0.387719	-0.977929	-0.326081
C53	C	-0.054386	-0.644596	0.007253
C54	C	0.278947	-0.311262	0.340586
C55	C	-0.445833	-0.977942	-0.326090
C56	C	-0.112500	-0.644609	0.007243
C57	C	0.220833	-0.311275	0.340576
C58	C	-0.251867	-0.802187	-0.326090
C59	C	0.081467	-0.468853	0.007243
C60	C	0.414800	-0.135520	0.340577
C61	C	-0.251875	-0.726955	-0.326097
C62	C	0.081458	-0.393621	0.007237
C63	C	0.414792	-0.060288	0.340570
C64	C	-0.251844	-0.978081	-0.502655
C65	C	0.081490	-0.644747	-0.169321
C66	C	0.414823	-0.311414	0.164012
C67	C	-0.251830	-0.978097	-0.577887
C68	C	0.081504	-0.644764	-0.244553
C69	C	0.414837	-0.311430	0.088780
C70	C	-0.806194	-1.021437	-0.282901
C71	C	-0.472861	-0.688103	0.050433
C72	C	-0.139528	-0.354770	0.383766
C73	C	-0.860799	-1.021463	-0.282910
C74	C	-0.527465	-0.688130	0.050424
C75	C	-0.194132	-0.354796	0.383757
O76	O	-0.889034	-1.058326	-0.246154
O77	O	-0.555700	-0.724992	0.087179
O78	O	-0.222367	-0.391659	0.420512
N79	N	-0.888116	-0.978162	-0.326157
N80	N	-0.554782	-0.644828	0.007177
N81	N	-0.221449	-0.311495	0.340510
C82	C	-0.860825	-0.934836	-0.369402
C83	C	-0.527492	-0.601503	-0.036069
C84	C	-0.194159	-0.268169	0.297264
O85	O	-0.889075	-0.898008	-0.406189
O86	O	-0.555741	-0.564675	-0.072855
O87	O	-0.222408	-0.231341	0.260478
C88	C	-0.806222	-0.934814	-0.369396
C89	C	-0.472889	-0.601481	-0.036063
C90	C	-0.139556	-0.268147	0.297271
C91	C	-0.778908	-0.978113	-0.326141
C92	C	-0.445575	-0.644780	0.007192
C93	C	-0.112241	-0.311446	0.340525
C94	C	-0.778880	-1.064733	-0.239650
C95	C	-0.445547	-0.731400	0.093683
C96	C	-0.112213	-0.398066	0.427017
C97	C	-0.724279	-1.064706	-0.239640
C98	C	-0.390946	-0.731372	0.093693
C99	C	-0.057613	-0.398039	0.427026
C100	C	-0.696993	-1.021382	-0.282881
C101	C	-0.363660	-0.688049	0.050452
C102	C	-0.030327	-0.354716	0.383786
C103	C	-0.724307	-0.978086	-0.326132
C104	C	-0.390974	-0.644753	0.007202
C105	C	-0.057641	-0.311419	0.340535
C106	C	-0.778933	-0.891492	-0.412645
C107	C	-0.445600	-0.558159	-0.079311
C108	C	-0.112266	-0.224826	0.254022
C109	C	-0.724326	-0.891474	-0.412635
C110	C	-0.390993	-0.558141	-0.079302
C111	C	-0.057659	-0.224807	0.254031
C112	C	-0.697012	-0.934773	-0.369381
C113	C	-0.363679	-0.601440	-0.036047
C114	C	-0.030345	-0.268107	0.297286
C115	C	-0.642421	-0.934735	-0.369363
C116	C	-0.309087	-0.601402	-0.036029
C117	C	0.024246	-0.268068	0.297304
N118	N	-0.615104	-0.978036	-0.326116
N119	N	-0.281770	-0.644703	0.007218
N120	N	0.051563	-0.311370	0.340551
C121	C	-0.642390	-1.021360	-0.282875
C122	C	-0.309057	-0.688027	0.050458
C123	C	0.024277	-0.354693	0.383792
C124	C	-0.975496	-0.934887	-0.369413
C125	C	-0.642163	-0.601554	-0.036079
C126	C	-0.308829	-0.268220	0.297254
C127	C	-1.030098	-0.934906	-0.369416
C128	C	-0.696765	-0.601572	-0.036083
C129	C	-0.363432	-0.268239	0.297251
C130	C	-1.030068	-1.021533	-0.282924
C131	C	-0.696734	-0.688200	0.050409
C132	C	-0.363401	-0.354867	0.383743
C133	C	-0.975464	-1.021511	-0.282918
C134	C	-0.642131	-0.688178	0.050415
C135	C	-0.308798	-0.354845	0.383749
C136	C	-0.948179	-0.978188	-0.326166
C137	C	-0.614846	-0.644855	0.007168
C138	C	-0.281512	-0.311522	0.340501
C139	C	-0.527725	-1.021299	-0.282857
C140	C	-0.194392	-0.687966	0.050476
C141	C	0.138942	-0.354632	0.383809
C142	C	-0.473119	-1.021266	-0.282849
C143	C	-0.139786	-0.687932	0.050484
C144	C	0.193547	-0.354599	0.383817
C145	C	-0.473155	-0.934641	-0.369343
C146	C	-0.139822	-0.601307	-0.036010
C147	C	0.193512	-0.267974	0.297323
C148	C	-0.527756	-0.934671	-0.369349
C149	C	-0.194422	-0.601338	-0.036016
C150	C	0.138911	-0.268004	0.297317
C151	C	-0.555039	-0.978006	-0.326104
C152	C	-0.221706	-0.644672	0.007230
C153	C	0.111628	-0.311339	0.340563
O154	O	-0.614151	-0.897893	-0.406101
O155	O	-0.280818	-0.564560	-0.072768
O156	O	0.052516	-0.231226	0.260565
O157	O	-0.614134	-1.058188	-0.246101
O158	O	-0.280801	-0.724855	0.087232
O159	O	0.052533	-0.391522	0.420566
C160	C	-0.115504	-0.978175	-0.326158
C161	C	0.217830	-0.644842	0.007176
C162	C	0.551163	-0.311509	0.340509
C163	C	-0.057389	-0.978232	-0.326177
C164	C	0.275944	-0.644899	0.007156
C165	C	0.609277	-0.311565	0.340489
C166	C	-0.251887	-1.154585	-0.326134
C167	C	0.081446	-0.821252	0.007199
C168	C	0.414780	-0.487919	0.340532
C169	C	-0.251891	-1.229817	-0.326144
C170	C	0.081442	-0.896484	0.007190
C171	C	0.414775	-0.563151	0.340523
C172	C	-0.285357	-0.691605	-0.369306
C173	C	0.047976	-0.358272	-0.035972
C174	C	0.381309	-0.024938	0.297361
C175	C	-0.285358	-0.620917	-0.369315
C176	C	0.047975	-0.287583	-0.035982
C177	C	0.381308	0.045750	0.297351
C178	C	-0.251879	-0.585579	-0.326112
C179	C	0.081454	-0.252246	0.007222
C180	C	0.414788	0.081088	0.340555
C181	C	-0.218393	-0.620934	-0.282901
C182	C	0.114941	-0.287600	0.050433
C183	C	0.448274	0.045733	0.383766
C184	C	-0.218390	-0.691621	-0.282895
C185	C	0.114944	-0.358288	0.050438
C186	C	0.448277	-0.024954	0.383772
C187	C	-0.218404	-0.335860	-0.282923
C188	C	0.114929	-0.002527	0.050410
C189	C	0.448262	0.330806	0.383744
C190	C	-0.218411	-0.265168	-0.282931
C191	C	0.114922	0.068165	0.050403
C192	C	0.448256	0.401498	0.383736
C193	C	-0.285373	-0.265156	-0.369343
C194	C	0.047960	0.068177	-0.036010
C195	C	0.381294	0.401511	0.297323
C196	C	-0.285370	-0.335843	-0.369338
C197	C	0.047963	-0.002510	-0.036004
C198	C	0.381297	0.330823	0.297329
C199	C	-0.251882	-0.371192	-0.326129
C200	C	0.081451	-0.037858	0.007204
C201	C	0.414785	0.295475	0.340537
C202	C	-0.251881	-0.447840	-0.326121
C203	C	0.081453	-0.114507	0.007213
C204	C	0.414786	0.218826	0.340546
C205	C	-0.251883	-0.508932	-0.326117
C206	C	0.081451	-0.175599	0.007217
C207	C	0.414784	0.157735	0.340550
C208	C	-0.218390	-1.021421	-0.613249
C209	C	0.114943	-0.688087	-0.279915
C210	C	0.448276	-0.354754	0.053418
C211	C	-0.218375	-1.021428	-0.683937
C212	C	0.114958	-0.688094	-0.350604
C213	C	0.448292	-0.354761	-0.017270
C214	C	-0.251802	-0.978114	-0.719262
C215	C	0.081531	-0.644780	-0.385929
C216	C	0.414864	-0.311447	-0.052596
C217	C	-0.285243	-0.934785	-0.683895
C218	C	0.048090	-0.601452	-0.350562
C219	C	0.381423	-0.268118	-0.017229
C220	C	-0.285255	-0.934775	-0.613208
C221	C	0.048078	-0.601442	-0.279875
C222	C	0.381411	-0.268108	0.053459
C223	C	-0.285194	-0.934823	-0.968969
C224	C	0.048139	-0.601490	-0.635635
C225	C	0.381472	-0.268157	-0.302302
C226	C	-0.285181	-0.934838	-1.039661
C227	C	0.048152	-0.601504	-0.706328
C228	C	0.381486	-0.268171	-0.372994
C229	C	-0.218314	-1.021476	-1.039698
C230	C	0.115019	-0.688143	-0.706364
C231	C	0.448353	-0.354809	-0.373031
C232	C	-0.218326	-1.021466	-0.969011
C233	C	0.115007	-0.688133	-0.635677
C234	C	0.448340	-0.354799	-0.302344
C235	C	-0.251765	-0.978135	-0.933650
C236	C	0.081568	-0.644802	-0.600316
C237	C	0.414902	-0.311468	-0.266983
C238	C	-0.251780	-0.978127	-0.857001
C239	C	0.081553	-0.644794	-0.523668
C240	C	0.414886	-0.311460	-0.190335
C241	C	-0.251790	-0.978125	-0.795909
C242	C	0.081543	-0.644791	-0.462576
C243	C	0.414877	-0.311458	-0.129243
C244	C	-0.251872	-0.978044	-0.150256
C245	C	0.081462	-0.644711	0.183078
C246	C	0.414795	-0.311377	0.516411
C247	C	-0.251738	-0.978159	-0.075024
C248	C	0.081595	-0.644826	0.258309
C249	C	0.414928	-0.311492	0.591642
H250	H	-0.450882	-1.056525	-0.247624
H251	H	-0.117549	-0.723192	0.085710
H252	H	0.215785	-0.389858	0.419043
F253	F	-0.321014	-0.227530	-0.415330
F254	F	0.012319	0.105803	-0.081997
F255	F	0.345653	0.439136	0.251336
F256	F	-0.320760	-0.888734	-1.077255
F257	F	0.012573	-0.555401	-0.743922
F258	F	0.345906	-0.222068	-0.410589
F259	F	-0.182752	-0.729242	-0.236907
F260	F	0.150582	-0.395909	0.096426
F261	F	0.483915	-0.062576	0.429759
F262	F	-0.182814	-1.067526	-0.575659
F263	F	0.150519	-0.734193	-0.242326
F264	F	0.483852	-0.400859	0.091008
F265	F	-0.807912	-1.110849	-0.193624
F266	F	-0.474579	-0.777516	0.139709
F267	F	-0.141245	-0.444183	0.473043
H268	H	-0.191146	-1.056708	-0.712726
H269	H	0.142187	-0.723375	-0.379392
H270	H	0.475520	-0.390041	-0.046059
H271	H	-0.191145	-0.236399	-0.247749
H272	H	0.142188	0.096935	0.085584
H273	H	0.475522	0.430268	0.418918
F274	F	-0.556754	-1.067420	-0.236831
F275	F	-0.223421	-0.734087	0.096503
F276	F	0.109912	-0.400754	0.429836
H277	H	-0.702113	-0.856196	-0.447855
H278	H	-0.368780	-0.522863	-0.114522
H279	H	-0.035446	-0.189529	0.218812
H280	H	-0.450930	-0.899365	-0.404548
H281	H	-0.117597	-0.566032	-0.071214
H282	H	0.215737	-0.232698	0.262119
H283	H	-0.191140	-0.364633	-0.247735
H284	H	0.142193	-0.031299	0.085598
H285	H	0.475526	0.302034	0.418931
F286	F	-1.059117	-1.067642	-0.236902
F287	F	-0.725784	-0.734308	0.096431
F288	F	-0.392451	-0.400975	0.429765
F289	F	-0.946399	-1.067596	-0.236881
F290	F	-0.613066	-0.734263	0.096452
F291	F	-0.279733	-0.400929	0.429785
H292	H	-0.191131	-0.592156	-0.247727
H293	H	0.142202	-0.258823	0.085607
H294	H	0.475536	0.074510	0.418940
F295	F	-0.320845	-0.888662	-0.575574
F296	F	0.012488	-0.555329	-0.242240
F297	F	0.345822	-0.221995	0.091093
F298	F	-0.182750	-1.067569	-0.931419
F299	F	0.150583	-0.734236	-0.598085
F300	F	0.483916	-0.400902	-0.264752
H301	H	-0.702043	-1.099966	-0.204421
H302	H	-0.368710	-0.766632	0.128913
H303	H	-0.035377	-0.433299	0.462246
F304	F	-0.807991	-0.845412	-0.458689
F305	F	-0.474658	-0.512079	-0.125356
F306	F	-0.141325	-0.178745	0.207978
F307	F	-0.182724	-1.067591	-1.077337
F308	F	0.150610	-0.734258	-0.744003
F309	F	0.483943	-0.400924	-0.410670
H310	H	-0.312430	-0.899550	-0.940187
H311	H	0.020903	-0.566217	-0.606853
H312	H	0.354237	-0.232884	-0.273520
H313	H	-0.312622	-0.720372	-0.404485
H314	H	0.020711	-0.387038	-0.071152
H315	H	0.354045	-0.053705	0.262182
H316	H	-0.312458	-0.899515	-0.712663
H317	H	0.020875	-0.566182	-0.379329
H318	H	0.354208	-0.232849	-0.045996
F319	F	-0.946462	-0.888769	-0.415442
F320	F	-0.613128	-0.555436	-0.082108
F321	F	-0.279795	-0.222103	0.251225
F322	F	-1.059162	-0.888813	-0.415446
F323	F	-0.725829	-0.555480	-0.082113
F324	F	-0.392496	-0.222146	0.251221
F325	F	-0.320995	-0.583298	-0.415305
F326	F	0.012338	-0.249965	-0.081971
F327	F	0.345672	0.083369	0.251362
F328	F	-0.556826	-0.888575	-0.415373
F329	F	-0.223493	-0.555242	-0.082039
F330	F	0.109840	-0.221908	0.251294
F331	F	-0.321005	-0.373448	-0.415318
F332	F	0.012328	-0.040115	-0.081985
F333	F	0.345661	0.293218	0.251349
