data_functionalizedCrystal
_audit_creation_method	'MofGen! by Chris Wilmer'
_symmetry_space_group_name_H-M	'P1'
_symmetry_Int_Tables_number	1
_symmetry_cell_setting	triclinic
loop_
_symmetry_equiv_pos_as_xyz
  x,y,z
_cell_length_a	12.759401
_cell_length_b	29.839131
_cell_length_c	12.759393
_cell_angle_alpha	89.963184
_cell_angle_beta	89.979062
_cell_angle_gamma	90.042945
loop_
_atom_site_label
_atom_site_type_symbol
_atom_site_fract_x
_atom_site_fract_y
_atom_site_fract_z
Zn1	Zn	1.606071	-0.178813	-0.593974
Zn2	Zn	1.605880	-0.253950	-0.418275
Zn3	Zn	1.430370	-0.178837	-0.418309
Zn4	Zn	1.430280	-0.253919	-0.593912
O5	O	1.518150	-0.216380	-0.506117
O6	O	1.753067	-0.188784	-0.570679
O7	O	1.582556	-0.244010	-0.271258
O8	O	1.453795	-0.115967	-0.441652
O9	O	1.752927	-0.243986	-0.441593
O10	O	1.582882	-0.115949	-0.570712
O11	O	1.453610	-0.188824	-0.271283
O12	O	1.283337	-0.188794	-0.441592
O13	O	1.453641	-0.243933	-0.740941
O14	O	1.283271	-0.243956	-0.570606
O15	O	1.582794	-0.188753	-0.740987
O16	O	1.582469	-0.316813	-0.441533
O17	O	1.453456	-0.316790	-0.570573
C18	C	1.245183	-0.216375	-0.506097
C19	C	1.128406	-0.216383	-0.506113
C20	C	1.073538	-0.245150	-0.573185
C21	C	0.963813	-0.245151	-0.573206
C22	C	0.963837	-0.187618	-0.439073
C23	C	1.073559	-0.187615	-0.439058
C24	C	1.517961	-0.333103	-0.506065
C25	C	1.517976	-0.383037	-0.506078
C26	C	1.585450	-0.692680	-0.439024
C27	C	1.585579	-0.880353	-0.439065
O28	O	1.642798	-0.904617	-0.382014
N29	N	1.518368	-0.903822	-0.506197
C30	C	1.451125	-0.880370	-0.573327
O31	O	1.393969	-0.904638	-0.630435
C32	C	1.451001	-0.692698	-0.573291
C33	C	1.518209	-0.669231	-0.506148
C34	C	1.652653	-0.669213	-0.371888
C35	C	1.652616	-0.622297	-0.371874
C36	C	1.585375	-0.598849	-0.438997
C37	C	1.518172	-0.622316	-0.506134
C38	C	1.383764	-0.669247	-0.640427
C39	C	1.383741	-0.622326	-0.640413
C40	C	1.450949	-0.598859	-0.573270
C41	C	1.450895	-0.551952	-0.573244
N42	N	1.518106	-0.528482	-0.506113
C43	C	1.585346	-0.551931	-0.438989
C44	C	1.451193	-0.978901	-0.573340
C45	C	1.451223	-1.025819	-0.573348
C46	C	1.585679	-1.025798	-0.439087
C47	C	1.585643	-0.978879	-0.439075
C48	C	1.518404	-0.955431	-0.506209
C49	C	1.585262	-0.453405	-0.438965
C50	C	1.585216	-0.406486	-0.438955
C51	C	1.450764	-0.406510	-0.573219
C52	C	1.450806	-0.453426	-0.573226
C53	C	1.518064	-0.476872	-0.506096
O54	O	1.393715	-0.527659	-0.630274
O55	O	1.642510	-0.527655	-0.381907
C56	C	1.585487	-0.739595	-0.439038
C57	C	1.518284	-0.763062	-0.506175
C58	C	1.451043	-0.739613	-0.573298
C59	C	1.518313	-0.809980	-0.506183
C60	C	1.585553	-0.833428	-0.439060
C61	C	1.652764	-0.809959	-0.371928
C62	C	1.652727	-0.763044	-0.371915
C63	C	1.383832	-0.763083	-0.640430
C64	C	1.383874	-0.809998	-0.640437
C65	C	1.451114	-0.833447	-0.573314
C66	C	1.792184	-0.216386	-0.506139
C67	C	1.908960	-0.216388	-0.506148
C68	C	1.518229	-0.216337	-0.780151
C69	C	1.518263	-0.216318	-0.896928
C70	C	1.518370	-0.099202	-0.506193
C71	C	1.518463	-0.049267	-0.506225
C72	C	1.585518	-0.187582	-0.951815
C73	C	1.585535	-0.187562	-1.061539
C74	C	1.451040	-0.245020	-1.061479
C75	C	1.451018	-0.245037	-0.951757
C76	C	1.518133	-0.216391	-0.233150
C77	C	1.518303	-0.216282	-0.116374
H78	H	1.118234	-0.164187	-0.384440
H79	H	1.639945	-0.387380	-0.384275
H80	H	1.396485	-1.044921	-0.628013
C81	C	1.107377	-0.267119	-0.750989
C82	C	1.133830	-0.276766	-0.646900
H83	H	1.144603	-0.286636	-0.796499
H84	H	1.034187	-0.271240	-0.760589
H85	H	1.125420	-0.236940	-0.766475
H86	H	1.115780	-0.306944	-0.631412
H87	H	1.207036	-0.272649	-0.637295
H88	H	1.640032	-0.472490	-0.384304
C89	C	1.272829	-0.392119	-0.624262
C90	C	1.376863	-0.380731	-0.647010
H91	H	1.227213	-0.376201	-0.669822
H92	H	1.263231	-0.423416	-0.633882
H93	H	1.257485	-0.384456	-0.553658
H94	H	1.392210	-0.388398	-0.717613
H95	H	1.386466	-0.349427	-0.637399
C96	C	1.436354	-0.305433	-1.184823
C97	C	1.377136	-0.276591	-1.121750
H98	H	1.390727	-0.324925	-1.222024
H99	H	1.476402	-0.288316	-1.233212
H100	H	1.482082	-0.322623	-1.142002
H101	H	1.331412	-0.259398	-1.164572
H102	H	1.337070	-0.293709	-1.073355
H103	H	1.396083	-0.472534	-0.627903
H104	H	1.707454	-0.743940	-0.317241
H105	H	1.707345	-0.603193	-0.317203
H106	H	0.919144	-0.268576	-0.627824
C107	C	1.785668	-0.805239	-0.239205
C108	C	1.726677	-0.835740	-0.298144
H109	H	1.831294	-0.821157	-0.193656
H110	H	1.825819	-0.786907	-0.285007
H111	H	1.739896	-0.786972	-0.198966
H112	H	1.772449	-0.854004	-0.338389
H113	H	1.686524	-0.854079	-0.252336
C114	C	1.794110	-0.721873	-0.357495
C115	C	1.726645	-0.694964	-0.298135
H116	H	1.839814	-0.737760	-0.311965
H117	H	1.754098	-0.742582	-0.397423
H118	H	1.834183	-0.703523	-0.403341
H119	H	1.686566	-0.713315	-0.252294
H120	H	1.766661	-0.674252	-0.258189
C121	C	1.718545	-0.983582	-0.306365
C122	C	1.659526	-0.953087	-0.365276
H123	H	1.764163	-0.967660	-0.260809
H124	H	1.672797	-1.001912	-0.266145
H125	H	1.758713	-1.001852	-0.352193
H126	H	1.619351	-0.934819	-0.319449
H127	H	1.705279	-0.934750	-0.405499
H128	H	1.329031	-0.688346	-0.695097
H129	H	1.640429	-1.044898	-0.384433
C130	C	0.795650	-0.162078	-0.379538
C131	C	0.903545	-0.155999	-0.365365
H132	H	0.758432	-0.142559	-0.334027
H133	H	0.777721	-0.155540	-0.450151
H134	H	0.777624	-0.192256	-0.364028
H135	H	0.921572	-0.125821	-0.380882
H136	H	0.921481	-0.162534	-0.294735
C137	C	1.318279	-0.983644	-0.706039
C138	C	1.377264	-0.953131	-0.647129
H139	H	1.272631	-0.967735	-0.751583
H140	H	1.364046	-1.001908	-0.746271
H141	H	1.278144	-1.001977	-0.660210
H142	H	1.417406	-0.934800	-0.692957
H143	H	1.331492	-0.934859	-0.606893
H144	H	1.328988	-0.603237	-0.695086
C145	C	1.250977	-0.805294	-0.773164
C146	C	1.309994	-0.835790	-0.714251
H147	H	1.205379	-0.821217	-0.818740
H148	H	1.210797	-0.787032	-0.727347
H149	H	1.296735	-0.786957	-0.813372
H150	H	1.264236	-0.854124	-0.674036
H151	H	1.350177	-0.854060	-0.760074
C152	C	1.369096	-0.710288	-0.781741
C153	C	1.309910	-0.737314	-0.714216
H154	H	1.323451	-0.694383	-0.827297
H155	H	1.409101	-0.689593	-0.741764
H156	H	1.414864	-0.728560	-0.821970
H157	H	1.264147	-0.719041	-0.673981
H158	H	1.269888	-0.758010	-0.754197
C159	C	1.636823	-0.111516	-0.918094
C160	C	1.659420	-0.156010	-0.891546
H161	H	1.682443	-0.092024	-0.880883
H162	H	1.646463	-0.107397	-0.991287
H163	H	1.566238	-0.104949	-0.900098
H164	H	1.730003	-0.162578	-0.909549
H165	H	1.649789	-0.160130	-0.818336
C166	C	1.399690	-0.321116	-0.917899
C167	C	1.377090	-0.276628	-0.891413
H168	H	1.354054	-0.340617	-0.880639
H169	H	1.390073	-0.325216	-0.991082
H170	H	1.470267	-0.327690	-0.899921
H171	H	1.306514	-0.270054	-0.909398
H172	H	1.386698	-0.272527	-0.818213
H173	H	1.640300	-0.164161	-1.106224
