data_functionalizedCrystal
_audit_creation_method	'MofGen! by Chris Wilmer'
_symmetry_space_group_name_H-M	'P1'
_symmetry_Int_Tables_number	1
_symmetry_cell_setting	triclinic
loop_
_symmetry_equiv_pos_as_xyz
  x,y,z
_cell_length_a	15.298068
_cell_length_b	29.839132
_cell_length_c	15.298431
_cell_angle_alpha	99.722514
_cell_angle_beta	91.585376
_cell_angle_gamma	80.296437
loop_
_atom_site_label
_atom_site_type_symbol
_atom_site_fract_x
_atom_site_fract_y
_atom_site_fract_z
Zn1	Zn	1.253502	0.008246	-0.727424
Zn2	Zn	1.278675	0.093842	-0.580912
Zn3	Zn	1.132333	0.033507	-0.555567
Zn4	Zn	1.106922	0.098162	-0.701944
O5	O	1.192858	0.058439	-0.641462
O6	O	1.379430	0.007220	-0.729260
O7	O	1.280431	0.094602	-0.454974
O8	O	1.148506	-0.032724	-0.578421
O9	O	1.397924	0.070107	-0.621617
O10	O	1.237528	-0.051284	-0.704684
O11	O	1.172914	0.050275	-0.436354
O12	O	1.006373	0.054465	-0.553714
O13	O	1.105197	0.077471	-0.827900
O14	O	0.987704	0.101966	-0.661256
O15	O	1.212889	0.011409	-0.846620
O16	O	1.255792	0.157295	-0.596910
O17	O	1.129606	0.160470	-0.685832
C18	C	0.965253	0.081426	-0.601970
C19	C	0.867879	0.091269	-0.585097
C20	C	0.554823	-0.011798	-0.762063
C21	C	0.646310	-0.021045	-0.777922
C22	C	0.701706	0.007032	-0.729717
C23	C	0.665607	0.044359	-0.665651
C24	C	0.574110	0.053609	-0.649795
C25	C	0.720994	0.072440	-0.617449
C26	C	0.684895	0.109766	-0.553382
C27	C	0.593407	0.119015	-0.537530
C28	C	0.538010	0.090937	-0.585735
C29	C	0.812491	0.063189	-0.633304
C30	C	0.831779	0.128597	-0.521036
C31	C	0.740292	0.137844	-0.505177
C32	C	1.192694	0.175183	-0.641380
C33	C	1.192698	0.225116	-0.641387
C34	C	1.258595	0.533067	-0.595213
C35	C	1.258675	0.720730	-0.595247
O36	O	1.314610	0.743566	-0.555956
N37	N	1.192947	0.745871	-0.641492
C38	C	1.127199	0.724093	-0.687736
O39	O	1.071300	0.749782	-0.727078
C40	C	1.127123	0.536430	-0.687706
C41	C	1.192849	0.511292	-0.641451
C42	C	1.324316	0.507929	-0.548962
C43	C	1.324293	0.461017	-0.548950
C44	C	1.258548	0.439242	-0.595189
C45	C	1.192826	0.464380	-0.641439
C46	C	1.061378	0.514652	-0.733955
C47	C	1.061367	0.467733	-0.733946
C48	C	1.127093	0.442595	-0.687690
C49	C	1.127057	0.395693	-0.687666
N50	N	1.192785	0.370552	-0.641421
C51	C	1.258530	0.392326	-0.595183
C52	C	1.127242	0.822619	-0.687747
C53	C	1.127260	0.869535	-0.687753
C54	C	1.258737	0.866168	-0.595266
C55	C	1.258715	0.819252	-0.595255
C56	C	1.192969	0.797478	-0.641502
C57	C	1.258475	0.293807	-0.595160
C58	C	1.258444	0.246891	-0.595149
C59	C	1.126969	0.250261	-0.687640
C60	C	1.126998	0.297173	-0.687648
C61	C	1.192758	0.318945	-0.641406
O62	O	1.071156	0.372826	-0.726944
O63	O	1.314431	0.366627	-0.555862
C64	C	1.258618	0.579979	-0.595225
C65	C	1.192896	0.605117	-0.641475
C66	C	1.127151	0.583342	-0.687714
C67	C	1.192914	0.652033	-0.641482
C68	C	1.258659	0.673807	-0.595243
C69	C	1.324387	0.648666	-0.548999
C70	C	1.324363	0.601754	-0.548987
C71	C	1.061424	0.608483	-0.733959
C72	C	1.061452	0.655396	-0.733966
C73	C	1.127197	0.677170	-0.687728
C74	C	1.421352	0.035363	-0.681108
C75	C	1.518723	0.025530	-0.698003
C76	C	1.153401	0.042104	-0.869931
C77	C	1.136587	0.035143	-0.967291
C78	C	1.193014	0.941240	-0.641543
C79	C	1.193005	0.891309	-0.641515
C80	C	1.072707	0.008793	-1.003329
C81	C	1.056898	0.002254	-1.094801
C82	C	1.104971	0.022062	-1.150246
C83	C	1.168856	0.048411	-1.114208
C84	C	1.184662	0.054953	-1.022726
C85	C	1.216926	0.068223	-1.169643
C86	C	1.280811	0.094571	-1.133606
C87	C	1.296615	0.101112	-1.042132
C88	C	1.248542	0.081304	-0.986688
C89	C	1.201120	0.061681	-1.261125
C90	C	1.313076	0.107841	-1.280522
C91	C	1.328885	0.114380	-1.189050
C92	C	1.232212	0.074673	-0.413890
C93	C	1.249196	0.081491	-0.316560
H94	H	0.509710	-0.034653	-0.801310
H95	H	0.463512	0.098467	-0.572832
H96	H	0.564017	0.149412	-0.485369
H97	H	1.073480	0.317641	-0.725316
H98	H	0.710886	0.168236	-0.453015
C99	C	1.329965	0.317436	-0.545126
C100	C	1.377537	0.335096	-0.604515
C101	C	1.443410	0.356858	-0.558459
H102	H	1.303214	0.341905	-0.501122
H103	H	1.369144	0.295744	-0.517614
H104	H	1.338365	0.356786	-0.632013
H105	H	1.404308	0.310636	-0.648521
H106	H	1.482589	0.335166	-0.530947
H107	H	1.416651	0.381325	-0.514456
H108	H	1.475701	0.368839	-0.598748
H109	H	1.149106	0.040227	-1.290457
C110	C	0.801020	-0.003098	-0.747026
C111	C	0.820781	-0.041804	-0.813431
C112	C	0.912265	-0.051156	-0.829390
H113	H	0.819196	0.022701	-0.765693
H114	H	0.831498	-0.008994	-0.694135
H115	H	0.790314	-0.035905	-0.866311
H116	H	0.802627	-0.067610	-0.794782
H117	H	0.942743	-0.057052	-0.776500
H118	H	0.930433	-0.025355	-0.848055
H119	H	0.925686	-0.077421	-0.874442
H120	H	1.377815	0.440552	-0.511289
C121	C	1.329952	0.791960	-0.544907
C122	C	1.290095	0.774093	-0.480105
C123	C	1.355695	0.748956	-0.433699
H124	H	1.362334	0.767351	-0.584960
H125	H	1.369099	0.811643	-0.517316
H126	H	1.250964	0.754411	-0.507695
H127	H	1.257718	0.798692	-0.440033
H128	H	1.394842	0.768639	-0.406109
H129	H	1.388074	0.724350	-0.473759
H130	H	1.328662	0.736834	-0.389721
C131	C	1.265695	0.088501	-0.887369
C132	C	1.248523	0.135703	-0.853186
C133	C	1.264322	0.142350	-0.761698
H134	H	1.227939	0.072970	-0.859404
H135	H	1.325830	0.076528	-0.876462
H136	H	1.188398	0.147670	-0.864085
H137	H	1.286276	0.151244	-0.881125
H138	H	1.324457	0.130377	-0.750791
H139	H	1.226565	0.126816	-0.733742
H140	H	1.252681	0.174376	-0.738495
C141	C	0.892066	0.159017	-0.468754
C142	C	0.979920	0.142919	-0.496333
C143	C	1.035487	0.170926	-0.448190
H144	H	0.874960	0.189834	-0.478822
H145	H	0.887282	0.158110	-0.407315
H146	H	0.984700	0.143832	-0.557758
H147	H	0.997053	0.112106	-0.486264
H148	H	1.030703	0.170018	-0.386751
H149	H	1.018373	0.201742	-0.458262
H150	H	1.095102	0.160005	-0.466890
C151	C	1.330258	0.889792	-0.545274
C152	C	1.377793	0.907437	-0.604716
C153	C	1.443715	0.929187	-0.558726
H154	H	1.303551	0.914267	-0.501257
H155	H	1.369449	0.868096	-0.517784
H156	H	1.338607	0.929131	-0.632191
H157	H	1.404519	0.882971	-0.648735
H158	H	1.482907	0.907491	-0.531236
H159	H	1.417001	0.953660	-0.514709
H160	H	1.475981	0.941158	-0.599051
C161	C	1.055976	0.798937	-0.738090
C162	C	1.095802	0.762952	-0.802892
C163	C	1.030177	0.741134	-0.849289
H164	H	1.023580	0.786871	-0.698032
H165	H	1.016846	0.820615	-0.765680
H166	H	1.134917	0.741278	-0.775303
H167	H	1.128193	0.775006	-0.842969
H168	H	0.991046	0.762812	-0.876879
H169	H	0.997785	0.729070	-0.809224
H170	H	1.057188	0.716718	-0.893268
C171	C	0.987659	-0.026394	-1.134069
C172	C	1.028218	-0.063952	-1.195246
C173	C	0.964455	-0.090348	-1.231450
H174	H	0.961247	-0.037303	-1.088053
H175	H	0.943309	-0.007912	-1.163162
H176	H	1.072552	-0.082431	-1.166154
H177	H	1.054625	-0.053056	-1.241279
H178	H	0.920104	-0.071866	-1.260543
H179	H	0.938047	-0.101254	-1.185427
H180	H	0.991963	-0.115831	-1.272968
H181	H	1.073732	0.889999	-0.725409
H182	H	1.348623	0.122574	-1.012792
H183	H	1.380900	0.135833	-1.159695
H184	H	0.675694	-0.051436	-0.830087
C185	C	1.329911	0.219673	-0.544912
C186	C	1.387505	0.248784	-0.504444
C187	C	1.453356	0.223727	-0.458171
H188	H	1.303132	0.207504	-0.500843
H189	H	1.362304	0.195098	-0.585052
H190	H	1.355116	0.273350	-0.464308
H191	H	1.414306	0.260953	-0.548493
H192	H	1.485749	0.199153	-0.498311
H193	H	1.426569	0.211560	-0.414107
H194	H	1.492446	0.243475	-0.430715
H195	H	1.377917	0.666404	-0.511347
H196	H	1.092096	0.016737	-1.224726
C197	C	1.395751	0.531488	-0.498661
C198	C	1.453281	0.499425	-0.458145
C199	C	1.519091	0.521110	-0.411781
H200	H	1.428213	0.543515	-0.538726
H201	H	1.368903	0.555917	-0.454615
H202	H	1.480129	0.475005	-0.502187
H203	H	1.420846	0.487396	-0.418066
H204	H	1.492242	0.545538	-0.367734
H205	H	1.551545	0.533136	-0.451851
H206	H	1.558128	0.499360	-0.384278
H207	H	1.007853	0.535112	-0.771616
C208	C	0.990036	0.682601	-0.784280
C209	C	0.932474	0.653481	-0.824788
C210	C	0.866689	0.678521	-0.871160
H211	H	0.957593	0.707185	-0.744221
H212	H	1.016904	0.694749	-0.828332
H213	H	0.905607	0.641339	-0.780742
H214	H	0.964890	0.628896	-0.864861
H215	H	0.893558	0.690670	-0.915212
H216	H	0.834254	0.703105	-0.831095
H217	H	0.827631	0.658766	-0.898657
C218	C	0.989883	0.444180	-0.784179
C219	C	0.932323	0.476243	-0.824668
C220	C	0.866457	0.454565	-0.870940
H221	H	1.016651	0.419743	-0.828236
H222	H	0.957467	0.432170	-0.744036
H223	H	0.964734	0.488246	-0.864808
H224	H	0.905533	0.500681	-0.780631
H225	H	0.834041	0.442555	-0.830797
H226	H	0.893233	0.430129	-0.914993
H227	H	0.827390	0.476317	-0.898410
C228	C	1.055695	0.226526	-0.737826
C229	C	1.069767	0.180057	-0.727933
C230	C	1.004137	0.158174	-0.774168
H231	H	0.999021	0.241055	-0.714807
H232	H	1.058316	0.228667	-0.798929
H233	H	1.067137	0.177918	-0.666843
H234	H	1.126428	0.165514	-0.750957
H235	H	1.006759	0.160315	-0.835271
H236	H	0.947468	0.172707	-0.751145
H237	H	1.013681	0.126642	-0.767468
H238	H	1.007887	0.590758	-0.771613
C239	C	1.365223	0.129288	-1.340863
C240	C	1.337730	0.117906	-1.428691
C241	C	1.385753	0.137646	-1.484308
H242	H	1.354986	0.161851	-1.323743
H243	H	1.426692	0.117827	-1.336143
H244	H	1.276275	0.129369	-1.433407
H245	H	1.347969	0.085346	-1.445838
H246	H	1.447222	0.126186	-1.479588
H247	H	1.375513	0.170209	-1.467180
H248	H	1.367112	0.129923	-1.543906
H249	H	0.841874	0.032797	-0.685467
H250	H	1.377884	0.581290	-0.511322
H251	H	1.033568	-0.007329	-0.958178
