data_functionalizedCrystal
_audit_creation_method	'MofGen! by Chris Wilmer'
_symmetry_space_group_name_H-M	'P1'
_symmetry_Int_Tables_number	1
_symmetry_cell_setting	triclinic
loop_
_symmetry_equiv_pos_as_xyz
  x,y,z
_cell_length_a	12.837943
_cell_length_b	14.853567
_cell_length_c	11.892095
_cell_angle_alpha	93.898435
_cell_angle_beta	85.689438
_cell_angle_gamma	89.231935
loop_
_atom_site_label
_atom_site_type_symbol
_atom_site_fract_x
_atom_site_fract_y
_atom_site_fract_z
O1	O	1.382409	0.229205	-0.093964
O2	O	1.080587	0.217625	-0.093972
O3	O	1.239561	0.092869	-0.093971
O4	O	1.223436	0.353961	-0.093965
O5	O	1.226306	0.103253	0.094036
O6	O	1.067332	0.228009	0.094035
O7	O	1.369154	0.239589	0.094043
Zn8	Zn	1.216139	0.235448	0.123889
Zn9	Zn	1.233603	0.221766	-0.123818
O10	O	1.210181	0.364345	0.094042
C11	C	1.035334	0.218906	0.000031
C12	C	0.920240	0.207240	0.000027
C13	C	1.232203	0.064410	0.000029
C14	C	1.230014	-0.035860	0.000019
C15	C	0.679482	0.347487	0.000047
C16	C	0.571341	0.336530	0.000045
C17	C	0.595813	0.174369	0.000029
C18	C	0.703955	0.185327	0.000031
C19	C	0.745785	0.271888	0.000038
C20	C	0.853929	0.282844	0.000032
C21	C	0.878399	0.120685	0.000024
C22	C	0.770257	0.109727	0.000022
C23	C	1.126324	-0.457187	0.000038
C24	C	1.315188	-0.462449	0.000043
C25	C	1.317247	-0.368241	0.000036
C26	C	1.223843	-0.318502	0.000032
C27	C	1.128380	-0.362970	0.000035
C28	C	1.412707	-0.323765	0.000045
C29	C	1.414770	-0.229551	0.000040
C30	C	1.321366	-0.179810	0.000028
C31	C	1.225899	-0.224285	0.000029
C32	C	1.132495	-0.174546	0.000025
C33	C	1.037028	-0.219019	0.000018
C34	C	1.034976	-0.313230	0.000023
C35	C	1.323418	-0.085599	0.000023
C36	C	1.134551	-0.080329	0.000022
C37	C	1.414408	0.238308	0.000038
C38	C	1.529502	0.249974	0.000034
C39	C	1.217539	0.392804	0.000040
C40	C	1.219728	0.493073	0.000042
N41	N	1.204228	0.244785	0.292943
N42	N	1.245522	0.212422	-0.292873
C43	C	1.328405	0.147396	0.529592
C44	C	1.320087	0.153930	0.647934
C45	C	1.179269	0.264382	0.647971
C46	C	1.187587	0.257848	0.529629
C47	C	1.262159	0.199354	0.470444
C48	C	1.270481	0.192826	0.352100
C49	C	1.129659	0.303272	0.352140
C50	C	1.121341	0.309806	0.470481
H51	H	0.887985	0.353327	0.000040
C52	C	1.352508	0.128479	0.286997
N53	N	1.414289	0.080009	0.237966
C54	C	0.929970	-0.362156	0.000039
N55	N	0.850879	-0.399011	0.000061
C56	C	0.725499	0.442704	0.000048
N57	N	0.760157	0.514423	0.000049
H58	H	0.517360	0.398091	0.000055
H59	H	1.048598	-0.493402	0.000028
H60	H	1.391232	-0.502952	0.000055
H61	H	1.058490	-0.039837	0.000014
C62	C	1.056783	0.360429	0.287067
N63	N	1.001896	0.403480	0.238053
C64	C	0.549779	0.079160	0.000033
N65	N	0.515105	0.007447	0.000037
C66	C	1.097222	0.328696	0.713096
N67	N	1.035417	0.377132	0.762149
C68	C	0.724231	0.014514	0.000012
N69	N	0.689565	-0.057202	0.000001
H70	H	0.932395	0.059126	0.000010
H71	H	0.960979	-0.178508	0.000023
C72	C	1.515443	-0.378482	0.000057
N73	N	1.592828	-0.419700	0.000065
H74	H	1.492505	-0.193349	0.000043
C75	C	1.410437	0.083058	0.464485
N76	N	1.472225	0.034596	0.415448
H77	H	1.401145	-0.049393	0.000036
H78	H	1.374030	0.111620	0.696089
C79	C	1.039309	0.374139	0.535599
N80	N	0.977521	0.422595	0.584644
