data_functionalizedCrystal
_audit_creation_method	'MofGen! by Chris Wilmer'
_symmetry_space_group_name_H-M	'P1'
_symmetry_Int_Tables_number	1
_symmetry_cell_setting	triclinic
loop_
_symmetry_equiv_pos_as_xyz
  x,y,z
_cell_length_a	21.395364
_cell_length_b	18.050590
_cell_length_c	21.395355
_cell_angle_alpha	90.018036
_cell_angle_beta	90.024516
_cell_angle_gamma	90.014317
loop_
_atom_site_label
_atom_site_type_symbol
_atom_site_fract_x
_atom_site_fract_y
_atom_site_fract_z
Zn1	Zn	0.957912	-0.295829	0.354263
Zn2	Zn	1.291245	0.037504	0.687596
Zn3	Zn	1.624579	0.370837	1.020930
Zn4	Zn	0.957837	-0.420001	0.249486
Zn5	Zn	1.291170	-0.086668	0.582820
Zn6	Zn	1.624503	0.246665	0.916153
Zn7	Zn	0.853127	-0.295820	0.249500
Zn8	Zn	1.186460	0.037513	0.582833
Zn9	Zn	1.519794	0.370846	0.916166
Zn10	Zn	0.853118	-0.419973	0.354227
Zn11	Zn	1.186452	-0.086640	0.687560
Zn12	Zn	1.519785	0.246694	1.020893
O13	O	0.905498	-0.357906	0.301869
O14	O	1.238832	-0.024573	0.635202
O15	O	1.572165	0.308761	0.968536
O16	O	1.045580	-0.312317	0.340374
O17	O	1.378913	0.021017	0.673707
O18	O	1.712247	0.354350	1.007040
O19	O	0.943919	-0.403536	0.161810
O20	O	1.277252	-0.070203	0.495143
O21	O	1.610585	0.263130	0.828477
O22	O	0.867062	-0.191897	0.263418
O23	O	1.200395	0.141436	0.596751
O24	O	1.533729	0.474770	0.930084
O25	O	1.045525	-0.403545	0.263395
O26	O	1.378858	-0.070212	0.596728
O27	O	1.712191	0.263122	0.930061
O28	O	0.944047	-0.191904	0.340387
O29	O	1.277380	0.141430	0.673720
O30	O	1.610714	0.474763	1.007053
O31	O	0.866989	-0.312301	0.161820
O32	O	1.200322	0.021032	0.495153
O33	O	1.533656	0.354365	0.828487
O34	O	0.765448	-0.312274	0.263382
O35	O	1.098781	0.021060	0.596716
O36	O	1.432115	0.354393	0.930049
O37	O	0.867047	-0.403497	0.441909
O38	O	1.200381	-0.070164	0.775243
O39	O	1.533714	0.263170	1.108576
O40	O	0.765442	-0.403488	0.340325
O41	O	1.098775	-0.070155	0.673658
O42	O	1.432108	0.263179	1.006991
O43	O	0.944039	-0.312289	0.441936
O44	O	1.277372	0.021044	0.775269
O45	O	1.610705	0.354377	1.108603
O46	O	0.943910	-0.523922	0.263360
O47	O	1.277244	-0.190589	0.596693
O48	O	1.610577	0.142745	0.930026
O49	O	0.866974	-0.523901	0.340312
O50	O	1.200308	-0.190568	0.673645
O51	O	1.533641	0.142765	1.006978
C52	C	0.742711	-0.357877	0.301851
C53	C	1.076044	-0.024544	0.635185
C54	C	1.409378	0.308789	0.968518
C55	C	0.673070	-0.357883	0.301859
C56	C	1.006403	-0.024550	0.635192
C57	C	1.339736	0.308784	0.968525
C58	C	0.171302	-0.310515	0.342026
C59	C	0.504635	0.022818	0.675359
C60	C	0.837968	0.356151	1.008693
C61	C	0.236737	-0.310510	0.342026
C62	C	0.570070	0.022823	0.675359
C63	C	0.903404	0.356157	1.008692
C64	C	0.269431	-0.357929	0.301883
C65	C	0.602765	-0.024595	0.635216
C66	C	0.936098	0.308738	0.968550
C67	C	0.236685	-0.405370	0.261749
C68	C	0.570018	-0.072037	0.595082
C69	C	0.903351	0.261297	0.928415
C70	C	0.171251	-0.405379	0.261754
C71	C	0.504584	-0.072046	0.595088
C72	C	0.837917	0.261287	0.928421
C73	C	0.373069	-0.363679	0.245416
C74	C	0.706402	-0.030346	0.578749
C75	C	1.039735	0.302987	0.912082
C76	C	0.438502	-0.363665	0.245409
C77	C	0.771835	-0.030331	0.578742
C78	C	1.105168	0.303002	0.912076
C79	C	0.471252	-0.357904	0.301866
C80	C	0.804585	-0.024571	0.635199
C81	C	1.137919	0.308763	0.968532
C82	C	0.438561	-0.352142	0.358331
C83	C	0.771895	-0.018809	0.691664
C84	C	1.105228	0.314525	1.024997
C85	C	0.373127	-0.352152	0.358337
C86	C	0.706460	-0.018818	0.691670
C87	C	1.039794	0.314515	1.025003
C88	C	0.340384	-0.357924	0.301873
C89	C	0.673717	-0.024591	0.635206
C90	C	1.007050	0.308743	0.968539
C91	C	0.574943	-0.310463	0.342000
C92	C	0.908277	0.022870	0.675334
C93	C	1.241610	0.356203	1.008667
C94	C	0.640380	-0.310463	0.342001
C95	C	0.973713	0.022870	0.675335
C96	C	1.307047	0.356204	1.008668
C97	C	0.640326	-0.405319	0.261718
C98	C	0.973660	-0.071986	0.595052
C99	C	1.306993	0.261347	0.928385
C100	C	0.574891	-0.405323	0.261723
C101	C	0.908224	-0.071990	0.595057
C102	C	1.241558	0.261343	0.928390
C103	C	0.542203	-0.357892	0.301863
C104	C	0.875537	-0.024558	0.635197
C105	C	1.208870	0.308775	0.968530
C106	C	0.905450	-0.550858	0.301844
C107	C	1.238784	-0.217525	0.635177
C108	C	1.572117	0.115809	0.968511
C109	C	0.905487	-0.633404	0.301854
C110	C	1.238820	-0.300071	0.635187
C111	C	1.572154	0.033263	0.968521
C112	C	0.947412	-0.832839	0.260066
C113	C	1.280745	-0.499505	0.593399
C114	C	1.614079	-0.166172	0.926733
C115	C	0.962722	-0.882185	0.317250
C116	C	1.296055	-0.548852	0.650583
C117	C	1.629389	-0.215518	0.983917
C118	C	0.905523	-0.784534	0.301879
C119	C	1.238856	-0.451201	0.635212
C120	C	1.572189	-0.117868	0.968546
C121	C	0.890276	-0.882270	0.244721
C122	C	1.223610	-0.548936	0.578054
C123	C	1.556943	-0.215603	0.911388
C124	C	0.905558	-0.930519	0.301898
C125	C	1.238891	-0.597186	0.635232
C126	C	1.572225	-0.263853	0.968565
C127	C	0.920862	-0.832793	0.359093
C128	C	1.254195	-0.499460	0.692426
C129	C	1.587529	-0.166126	1.025760
C130	C	0.848390	-0.832873	0.286526
C131	C	1.181723	-0.499540	0.619859
C132	C	1.515057	-0.166207	0.953192
C133	C	0.863678	-0.882197	0.343749
C134	C	1.197011	-0.548864	0.677082
C135	C	1.530345	-0.215531	1.010416
C136	C	0.905504	-0.700436	0.301867
C137	C	1.238837	-0.367103	0.635201
C138	C	1.572170	-0.033769	0.968534
C139	C	0.905577	-1.014616	0.301917
C140	C	1.238910	-0.681282	0.635250
C141	C	1.572244	-0.347949	0.968583
C142	C	1.068922	-0.357935	0.301887
C143	C	1.402255	-0.024602	0.635220
C144	C	1.735588	0.308732	0.968553
C145	C	1.138563	-0.357947	0.301894
C146	C	1.471896	-0.024614	0.635228
C147	C	1.805230	0.308719	0.968561
C148	C	0.905550	-0.357891	0.465292
C149	C	1.238884	-0.024558	0.798626
C150	C	1.572217	0.308776	1.131959
C151	C	0.905573	-0.357885	0.534933
C152	C	1.238906	-0.024551	0.868267
C153	C	1.572239	0.308782	1.201600
C154	C	0.905564	-0.164200	0.301908
C155	C	1.238897	0.169133	0.635241
C156	C	1.572231	0.502466	0.968574
C157	C	0.905592	-0.081655	0.301924
C158	C	1.238925	0.251679	0.635258
C159	C	1.572258	0.585012	0.968591
C160	C	0.905483	-0.357867	0.139081
C161	C	1.238816	-0.024534	0.472415
C162	C	1.572149	0.308799	0.805748
C163	C	0.905582	-0.357665	0.069440
C164	C	1.238915	-0.024331	0.402774
C165	C	1.572249	0.309002	0.736107
C166	C	0.945660	-0.310391	0.567662
C167	C	1.278994	0.022943	0.900995
C168	C	1.612327	0.356276	1.234328
C169	C	0.945659	-0.310359	0.633097
C170	C	1.278993	0.022975	0.966430
C171	C	1.612326	0.356308	1.299764
C172	C	0.905578	-0.357834	0.665802
C173	C	1.238911	-0.024501	0.999135
C174	C	1.572244	0.308833	1.332469
C175	C	0.865482	-0.405331	0.633066
C176	C	1.198815	-0.071998	0.966399
C177	C	1.532149	0.261336	1.299733
C178	C	0.865480	-0.405356	0.567632
C179	C	1.198813	-0.072023	0.900965
C180	C	1.532146	0.261310	1.234298
C181	C	0.900614	-0.424703	0.769468
C182	C	1.233947	-0.091369	1.102801
C183	C	1.567280	0.241964	1.436135
C184	C	0.900620	-0.424678	0.834901
C185	C	1.233954	-0.091345	1.168234
C186	C	1.567287	0.241988	1.501568
C187	C	0.905581	-0.357755	0.867623
C188	C	1.238915	-0.024422	1.200956
C189	C	1.572248	0.308911	1.534289
C190	C	0.910549	-0.290854	0.834904
C191	C	1.243882	0.042479	1.168237
C192	C	1.577215	0.375812	1.501570
C193	C	0.910546	-0.290880	0.769469
C194	C	1.243880	0.042454	1.102803
C195	C	1.577213	0.375787	1.436136
C196	C	0.905575	-0.357811	0.736754
C197	C	1.238909	-0.024478	1.070088
C198	C	1.572242	0.308855	1.403421
C199	C	0.945670	-0.310223	0.971303
C200	C	1.279004	0.023110	1.304637
C201	C	1.612337	0.356444	1.637970
C202	C	0.945665	-0.310190	1.036740
C203	C	1.278998	0.023144	1.370073
C204	C	1.612332	0.356477	1.703407
C205	C	0.865491	-0.405169	1.036708
C206	C	1.198824	-0.071835	1.370041
C207	C	1.532158	0.261498	1.703374
C208	C	0.865493	-0.405195	0.971272
C209	C	1.198826	-0.071862	1.304606
C210	C	1.532160	0.261471	1.637939
C211	C	0.905586	-0.357723	0.938574
C212	C	1.238919	-0.024390	1.271907
C213	C	1.572253	0.308943	1.605241
H214	H	0.548328	-0.271841	0.374685
H215	H	0.881661	0.061492	0.708018
H216	H	1.214994	0.394825	1.041351
Cl217	Cl	0.809009	-0.915452	0.398415
Cl218	Cl	1.142342	-0.582118	0.731748
Cl219	Cl	1.475676	-0.248785	1.065082
Cl220	Cl	1.002120	-0.799374	0.205528
Cl221	Cl	1.335453	-0.466041	0.538862
Cl222	Cl	1.668786	-0.132707	0.872195
H223	H	0.263309	-0.443981	0.229066
H224	H	0.596642	-0.110647	0.562399
H225	H	0.929975	0.222686	0.895732
H226	H	0.667035	-0.271840	0.374686
H227	H	1.000368	0.061493	0.708019
H228	H	1.333701	0.394826	1.041352
H229	H	0.144595	-0.444006	0.229074
H230	H	0.477928	-0.110672	0.562407
H231	H	0.811262	0.222661	0.895740
Cl232	Cl	0.916788	-0.206717	0.876032
Cl233	Cl	1.250122	0.126617	1.209365
Cl234	Cl	1.583455	0.459950	1.542699
H235	H	0.832853	-0.443874	0.944625
H236	H	1.166186	-0.110541	1.277958
H237	H	1.499519	0.222792	1.611292
Cl238	Cl	0.130212	-0.250893	0.392493
Cl239	Cl	0.463545	0.082440	0.725826
Cl240	Cl	0.796879	0.415774	1.059160
Cl241	Cl	0.479725	-0.344889	0.429309
Cl242	Cl	0.813059	-0.011556	0.762643
Cl243	Cl	1.146392	0.321777	1.095976
Cl244	Cl	1.037343	-0.915613	0.337330
Cl245	Cl	1.370677	-0.582280	0.670663
Cl246	Cl	1.704010	-0.248947	1.003997
H247	H	0.933724	-0.811153	0.407481
H248	H	1.267057	-0.477819	0.740814
H249	H	1.600391	-0.144486	1.074147
H250	H	0.832832	-0.444031	0.540985
H251	H	1.166166	-0.110697	0.874318
H252	H	1.499499	0.222636	1.207652
Cl253	Cl	0.681422	-0.464938	0.211258
Cl254	Cl	1.014755	-0.131605	0.544591
Cl255	Cl	1.348088	0.201728	0.877924
Cl256	Cl	0.773788	-0.799406	0.266433
Cl257	Cl	1.107122	-0.466073	0.599767
Cl258	Cl	1.440455	-0.132740	0.933100
Cl259	Cl	0.870344	-0.915824	0.170080
Cl260	Cl	1.203677	-0.582491	0.503413
Cl261	Cl	1.537010	-0.249158	0.836747
H262	H	0.978307	-0.271734	0.541043
H263	H	1.311640	0.061599	0.874376
H264	H	1.644973	0.394932	1.207709
Cl265	Cl	0.916786	-0.206780	0.728339
Cl266	Cl	1.250119	0.126554	1.061672
Cl267	Cl	1.583453	0.459887	1.395005
Cl268	Cl	0.533731	-0.464944	0.211259
Cl269	Cl	0.867065	-0.131611	0.544593
Cl270	Cl	1.200398	0.201722	0.877926
Cl271	Cl	0.996047	-0.250633	0.674249
Cl272	Cl	1.329380	0.082701	1.007583
Cl273	Cl	1.662713	0.416034	1.340916
Cl274	Cl	0.815091	-0.465011	0.674180
Cl275	Cl	1.148424	-0.131678	1.007513
Cl276	Cl	1.481757	0.201655	1.340846
Cl277	Cl	0.479592	-0.370894	0.174424
Cl278	Cl	0.812925	-0.037561	0.507758
Cl279	Cl	1.146259	0.295773	0.841091
Cl280	Cl	0.996068	-0.250542	0.930194
Cl281	Cl	1.329402	0.082792	1.263527
Cl282	Cl	1.662735	0.416125	1.596861
H283	H	0.346409	-0.368374	0.199439
H284	H	0.679742	-0.035040	0.532772
H285	H	1.013076	0.298293	0.866106
H286	H	0.978308	-0.271510	1.063386
H287	H	1.311642	0.061823	1.396719
H288	H	1.644975	0.395156	1.730053
H289	H	0.832849	-0.443816	1.063335
H290	H	1.166182	-0.110483	1.396669
H291	H	1.499516	0.222850	1.730002
Cl292	Cl	0.894395	-0.508845	0.728339
Cl293	Cl	1.227729	-0.175512	1.061672
Cl294	Cl	1.561062	0.157822	1.395005
Cl295	Cl	0.277903	-0.250874	0.392479
Cl296	Cl	0.611236	0.082459	0.725812
Cl297	Cl	0.944570	0.415792	1.059146
Cl298	Cl	0.332032	-0.344915	0.429318
Cl299	Cl	0.665366	-0.011581	0.762651
Cl300	Cl	0.998699	0.321752	1.095985
Cl301	Cl	0.894382	-0.508782	0.876027
Cl302	Cl	1.227715	-0.175448	1.209360
Cl303	Cl	1.561048	0.157885	1.542694
