data_functionalizedCrystal
_audit_creation_method	'MofGen! by Chris Wilmer'
_symmetry_space_group_name_H-M	'P1'
_symmetry_Int_Tables_number	1
_symmetry_cell_setting	triclinic
loop_
_symmetry_equiv_pos_as_xyz
  x,y,z
_cell_length_a	15.698487
_cell_length_b	21.606444
_cell_length_c	21.606444
_cell_angle_alpha	60.003871
_cell_angle_beta	59.999624
_cell_angle_gamma	90.000958
loop_
_atom_site_label
_atom_site_type_symbol
_atom_site_fract_x
_atom_site_fract_y
_atom_site_fract_z
Zr1	Zr	0.820601	-0.081206	0.677458
O2	O	0.684584	-0.180023	0.806570
O3	O	0.862298	-0.050917	0.548342
O4	O	0.862297	-0.180030	0.677455
O5	O	0.684586	0.050939	0.677462
O6	O	1.002478	-0.180031	0.677457
O7	O	0.684586	-0.050911	0.677457
O8	O	1.002481	0.050928	0.446498
O9	O	0.684583	-0.180020	0.908421
O10	O	0.984696	-0.037996	0.601453
O11	O	0.880080	0.038014	0.601454
O12	O	0.880078	-0.113999	0.753468
O13	O	0.775462	-0.037989	0.753470
Zr14	Zr	1.044173	0.081230	0.677469
Zr15	Zr	1.044173	-0.081209	0.677462
Zr16	Zr	0.820600	0.081232	0.677465
Zr17	Zr	0.820598	-0.081201	0.839899
Zr18	Zr	1.044175	0.081224	0.515029
O19	O	1.002475	0.050940	0.806586
O20	O	1.002476	-0.180027	0.806576
O21	O	0.684584	0.050943	0.806580
O22	O	1.180189	0.180046	0.548358
O23	O	1.180190	-0.050920	0.548348
O24	O	0.862298	0.180050	0.548352
O25	O	1.180188	-0.050916	0.677466
O26	O	1.002477	0.180053	0.677473
O27	O	0.862296	0.180054	0.677470
O28	O	1.180188	0.050934	0.677470
O29	O	0.862293	-0.180022	0.908424
O30	O	1.002480	0.180045	0.446504
O31	O	1.180191	0.180043	0.446507
O32	O	1.180191	0.050926	0.446501
O33	O	0.684583	-0.050903	0.908426
O34	O	0.862293	-0.050905	0.908430
O35	O	0.984696	0.114022	0.601460
O36	O	1.089311	0.038012	0.601458
O37	O	0.984694	-0.037991	0.753473
O38	O	0.880078	0.038019	0.753475
C39	C	0.652732	0.000015	0.677459
C40	C	0.557819	0.000016	0.677457
C41	C	0.932390	0.000005	0.474276
C42	C	0.932391	0.000003	0.405316
C43	C	0.932386	0.203197	0.677473
C44	C	0.932386	0.272157	0.677476
C45	C	0.384034	0.000009	0.677473
C46	C	0.480738	0.000011	0.677468
C47	C	1.212042	0.000008	0.677469
C48	C	1.306955	0.000007	0.677470
C49	C	0.932387	-0.203174	0.677455
C50	C	0.932387	-0.272134	0.677452
C51	C	0.877779	0.264883	0.756825
C52	C	0.877774	0.329681	0.756823
C53	C	0.932384	0.401751	0.677470
C54	C	0.986993	0.409023	0.598114
C55	C	0.986991	0.344226	0.598117
C56	C	0.987001	0.670341	0.598099
C57	C	0.987002	0.735139	0.598101
C58	C	0.877785	0.655795	0.756804
C59	C	0.877783	0.590999	0.756808
C60	C	0.932387	0.598276	0.677452
C61	C	0.932390	0.528015	0.677456
C62	C	0.932388	0.472011	0.677465
C63	C	0.986997	-0.039675	0.372917
C64	C	0.987001	-0.039670	0.308117
C65	C	0.932391	0.000009	0.275721
C66	C	0.877784	0.039692	0.308122
C67	C	0.877787	0.039691	0.372917
C68	C	0.877772	0.039698	0.046813
C69	C	0.877770	0.039694	-0.017984
C70	C	0.986985	-0.039662	-0.017986
C71	C	0.986988	-0.039664	0.046808
C72	C	0.932386	0.000022	0.079200
C73	C	0.932384	0.000017	0.149462
C74	C	0.932387	0.000010	0.205465
C75	C	0.932384	0.000018	0.880652
C76	C	0.932383	0.000020	0.949612
C77	C	1.212045	0.000002	0.474281
C78	C	1.306959	-0.000001	0.405322
C79	C	0.932389	0.203191	0.474285
C80	C	0.932390	0.272148	0.405327
C81	C	1.212045	0.203188	0.474289
C82	C	1.306958	0.272144	0.405334
C83	C	0.652729	-0.203165	0.880638
C84	C	0.557816	-0.272121	0.949594
C85	C	0.652729	0.000021	0.880647
C86	C	0.557815	0.000025	0.949605
C87	C	0.932384	-0.203168	0.880643
C88	C	0.932383	-0.272125	0.949600
C89	C	1.296923	-0.039685	0.372936
C90	C	1.386096	-0.039704	0.308151
C91	C	1.485303	-0.000033	0.275749
C92	C	1.495337	0.039652	0.308142
C93	C	1.406165	0.039665	0.372930
C94	C	0.986999	0.344213	0.372947
C95	C	0.986996	0.409012	0.308164
C96	C	0.932390	0.401744	0.275757
C97	C	0.877774	0.329671	0.308144
C98	C	0.877772	0.264874	0.372931
C99	C	1.406148	0.264850	0.372951
C100	C	1.495338	0.329635	0.308169
C101	C	1.485335	0.401714	0.275767
C102	C	1.386135	0.409007	0.308156
C103	C	1.296947	0.344222	0.372941
C104	C	0.458626	-0.264827	0.981985
C105	C	0.369436	-0.329612	1.046787
C106	C	0.379438	-0.401691	1.079192
C107	C	0.478639	-0.408983	1.046799
C108	C	0.567826	-0.344199	0.982002
C109	C	0.567851	0.039702	0.981999
C110	C	0.478678	0.039702	1.046801
C111	C	0.379471	0.000029	1.079205
C112	C	0.369437	-0.039653	1.046810
C113	C	0.458609	-0.039657	0.982012
C114	C	0.987000	-0.264832	0.981986
C115	C	0.987020	-0.329619	1.046770
C116	C	0.932416	-0.401697	1.079172
C117	C	0.877797	-0.408988	1.046779
C118	C	0.877784	-0.344202	0.981992
H119	H	0.833314	0.206204	0.821444
H120	H	0.648623	0.072013	0.955620
H121	H	1.031455	0.350153	0.533503
O122	O	0.262448	-0.321739	1.081703
H123	H	0.270486	-0.260732	1.048264
O124	O	1.045898	0.352069	0.407891
H125	H	1.106270	0.324459	0.395444
O126	O	1.045930	-0.321740	1.081699
H127	H	1.036786	-0.378894	1.132185
H128	H	0.486771	-0.467678	1.073192
O129	O	0.818901	-0.486724	1.081716
H130	H	0.758539	-0.518138	1.153188
O131	O	0.283294	0.000061	1.149069
H132	H	0.306950	0.034333	1.166131
H133	H	1.576124	0.071950	0.281751
H134	H	0.833304	-0.350151	0.955631
O135	O	0.283239	-0.471564	1.149090
H136	H	0.212589	-0.454375	1.166163
H137	H	1.414351	0.071985	0.399291
O138	O	0.674811	-0.352070	0.947056
H139	H	0.666771	-0.413076	0.980473
O140	O	0.818874	0.082480	0.273188
H141	H	0.780907	0.110074	0.306602
O142	O	0.489511	0.082514	1.081725
H143	H	0.573479	0.110111	1.048288
H144	H	1.378006	0.467702	0.281765
H145	H	0.288650	-0.071953	1.073203
H146	H	0.833315	0.323764	0.281749
H147	H	0.833318	0.071998	0.399297
H148	H	1.414312	0.206165	0.399323
H149	H	0.450461	-0.206142	0.955603
O150	O	1.045902	0.812885	0.512520
H151	H	1.014341	0.819491	0.474464
O152	O	0.818872	0.321838	0.842406
H153	H	0.780907	0.260838	0.897585
O154	O	0.447769	-0.082448	0.947073
H155	H	0.485771	-0.126311	0.959507
H156	H	1.031465	-0.206149	0.955615
O157	O	1.045923	0.486743	0.273224
H158	H	1.083911	0.480904	0.306632
O159	O	0.932415	0.471635	0.205864
H160	H	0.979579	0.522965	0.188788
O161	O	0.932420	-0.471569	1.149062
H162	H	1.013742	-0.471519	1.124195
H163	H	0.833318	0.532318	0.821425
O164	O	0.818869	0.647942	0.842400
H165	H	0.828029	0.705104	0.829072
H166	H	1.031450	-0.071974	-0.044370
O167	O	0.818976	0.187172	0.407713
H168	H	0.735038	0.180541	0.437200
O169	O	1.045959	0.678191	0.512513
H170	H	1.083962	0.739192	0.457337
H171	H	1.031452	0.467708	0.533503
O172	O	1.045897	-0.082472	0.407858
H173	H	1.083877	-0.110055	0.374434
H174	H	1.031466	-0.071978	0.281738
O175	O	1.581538	0.471584	0.205878
H176	H	1.581503	0.505805	0.230737
O177	O	1.045887	-0.082460	0.081752
H178	H	1.083867	-0.110045	0.048331
O179	O	1.189926	-0.082484	0.407885
H180	H	1.197945	-0.110087	0.374482
O181	O	1.602335	0.321779	0.273231
H182	H	1.611420	0.290330	0.243692
O183	O	0.818846	0.082476	-0.052913
H184	H	0.780874	0.110071	-0.019502
H185	H	0.833315	0.072016	0.073176
H186	H	1.557904	-0.000049	0.222994
O187	O	1.375264	-0.082505	0.273216
H188	H	1.331975	-0.059562	0.243687
O189	O	1.189963	0.352093	0.407849
H190	H	1.198002	0.413099	0.374418
