data_functionalizedCrystal
_audit_creation_method	'MofGen! by Chris Wilmer'
_symmetry_space_group_name_H-M	'P1'
_symmetry_Int_Tables_number	1
_symmetry_cell_setting	triclinic
loop_
_symmetry_equiv_pos_as_xyz
  x,y,z
_cell_length_a	16.120490
_cell_length_b	16.120444
_cell_length_c	16.120297
_cell_angle_alpha	95.615117
_cell_angle_beta	90.129683
_cell_angle_gamma	90.165174
loop_
_atom_site_label
_atom_site_type_symbol
_atom_site_fract_x
_atom_site_fract_y
_atom_site_fract_z
Zn1	Zn	1.224982	-0.422332	-0.554792
Zn2	Zn	1.724982	0.077668	-0.054792
Zn3	Zn	1.224875	-0.555017	-0.422098
Zn4	Zn	1.724875	-0.055017	0.077902
Zn5	Zn	1.093721	-0.408241	-0.408037
Zn6	Zn	1.593721	0.091759	0.091963
Zn7	Zn	1.078872	-0.554241	-0.554034
Zn8	Zn	1.578872	-0.054241	-0.054034
O9	O	1.155613	-0.484958	-0.484740
O10	O	1.655613	0.015042	0.015260
O11	O	1.341004	-0.446155	-0.543392
O12	O	1.841004	0.053845	-0.043392
O13	O	1.213647	-0.529974	-0.303600
O14	O	1.713647	-0.029974	0.196400
O15	O	1.117393	-0.293479	-0.421937
O16	O	1.617393	0.206521	0.078063
O17	O	1.340925	-0.543638	-0.445902
O18	O	1.840925	-0.043638	0.054098
O19	O	1.213829	-0.303832	-0.529757
O20	O	1.713829	0.196168	-0.029757
O21	O	1.117289	-0.422138	-0.293270
O22	O	1.617289	0.077862	0.206730
O23	O	0.975716	-0.421386	-0.421202
O24	O	1.475716	0.078614	0.078798
O25	O	1.092084	-0.542316	-0.670767
O26	O	1.592084	-0.042316	-0.170767
O27	O	0.964806	-0.528652	-0.528465
O28	O	1.464806	-0.028652	-0.028465
O29	O	1.199431	-0.445403	-0.671324
O30	O	1.699431	0.054597	-0.171324
O31	O	1.199248	-0.671545	-0.445167
O32	O	1.699248	-0.171545	0.054833
O33	O	1.091980	-0.670975	-0.542100
O34	O	1.591980	-0.170975	-0.042100
C35	C	0.940174	-0.473407	-0.473226
C36	C	1.440174	0.026593	0.026774
C37	C	0.848006	-0.468486	-0.468321
C38	C	1.348006	0.031514	0.031679
C39	C	1.144013	-0.701503	-0.495097
C40	C	1.644013	-0.201503	0.004903
C41	C	1.139125	-0.794147	-0.499559
C42	C	1.639125	-0.294147	0.000441
C43	C	1.181163	-1.005308	-0.461782
C44	C	1.681163	-0.505308	0.038218
C45	C	1.130215	-0.963765	-0.507716
C46	C	1.630215	-0.463765	-0.007716
C47	C	1.135174	-0.869381	-0.503176
C48	C	1.635174	-0.369381	-0.003176
C49	C	1.176206	-1.099701	-0.466320
C50	C	1.676206	-0.599701	0.033680
C51	C	0.632811	-0.510476	-0.510185
C52	C	1.132811	-0.010476	-0.010185
C53	C	0.679259	-0.459510	-0.459365
C54	C	1.179259	0.040490	0.040635
C55	C	0.773158	-0.464506	-0.464350
C56	C	1.273158	0.035494	0.035650
C57	C	0.538902	-0.505481	-0.505201
C58	C	1.038902	-0.005481	-0.005201
C59	C	1.371893	-0.496555	-0.496300
C60	C	1.871893	0.003445	0.003700
C61	C	1.464058	-0.501497	-0.501226
C62	C	1.964058	-0.001497	-0.001226
C63	C	1.144113	-0.495345	-0.702133
C64	C	1.644113	0.004655	-0.202133
C65	C	1.139212	-0.499771	-0.794773
C66	C	1.639212	0.000229	-0.294773
C67	C	1.167279	-0.267569	-0.474363
C68	C	1.667279	0.232431	0.025637
C69	C	1.172251	-0.174931	-0.469941
C70	C	1.672251	0.325069	0.030059
C71	C	1.130236	-0.507833	-0.964384
C72	C	1.630236	-0.007833	-0.464384
C73	C	1.181166	-0.461842	-1.005945
C74	C	1.681166	0.038158	-0.505945
C75	C	1.176172	-0.466327	-1.100323
C76	C	1.676172	0.033673	-0.600323
C77	C	1.135229	-0.503348	-0.869998
C78	C	1.635229	-0.003348	-0.369998
C79	C	1.167119	-0.474554	-0.268193
C80	C	1.667119	0.025446	0.231807
C81	C	1.172192	-0.469901	-0.175551
C82	C	1.672192	0.030099	0.324449
H83	H	1.082873	-0.999085	-0.550451
H84	H	1.582873	-0.499085	-0.050451
O85	O	0.669590	-0.566899	-0.566589
O86	O	1.169590	-0.066899	-0.066589
C87	C	0.760951	-0.588777	-0.684760
C88	C	1.260951	-0.088777	-0.184760
C89	C	0.719354	-0.524789	-0.620926
C90	C	1.219354	-0.024789	-0.120926
H91	H	0.801181	-0.554754	-0.728719
H92	H	1.301181	-0.054754	-0.228719
H93	H	0.801254	-0.632565	-0.650653
H94	H	1.301254	-0.132565	-0.150653
H95	H	0.711156	-0.626387	-0.722203
H96	H	1.211156	-0.126387	-0.222203
H97	H	0.769093	-0.487120	-0.583466
H98	H	1.269093	0.012880	-0.083466
H99	H	0.679033	-0.481057	-0.655083
H100	H	1.179033	0.018943	-0.155083
H101	H	1.228501	-0.969992	-0.419049
H102	H	1.728501	-0.469992	0.080951
O103	O	0.642682	-0.403023	-0.402868
O104	O	1.142682	0.096977	0.097132
C105	C	0.625617	-0.354245	-0.257808
C106	C	1.125617	0.145755	0.242192
C107	C	0.667105	-0.418247	-0.321707
C108	C	1.167105	0.081753	0.178293
H109	H	0.645332	-0.366542	-0.192174
H110	H	1.145332	0.133458	0.307826
H111	H	0.645422	-0.288633	-0.270142
H112	H	1.145422	0.211367	0.229858
H113	H	0.555325	-0.360215	-0.263805
H114	H	1.055325	0.139785	0.236195
H115	H	0.737401	-0.412353	-0.315746
H116	H	1.237401	0.087647	0.184254
H117	H	0.647233	-0.483833	-0.309353
H118	H	1.147233	0.016167	0.190647
O119	O	1.237581	-0.410726	-0.963875
O120	O	1.737581	0.089274	-0.463875
C121	C	1.286875	-0.269869	-0.932472
C122	C	1.786875	0.230131	-0.432472
C123	C	1.222924	-0.327657	-0.980143
C124	C	1.722924	0.172343	-0.480143
H125	H	1.275058	-0.202698	-0.945621
H126	H	1.775058	0.297302	-0.445621
H127	H	1.280900	-0.275209	-0.862739
H128	H	1.780900	0.224791	-0.362739
H129	H	1.352055	-0.288933	-0.953811
H130	H	1.852055	0.211067	-0.453811
H131	H	1.157716	-0.308632	-0.958875
H132	H	1.657716	0.191368	-0.458875
H133	H	1.228973	-0.322310	-1.049867
H134	H	1.728973	0.177690	-0.549867
O135	O	1.073822	-0.558810	-1.006619
O136	O	1.573822	-0.058810	-0.506619
C137	C	1.017302	-0.609750	-1.140564
C138	C	1.517302	-0.109750	-0.640564
C139	C	1.081238	-0.551997	-1.092825
C140	C	1.581238	-0.051997	-0.592825
H141	H	1.023264	-0.604249	-1.210268
H142	H	1.523264	-0.104249	-0.710268
H143	H	1.029144	-0.676963	-1.127571
H144	H	1.529144	-0.176963	-0.627571
H145	H	0.952119	-0.590749	-1.119180
H146	H	1.452119	-0.090749	-0.619180
H147	H	1.146447	-0.570923	-1.114180
H148	H	1.646447	-0.070923	-0.614180
H149	H	1.069324	-0.484798	-1.105819
H150	H	1.569324	0.015202	-0.605819
