data_functionalizedCrystal
_audit_creation_method	'MofGen! by Chris Wilmer'
_symmetry_space_group_name_H-M	'P1'
_symmetry_Int_Tables_number	1
_symmetry_cell_setting	triclinic
loop_
_symmetry_equiv_pos_as_xyz
  x,y,z
_cell_length_a	15.298114
_cell_length_b	10.685382
_cell_length_c	10.686551
_cell_angle_alpha	98.411574
_cell_angle_beta	94.592114
_cell_angle_gamma	94.566948
loop_
_atom_site_label
_atom_site_type_symbol
_atom_site_fract_x
_atom_site_fract_y
_atom_site_fract_z
Zn1	Zn	1.352687	0.804639	-0.323759
Zn2	Zn	1.328208	1.026836	-0.101660
Zn3	Zn	1.193865	0.779382	-0.153224
Zn4	Zn	1.193851	0.975249	-0.349145
O5	O	1.267153	0.896527	-0.231947
O6	O	1.472137	0.866274	-0.262093
O7	O	1.300148	1.005030	0.066444
O8	O	1.225183	0.607772	-0.186801
O9	O	1.454152	1.029521	-0.098917
O10	O	1.341869	0.626328	-0.312092
O11	O	1.201446	0.823227	0.028560
O12	O	1.071166	0.773205	-0.211417
O13	O	1.225160	0.941597	-0.520721
O14	O	1.071156	0.917107	-0.355360
O15	O	1.341856	0.816251	-0.502069
O16	O	1.300135	1.194954	-0.123534
O17	O	1.201424	1.157053	-0.305360
C18	C	1.039347	0.836818	-0.291740
C19	C	0.941891	0.811303	-0.317347
C20	C	1.248147	1.221373	-0.211627
C21	C	1.240099	1.360362	-0.202955
C22	C	0.629721	1.078878	-0.049234
C23	C	0.721286	1.102850	-0.025166
C24	C	0.776441	1.029966	-0.098209
C25	C	0.740024	0.933105	-0.195325
C26	C	0.648451	0.909124	-0.219389
C27	C	0.795171	0.860211	-0.268364
C28	C	0.758754	0.763350	-0.365480
C29	C	0.667189	0.739374	-0.389541
C30	C	0.612033	0.812258	-0.316497
C31	C	0.886744	0.884192	-0.244300
C32	C	0.905474	0.714437	-0.414455
C33	C	0.813909	0.690465	-0.438523
C34	C	1.495848	0.956469	-0.171921
C35	C	1.593304	0.982013	-0.146342
C36	C	1.286237	0.875987	-0.558024
C37	C	1.294370	0.867235	-0.696979
C38	C	1.286210	1.570403	-0.252390
C39	C	1.294210	1.431394	-0.261162
C40	C	1.248198	0.916909	0.092870
C41	C	1.240256	0.925354	0.231846
H42	H	0.916386	0.963058	-0.165227
O43	O	0.576107	1.149776	0.021532
C44	C	0.522563	1.212271	-0.058370
H45	H	0.555477	1.221189	-0.149067
H46	H	0.513231	1.311000	-0.007252
H47	H	0.455685	1.155160	-0.083401
H48	H	1.346695	1.385879	-0.317635
O49	O	1.177432	1.414770	-0.135762
C50	C	1.120579	1.471004	-0.217093
H51	H	1.155887	1.492497	-0.302573
H52	H	1.100608	1.563074	-0.163567
H53	H	1.059271	1.402917	-0.250906
H54	H	1.187707	0.981812	-0.722784
H55	H	0.537473	0.792749	-0.336092
O56	O	1.357144	0.799873	-0.750887
C57	C	1.405807	0.747566	-0.656820
H58	H	1.400455	0.805369	-0.559697
H59	H	1.477859	0.749978	-0.677347
H60	H	1.378459	0.645056	-0.657353
O61	O	0.865368	1.053460	-0.074708
C62	C	0.885685	1.154561	0.026689
H63	H	0.827610	1.214869	0.035027
H64	H	0.946374	1.215744	0.008114
H65	H	0.899499	1.114824	0.118915
H66	H	0.637541	0.660495	-0.468611
H67	H	0.784245	0.611599	-0.517596
O68	O	0.756514	1.197019	0.069176
C69	C	0.688201	1.256186	0.128507
H70	H	0.625676	1.240287	0.060431
H71	H	0.708111	1.362453	0.155128
H72	H	0.675577	1.213665	0.217936
H73	H	0.950382	0.655085	-0.473930
