data_functionalizedCrystal
_audit_creation_method	'MofGen! by Chris Wilmer'
_symmetry_space_group_name_H-M	'P1'
_symmetry_Int_Tables_number	1
_symmetry_cell_setting	triclinic
loop_
_symmetry_equiv_pos_as_xyz
  x,y,z
_cell_length_a	10.686685
_cell_length_b	19.121379
_cell_length_c	10.686551
_cell_angle_alpha	91.779008
_cell_angle_beta	89.638883
_cell_angle_gamma	92.108598
loop_
_atom_site_label
_atom_site_type_symbol
_atom_site_fract_x
_atom_site_fract_y
_atom_site_fract_z
Zn1	Zn	-0.366274	-1.117455	-0.656247
Zn2	Zn	-0.592063	-1.118752	-0.462491
Zn3	Zn	-0.391218	-0.992543	-0.456719
Zn4	Zn	-0.583497	-1.010335	-0.681064
O5	O	-0.483263	-1.059771	-0.564130
O6	O	-0.389372	-1.215276	-0.622574
O7	O	-0.579444	-1.095107	-0.286749
O8	O	-0.212947	-1.001123	-0.470385
O9	O	-0.555258	-1.216229	-0.480223
O10	O	-0.194621	-1.092896	-0.616977
O11	O	-0.431884	-1.002381	-0.282508
O12	O	-0.423578	-0.897254	-0.494450
O13	O	-0.540658	-1.031448	-0.852749
O14	O	-0.564845	-0.910326	-0.659275
O15	O	-0.381066	-1.110148	-0.834516
O16	O	-0.765889	-1.112360	-0.504287
O17	O	-0.759596	-1.032706	-0.664872
C18	C	-0.495989	-0.878471	-0.578930
C19	C	-0.501461	-0.800913	-0.585293
C20	C	-0.808105	-1.074625	-0.587925
C21	C	-0.947066	-1.081044	-0.598141
C22	C	-0.430351	-0.757648	-0.502589
C23	C	-0.435504	-0.684775	-0.508568
C24	C	-0.511760	-0.655166	-0.597258
C25	C	-0.582879	-0.698436	-0.679966
C26	C	-0.577732	-0.771308	-0.673980
C27	C	-0.530992	-0.435480	-0.619614
C28	C	-0.536130	-0.362601	-0.625596
C29	C	-0.388756	-0.348945	-0.454197
C30	C	-0.383611	-0.421820	-0.448223
C31	C	-0.454734	-0.465083	-0.530927
C32	C	-0.517026	-0.580677	-0.603375
C33	C	-0.449475	-0.539570	-0.524803
C34	C	-0.157149	-1.044880	-0.540269
C35	C	-0.018179	-1.038534	-0.530101
C36	C	-0.457124	-1.072638	-0.890270
C37	C	-0.445985	-1.078122	-1.029252
C38	C	-0.470482	-0.241779	-0.549261
C39	C	-0.465020	-0.319337	-0.542893
C40	C	-0.509208	-1.046990	-0.239249
C41	C	-0.519985	-1.041626	-0.100232
H42	H	-0.368245	-0.781750	-0.430377
Br43	Br	-0.639797	-0.982560	-1.024307
H44	H	-0.374109	-1.113567	-1.074814
H45	H	-0.387392	-0.563681	-0.452588
Br46	Br	-0.338988	-0.626061	-0.396326
Br47	Br	-0.942471	-0.969692	-0.419978
H48	H	-0.321524	-0.445921	-0.375994
H49	H	-0.588905	-0.470696	-0.686957
H50	H	-0.598226	-0.338497	-0.697826
Br51	Br	-0.292239	-0.290228	-0.341962
Br52	Br	-0.674251	-0.830026	-0.786217
Br53	Br	-0.686396	-0.658254	-0.800311
H54	H	-0.579113	-0.556562	-0.675587
H55	H	-0.992498	-1.122355	-0.664202
