data_functionalizedCrystal
_audit_creation_method	'MofGen! by Chris Wilmer'
_symmetry_space_group_name_H-M	'P1'
_symmetry_Int_Tables_number	1
_symmetry_cell_setting	triclinic
loop_
_symmetry_equiv_pos_as_xyz
  x,y,z
_cell_length_a	14.908558
_cell_length_b	15.299816
_cell_length_c	14.908308
_cell_angle_alpha	103.454544
_cell_angle_beta	90.175599
_cell_angle_gamma	77.678466
loop_
_atom_site_label
_atom_site_type_symbol
_atom_site_fract_x
_atom_site_fract_y
_atom_site_fract_z
Zn1	Zn	1.423320	-0.480257	-0.675265
Zn2	Zn	1.455547	-0.625813	-0.551483
Zn3	Zn	1.278763	-0.462579	-0.513036
Zn4	Zn	1.296397	-0.624717	-0.692936
O5	O	1.363507	-0.548341	-0.608180
O6	O	1.554698	-0.507422	-0.667539
O7	O	1.438204	-0.597220	-0.419291
O8	O	1.277072	-0.336154	-0.511070
O9	O	1.578375	-0.614361	-0.576598
O10	O	1.383277	-0.349142	-0.630259
O11	O	1.308322	-0.477293	-0.391044
O12	O	1.154000	-0.476230	-0.528205
O13	O	1.307126	-0.612493	-0.817684
O14	O	1.166955	-0.595352	-0.660377
O15	O	1.400376	-0.506359	-0.804701
O16	O	1.455302	-0.754438	-0.593733
O17	O	1.338375	-0.753633	-0.697658
C18	C	1.127521	-0.533755	-0.592037
C19	C	1.026568	-0.527538	-0.585157
C20	C	0.877489	-0.456674	-0.506724
C21	C	0.972343	-0.462511	-0.513184
C22	C	0.985932	-0.586731	-0.650676
C23	C	0.891078	-0.580894	-0.644215
C24	C	0.836860	-0.515865	-0.572237
C25	C	0.742005	-0.510033	-0.565773
C26	C	0.755596	-0.634248	-0.703268
C27	C	0.850449	-0.640085	-0.709728
C28	C	1.402273	-0.787427	-0.651806
C29	C	1.418939	-0.889715	-0.670506
C30	C	1.244973	-1.151307	-0.474879
C31	C	1.229310	-1.055201	-0.457312
C32	C	1.276716	-1.013825	-0.510609
C33	C	1.339788	-1.068563	-0.581476
C34	C	1.355447	-1.164678	-0.599050
C35	C	1.387190	-1.027196	-0.634780
C36	C	1.450262	-1.081935	-0.705647
C37	C	1.465919	-1.178040	-0.723217
C38	C	1.418513	-1.219416	-0.669921
C39	C	1.371531	-0.931082	-0.617206
C40	C	1.482005	-0.944453	-0.741377
C41	C	1.497668	-1.040558	-0.758944
C42	C	1.600414	-0.562986	-0.624386
C43	C	1.701370	-0.569226	-0.631292
C44	C	1.352123	-0.561276	-0.845067
C45	C	1.347272	-0.566788	-0.946014
C46	C	1.324613	-0.308325	-0.564404
C47	C	1.308039	-0.206045	-0.545750
C48	C	1.435251	-0.466607	-1.122183
C49	C	1.430696	-0.471783	-1.217032
C50	C	1.333600	-0.582310	-1.230560
C51	C	1.338156	-0.577135	-1.135712
C52	C	1.388984	-0.519282	-1.081526
C53	C	1.393545	-0.514111	-0.986677
C54	C	1.296444	-0.624633	-1.000207
C55	C	1.291888	-0.629809	-1.095055
C56	C	1.374888	-0.535394	-0.372206
C57	C	1.379873	-0.529634	-0.271224
H58	H	0.722506	-0.682446	-0.756613
F59	F	1.564791	-1.098826	-0.834365
H60	H	1.292218	-0.629411	-1.274694
F61	F	1.532460	-0.900423	-0.798104
F62	F	1.237794	-0.691375	-1.152732
F63	F	1.043652	-0.655943	-0.727266
F64	F	1.247209	-0.680706	-0.956933
H65	H	0.697862	-0.457082	-0.507165
F66	F	0.819786	-0.387476	-0.430112
F67	F	1.304407	-0.872836	-0.541785
F68	F	1.015579	-0.399510	-0.443459
H69	H	0.894606	-0.693028	-0.768333
H70	H	1.263960	-0.935571	-0.496300
H71	H	1.206377	-1.185005	-0.431497
F72	F	1.162179	-0.996952	-0.381900
F73	F	1.479938	-0.415718	-1.260298
H74	H	1.476643	-0.419506	-1.078066
F75	F	1.533030	-1.236294	-0.798655
F76	F	1.435337	-1.321704	-0.688475
H77	H	1.434933	-0.467006	-0.942561
