data_functionalizedCrystal
_audit_creation_method	'MofGen! by Chris Wilmer'
_symmetry_space_group_name_H-M	'P1'
_symmetry_Int_Tables_number	1
_symmetry_cell_setting	triclinic
loop_
_symmetry_equiv_pos_as_xyz
  x,y,z
_cell_length_a	15.995350
_cell_length_b	27.732048
_cell_length_c	15.072220
_cell_angle_alpha	89.993868
_cell_angle_beta	89.991149
_cell_angle_gamma	83.067515
loop_
_atom_site_label
_atom_site_type_symbol
_atom_site_fract_x
_atom_site_fract_y
_atom_site_fract_z
O1	O	1.110190	0.062301	-0.073717
O2	O	0.866315	0.069995	-0.073737
O3	O	0.995827	-0.004216	-0.073709
O4	O	0.980678	0.136512	-0.073744
O5	O	0.995795	-0.004212	0.073856
O6	O	0.866283	0.069999	0.073828
O7	O	1.110158	0.062305	0.073848
Zn8	Zn	0.988215	0.066153	0.097267
Zn9	Zn	0.988257	0.066148	-0.097156
O10	O	0.980646	0.136516	0.073821
C11	C	0.835108	0.069679	0.000044
C12	C	0.742170	0.068726	0.000037
C13	C	0.404467	0.065301	0.000056
C14	C	0.452585	0.012449	0.000399
C15	C	0.549263	0.013403	0.000060
C16	C	0.572006	0.067000	0.000047
C17	C	0.530599	0.093065	-0.084223
C18	C	0.433981	0.091738	-0.084287
C19	C	0.433592	0.092834	0.083522
C20	C	0.530537	0.092822	0.084630
C21	C	0.666691	0.067962	0.000039
C22	C	0.309782	0.064340	0.000058
C23	C	0.995493	-0.022222	0.000076
C24	C	0.994535	-0.075881	0.000083
C25	C	1.065040	-0.414392	0.000043
C26	C	1.061487	-0.616067	0.000030
O27	O	1.125959	-0.647045	-0.000004
N28	N	0.984692	-0.635522	0.000025
C29	C	0.908780	-0.604555	0.000017
O30	O	0.843380	-0.625730	0.000003
C31	C	0.912334	-0.402881	0.000023
C32	C	0.989134	-0.383429	0.000037
C33	C	1.141834	-0.394940	0.000056
C34	C	1.142721	-0.344524	0.000064
C35	C	1.066815	-0.313561	0.000059
C36	C	0.990021	-0.333013	0.000045
C37	C	0.836422	-0.371914	0.000009
C38	C	0.837317	-0.321493	0.000008
C39	C	0.914117	-0.302041	0.000023
C40	C	0.915002	-0.251634	0.000048
N41	N	0.991797	-0.232179	0.000053
C42	C	1.067703	-0.263142	0.000059
C43	C	0.906920	-0.710437	0.000015
C44	C	0.906031	-0.760855	0.000015
C45	C	1.058739	-0.772364	0.000027
C46	C	1.059627	-0.721945	0.000033
C47	C	0.983715	-0.690982	0.000021
C48	C	1.069561	-0.157265	0.000076
C49	C	1.070442	-0.106844	0.000088
C50	C	0.917734	-0.095340	0.000072
C51	C	0.916853	-0.145756	0.000065
C52	C	0.992773	-0.176718	0.000064
O53	O	0.850565	-0.220628	0.000072
O54	O	1.133094	-0.241958	0.000053
C55	C	1.064153	-0.464808	0.000035
C56	C	0.987359	-0.484260	0.000022
C57	C	0.911452	-0.453297	0.000016
C58	C	0.986470	-0.534679	0.000022
C59	C	1.062377	-0.565642	0.000027
C60	C	1.139172	-0.546187	0.000032
C61	C	1.140059	-0.495771	0.000040
C62	C	0.834657	-0.472752	0.000011
C63	C	0.833776	-0.523168	0.000004
C64	C	0.909683	-0.554132	0.000009
C65	C	1.141364	0.062621	0.000066
C66	C	1.234302	0.063575	0.000066
C67	C	0.980980	0.154523	0.000034
C68	C	0.981938	0.208182	0.000021
N69	N	0.988193	0.066156	0.229956
N70	N	0.988287	0.066140	-0.229845
C71	C	0.988256	0.066146	0.589158
C72	C	0.918727	0.105721	0.551536
C73	C	0.918884	0.105866	0.448710
C74	C	0.988224	0.066151	0.410954
C75	C	1.075446	0.077167	0.448249
C76	C	1.075056	0.077448	0.551106
C77	C	0.971342	0.015437	0.551269
C78	C	0.969333	0.015775	0.448405
C79	C	0.988211	0.066153	0.310240
C80	C	0.988274	0.066145	0.689871
H81	H	0.544216	0.132441	-0.087365
H82	H	1.120545	-0.797583	0.000032
N83	N	1.093850	0.123845	0.581185
N84	N	1.041938	0.149788	0.628082
H85	H	1.055207	0.182559	0.649320
N86	N	0.840192	-0.063715	0.000067
N87	N	0.788944	-0.065492	0.062255
H88	H	0.734177	-0.043157	0.062245
N89	N	1.028815	-0.022899	0.416192
N90	N	1.073956	-0.048902	0.469548
H91	H	1.115976	-0.076215	0.446802
H92	H	0.559222	0.074958	-0.146929
H93	H	0.401326	0.131802	0.084083
H94	H	0.558086	0.073794	0.146972
N95	N	0.408087	0.071159	0.163646
N96	N	0.368129	0.035151	0.160204
H97	H	0.350115	0.019838	0.216787
N98	N	1.141876	0.042682	0.582368
N99	N	1.125761	0.008087	0.630029
H100	H	1.172960	-0.016458	0.652114
H101	H	0.854029	0.099303	0.423496
H102	H	1.203650	-0.420146	0.000057
N103	N	0.429677	-0.014024	0.076248
N104	N	0.354660	-0.020946	0.087784
H105	H	0.338482	-0.039634	0.141369
N106	N	0.931988	0.152662	0.583947
N107	N	0.930890	0.160794	0.665535
H108	H	0.940258	0.193945	0.688428
N109	N	0.827574	-0.780713	0.000021
N110	N	0.759811	-0.753056	0.000018
H111	H	0.704397	-0.767079	0.000019
H112	H	0.773883	-0.387743	-0.000008
N113	N	0.428365	-0.013947	-0.074968
N114	N	0.459746	-0.056960	-0.086861
H115	H	0.442635	-0.075603	-0.140085
H116	H	0.929616	0.143496	0.424088
H117	H	1.202598	-0.479938	0.000051
H118	H	0.775499	-0.296285	-0.000003
H119	H	0.771232	-0.539001	-0.000000
N120	N	0.888845	0.005293	0.417828
N121	N	0.845511	0.034788	0.368633
H122	H	0.788665	0.027387	0.347032
H123	H	0.853661	0.099266	0.576294
N124	N	0.829364	-0.678819	0.000003
N125	N	0.760809	-0.696202	-0.000000
H126	H	0.706034	-0.673875	-0.000006
N127	N	0.549182	0.141852	0.090998
N128	N	0.593530	0.158638	0.033039
H129	H	0.606698	0.193268	0.037530
N130	N	1.216702	-0.577828	0.000047
N131	N	1.215886	-0.622842	0.000043
H132	H	1.270638	-0.645190	0.000051
H133	H	0.577401	-0.007228	-0.060444
N134	N	1.141863	0.041965	0.417566
N135	N	1.125614	0.008287	0.367749
H136	H	1.172519	-0.016576	0.346078
H137	H	0.772844	-0.447546	0.000005
H138	H	1.122164	-0.706111	0.000044
H139	H	0.415932	0.072726	-0.147272
H140	H	1.132984	-0.091010	0.000102
H141	H	1.205260	-0.328691	0.000072
N142	N	1.094735	0.123030	0.415905
N143	N	1.044389	0.147678	0.365399
H144	H	1.058006	0.180070	0.342556
H145	H	0.401231	0.130541	-0.088120
H146	H	0.854317	-0.161595	0.000078
N147	N	0.893310	0.002165	0.583840
N148	N	0.849211	0.029921	0.635382
H149	H	0.794095	0.020554	0.658382
N150	N	1.034951	-0.021507	0.581809
N151	N	1.044743	-0.029089	0.663112
H152	H	1.089668	-0.055178	0.684687
H153	H	0.577944	-0.007086	0.060468
H154	H	1.131383	-0.182469	0.000072
