data_functionalizedCrystal
_audit_creation_method	'MofGen! by Chris Wilmer'
_symmetry_space_group_name_H-M	'P1'
_symmetry_Int_Tables_number	1
_symmetry_cell_setting	triclinic
loop_
_symmetry_equiv_pos_as_xyz
  x,y,z
_cell_length_a	15.298708
_cell_length_b	16.625546
_cell_length_c	15.296720
_cell_angle_alpha	80.357530
_cell_angle_beta	72.673117
_cell_angle_gamma	99.716994
loop_
_atom_site_label
_atom_site_type_symbol
_atom_site_fract_x
_atom_site_fract_y
_atom_site_fract_z
Zn1	Zn	1.330620	-0.158241	0.280164
Zn2	Zn	1.830620	0.341759	0.780164
Zn3	Zn	1.357440	-0.264885	0.124676
Zn4	Zn	1.857440	0.235115	0.624676
Zn5	Zn	1.202036	-0.158294	0.151545
Zn6	Zn	1.702036	0.341706	0.651545
Zn7	Zn	1.175084	-0.321272	0.306982
Zn8	Zn	1.675084	0.178728	0.806982
O9	O	1.266295	-0.225673	0.215842
O10	O	1.766295	0.274327	0.715842
O11	O	1.464307	-0.148767	0.237070
O12	O	1.964307	0.351233	0.737070
O13	O	1.359329	-0.227169	-0.001883
O14	O	1.859329	0.272831	0.498117
O15	O	1.219148	-0.045449	0.168628
O16	O	1.719148	0.454551	0.668628
O17	O	1.484011	-0.227118	0.122834
O18	O	1.984011	0.272882	0.622834
O19	O	1.313619	-0.045410	0.263124
O20	O	1.813619	0.454590	0.763124
O21	O	1.245154	-0.148857	0.017858
O22	O	1.745154	0.351143	0.517858
O23	O	1.068331	-0.203534	0.194633
O24	O	1.568331	0.296466	0.694633
O25	O	1.173212	-0.323222	0.433548
O26	O	1.673212	0.176778	0.933548
O27	O	1.048529	-0.323273	0.308832
O28	O	1.548529	0.176727	0.808832
O29	O	1.287484	-0.203444	0.413845
O30	O	1.787484	0.296556	0.913845
O31	O	1.333194	-0.385202	0.148838
O32	O	1.833194	0.114798	0.648838
O33	O	1.199218	-0.426630	0.282778
O34	O	1.699218	0.073370	0.782778
C35	C	1.024689	-0.269529	0.257558
C36	C	1.524689	0.230471	0.757558
C37	C	0.921325	-0.288314	0.275427
C38	C	1.421325	0.211686	0.775427
C39	C	1.266214	-0.435173	0.215818
C40	C	1.766214	0.064827	0.715818
C41	C	1.266258	-0.524788	0.215825
C42	C	1.766258	-0.024788	0.715825
C43	C	0.671029	-0.091657	0.088362
C44	C	1.171029	0.408343	0.588362
C45	C	0.768145	-0.074003	0.071574
C46	C	1.268145	0.425997	0.571574
C47	C	0.806445	-0.127580	0.122536
C48	C	1.306445	0.372420	0.622536
C49	C	0.747620	-0.198812	0.190288
C50	C	1.247620	0.301188	0.690288
C51	C	0.650494	-0.216465	0.207082
C52	C	1.150494	0.283535	0.707082
C53	C	0.785909	-0.252387	0.241256
C54	C	1.285909	0.247613	0.741256
C55	C	0.727084	-0.323620	0.309008
C56	C	1.227084	0.176380	0.809008
C57	C	0.629968	-0.341269	0.325799
C58	C	1.129968	0.158731	0.825799
C59	C	0.591668	-0.287693	0.274838
C60	C	1.091668	0.212307	0.774838
C61	C	0.883035	-0.234735	0.224462
C62	C	1.383035	0.265265	0.724462
C63	C	0.862500	-0.359542	0.343182
C64	C	1.362500	0.140458	0.843182
C65	C	0.765384	-0.377196	0.359970
C66	C	1.265384	0.122804	0.859970
C67	C	1.266404	-0.852952	0.215893
C68	C	1.766404	-0.352952	0.715893
C69	C	1.266360	-0.761647	0.215877
C70	C	1.766360	-0.261647	0.715877
C71	C	1.266330	-0.688873	0.215859
C72	C	1.766330	-0.188873	0.715859
C73	C	1.266288	-0.597563	0.215843
C74	C	1.766288	-0.097563	0.715843
C75	C	1.508844	-0.181647	0.173963
C76	C	2.008844	0.318353	0.673963
C77	C	1.612204	-0.162886	0.156117
C78	C	2.112204	0.337114	0.656117
C79	C	1.224350	-0.269617	0.458380
C80	C	1.724350	0.230383	0.958380
C81	C	1.206476	-0.288343	0.561735
C82	C	1.706476	0.211657	1.061735
C83	C	1.266398	-0.015354	0.215882
C84	C	1.766398	0.484646	0.715882
C85	C	1.266442	0.074271	0.215899
C86	C	1.766442	0.574271	0.715899
C87	C	1.308130	-0.181832	-0.025761
C88	C	1.808130	0.318168	0.474239
C89	C	1.326184	-0.162846	-0.129147
C90	C	1.826184	0.337154	0.370853
C91	C	1.394080	-0.091686	0.812041
C92	C	1.894080	0.408314	1.312041
C93	C	1.410880	-0.074092	0.714933
C94	C	1.910880	0.425908	1.214933
C95	C	1.359780	-0.127653	0.676628
C96	C	1.859780	0.372347	1.176628
C97	C	1.291878	-0.198811	0.735442
C98	C	1.791878	0.301189	1.235442
C99	C	1.275082	-0.216411	0.832559
C100	C	1.775082	0.283589	1.332559
C101	C	1.240782	-0.252378	0.697146
C102	C	1.740782	0.247622	1.197146
C103	C	1.172880	-0.323536	0.755960
C104	C	1.672880	0.176464	1.255960
C105	C	1.156087	-0.341132	0.853067
C106	C	1.656087	0.158868	1.353067
C107	C	1.207186	-0.287571	0.891371
C108	C	1.707186	0.212429	1.391371
C109	C	1.257578	-0.234779	0.600029
C110	C	1.757578	0.265221	1.100029
C111	C	1.138580	-0.359504	0.620547
C112	C	1.638580	0.140496	1.120547
C113	C	1.121780	-0.377097	0.717655
C114	C	1.621780	0.122903	1.217655
H115	H	0.930921	-0.176734	0.169300
H116	H	1.430921	0.323266	0.669300
F117	F	1.084197	-0.416514	0.579786
F118	F	1.584197	0.083486	1.079786
F119	F	0.903255	-0.416561	0.397430
F120	F	1.403255	0.083439	0.897430
F121	F	1.049517	-0.452828	0.780260
F122	F	1.549517	0.047172	1.280260
F123	F	1.189313	-0.306295	0.994725
F124	F	1.689313	0.193705	1.494725
H125	H	1.100804	-0.399079	0.900950
H126	H	1.600804	0.100921	1.400950
F127	F	1.329842	-0.159049	0.537447
F128	F	1.829842	0.340951	1.037447
F129	F	0.702768	-0.453008	0.432071
F130	F	1.202768	0.046992	0.932071
H131	H	0.885521	-0.113201	0.108864
H132	H	1.385521	0.386799	0.608864
F133	F	0.567363	-0.417075	0.397916
F134	F	1.067363	0.082925	0.897916
H135	H	1.373462	-0.113324	0.597558
H136	H	1.873462	0.386676	1.097558
F137	F	1.448463	-0.034696	0.852812
F138	F	1.948463	0.465304	1.352812
F139	F	0.830742	0.001808	-0.000525
F140	F	1.330742	0.501808	0.499475
H141	H	0.639835	-0.048040	0.046881
H142	H	1.139835	0.451960	0.546881
F143	F	0.488306	-0.306476	0.292704
F144	F	0.988306	0.193524	0.792704
H145	H	1.466168	-0.016156	0.667053
H146	H	1.966168	0.483844	1.167053
