data_functionalizedCrystal
_audit_creation_method	'MofGen! by Chris Wilmer'
_symmetry_space_group_name_H-M	'P1'
_symmetry_Int_Tables_number	1
_symmetry_cell_setting	triclinic
loop_
_symmetry_equiv_pos_as_xyz
  x,y,z
_cell_length_a	6.817900
_cell_length_b	10.992421
_cell_length_c	19.453114
_cell_angle_alpha	94.461908
_cell_angle_beta	101.709288
_cell_angle_gamma	108.764763
loop_
_atom_site_label
_atom_site_type_symbol
_atom_site_fract_x
_atom_site_fract_y
_atom_site_fract_z
V1	V	-4.033993	-0.179098	-0.218989
O2	O	-3.993645	0.007230	-0.214831
O3	O	-4.012124	-0.353798	-0.217482
O4	O	-3.976581	-0.176947	-0.314502
O5	O	-4.029434	-0.170845	-0.117138
V6	V	-4.515351	-0.156740	-0.206808
O7	O	-4.300001	-0.228143	-0.245709
O8	O	-4.699540	-0.107695	-0.180088
O9	O	-4.314013	0.017960	-0.208316
O10	O	-4.673096	-0.343068	-0.210967
O11	O	-4.637307	-0.164993	-0.308659
O12	O	-4.349556	-0.158891	-0.111295
C13	C	-3.863871	-0.396367	-0.214025
C14	C	-3.927217	-0.539190	-0.213429
C15	C	-3.796641	-0.734448	-0.208626
C16	C	-3.730435	-0.585806	-0.208967
C17	C	-4.021831	-0.577426	-0.147927
C18	C	-4.086321	-0.725965	-0.147233
C19	C	-4.168618	-0.765366	-0.281508
C20	C	-4.099043	-0.616862	-0.282929
C21	C	-3.818531	-0.170775	-0.337783
C22	C	-3.853050	-0.170172	-0.415865
C23	C	-4.052028	-0.176338	-0.456122
C24	C	-4.084463	-0.175772	-0.529489
C25	C	-3.917920	-0.169066	-0.562598
C26	C	-3.718910	-0.162892	-0.522332
C27	C	-3.686475	-0.163445	-0.448965
N28	N	-3.868481	-0.236916	-0.681384
N29	N	-3.899307	-0.236394	-0.751079
C30	C	-4.015633	-0.167396	-0.783647
N31	N	-4.100007	-0.098957	-0.743888
N32	N	-4.069187	-0.099485	-0.674186
C33	C	-3.953070	-0.168464	-0.642151
C34	C	-4.249792	-0.172946	-0.903456
C35	C	-4.282216	-0.172372	-0.976824
C36	C	-3.916663	-0.159505	-0.969666
C37	C	-3.884239	-0.160066	-0.896299
C38	C	-4.050814	-0.166793	-0.863199
C39	C	-4.125609	0.060522	-0.211771
C40	C	-4.041501	0.203344	-0.212371
C41	C	-4.170949	-0.165067	-0.088011
C42	C	-4.115668	-0.165664	-0.009927
H43	H	-3.699121	-0.754703	-0.158766
O44	O	-4.293910	-0.576921	-0.292618
H45	H	-4.411859	-0.633557	-0.342124
O46	O	-3.632014	-0.552046	-0.270956
H47	H	-3.726765	-0.506094	-0.306432
O48	O	-3.739822	-0.796311	-0.270231
H49	H	-3.885486	-0.872065	-0.304178
H50	H	-4.444247	-0.177384	-1.009599
H51	H	-4.187668	-0.181811	-0.429177
H52	H	-4.262570	-0.766847	-0.147130
O53	O	-4.214358	-0.537372	-0.148920
H54	H	-4.278133	-0.565487	-0.102106
O55	O	-3.860623	-0.505127	-0.079771
H56	H	-3.929386	-0.532956	-0.033840
O57	O	-4.405178	-0.819837	-0.286051
H58	H	-4.493815	-0.797337	-0.334990
H59	H	-4.144115	-0.815186	-0.331072
O60	O	-4.299092	-0.182432	-0.572924
H61	H	-4.409473	-0.187210	-0.537582
O62	O	-3.737021	-0.152275	-1.005364
H63	H	-3.793004	-0.152934	-1.063145
H64	H	-4.032283	-0.593261	-0.331391
H65	H	-3.600041	-0.533059	-0.159066
O66	O	-3.964780	-0.748750	-0.078350
H67	H	-4.079335	-0.802645	-0.048700
O68	O	-4.429424	-0.180175	-0.867745
H69	H	-4.573230	-0.184343	-0.908065
H70	H	-3.583310	-0.157428	-0.549293
O71	O	-3.471860	-0.156810	-0.405539
H72	H	-3.361496	-0.152058	-0.440885
H73	H	-3.722217	-0.155059	-0.863522
