data_functionalizedCrystal
_audit_creation_method	'MofGen! by Chris Wilmer'
_symmetry_space_group_name_H-M	'P1'
_symmetry_Int_Tables_number	1
_symmetry_cell_setting	triclinic
loop_
_symmetry_equiv_pos_as_xyz
  x,y,z
_cell_length_a	15.995350
_cell_length_b	14.519709
_cell_length_c	12.996460
_cell_angle_alpha	89.999966
_cell_angle_beta	89.996086
_cell_angle_gamma	96.413740
loop_
_atom_site_label
_atom_site_type_symbol
_atom_site_fract_x
_atom_site_fract_y
_atom_site_fract_z
O1	O	0.109760	-1.223669	-0.085428
O2	O	0.443093	-0.890336	0.247906
O3	O	0.776427	-0.557003	0.581239
O4	O	0.122686	-0.955169	-0.085458
O5	O	0.456019	-0.621836	0.247875
O6	O	0.789352	-0.288502	0.581208
O7	O	-0.005654	-1.096759	-0.085441
O8	O	0.327680	-0.763426	0.247892
O9	O	0.661013	-0.430092	0.581225
O10	O	0.238099	-1.082080	-0.085445
O11	O	0.571433	-0.748746	0.247889
O12	O	0.904766	-0.415413	0.581222
O13	O	-0.005661	-1.096744	0.085693
O14	O	0.327672	-0.763411	0.419026
O15	O	0.661006	-0.430077	0.752359
O16	O	0.122678	-0.955154	0.085675
O17	O	0.456012	-0.621821	0.419009
O18	O	0.789345	-0.288488	0.752342
O19	O	0.109753	-1.223655	0.085706
O20	O	0.443086	-0.890321	0.419040
O21	O	0.776420	-0.556988	0.752373
Cu22	Cu	0.116215	-1.089403	0.101317
Cu23	Cu	0.449548	-0.756070	0.434650
Cu24	Cu	0.782882	-0.422736	0.767983
Cu25	Cu	0.116224	-1.089421	-0.101069
Cu26	Cu	0.449557	-0.756087	0.232264
Cu27	Cu	0.782890	-0.422754	0.565598
O28	O	0.238092	-1.082065	0.085689
O29	O	0.571426	-0.748732	0.419022
O30	O	0.904759	-0.415398	0.752356
C31	C	0.122080	-0.920803	0.000104
C32	C	0.455413	-0.587470	0.333438
C33	C	0.788746	-0.254136	0.666771
C34	C	0.120275	-0.818425	0.000092
C35	C	0.453608	-0.485092	0.333426
C36	C	0.786941	-0.151758	0.666759
C37	C	-0.036853	-1.096145	0.000124
C38	C	0.296480	-0.762811	0.333457
C39	C	0.629814	-0.429478	0.666790
C40	C	-0.129806	-1.094325	0.000118
C41	C	0.203527	-0.760992	0.333451
C42	C	0.536861	-0.427659	0.666784
N43	N	0.116209	-1.089398	0.243664
N44	N	0.449542	-0.756064	0.576997
N45	N	0.782875	-0.422731	0.910330
C46	C	-0.467563	-1.087791	0.000120
C47	C	-0.134230	-0.754458	0.333454
C48	C	0.199103	-0.421125	0.666787
C49	C	-0.420280	-0.986954	-0.000275
C50	C	-0.086947	-0.653620	0.333058
C51	C	0.246386	-0.320287	0.666392
C52	C	-0.323587	-0.988773	0.000111
C53	C	0.009746	-0.655440	0.333444
C54	C	0.343079	-0.322107	0.666778
C55	C	-0.299998	-1.091032	0.000118
C56	C	0.033335	-0.757699	0.333452
C57	C	0.366669	-0.424366	0.666785
C58	C	-0.341005	-1.140761	0.097848
C59	C	-0.007672	-0.807427	0.431181
C60	C	0.325662	-0.474094	0.764515
C61	C	-0.437645	-1.138227	0.097930
C62	C	-0.104311	-0.804894	0.431263
C63	C	0.229022	-0.471561	0.764596
C64	C	-0.437992	-1.140327	-0.096681
C65	C	-0.104658	-0.806994	0.236652
C66	C	0.228675	-0.473661	0.569985
C67	C	-0.341046	-1.140303	-0.097973
C68	C	-0.007713	-0.806970	0.235361
C69	C	0.325620	-0.473637	0.568694
C70	C	-0.205298	-1.092869	0.000121
C71	C	0.128036	-0.759536	0.333454
C72	C	0.461369	-0.426203	0.666787
C73	C	-0.562264	-1.085957	0.000125
C74	C	-0.228931	-0.752624	0.333458
C75	C	0.104403	-0.419291	0.666792
C76	C	0.269292	-1.082679	0.000122
C77	C	0.602625	-0.749346	0.333455
C78	C	0.935958	-0.416012	0.666788
C79	C	0.362245	-1.084498	0.000121
C80	C	0.695578	-0.751165	0.333454
C81	C	1.028911	-0.417832	0.666788
C82	C	0.110359	-1.258021	0.000141
C83	C	0.443692	-0.924687	0.333474
C84	C	0.777026	-0.591354	0.666808
C85	C	0.112164	-1.360399	0.000146
C86	C	0.445497	-1.027065	0.333480
C87	C	0.778831	-0.693732	0.666813
C88	C	0.113629	-0.443541	0.000139
C89	C	0.446962	-0.110208	0.333473
C90	C	0.780296	0.223125	0.666806
C91	C	0.115475	-0.547846	0.000126
C92	C	0.448808	-0.214513	0.333459
C93	C	0.782141	0.118821	0.666793
C94	C	0.116952	-0.630980	0.000115
C95	C	0.450285	-0.297647	0.333448
C96	C	0.783618	0.035687	0.666782
C97	C	0.118797	-0.735291	0.000104
C98	C	0.452131	-0.401958	0.333437
C99	C	0.785464	-0.068624	0.666770
N100	N	0.116223	-1.089433	-0.243416
N101	N	0.449557	-0.756100	0.089917
N102	N	0.782890	-0.422767	0.423251
C103	C	0.116224	-1.089419	0.663478
C104	C	0.449558	-0.756086	0.996811
C105	C	0.782891	-0.422753	1.330145
C106	C	0.116223	-1.089411	0.546673
C107	C	0.449556	-0.756077	0.880006
C108	C	0.782889	-0.422744	1.213340
C109	C	0.116217	-1.089409	0.453575
C110	C	0.449550	-0.756076	0.786908
C111	C	0.782884	-0.422742	1.120241
C112	C	0.116214	-1.089399	0.336762
C113	C	0.449548	-0.756066	0.670095
C114	C	0.782881	-0.422733	1.003429
H115	H	-0.295221	-0.949683	-0.069946
H116	H	0.038112	-0.616350	0.263387
H117	H	0.371446	-0.283017	0.596721
O118	O	-0.303485	-1.095003	0.194182
O119	O	0.029848	-0.761670	0.527515
O120	O	0.363182	-0.428337	0.860848
H121	H	-0.315277	-1.021113	0.195143
H122	H	0.018057	-0.687780	0.528477
H123	H	0.351390	-0.354446	0.861810
H124	H	-0.326767	-1.215887	0.101488
H125	H	0.006566	-0.882554	0.434821
H126	H	0.339900	-0.549221	0.768155
O127	O	-0.465248	-1.096667	-0.194806
O128	O	-0.131915	-0.763334	0.138527
O129	O	0.201418	-0.430000	0.471861
H130	H	-0.500181	-1.037029	-0.175671
H131	H	-0.166847	-0.703695	0.157663
H132	H	0.166486	-0.370362	0.490996
O133	O	-0.304949	-1.092216	-0.193746
O134	O	0.028384	-0.758882	0.139587
O135	O	0.361717	-0.425549	0.472921
H136	H	-0.356322	-1.065770	-0.238528
H137	H	-0.022989	-0.732437	0.094805
H138	H	0.310344	-0.399104	0.428139
H139	H	-0.438869	-0.946656	-0.070359
H140	H	-0.105536	-0.613323	0.262974
H141	H	0.227797	-0.279989	0.596307
H142	H	-0.295785	-0.949408	0.070278
H143	H	0.037549	-0.616075	0.403612
H144	H	0.370882	-0.282742	0.736945
O145	O	-0.461976	-1.090175	0.194684
O146	O	-0.128642	-0.756842	0.528017
O147	O	0.204691	-0.423509	0.861351
H148	H	-0.429580	-1.018486	0.196385
H149	H	-0.096247	-0.685153	0.529718
H150	H	0.237086	-0.351819	0.863052
O151	O	-0.480225	-1.236286	0.103835
O152	O	-0.146892	-0.902952	0.437169
O153	O	0.186442	-0.569619	0.770502
H154	H	-0.431764	-1.285303	0.106629
H155	H	-0.098431	-0.951970	0.439962
H156	H	0.234902	-0.618637	0.773295
H157	H	-0.325572	-1.214875	-0.103868
H158	H	0.007761	-0.881542	0.229466
H159	H	0.341094	-0.548209	0.562799
H160	H	-0.439937	-0.946823	0.069410
H161	H	-0.106604	-0.613489	0.402743
H162	H	0.226729	-0.280156	0.736076
O163	O	-0.479917	-1.238807	-0.097561
O164	O	-0.146583	-0.905473	0.235772
O165	O	0.186750	-0.572140	0.569106
H166	H	-0.521619	-1.250324	-0.029429
H167	H	-0.188285	-0.916991	0.303905
H168	H	0.145048	-0.583657	0.637238
