data_functionalizedCrystal
_audit_creation_method	'MofGen! by Chris Wilmer'
_symmetry_space_group_name_H-M	'P1'
_symmetry_Int_Tables_number	1
_symmetry_cell_setting	triclinic
loop_
_symmetry_equiv_pos_as_xyz
  x,y,z
_cell_length_a	16.992694
_cell_length_b	22.610064
_cell_length_c	16.992695
_cell_angle_alpha	89.995894
_cell_angle_beta	90.668223
_cell_angle_gamma	90.003118
loop_
_atom_site_label
_atom_site_type_symbol
_atom_site_fract_x
_atom_site_fract_y
_atom_site_fract_z
O1	O	1.050855	0.049111	0.166906
O2	O	0.822455	0.049128	0.165075
O3	O	0.935740	0.049115	0.051791
O4	O	0.937571	0.049124	0.280191
O5	O	0.935719	-0.049254	0.051807
O6	O	0.822435	-0.049241	0.165091
O7	O	1.050835	-0.049258	0.166923
Zn8	Zn	0.936632	-0.064868	0.166010
Zn9	Zn	0.936659	0.064738	0.165988
O10	O	0.937551	-0.049245	0.280207
C11	C	0.793085	-0.000054	0.162727
C12	C	0.705600	-0.000047	0.155699
N13	N	0.936619	-0.153320	0.166024
C14	C	0.659610	-0.000045	0.223517
C15	C	0.577409	-0.000054	0.216908
C16	C	0.541201	-0.000060	0.142480
C17	C	0.587198	-0.000064	0.074657
C18	C	0.669397	-0.000060	0.081267
C19	C	0.295886	-0.000077	0.115086
C20	C	0.213681	-0.000079	0.108481
C21	C	0.203898	-0.000070	0.250732
C22	C	0.286099	-0.000062	0.257336
C23	C	0.332089	-0.000069	0.189512
N24	N	0.457178	-0.000067	0.135723
N25	N	0.416110	-0.000067	0.196270
C26	C	0.986824	-0.561967	0.115834
C27	C	0.986827	-0.623887	0.115829
O28	O	1.029480	-0.655911	0.073165
N29	N	0.936657	-0.654857	0.165972
C30	C	0.886474	-0.623904	0.216118
O31	O	0.843800	-0.655932	0.258767
C32	C	0.886467	-0.561985	0.216119
C33	C	0.936646	-0.531019	0.165978
C34	C	1.036999	-0.531001	0.065697
C35	C	1.036996	-0.469085	0.065704
C36	C	0.986818	-0.438136	0.115847
C37	C	0.936643	-0.469103	0.165985
C38	C	0.836280	-0.531033	0.266260
C39	C	0.836277	-0.469110	0.266256
C40	C	0.886456	-0.438144	0.216116
C41	C	0.886463	-0.376239	0.216135
N42	N	0.936634	-0.345269	0.165992
C43	C	0.986811	-0.376217	0.115848
C44	C	0.886491	-0.753938	0.216111
C45	C	0.886502	-0.815855	0.216115
C46	C	0.986855	-0.815834	0.115825
C47	C	0.986848	-0.753916	0.115825
C48	C	0.936662	-0.722968	0.165968
C49	C	0.986802	-0.246190	0.115867
C50	C	0.986797	-0.184269	0.115880
C51	C	0.886441	-0.184295	0.216167
C52	C	0.886449	-0.246211	0.216157
C53	C	0.936632	-0.277157	0.166000
O54	O	0.843830	-0.344175	0.258775
O55	O	1.029471	-0.344182	0.073199
C56	C	1.080205	-0.000075	0.169270
C57	C	1.167690	-0.000077	0.176299
C58	C	0.933374	-0.000069	0.022439
C59	C	0.926345	-0.000069	-0.065046
N60	N	0.936677	0.153190	0.165968
C61	C	0.994163	-0.000074	-0.111037
C62	C	0.987554	-0.000068	-0.193238
C63	C	0.913127	-0.000061	-0.229446
C64	C	0.845303	-0.000053	-0.183449
C65	C	0.851913	-0.000055	-0.101250
C66	C	0.885732	-0.000050	-0.474760
C67	C	0.879127	-0.000050	-0.556966
C68	C	1.021379	-0.000064	-0.566749
C69	C	1.027982	-0.000070	-0.484547
C70	C	0.960159	-0.000059	-0.438558
N71	N	0.906369	-0.000056	-0.313468
N72	N	0.966917	-0.000059	-0.354537
C73	C	0.939917	-0.000059	0.309559
C74	C	0.946945	-0.000056	0.397044
H75	H	0.689084	-0.000039	0.284124
C76	C	0.831245	-0.150244	0.271315
H77	H	0.838426	-0.108933	0.264126
H78	H	0.843071	-0.160390	0.324397
H79	H	0.778173	-0.160394	0.259429
C80	C	0.763435	-0.000046	-0.223276
H81	H	0.769210	-0.000053	-0.278818
H82	H	0.735299	0.034259	-0.207798
H83	H	0.735291	-0.034353	-0.207789
H84	H	1.027711	-0.841044	0.074993
H85	H	1.077859	-0.556194	0.024860
C86	C	1.076032	-0.000085	-0.071211
H87	H	1.070258	-0.000091	-0.015669
H88	H	1.104182	0.034216	-0.086695
H89	H	1.104162	-0.034395	-0.086693
C90	C	0.831305	-0.849912	0.271270
H91	H	0.801418	-0.822607	0.301127
H92	H	0.861665	-0.874071	0.305832
H93	H	0.796761	-0.874062	0.240870
H94	H	1.027708	-0.728706	0.074996
H95	H	0.845626	-0.728743	0.256950
C96	C	1.042005	-0.280222	0.060699
H97	H	1.071888	-0.252904	0.030849
H98	H	1.011646	-0.304376	0.026132
H99	H	1.076553	-0.304375	0.091091
H100	H	0.557710	-0.000078	0.014056
C101	C	1.062152	-0.000069	-0.243828
H102	H	1.047558	-0.000057	-0.297968
H103	H	1.092456	-0.034374	-0.232371
H104	H	1.092460	0.034238	-0.232362
H105	H	1.077854	-0.443876	0.024873
C106	C	1.109852	-0.000071	-0.444724
H107	H	1.149297	-0.000067	-0.483888
H108	H	1.115384	-0.034373	-0.412856
H109	H	1.115389	0.034238	-0.412867
C110	C	0.777316	-0.000048	-0.050656
H111	H	0.791911	-0.000044	0.003484
H112	H	0.746998	-0.034348	-0.062112
H113	H	0.747021	0.034264	-0.062121
H114	H	0.539966	-0.000051	0.272133
C115	C	0.781089	-0.565083	0.321423
H116	H	0.751205	-0.537775	0.351278
H117	H	0.811458	-0.589236	0.355986
H118	H	0.746541	-0.589239	0.291036
H119	H	1.076596	-0.000072	-0.604202
C120	C	0.797254	-0.000032	-0.596793
H121	H	0.757807	-0.000018	-0.557631
H122	H	0.791703	-0.034333	-0.628655
H123	H	0.791739	0.034279	-0.628657
H124	H	0.315574	-0.000050	0.317942
H125	H	0.795407	-0.443916	0.307088
H126	H	0.845596	-0.271425	0.256994
C127	C	0.811132	-0.000038	-0.424178
H128	H	0.825722	-0.000032	-0.370037
H129	H	0.780813	-0.034337	-0.435634
H130	H	0.780839	0.034274	-0.435648
C131	C	0.153308	-0.000070	0.325330
H132	H	0.099167	-0.000078	0.310738
H133	H	0.164768	0.034234	0.355634
H134	H	0.164772	-0.034377	0.355639
H135	H	0.706842	-0.000061	0.026042
H136	H	0.184203	-0.000084	0.047870
H137	H	1.027662	-0.159058	0.075050
C138	C	0.346465	-0.000081	0.040483
H139	H	0.313125	-0.000079	-0.004788
H140	H	0.378733	-0.034383	0.040108
H141	H	0.378734	0.034228	0.040096
