data_functionalizedCrystal
_audit_creation_method	'MofGen! by Chris Wilmer'
_symmetry_space_group_name_H-M	'P1'
_symmetry_Int_Tables_number	1
_symmetry_cell_setting	triclinic
loop_
_symmetry_equiv_pos_as_xyz
  x,y,z
_cell_length_a	19.077068
_cell_length_b	19.077241
_cell_length_c	19.076919
_cell_angle_alpha	89.886096
_cell_angle_beta	85.529249
_cell_angle_gamma	85.292229
loop_
_atom_site_label
_atom_site_type_symbol
_atom_site_fract_x
_atom_site_fract_y
_atom_site_fract_z
Zn1	Zn	-0.256332	-1.047582	0.450414
Zn2	Zn	0.243668	-0.547582	0.950414
Zn3	Zn	-0.369488	-1.047495	0.337255
Zn4	Zn	0.130512	-0.547495	0.837255
Zn5	Zn	-0.255959	-0.934813	0.328177
Zn6	Zn	0.244041	-0.434813	0.828177
Zn7	Zn	-0.378906	-0.924921	0.450353
Zn8	Zn	0.121094	-0.424921	0.950353
O9	O	-0.315171	-0.988703	0.391550
O10	O	0.184829	-0.488703	0.891550
O11	O	-0.267556	-1.146062	0.439228
O12	O	0.232444	-0.646062	0.939228
O13	O	-0.350331	-1.036651	0.237563
O14	O	0.149669	-0.536651	0.737563
O15	O	-0.157199	-0.953949	0.340619
O16	O	0.342801	-0.453949	0.840619
O17	O	-0.350692	-1.145999	0.356091
O18	O	0.149308	-0.645999	0.856091
O19	O	-0.157472	-1.036800	0.430426
O20	O	0.342528	-0.536800	0.930426
O21	O	-0.266922	-0.953864	0.230893
O22	O	0.233078	-0.453864	0.730893
O23	O	-0.276054	-0.835009	0.340559
O24	O	0.223946	-0.335009	0.840559
O25	O	-0.366744	-0.937089	0.548849
O26	O	0.133256	-0.437089	1.048849
O27	O	-0.366383	-0.827742	0.430321
O28	O	0.133617	-0.327742	0.930321
O29	O	-0.276689	-1.027207	0.548894
O30	O	0.223311	-0.527207	1.048894
O31	O	-0.469548	-1.027059	0.356031
O32	O	0.030452	-0.527059	0.856031
O33	O	-0.476467	-0.937004	0.439123
O34	O	0.023533	-0.437004	0.939123
C35	C	-0.322201	-0.805838	0.384449
C36	C	0.177799	-0.305838	0.884449
C37	C	-0.325226	-0.727606	0.381428
C38	C	0.174774	-0.227606	0.881428
C39	C	-0.283437	-0.690880	0.423366
C40	C	0.216563	-0.190880	0.923366
C41	C	-0.286276	-0.617373	0.420521
C42	C	0.213724	-0.117373	0.920521
C43	C	-0.330907	-0.580593	0.375743
C44	C	0.169093	-0.080593	0.875743
C45	C	-0.372697	-0.617324	0.333801
C46	C	0.127303	-0.117324	0.833801
C47	C	-0.369855	-0.690829	0.336642
C48	C	0.130145	-0.190829	0.836642
C49	C	-0.344039	-0.360751	0.362593
C50	C	0.155961	0.139249	0.862593
C51	C	-0.346880	-0.287240	0.359757
C52	C	0.153120	0.212760	0.859757
C53	C	-0.260457	-0.287295	0.446477
C54	C	0.239543	0.212705	0.946477
C55	C	-0.257622	-0.360802	0.449317
C56	C	0.242378	0.139198	0.949317
C57	C	-0.299409	-0.397526	0.407372
C58	C	0.200591	0.102474	0.907372
N59	N	-0.333811	-0.505457	0.372836
N60	N	0.166189	-0.005457	0.872836
N61	N	-0.296501	-0.472661	0.410276
N62	N	0.203499	0.027339	0.910276
C63	C	-0.498628	-0.980967	0.398572
C64	C	0.001372	-0.480967	0.898572
C65	C	-0.577110	-0.977721	0.401602
C66	C	-0.077110	-0.477721	0.901602
C67	C	-0.610355	-1.023116	0.359802
C68	C	-0.110355	-0.523116	0.859802
C69	C	-0.684097	-1.020067	0.362657
C70	C	-0.184097	-0.520067	0.862657
C71	C	-0.724593	-0.971619	0.407307
C72	C	-0.224593	-0.471619	0.907307
C73	C	-0.691343	-0.926222	0.449111
C74	C	-0.191343	-0.426222	0.949111
C75	C	-0.617602	-0.929275	0.446260
C76	C	-0.117602	-0.429275	0.946260
C77	C	-0.945524	-0.957461	0.420472
C78	C	-0.445524	-0.457461	0.920472
C79	C	-1.019270	-0.954410	0.423319
C80	C	-0.519270	-0.454410	0.923319
C81	C	-1.012019	-1.048256	0.336865
C82	C	-0.512019	-0.548256	0.836865
C83	C	-0.938277	-1.051302	0.334015
C84	C	-0.438277	-0.551302	0.834015
C85	C	-0.905033	-1.005907	0.375821
C86	C	-0.405033	-0.505907	0.875821
N87	N	-0.799970	-0.968500	0.410224
N88	N	-0.299970	-0.468500	0.910224
N89	N	-0.829658	-1.009030	0.372908
N90	N	-0.329658	-0.509030	0.872908
C91	C	-0.130999	-0.996487	0.384516
C92	C	0.369001	-0.496487	0.884516
C93	C	-0.052515	-0.999805	0.381519
C94	C	0.447485	-0.499805	0.881519
C95	C	-0.322808	-0.981054	0.575122
C96	C	0.177192	-0.481054	1.075122
C97	C	-0.326063	-0.977795	0.653350
C98	C	0.173937	-0.477795	1.153350
C99	C	-0.308111	-0.172283	0.398673
C100	C	0.191889	0.327717	0.898673
C101	C	-0.305092	-0.250515	0.401694
C102	C	0.194908	0.249485	0.901694
C103	C	-0.307512	-0.996364	0.208691
C104	C	0.192488	-0.496364	0.708691
C105	C	-0.304053	-0.999769	0.130461
C106	C	0.195947	-0.499769	0.630461
C107	C	-0.280707	-1.023181	0.690126
C108	C	0.219293	-0.523181	1.190126
C109	C	-0.283762	-1.020110	0.763629
C110	C	0.216238	-0.520110	1.263629
C111	C	-0.332177	-0.971656	0.800354
C112	C	0.167823	-0.471656	1.300354
C113	C	-0.377535	-0.926265	0.763573
C114	C	0.122465	-0.426265	1.263573
C115	C	-0.374476	-0.929333	0.690071
C116	C	0.125524	-0.429333	1.190071
C117	C	-0.346352	-0.957446	1.020178
C118	C	0.153648	-0.457446	1.520178
C119	C	-0.349409	-0.954382	1.093685
C120	C	0.150591	-0.454382	1.593685
C121	C	-0.255635	-1.048227	1.093736
C122	C	0.244365	-0.548227	1.593736
C123	C	-0.252583	-1.051294	1.020233
C124	C	0.247417	-0.551294	1.520233
C125	C	-0.297938	-1.005900	0.983458
C126	C	0.202062	-0.505900	1.483458
N127	N	-0.335303	-0.968517	0.875486
N128	N	0.164697	-0.468517	1.375486
N129	N	-0.294808	-1.009036	0.908327
N130	N	0.205192	-0.509036	1.408327
H131	H	-0.409034	-0.587371	0.297337
H132	H	0.090966	-0.087371	0.797337
H133	H	-0.383228	-0.257295	0.323292
H134	H	0.116772	0.242705	0.823292
H135	H	-0.905307	-1.090752	0.297657
H136	H	-0.405307	-0.590752	0.797657
H137	H	-0.213160	-1.090752	0.990336
H138	H	0.286840	-0.590752	1.490336
H139	H	-0.378066	-0.390643	0.328439
H140	H	0.121934	0.109357	0.828439
C141	C	-1.048585	-1.098190	0.290885
C142	C	-0.548585	-0.598190	0.790885
H143	H	-1.013906	-1.127478	0.263881
H144	H	-0.513906	-0.627478	0.763881
H145	H	-1.077257	-1.126523	0.320131
H146	H	-0.577257	-0.626523	0.820131
H147	H	-1.077145	-1.071374	0.260262
H148	H	-0.577145	-0.571374	0.760262
H149	H	-0.918463	-0.920497	0.454512
H150	H	-0.418463	-0.420497	0.954512
H151	H	-0.403883	-0.720730	0.302491
H152	H	0.096117	-0.220730	0.802491
H153	H	-0.711162	-1.057032	0.328619
H154	H	-0.211162	-0.557032	0.828619
H155	H	-0.577388	-1.062565	0.323440
H156	H	-0.077388	-0.562565	0.823440
C157	C	-1.063814	-0.901120	0.472442
C158	C	-0.563814	-0.401120	0.972442
H159	H	-1.033455	-0.874527	0.496939
H160	H	-0.533455	-0.374527	0.996939
H161	H	-1.092678	-0.870404	0.445422
H162	H	-0.592678	-0.370404	0.945422
H163	H	-1.092785	-0.925562	0.505282
H164	H	-0.592785	-0.425562	1.005282
H165	H	-0.724320	-0.886778	0.485470
H166	H	-0.224320	-0.386778	0.985470
H167	H	-0.590535	-0.892311	0.480299
H168	H	-0.090535	-0.392311	0.980299
H169	H	-0.241284	-1.062640	0.660230
H170	H	0.258716	-0.562640	1.160230
C171	C	-0.233874	-1.070039	0.804080
C172	C	0.266126	-0.570039	1.304080
H173	H	-0.204608	-1.099342	0.771681
H174	H	0.295392	-0.599342	1.271681
H175	H	-0.205333	-1.043223	0.830531
H176	H	0.294667	-0.543223	1.330531
H177	H	-0.260906	-1.098367	0.834977
H178	H	0.239094	-0.598367	1.334977
C179	C	-0.205744	-1.098150	1.134189
C180	C	0.294256	-0.598150	1.634189
H181	H	-0.214494	-1.089382	1.183224
H182	H	0.285506	-0.589382	1.683224
H183	H	-0.213756	-1.145506	1.124378
H184	H	0.286244	-0.645506	1.624378
H185	H	-0.158194	-1.090351	1.119930
H186	H	0.341806	-0.590351	1.619930
C187	C	-0.208520	-0.401256	0.498567
C188	C	0.291480	0.098744	0.998567
H189	H	-0.184033	-0.368855	0.523132
H190	H	0.315967	0.131145	1.023132
H191	H	-0.235739	-0.427525	0.531333
H192	H	0.264261	0.072475	1.031333
H193	H	-0.175485	-0.432338	0.471614
H194	H	0.324515	0.067662	0.971614
H195	H	-0.252248	-0.587474	0.454673
H196	H	0.247752	-0.087474	0.954673
C197	C	-0.402666	-0.901078	1.134082
C198	C	0.097334	-0.401078	1.634082
H199	H	-0.429236	-0.874479	1.101653
H200	H	0.070764	-0.374479	1.601653
H201	H	-0.433591	-0.925505	1.164976
H202	H	0.066409	-0.425505	1.664976
H203	H	-0.378021	-0.870359	1.160532
H204	H	0.121979	-0.370359	1.660532
H205	H	-0.383293	-0.920493	0.990245
H206	H	0.116707	-0.420493	1.490245
C207	C	-0.430792	-0.872965	0.803966
C208	C	0.069208	-0.372965	1.303966
H209	H	-0.457362	-0.846370	0.771534
H210	H	0.042638	-0.346370	1.271534
H211	H	-0.461717	-0.897391	0.834860
H212	H	0.038283	-0.397391	1.334860
H213	H	-0.406150	-0.842241	0.830414
H214	H	0.093850	-0.342241	1.330414
C215	C	-0.234342	-0.731332	0.472623
C216	C	0.265658	-0.231332	0.972623
H217	H	-0.209856	-0.698930	0.497186
H218	H	0.290144	-0.198930	0.997186
H219	H	-0.261563	-0.757600	0.505389
H220	H	0.238437	-0.257600	1.005389
H221	H	-0.201305	-0.762416	0.445674
H222	H	0.298695	-0.262416	0.945674
C223	C	-0.214489	-0.246897	0.492605
C224	C	0.285511	0.253103	0.992605
H225	H	-0.222568	-0.197852	0.484498
H226	H	0.277432	0.302148	0.984498
H227	H	-0.226393	-0.256545	0.540741
H228	H	0.273607	0.243455	1.040741
H229	H	-0.166138	-0.261366	0.481023
H230	H	0.333862	0.238634	0.981023
C231	C	-0.424384	-0.879425	0.649619
C232	C	0.075616	-0.379425	1.149619
H233	H	-0.453666	-0.850136	0.682018
H234	H	0.046334	-0.350136	1.182018
H235	H	-0.397373	-0.851092	0.618714
H236	H	0.102627	-0.351092	1.118714
H237	H	-0.452919	-0.906263	0.623177
H238	H	0.047081	-0.406263	1.123177
