data_functionalizedCrystal
_audit_creation_method	'MofGen! by Chris Wilmer'
_symmetry_space_group_name_H-M	'P1'
_symmetry_Int_Tables_number	1
_symmetry_cell_setting	triclinic
loop_
_symmetry_equiv_pos_as_xyz
  x,y,z
_cell_length_a	12.759401
_cell_length_b	16.120444
_cell_length_c	12.759393
_cell_angle_alpha	92.863624
_cell_angle_beta	89.980535
_cell_angle_gamma	92.926156
loop_
_atom_site_label
_atom_site_type_symbol
_atom_site_fract_x
_atom_site_fract_y
_atom_site_fract_z
Zn1	Zn	1.584964	-0.331865	-0.615179
Zn2	Zn	1.575912	-0.471303	-0.448394
Zn3	Zn	1.409263	-0.331908	-0.439518
Zn4	Zn	1.400312	-0.471238	-0.624028
O5	O	1.492613	-0.401578	-0.531780
O6	O	1.730783	-0.350371	-0.593065
O7	O	1.553763	-0.452857	-0.300198
O8	O	1.440104	-0.215236	-0.455401
O9	O	1.724133	-0.452816	-0.470529
O10	O	1.569190	-0.215205	-0.584459
O11	O	1.431327	-0.350444	-0.293677
O12	O	1.261055	-0.350380	-0.463982
O13	O	1.424849	-0.452705	-0.769872
O14	O	1.254479	-0.452746	-0.599541
O15	O	1.560511	-0.350308	-0.763371
O16	O	1.545084	-0.587960	-0.479110
O17	O	1.416072	-0.587912	-0.608148
C18	C	1.219646	-0.401561	-0.531760
C19	C	1.102869	-0.401574	-0.531777
C20	C	0.934825	-0.454852	-0.467897
C21	C	1.044550	-0.454836	-0.467878
C22	C	1.051457	-0.348320	-0.595692
C23	C	0.941735	-0.348333	-0.595705
C24	C	0.876511	-0.508123	-0.404001
C25	C	0.927915	-0.561377	-0.340085
C26	C	1.037640	-0.561360	-0.340065
C27	C	1.095961	-0.508090	-0.403963
C28	C	1.478653	-0.618186	-0.545575
C29	C	1.472777	-0.710852	-0.551512
C30	C	1.523351	-0.921798	-0.501207
C31	C	1.462069	-0.880508	-0.562363
C32	C	1.468029	-0.786103	-0.556324
C33	C	1.517392	-1.016211	-0.507245
C34	C	1.766645	-0.401596	-0.531800
C35	C	1.883421	-0.401604	-0.531809
C36	C	1.492692	-0.401494	-0.805808
C37	C	1.492725	-0.401459	-0.922582
C38	C	1.506655	-0.184125	-0.517953
C39	C	1.512639	-0.091459	-0.512061
C40	C	1.563374	-0.348135	-0.974060
C41	C	1.563401	-0.348105	-1.083782
C42	C	1.422127	-0.454728	-1.090539
C43	C	1.422095	-0.454754	-0.980819
C44	C	1.634004	-0.294840	-0.915823
C45	C	1.704660	-0.241514	-0.967301
C46	C	1.704686	-0.241483	-1.077024
C47	C	1.634058	-0.294780	-1.135268
C48	C	1.492598	-0.401602	-0.258814
C49	C	1.492783	-0.401403	-0.142025
H50	H	1.079490	-0.604716	-0.288014
O51	O	1.202540	-0.508205	-0.403855
C52	C	1.356210	-0.566595	-0.333659
C53	C	1.235509	-0.566557	-0.333691
H54	H	1.382903	-0.613755	-0.276921
H55	H	1.384971	-0.584016	-0.416060
H56	H	1.390119	-0.501988	-0.307921
H57	H	1.201512	-0.631143	-0.359383
H58	H	1.206822	-0.549089	-0.251278
H59	H	1.098951	-0.304950	-0.647715
O60	O	1.591212	-0.879483	-0.433189
C61	C	1.643892	-0.852666	-0.252829
C62	C	1.566994	-0.900668	-0.329749
H63	H	1.624325	-0.869763	-0.169180
H64	H	1.727570	-0.869659	-0.272318
H65	H	1.636664	-0.782986	-0.260048
H66	H	1.574128	-0.970359	-0.322572
H67	H	1.483348	-0.883606	-0.310238
O68	O	1.773219	-0.189818	-0.910570
C69	C	1.835739	-0.142564	-0.738544
C70	C	1.758058	-0.201170	-0.802660
H71	H	1.823494	-0.151709	-0.651286
H72	H	1.919540	-0.157203	-0.760976
H73	H	1.821644	-0.075343	-0.755911
H74	H	1.772058	-0.268411	-0.785327
H75	H	1.674285	-0.186459	-0.780219
O76	O	1.773414	-0.189656	-1.126867
C77	C	1.913497	-0.083871	-1.108576
C78	C	1.835729	-0.142535	-1.052000
H79	H	1.963884	-0.045746	-1.048071
H80	H	1.966044	-0.122100	-1.162350
H81	H	1.868075	-0.040294	-1.157202
H82	H	1.881065	-0.186124	-1.003319
H83	H	1.783183	-0.104254	-0.998289
O84	O	0.871428	-0.613146	-0.277919
C85	C	0.876157	-0.718830	-0.151191
C86	C	0.940253	-0.660229	-0.221525
H87	H	0.931773	-0.756924	-0.105595
H88	H	0.827246	-0.680553	-0.093833
H89	H	0.821983	-0.762438	-0.202142
H90	H	0.994484	-0.616608	-0.170659
H91	H	0.989094	-0.698557	-0.278890
H92	H	0.899881	-0.304970	-0.647743
H93	H	1.634074	-0.294741	-1.224610
O94	O	1.353573	-0.506619	-1.147006
C95	C	1.293473	-0.648425	-1.189622
C96	C	1.371149	-0.589749	-1.125599
H97	H	1.307670	-0.715649	-1.172354
H98	H	1.209673	-0.633854	-1.167101
H99	H	1.305618	-0.639206	-1.276877
H100	H	1.359100	-0.598935	-1.038328
H101	H	1.454921	-0.604334	-1.148208
H102	H	1.405127	-0.916060	-0.619256
H103	H	1.633992	-0.294861	-0.826482
O104	O	1.353623	-0.506594	-0.930683
C105	C	1.332218	-0.619201	-0.813974
C106	C	1.409877	-0.560534	-0.870678
H107	H	1.377669	-0.662838	-0.765464
H108	H	1.279762	-0.580975	-0.760100
H109	H	1.281722	-0.657262	-0.874448
H110	H	1.460442	-0.522460	-0.810279
H111	H	1.462261	-0.598808	-0.924571
H112	H	0.787167	-0.508145	-0.404012
