data_functionalizedCrystal
_audit_creation_method	'MofGen! by Chris Wilmer'
_symmetry_space_group_name_H-M	'P1'
_symmetry_Int_Tables_number	1
_symmetry_cell_setting	triclinic
loop_
_symmetry_equiv_pos_as_xyz
  x,y,z
_cell_length_a	25.639240
_cell_length_b	25.639242
_cell_length_c	12.759393
_cell_angle_alpha	89.969545
_cell_angle_beta	89.967965
_cell_angle_gamma	90.027587
loop_
_atom_site_label
_atom_site_type_symbol
_atom_site_fract_x
_atom_site_fract_y
_atom_site_fract_z
Zn1	Zn	-0.208182	0.799292	-0.594313
Zn2	Zn	-0.295629	0.799213	-0.418632
Zn3	Zn	-0.208203	0.711856	-0.418616
Zn4	Zn	-0.295582	0.711823	-0.594236
O5	O	-0.251899	0.755546	-0.506449
O6	O	-0.219794	0.872447	-0.571047
O7	O	-0.284060	0.787605	-0.271608
O8	O	-0.135035	0.723501	-0.441948
O9	O	-0.284040	0.872389	-0.441975
O10	O	-0.135020	0.787740	-0.571032
O11	O	-0.219828	0.723424	-0.271597
O12	O	-0.219782	0.638686	-0.441874
O13	O	-0.283960	0.723446	-0.741268
O14	O	-0.283979	0.638663	-0.570901
O15	O	-0.219748	0.787709	-0.741324
O16	O	-0.368788	0.787574	-0.441901
O17	O	-0.368753	0.723369	-0.570917
C18	C	-0.251878	0.619703	-0.506378
C19	C	-0.251882	0.561589	-0.506372
C20	C	-0.387741	0.755474	-0.506425
C21	C	-0.445855	0.755491	-0.506450
C22	C	-0.696990	0.788992	-0.573732
C23	C	-0.642386	0.788977	-0.573724
O24	O	-0.614099	0.817401	-0.630895
N25	N	-0.615129	0.755548	-0.506463
C26	C	-0.642480	0.722137	-0.439198
O27	O	-0.614283	0.693702	-0.381986
C28	C	-0.697084	0.722155	-0.439201
C29	C	-0.724337	0.755582	-0.506474
C30	C	-0.724243	0.822417	-0.640999
C31	C	-0.778844	0.822432	-0.641008
C32	C	-0.806191	0.789022	-0.573750
C33	C	-0.778937	0.755597	-0.506483
C34	C	-0.724433	0.688747	-0.371932
C35	C	-0.779040	0.688769	-0.371941
C36	C	-0.806294	0.722196	-0.439214
C37	C	-0.860885	0.722202	-0.439235
N38	N	-0.888141	0.755631	-0.506496
C39	C	-0.860794	0.789041	-0.573754
C40	C	-0.527810	0.722100	-0.439195
C41	C	-0.473207	0.722079	-0.439196
C42	C	-0.473116	0.788920	-0.573721
C43	C	-0.527720	0.788938	-0.573724
C44	C	-0.555066	0.755529	-0.506456
C45	C	-0.975459	0.789069	-0.573768
C46	C	-1.030065	0.789080	-0.573774
C47	C	-1.030151	0.722241	-0.439246
C48	C	-0.975550	0.722228	-0.439243
C49	C	-0.948206	0.755647	-0.506508
O50	O	-0.889207	0.693794	-0.382090
O51	O	-0.888998	0.817476	-0.630946
C52	C	-0.285382	0.201223	-0.573570
C53	C	-0.285385	0.146619	-0.573587
O54	O	-0.313843	0.118379	-0.630661
N55	N	-0.251913	0.119307	-0.506518
C56	C	-0.218432	0.146602	-0.439435
O57	O	-0.189961	0.118358	-0.382390
C58	C	-0.218427	0.201206	-0.439425
C59	C	-0.251905	0.228515	-0.506491
C60	C	-0.318857	0.228532	-0.640632
C61	C	-0.318854	0.283132	-0.640613
C62	C	-0.285377	0.310424	-0.573534
C63	C	-0.251902	0.283115	-0.506472
C64	C	-0.184943	0.228500	-0.372348
C65	C	-0.184940	0.283107	-0.372344
C66	C	-0.218418	0.310416	-0.439410
C67	C	-0.218422	0.365007	-0.439375
N68	N	-0.251894	0.392319	-0.506444
C69	C	-0.285371	0.365027	-0.573523
C70	C	-0.218445	0.031932	-0.439464
C71	C	-0.218453	-0.022671	-0.439468
C72	C	-0.285406	-0.022651	-0.573621
C73	C	-0.285400	0.031953	-0.573611
C74	C	-0.251917	0.059243	-0.506533
C75	C	-0.285364	0.479692	-0.573479
C76	C	-0.285360	0.534298	-0.573452
C77	C	-0.218405	0.534273	-0.439303
C78	C	-0.218411	0.479672	-0.439326
C79	C	-0.251892	0.452383	-0.506423
O80	O	-0.189977	0.393282	-0.382333
O81	O	-0.313832	0.393279	-0.630569
C82	C	-0.115526	0.755633	-0.506497
C83	C	-0.057412	0.755670	-0.506517
C84	C	-0.251846	0.755583	-0.780483
C85	C	-0.251824	0.755598	-0.897259
C86	C	-0.251920	0.891919	-0.506521
C87	C	-0.251929	0.950033	-0.506552
C88	C	-0.218385	0.789064	-0.952152
C89	C	-0.218366	0.789077	-1.061877
C90	C	-0.285229	0.722155	-1.061805
C91	C	-0.285245	0.722141	-0.952083
C92	C	-0.179784	0.827703	-0.952195
C93	C	-0.179765	0.827715	-1.061919
C94	C	-0.251914	0.755540	-0.233482
C95	C	-0.251789	0.755625	-0.116706
H96	H	-0.953202	0.816282	-0.628540
H97	H	-0.190614	0.868206	-1.091714
O98	O	-0.317973	0.058502	-0.638615
C99	C	-0.388546	0.120148	-0.652514
C100	C	-0.351699	0.090108	-0.578772
H101	H	-0.415816	0.145717	-0.604162
H102	H	-0.412511	0.091280	-0.700435
H103	H	-0.364560	0.145712	-0.707554
H104	H	-0.375644	0.064543	-0.523669
H105	H	-0.327732	0.119004	-0.530924
H106	H	-0.191151	0.457436	-0.384713
H107	H	-0.312626	0.457480	-0.628118
O108	O	-0.317875	-0.049248	-0.638758
C109	C	-0.347564	-0.133366	-0.698182
C110	C	-0.310761	-0.103308	-0.624386
H111	H	-0.341833	-0.177078	-0.686572
H112	H	-0.338428	-0.122639	-0.782951
H113	H	-0.389708	-0.122626	-0.679604
H114	H	-0.268605	-0.114031	-0.642870
H115	H	-0.319942	-0.114037	-0.539639
H116	H	-0.346115	0.305362	-0.695228
H117	H	-0.801029	0.849656	-0.695780
H118	H	-0.194303	0.866153	-0.918175
O119	O	-0.554428	0.689611	-0.374004
C120	C	-0.616102	0.619013	-0.359732
C121	C	-0.586003	0.655782	-0.433675
H122	H	-0.641629	0.591646	-0.407946
H123	H	-0.641700	0.643005	-0.304856
H124	H	-0.587227	0.595144	-0.311644
H125	H	-0.614841	0.679659	-0.481831
H126	H	-0.560398	0.631761	-0.488481
H127	H	-0.191197	-0.044901	-0.384846
H128	H	-0.141291	0.813238	-1.095961
H129	H	-1.052252	0.816299	-0.628562
H130	H	-0.191180	0.054148	-0.384833
O131	O	-0.152370	0.202062	-0.307172
C132	C	-0.085973	0.207829	-0.174089
C133	C	-0.122831	0.237833	-0.247867
H134	H	-0.062089	0.236737	-0.126106
H135	H	-0.058628	0.182309	-0.222378
H136	H	-0.109947	0.182221	-0.119109
H137	H	-0.098899	0.263469	-0.302862
H138	H	-0.150177	0.263321	-0.199513
H139	H	-0.701982	0.849626	-0.695768
H140	H	-0.157671	0.305324	-0.317726
H141	H	-0.549906	0.816155	-0.628508
H142	H	-0.312438	0.694914	-1.106456
H143	H	-0.450840	0.816124	-0.628484
O144	O	-0.317796	0.689680	-0.898811
C145	C	-0.406725	0.664191	-0.865234
C146	C	-0.369921	0.700999	-0.925607
H147	H	-0.448876	0.673323	-0.886893
H148	H	-0.401043	0.669924	-0.777381
H149	H	-0.397495	0.622048	-0.886789
H150	H	-0.379128	0.743156	-0.904140
H151	H	-0.375610	0.695222	-1.013445
O152	O	-0.446817	0.689586	-0.373757
C153	C	-0.452686	0.623269	-0.240375
C154	C	-0.482634	0.660047	-0.314420
H155	H	-0.481631	0.599369	-0.192397
H156	H	-0.427136	0.647252	-0.185410
H157	H	-0.427114	0.595931	-0.288561
H158	H	-0.508235	0.687392	-0.266318
H159	H	-0.508152	0.636031	-0.369387
H160	H	-0.139292	0.816882	-0.922435
H161	H	-0.702251	0.661528	-0.317152
O162	O	-0.949128	0.689681	-0.373962
C163	C	-0.932476	0.600750	-0.322826
C164	C	-0.962436	0.637549	-0.396811
H165	H	-0.943216	0.558594	-0.341287
H166	H	-0.943242	0.609910	-0.238112
H167	H	-0.888755	0.606508	-0.334353
H168	H	-1.006164	0.631812	-0.385376
H169	H	-0.951627	0.628380	-0.481497
H170	H	-0.346119	0.206317	-0.695262
O171	O	-0.185944	0.560768	-0.373993
C172	C	-0.160438	0.577419	-0.195374
C173	C	-0.197242	0.547387	-0.269211
H174	H	-0.169552	0.566603	-0.110643
H175	H	-0.166193	0.621141	-0.206803
H176	H	-0.118293	0.566718	-0.214027
H177	H	-0.239402	0.558044	-0.250604
H178	H	-0.191442	0.503672	-0.257768
O179	O	-0.805580	0.656238	-0.306708
C180	C	-0.822341	0.567321	-0.255470
C181	C	-0.792263	0.604103	-0.329422
H182	H	-0.811577	0.525163	-0.273792
H183	H	-0.866056	0.573025	-0.267028
H184	H	-0.811629	0.576551	-0.170780
H185	H	-0.802931	0.594895	-0.414139
H186	H	-0.748556	0.598392	-0.317772
O187	O	-1.056802	0.689839	-0.373945
C188	C	-1.140969	0.660236	-0.314380
C189	C	-1.110850	0.696961	-0.388378
H190	H	-1.184672	0.665973	-0.326039
H191	H	-1.130292	0.669442	-0.229660
H192	H	-1.130234	0.618071	-0.332711
H193	H	-1.121569	0.739138	-0.370140
H194	H	-1.121529	0.687709	-0.473075
H195	H	-0.312623	0.556530	-0.628066
