data_functionalizedCrystal
_audit_creation_method	'MofGen! by Chris Wilmer'
_symmetry_space_group_name_H-M	'P1'
_symmetry_Int_Tables_number	1
_symmetry_cell_setting	triclinic
loop_
_symmetry_equiv_pos_as_xyz
  x,y,z
_cell_length_a	21.295418
_cell_length_b	21.295417
_cell_length_c	12.827885
_cell_angle_alpha	89.961900
_cell_angle_beta	89.959362
_cell_angle_gamma	90.046319
loop_
_atom_site_label
_atom_site_type_symbol
_atom_site_fract_x
_atom_site_fract_y
_atom_site_fract_z
Zn1	Zn	0.962337	-0.250313	-0.591379
Zn2	Zn	0.962245	-0.355595	-0.416614
Zn3	Zn	0.857065	-0.250373	-0.416588
Zn4	Zn	0.857029	-0.355577	-0.591249
O5	O	0.909669	-0.302964	-0.503958
O6	O	1.050414	-0.264261	-0.568261
O7	O	0.948269	-0.341669	-0.270374
O8	O	0.871084	-0.162275	-0.439818
O9	O	1.050346	-0.341612	-0.439862
O10	O	0.948426	-0.162231	-0.568236
O11	O	0.870994	-0.264363	-0.270355
O12	O	0.768971	-0.264346	-0.439692
O13	O	0.871022	-0.341581	-0.737503
O14	O	0.768945	-0.341639	-0.568015
O15	O	0.948391	-0.264244	-0.737598
O16	O	0.948234	-0.443682	-0.439736
O17	O	0.870933	-0.443669	-0.568040
C18	C	0.746117	-0.302998	-0.503837
C19	C	0.676149	-0.303027	-0.503811
C20	C	0.643285	-0.343327	-0.570528
C21	C	0.577543	-0.343311	-0.570575
C22	C	0.544667	-0.303003	-0.503886
C23	C	0.577539	-0.262695	-0.437163
C24	C	0.643280	-0.262707	-0.437126
N25	N	0.441394	-0.298091	-0.412485
N26	N	0.378942	-0.298083	-0.412524
C27	C	0.346592	-0.302962	-0.503997
N28	N	0.379053	-0.307862	-0.595431
N29	N	0.441510	-0.307873	-0.595391
C30	C	0.473381	-0.302985	-0.503920
C31	C	0.242442	-0.343248	-0.570771
C32	C	0.176699	-0.343228	-0.570820
C33	C	0.176696	-0.262614	-0.437398
C34	C	0.242439	-0.262631	-0.437359
C35	C	0.275308	-0.302951	-0.504044
C36	C	0.909586	-0.466516	-0.503900
C37	C	0.909609	-0.536484	-0.503910
C38	C	0.949895	-0.569337	-0.437171
C39	C	0.949925	-0.635079	-0.437194
C40	C	0.909657	-0.667967	-0.503946
C41	C	0.869367	-0.635106	-0.570698
C42	C	0.869343	-0.569365	-0.570680
N43	N	0.854589	-0.771247	-0.511872
N44	N	0.854614	-0.833699	-0.511883
C45	C	0.909727	-0.866041	-0.504006
N46	N	0.964816	-0.833573	-0.496097
N47	N	0.964791	-0.771116	-0.496080
C48	C	0.909678	-0.739252	-0.503973
C49	C	0.950049	-0.970179	-0.437288
C50	C	0.950080	-1.035923	-0.437319
C51	C	0.869516	-1.035949	-0.570818
C52	C	0.869491	-0.970206	-0.570793
C53	C	0.909757	-0.937326	-0.504022
C54	C	1.073859	-0.302932	-0.504079
C55	C	1.143827	-0.302918	-0.504131
C56	C	0.909712	-0.302904	-0.776528
C57	C	0.909731	-0.302878	-0.892681
C58	C	0.909769	-0.138774	-0.504039
C59	C	0.909812	-0.068806	-0.504073
C60	C	0.871505	-0.264617	-0.944456
C61	C	0.871523	-0.264590	-1.064507
C62	C	0.909662	-0.302979	-0.232448
C63	C	0.909765	-0.302828	-0.116295
H64	H	0.149942	-0.376044	-0.625156
H65	H	0.836536	-0.542616	-0.625029
O66	O	0.832473	-0.225474	-0.891436
C67	C	0.846266	-0.162710	-0.918048
H68	H	0.870438	-0.161337	-0.997339
H69	H	0.878664	-0.141548	-0.856673
C70	C	0.755231	-0.126276	-0.825532
C71	C	0.784914	-0.124590	-0.922922
H72	H	0.717387	-0.102761	-0.828534
H73	H	0.745939	-0.168561	-0.807599
H74	H	0.782235	-0.108642	-0.774395
H75	H	0.757913	-0.142231	-0.974054
H76	H	0.794200	-0.082307	-0.940864
H77	H	0.942470	-0.335615	-0.937231
O78	O	0.144671	-0.223532	-0.372623
C79	C	0.079598	-0.232157	-0.386969
H80	H	0.070597	-0.280752	-0.421085
H81	H	0.061003	-0.194842	-0.442710
C82	C	0.056850	-0.166657	-0.239355
C83	C	0.045794	-0.226344	-0.281249
H84	H	0.035997	-0.163069	-0.174144
H85	H	0.100691	-0.160844	-0.229692
H86	H	0.041354	-0.135568	-0.285816
H87	H	0.061297	-0.257432	-0.234795
H88	H	0.001955	-0.232162	-0.290902
H89	H	0.670043	-0.376158	-0.624830
H90	H	0.269197	-0.229817	-0.383025
H91	H	0.836683	-0.943456	-0.625134
H92	H	0.982683	-0.542567	-0.382805
H93	H	0.982733	-0.661833	-0.382847
H94	H	0.838800	-0.231830	-1.109033
O95	O	0.948780	-0.341999	-1.063306
C96	C	0.934990	-0.404750	-1.089840
H97	H	0.910846	-0.406084	-1.169095
H98	H	0.902570	-0.425937	-1.028398
C99	C	1.025991	-0.441233	-0.997416
C100	C	0.996341	-0.442873	-1.094764
H101	H	1.063834	-0.464751	-1.000449
H102	H	1.035280	-0.398957	-0.979536
H103	H	0.998967	-0.458888	-0.946225
H104	H	1.023362	-0.425211	-1.145950
H105	H	0.987058	-0.485147	-1.112653
H106	H	0.836581	-0.661887	-0.625050
H107	H	0.550779	-0.376128	-0.624909
H108	H	0.550767	-0.229874	-0.382866
H109	H	0.982890	-1.062670	-0.382974
O110	O	0.675110	-0.223541	-0.372209
C111	C	0.631999	-0.187945	-0.313376
H112	H	0.585107	-0.213714	-0.309708
H113	H	0.625084	-0.140161	-0.351795
C114	C	0.715188	-0.147150	-0.206672
C115	C	0.657595	-0.178802	-0.202160
H116	H	0.730977	-0.141508	-0.138070
H117	H	0.744233	-0.171130	-0.246311
H118	H	0.709417	-0.107334	-0.238692
H119	H	0.663368	-0.218621	-0.170152
H120	H	0.628551	-0.154829	-0.162513
H121	H	0.269206	-0.376075	-0.625075
O122	O	0.989133	-0.938302	-0.372293
C123	C	0.975406	-0.954426	-0.268116
H124	H	0.951230	-1.002190	-0.265915
H125	H	0.943037	-0.917485	-0.232839
C126	C	1.066490	-0.898754	-0.207647
C127	C	1.036801	-0.957421	-0.204943
H128	H	1.104360	-0.900598	-0.168677
H129	H	1.075736	-0.887888	-0.277833
H130	H	1.039509	-0.867976	-0.178252
H131	H	1.063778	-0.988196	-0.234350
H132	H	1.027560	-0.968291	-0.134760
H133	H	0.836732	-1.062725	-0.625173
