data_functionalizedCrystal
_audit_creation_method	'MofGen! by Chris Wilmer'
_symmetry_space_group_name_H-M	'P1'
_symmetry_Int_Tables_number	1
_symmetry_cell_setting	triclinic
loop_
_symmetry_equiv_pos_as_xyz
  x,y,z
_cell_length_a	19.188925
_cell_length_b	19.188928
_cell_length_c	18.266242
_cell_angle_alpha	89.986251
_cell_angle_beta	90.009988
_cell_angle_gamma	96.856819
loop_
_atom_site_label
_atom_site_type_symbol
_atom_site_fract_x
_atom_site_fract_y
_atom_site_fract_z
O1	O	0.926151	-0.087151	0.060909
O2	O	0.722839	-0.098889	0.060908
O3	O	0.830363	0.008636	0.060890
O4	O	0.818627	-0.194676	0.060927
O5	O	0.830345	0.008642	-0.060872
O6	O	0.722821	-0.098883	-0.060854
O7	O	0.926133	-0.087145	-0.060853
Zn8	Zn	0.824474	-0.093013	-0.080186
Zn9	Zn	0.824498	-0.093021	0.080241
O10	O	0.818609	-0.194670	-0.060835
C11	C	0.696819	-0.098507	0.000027
C12	C	0.619314	-0.097367	0.000026
C13	C	0.057543	-0.152832	0.000038
C14	C	0.130367	-0.153908	0.000042
C15	C	0.175302	-0.090816	0.000029
C16	C	0.147408	-0.026642	0.000031
C17	C	0.074586	-0.025568	0.000034
N18	N	0.295973	-0.045138	-0.041428
N19	N	0.365150	-0.046163	-0.041433
C20	C	0.394711	-0.094050	0.000021
N21	N	0.352479	-0.140884	0.041470
N22	N	0.283295	-0.139860	0.041471
C23	C	0.254266	-0.091974	0.000026
C24	C	0.501559	-0.159387	0.000029
C25	C	0.574384	-0.160460	0.000037
C26	C	0.591424	-0.033193	0.000019
C27	C	0.518601	-0.032121	0.000018
C28	C	0.473672	-0.095220	0.000019
C29	C	0.829974	0.034650	0.000006
C30	C	0.828834	0.112154	-0.000004
C31	C	0.891925	0.157080	-0.000009
C32	C	0.890854	0.229904	-0.000000
C33	C	0.826688	0.257799	-0.000001
C34	C	0.763589	0.212864	0.000008
C35	C	0.764662	0.140042	0.000007
N36	N	0.777636	0.365805	-0.041444
N37	N	0.776621	0.434984	-0.041444
C38	C	0.823452	0.477208	0.000004
N39	N	0.871347	0.447641	0.041444
N40	N	0.872364	0.378457	0.041441
C41	C	0.825518	0.336761	0.000001
C42	C	0.885387	0.601097	0.000010
C43	C	0.884313	0.673922	0.000023
C44	C	0.757045	0.656881	0.000024
C45	C	0.758121	0.584058	0.000018
C46	C	0.822293	0.556171	0.000008
C47	C	0.952153	-0.087527	0.000029
C48	C	1.029658	-0.088667	0.000035
C49	C	0.819000	0.779316	0.000040
C50	C	0.820146	0.701813	0.000023
N51	N	0.824463	-0.093008	-0.189673
C52	C	0.872090	-0.045419	-0.227990
C53	C	0.872094	-0.045416	-0.304635
C54	C	0.824478	-0.093014	-0.342960
C55	C	0.776842	-0.140606	-0.304634
C56	C	0.776834	-0.140603	-0.227990
N57	N	0.815402	-0.154821	-0.463281
N58	N	0.815414	-0.154822	-0.536089
C59	C	0.824498	-0.093024	-0.573882
N60	N	0.833584	-0.031223	-0.536117
N61	N	0.833576	-0.031223	-0.463302
C62	C	0.824481	-0.093022	-0.426067
C63	C	0.872132	-0.045427	-0.695306
C64	C	0.872132	-0.045423	-0.771953
C65	C	0.776883	-0.140619	-0.771950
C66	C	0.776880	-0.140617	-0.695305
C67	C	0.824509	-0.093022	-0.656988
N68	N	0.824515	-0.093020	0.189728
H69	H	0.464976	-0.210765	0.000031
H70	H	0.910870	-0.006663	-0.196794
H71	H	0.495897	0.020129	0.000011
H72	H	0.910914	-0.006667	-0.803151
F73	F	0.044908	0.042729	0.000034
F74	F	0.726202	-0.191272	-0.812735
F75	F	0.922788	0.005237	-0.345421
F76	F	0.604061	-0.228757	0.000047
H77	H	0.937640	0.578391	0.000005
F78	F	0.922820	0.005230	-0.654526
F79	F	0.639243	0.033955	0.000015
H80	H	0.183999	0.024728	0.000022
F81	F	0.688754	0.686564	0.000027
F82	F	0.960224	0.127404	-0.000004
F83	F	0.958008	0.277725	-0.000005
F84	F	0.695299	0.242553	0.000012
H85	H	0.713283	0.103463	0.000011
F86	F	0.726192	-0.191271	-0.654522
H87	H	0.706745	0.547478	0.000018
F88	F	0.009731	-0.219987	0.000046
F89	F	0.726163	-0.191261	-0.345422
F90	F	0.160052	-0.222204	0.000043
H91	H	0.935692	0.710501	0.000023
F92	F	0.726141	-0.191256	-0.187209
