data_functionalizedCrystal
_audit_creation_method	'MofGen! by Chris Wilmer'
_symmetry_space_group_name_H-M	'P1'
_symmetry_Int_Tables_number	1
_symmetry_cell_setting	triclinic
loop_
_symmetry_equiv_pos_as_xyz
  x,y,z
_cell_length_a	6.394989
_cell_length_b	14.971486
_cell_length_c	14.048226
_cell_angle_alpha	90.001501
_cell_angle_beta	90.003392
_cell_angle_gamma	85.055920
loop_
_atom_site_label
_atom_site_type_symbol
_atom_site_fract_x
_atom_site_fract_y
_atom_site_fract_z
O1	O	-0.272212	-1.189891	-0.079045
O2	O	-0.304810	-0.929843	-0.079070
O3	O	0.015544	-1.063558	-0.079058
O4	O	-0.592566	-1.056176	-0.079057
O5	O	0.015563	-1.063542	0.079264
O6	O	-0.304791	-0.929827	0.079252
O7	O	-0.272193	-1.189874	0.079277
Zn8	Zn	-0.288489	-1.059848	0.104401
Zn9	Zn	-0.288514	-1.059870	-0.104194
O10	O	-0.592547	-1.056159	0.079264
C11	C	-0.303343	-0.896494	0.000088
C12	C	-0.298974	-0.797150	0.000078
C13	C	-0.273661	-1.223223	0.000117
C14	C	-0.278029	-1.322567	0.000121
N15	N	-0.288471	-1.059839	0.246762
C16	C	0.093378	-1.062090	0.000099
C17	C	0.329624	-1.057629	0.000098
N18	N	-0.288516	-1.059885	-0.246555
C19	C	-0.487173	-0.741960	0.000079
C20	C	-0.483056	-0.648616	0.000093
C21	C	-0.290737	-0.610464	0.000099
C22	C	-0.102524	-0.665661	0.000101
C23	C	-0.106643	-0.759003	0.000093
C24	C	-0.093951	-0.471106	0.000114
C25	C	-0.089830	-0.377757	0.000119
C26	C	-0.470364	-0.360719	0.000114
C27	C	-0.474483	-0.454061	0.000107
C28	C	-0.286268	-0.509252	0.000106
C29	C	-0.146677	-1.119068	0.296585
C30	C	-0.146676	-1.119074	0.396243
C31	C	-0.288480	-1.059855	0.446075
C32	C	-0.430281	-1.000620	0.396245
C33	C	-0.430271	-1.000610	0.296589
C34	C	-0.430296	-1.000646	0.603959
C35	C	-0.430310	-1.000656	0.703622
C36	C	-0.146701	-1.119110	0.703613
C37	C	-0.146691	-1.119100	0.603957
C38	C	-0.288495	-1.059866	0.554134
H39	H	-0.643782	-0.773016	0.000074
O40	O	0.076228	-0.812581	-0.000082
C41	C	0.400254	-0.855671	-0.082075
C42	C	0.193205	-0.794958	-0.082011
H43	H	0.494907	-0.841431	-0.148297
H44	H	0.364397	-0.928954	-0.082140
H45	H	0.494808	-0.841531	-0.015786
H46	H	0.098549	-0.809019	-0.148289
H47	H	0.229209	-0.721694	-0.081896
H48	H	0.066773	-0.346697	0.000125
O49	O	-0.008435	-1.176403	0.555553
C50	C	0.277564	-1.191871	0.443442
C51	C	0.120791	-1.126943	0.498111
H52	H	0.382112	-1.151907	0.397002
H53	H	0.187955	-1.237691	0.396600
H54	H	0.378784	-1.234090	0.496314
H55	H	0.019530	-1.084665	0.445308
H56	H	0.210527	-1.081183	0.544967
O57	O	-0.568217	-0.943046	0.248335
C58	C	-0.849435	-0.825522	0.258854
C59	C	-0.693362	-0.890685	0.313619
H60	H	-0.950625	-0.783158	0.311613
H61	H	-0.954076	-0.865262	0.212212
H62	H	-0.759027	-0.779860	0.212185
H63	H	-0.783598	-0.936361	0.360340
H64	H	-0.588721	-0.850889	0.360201
O65	O	-0.653334	-0.307201	0.000246
C66	C	-0.977256	-0.264039	0.082290
C67	C	-0.770158	-0.324719	0.082254
H68	H	-1.071747	-0.278166	0.148596
H69	H	-1.072036	-0.278193	0.016072
H70	H	-0.941225	-0.190779	0.082255
H71	H	-0.805999	-0.397999	0.082322
H72	H	-0.675439	-0.310487	0.148466
H73	H	-0.031212	-1.167295	0.256018
O74	O	-0.009237	-1.176651	0.444751
C75	C	0.034705	-1.298348	0.557214
C76	C	-0.121177	-1.233180	0.502353
H77	H	-0.055738	-1.344080	0.603784
H78	H	0.139180	-1.258612	0.603945
H79	H	0.136096	-1.340638	0.504467
H80	H	-0.222707	-1.190874	0.555031
H81	H	-0.225508	-1.272968	0.455608
H82	H	-0.031240	-1.167340	0.744185
O83	O	-0.568250	-0.943077	0.555707
C84	C	-0.849489	-0.825561	0.566226
C85	C	-0.693399	-0.890717	0.620991
H86	H	-0.950683	-0.783199	0.618984
H87	H	-0.954125	-0.865307	0.519587
H88	H	-0.759094	-0.779897	0.519553
H89	H	-0.783623	-0.936396	0.667715
H90	H	-0.588764	-0.850916	0.667570
O91	O	0.088933	-0.524684	-0.000060
C92	C	0.412942	-0.567771	-0.082068
C93	C	0.205894	-0.507056	-0.081992
H94	H	0.507583	-0.553527	-0.148293
H95	H	0.377082	-0.641053	-0.082136
H96	H	0.507509	-0.553635	-0.015781
H97	H	0.111225	-0.521113	-0.148267
H98	H	0.241901	-0.433793	-0.081874
O99	O	-0.665812	-0.594964	0.000254
C100	C	-0.881957	-0.479647	0.082238
C101	C	-0.674925	-0.540371	0.082188
H102	H	-0.889372	-0.435480	0.148464
H103	H	-1.020208	-0.522900	0.082285
H104	H	-0.889494	-0.435559	0.015953
H105	H	-0.667183	-0.584469	0.148462
H106	H	-0.536771	-0.497065	0.082092
H107	H	-0.631086	-0.485121	0.000093
H108	H	0.054066	-0.634590	0.000119
H109	H	-0.545780	-0.952433	0.744190
H110	H	-0.545734	-0.952398	0.436824
