data_functionalizedCrystal
_audit_creation_method	'MofGen! by Chris Wilmer'
_symmetry_space_group_name_H-M	'P1'
_symmetry_Int_Tables_number	1
_symmetry_cell_setting	triclinic
loop_
_symmetry_equiv_pos_as_xyz
  x,y,z
_cell_length_a	14.519709
_cell_length_b	12.837943
_cell_length_c	11.892095
_cell_angle_alpha	94.310562
_cell_angle_beta	93.895429
_cell_angle_gamma	90.745458
loop_
_atom_site_label
_atom_site_type_symbol
_atom_site_fract_x
_atom_site_fract_y
_atom_site_fract_z
O1	O	0.234472	-1.382515	-0.093988
O2	O	0.567805	-1.049182	0.239345
O3	O	0.901139	-0.715849	0.572678
O4	O	0.222627	-1.080688	-0.093995
O5	O	0.555960	-0.747355	0.239339
O6	O	0.889293	-0.414022	0.572672
O7	O	0.095003	-1.239604	-0.093981
O8	O	0.428336	-0.906270	0.239352
O9	O	0.761670	-0.572937	0.572686
O10	O	0.362096	-1.223600	-0.094002
O11	O	0.695429	-0.890267	0.239332
O12	O	1.028762	-0.556933	0.572665
O13	O	0.105626	-1.226354	0.094025
O14	O	0.438959	-0.893020	0.427359
O15	O	0.772293	-0.559687	0.760692
O16	O	0.233250	-1.067438	0.094012
O17	O	0.566583	-0.734105	0.427345
O18	O	0.899916	-0.400772	0.760678
O19	O	0.245095	-1.369265	0.094018
O20	O	0.578428	-1.035932	0.427351
O21	O	0.911762	-0.702599	0.760685
Zn22	Zn	0.240859	-1.216248	0.123865
Zn23	Zn	0.574192	-0.882915	0.457198
Zn24	Zn	0.907526	-0.549581	0.790532
Zn25	Zn	0.226863	-1.233706	-0.123842
Zn26	Zn	0.560196	-0.900372	0.209492
Zn27	Zn	0.893530	-0.567039	0.542825
O28	O	0.372719	-1.210350	0.094005
O29	O	0.706052	-0.877017	0.427338
O30	O	1.039385	-0.543683	0.760671
C31	C	0.223937	-1.035435	0.000008
C32	C	0.557270	-0.702102	0.333341
C33	C	0.890603	-0.368769	0.666674
C34	C	0.212002	-0.920336	0.000006
C35	C	0.545336	-0.587003	0.333339
C36	C	0.878669	-0.253670	0.666672
C37	C	0.065890	-1.232233	0.000022
C38	C	0.399224	-0.898899	0.333356
C39	C	0.732557	-0.565566	0.666689
C40	C	-0.036684	-1.229998	0.000023
C41	C	0.296649	-0.896664	0.333356
C42	C	0.629983	-0.563331	0.666689
N43	N	0.250411	-1.204341	0.292918
N44	N	0.583744	-0.871008	0.626251
N45	N	0.917078	-0.537675	0.959585
C46	C	-0.412293	-1.221771	-0.000007
C47	C	-0.078959	-0.888438	0.333327
C48	C	0.254374	-0.555104	0.666660
C49	C	-0.307787	-1.224055	0.000002
C50	C	0.025547	-0.890722	0.333335
C51	C	0.358880	-0.557389	0.666669
C52	C	-0.224492	-1.225884	0.000009
C53	C	0.108842	-0.892551	0.333342
C54	C	0.442175	-0.559217	0.666676
C55	C	-0.119979	-1.228169	0.000016
C56	C	0.213354	-0.894836	0.333349
C57	C	0.546687	-0.561502	0.666682
C58	C	0.401831	-1.217721	-0.000001
C59	C	0.735165	-0.884388	0.333332
C60	C	1.068498	-0.551055	0.666665
C61	C	0.504405	-1.219957	-0.000009
C62	C	0.837739	-0.886624	0.333324
C63	C	1.171072	-0.553290	0.666657
C64	C	0.243785	-1.414519	0.000013
C65	C	0.577118	-1.081185	0.333346
C66	C	0.910452	-0.747852	0.666680
C67	C	0.255719	-1.529618	0.000008
C68	C	0.589052	-1.196285	0.333341
C69	C	0.922385	-0.862951	0.666674
C70	C	0.355473	-0.679644	0.000011
C71	C	0.688807	-0.346310	0.333344
C72	C	1.022140	-0.012977	0.666677
C73	C	0.344264	-0.571497	0.000010
C74	C	0.677598	-0.238164	0.333343
C75	C	1.010931	0.095170	0.666676
C76	C	0.178377	-0.595894	0.000010
C77	C	0.511710	-0.262561	0.333344
C78	C	0.845043	0.070773	0.666677
C79	C	0.189586	-0.704041	0.000012
C80	C	0.522919	-0.370707	0.333345
C81	C	0.856252	-0.037374	0.666678
C82	C	0.278137	-0.745911	0.000010
C83	C	0.611470	-0.412578	0.333343
C84	C	0.944803	-0.079244	0.666677
C85	C	0.289344	-0.854060	0.000003
C86	C	0.622678	-0.520727	0.333336
C87	C	0.956011	-0.187394	0.666670
C88	C	0.123458	-0.878455	0.000012
C89	C	0.456792	-0.545121	0.333345
C90	C	0.790125	-0.211788	0.666679
C91	C	0.112249	-0.770308	0.000011
C92	C	0.445583	-0.436975	0.333344
C93	C	0.778916	-0.103642	0.666678
N94	N	0.217304	-1.245621	-0.292895
N95	N	0.550638	-0.912287	0.040439
N96	N	0.883971	-0.578954	0.373772
C97	C	0.150784	-1.328473	0.529576
C98	C	0.484117	-0.995140	0.862910
C99	C	0.817451	-0.661807	1.196243
C100	C	0.157468	-1.320158	0.647918
C101	C	0.490801	-0.986825	0.981251
C102	C	0.824135	-0.653491	1.314584
C103	C	0.270458	-1.179391	0.647944
C104	C	0.603791	-0.846058	0.981277
C105	C	0.937125	-0.512725	1.314610
C106	C	0.263774	-1.187707	0.529603
C107	C	0.597107	-0.854373	0.862936
C108	C	0.930441	-0.521040	1.196269
C109	C	0.203936	-1.262251	0.470423
C110	C	0.537269	-0.928918	0.803756
C111	C	0.870603	-0.595584	1.137090
C112	C	0.197257	-1.270570	0.352080
C113	C	0.530590	-0.937237	0.685413
C114	C	0.863924	-0.603904	1.018746
C115	C	0.310242	-1.129800	0.352108
C116	C	0.643575	-0.796466	0.685441
C117	C	0.976908	-0.463133	1.018775
C118	C	0.316926	-1.121484	0.470449
C119	C	0.650259	-0.788151	0.803782
C120	C	0.983593	-0.454818	1.137116
H121	H	0.361447	-0.888149	0.000004
H122	H	0.694780	-0.554816	0.333337
H123	H	1.028114	-0.221482	0.666670
H124	H	0.319170	-1.118692	0.696143
H125	H	0.652503	-0.785359	1.029476
H126	H	0.985837	-0.452026	1.362810
H127	H	0.353524	-1.075880	0.303932
H128	H	0.686858	-0.742547	0.637265
H129	H	1.020191	-0.409213	0.970598
H130	H	0.427575	-0.713735	0.000008
H131	H	0.760908	-0.380402	0.333341
H132	H	1.094241	-0.047068	0.666675
O133	O	0.419484	-0.507276	-0.000045
O134	O	0.752817	-0.173943	0.333289
O135	O	1.086151	0.159391	0.666622
C136	C	0.500041	-0.567426	-0.000016
C137	C	0.833375	-0.234093	0.333318
C138	C	1.166708	0.099240	0.666651
H139	H	0.481706	-0.650602	-0.035607
H140	H	0.815039	-0.317268	0.297727
H141	H	1.148373	0.016065	0.631060
H142	H	0.551731	-0.531496	-0.054601
H143	H	0.885064	-0.198162	0.278733
H144	H	1.218397	0.135171	0.612066
H145	H	0.531829	-0.568820	0.090180
H146	H	0.865162	-0.235487	0.423514
H147	H	1.198495	0.097846	0.756847
H148	H	0.106288	-0.561777	0.000105
H149	H	0.439621	-0.228444	0.333438
H150	H	0.772954	0.104890	0.666772
H151	H	0.102068	-1.389177	0.481392
H152	H	0.435402	-1.055844	0.814725
H153	H	0.768735	-0.722510	1.148058
H154	H	0.040154	-0.736201	0.000025
H155	H	0.373487	-0.402868	0.333358
H156	H	0.706821	-0.069534	0.666692
H157	H	0.114185	-1.374081	0.696077
H158	H	0.447519	-1.040748	1.029410
H159	H	0.780852	-0.707415	1.362744
O160	O	0.048428	-0.942973	0.000057
O161	O	0.381761	-0.609640	0.333391
O162	O	0.715095	-0.276307	0.666724
C163	C	0.077303	-1.047409	0.000021
C164	C	0.410637	-0.714076	0.333355
C165	C	0.743970	-0.380742	0.666688
H166	H	0.152124	-1.049192	0.035621
H167	H	0.485457	-0.715859	0.368954
H168	H	0.818790	-0.382526	0.702287
H169	H	0.031669	-1.092460	0.054595
H170	H	0.365003	-0.759127	0.387929
H171	H	0.698336	-0.425793	0.721262
H172	H	0.071466	-1.085024	-0.090178
H173	H	0.404799	-0.751691	0.243155
H174	H	0.738132	-0.418358	0.576488
H175	H	0.148537	-1.331271	0.303897
H176	H	0.481870	-0.997937	0.637230
H177	H	0.815203	-0.664604	0.970563
O178	O	0.374926	-1.049026	0.528068
O179	O	0.708260	-0.715693	0.861401
O180	O	1.041593	-0.382360	1.194735
C181	C	0.323742	-0.980145	0.596515
C182	C	0.657076	-0.646812	0.929848
C183	C	0.990409	-0.313479	1.263181
H184	H	0.256211	-1.020053	0.614233
H185	H	0.589544	-0.686720	0.947566
H186	H	0.922878	-0.353387	1.280900
H187	H	0.365491	-0.957972	0.679737
H188	H	0.698825	-0.624638	1.013070
H189	H	1.032158	-0.291305	1.346403
H190	H	0.308137	-0.906713	0.550925
H191	H	0.641470	-0.573380	0.884258
H192	H	0.974804	-0.240046	1.217591
