data_functionalizedCrystal
_audit_creation_method	'MofGen! by Chris Wilmer'
_symmetry_space_group_name_H-M	'P1'
_symmetry_Int_Tables_number	1
_symmetry_cell_setting	triclinic
loop_
_symmetry_equiv_pos_as_xyz
  x,y,z
_cell_length_a	18.101398
_cell_length_b	18.050589
_cell_length_c	18.101389
_cell_angle_alpha	90.014016
_cell_angle_beta	90.024327
_cell_angle_gamma	90.023488
loop_
_atom_site_label
_atom_site_type_symbol
_atom_site_fract_x
_atom_site_fract_y
_atom_site_fract_z
Zn1	Zn	1.132136	-0.295831	0.418861
Zn2	Zn	1.132038	-0.420005	0.295029
Zn3	Zn	1.008295	-0.295823	0.295023
Zn4	Zn	1.008252	-0.419974	0.418818
O5	O	1.070180	-0.357908	0.356933
O6	O	1.235756	-0.312320	0.402456
O7	O	1.115600	-0.403542	0.191396
O8	O	1.024782	-0.191900	0.311465
O9	O	1.235684	-0.403550	0.311477
O10	O	1.115767	-0.191905	0.402449
O11	O	1.024687	-0.312306	0.191391
O12	O	0.904656	-0.312276	0.311423
O13	O	1.024708	-0.403496	0.522457
O14	O	0.904625	-0.403488	0.402375
O15	O	1.115725	-0.312289	0.522489
O16	O	1.115558	-0.523926	0.311435
O17	O	1.024613	-0.523902	0.402382
C18	C	0.877770	-0.357878	0.356894
C19	C	0.795455	-0.357883	0.356895
C20	C	0.496364	-0.357930	0.356957
C21	C	0.527685	-0.300254	0.300012
C22	C	0.613303	-0.300409	0.299769
C23	C	0.644747	-0.357906	0.356927
C24	C	0.613633	-0.436133	0.335608
C25	C	0.527988	-0.435813	0.335212
C26	C	0.527978	-0.338057	0.435355
C27	C	0.613629	-0.336315	0.434927
C28	C	0.728606	-0.357897	0.356910
C29	C	0.412505	-0.357943	0.356972
C30	C	1.070091	-0.550860	0.356921
C31	C	1.070120	-0.633406	0.356940
C32	C	1.020713	-0.832871	0.406380
C33	C	1.002661	-0.882299	0.338801
C34	C	1.070193	-0.784537	0.356950
C35	C	1.088281	-0.882191	0.424536
C36	C	1.070262	-0.930522	0.356965
C37	C	1.052106	-0.832877	0.289335
C38	C	1.137757	-0.832765	0.375116
C39	C	1.119731	-0.882170	0.307491
C40	C	1.070151	-0.700438	0.356942
C41	C	1.070304	-1.014618	0.356965
C42	C	1.263342	-0.357939	0.356972
C43	C	1.345656	-0.357952	0.356989
C44	C	1.070223	-0.357890	0.550095
C45	C	1.070241	-0.357882	0.632409
C46	C	1.070290	-0.164203	0.356961
C47	C	1.070337	-0.081657	0.356974
C48	C	1.070180	-0.357873	0.164522
C49	C	1.070305	-0.357672	0.082209
C50	C	1.070284	-0.357742	0.931500
C51	C	1.012822	-0.414945	0.900155
C52	C	1.012977	-0.415210	0.814536
C53	C	1.070262	-0.357811	0.783117
C54	C	1.148289	-0.379062	0.814225
C55	C	1.147969	-0.379437	0.899870
C56	C	1.050399	-0.279163	0.899918
C57	C	1.048663	-0.279616	0.814267
C58	C	1.070255	-0.357849	0.699258
C59	C	1.070297	-0.357706	1.015360
H60	H	0.506136	-0.313242	0.242258
H61	H	0.635036	-0.375263	0.479629
H62	H	0.635048	-0.453280	0.278915
C63	C	0.925518	-0.911697	0.318043
H64	H	0.928920	-0.940659	0.274347
H65	H	0.906952	-0.941398	0.357175
H66	H	0.893093	-0.871162	0.309790
H67	H	0.955117	-0.401912	0.793503
C68	C	1.171455	-0.455839	0.785274
H69	H	1.133688	-0.475047	0.754239
H70	H	1.216020	-0.451427	0.757930
H71	H	1.178935	-0.488419	0.825801
C72	C	1.170738	-0.457034	0.926880
H73	H	1.170748	-0.457946	0.979356
H74	H	1.136676	-0.492726	0.908747
H75	H	1.218851	-0.468297	0.909205
C76	C	1.031378	-0.803741	0.212110
H77	H	1.031453	-0.751112	0.212583
H78	H	1.066327	-0.821014	0.176973
H79	H	0.983552	-0.821115	0.199139
C80	C	0.499894	-0.221646	0.317854
H81	H	0.519421	-0.187671	0.282857
H82	H	0.447467	-0.220777	0.315679
H83	H	0.515658	-0.207989	0.366037
H84	H	1.161604	-0.903680	0.265648
H85	H	1.103553	-0.903852	0.481687
H86	H	1.192234	-0.339582	0.920607
H87	H	1.026106	-0.473456	0.794059
H88	H	1.087462	-0.234735	0.792880
C89	C	1.214895	-0.803374	0.395883
H90	H	1.227655	-0.820237	0.443935
H91	H	1.250173	-0.821006	0.361255
H92	H	1.214445	-0.750750	0.395285
H93	H	0.507724	-0.380066	0.477785
C94	C	0.934420	-0.397163	0.927954
H95	H	0.936026	-0.354698	0.958931
H96	H	0.903033	-0.387679	0.886966
H97	H	0.915836	-0.438143	0.955134
C98	C	1.106932	-0.221584	0.927303
H99	H	1.094630	-0.174215	0.908033
H100	H	1.106115	-0.219831	0.979746
H101	H	1.154932	-0.235184	0.911013
C102	C	1.207685	-0.324555	0.786732
H103	H	1.185371	-0.288269	0.755962
H104	H	1.230292	-0.300964	0.827856
H105	H	1.244029	-0.350807	0.759402
H106	H	1.025820	-0.472835	0.921685
H107	H	0.994491	-0.259803	0.921503
H108	H	0.978808	-0.811224	0.448122
C109	C	0.500947	-0.458583	0.257793
H110	H	0.448470	-0.458594	0.256870
H111	H	0.519062	-0.424395	0.222255
H112	H	0.518619	-0.506821	0.246495
H113	H	0.634341	-0.242399	0.313131
H114	H	0.991242	-0.263592	0.793934
H115	H	0.633757	-0.313545	0.241677
H116	H	0.633970	-0.278749	0.451002
C117	C	0.499993	-0.495767	0.388864
H118	H	0.540965	-0.520222	0.410793
H119	H	0.470883	-0.473305	0.426331
H120	H	0.470870	-0.530755	0.362578
H121	H	0.634000	-0.480257	0.375787
H122	H	0.506403	-0.282008	0.454739
