data_functionalizedCrystal
_audit_creation_method	'MofGen! by Chris Wilmer'
_symmetry_space_group_name_H-M	'P1'
_symmetry_Int_Tables_number	1
_symmetry_cell_setting	triclinic
loop_
_symmetry_equiv_pos_as_xyz
  x,y,z
_cell_length_a	13.032721
_cell_length_b	12.827893
_cell_length_c	12.827885
_cell_angle_alpha	90.020999
_cell_angle_beta	97.149035
_cell_angle_gamma	82.797451
loop_
_atom_site_label
_atom_site_type_symbol
_atom_site_fract_x
_atom_site_fract_y
_atom_site_fract_z
Zn1	Zn	-0.416040	-1.544791	-0.643697
Zn2	Zn	-0.590818	-1.522472	-0.491139
Zn3	Zn	-0.416085	-1.370027	-0.468971
Zn4	Zn	-0.590734	-1.347815	-0.665823
O5	O	-0.503419	-1.446276	-0.567407
O6	O	-0.439241	-1.688065	-0.623477
O7	O	-0.567693	-1.502204	-0.341969
O8	O	-0.269842	-1.411847	-0.473612
O9	O	-0.567649	-1.671666	-0.511393
O10	O	-0.269809	-1.540246	-0.601982
O11	O	-0.439317	-1.390204	-0.325682
O12	O	-0.439236	-1.220847	-0.495066
O13	O	-0.567507	-1.373989	-0.809117
O14	O	-0.567550	-1.204527	-0.639692
O15	O	-0.439159	-1.518707	-0.792861
O16	O	-0.737044	-1.480666	-0.532848
O17	O	-0.736982	-1.352346	-0.661187
C18	C	-0.503390	-1.174770	-0.567375
C19	C	-0.503402	-1.058615	-0.567390
C20	C	-0.774930	-1.411702	-0.601847
C21	C	-0.891084	-1.397007	-0.616615
C22	C	-0.566844	-0.998729	-0.511828
C23	C	-0.566858	-0.878677	-0.511842
C24	C	-0.942865	-1.454001	-0.559747
C25	C	-1.062916	-1.438814	-0.575009
C26	C	-0.230848	-1.481014	-0.532856
C27	C	-0.114694	-1.495817	-0.518133
C28	C	-0.503319	-1.446360	-0.839965
C29	C	-0.503276	-1.446396	-0.956113
C30	C	-0.503441	-0.718844	-0.567430
C31	C	-0.503428	-0.834998	-0.567416
C32	C	-0.439753	-1.518015	-0.999852
C33	C	-0.439708	-1.518054	-1.119897
C34	C	-0.503444	-1.446262	-0.295900
C35	C	-0.503192	-1.446467	-0.179716
H36	H	-0.621170	-0.827207	-0.464271
O37	O	-0.568183	-1.373268	-1.134996
C38	C	-0.627184	-1.306701	-1.213930
H39	H	-0.630840	-1.348984	-1.292232
H40	H	-0.588920	-1.232199	-1.220635
C41	C	-0.733896	-1.225574	-1.089152
C42	C	-0.738393	-1.277511	-1.185323
H43	H	-0.802494	-1.207563	-1.071505
H44	H	-0.694144	-1.270418	-1.035972
H45	H	-0.702005	-1.163495	-1.094752
H46	H	-0.770272	-1.339594	-1.179718
H47	H	-0.778153	-1.232675	-1.238502
H48	H	-0.621151	-1.036336	-0.464254
H49	H	-1.107457	-1.378776	-0.635003
H50	H	-0.449106	-0.886462	-0.614981
H51	H	-0.449102	-1.021008	-0.614972
O52	O	-0.889684	-1.525484	-0.488064
C53	C	-0.826625	-1.473945	-0.412575
H54	H	-0.859658	-1.387495	-0.410214
H55	H	-0.743926	-1.480713	-0.434447
C56	C	-0.784266	-1.631460	-0.306660
C57	C	-0.824842	-1.525283	-0.303753
H58	H	-0.783161	-1.663130	-0.239534
H59	H	-0.826746	-1.666186	-0.357519
H60	H	-0.715353	-1.637087	-0.324891
H61	H	-0.893757	-1.519659	-0.285536
H62	H	-0.782373	-1.490558	-0.252888
H63	H	-1.070153	-1.555864	-0.458146
O64	O	-0.944331	-1.325510	-0.688247
C65	C	-1.007346	-1.377057	-0.763770
H66	H	-1.023551	-1.454237	-0.729032
H67	H	-0.965276	-1.393779	-0.835912
C68	C	-1.091215	-1.211725	-0.838405
C69	C	-1.111126	-1.306514	-0.795736
H70	H	-1.155229	-1.168210	-0.858128
H71	H	-1.048758	-1.176996	-0.787527
H72	H	-1.056154	-1.225674	-0.898518
H73	H	-1.146173	-1.292565	-0.735617
H74	H	-1.153591	-1.341239	-0.846605
H75	H	-0.385399	-1.579300	-0.948426
H76	H	-0.385327	-1.579373	-1.157543
H77	H	-0.557620	-1.385102	-1.007537
