data_functionalizedCrystal
_audit_creation_method	'MofGen! by Chris Wilmer'
_symmetry_space_group_name_H-M	'P1'
_symmetry_Int_Tables_number	1
_symmetry_cell_setting	triclinic
loop_
_symmetry_equiv_pos_as_xyz
  x,y,z
_cell_length_a	16.974800
_cell_length_b	11.026607
_cell_length_c	16.053802
_cell_angle_alpha	93.134017
_cell_angle_beta	91.074188
_cell_angle_gamma	95.962169
loop_
_atom_site_label
_atom_site_type_symbol
_atom_site_fract_x
_atom_site_fract_y
_atom_site_fract_z
O1	O	1.071034	0.154760	0.002968
O2	O	0.844209	0.173345	-0.012366
O3	O	0.938822	-0.012661	-0.005967
O4	O	0.976421	0.340766	-0.003431
O5	O	0.933609	-0.002465	0.132540
O6	O	0.838995	0.183541	0.126141
O7	O	1.065820	0.164956	0.141474
Zn8	Zn	0.951580	0.175867	0.155798
Zn9	Zn	0.958449	0.162434	-0.026690
O10	O	0.971207	0.350962	0.135075
C11	C	0.812112	0.177550	0.054894
C12	C	0.724240	0.174872	0.048954
C13	C	0.680120	0.179170	0.121665
C14	C	0.597553	0.176635	0.116086
C15	C	0.559109	0.169812	0.037795
C16	C	0.603235	0.165511	-0.034922
C17	C	0.685799	0.168037	-0.029342
C18	C	0.312481	0.161653	0.013011
C19	C	0.229910	0.159131	0.007436
C20	C	0.224234	0.170253	0.158444
C21	C	0.306801	0.172786	0.164017
C22	C	0.350919	0.168478	0.091301
N23	N	0.474712	0.167225	0.032090
N24	N	0.435313	0.171057	0.097006
C25	C	0.929279	-0.052796	0.062817
C26	C	0.908603	-0.187577	0.061416
C27	C	0.965695	-0.261199	0.065274
C28	C	0.944326	-0.400502	0.063826
C29	C	1.097917	0.160752	0.074213
C30	C	1.185790	0.163428	0.080147
C31	C	0.980750	0.391097	0.066290
C32	C	1.001427	0.525878	0.067685
N33	N	0.946898	0.185035	0.280342
N34	N	0.963137	0.153257	-0.151233
C35	C	0.987178	0.105917	0.326760
C36	C	0.983912	0.112342	0.413946
C37	C	0.940369	0.197890	0.454712
C38	C	0.900083	0.277011	0.408288
C39	C	0.903345	0.270580	0.321103
C40	C	0.926113	0.225947	0.715158
C41	C	0.922856	0.232374	0.802349
C42	C	1.006684	0.067703	0.808001
C43	C	1.009947	0.061284	0.720815
C44	C	0.969657	0.140401	0.674398
N45	N	0.937031	0.204461	0.543830
N46	N	0.972991	0.133823	0.585281
H47	H	0.561632	0.180114	0.175295
H48	H	0.571926	0.159946	-0.098668
H49	H	0.338096	0.178337	0.227770
H50	H	0.887396	0.302043	0.835536
H51	H	0.721722	0.164540	-0.088551
H52	H	0.864624	0.346663	0.441484
H53	H	0.870543	0.335004	0.283310
C54	C	0.095147	0.171307	0.216945
C55	C	0.175736	0.174970	0.238370
H56	H	0.065208	0.174207	0.266292
H57	H	0.086807	0.239342	0.185289
H58	H	0.078770	0.097873	0.184734
H59	H	0.192114	0.248409	0.270576
H60	H	0.184080	0.106929	0.270040
C61	C	1.123690	-0.453931	0.147332
C62	C	1.088777	-0.420013	0.073592
H63	H	1.177616	-0.420531	0.150974
H64	H	1.096360	-0.423821	0.193899
H65	H	1.120781	-0.540448	0.147126
H66	H	1.091681	-0.333496	0.073801
H67	H	1.116115	-0.450117	0.027013
C68	C	1.087958	-0.241004	0.144914
C69	C	1.053042	-0.207087	0.071175
H70	H	1.141885	-0.207607	0.148552
H71	H	1.060633	-0.210891	0.191482
H72	H	1.085048	-0.327521	0.144709
H73	H	1.055947	-0.120570	0.071383
H74	H	1.080375	-0.237194	0.024596
H75	H	0.198612	0.153578	-0.056321
C76	C	0.852715	-0.582140	0.057631
C77	C	0.856977	-0.454616	0.057921
H78	H	0.798789	-0.615546	0.053991
H79	H	0.880041	-0.612231	0.011057
H80	H	0.876412	-0.605127	0.107659
H81	H	0.833285	-0.431629	0.007891
H82	H	0.829639	-0.424514	0.104499
H83	H	0.843903	-0.227677	0.057037
H84	H	1.022640	0.036260	0.293574
C85	C	0.973935	-0.045602	0.511564
C86	C	1.028196	0.025373	0.464963
H87	H	1.001277	-0.099301	0.543053
H88	H	0.947542	0.006257	0.548322
H89	H	0.936193	-0.091914	0.474917
H90	H	1.065935	0.071692	0.501610
H91	H	1.054601	-0.026493	0.428202
H92	H	1.045403	-0.008376	0.687625
C93	C	0.996684	-0.090226	0.905625
C94	C	1.050958	-0.019271	0.859025
H95	H	1.024017	-0.143929	0.937121
H96	H	0.970295	-0.038353	0.942377
H97	H	0.958941	-0.136533	0.868978
H98	H	1.088698	0.027043	0.895673
H99	H	1.077360	-0.071150	0.822270
H100	H	0.893310	0.290369	0.677372
C101	C	0.348659	0.257224	-0.113584
C102	C	0.360967	0.156927	-0.066920
H103	H	0.378599	0.254307	-0.162930
H104	H	0.293990	0.254739	-0.128101
H105	H	0.365055	0.330647	-0.081370
H106	H	0.344565	0.083503	-0.099132
H107	H	0.415648	0.159401	-0.052404
H108	H	0.711415	0.184736	0.185418
