data_functionalizedCrystal
_audit_creation_method	'MofGen! by Chris Wilmer'
_symmetry_space_group_name_H-M	'P1'
_symmetry_Int_Tables_number	1
_symmetry_cell_setting	triclinic
loop_
_symmetry_equiv_pos_as_xyz
  x,y,z
_cell_length_a	14.519709
_cell_length_b	14.519709
_cell_length_c	14.586319
_cell_angle_alpha	89.995260
_cell_angle_beta	90.002108
_cell_angle_gamma	83.680145
loop_
_atom_site_label
_atom_site_type_symbol
_atom_site_fract_x
_atom_site_fract_y
_atom_site_fract_z
O1	O	1.223866	0.120890	-0.076123
O2	O	1.473866	0.370890	0.173877
O3	O	1.723866	0.620890	0.423877
O4	O	1.973866	0.870890	0.673877
O5	O	0.955389	0.135127	-0.076151
O6	O	1.205389	0.385127	0.173849
O7	O	1.455389	0.635127	0.423849
O8	O	1.705389	0.885127	0.673849
O9	O	1.096746	-0.006230	-0.076128
O10	O	1.346746	0.243770	0.173872
O11	O	1.596746	0.493770	0.423872
O12	O	1.846746	0.743770	0.673872
O13	O	1.082510	0.262247	-0.076146
O14	O	1.332510	0.512247	0.173854
O15	O	1.582510	0.762247	0.423854
O16	O	1.832510	1.012247	0.673854
O17	O	1.096736	-0.006232	0.076353
O18	O	1.346736	0.243768	0.326353
O19	O	1.596736	0.493768	0.576353
O20	O	1.846736	0.743768	0.826353
O21	O	0.955380	0.135125	0.076330
O22	O	1.205380	0.385125	0.326330
O23	O	1.455380	0.635125	0.576330
O24	O	1.705380	0.885125	0.826330
O25	O	1.223856	0.120888	0.076358
O26	O	1.473856	0.370888	0.326358
O27	O	1.723856	0.620888	0.576358
O28	O	1.973856	0.870888	0.826358
Cu29	Cu	1.089617	0.128006	0.090266
Cu30	Cu	1.339617	0.378006	0.340266
Cu31	Cu	1.589617	0.628006	0.590266
Cu32	Cu	1.839617	0.878006	0.840266
Cu33	Cu	1.089629	0.128009	-0.090060
Cu34	Cu	1.339629	0.378009	0.159940
Cu35	Cu	1.589629	0.628009	0.409940
Cu36	Cu	1.839629	0.878009	0.659940
O37	O	1.082500	0.262245	0.076335
O38	O	1.332500	0.512245	0.326335
O39	O	1.582500	0.762245	0.576335
O40	O	1.832500	1.012245	0.826335
C41	C	0.921025	0.134462	0.000086
C42	C	1.171025	0.384462	0.250086
C43	C	1.421025	0.634462	0.500086
C44	C	1.671025	0.884462	0.750086
C45	C	0.818643	0.132474	0.000075
C46	C	1.068643	0.382474	0.250075
C47	C	1.318643	0.632474	0.500075
C48	C	1.568643	0.882474	0.750075
C49	C	0.443748	0.125154	0.000117
C50	C	0.693748	0.375154	0.250117
C51	C	0.943748	0.625154	0.500117
C52	C	1.193748	0.875154	0.750117
C53	C	0.548056	0.127187	0.000105
C54	C	0.798056	0.377187	0.250105
C55	C	1.048056	0.627187	0.500105
C56	C	1.298056	0.877187	0.750105
C57	C	0.631192	0.128814	0.000095
C58	C	0.881192	0.378814	0.250095
C59	C	1.131192	0.628814	0.500095
C60	C	1.381192	0.878814	0.750095
C61	C	0.735507	0.130847	0.000085
C62	C	0.985507	0.380847	0.250085
C63	C	1.235507	0.630847	0.500085
C64	C	1.485507	0.880847	0.750085
C65	C	1.096078	-0.040591	0.000112
C66	C	1.346078	0.209409	0.250112
C67	C	1.596078	0.459409	0.500112
C68	C	1.846078	0.709409	0.750112
C69	C	1.094090	-0.142972	0.000113
C70	C	1.344090	0.107028	0.250113
C71	C	1.594090	0.357028	0.500113
C72	C	1.844090	0.607028	0.750113
C73	C	1.086770	-0.517868	0.000088
C74	C	1.336770	-0.267868	0.250088
C75	C	1.586770	-0.017868	0.500088
C76	C	1.836770	0.232132	0.750088
C77	C	1.088803	-0.413560	0.000095
C78	C	1.338803	-0.163560	0.250095
C79	C	1.588803	0.086440	0.500095
C80	C	1.838803	0.336440	0.750095
C81	C	1.090430	-0.330423	0.000101
C82	C	1.340430	-0.080423	0.250101
C83	C	1.590430	0.169577	0.500101
C84	C	1.840430	0.419577	0.750101
C85	C	1.092463	-0.226109	0.000107
C86	C	1.342463	0.023891	0.250107
C87	C	1.592463	0.273891	0.500107
C88	C	1.842463	0.523891	0.750107
C89	C	1.258221	0.121553	0.000119
C90	C	1.508221	0.371553	0.250119
C91	C	1.758221	0.621553	0.500119
C92	C	2.008221	0.871553	0.750119
C93	C	1.360602	0.123541	0.000123
C94	C	1.610602	0.373541	0.250123
C95	C	1.860602	0.623541	0.500123
C96	C	2.110602	0.873541	0.750123
C97	C	1.083168	0.296606	0.000092
C98	C	1.333168	0.546606	0.250092
C99	C	1.583168	0.796606	0.500092
C100	C	1.833168	1.046606	0.750092
C101	C	1.085156	0.398987	0.000086
C102	C	1.335156	0.648987	0.250086
C103	C	1.585156	0.898987	0.500086
C104	C	1.835156	1.148987	0.750086
N105	N	1.089616	0.128004	0.217098
N106	N	1.339616	0.378004	0.467098
N107	N	1.589616	0.628004	0.717098
N108	N	1.839616	0.878004	0.967098
N109	N	1.089637	0.128004	-0.216892
N110	N	1.339637	0.378004	0.033108
N111	N	1.589637	0.628004	0.283108
N112	N	1.839637	0.878004	0.533108
C113	C	1.152229	0.065432	0.452115
C114	C	1.402229	0.315432	0.702115
C115	C	1.652229	0.565432	0.952115
C116	C	1.902229	0.815432	1.202115
C117	C	1.152232	0.065430	0.548096
C118	C	1.402232	0.315430	0.798096
C119	C	1.652232	0.565430	1.048096
C120	C	1.902232	0.815430	1.298096
C121	C	1.027017	0.190578	0.548085
C122	C	1.277017	0.440578	0.798085
C123	C	1.527017	0.690578	1.048085
C124	C	1.777017	0.940578	1.298085
C125	C	1.027011	0.190575	0.452106
C126	C	1.277011	0.440575	0.702106
C127	C	1.527011	0.690575	0.952106
C128	C	1.777011	0.940575	1.202106
C129	C	1.089622	0.128003	0.404123
C130	C	1.339622	0.378003	0.654123
C131	C	1.589622	0.628003	0.904123
C132	C	1.839622	0.878003	1.154123
C133	C	1.089631	0.128004	0.596084
C134	C	1.339631	0.378004	0.846084
C135	C	1.589631	0.628004	1.096084
C136	C	1.839631	0.878004	1.346084
C137	C	1.089634	0.128002	0.700151
C138	C	1.339634	0.378002	0.950151
C139	C	1.589634	0.628002	1.200151
C140	C	1.839634	0.878002	1.450151
C141	C	1.089619	0.128004	0.300049
C142	C	1.339619	0.378004	0.550049
C143	C	1.589619	0.628004	0.800049
C144	C	1.839619	0.878004	1.050049
H145	H	1.203211	0.014478	0.587168
H146	H	1.453211	0.264478	0.837168
H147	H	1.703211	0.514478	1.087168
H148	H	1.953211	0.764478	1.337168
O149	O	1.212896	0.004571	0.405423
O150	O	1.462896	0.254571	0.655423
O151	O	1.712896	0.504571	0.905423
O152	O	1.962896	0.754571	1.155423
C153	C	1.163377	-0.052445	0.349960
C154	C	1.413377	0.197555	0.599960
C155	C	1.663377	0.447555	0.849960
C156	C	1.913377	0.697555	1.099960
H157	H	1.091294	-0.015837	0.335557
H158	H	1.341294	0.234163	0.585557
H159	H	1.591294	0.484163	0.835557
H160	H	1.841294	0.734163	1.085557
H161	H	1.201839	-0.067013	0.282476
H162	H	1.451839	0.182987	0.532476
H163	H	1.701839	0.432987	0.782476
H164	H	1.951839	0.682987	1.032476
H165	H	1.156955	-0.120588	0.386995
H166	H	1.406955	0.129412	0.636995
H167	H	1.656955	0.379412	0.886995
H168	H	1.906955	0.629412	1.136995
O169	O	0.966295	0.251329	0.594839
O170	O	1.216295	0.501329	0.844839
O171	O	1.466295	0.751329	1.094839
O172	O	1.716295	1.001329	1.344839
C173	C	0.979710	0.237902	0.689845
C174	C	1.229710	0.487902	0.939845
C175	C	1.479710	0.737902	1.189845
C176	C	1.729710	0.987902	1.439845
H177	H	1.052972	0.203594	0.702955
H178	H	1.302972	0.453594	0.952955
H179	H	1.552972	0.703594	1.202955
H180	H	1.802972	0.953594	1.452955
H181	H	0.969569	0.307724	0.726313
H182	H	1.219569	0.557724	0.976313
H183	H	1.469569	0.807724	1.226313
H184	H	1.719569	1.057724	1.476313
H185	H	0.927439	0.191535	0.717092
H186	H	1.177439	0.441535	0.967092
H187	H	1.427439	0.691535	1.217092
H188	H	1.677439	0.941535	1.467092
H189	H	0.976024	0.241529	0.413028
H190	H	1.226024	0.491529	0.663028
H191	H	1.476024	0.741529	0.913028
H192	H	1.726024	0.991529	1.163028
