data_functionalizedCrystal
_audit_creation_method	'MofGen! by Chris Wilmer'
_symmetry_space_group_name_H-M	'P1'
_symmetry_Int_Tables_number	1
_symmetry_cell_setting	triclinic
loop_
_symmetry_equiv_pos_as_xyz
  x,y,z
_cell_length_a	16.120484
_cell_length_b	12.759401
_cell_length_c	12.759393
_cell_angle_alpha	90.020011
_cell_angle_beta	92.862882
_cell_angle_gamma	87.078441
loop_
_atom_site_label
_atom_site_type_symbol
_atom_site_fract_x
_atom_site_fract_y
_atom_site_fract_z
Zn1	Zn	-0.331943	-1.584966	-0.615193
Zn2	Zn	-0.471380	-1.575918	-0.448406
Zn3	Zn	-0.331976	-1.409266	-0.439530
Zn4	Zn	-0.471306	-1.400319	-0.624038
O5	O	-0.401651	-1.492617	-0.531792
O6	O	-0.350456	-1.730786	-0.593082
O7	O	-0.452933	-1.553768	-0.300210
O8	O	-0.215307	-1.440104	-0.455416
O9	O	-0.452900	-1.724138	-0.470544
O10	O	-0.215282	-1.569190	-0.584475
O11	O	-0.350514	-1.431330	-0.293689
O12	O	-0.350442	-1.261059	-0.463993
O13	O	-0.452774	-1.424855	-0.769883
O14	O	-0.452806	-1.254485	-0.599550
O15	O	-0.350384	-1.560515	-0.763385
O16	O	-0.588035	-1.545093	-0.479120
O17	O	-0.587980	-1.416081	-0.608156
C18	C	-0.401620	-1.219652	-0.531768
C19	C	-0.401627	-1.102875	-0.531785
C20	C	-0.348383	-1.051461	-0.595699
C21	C	-0.348395	-0.941736	-0.595704
C22	C	-0.454901	-0.934848	-0.467877
C23	C	-0.454885	-1.044571	-0.467867
C24	C	-0.295125	-1.109764	-0.659616
C25	C	-0.241877	-1.058351	-0.723537
C26	C	-0.241889	-0.948626	-0.723542
C27	C	-0.295148	-0.890315	-0.659625
C28	C	-0.618257	-1.478662	-0.545584
C29	C	-0.710922	-1.472789	-0.551519
C30	C	-0.880583	-1.462071	-0.562377
C31	C	-0.921879	-1.523351	-0.501223
C32	C	-1.016284	-1.517388	-0.507265
C33	C	-0.786169	-1.468033	-0.556337
C34	C	-0.184199	-1.506655	-0.517969
C35	C	-0.091534	-1.512637	-0.512078
C36	C	-0.401567	-1.492696	-0.805820
C37	C	-0.401531	-1.492730	-0.922594
C38	C	-0.401672	-0.766649	-0.531809
C39	C	-0.401655	-0.883427	-0.531799
C40	C	-0.348212	-1.563377	-0.974074
C41	C	-0.348182	-1.563404	-1.083796
C42	C	-0.454797	-1.422132	-1.090550
C43	C	-0.454823	-1.422101	-0.980829
C44	C	-0.294920	-1.634005	-0.915839
C45	C	-0.241597	-1.704660	-0.967319
C46	C	-0.241567	-1.704687	-1.077041
C47	C	-0.294860	-1.634059	-1.135284
C48	C	-0.401675	-1.492603	-0.258826
C49	C	-0.401476	-1.492788	-0.142037
H50	H	-0.198526	-0.906769	-0.775581
C51	C	-1.014149	-1.394092	-0.630351
C52	C	-0.928561	-1.385194	-0.639168
H53	H	-1.043774	-1.346624	-0.677751
H54	H	-1.028307	-1.463787	-0.646690
H55	H	-1.028412	-1.377881	-0.560634
H56	H	-0.914297	-1.401413	-0.708883
H57	H	-0.914397	-1.315483	-0.622836
H58	H	-0.498264	-0.887362	-0.415841
H59	H	-0.498185	-1.364631	-1.137979
H60	H	-0.295135	-0.800971	-0.659611
H61	H	-0.294941	-1.633994	-0.826498
C62	C	-0.136204	-1.844296	-0.971665
C63	C	-0.183015	-1.782286	-0.903304
H64	H	-0.100034	-1.892214	-0.932144
H65	H	-0.172521	-1.882147	-1.016768
H66	H	-0.104300	-1.800579	-1.012431
H67	H	-0.214925	-1.826002	-0.862543
H68	H	-0.146694	-1.744432	-0.858183
H69	H	-0.198143	-1.762209	-1.118952
C70	C	-0.894780	-1.702962	-0.448485
C71	C	-0.873898	-1.600217	-0.424413
H72	H	-0.865151	-1.750410	-0.401068
H73	H	-0.952839	-1.708985	-0.442515
H74	H	-0.880497	-1.719177	-0.518193
H75	H	-0.888187	-1.583999	-0.354706
H76	H	-0.815826	-1.594191	-0.430373
C77	C	-0.237119	-1.270695	-0.729204
C78	C	-0.295108	-1.230375	-0.659609
H79	H	-0.237108	-1.345155	-0.729193
H80	H	-0.251610	-1.244974	-0.797885
H81	H	-0.183307	-1.249315	-0.707720
H82	H	-0.348922	-1.251749	-0.681098
H83	H	-0.280622	-1.256107	-0.590914
H84	H	-0.498241	-1.086433	-0.415823
H85	H	-0.198511	-1.105835	-0.775568
H86	H	-0.294822	-1.634075	-1.224626
C87	C	-0.560241	-1.282506	-0.998519
C88	C	-0.513454	-1.344472	-0.924236
H89	H	-0.596445	-1.234590	-0.963579
H90	H	-0.523911	-1.244653	-1.038992
H91	H	-0.592109	-1.326252	-1.043356
H92	H	-0.481582	-1.300726	-0.879404
H93	H	-0.549789	-1.382327	-0.883746
