data_functionalizedCrystal
_audit_creation_method	'MofGen! by Chris Wilmer'
_symmetry_space_group_name_H-M	'P1'
_symmetry_Int_Tables_number	1
_symmetry_cell_setting	triclinic
loop_
_symmetry_equiv_pos_as_xyz
  x,y,z
_cell_length_a	13.033293
_cell_length_b	14.909383
_cell_length_c	13.032268
_cell_angle_alpha	100.828334
_cell_angle_beta	89.079182
_cell_angle_gamma	94.324214
loop_
_atom_site_label
_atom_site_type_symbol
_atom_site_fract_x
_atom_site_fract_y
_atom_site_fract_z
Zn1	Zn	1.514582	-0.281167	-0.802348
Zn2	Zn	1.847915	0.052166	-0.469015
Zn3	Zn	2.181248	0.385500	-0.135682
Zn4	Zn	1.543770	-0.411040	-0.640013
Zn5	Zn	1.877104	-0.077707	-0.306680
Zn6	Zn	2.210437	0.255626	0.026653
Zn7	Zn	1.364168	-0.276395	-0.608170
Zn8	Zn	1.697502	0.056939	-0.274837
Zn9	Zn	2.030835	0.390272	0.058497
Zn10	Zn	1.352181	-0.448714	-0.792849
Zn11	Zn	1.685514	-0.115381	-0.459516
Zn12	Zn	2.018848	0.217952	-0.126183
O13	O	1.443675	-0.354329	-0.710845
O14	O	1.777009	-0.020996	-0.377512
O15	O	2.110342	0.312338	-0.044179
O16	O	1.661583	-0.284626	-0.798116
O17	O	1.994916	0.048708	-0.464783
O18	O	2.328250	0.382041	-0.131450
O19	O	1.537178	-0.375415	-0.490563
O20	O	1.870511	-0.042082	-0.157229
O21	O	2.203845	0.291251	0.176104
O22	O	1.376922	-0.150559	-0.624577
O23	O	1.710256	0.182774	-0.291243
O24	O	2.043589	0.516108	0.042090
O25	O	1.683028	-0.380043	-0.678850
O26	O	2.016361	-0.046709	-0.345516
O27	O	2.349694	0.286624	-0.012183
O28	O	1.487430	-0.154065	-0.767239
O29	O	1.820764	0.179268	-0.433906
O30	O	2.154097	0.512601	-0.100572
O31	O	1.405225	-0.276492	-0.467167
O32	O	1.738559	0.056842	-0.133834
O33	O	2.071892	0.390175	0.199499
O34	O	1.219449	-0.313023	-0.615366
O35	O	1.552782	0.020311	-0.282033
O36	O	1.886116	0.353644	0.051301
O37	O	1.356491	-0.444253	-0.939336
O38	O	1.689825	-0.110919	-0.606003
O39	O	2.023158	0.222414	-0.272670
O40	O	1.210642	-0.439625	-0.751049
O41	O	1.543975	-0.106292	-0.417716
O42	O	1.877308	0.227042	-0.084383
O43	O	1.475807	-0.321157	-0.946315
O44	O	1.809140	0.012177	-0.612982
O45	O	2.142473	0.345510	-0.279648
O46	O	1.525554	-0.542506	-0.669639
O47	O	1.858888	-0.209173	-0.336305
O48	O	2.192221	0.124160	-0.002972
O49	O	1.384794	-0.570185	-0.781927
O50	O	1.718128	-0.236852	-0.448593
O51	O	2.051461	0.096481	-0.115260
C52	C	1.177933	-0.379895	-0.678722
C53	C	1.511267	-0.046562	-0.345389
C54	C	1.844600	0.286772	-0.012055
C55	C	1.064246	-0.390857	-0.665006
C56	C	1.397580	-0.057524	-0.331672
C57	C	1.730913	0.275810	0.001661
C58	C	1.002944	-0.348631	-0.718005
C59	C	1.336277	-0.015297	-0.384672
C60	C	1.669610	0.318036	-0.051339
C61	C	0.885442	-0.359959	-0.703830
C62	C	1.218775	-0.026626	-0.370497
C63	C	1.552108	0.306707	-0.037164
C64	C	1.457066	-0.589138	-0.728233
C65	C	1.790399	-0.255805	-0.394900
C66	C	2.123733	0.077529	-0.061567
C67	C	1.462884	-0.689585	-0.735718
C68	C	1.796217	-0.356252	-0.402385
C69	C	2.129551	-0.022919	-0.069051
C70	C	1.358879	-0.874813	-0.601121
C71	C	1.692212	-0.541479	-0.267788
C72	C	2.025545	-0.208146	0.065545
C73	C	1.364342	-0.969192	-0.608150
C74	C	1.697676	-0.635859	-0.274817
C75	C	2.031009	-0.302525	0.058516
C76	C	1.479280	-0.972724	-0.756800
C77	C	1.812613	-0.639391	-0.423466
C78	C	2.145947	-0.306057	-0.090133
C79	C	1.473816	-0.878345	-0.749771
C80	C	1.807150	-0.545011	-0.416437
C81	C	2.140483	-0.211678	-0.083104
C82	C	1.413612	-0.829393	-0.671930
C83	C	1.746946	-0.496059	-0.338597
C84	C	2.080279	-0.162726	-0.005263
C85	C	1.408144	-0.735013	-0.664906
C86	C	1.741477	-0.401679	-0.331573
C87	C	2.074810	-0.068346	0.001760
C88	C	1.523087	-0.738545	-0.813550
C89	C	1.856420	-0.405212	-0.480217
C90	C	2.189753	-0.071878	-0.146884
C91	C	1.528550	-0.832924	-0.820579
C92	C	1.861884	-0.499591	-0.487246
C93	C	2.195217	-0.166258	-0.153912
C94	C	1.710455	-0.328664	-0.743095
C95	C	2.043788	0.004669	-0.409761
C96	C	2.377121	0.338003	-0.076428
C97	C	1.824140	-0.317727	-0.756837
C98	C	2.157474	0.015606	-0.423504
C99	C	2.490807	0.348939	-0.090171
C100	C	1.411556	-0.387439	-0.981534
C101	C	1.744889	-0.054106	-0.648201
C102	C	2.078223	0.279227	-0.314868
C103	C	1.397869	-0.401549	-1.096886
C104	C	1.731202	-0.068216	-0.763552
C105	C	2.064535	0.265117	-0.430219
C106	C	1.430258	-0.118603	-0.693415
C107	C	1.763591	0.214730	-0.360082
C108	C	2.096924	0.548063	-0.026749
C109	C	1.424540	-0.018151	-0.685988
C110	C	1.757873	0.315182	-0.352654
C111	C	2.091206	0.648516	-0.019321
C112	C	1.450801	-0.346934	-1.151766
C113	C	1.784134	-0.013601	-0.818433
C114	C	2.117468	0.319733	-0.485099
C115	C	1.436656	-0.361516	-1.270988
C116	C	1.769989	-0.028183	-0.937655
C117	C	2.103323	0.305151	-0.604321
C118	C	1.475725	-0.321277	-0.441212
C119	C	1.809058	0.012057	-0.107878
C120	C	2.142392	0.345390	0.225455
C121	C	1.489596	-0.306893	-0.325866
C122	C	1.822929	0.026440	0.007467
C123	C	2.156262	0.359773	0.340801
H124	H	1.037450	-0.304089	-0.773871
H125	H	1.370784	0.029245	-0.440537
H126	H	1.704117	0.362578	-0.107204
H127	H	0.850940	-0.404499	-0.647955
H128	H	1.184273	-0.071165	-0.314622
H129	H	1.517607	0.262168	0.018712
H130	H	0.858641	-0.273180	-0.812705
H131	H	1.191974	0.060153	-0.479372
H132	H	1.525308	0.393486	-0.146039
H133	H	1.029740	-0.435393	-0.609134
H134	H	1.363073	-0.102060	-0.275801
H135	H	1.696406	0.231274	0.057532
C136	C	1.341918	-0.681167	-0.579281
C137	C	1.675251	-0.347834	-0.245948
C138	C	2.008585	-0.014500	0.087386
N139	N	1.292037	-0.640612	-0.514784
N140	N	1.625371	-0.307279	-0.181450
N141	N	1.958704	0.026054	0.151883
H142	H	1.528304	-1.012595	-0.820167
H143	H	1.861637	-0.679262	-0.486833
H144	H	2.194970	-0.345928	-0.153500
H145	H	1.309850	-0.834957	-0.537747
H146	H	1.643184	-0.501624	-0.204413
H147	H	1.976517	-0.168290	0.128920
H148	H	1.319773	-1.006169	-0.550490
H149	H	1.653106	-0.672836	-0.217157
H150	H	1.986440	-0.339503	0.116177
H151	H	1.577570	-0.872793	-0.883952
H152	H	1.910903	-0.539460	-0.550619
H153	H	2.244236	-0.206127	-0.217285
C154	C	1.583298	-0.688575	-0.891445
C155	C	1.916631	-0.355242	-0.558112
C156	C	2.249964	-0.021909	-0.224778
N157	N	1.628645	-0.650938	-0.950115
N158	N	1.961979	-0.317604	-0.616782
N159	N	2.295312	0.015729	-0.283449
H160	H	1.506587	-0.289378	-1.110487
H161	H	1.839920	0.043955	-0.777154
H162	H	2.173253	0.377288	-0.443820
C163	C	1.361277	-0.439271	-1.326743
C164	C	1.694610	-0.105938	-0.993410
C165	C	2.027943	0.227396	-0.660076
N166	N	1.304502	-0.497835	-1.368739
N167	N	1.637835	-0.164501	-1.035406
N168	N	1.971169	0.168832	-0.702073
C169	C	1.564973	-0.229136	-1.270113
C170	C	1.898306	0.104198	-0.936779
C171	C	2.231639	0.437531	-0.603446
N172	N	1.621748	-0.170571	-1.228119
N173	N	1.955081	0.162763	-0.894785
N174	N	2.288414	0.496096	-0.561452
C175	C	1.322493	-0.479300	-1.152645
C176	C	1.655827	-0.145967	-0.819312
C177	C	1.989160	0.187367	-0.485978
N178	N	1.265719	-0.537864	-1.194641
N179	N	1.599052	-0.204531	-0.861308
N180	N	1.932385	0.128803	-0.527975
