data_functionalizedCrystal
_audit_creation_method	'MofGen! by Chris Wilmer'
_symmetry_space_group_name_H-M	'P1'
_symmetry_Int_Tables_number	1
_symmetry_cell_setting	triclinic
loop_
_symmetry_equiv_pos_as_xyz
  x,y,z
_cell_length_a	14.908571
_cell_length_b	18.050589
_cell_length_c	14.908308
_cell_angle_alpha	86.730698
_cell_angle_beta	89.824947
_cell_angle_gamma	86.724558
loop_
_atom_site_label
_atom_site_type_symbol
_atom_site_fract_x
_atom_site_fract_y
_atom_site_fract_z
Zn1	Zn	1.345230	-0.387558	0.587600
Zn2	Zn	1.845230	0.112442	1.087600
Zn3	Zn	1.353791	-0.505024	0.437245
Zn4	Zn	1.853791	-0.005024	0.937245
Zn5	Zn	1.203548	-0.373294	0.428597
Zn6	Zn	1.703548	0.126706	0.928597
Zn7	Zn	1.194819	-0.504142	0.578897
Zn8	Zn	1.694819	-0.004142	1.078897
O9	O	1.274347	-0.442504	0.508085
O10	O	1.774347	0.057496	1.008085
O11	O	1.472191	-0.409479	0.574916
O12	O	1.972191	0.090521	1.074916
O13	O	1.341097	-0.481949	0.310273
O14	O	1.841097	0.018051	0.810273
O15	O	1.222413	-0.271266	0.449712
O16	O	1.722413	0.228734	0.949712
O17	O	1.478480	-0.495781	0.464452
O18	O	1.978480	0.004219	0.964452
O19	O	1.326506	-0.281746	0.566530
O20	O	1.826506	0.218254	1.066530
O21	O	1.230714	-0.385168	0.303919
O22	O	1.730714	0.114832	0.803919
O23	O	1.076565	-0.384312	0.441273
O24	O	1.576565	0.115688	0.941273
O25	O	1.207536	-0.494277	0.705876
O26	O	1.707536	0.005723	1.205876
O27	O	1.070152	-0.480446	0.551698
O28	O	1.570152	0.019554	1.051698
O29	O	1.318042	-0.408624	0.712270
O30	O	1.818042	0.091376	1.212270
O31	O	1.332633	-0.608827	0.456013
O32	O	1.832633	-0.108827	0.956013
O33	O	1.215836	-0.608179	0.560084
O34	O	1.715836	-0.108179	1.060084
C35	C	1.040734	-0.430736	0.494603
C36	C	1.540734	0.069264	0.994603
C37	C	0.940791	-0.425720	0.488857
C38	C	1.440791	0.074280	0.988857
C39	C	1.274239	-0.635451	0.508063
C40	C	1.774239	-0.135451	1.008063
C41	C	1.274274	-0.717999	0.508089
C42	C	1.774274	-0.217999	1.008089
C43	C	0.746369	-0.516539	0.592890
C44	C	1.246369	-0.016539	1.092890
C45	C	0.652464	-0.511829	0.587494
C46	C	1.152464	-0.011829	1.087494
C47	C	0.659075	-0.411586	0.472674
C48	C	1.159075	0.088414	0.972674
C49	C	0.752980	-0.416296	0.478070
C50	C	1.252980	0.083704	0.978070
C51	C	0.796623	-0.468775	0.538179
C52	C	1.296623	0.031225	1.038179
C53	C	0.890530	-0.473489	0.543570
C54	C	1.390530	0.026511	1.043570
C55	C	0.897139	-0.373243	0.428755
C56	C	1.397139	0.126757	0.928755
C57	C	0.803235	-0.368533	0.423359
C58	C	1.303235	0.131467	0.923359
C59	C	1.210820	-0.917126	0.564665
C60	C	1.710820	-0.417126	1.064665
C61	C	1.193639	-0.961795	0.481356
C62	C	1.693639	-0.461795	0.981356
C63	C	1.274362	-0.869134	0.508106
C64	C	1.774362	-0.369134	1.008106
C65	C	1.291586	-0.971550	0.591427
C66	C	1.791586	-0.471550	1.091427
C67	C	1.274444	-1.015125	0.508129
C68	C	1.774444	-0.515125	1.008129
C69	C	1.257140	-0.912712	0.424750
C70	C	1.757140	-0.412712	0.924750
C71	C	1.355122	-0.922467	0.534880
C72	C	1.855122	-0.422467	1.034880
C73	C	1.337975	-0.967112	0.451515
C74	C	1.837975	-0.467112	0.951515
C75	C	1.274312	-0.785033	0.508094
C76	C	1.774312	-0.285033	1.008094
C77	C	1.274495	-1.099224	0.508132
C78	C	1.774495	-0.599224	1.008132
C79	C	1.508873	-0.454320	0.521619
C80	C	2.008873	0.045680	1.021619
C81	C	1.608814	-0.459355	0.527387
C82	C	2.108814	0.040645	1.027387
C83	C	1.260860	-0.452943	0.742610
C84	C	1.760860	0.047057	1.242610
C85	C	1.255113	-0.457391	0.842551
C86	C	1.755113	0.042609	1.342551
C87	C	1.274479	-0.248807	0.508127
C88	C	1.774479	0.251193	1.008127
C89	C	1.274535	-0.166265	0.508145
C90	C	1.774535	0.333735	1.008145
C91	C	1.287833	-0.432055	0.274474
C92	C	1.787833	0.067945	0.774474
C93	C	1.293755	-0.427407	0.174544
C94	C	1.793755	0.072593	0.674544
C95	C	1.359381	-0.376542	1.037010
C96	C	1.859381	0.123458	1.537010
C97	C	1.353984	-0.380719	1.130914
C98	C	1.853984	0.119281	1.630914
C99	C	1.238917	-0.469919	1.124263
C100	C	1.738917	0.030081	1.624263
C101	C	1.244314	-0.465741	1.030360
C102	C	1.744314	0.034259	1.530360
C103	C	1.304549	-0.419052	0.986737
C104	C	1.804549	0.080948	1.486737
C105	C	1.309951	-0.414880	0.892832
C106	C	1.809951	0.085120	1.392832
C107	C	1.194880	-0.504075	0.886183
C108	C	1.694880	-0.004075	1.386183
C109	C	1.189483	-0.508252	0.980086
C110	C	1.689483	-0.008252	1.480086
H111	H	0.926063	-0.516221	0.592512
H112	H	1.426063	-0.016221	1.092512
H113	H	1.408431	-0.338530	1.001492
H114	H	1.908431	0.161470	1.501492
H115	H	1.125381	-0.979255	0.458730
H116	H	1.625381	-0.479255	0.958730
O117	O	1.436492	-0.901506	0.561855
O118	O	1.936492	-0.401506	1.061855
C119	C	1.435537	-0.823305	0.560686
C120	C	1.935537	-0.323305	1.060686
H121	H	1.381298	-0.798363	0.512410
H122	H	1.881298	-0.298363	1.012410
H123	H	1.503801	-0.804050	0.537604
H124	H	2.003801	-0.304050	1.037604
H125	H	1.420741	-0.804268	0.631097
H126	H	1.920741	-0.304268	1.131097
O127	O	1.402032	-0.993081	0.394273
O128	O	1.902032	-0.493081	0.894273
C129	C	1.383586	-0.962776	0.306568
C130	C	1.883586	-0.462776	0.806568
H131	H	1.309082	-0.945214	0.300491
H132	H	1.809082	-0.445214	0.800491
H133	H	1.401699	-1.006316	0.256060
H134	H	1.901699	-0.506316	0.756060
H135	H	1.425059	-0.912294	0.292233
H136	H	1.925059	-0.412294	0.792233
O137	O	1.141478	-0.545329	0.837434
O138	O	1.641478	-0.045329	1.337434
C139	C	1.050554	-0.525593	0.855193
C140	C	1.550554	-0.025593	1.355193
H141	H	1.044787	-0.499986	0.923272
H142	H	1.544787	0.000014	1.423272
H143	H	1.010015	-0.577300	0.856066
H144	H	1.510015	-0.077300	1.356066
H145	H	1.023335	-0.483535	0.800603
H146	H	1.523335	0.016465	1.300603
H147	H	1.242524	-0.887110	0.354272
H148	H	1.742524	-0.387110	0.854272
H149	H	0.781904	-0.559273	0.641828
H150	H	1.281904	-0.059273	1.141828
H151	H	1.306123	-0.997236	0.661882
H152	H	1.806123	-0.497236	1.161882
H153	H	0.611550	-0.550721	0.632047
H154	H	1.111550	-0.050721	1.132047
H155	H	0.767687	-0.325804	0.374423
H156	H	1.267687	0.174196	0.874423
O157	O	1.368360	-0.369416	0.850490
O158	O	1.868360	0.130584	1.350490
C159	C	1.347442	-0.295437	0.872336
C160	C	1.847442	0.204563	1.372336
H161	H	1.274128	-0.289226	0.894005
H162	H	1.774128	0.210774	1.394005
H163	H	1.358758	-0.256389	0.811037
H164	H	1.858758	0.243611	1.311037
H165	H	1.392524	-0.280876	0.929630
H166	H	1.892524	0.219124	1.429630
O167	O	1.407211	-0.339316	1.179647
O168	O	1.907211	0.160684	1.679647
C169	C	1.388907	-0.263291	1.155595
C170	C	1.888907	0.236709	1.655595
H171	H	1.358260	-0.256981	1.085423
H172	H	1.858260	0.243019	1.585423
H173	H	1.454004	-0.233114	1.156129
H174	H	1.954004	0.266886	1.656129
H175	H	1.339658	-0.238302	1.205784
H176	H	1.839658	0.261698	1.705784
O177	O	1.180473	-0.515243	1.166790
O178	O	1.680473	-0.015243	1.666790
C179	C	1.187445	-0.509788	1.260450
C180	C	1.687445	-0.009788	1.760450
H181	H	1.256119	-0.489541	1.277283
H182	H	1.756119	0.010459	1.777283
H183	H	1.179240	-0.566686	1.295790
H184	H	1.679240	-0.066686	1.795790
H185	H	1.132614	-0.468726	1.284014
H186	H	1.632614	0.031274	1.784014
O187	O	0.616721	-0.360500	0.414393
O188	O	1.116721	0.139500	0.914393
C189	C	0.638603	-0.288551	0.435514
C190	C	1.138603	0.211449	0.935514
H191	H	0.660304	-0.289399	0.508839
H192	H	1.160304	0.210601	1.008839
H193	H	0.577313	-0.248399	0.424300
H194	H	1.077313	0.251601	0.924300
H195	H	0.695883	-0.269675	0.390484
H196	H	1.195883	0.230325	0.890484
O197	O	0.945858	-0.326735	0.375646
O198	O	1.445858	0.173265	0.875646
C199	C	0.921828	-0.252473	0.394142
C200	C	1.421828	0.247527	0.894142
H201	H	0.851669	-0.249092	0.424794
H202	H	1.351669	0.250908	0.924794
H203	H	0.922341	-0.216046	0.329130
H204	H	1.422341	0.283954	0.829130
H205	H	0.972041	-0.232230	0.443456
H206	H	1.472041	0.267770	0.943456
O207	O	1.131101	-0.553690	1.022514
O208	O	1.631101	-0.053690	1.522514
C209	C	1.179141	-0.606633	1.079796
C210	C	1.679141	-0.106633	1.579796
H211	H	1.251583	-0.613524	1.055582
H212	H	1.751583	-0.113524	1.555582
H213	H	1.146528	-0.662196	1.078978
H214	H	1.646528	-0.162196	1.578978
H215	H	1.178160	-0.586991	1.151145
H216	H	1.678160	-0.086991	1.651145
H217	H	1.157015	-0.895182	0.612419
H218	H	1.657015	-0.395182	1.112419
