data_functionalizedCrystal
_audit_creation_method	'MofGen! by Chris Wilmer'
_symmetry_space_group_name_H-M	'P1'
_symmetry_Int_Tables_number	1
_symmetry_cell_setting	triclinic
loop_
_symmetry_equiv_pos_as_xyz
  x,y,z
_cell_length_a	10.967874
_cell_length_b	11.026607
_cell_length_c	16.776229
_cell_angle_alpha	89.996140
_cell_angle_beta	77.864182
_cell_angle_gamma	96.380181
loop_
_atom_site_label
_atom_site_type_symbol
_atom_site_fract_x
_atom_site_fract_y
_atom_site_fract_z
O1	O	1.694042	0.170539	-0.298986
O2	O	1.334403	0.186858	-0.249586
O3	O	1.484416	0.001797	-0.270189
O4	O	1.544029	0.355600	-0.278383
O5	O	1.484388	0.001786	-0.137608
O6	O	1.334375	0.186846	-0.117005
O7	O	1.694014	0.170528	-0.166405
Zn8	Zn	1.514190	0.178685	-0.120655
Zn9	Zn	1.514227	0.178701	-0.295336
O10	O	1.544001	0.355589	-0.145803
C11	C	1.287632	0.185664	-0.176873
C12	C	1.148307	0.182109	-0.157735
C13	C	1.086207	0.180530	-0.217884
C14	C	0.942207	0.176856	-0.198106
C15	C	1.473404	-0.043511	-0.202389
C16	C	1.440620	-0.178498	-0.197888
C17	C	1.531143	-0.251550	-0.210324
C18	C	1.497261	-0.391066	-0.205673
C19	C	1.740785	0.171722	-0.239120
C20	C	1.880110	0.175277	-0.258263
C21	C	1.555012	0.400897	-0.213604
C22	C	1.587797	0.535884	-0.218110
N23	N	1.514174	0.178674	-0.001442
N24	N	1.514251	0.178702	-0.414550
C25	C	1.580633	0.096763	0.031148
C26	C	1.580640	0.096762	0.114599
C27	C	1.514194	0.178679	0.165458
C28	C	1.447726	0.260594	0.132864
C29	C	1.447713	0.260588	0.049415
C30	C	1.447777	0.260618	0.469404
C31	C	1.447798	0.260620	0.552858
C32	C	1.580703	0.096793	0.534588
C33	C	1.580690	0.096787	0.451139
C34	C	1.514218	0.178696	0.418553
C35	C	1.514209	0.178695	0.328066
C36	C	1.514209	0.178687	0.255943
H37	H	0.888772	0.175494	-0.131964
Br38	Br	0.969161	0.177581	-0.368506
Br39	Br	1.059251	0.179843	-0.047497
H40	H	1.633726	-0.210803	-0.224410
H41	H	1.394671	-0.431807	-0.191586
H42	H	1.690387	-0.423377	-0.232261
Br43	Br	1.670916	-0.014375	0.578816
Br44	Br	1.269635	-0.246397	-0.174413
H45	H	1.634747	0.030063	-0.010259
Br46	Br	1.670830	-0.014408	0.158831
Br47	Br	1.670877	-0.014382	0.382117
Br48	Br	1.357617	0.371801	0.621882
Br49	Br	1.357570	0.371780	0.425184
Br50	Br	1.357536	0.371760	0.201886
H51	H	1.139647	0.181905	-0.284021
Br52	Br	1.357504	0.371749	0.005188
