data_functionalizedCrystal
_audit_creation_method	'MofGen! by Chris Wilmer'
_symmetry_space_group_name_H-M	'P1'
_symmetry_Int_Tables_number	1
_symmetry_cell_setting	triclinic
loop_
_symmetry_equiv_pos_as_xyz
  x,y,z
_cell_length_a	17.640112
_cell_length_b	29.839131
_cell_length_c	17.639306
_cell_angle_alpha	101.185564
_cell_angle_beta	87.804122
_cell_angle_gamma	101.266684
loop_
_atom_site_label
_atom_site_type_symbol
_atom_site_fract_x
_atom_site_fract_y
_atom_site_fract_z
Zn1	Zn	1.247707	-0.057749	-0.195067
Zn2	Zn	1.221926	-0.121255	-0.068093
Zn3	Zn	1.095056	-0.063678	-0.093720
Zn4	Zn	1.120620	-0.150413	-0.220665
O5	O	1.171327	-0.098274	-0.144387
O6	O	1.350569	-0.051489	-0.156786
O7	O	1.183607	-0.103896	0.034774
O8	O	1.115396	-0.000015	-0.107176
O9	O	1.331627	-0.098147	-0.063499
O10	O	1.227549	0.004341	-0.181636
O11	O	1.090396	-0.061594	0.015946
O12	O	0.992165	-0.089867	-0.131997
O13	O	1.158967	-0.147842	-0.323536
O14	O	1.010947	-0.153591	-0.225264
O15	O	1.252338	-0.079762	-0.304729
O16	O	1.208396	-0.187999	-0.088320
O17	O	1.133968	-0.209421	-0.200414
C18	C	0.973998	-0.125537	-0.184189
C19	C	0.889584	-0.137212	-0.201235
C20	C	0.563031	-0.009567	-0.014897
C21	C	0.483712	-0.020548	-0.030925
C22	C	0.503291	-0.086967	-0.127875
C23	C	0.582613	-0.075990	-0.111858
C24	C	0.612476	-0.037290	-0.055368
C25	C	0.632058	-0.103713	-0.152329
C26	C	0.711373	-0.092739	-0.136311
C27	C	0.741242	-0.054041	-0.079821
C28	C	0.691790	-0.026315	-0.039350
C29	C	0.602193	-0.142415	-0.208816
C30	C	0.651638	-0.170138	-0.249287
C31	C	0.730955	-0.159162	-0.233272
C32	C	0.760824	-0.120464	-0.176783
C33	C	0.780406	-0.186888	-0.273744
C34	C	0.859721	-0.175913	-0.257726
C35	C	0.840139	-0.109489	-0.160764
C36	C	1.171182	-0.215012	-0.144377
C37	C	1.171195	-0.264945	-0.144384
C38	C	1.210185	-0.563401	-0.086072
C39	C	1.210284	-0.751064	-0.086083
O40	O	1.243320	-0.765829	-0.036497
N41	N	1.171496	-0.785699	-0.144412
C42	C	1.132685	-0.773416	-0.202746
O43	O	1.099702	-0.807181	-0.252363
C44	C	1.132590	-0.585754	-0.202737
C45	C	1.171374	-0.551121	-0.144400
C46	C	1.248967	-0.528769	-0.027740
C47	C	1.248938	-0.481856	-0.027736
C48	C	1.210127	-0.469576	-0.086064
C49	C	1.171345	-0.504208	-0.144396
C50	C	1.093783	-0.573472	-0.261073
C51	C	1.093765	-0.526552	-0.261067
C52	C	1.132549	-0.491919	-0.202730
C53	C	1.132506	-0.445015	-0.202719
N54	N	1.171294	-0.410380	-0.144390
C55	C	1.210105	-0.422660	-0.086062
C56	C	1.132736	-0.871941	-0.202745
C57	C	1.132758	-0.918856	-0.202746
C58	C	1.210359	-0.896501	-0.086084
C59	C	1.210332	-0.849585	-0.086080
C60	C	1.171524	-0.837306	-0.144416
C61	C	1.210041	-0.324141	-0.086057
C62	C	1.210006	-0.277226	-0.086056
C63	C	1.132408	-0.299585	-0.202720
C64	C	1.132439	-0.346497	-0.202719
C65	C	1.171261	-0.358773	-0.144384
O66	O	1.099495	-0.430216	-0.252283
O67	O	1.243097	-0.388888	-0.036462
C68	C	1.210214	-0.610314	-0.086077
C69	C	1.171432	-0.644946	-0.144409
C70	C	1.132621	-0.632666	-0.202736
C71	C	1.171454	-0.691862	-0.144410
C72	C	1.210265	-0.704142	-0.086082
C73	C	1.249053	-0.669507	-0.027753
C74	C	1.249024	-0.622594	-0.027749
C75	C	1.093833	-0.667301	-0.261066
C76	C	1.093864	-0.714213	-0.261065
C77	C	1.132675	-0.726493	-0.202737
C78	C	1.369427	-0.070904	-0.104429
C79	C	1.453845	-0.059241	-0.087401
C80	C	1.211380	-0.116393	-0.342457
C81	C	1.228448	-0.124115	-0.426862
C82	C	1.171497	0.018922	-0.144409
C83	C	1.171569	0.068863	-0.144419
C84	C	1.041958	-0.039406	-0.753494
C85	C	1.058013	-0.046668	-0.832803
C86	C	1.155063	-0.090712	-0.813179
C87	C	1.139019	-0.083451	-0.733867
C88	C	1.082465	-0.057798	-0.704031
C89	C	1.179526	-0.101844	-0.684404
C90	C	1.163480	-0.094586	-0.605099
C91	C	1.106926	-0.068935	-0.575257
C92	C	1.066418	-0.050540	-0.624726
C93	C	1.236076	-0.127500	-0.714242
C94	C	1.276583	-0.145893	-0.664779
C95	C	1.260541	-0.138632	-0.585472
C96	C	1.203987	-0.112981	-0.555630
C97	C	1.301049	-0.157026	-0.536003
C98	C	1.285002	-0.149768	-0.456698
C99	C	1.187941	-0.105722	-0.476325
C100	C	1.131474	-0.080186	0.052922
C101	C	1.114553	-0.072317	0.137357
H102	H	0.716109	0.005204	0.006639
O103	O	1.251734	-0.134470	-0.791265
C104	C	1.294301	-0.099117	-0.901158
C105	C	1.276613	-0.091157	-0.813923
H106	H	1.314404	-0.064105	-0.919507
H107	H	1.341708	-0.120588	-0.914023
H108	H	1.239826	-0.118557	-0.934539
H109	H	1.331044	-0.071705	-0.780484
H110	H	1.229177	-0.069706	-0.801118
O111	O	0.751413	-0.224531	-0.328530
C112	C	0.734548	-0.307695	-0.370105
C113	C	0.767400	-0.265106	-0.307991
H114	H	0.747475	-0.340509	-0.353530
H115	H	0.669356	-0.310820	-0.374602
H116	H	0.762541	-0.303278	-0.428203
H117	H	0.739466	-0.269493	-0.249859
H118	H	0.832594	-0.261994	-0.303561
H119	H	1.201107	-0.111601	-0.837483
O120	O	0.474156	-0.124530	-0.182748
C121	C	0.360641	-0.170892	-0.250366
C122	C	0.393533	-0.128333	-0.188214
H123	H	0.295450	-0.173986	-0.254794
H124	H	0.388589	-0.166508	-0.308497
H125	H	0.373533	-0.203712	-0.233781
H126	H	0.380650	-0.095493	-0.204726
H127	H	0.365583	-0.132758	-0.130100
O128	O	0.622728	-0.207703	-0.304253
C129	C	0.624542	-0.244767	-0.438274
C130	C	0.657359	-0.202207	-0.376093
H131	H	0.652515	-0.240334	-0.496374
H132	H	0.637409	-0.277612	-0.421758
H133	H	0.559356	-0.247850	-0.442730
H134	H	0.722548	-0.199080	-0.371606
H135	H	0.644431	-0.169383	-0.392635
H136	H	1.025026	-0.031687	-0.873074
O137	O	0.986972	-0.014492	-0.724637
C138	C	0.892424	0.028454	-0.752457
C139	C	0.954661	0.000244	-0.785242
H140	H	0.866295	0.040385	-0.801438
H141	H	0.845125	0.005747	-0.723369
H142	H	0.919822	0.060147	-0.708272
H143	H	0.927333	-0.031450	-0.829456
H144	H	1.001953	0.022984	-0.814281
H145	H	1.322627	-0.166781	-0.689083
O146	O	0.869102	-0.071939	-0.105786
C147	C	0.867230	-0.034837	0.028211
C148	C	0.834375	-0.077389	-0.033969
H149	H	0.839155	-0.039225	0.086287
H150	H	0.932407	-0.031756	0.032772
H151	H	0.854414	-0.002009	0.011590
H152	H	0.847135	-0.110241	-0.017394
H153	H	0.769207	-0.080430	-0.038518
O154	O	0.591994	0.027983	0.040081
C155	C	0.590122	0.065085	0.174079
C156	C	0.557267	0.022533	0.111898
H157	H	0.562047	0.060698	0.232154
H158	H	0.655299	0.068166	0.178639
H159	H	0.577306	0.097913	0.157457
H160	H	0.570027	-0.010319	0.128474
H161	H	0.492099	0.019493	0.107349
O162	O	0.818289	-0.043297	-0.064263
C163	C	0.936130	0.013702	-0.060950
C164	C	0.848879	0.001600	-0.078580
H165	H	0.960892	0.049997	-0.072534
H166	H	0.945784	0.012828	0.002241
H167	H	0.966320	-0.012779	-0.099559
H168	H	0.818632	0.028069	-0.040021
H169	H	0.839282	0.002459	-0.141788
H170	H	1.241914	-0.821388	-0.038577
H171	H	0.899981	-0.198487	-0.290682
O172	O	1.247751	-0.243640	-0.029346
C173	C	1.324683	-0.226428	0.086392
C174	C	1.281984	-0.264507	0.022209
H175	H	1.352358	-0.243285	0.128100
H176	H	1.371456	-0.202140	0.059551
H177	H	1.281793	-0.205667	0.119070
H178	H	1.324815	-0.285302	-0.010492
H179	H	1.235200	-0.288763	0.049097
O180	O	1.247864	-0.336076	-0.029485
C181	C	1.348394	-0.373884	0.001330
C182	C	1.305634	-0.360391	-0.062812
H183	H	1.395099	-0.393554	-0.025592
H184	H	1.376161	-0.341078	0.043007
H185	H	1.305530	-0.397039	0.034063
H186	H	1.348448	-0.337248	-0.095603
H187	H	1.277853	-0.393218	-0.104436
H188	H	1.093857	-0.063029	-0.510683
O189	O	1.286689	-0.448274	0.028966
C190	C	1.363636	-0.431070	0.144694
C191	C	1.320920	-0.469145	0.080516
H192	H	1.391309	-0.447931	0.186397
H193	H	1.410411	-0.406787	0.117847
H194	H	1.320756	-0.410303	0.177378
H195	H	1.363741	-0.489946	0.047808
H196	H	1.274133	-0.493397	0.107408
O197	O	1.286767	-0.681519	0.028816
C198	C	1.321206	-0.743896	0.080485
C199	C	1.278463	-0.730354	0.016383
H200	H	1.314493	-0.783380	0.070464
H201	H	1.385152	-0.727422	0.079425
H202	H	1.295567	-0.730907	0.139060
H203	H	1.304038	-0.743340	-0.042224
H204	H	1.214520	-0.746821	0.017511
H205	H	0.537609	-0.151350	-0.221856
H206	H	1.101168	-0.947052	-0.250245
H207	H	1.347089	-0.177917	-0.560309
O208	O	1.056005	-0.514573	-0.317638
C209	C	0.955439	-0.476798	-0.348472
C210	C	0.998149	-0.490324	-0.284329
H211	H	0.908643	-0.457198	-0.321567
H212	H	0.998254	-0.453598	-0.381176
H213	H	0.927766	-0.509618	-0.390171
H214	H	1.025823	-0.457529	-0.242578
H215	H	0.955300	-0.513541	-0.251684
H216	H	0.443456	0.002033	0.002031
O217	O	1.286821	-0.540693	0.028818
C218	C	1.387414	-0.578466	0.059592
C219	C	1.344593	-0.564999	-0.004534
H220	H	1.434122	-0.598128	0.032649
H221	H	1.415187	-0.545648	0.101241
H222	H	1.344590	-0.601619	0.092360
H223	H	1.387368	-0.541857	-0.037361
H224	H	1.316807	-0.597836	-0.046131
O225	O	1.324325	-0.167709	-0.408734
C226	C	1.356120	-0.236826	-0.376963
C227	C	1.311569	-0.216565	-0.431351
H228	H	1.345810	-0.276329	-0.395219
H229	H	1.420543	-0.221939	-0.380203
H230	H	1.334943	-0.227207	-0.315161
H231	H	1.332680	-0.226176	-0.493177
H232	H	1.247153	-0.231451	-0.428044
O233	O	1.248106	-0.908511	-0.029537
C234	C	1.282616	-0.970885	0.022087
C235	C	1.239816	-0.957346	-0.041977
H236	H	1.275915	-1.010368	0.012060
H237	H	1.346557	-0.954407	0.020984
H238	H	1.257015	-0.957899	0.080683
H239	H	1.265352	-0.970329	-0.100605
H240	H	1.175877	-0.973818	-0.040805
H241	H	1.100806	-0.289579	-0.250208
O242	O	1.094961	-0.860099	-0.259450
C243	C	1.018022	-0.887235	-0.375179
C244	C	1.060761	-0.900708	-0.311002
H245	H	0.990374	-0.920059	-0.416885
H246	H	0.971224	-0.867618	-0.348333
H247	H	1.060881	-0.864047	-0.407862
H248	H	1.017962	-0.923912	-0.278297
H249	H	1.107570	-0.920301	-0.337895
O250	O	1.056101	-0.607048	-0.317822
C251	C	0.979107	-0.624250	-0.433518
C252	C	1.021768	-0.586179	-0.369301
H253	H	0.951324	-0.607392	-0.475146
H254	H	1.021966	-0.645001	-0.466288
H255	H	0.932402	-0.648548	-0.406621
H256	H	1.068472	-0.561849	-0.396134
H257	H	0.978861	-0.565462	-0.336538
O258	O	1.094753	-0.380083	-0.259461
C259	C	1.017751	-0.397300	-0.375153
C260	C	1.060405	-0.359222	-0.310942
H261	H	0.989956	-0.380450	-0.416783
H262	H	1.060615	-0.418047	-0.407923
H263	H	0.971054	-0.421601	-0.348251
H264	H	1.107100	-0.334890	-0.337781
H265	H	1.017493	-0.338510	-0.278180
O266	O	1.286645	-0.589000	0.029016
C267	C	1.297472	-0.557722	0.165616
C268	C	1.254809	-0.595796	0.101406
H269	H	1.271738	-0.563198	0.224157
H270	H	1.361412	-0.559674	0.164642
H271	H	1.290815	-0.522081	0.155574
H272	H	1.261404	-0.631455	0.111405
H273	H	1.190886	-0.593802	0.102397
O274	O	1.132953	-0.080860	-0.447257
C275	C	1.012289	-0.080799	-0.378446
C276	C	1.074511	-0.109002	-0.411315
H277	H	0.965015	-0.103542	-0.349394
H278	H	1.039633	-0.049099	-0.334243
H279	H	0.986130	-0.068881	-0.427424
H280	H	1.100693	-0.120952	-0.362389
H281	H	1.047126	-0.140678	-0.455538
O282	O	1.056175	-0.747794	-0.317814
C283	C	0.979178	-0.765004	-0.433509
C284	C	1.021835	-0.726929	-0.369295
H285	H	0.951389	-0.748150	-0.475139
H286	H	1.022040	-0.785753	-0.466279
H287	H	0.932477	-0.789304	-0.406610
H288	H	1.068534	-0.702598	-0.396130
H289	H	0.978925	-0.706215	-0.336533
H290	H	1.062230	-0.657307	-0.308564
O291	O	1.011433	-0.025626	-0.595869
C292	C	0.916885	0.017320	-0.623689
C293	C	0.979122	-0.010891	-0.656475
H294	H	0.890755	0.029250	-0.672670
H295	H	0.869586	-0.005388	-0.594602
H296	H	0.944283	0.049013	-0.579504
H297	H	0.951793	-0.042585	-0.700688
H298	H	1.026414	0.011850	-0.685513
