data_functionalizedCrystal
_audit_creation_method	'MofGen! by Chris Wilmer'
_symmetry_space_group_name_H-M	'P1'
_symmetry_Int_Tables_number	1
_symmetry_cell_setting	triclinic
loop_
_symmetry_equiv_pos_as_xyz
  x,y,z
_cell_length_a	18.050591
_cell_length_b	18.050589
_cell_length_c	16.625539
_cell_angle_alpha	89.975176
_cell_angle_beta	89.973401
_cell_angle_gamma	90.024227
loop_
_atom_site_label
_atom_site_type_symbol
_atom_site_fract_x
_atom_site_fract_y
_atom_site_fract_z
Zn1	Zn	1.135334	-0.295737	-0.456059
Zn2	Zn	1.135233	-0.419935	-0.321234
Zn3	Zn	1.011141	-0.295755	-0.321225
Zn4	Zn	1.011101	-0.419881	-0.456010
O5	O	1.073202	-0.357827	-0.388632
O6	O	1.239245	-0.312227	-0.438198
O7	O	1.118746	-0.403492	-0.208400
O8	O	1.027675	-0.191828	-0.339128
O9	O	1.239171	-0.403475	-0.339143
O10	O	1.118919	-0.191815	-0.438189
O11	O	1.027576	-0.312257	-0.208394
O12	O	0.907211	-0.312205	-0.339080
O13	O	1.027607	-0.403384	-0.568849
O14	O	0.907182	-0.403400	-0.438106
O15	O	1.118880	-0.312175	-0.568884
O16	O	1.118707	-0.523852	-0.339096
O17	O	1.027508	-0.523813	-0.438115
C18	C	0.880250	-0.357799	-0.388587
C19	C	0.797704	-0.357805	-0.388587
C20	C	1.073113	-0.550779	-0.388618
C21	C	1.073142	-0.633325	-0.388640
C22	C	0.598248	-0.308156	-0.334861
C23	C	0.548827	-0.375894	-0.315024
C24	C	0.646574	-0.357828	-0.388624
C25	C	0.548914	-0.290113	-0.408459
C26	C	0.500589	-0.357844	-0.388657
C27	C	0.598240	-0.425601	-0.368748
C28	C	0.598331	-0.339775	-0.462217
C29	C	0.548932	-0.407560	-0.442408
C30	C	0.730672	-0.357818	-0.388602
C31	C	0.416492	-0.357861	-0.388679
C32	C	1.023597	-0.832781	-0.442467
C33	C	1.005493	-0.882222	-0.368889
C34	C	1.073215	-0.784455	-0.388650
C35	C	1.091356	-0.882096	-0.462237
C36	C	1.073284	-0.930440	-0.388667
C37	C	1.055075	-0.832809	-0.315033
C38	C	1.140970	-0.832679	-0.408430
C39	C	1.122891	-0.882097	-0.334801
C40	C	1.073173	-0.700357	-0.388642
C41	C	1.073326	-1.014537	-0.388667
C42	C	1.266908	-0.357855	-0.388677
C43	C	1.349454	-0.357867	-0.388696
C44	C	1.073251	-0.357772	-0.598941
C45	C	1.073271	-0.357748	-0.688562
C46	C	1.073313	-0.164121	-0.388663
C47	C	1.073359	-0.081576	-0.388676
C48	C	1.073305	-0.357665	-1.016738
C49	C	1.073294	-0.357690	-0.925429
C50	C	1.073289	-0.357707	-0.852653
C51	C	1.073276	-0.357731	-0.761338
C52	C	1.073197	-0.357828	-0.179141
C53	C	1.073320	-0.357643	-0.089520
H54	H	0.619902	-0.266195	-0.289346
H55	H	0.527208	-0.232849	-0.425193
H56	H	1.164881	-0.903615	-0.289244
C57	C	0.966828	-0.803519	-0.503860
N58	N	0.924068	-0.781476	-0.550097
H59	H	0.619817	-0.482890	-0.351917
C60	C	0.519854	-0.464382	-0.503845
N61	N	0.497950	-0.507183	-0.550115
C62	C	0.928125	-0.911621	-0.346291
N63	N	0.869850	-0.933762	-0.329275
H64	H	1.039692	-0.811248	-0.252792
H65	H	0.620093	-0.324474	-0.524420
C66	C	1.218310	-0.803245	-0.431066
N67	N	1.276561	-0.781070	-0.448127
H68	H	0.527083	-0.391175	-0.252802
C69	C	1.112049	-0.911345	-0.546299
N70	N	1.127629	-0.933372	-0.609616
