data_functionalizedCrystal
_audit_creation_method	'MofGen! by Chris Wilmer'
_symmetry_space_group_name_H-M	'P1'
_symmetry_Int_Tables_number	1
_symmetry_cell_setting	triclinic
loop_
_symmetry_equiv_pos_as_xyz
  x,y,z
_cell_length_a	12.594516
_cell_length_b	18.101398
_cell_length_c	18.101389
_cell_angle_alpha	90.008593
_cell_angle_beta	89.987481
_cell_angle_gamma	89.989142
loop_
_atom_site_label
_atom_site_type_symbol
_atom_site_fract_x
_atom_site_fract_y
_atom_site_fract_z
Zn1	Zn	-0.424001	-1.132198	-0.418558
Zn2	Zn	-0.601969	-1.132127	-0.294729
Zn3	Zn	-0.423989	-1.008357	-0.294753
Zn4	Zn	-0.601922	-1.008341	-0.418552
O5	O	-0.512970	-1.070256	-0.356648
O6	O	-0.447634	-1.235822	-0.402125
O7	O	-0.578374	-1.115686	-0.191100
O8	O	-0.275045	-1.024822	-0.311189
O9	O	-0.578386	-1.235769	-0.311148
O10	O	-0.275054	-1.115808	-0.402148
O11	O	-0.447613	-1.024753	-0.191117
O12	O	-0.447567	-0.904722	-0.311183
O13	O	-0.578306	-1.024794	-0.522186
O14	O	-0.578294	-0.904710	-0.402137
O15	O	-0.447588	-1.115791	-0.522190
O16	O	-0.750909	-1.115669	-0.311142
O17	O	-0.750874	-1.024724	-0.402114
C18	C	-0.512925	-0.877845	-0.356662
C19	C	-0.512931	-0.795531	-0.356686
C20	C	-0.512988	-0.496440	-0.356661
C21	C	-0.595636	-0.527782	-0.413604
C22	C	-0.595379	-0.613401	-0.413836
C23	C	-0.512961	-0.644823	-0.356674
C24	C	-0.400857	-0.613748	-0.377994
C25	C	-0.401352	-0.528103	-0.378401
C26	C	-0.541456	-0.527993	-0.278260
C27	C	-0.543918	-0.613643	-0.278677
C28	C	-0.512938	-0.728682	-0.356679
C29	C	-0.513003	-0.412581	-0.356657
C30	C	-0.789511	-1.070207	-0.356641
C31	C	-0.907817	-1.070254	-0.356663
C32	C	-0.977090	-1.020784	-0.406108
C33	C	-1.047930	-1.002743	-0.338535
C34	C	-1.047776	-1.088363	-0.424247
C35	C	-0.977098	-1.052177	-0.289054
C36	C	-0.976938	-1.137829	-0.374812
C37	C	-1.047746	-1.119813	-0.307193
C38	C	-0.235349	-1.070325	-0.356672
C39	C	-0.117044	-1.070354	-0.356682
C40	C	-0.512943	-1.070299	-0.549810
C41	C	-0.512932	-1.070317	-0.632124
C42	C	-0.513012	-0.263418	-0.356639
C43	C	-0.513018	-0.345732	-0.356649
C44	C	-0.512732	-1.070360	-0.931216
C45	C	-0.594715	-1.012909	-0.899887
C46	C	-0.595095	-1.013065	-0.814269
C47	C	-0.512831	-1.070338	-0.782833
C48	C	-0.543288	-1.148369	-0.813919
C49	C	-0.543827	-1.148049	-0.899564
C50	C	-0.400111	-1.050458	-0.899637
C51	C	-0.400761	-1.048722	-0.813987
C52	C	-0.512886	-1.070330	-0.698973
C53	C	-0.512681	-1.070373	-1.015075
C54	C	-0.512920	-1.070256	-0.164238
C55	C	-0.512632	-1.070381	-0.081924
H56	H	-0.621802	-0.506394	-0.258884
N57	N	-0.935969	-0.965273	-0.461406
H58	H	-0.891776	-0.991473	-0.499909
H59	H	-0.997842	-0.939803	-0.486120
H60	H	-0.339030	-1.092302	-0.919897
N61	N	-0.368284	-0.642168	-0.453087
H62	H	-0.425973	-0.675164	-0.473403
H63	H	-0.356878	-0.599077	-0.487623
H64	H	-0.626409	-0.633962	-0.262597
N65	N	-0.705649	-1.030502	-0.787115
H66	H	-0.732796	-0.988106	-0.756129
H67	H	-0.754268	-1.038139	-0.830815
H68	H	-0.377204	-0.508137	-0.435715
N69	N	-0.704618	-1.030154	-0.928392
H70	H	-0.732425	-0.986583	-0.957379
H71	H	-0.701434	-1.075032	-0.961477
N72	N	-0.469974	-0.641971	-0.219454
H73	H	-0.415111	-0.675565	-0.242447
H74	H	-0.433309	-0.598878	-0.194860
H75	H	-1.079136	-0.945643	-0.323200
H76	H	-0.377794	-0.991298	-0.793669
H77	H	-1.078821	-1.103639	-0.481394
N78	N	-0.569803	-0.936430	-0.786420
H79	H	-0.558310	-0.902241	-0.829781
H80	H	-0.630886	-0.917671	-0.755503
N81	N	-0.461721	-0.501147	-0.222055
H82	H	-0.407416	-0.468706	-0.247213
H83	H	-0.499538	-0.471866	-0.182503
H84	H	-0.946181	-1.036835	-0.231891
H85	H	-0.575850	-0.954873	-0.920488
H86	H	-0.626154	-1.164918	-0.919549
H87	H	-0.486707	-1.192306	-0.920289
H88	H	-0.485453	-1.192324	-0.793557
N89	N	-0.651186	-1.171101	-0.785529
H90	H	-0.670077	-1.221379	-0.805840
H91	H	-0.649629	-1.173235	-0.729786
N92	N	-0.363350	-0.976397	-0.928243
H93	H	-0.419336	-0.954994	-0.961967
H94	H	-0.351188	-0.941813	-0.885283
H95	H	-0.945735	-1.194916	-0.390179
N96	N	-0.315547	-1.100101	-0.785649
H97	H	-0.312940	-1.097507	-0.729942
H98	H	-0.332163	-1.152333	-0.801495
N99	N	-0.705491	-0.641239	-0.396136
H100	H	-0.754635	-0.597874	-0.388113
H101	H	-0.732484	-0.672162	-0.438609
H102	H	-0.679038	-0.507182	-0.400393
H103	H	-0.577041	-0.506269	-0.471359
H104	H	-0.576545	-0.633900	-0.471926
H105	H	-1.078575	-1.161691	-0.265339
N106	N	-0.317021	-0.500631	-0.325865
H107	H	-0.279686	-0.544158	-0.302547
H108	H	-0.263822	-0.469704	-0.353904
H109	H	-0.337611	-0.634100	-0.337812
