data_functionalizedCrystal
_audit_creation_method	'MofGen! by Chris Wilmer'
_symmetry_space_group_name_H-M	'P1'
_symmetry_Int_Tables_number	1
_symmetry_cell_setting	triclinic
loop_
_symmetry_equiv_pos_as_xyz
  x,y,z
_cell_length_a	6.817900
_cell_length_b	17.982783
_cell_length_c	15.185107
_cell_angle_alpha	95.439988
_cell_angle_beta	104.257894
_cell_angle_gamma	102.448572
loop_
_atom_site_label
_atom_site_type_symbol
_atom_site_fract_x
_atom_site_fract_y
_atom_site_fract_z
V1	V	-4.030195	-0.105942	-0.283775
O2	O	-4.022897	0.004546	-0.277985
O3	O	-3.976635	-0.209541	-0.282208
O4	O	-3.985597	-0.104552	-0.407369
O5	O	-4.013873	-0.101171	-0.151957
V6	V	-4.513999	-0.092698	-0.267964
O7	O	-4.290837	-0.134994	-0.318460
O8	O	-4.703554	-0.063647	-0.233279
O9	O	-4.344352	0.010901	-0.269531
O10	O	-4.638693	-0.203187	-0.273754
O11	O	-4.647718	-0.097470	-0.399782
O12	O	-4.335390	-0.094089	-0.144370
C13	C	-3.820257	-0.234789	-0.277828
C14	C	-3.857778	-0.319485	-0.277370
C15	C	-3.833176	-0.348239	-0.193879
C16	C	-3.868451	-0.427820	-0.193452
C17	C	-3.928312	-0.478645	-0.276517
C18	C	-3.952921	-0.449886	-0.360014
C19	C	-3.917661	-0.370307	-0.360441
C20	C	-4.095123	-0.770821	-0.358297
C21	C	-4.130376	-0.850405	-0.357864
C22	C	-4.045913	-0.828334	-0.191308
C23	C	-4.010654	-0.748754	-0.191735
C24	C	-4.035275	-0.720003	-0.275232
C25	C	-3.997030	-0.633712	-0.275694
C26	C	-3.966543	-0.564934	-0.276055
C27	C	-3.831689	-0.100863	-0.437482
C28	C	-3.876475	-0.100412	-0.538523
C29	C	-4.103254	-0.168244	-0.978989
C30	C	-4.028810	-0.028648	-0.952491
C31	C	-3.986684	-0.029084	-0.857558
C32	C	-4.002845	-0.099101	-0.823337
C33	C	-4.061132	-0.168682	-0.884048
C34	C	-3.928416	0.040496	-0.796841
C35	C	-3.886288	0.040063	-0.701902
C36	C	-3.902435	-0.029954	-0.667679
C37	C	-3.960723	-0.099539	-0.728396
C38	C	-3.976884	-0.169556	-0.694175
C39	C	-4.035157	-0.239140	-0.754891
C40	C	-4.077278	-0.238700	-0.849825
C41	C	-3.860314	-0.030395	-0.572745
C42	C	-3.934761	-0.169993	-0.599234
C43	C	-4.164072	0.036145	-0.273909
C44	C	-4.105789	0.120839	-0.274372
C45	C	-4.152640	-0.097780	-0.114252
C46	C	-4.087093	-0.098227	-0.013210
H47	H	-3.961901	-0.707375	-0.124094
C48	C	-4.196246	-0.906313	-0.449247
N49	N	-4.245858	-0.948423	-0.518072
H50	H	-3.838841	0.096723	-0.652475
C51	C	-3.767327	-0.292337	-0.102499
N52	N	-3.717736	-0.250234	-0.033670
H53	H	-3.937716	-0.346898	-0.428428
C54	C	-3.841375	-0.459444	-0.101605
N55	N	-3.820977	-0.483263	-0.032421
H56	H	-4.048322	-0.296148	-0.727016
H57	H	-4.025876	-0.851752	-0.123321
H58	H	-3.812881	0.026260	-0.523315
C59	C	-4.122165	-0.739204	-0.450145
N60	N	-4.142519	-0.715388	-0.519330
H61	H	-3.947914	-0.227010	-0.571380
H62	H	-4.124730	-0.295352	-0.899267
C63	C	-4.167356	-0.244784	-1.045775
N64	N	-4.215641	-0.302434	-1.096080
C65	C	-3.910628	0.117510	-0.834490
N66	N	-3.897218	0.175519	-0.862851
C67	C	-4.011027	0.048367	-0.990138
N68	N	-3.997622	0.106377	-1.018497
C69	C	-4.018750	-0.505797	-0.451386
N70	N	-4.068317	-0.547908	-0.520209
