data_functionalizedCrystal
_audit_creation_method	'MofGen! by Chris Wilmer'
_symmetry_space_group_name_H-M	'P1'
_symmetry_Int_Tables_number	1
_symmetry_cell_setting	triclinic
loop_
_symmetry_equiv_pos_as_xyz
  x,y,z
_cell_length_a	27.732048
_cell_length_b	14.519709
_cell_length_c	12.996460
_cell_angle_alpha	90.000052
_cell_angle_beta	90.000094
_cell_angle_gamma	96.838601
loop_
_atom_site_label
_atom_site_type_symbol
_atom_site_fract_x
_atom_site_fract_y
_atom_site_fract_z
O1	O	-0.641452	0.109733	-0.085421
O2	O	-0.141452	0.609733	0.414579
O3	O	-0.500739	0.126418	-0.085450
O4	O	-0.000739	0.626418	0.414550
O5	O	-0.574826	-0.016228	-0.085444
O6	O	-0.074826	0.483772	0.414556
O7	O	-0.567365	0.252379	-0.085427
O8	O	-0.067365	0.752379	0.414573
O9	O	-0.574818	-0.016236	0.085689
O10	O	-0.074818	0.483764	0.585689
O11	O	-0.500731	0.126410	0.085683
O12	O	-0.000731	0.626410	0.585683
O13	O	-0.641445	0.109725	0.085712
O14	O	-0.141445	0.609725	0.585712
Cu15	Cu	-0.571087	0.118067	0.101324
Cu16	Cu	-0.071087	0.618067	0.601324
Cu17	Cu	-0.571096	0.118076	-0.101062
Cu18	Cu	-0.071096	0.618076	0.398938
O19	O	-0.567357	0.252371	0.085707
O20	O	-0.067357	0.752371	0.585707
C21	C	-0.482726	0.126064	0.000113
C22	C	0.017274	0.626064	0.500113
C23	C	-0.429066	0.125009	0.000101
C24	C	0.070934	0.625009	0.500101
C25	C	-0.574475	-0.050586	0.000118
C26	C	-0.074475	0.449414	0.500118
C27	C	-0.573433	-0.152949	0.000104
C28	C	-0.073433	0.347051	0.500104
C29	C	-0.659457	0.110079	0.000147
C30	C	-0.159457	0.610079	0.500147
C31	C	-0.713117	0.111134	0.000152
C32	C	-0.213117	0.611134	0.500152
C33	C	-0.090622	0.202664	0.000150
C34	C	0.409378	0.702664	0.500150
C35	C	0.111056	0.198751	0.000159
C36	C	0.611056	0.698751	0.500159
O37	O	0.141972	0.269761	0.000208
O38	O	0.641972	0.769761	0.500208
N39	N	0.130584	0.114168	0.000152
N40	N	0.630584	0.614168	0.500152
C41	C	0.099689	0.030557	0.000149
C42	C	0.599689	0.530557	0.500149
O43	O	0.120926	-0.041476	0.000154
O44	O	0.620926	0.458524	0.500154
C45	C	-0.101988	0.034471	0.000148
C46	C	0.398012	0.534471	0.500148
C47	C	-0.121513	0.119060	0.000144
C48	C	0.378487	0.619060	0.500144
C49	C	-0.110148	0.287246	0.000148
C50	C	0.389852	0.787246	0.500148
C51	C	-0.160564	0.288223	0.000140
C52	C	0.339436	0.788223	0.500140
C53	C	-0.191455	0.204619	0.000135
C54	C	0.308545	0.704619	0.500135
C55	C	-0.171930	0.120037	0.000137
C56	C	0.328070	0.620037	0.500137
C57	C	-0.132882	-0.049139	0.000152
C58	C	0.367118	0.450861	0.500152
C59	C	-0.183304	-0.048153	0.000154
C60	C	0.316696	0.451847	0.500154
C61	C	-0.202829	0.036436	0.000151
C62	C	0.297171	0.536436	0.500151
C63	C	-0.253238	0.037410	0.000123
C64	C	0.246762	0.537410	0.500123
N65	N	-0.272766	0.121993	0.000130
N66	N	0.227234	0.621993	0.500130
C67	C	-0.241875	0.205597	0.000136
C68	C	0.258125	0.705597	0.500136
C69	C	0.205573	0.028508	0.000148
C70	C	0.705573	0.528508	0.500148
C71	C	0.255992	0.027530	0.000147
C72	C	0.755992	0.527530	0.500147
C73	C	0.267356	0.195724	0.000158
C74	C	0.767356	0.695724	0.500158
C75	C	0.216936	0.196702	0.000153
C76	C	0.716936	0.696702	0.500153
C77	C	0.186045	0.113091	0.000155
C78	C	0.686045	0.613091	0.500155
C79	C	-0.347754	0.207643	0.000119
C80	C	0.152246	0.707643	0.500119
C81	C	-0.398175	0.208613	0.000106
C82	C	0.101825	0.708613	0.500106
C83	C	-0.409534	0.040420	0.000100
C84	C	0.090466	0.540420	0.500100
C85	C	-0.359117	0.039449	0.000107
C86	C	0.140883	0.539449	0.500107
C87	C	-0.328227	0.123069	0.000119
C88	C	0.171773	0.623069	0.500119
O89	O	-0.284182	-0.033562	0.000085
O90	O	0.215818	0.466438	0.500085
O91	O	-0.263121	0.277620	0.000154
O92	O	0.236879	0.777620	0.500154
C93	C	-0.040206	0.201687	0.000158
C94	C	0.459794	0.701687	0.500158
C95	C	-0.020680	0.117105	0.000160
C96	C	0.479320	0.617105	0.500160
C97	C	-0.051571	0.033501	0.000154
C98	C	0.448429	0.533501	0.500154
C99	C	0.029739	0.116126	0.000159
C100	C	0.529739	0.616126	0.500159
C101	C	0.060630	0.199731	0.000164
C102	C	0.560630	0.699731	0.500164
C103	C	0.041102	0.284314	0.000172
C104	C	0.541102	0.784314	0.500172
C105	C	-0.009315	0.285291	0.000164
C106	C	0.490685	0.785291	0.500164
C107	C	-0.032043	-0.051082	0.000147
C108	C	0.467957	0.448918	0.500147
C109	C	0.018374	-0.052053	0.000154
C110	C	0.518374	0.447947	0.500154
C111	C	0.049265	0.031552	0.000160
C112	C	0.549265	0.531552	0.500160
C113	C	-0.567708	0.286729	0.000142
C114	C	-0.067708	0.786729	0.500142
C115	C	-0.568751	0.389092	0.000149
C116	C	-0.068751	0.889092	0.500149
N117	N	-0.571084	0.118060	0.243671
N118	N	-0.071084	0.618060	0.743671
C119	C	-0.572587	0.763921	0.000109
C120	C	-0.072587	1.263921	0.500109
C121	C	-0.571521	0.659631	0.000121
C122	C	-0.071521	1.159631	0.500121
C123	C	-0.570669	0.576510	0.000130
C124	C	-0.070669	1.076510	0.500130
C125	C	-0.569603	0.472214	0.000140
C126	C	-0.069603	0.972214	0.500140
N127	N	-0.571103	0.118076	-0.243409
N128	N	-0.071103	0.618076	0.256591
C129	C	-0.571095	0.118077	0.663485
C130	C	-0.071095	0.618077	1.163485
C131	C	-0.571091	0.118075	0.546680
C132	C	-0.071091	0.618075	1.046680
C133	C	-0.571090	0.118069	0.453582
C134	C	-0.071090	0.618069	0.953582
C135	C	-0.571085	0.118066	0.336769
C136	C	-0.071085	0.618066	0.836769
H137	H	-0.414069	0.277498	0.000103
H138	H	0.085931	0.777498	0.500103
H139	H	-0.322609	0.275734	0.000132
H140	H	0.177391	0.775734	0.500132
H141	H	-0.343219	-0.029430	0.000094
H142	H	0.156781	0.470570	0.500094
F143	F	-0.112114	-0.139171	0.000141
F144	F	0.387886	0.360829	0.500141
F145	F	0.172702	-0.060487	0.000150
F146	F	0.672702	0.439513	0.500150
F147	F	-0.216178	-0.137145	0.000160
F148	F	0.283822	0.362855	0.500160
H149	H	-0.434695	-0.027649	0.000091
H150	H	0.065305	0.472351	0.500091
F151	F	-0.077278	0.376237	0.000154
F152	F	0.422722	0.876237	0.500154
H153	H	0.034266	-0.120940	0.000148
H154	H	0.534266	0.379060	0.500148
H155	H	0.201042	0.265581	0.000156
H156	H	0.701042	0.765581	0.500156
F157	F	0.276766	-0.062501	0.000127
F158	F	0.776766	0.437499	0.500127
H159	H	-0.176457	0.357103	0.000137
H160	H	0.323543	0.857103	0.500137
H161	H	-0.057190	-0.119165	0.000145
H162	H	0.442810	0.380835	0.500145
H163	H	0.066263	0.352387	0.000172
H164	H	0.566263	0.852387	0.500172
H165	H	0.292516	0.263798	0.000163
H166	H	0.792516	0.763798	0.500163
H167	H	-0.025207	0.354171	0.000163
H168	H	0.474793	0.854171	0.500163
