data_functionalizedCrystal
_audit_creation_method	'MofGen! by Chris Wilmer'
_symmetry_space_group_name_H-M	'P1'
_symmetry_Int_Tables_number	1
_symmetry_cell_setting	triclinic
loop_
_symmetry_equiv_pos_as_xyz
  x,y,z
_cell_length_a	9.065215
_cell_length_b	14.853559
_cell_length_c	8.140239
_cell_angle_alpha	89.998672
_cell_angle_beta	89.997810
_cell_angle_gamma	84.323076
loop_
_atom_site_label
_atom_site_type_symbol
_atom_site_fract_x
_atom_site_fract_y
_atom_site_fract_z
O1	O	1.957774	0.132179	-0.136585
O2	O	2.457774	0.632179	0.363415
O3	O	1.528273	0.143025	-0.136592
O4	O	2.028273	0.643025	0.363408
O5	O	1.754503	0.006456	-0.136587
O6	O	2.254503	0.506456	0.363413
O7	O	1.731544	0.268747	-0.136591
O8	O	2.231544	0.768747	0.363409
O9	O	1.754490	0.006455	0.136640
O10	O	2.254490	0.506455	0.636640
O11	O	1.528261	0.143023	0.136635
O12	O	2.028261	0.643023	0.636635
O13	O	1.957761	0.132177	0.136642
O14	O	2.457761	0.632177	0.636642
Zn15	Zn	1.743009	0.137600	0.180019
Zn16	Zn	2.243009	0.637600	0.680019
Zn17	Zn	1.743025	0.137602	-0.179969
Zn18	Zn	2.243025	0.637602	0.320031
O19	O	1.731532	0.268746	0.136636
O20	O	2.231532	0.768746	0.636636
C21	C	1.473301	0.141982	0.000021
C22	C	1.973301	0.641982	0.500021
C23	C	1.309520	0.138867	0.000018
C24	C	1.809520	0.638867	0.500018
C25	C	1.753458	-0.027141	0.000024
C26	C	2.253458	0.472859	0.500024
C27	C	1.750348	-0.127248	0.000014
C28	C	2.250348	0.372752	0.500014
C29	C	1.737159	-0.550520	-0.148922
C30	C	2.237159	-0.050520	0.351078
C31	C	1.737145	-0.550516	0.148961
C32	C	2.237145	-0.050516	0.648961
C33	C	1.740080	-0.456461	0.148962
C34	C	2.240080	0.043539	0.648962
C35	C	1.741552	-0.409431	0.000019
C36	C	2.241552	0.090569	0.500019
C37	C	1.740089	-0.456456	-0.148925
C38	C	2.240089	0.043544	0.351075
C39	C	1.741528	-0.409428	0.297904
C40	C	2.241528	0.090572	0.797904
C41	C	1.744461	-0.315368	0.297911
C42	C	2.244461	0.184632	0.797911
C43	C	1.745944	-0.268336	0.148966
C44	C	2.245944	0.231664	0.648966
C45	C	1.744483	-0.315367	0.000016
C46	C	2.244483	0.184633	0.500016
C47	C	1.745955	-0.268337	-0.148927
C48	C	2.245955	0.231663	0.351073
C49	C	1.744504	-0.315366	-0.297879
C50	C	2.244504	0.184634	0.202121
C51	C	1.741572	-0.409425	-0.297870
C52	C	2.241572	0.090575	0.202130
C53	C	1.748876	-0.174278	0.148957
C54	C	2.248876	0.325722	0.648957
C55	C	1.748885	-0.174273	-0.148930
C56	C	2.248885	0.325727	0.351070
C57	C	2.012734	0.133220	0.000025
C58	C	2.512734	0.633220	0.500025
C59	C	2.176515	0.136335	0.000017
C60	C	2.676515	0.636335	0.500017
C61	C	1.732576	0.302343	0.000022
C62	C	2.232576	0.802343	0.500022
C63	C	1.735687	0.402450	0.000021
C64	C	2.235687	0.902450	0.500021
N65	N	1.743009	0.137598	0.425702
N66	N	2.243009	0.637598	0.925702
N67	N	1.743038	0.137597	-0.425652
N68	N	2.243038	0.637597	0.074348
H69	H	1.745692	-0.277061	-0.419148
H70	H	2.245692	0.222939	0.080852
C71	C	1.737420	-0.541067	0.443404
C72	C	2.237420	-0.041067	0.943404
C73	C	1.735519	-0.602208	0.312674
C74	C	2.235519	-0.102208	0.812674
H75	H	1.736408	-0.572983	0.544477
H76	H	2.236408	-0.072983	1.044477
H77	H	1.824527	-0.510562	0.437212
H78	H	2.324527	-0.010562	0.937212
H79	H	1.652597	-0.498199	0.437196
H80	H	2.152597	0.001801	0.937196
H81	H	1.820349	-0.645072	0.318875
H82	H	2.320349	-0.145072	0.818875
H83	H	1.648403	-0.632728	0.318869
H84	H	2.148403	-0.132728	0.818869
C85	C	1.732677	-0.694700	-0.281204
C86	C	2.232677	-0.194700	0.218796
C87	C	1.735558	-0.602209	-0.312646
C88	C	2.235558	-0.102209	0.187354
H89	H	1.731678	-0.726608	-0.382283
H90	H	2.231678	-0.226608	0.117717
H91	H	1.818155	-0.716284	-0.220019
H92	H	2.318155	-0.216284	0.279981
H93	H	1.646225	-0.703933	-0.220006
H94	H	2.146225	-0.203933	0.279994
H95	H	1.822015	-0.592975	-0.373833
H96	H	2.322015	-0.092975	0.126167
H97	H	1.650071	-0.580618	-0.373856
H98	H	2.150071	-0.080618	0.126144
H99	H	1.740390	-0.447724	-0.419139
H100	H	2.240390	0.052276	0.080861
C101	C	1.753350	-0.030092	0.281215
C102	C	2.253350	0.469908	0.781215
C103	C	1.750464	-0.122582	0.312667
C104	C	2.250464	0.377418	0.812667
H105	H	1.754323	0.001821	0.382291
H106	H	2.254323	0.501821	0.882291
H107	H	1.839798	-0.020860	0.220040
H108	H	2.339798	0.479140	0.720040
H109	H	1.667868	-0.008509	0.220005
H110	H	2.167868	0.491491	0.720005
H111	H	1.835952	-0.144166	0.373867
H112	H	2.335952	0.355834	0.873867
H113	H	1.664007	-0.131819	0.373868
H114	H	2.164007	0.368181	0.873868
H115	H	1.740321	-0.447727	0.419165
H116	H	2.240321	0.052273	0.919165
H117	H	1.750091	-0.135988	-0.270219
H118	H	2.250091	0.364012	0.229781
H119	H	1.745648	-0.277084	0.419197
H120	H	2.245648	0.222916	0.919197
