data_functionalizedCrystal
_audit_creation_method	'MofGen! by Chris Wilmer'
_symmetry_space_group_name_H-M	'P1'
_symmetry_Int_Tables_number	1
_symmetry_cell_setting	triclinic
loop_
_symmetry_equiv_pos_as_xyz
  x,y,z
_cell_length_a	18.101398
_cell_length_b	12.759400
_cell_length_c	12.759393
_cell_angle_alpha	90.024224
_cell_angle_beta	89.988925
_cell_angle_gamma	90.002149
loop_
_atom_site_label
_atom_site_type_symbol
_atom_site_fract_x
_atom_site_fract_y
_atom_site_fract_z
Zn1	Zn	-1.132283	-0.418362	0.593824
Zn2	Zn	-1.132235	-0.594077	0.418164
Zn3	Zn	-1.008437	-0.418397	0.418186
Zn4	Zn	-1.008454	-0.593983	0.593827
O5	O	-1.070352	-0.506205	0.506000
O6	O	-1.235910	-0.441695	0.570512
O7	O	-1.115785	-0.570827	0.271145
O8	O	-1.024879	-0.271371	0.441493
O9	O	-1.235874	-0.570793	0.441455
O10	O	-1.115868	-0.271345	0.570534
O11	O	-1.024832	-0.441755	0.271162
O12	O	-0.904806	-0.441664	0.441496
O13	O	-1.024908	-0.570633	0.740848
O14	O	-0.904819	-0.570667	0.570539
O15	O	-1.115885	-0.441604	0.740846
O16	O	-1.115801	-0.741086	0.441458
O17	O	-1.024860	-0.741017	0.570517
C18	C	-0.877942	-0.506160	0.506020
C19	C	-0.795628	-0.506166	0.506054
C20	C	-0.496537	-0.506222	0.506019
C21	C	-0.527894	-0.587780	0.586807
C22	C	-0.613513	-0.587526	0.587137
C23	C	-0.644919	-0.506195	0.506036
C24	C	-0.613827	-0.395532	0.536275
C25	C	-0.528183	-0.396020	0.536852
C26	C	-0.528090	-0.534352	0.394795
C27	C	-0.613741	-0.536782	0.395387
C28	C	-0.728779	-0.506173	0.506044
C29	C	-0.412677	-0.506237	0.506013
C30	C	-1.070347	-0.779172	0.506008
C31	C	-1.070413	-0.895949	0.506046
C32	C	-1.070403	-0.506104	0.780034
C33	C	-1.070425	-0.506061	0.896810
C34	C	-0.263514	-0.506246	0.505988
C35	C	-0.345828	-0.506251	0.506001
C36	C	-1.070377	-0.232171	0.506015
C37	C	-1.070388	-0.115395	0.506022
C38	C	-1.023024	-0.060544	0.438841
C39	C	-1.023034	0.049180	0.438855
C40	C	-1.117779	0.049193	0.573235
C41	C	-1.117765	-0.060529	0.573225
C42	C	-0.975647	-0.115411	0.371638
C43	C	-0.928280	-0.060560	0.304450
C44	C	-0.928290	0.049164	0.304465
C45	C	-0.975668	0.104038	0.371667
C46	C	-1.070344	-0.506229	0.233033
C47	C	-1.070466	-0.505976	0.116257
C48	C	-1.117787	-0.573243	0.951661
C49	C	-1.117809	-0.573198	1.061385
C50	C	-1.023102	-0.438787	1.061398
C51	C	-1.023084	-0.438827	0.951676
C52	C	-1.165129	-0.640477	0.896796
C53	C	-1.212494	-0.707665	0.951647
C54	C	-1.212516	-0.707621	1.061371
C55	C	-1.165173	-0.640388	1.116244
H56	H	-0.634011	-0.568914	0.669546
C57	C	-0.641289	-0.311212	0.459257
H58	H	-0.621829	-0.244926	0.478981
H59	H	-0.693722	-0.308588	0.460867
H60	H	-0.625238	-0.328097	0.390398
H61	H	-0.507810	-0.474946	0.334600
C62	C	-0.642607	-0.462358	0.309698
H63	H	-0.622895	-0.482680	0.243738
H64	H	-0.627734	-0.392661	0.325217
H65	H	-0.695004	-0.465826	0.307266
C66	C	-0.641192	-0.646794	0.364574
H67	H	-0.622143	-0.664851	0.297572
H68	H	-0.693644	-0.647020	0.362218
H69	H	-0.624714	-0.696388	0.414921
H70	H	-0.889702	-0.105246	0.249744
C71	C	-0.970988	-0.364931	0.891331
H72	H	-0.977764	-0.374578	0.818127
H73	H	-0.921230	-0.380282	0.909310
H74	H	-0.981843	-0.294334	0.909316
C75	C	-0.641917	-0.698385	0.561549
H76	H	-0.601113	-0.743983	0.550864
H77	H	-0.671165	-0.696098	0.499786
H78	H	-0.670986	-0.723478	0.618232
C79	C	-0.876189	0.109497	0.230566
H80	H	-0.847977	0.061103	0.190539
H81	H	-0.843931	0.152322	0.270757
H82	H	-0.904522	0.152275	0.184790
H83	H	-0.507307	-0.670110	0.568070
H84	H	-1.165201	-0.640348	1.205589
C85	C	-0.498843	-0.562952	0.697496
H86	H	-0.467689	-0.503096	0.694689
H87	H	-0.471603	-0.621149	0.723198
H88	H	-0.539320	-0.549270	0.742887
H89	H	-0.975635	-0.204753	0.371617
H90	H	-0.975671	0.193382	0.371676
H91	H	-1.156324	-0.105189	0.627942
C92	C	-0.642792	-0.362732	0.644935
H93	H	-0.673826	-0.416320	0.672016
H94	H	-0.670140	-0.299494	0.638789
H95	H	-0.602269	-0.352173	0.691049
H96	H	-0.506503	-0.613667	0.367312
H97	H	-1.156353	0.093879	0.627947
C98	C	-1.264568	-0.781616	0.891296
H99	H	-1.292784	-0.821614	0.939681
H100	H	-1.236226	-0.827401	0.848496
H101	H	-1.296835	-0.741448	0.848491
H102	H	-0.508216	-0.372162	0.618161
C103	C	-1.165108	-0.640526	0.776104
H104	H	-1.200089	-0.690183	0.751281
H105	H	-1.117311	-0.658683	0.751285
H106	H	-1.177926	-0.572738	0.751285
H107	H	-0.984557	-0.384050	1.106085
H108	H	-1.251088	-0.762321	1.106028
H109	H	-0.507437	-0.333075	0.480707
