data_functionalizedCrystal
_audit_creation_method	'MofGen! by Chris Wilmer'
_symmetry_space_group_name_H-M	'P1'
_symmetry_Int_Tables_number	1
_symmetry_cell_setting	triclinic
loop_
_symmetry_equiv_pos_as_xyz
  x,y,z
_cell_length_a	16.625548
_cell_length_b	19.805405
_cell_length_c	19.805399
_cell_angle_alpha	89.970699
_cell_angle_beta	89.981391
_cell_angle_gamma	90.027478
loop_
_atom_site_label
_atom_site_type_symbol
_atom_site_fract_x
_atom_site_fract_y
_atom_site_fract_z
Zn1	Zn	1.232643	-0.269460	-0.382694
Zn2	Zn	1.732643	0.230540	0.117306
Zn3	Zn	1.232541	-0.382648	-0.269502
Zn4	Zn	1.732541	0.117352	0.230498
Zn5	Zn	1.097809	-0.269480	-0.269521
Zn6	Zn	1.597809	0.230520	0.230479
Zn7	Zn	1.097766	-0.382614	-0.382651
Zn8	Zn	1.597766	0.117386	0.117349
O9	O	1.165190	-0.326051	-0.326092
O10	O	1.665190	0.173949	0.173908
O11	O	1.345462	-0.284480	-0.367689
O12	O	1.845462	0.215520	0.132311
O13	O	1.214645	-0.367659	-0.174788
O14	O	1.714645	0.132341	0.325212
O15	O	1.115756	-0.174761	-0.284559
O16	O	1.615756	0.325239	0.215441
O17	O	1.345387	-0.367639	-0.284528
O18	O	1.845387	0.132361	0.215472
O19	O	1.214817	-0.174746	-0.367707
O20	O	1.714817	0.325254	0.132293
O21	O	1.115657	-0.284515	-0.174802
O22	O	1.615657	0.215485	0.325198
O23	O	0.984971	-0.284482	-0.284517
O24	O	1.484971	0.215518	0.215483
O25	O	1.115682	-0.367581	-0.477373
O26	O	1.615682	0.132419	0.022627
O27	O	0.984939	-0.367601	-0.367634
O28	O	1.484939	0.132399	0.132366
O29	O	1.214775	-0.284447	-0.477405
O30	O	1.714775	0.215553	0.022595
O31	O	1.214602	-0.477360	-0.284486
O32	O	1.714602	0.022640	0.215514
O33	O	1.115583	-0.477335	-0.367616
O34	O	1.615583	0.022665	0.132384
C35	C	1.165099	-0.501907	-0.326059
C36	C	1.665099	-0.001907	0.173941
C37	C	1.165134	-0.577139	-0.326068
C38	C	1.665134	-0.077139	0.173932
C39	C	0.955699	-0.326041	-0.326073
C40	C	1.455699	0.173959	0.173927
C41	C	0.866078	-0.326053	-0.326081
C42	C	1.366078	0.173947	0.173919
C43	C	1.216743	-0.612473	-0.282828
C44	C	1.716743	-0.112473	0.217172
C45	C	1.216778	-0.683162	-0.282843
C46	C	1.716778	-0.183162	0.217157
C47	C	1.165198	-0.718514	-0.326095
C48	C	1.665198	-0.218514	0.173905
C49	C	1.113586	-0.683174	-0.369340
C50	C	1.613586	-0.183174	0.130660
C51	C	1.113557	-0.612487	-0.369328
C52	C	1.613557	-0.112487	0.130672
C53	C	1.113705	-0.968248	-0.369390
C54	C	1.613705	-0.468248	0.130610
C55	C	1.113737	-1.038940	-0.369398
C56	C	1.613737	-0.538940	0.130602
C57	C	1.216926	-1.038922	-0.282905
C58	C	1.716926	-0.538922	0.217095
C59	C	1.216896	-0.968235	-0.282893
C60	C	1.716896	-0.468235	0.217107
C61	C	1.165288	-0.932901	-0.326140
C62	C	1.665288	-0.432901	0.173860
C63	C	1.165253	-0.856253	-0.326124
C64	C	1.665253	-0.356253	0.173876
C65	C	1.165229	-0.795161	-0.326108
C66	C	1.665229	-0.295161	0.173892
C67	C	0.537902	-0.326057	-0.326110
C68	C	1.037902	0.173943	0.173890
C69	C	0.629211	-0.326054	-0.326100
C70	C	1.129211	0.173946	0.173900
C71	C	0.701987	-0.326056	-0.326095
C72	C	1.201987	0.173944	0.173905
C73	C	0.793301	-0.326052	-0.326086
C74	C	1.293301	0.173948	0.173914
C75	C	1.375499	-0.326061	-0.326111
C76	C	1.875499	0.173939	0.173889
C77	C	1.465120	-0.326065	-0.326120
C78	C	1.965120	0.173935	0.173880
C79	C	1.165235	-0.326008	-0.502635
C80	C	1.665235	0.173992	-0.002635
C81	C	1.165254	-0.325990	-0.577867
C82	C	1.665254	0.174010	-0.077867
C83	C	1.165303	-0.149508	-0.326140
C84	C	1.665303	0.350492	0.173860
C85	C	1.165351	-0.074276	-0.326160
C86	C	1.665351	0.425724	0.173840
C87	C	1.216853	-0.282700	-0.613229
C88	C	1.716853	0.217300	-0.113229
C89	C	1.216862	-0.282680	-0.683917
C90	C	1.716862	0.217320	-0.183917
C91	C	1.165274	-0.325954	-0.719243
C92	C	1.665274	0.174046	-0.219243
C93	C	1.113669	-0.369246	-0.683876
C94	C	1.613669	0.130754	-0.183876
C95	C	1.113658	-0.369262	-0.613189
C96	C	1.613658	0.130738	-0.113189
C97	C	1.113715	-0.369183	-0.968949
C98	C	1.613715	0.130817	-0.468949
C99	C	1.113732	-0.369166	-1.039642
C100	C	1.613732	0.130834	-0.539642
C101	C	1.216919	-0.282601	-1.039678
C102	C	1.716919	0.217399	-0.539678
C103	C	1.216907	-0.282617	-0.968991
C104	C	1.716907	0.217383	-0.468991
C105	C	1.165300	-0.325906	-0.933630
C106	C	1.665300	0.174094	-0.433630
C107	C	1.165290	-0.325926	-0.856982
C108	C	1.665290	0.174074	-0.356982
C109	C	1.165287	-0.325938	-0.795890
C110	C	1.665287	0.174062	-0.295890
C111	C	1.165191	-0.326044	-0.150236
C112	C	1.665191	0.173956	0.349764
C113	C	1.165328	-0.325872	-0.075005
C114	C	1.665328	0.174128	0.424995
H115	H	1.258742	-0.583694	-0.247604
H116	H	1.758742	-0.083694	0.252396
O117	O	1.058026	-0.415920	-0.721975
O118	O	1.558026	0.084080	-0.221975
H119	H	0.994750	-0.404304	-0.708405
H120	H	1.494750	0.095696	-0.208405
H121	H	1.071593	-0.711964	-0.404560
H122	H	1.571593	-0.211964	0.095440
H123	H	1.258802	-0.711928	-0.247631
H124	H	1.758802	-0.211928	0.252369
H125	H	1.071683	-0.939485	-0.404602
H126	H	1.571683	-0.439485	0.095398
O127	O	1.057884	-0.574371	-0.415958
O128	O	1.557884	-0.074371	0.084042
H129	H	1.022014	-0.610828	-0.446030
H130	H	1.522014	-0.110828	0.053970
O131	O	1.272616	-1.077030	-0.236275
O132	O	1.772616	-0.577030	0.263725
H133	H	1.263987	-1.132123	-0.243558
H134	H	1.763987	-0.632123	0.256442
O135	O	1.057994	-0.415944	-0.575043
O136	O	1.557994	0.084056	-0.075043
H137	H	1.022124	-0.446034	-0.611481
H138	H	1.522124	0.053966	-0.111481
O139	O	1.272533	-0.930103	-0.236247
O140	O	1.772533	-0.430103	0.263753
H141	H	1.308434	-0.966549	-0.206186
H142	H	1.808434	-0.466549	0.293814
O143	O	1.058015	-0.415837	-0.930814
O144	O	1.558015	0.084163	-0.430814
H145	H	1.022137	-0.445915	-0.967256
H146	H	1.522137	0.054085	-0.467256
O147	O	1.058109	-1.077075	-0.416055
O148	O	1.558109	-0.577075	0.083945
H149	H	1.022223	-1.040630	-0.446132
H150	H	1.522223	-0.540630	0.053868
O151	O	1.272495	-0.236025	-0.575128
O152	O	1.772495	0.263975	-0.075128
H153	H	1.308370	-0.205915	-0.611596
H154	H	1.808370	0.294085	-0.111596
H155	H	1.258881	-0.247430	-0.712705
H156	H	1.758881	0.252570	-0.212705
H157	H	1.258918	-0.247381	-0.940232
H158	H	1.758918	0.252619	-0.440232
O159	O	1.272568	-0.235903	-1.077828
O160	O	1.772568	0.264097	-0.577828
H161	H	1.335843	-0.247521	-1.064278
H162	H	1.835843	0.252479	-0.564278
O163	O	1.058081	-0.415834	-1.077747
O164	O	1.558081	0.084166	-0.577747
H165	H	1.022185	-0.445933	-1.041284
H166	H	1.522185	0.054067	-0.541284
