data_functionalizedCrystal
_audit_creation_method	'MofGen! by Chris Wilmer'
_symmetry_space_group_name_H-M	'P1'
_symmetry_Int_Tables_number	1
_symmetry_cell_setting	triclinic
loop_
_symmetry_equiv_pos_as_xyz
  x,y,z
_cell_length_a	16.120566
_cell_length_b	16.120484
_cell_length_c	16.120297
_cell_angle_alpha	95.614431
_cell_angle_beta	89.874982
_cell_angle_gamma	89.831930
loop_
_atom_site_label
_atom_site_type_symbol
_atom_site_fract_x
_atom_site_fract_y
_atom_site_fract_z
Zn1	Zn	-1.224984	-0.422255	-0.554879
Zn2	Zn	-0.891651	-0.088922	-0.221546
Zn3	Zn	-0.558318	0.244412	0.111788
Zn4	Zn	-1.224880	-0.554939	-0.422184
Zn5	Zn	-0.891546	-0.221606	-0.088851
Zn6	Zn	-0.558213	0.111728	0.244483
Zn7	Zn	-1.093724	-0.408172	-0.408115
Zn8	Zn	-0.760391	-0.074838	-0.074781
Zn9	Zn	-0.427057	0.258495	0.258552
Zn10	Zn	-1.078877	-0.554173	-0.554109
Zn11	Zn	-0.745544	-0.220839	-0.220775
Zn12	Zn	-0.412211	0.112494	0.112558
O13	O	-1.155616	-0.484885	-0.484822
O14	O	-0.822283	-0.151551	-0.151488
O15	O	-0.488950	0.181782	0.181845
O16	O	-1.341006	-0.446070	-0.543487
O17	O	-1.007673	-0.112737	-0.210154
O18	O	-0.674339	0.220596	0.123179
O19	O	-1.213651	-0.529897	-0.303685
O20	O	-0.880318	-0.196563	0.029648
O21	O	-0.546985	0.136770	0.362981
O22	O	-1.117393	-0.293409	-0.422018
O23	O	-0.784060	0.039924	-0.088684
O24	O	-0.450726	0.373258	0.244649
O25	O	-1.340929	-0.543553	-0.445997
O26	O	-1.007596	-0.210219	-0.112663
O27	O	-0.674263	0.123114	0.220670
O28	O	-1.213829	-0.303756	-0.529845
O29	O	-0.880496	0.029577	-0.196512
O30	O	-0.547163	0.362911	0.136822
O31	O	-1.117292	-0.422067	-0.293349
O32	O	-0.783958	-0.088734	0.039985
O33	O	-0.450625	0.244599	0.373318
O34	O	-0.975719	-0.421324	-0.421271
O35	O	-0.642386	-0.087991	-0.087937
O36	O	-0.309052	0.245342	0.245396
O37	O	-1.092089	-0.542247	-0.670843
O38	O	-0.758756	-0.208913	-0.337510
O39	O	-0.425423	0.124420	-0.004177
O40	O	-0.964811	-0.528591	-0.528532
O41	O	-0.631478	-0.195257	-0.195198
O42	O	-0.298145	0.138076	0.138135
O43	O	-1.199433	-0.445327	-0.671409
O44	O	-0.866100	-0.111994	-0.338076
O45	O	-0.532767	0.221339	-0.004743
O46	O	-1.199255	-0.671468	-0.445250
O47	O	-0.865922	-0.338135	-0.111916
O48	O	-0.532589	-0.004801	0.221417
O49	O	-1.091988	-0.670905	-0.542174
O50	O	-0.758655	-0.337572	-0.208841
O51	O	-0.425321	-0.004238	0.124492
C52	C	-0.940178	-0.473347	-0.473291
C53	C	-0.606845	-0.140013	-0.139958
C54	C	-0.273512	0.193320	0.193375
C55	C	-0.848011	-0.468432	-0.468379
C56	C	-0.514678	-0.135098	-0.135046
C57	C	-0.181344	0.198235	0.198287
C58	C	-1.144021	-0.701429	-0.495174
C59	C	-0.810687	-0.368096	-0.161841
C60	C	-0.477354	-0.034763	0.171492
C61	C	-1.139134	-0.794074	-0.499635
C62	C	-0.805801	-0.460740	-0.166302
C63	C	-0.472468	-0.127407	0.167031
C64	C	-0.679260	-0.459439	-0.459418
C65	C	-0.345927	-0.126106	-0.126084
C66	C	-0.012593	0.207227	0.207249
C67	C	-0.632809	-0.510402	-0.510236
C68	C	-0.299476	-0.177068	-0.176902
C69	C	0.033858	0.156265	0.156431
C70	C	-0.538910	-0.505398	-0.505249
C71	C	-0.205577	-0.172065	-0.171916
C72	C	0.127756	0.161268	0.161417
C73	C	-0.773167	-0.464442	-0.464403
C74	C	-0.439834	-0.131108	-0.131070
C75	C	-0.106501	0.202225	0.202264
C76	C	-0.371896	-0.496470	-0.496384
C77	C	-0.038563	-0.163137	-0.163051
C78	C	0.294771	0.170197	0.170283
C79	C	-0.464063	-0.501412	-0.501277
C80	C	-0.130730	-0.168079	-0.167943
C81	C	0.202604	0.165255	0.165390
C82	C	-1.130217	-0.963697	-0.507797
C83	C	-0.796884	-0.630364	-0.174464
C84	C	-0.463551	-0.297030	0.158869
C85	C	-1.181163	-1.005240	-0.461868
C86	C	-0.847830	-0.671907	-0.128534
C87	C	-0.514497	-0.338573	0.204799
C88	C	-1.176202	-1.099624	-0.466409
C89	C	-0.842868	-0.766291	-0.133076
C90	C	-0.509535	-0.432958	0.200258
C91	C	-1.135178	-0.869304	-0.503257
C92	C	-0.801844	-0.535971	-0.169924
C93	C	-0.468511	-0.202638	0.163410
C94	C	-1.144117	-0.495272	-0.702213
C95	C	-0.810784	-0.161939	-0.368880
C96	C	-0.477450	0.171394	-0.035547
C97	C	-1.139216	-0.499699	-0.794853
C98	C	-0.805883	-0.166366	-0.461519
C99	C	-0.472550	0.166968	-0.128186
C100	C	-1.167279	-0.267496	-0.474448
C101	C	-0.833946	0.065837	-0.141114
C102	C	-0.500612	0.399171	0.192219
C103	C	-1.172249	-0.174858	-0.470027
C104	C	-0.838915	0.158475	-0.136694
C105	C	-0.505582	0.491809	0.196640
C106	C	-1.130240	-0.507761	-0.964463
C107	C	-0.796907	-0.174427	-0.631130
C108	C	-0.463573	0.158906	-0.297797
C109	C	-1.181169	-0.461767	-1.006028
C110	C	-0.847836	-0.128434	-0.672695
C111	C	-0.514503	0.204899	-0.339362
C112	C	-1.176175	-0.466253	-1.100406
C113	C	-0.842841	-0.132920	-0.767072
C114	C	-0.509508	0.200414	-0.433739
C115	C	-1.135233	-0.503276	-0.870078
C116	C	-0.801900	-0.169943	-0.536744
C117	C	-0.468567	0.163390	-0.203411
C118	C	-1.167122	-0.474480	-0.268275
C119	C	-0.833789	-0.141146	0.065058
C120	C	-0.500455	0.192187	0.398391
C121	C	-1.172196	-0.469827	-0.175634
C122	C	-0.838862	-0.136493	0.157700
C123	C	-0.505529	0.196840	0.491033
H124	H	-0.648509	-0.412055	-0.412169
H125	H	-0.315176	-0.078722	-0.078836
H126	H	0.018157	0.254611	0.254497
H127	H	-1.228521	-0.419021	-0.970734
H128	H	-0.895188	-0.085688	-0.637400
H129	H	-0.561855	0.247645	-0.304067
O130	O	-1.067522	-0.564381	-1.011211
O131	O	-0.734188	-0.231047	-0.677878
O132	O	-0.400855	0.102286	-0.344545
H133	H	-1.030977	-0.597382	-0.966206
H134	H	-0.697644	-0.264049	-0.632873
H135	H	-0.364310	0.069285	-0.299540
H136	H	-0.663561	-0.557789	-0.557488
H137	H	-0.330228	-0.224456	-0.224155
H138	H	0.003105	0.108878	0.109178
O139	O	-1.243874	-0.958467	-0.405258
O140	O	-0.910541	-0.625134	-0.071924
O141	O	-0.577207	-0.291800	0.261409
H142	H	-1.237975	-0.890599	-0.410523
H143	H	-0.904642	-0.557265	-0.077189
H144	H	-0.571309	-0.223932	0.256144
O145	O	-1.067494	-1.010468	-0.564384
O146	O	-0.734161	-0.677135	-0.231051
O147	O	-0.400827	-0.343801	0.102283
H148	H	-1.073384	-1.078334	-0.559100
H149	H	-0.740051	-0.745000	-0.225767
H150	H	-0.406718	-0.411667	0.107567
