data_functionalizedCrystal
_audit_creation_method	'MofGen! by Chris Wilmer'
_symmetry_space_group_name_H-M	'P1'
_symmetry_Int_Tables_number	1
_symmetry_cell_setting	triclinic
loop_
_symmetry_equiv_pos_as_xyz
  x,y,z
_cell_length_a	14.421503
_cell_length_b	16.992694
_cell_length_c	15.944493
_cell_angle_alpha	92.928367
_cell_angle_beta	89.989835
_cell_angle_gamma	89.997471
loop_
_atom_site_label
_atom_site_type_symbol
_atom_site_fract_x
_atom_site_fract_y
_atom_site_fract_z
O1	O	0.076976	-1.040371	0.178099
O2	O	0.576976	-0.540371	0.678099
O3	O	0.077003	-0.812086	0.176145
O4	O	0.577003	-0.312086	0.676145
O5	O	0.076996	-0.932486	0.055264
O6	O	0.576996	-0.432486	0.555264
O7	O	0.076982	-0.919971	0.298980
O8	O	0.576982	-0.419971	0.798980
O9	O	-0.077227	-0.932466	0.055281
O10	O	0.422773	-0.432466	0.555281
O11	O	-0.077220	-0.812066	0.176163
O12	O	0.422780	-0.312066	0.676163
O13	O	-0.077248	-1.040351	0.178117
O14	O	0.422752	-0.540351	0.678117
Cu15	Cu	-0.091316	-0.926207	0.177142
Cu16	Cu	0.408684	-0.426207	0.677142
Cu17	Cu	0.091071	-0.926230	0.177120
Cu18	Cu	0.591071	-0.426230	0.677120
O19	O	-0.077241	-0.919951	0.298998
O20	O	0.422759	-0.419951	0.798998
C21	C	-0.000105	-0.782864	0.173640
C22	C	0.499895	-0.282864	0.673640
C23	C	-0.000094	-0.695821	0.166140
C24	C	0.499906	-0.195821	0.666140
C25	C	-0.000111	-0.931964	0.023943
C26	C	0.499889	-0.431964	0.523943
C27	C	-0.000099	-0.930431	-0.069408
C28	C	0.499901	-0.430431	0.430592
N29	N	-0.219597	-0.926196	0.177156
N30	N	0.280403	-0.426196	0.677156
C31	C	-0.469248	-0.870513	0.233024
C32	C	0.030752	-0.370513	0.733024
C33	C	-0.531060	-0.941361	0.254084
C34	C	-0.031060	-0.441361	0.754084
C35	C	-0.408759	-0.926215	0.177137
C36	C	0.091241	-0.426215	0.677137
C37	C	-0.531040	-0.855385	0.156099
C38	C	-0.031040	-0.355385	0.656099
C39	C	-0.591480	-0.926227	0.177121
C40	C	-0.091480	-0.426227	0.677121
C41	C	-0.469210	-0.997099	0.198237
C42	C	0.030790	-0.497099	0.698237
C43	C	-0.469185	-0.911076	0.100216
C44	C	0.030815	-0.411076	0.600216
C45	C	-0.530969	-0.981975	0.121247
C46	C	-0.030969	-0.481975	0.621247
C47	C	-0.303497	-0.926207	0.177149
C48	C	0.196503	-0.426207	0.677149
C49	C	-0.696739	-0.926243	0.177109
C50	C	-0.196739	-0.426243	0.677109
N51	N	0.219352	-0.926247	0.177099
N52	N	0.719352	-0.426247	0.677099
C53	C	-0.000138	-1.069573	0.180622
C54	C	0.499862	-0.569573	0.680622
C55	C	-0.000143	-1.156616	0.188122
C56	C	0.499857	-0.656616	0.688122
C57	C	-0.000099	-0.645570	0.238506
C58	C	0.499901	-0.145570	0.738506
C59	C	-0.000111	-0.563784	0.231454
C60	C	0.499889	-0.063784	0.731454
C61	C	-0.000112	-0.532251	0.152035
C62	C	0.499888	-0.032251	0.652035
C63	C	-0.000110	-0.582508	0.079664
C64	C	0.499890	-0.082508	0.579664
C65	C	-0.000104	-0.664292	0.086717
C66	C	0.499896	-0.164292	0.586717
C67	C	-0.000135	-0.288657	0.122803
C68	C	0.499865	0.211343	0.622803
C69	C	-0.000138	-0.206867	0.115756
C70	C	0.499862	0.293133	0.615756
C71	C	-0.000141	-0.188149	0.267547
C72	C	0.499859	0.311851	0.767547
C73	C	-0.000130	-0.269935	0.274593
C74	C	0.499870	0.230065	0.774593
C75	C	-0.000132	-0.320185	0.202221
C76	C	0.499868	0.179815	0.702221
N77	N	-0.000122	-0.448653	0.144825
N78	N	0.499878	0.051347	0.644825
N79	N	-0.000129	-0.403781	0.209433
N80	N	0.499871	0.096219	0.709433
C81	C	-0.000126	-1.001301	-0.300415
C82	C	0.499874	-0.501301	0.199585
C83	C	0.075919	-0.963093	-0.353555
C84	C	0.575919	-0.463093	0.146445
C85	C	-0.000110	-0.927589	-0.240320
C86	C	0.499890	-0.427589	0.259680
C87	C	-0.076133	-0.963056	-0.353515
C88	C	0.423867	-0.463056	0.146485
C89	C	-0.000125	-0.924850	-0.405413
C90	C	0.499875	-0.424850	0.094587
C91	C	0.075997	-0.889401	-0.292230
C92	C	0.575997	-0.389401	0.207770
C93	C	-0.076124	-0.889375	-0.292186
C94	C	0.423876	-0.389375	0.207814
C95	C	-0.000061	-0.851113	-0.345296
C96	C	0.499939	-0.351113	0.154704
C97	C	-0.000101	-0.929169	-0.145214
C98	C	0.499899	-0.429169	0.354786
C99	C	-0.000128	-0.923264	-0.500516
C100	C	0.499872	-0.423264	-0.000516
C101	C	-0.000131	-0.920472	0.330319
C102	C	0.499869	-0.420472	0.830319
C103	C	-0.000137	-0.922006	0.423670
C104	C	0.499863	-0.422006	0.923670
H105	H	-0.442147	-0.823455	0.280330
H106	H	0.057853	-0.323455	0.780330
H107	H	-0.000141	-0.147227	0.326467
H108	H	0.499859	0.352773	0.826467
H109	H	-0.442165	-1.057016	0.216101
H110	H	0.057835	-0.557016	0.716101
Br111	Br	-0.183280	-1.014950	-0.398242
Br112	Br	0.316720	-0.514950	0.101758
H113	H	-0.557900	-1.029137	0.073978
H114	H	-0.057900	-0.529137	0.573978
H115	H	0.140355	-0.858298	-0.265504
H116	H	0.640355	-0.358298	0.234496
H117	H	-0.000012	-0.787571	-0.365024
H118	H	0.499988	-0.287571	0.134976
H119	H	-0.441985	-0.898238	0.035191
H120	H	0.058015	-0.398238	0.535191
Br121	Br	-0.576313	-0.755542	0.126452
Br122	Br	-0.076313	-0.255542	0.626452
H123	H	-0.558238	-0.954177	0.319128
H124	H	-0.058238	-0.454177	0.819128
Br125	Br	-0.000118	-0.312724	0.382379
Br126	Br	0.499882	0.187276	0.882379
Br127	Br	-0.183272	-0.837538	-0.247355
Br128	Br	0.316728	-0.337538	0.252645
H129	H	-0.000097	-0.671237	0.303177
H130	H	0.499903	-0.171237	0.803177
H131	H	0.140202	-0.994231	-0.380420
H132	H	0.640202	-0.494231	0.119580
Br133	Br	-0.000018	-1.107126	-0.267266
Br134	Br	0.499982	-0.607126	0.232734
Br135	Br	-0.000115	-0.495589	0.329670
Br136	Br	0.499885	0.004411	0.829670
Br137	Br	-0.000159	-0.164072	0.007966
Br138	Br	0.499841	0.335928	0.507966
Br139	Br	-0.000120	-0.539714	-0.028121
Br140	Br	0.499880	-0.039714	0.471879
Br141	Br	-0.000141	-0.356844	0.024584
Br142	Br	0.499859	0.143156	0.524584
Br143	Br	-0.000106	-0.732491	-0.011498
Br144	Br	0.499894	-0.232491	0.488502
