data_functionalizedCrystal
_audit_creation_method	'MofGen! by Chris Wilmer'
_symmetry_space_group_name_H-M	'P1'
_symmetry_Int_Tables_number	1
_symmetry_cell_setting	triclinic
loop_
_symmetry_equiv_pos_as_xyz
  x,y,z
_cell_length_a	11.169417
_cell_length_b	18.215405
_cell_length_c	11.169409
_cell_angle_alpha	90.038667
_cell_angle_beta	90.019824
_cell_angle_gamma	90.024699
loop_
_atom_site_label
_atom_site_type_symbol
_atom_site_fract_x
_atom_site_fract_y
_atom_site_fract_z
Zn1	Zn	1.834850	-0.292907	0.678490
Zn2	Zn	2.084850	-0.042907	0.928490
Zn3	Zn	2.334850	0.207093	1.178490
Zn4	Zn	2.584850	0.457093	1.428490
Zn5	Zn	1.834692	-0.415999	0.477785
Zn6	Zn	2.084692	-0.165999	0.727785
Zn7	Zn	2.334692	0.084001	0.977785
Zn8	Zn	2.584692	0.334001	1.227785
Zn9	Zn	1.634136	-0.292952	0.477824
Zn10	Zn	1.884136	-0.042952	0.727824
Zn11	Zn	2.134136	0.207048	0.977824
Zn12	Zn	2.384136	0.457048	1.227824
Zn13	Zn	1.634096	-0.415939	0.678430
Zn14	Zn	1.884096	-0.165939	0.928430
Zn15	Zn	2.134096	0.084061	1.178430
Zn16	Zn	2.384096	0.334061	1.428430
O17	O	1.734443	-0.354449	0.578132
O18	O	1.984443	-0.104449	0.828132
O19	O	2.234443	0.145551	1.078132
O20	O	2.484443	0.395551	1.328132
O21	O	2.002779	-0.309242	0.651875
O22	O	2.252779	-0.059242	0.901875
O23	O	2.502779	0.190758	1.151875
O24	O	2.752779	0.440758	1.401875
O25	O	1.808038	-0.399720	0.309840
O26	O	2.058038	-0.149720	0.559840
O27	O	2.308038	0.100280	0.809840
O28	O	2.558038	0.350280	1.059840
O29	O	1.660844	-0.189962	0.504485
O30	O	1.910844	0.060038	0.754485
O31	O	2.160844	0.310038	1.004485
O32	O	2.410844	0.560038	1.254485
O33	O	2.002663	-0.399677	0.504417
O34	O	2.252663	-0.149677	0.754417
O35	O	2.502663	0.100323	1.004417
O36	O	2.752663	0.350323	1.254417
O37	O	1.808307	-0.189929	0.651913
O38	O	2.058307	0.060071	0.901913
O39	O	2.308307	0.310071	1.151913
O40	O	2.558307	0.560071	1.401913
O41	O	1.660691	-0.309318	0.309869
O42	O	1.910691	-0.059318	0.559869
O43	O	2.160691	0.190682	0.809869
O44	O	2.410691	0.440682	1.059869
O45	O	1.466181	-0.309260	0.504426
O46	O	1.716181	-0.059260	0.754426
O47	O	1.966181	0.190740	1.004426
O48	O	2.216181	0.440740	1.254426
O49	O	1.660776	-0.399574	0.846387
O50	O	1.910776	-0.149574	1.096387
O51	O	2.160776	0.100426	1.346387
O52	O	2.410776	0.350426	1.596387
O53	O	1.466152	-0.399618	0.651810
O54	O	1.716152	-0.149618	0.901810
O55	O	1.966152	0.100382	1.151810
O56	O	2.216152	0.350382	1.401810
O57	O	1.808269	-0.309184	0.846432
O58	O	2.058269	-0.059184	1.096432
O59	O	2.308269	0.190816	1.346432
O60	O	2.558269	0.440816	1.596432
O61	O	1.808000	-0.518975	0.504359
O62	O	2.058000	-0.268975	0.754359
O63	O	2.308000	-0.018975	1.004359
O64	O	2.558000	0.231025	1.254359
O65	O	1.660623	-0.518931	0.651772
O66	O	1.910623	-0.268931	0.901772
O67	O	2.160623	-0.018931	1.151772
O68	O	2.410623	0.231069	1.401772
C69	C	1.422619	-0.354438	0.578117
C70	C	1.672619	-0.104438	0.828117
C71	C	1.922619	0.145562	1.078117
C72	C	2.172619	0.395562	1.328117
C73	C	1.289219	-0.354451	0.578139
C74	C	1.539219	-0.104451	0.828139
C75	C	1.789219	0.145549	1.078139
C76	C	2.039219	0.395549	1.328139
C77	C	1.734323	-0.545656	0.578081
C78	C	1.984323	-0.295656	0.828081
C79	C	2.234323	-0.045656	1.078081
C80	C	2.484323	0.204344	1.328081
C81	C	1.734381	-0.627454	0.578099
C82	C	1.984381	-0.377454	0.828099
C83	C	2.234381	-0.127454	1.078099
C84	C	2.484381	0.122546	1.328099
C85	C	1.811345	-0.892510	0.501503
C86	C	2.061345	-0.642510	0.751503
C87	C	2.311345	-0.392510	1.001503
C88	C	2.561345	-0.142510	1.251503
C89	C	1.811295	-0.815652	0.501475
C90	C	2.061295	-0.565652	0.751475
C91	C	2.311295	-0.315652	1.001475
C92	C	2.561295	-0.065652	1.251475
C93	C	1.657691	-0.815647	0.654843
C94	C	1.907691	-0.565647	0.904843
C95	C	2.157691	-0.315647	1.154843
C96	C	2.407691	-0.065647	1.404843
C97	C	1.657735	-0.892504	0.654863
C98	C	1.907735	-0.642504	0.904863
C99	C	2.157735	-0.392504	1.154863
C100	C	2.407735	-0.142504	1.404863
C101	C	1.734569	-0.930934	0.578195
C102	C	1.984569	-0.680934	0.828195
C103	C	2.234569	-0.430934	1.078195
C104	C	2.484569	-0.180934	1.328195
C105	C	1.734475	-0.777218	0.578147
C106	C	1.984475	-0.527218	0.828147
C107	C	2.234475	-0.277218	1.078147
C108	C	2.484475	-0.027218	1.328147
C109	C	1.734421	-0.693884	0.578118
C110	C	1.984421	-0.443884	0.828118
C111	C	2.234421	-0.193884	1.078118
C112	C	2.484421	0.056116	1.328118
C113	C	1.734622	-1.014273	0.578222
C114	C	1.984622	-0.764273	0.828222
C115	C	2.234622	-0.514273	1.078222
C116	C	2.484622	-0.264273	1.328222
C117	C	2.047486	-0.354461	0.578148
C118	C	2.297486	-0.104461	0.828148
C119	C	2.547486	0.145539	1.078148
C120	C	2.797486	0.395539	1.328148
C121	C	2.180886	-0.354466	0.578155
C122	C	2.430886	-0.104466	0.828155
C123	C	2.680886	0.145534	1.078155
C124	C	2.930886	0.395534	1.328155
C125	C	1.734536	-0.354368	0.891175
C126	C	1.984536	-0.104368	1.141175
C127	C	2.234536	0.145632	1.391175
C128	C	2.484536	0.395632	1.641175
C129	C	1.734575	-0.354333	1.024575
C130	C	1.984575	-0.104333	1.274575
C131	C	2.234575	0.145667	1.524575
C132	C	2.484575	0.395667	1.774575
C133	C	1.734598	-0.162496	0.578210
C134	C	1.984598	0.087504	0.828210
C135	C	2.234598	0.337504	1.078210
C136	C	2.484598	0.587504	1.328210
C137	C	1.734663	-0.080697	0.578243
C138	C	1.984663	0.169303	0.828243
C139	C	2.234663	0.419303	1.078243
C140	C	2.484663	0.669303	1.328243
C141	C	1.734421	-0.354478	0.266307
C142	C	1.984421	-0.104478	0.516307
C143	C	2.234421	0.145522	0.766307
C144	C	2.484421	0.395522	1.016307
C145	C	1.734614	-0.354305	0.132908
C146	C	1.984614	-0.104305	0.382908
C147	C	2.234614	0.145695	0.632908
C148	C	2.484614	0.395695	0.882908
H149	H	1.873907	-0.923798	0.439074
H150	H	2.123907	-0.673798	0.689074
H151	H	2.373907	-0.423798	0.939074
H152	H	2.623907	-0.173798	1.189074
H153	H	1.595136	-0.784350	0.717266
H154	H	1.845136	-0.534350	0.967266
H155	H	2.095136	-0.284350	1.217266
H156	H	2.345136	-0.034350	1.467266
H157	H	1.873811	-0.784369	0.439024
H158	H	2.123811	-0.534369	0.689024
H159	H	2.373811	-0.284369	0.939024
H160	H	2.623811	-0.034369	1.189024
C161	C	1.573270	-0.934772	0.739234
C162	C	1.823270	-0.684772	0.989234
C163	C	2.073270	-0.434772	1.239234
C164	C	2.323270	-0.184772	1.489234
N165	N	1.509652	-0.966609	0.802777
N166	N	1.759652	-0.716609	1.052777
N167	N	2.009652	-0.466609	1.302777
N168	N	2.259652	-0.216609	1.552777
