data_functionalizedCrystal
_audit_creation_method	'MofGen! by Chris Wilmer'
_symmetry_space_group_name_H-M	'P1'
_symmetry_Int_Tables_number	1
_symmetry_cell_setting	triclinic
loop_
_symmetry_equiv_pos_as_xyz
  x,y,z
_cell_length_a	13.339070
_cell_length_b	14.971486
_cell_length_c	13.448316
_cell_angle_alpha	90.006811
_cell_angle_beta	90.006432
_cell_angle_gamma	99.621711
loop_
_atom_site_label
_atom_site_type_symbol
_atom_site_fract_x
_atom_site_fract_y
_atom_site_fract_z
O1	O	-1.342828	-0.448553	-0.082730
O2	O	-1.048230	-0.389678	-0.082724
O3	O	-1.203425	-0.290868	-0.082720
O4	O	-1.187633	-0.547363	-0.082734
O5	O	-1.203406	-0.290854	0.082664
O6	O	-1.048210	-0.389665	0.082660
O7	O	-1.342809	-0.448540	0.082654
Cu8	Cu	-1.195508	-0.419101	0.097758
Cu9	Cu	-1.195531	-0.419117	-0.097828
O10	O	-1.187614	-0.547350	0.082650
C11	C	-1.010519	-0.379726	-0.000031
C12	C	-0.898181	-0.350082	-0.000028
C13	C	-1.380520	-0.458491	-0.000041
C14	C	-1.492857	-0.488136	-0.000050
C15	C	-0.533667	-0.580579	-0.000057
C16	C	-0.639214	-0.608433	-0.000062
C17	C	-0.703961	-0.543848	-0.000053
C18	C	-0.663151	-0.451403	-0.000040
C19	C	-0.557594	-0.423545	-0.000042
C20	C	-0.727888	-0.386815	-0.000039
C21	C	-0.687078	-0.294370	-0.000025
C22	C	-0.581532	-0.266517	-0.000027
C23	C	-0.516785	-0.331102	-0.000036
C24	C	-0.833444	-0.414672	-0.000036
C25	C	-0.857372	-0.257639	-0.000022
C26	C	-0.751825	-0.229784	-0.000016
C27	C	-1.202709	-0.257362	-0.000028
C28	C	-1.200593	-0.157541	-0.000029
C29	C	-1.188330	-0.580856	-0.000044
C30	C	-1.190446	-0.680676	-0.000049
N31	N	-1.195499	-0.419091	0.235322
C32	C	-1.291766	-0.122857	-0.000030
C33	C	-1.289771	-0.029064	-0.000040
C34	C	-1.196602	0.030042	-0.000042
C35	C	-1.105422	-0.004648	-0.000044
C36	C	-1.107418	-0.098439	-0.000041
C37	C	-1.101269	0.190841	-0.000047
C38	C	-1.099273	0.284639	-0.000048
C39	C	-1.283622	0.260216	-0.000047
C40	C	-1.285618	0.166425	-0.000044
C41	C	-1.194437	0.131741	-0.000044
N42	N	-1.195548	-0.419121	-0.235392
C43	C	-1.264241	-0.375368	0.287364
C44	C	-1.264247	-0.375369	0.391467
C45	C	-1.195516	-0.419099	0.443527
C46	C	-1.126767	-0.462823	0.391477
C47	C	-1.126756	-0.462816	0.287376
C48	C	-1.126795	-0.462836	0.608457
C49	C	-1.126806	-0.462844	0.712566
C50	C	-1.264286	-0.375389	0.712549
C51	C	-1.264275	-0.375382	0.608448
C52	C	-1.195527	-0.419108	0.556405
H53	H	-0.789901	-0.566533	-0.000060
H54	H	-1.070799	-0.498424	0.433870
C55	C	-0.651291	-0.750846	-0.085101
C56	C	-0.684053	-0.710047	-0.000078
H57	H	-0.678965	-0.813583	-0.085107
H58	H	-0.673525	-0.723157	-0.142758
H59	H	-0.579162	-0.743479	-0.085089
H60	H	-0.756182	-0.717408	-0.000094
H61	H	-0.661825	-0.737744	0.057594
H62	H	-1.361484	0.118302	-0.000035
H63	H	-0.718583	-0.154514	-0.000014
H64	H	-0.866661	-0.489941	-0.000044
H65	H	-1.027020	0.162606	-0.000050
H66	H	-1.023407	0.332762	-0.000034
C67	C	-1.472189	-0.062625	-0.000015
C68	C	-1.389992	0.009061	-0.000030
H69	H	-1.534063	-0.039087	-0.000002
H70	H	-1.469148	-0.098707	-0.057684
H71	H	-1.469109	-0.098690	0.057663
H72	H	-1.393067	0.045122	-0.057712
H73	H	-1.393035	0.045157	0.057644
C74	C	-0.480750	-0.705842	0.084936
C75	C	-0.462503	-0.651567	-0.000073
H76	H	-0.436819	-0.749674	0.084918
H77	H	-0.468349	-0.669014	0.142602
H78	H	-0.549454	-0.735657	0.084929
H79	H	-0.393800	-0.621746	-0.000063
H80	H	-0.474895	-0.688399	-0.057754
H81	H	-1.357865	0.288460	-0.000050
H82	H	-0.430839	-0.308427	-0.000031
H83	H	-1.029563	0.043484	-0.000051
H84	H	-1.070837	-0.498453	0.754947
H85	H	-0.548308	-0.191242	-0.000027
C86	C	-0.924998	-0.064884	-0.000035
C87	C	-1.007198	-0.136567	-0.000037
H88	H	-0.863126	-0.088424	-0.000031
H89	H	-0.928063	-0.028819	-0.057704
H90	H	-0.928052	-0.028801	0.057642
H91	H	-1.004148	-0.172646	-0.057718
H92	H	-1.004132	-0.172647	0.057638
C93	C	-1.029795	-0.230610	-0.000004
C94	C	-0.928532	-0.186638	-0.000009
H95	H	-1.073728	-0.186780	0.000008
H96	H	-1.042180	-0.267433	-0.057675
H97	H	-1.042154	-0.267429	0.057672
H98	H	-0.916171	-0.149825	-0.057689
H99	H	-0.916141	-0.149800	0.057667
H100	H	-1.367634	-0.170976	-0.000023
H101	H	-1.320214	-0.339763	0.244984
C102	C	-1.400163	-0.288955	0.380994
C103	C	-1.339826	-0.327325	0.448672
H104	H	-1.446831	-0.259302	0.416312
H105	H	-1.358011	-0.246285	0.340414
H106	H	-1.436582	-0.335262	0.340368
H107	H	-1.303402	-0.281017	0.489293
H108	H	-1.381984	-0.369999	0.489269
C109	C	-1.323558	-0.235277	0.744593
C110	C	-1.339859	-0.327323	0.769743
H111	H	-1.370222	-0.205612	0.779901
H112	H	-1.256029	-0.208767	0.761681
H113	H	-1.333387	-0.229032	0.675142
H114	H	-1.330023	-0.333568	0.839194
H115	H	-1.407405	-0.353841	0.752662
H116	H	-1.320246	-0.339780	0.566061
H117	H	-1.070778	-0.498418	0.245004
H118	H	-1.070809	-0.498438	0.566088
