data_functionalizedCrystal
_audit_creation_method	'MofGen! by Chris Wilmer'
_symmetry_space_group_name_H-M	'P1'
_symmetry_Int_Tables_number	1
_symmetry_cell_setting	triclinic
loop_
_symmetry_equiv_pos_as_xyz
  x,y,z
_cell_length_a	10.489746
_cell_length_b	10.489741
_cell_length_c	16.053789
_cell_angle_alpha	92.864174
_cell_angle_beta	92.861662
_cell_angle_gamma	84.540238
loop_
_atom_site_label
_atom_site_type_symbol
_atom_site_fract_x
_atom_site_fract_y
_atom_site_fract_z
O1	O	1.698887	0.184836	0.069373
O2	O	2.198887	0.684836	0.569373
O3	O	1.327693	0.201723	0.069387
O4	O	1.827693	0.701723	0.569387
O5	O	1.521736	0.007682	0.069375
O6	O	2.021736	0.507682	0.569375
O7	O	1.504844	0.378878	0.069385
O8	O	2.004844	0.878878	0.569385
O9	O	1.512037	-0.002006	-0.069485
O10	O	2.012037	0.497994	0.430515
O11	O	1.317994	0.192036	-0.069472
O12	O	1.817994	0.692036	0.430528
O13	O	1.689188	0.175149	-0.069486
O14	O	2.189188	0.675149	0.430514
Zn15	Zn	1.502051	0.182054	-0.091526
Zn16	Zn	2.002051	0.682054	0.408474
Zn17	Zn	1.514830	0.194818	0.091427
Zn18	Zn	2.014830	0.694818	0.591427
O19	O	1.495145	0.369190	-0.069474
O20	O	1.995145	0.869190	0.430526
C21	C	1.275312	0.195603	-0.000041
C22	C	1.775312	0.695603	0.499959
C23	C	1.133683	0.191783	-0.000036
C24	C	1.633683	0.691783	0.499964
C25	C	0.980825	0.066059	-0.000051
C26	C	1.480825	0.566059	0.499949
C27	C	1.053436	0.124139	-0.068512
C28	C	1.553436	0.624139	0.431488
C29	C	1.062955	0.133720	0.068393
C30	C	1.562955	0.633720	0.568393
C31	C	0.953940	0.243117	-0.068574
C32	C	1.453940	0.743117	0.431426
C33	C	0.963458	0.252684	0.068392
C34	C	1.463458	0.752684	0.568392
C35	C	1.036019	0.310851	-0.000085
C36	C	1.536019	0.810851	0.499915
C37	C	1.515611	-0.044694	-0.000054
C38	C	2.015611	0.455306	0.499946
C39	C	1.511794	-0.186323	-0.000053
C40	C	2.011794	0.313677	0.499947
C41	C	1.388330	-0.254465	-0.000042
C42	C	1.888330	0.245535	0.499958
C43	C	1.441871	-0.351363	-0.068509
C44	C	1.941871	0.148637	0.431491
C45	C	1.451463	-0.341786	0.068395
C46	C	1.951463	0.158214	0.568395
C47	C	1.565381	-0.281360	-0.068576
C48	C	2.065381	0.218640	0.431424
C49	C	1.574961	-0.271770	0.068390
C50	C	2.074961	0.228230	0.568390
C51	C	1.628590	-0.368641	-0.000094
C52	C	2.128590	0.131359	0.499906
C53	C	1.741569	0.181269	-0.000057
C54	C	2.241569	0.681269	0.499943
C55	C	1.883198	0.185089	-0.000056
C56	C	2.383198	0.685089	0.499944
C57	C	1.501270	0.421566	-0.000043
C58	C	2.001270	0.921566	0.499957
C59	C	1.505088	0.563196	-0.000039
C60	C	2.005088	1.063196	0.499961
N61	N	1.493338	0.173343	-0.216387
N62	N	1.993338	0.673343	0.283613
C63	C	1.568362	0.248421	-0.260078
C64	C	2.068362	0.748421	0.239922
C65	C	1.562284	0.242319	-0.347485
C66	C	2.062284	0.742319	0.152515
C67	C	1.481176	0.161144	-0.391199
C68	C	1.981176	0.661144	0.108801
C69	C	1.406149	0.086057	-0.347502
C70	C	1.906149	0.586057	0.152498
C71	C	1.412234	0.092154	-0.260097
C72	C	1.912234	0.592154	0.239903
C73	C	1.454612	0.134528	-0.652610
C74	C	1.954612	0.634528	-0.152610
C75	C	1.448529	0.128441	-0.740021
C76	C	1.948529	0.628441	-0.240021
C77	C	1.604667	0.284701	-0.739998
C78	C	2.104667	0.784701	-0.239998
C79	C	1.610739	0.290796	-0.652591
C80	C	2.110739	0.790796	-0.152591
C81	C	1.535718	0.215704	-0.608902
C82	C	2.035718	0.715704	-0.108902
N83	N	1.474958	0.154908	-0.480543
N84	N	1.974958	0.654908	0.019457
N85	N	1.541942	0.221934	-0.519559
N86	N	2.041942	0.721934	-0.019559
N87	N	1.523553	0.203519	0.216287
N88	N	2.023553	0.703519	0.716287
H89	H	0.906613	0.289288	-0.126519
H90	H	1.406613	0.789288	0.373481
H91	H	1.060493	0.414427	-0.000120
H92	H	1.560493	0.914427	0.499880
H93	H	1.623379	0.303454	-0.383054
H94	H	2.123379	0.803454	0.116946
C95	C	0.910142	0.325956	0.146594
C96	C	1.410142	0.825956	0.646594
N97	N	0.869982	0.381135	0.205502
N98	N	1.369982	0.881135	0.705502
H99	H	1.092869	0.069853	-0.126395
H100	H	1.592869	0.569853	0.373605
H101	H	1.613529	-0.254569	-0.126525
H102	H	2.113529	0.245431	0.373475
H103	H	1.340115	0.019957	-0.383101
H104	H	1.840115	0.519957	0.116899
H105	H	1.351141	0.031017	-0.224524
H106	H	1.851141	0.531017	0.275476
C107	C	1.687195	0.367286	-0.788064
C108	C	2.187195	0.867286	-0.288064
N109	N	1.749364	0.429488	-0.824267
N110	N	2.249364	0.929488	-0.324267
H111	H	0.956099	-0.037448	-0.000123
H112	H	1.456099	0.462552	0.499877
H113	H	1.110441	0.087487	0.126272
H114	H	1.610441	0.587487	0.626272
H115	H	1.286814	-0.204820	-0.000107
H116	H	1.786814	0.295180	0.499893
H117	H	1.730190	-0.418066	-0.000136
H118	H	2.230190	0.081934	0.499864
C119	C	1.365834	-0.398721	-0.146700
C120	C	1.865834	0.101279	0.353300
N121	N	1.308555	-0.434388	-0.205591
N122	N	1.808555	0.065612	0.294409
C123	C	1.650937	-0.224367	0.146588
C124	C	2.150937	0.275633	0.646588
N125	N	1.708154	-0.188659	0.205494
N126	N	2.208154	0.311341	0.705494
H127	H	1.393524	0.073383	-0.617048
H128	H	1.893524	0.573383	-0.117048
C129	C	1.386324	-0.378182	0.146593
C130	C	1.886324	0.121818	0.646593
N131	N	1.337254	-0.405588	0.205490
N132	N	1.837254	0.094412	0.705490
C133	C	1.699974	0.380086	-0.604512
C134	C	2.199974	0.880086	-0.104512
N135	N	1.767186	0.447340	-0.568299
N136	N	2.267186	0.947340	-0.068299
C137	C	1.657589	0.337719	-0.212000
C138	C	2.157589	0.837719	0.288000
N139	N	1.724802	0.404977	-0.175791
N140	N	2.224802	0.904977	0.324209
H141	H	1.382474	0.062339	-0.775611
H142	H	1.882474	0.562339	-0.275611
