data_functionalizedCrystal
_audit_creation_method	'MofGen! by Chris Wilmer'
_symmetry_space_group_name_H-M	'P1'
_symmetry_Int_Tables_number	1
_symmetry_cell_setting	triclinic
loop_
_symmetry_equiv_pos_as_xyz
  x,y,z
_cell_length_a	15.944499
_cell_length_b	11.792241
_cell_length_c	10.868271
_cell_angle_alpha	89.994719
_cell_angle_beta	89.993092
_cell_angle_gamma	83.835512
loop_
_atom_site_label
_atom_site_type_symbol
_atom_site_fract_x
_atom_site_fract_y
_atom_site_fract_z
O1	O	1.115210	0.146101	-0.102397
O2	O	0.870736	0.164209	-0.102383
O3	O	0.998906	-0.010066	-0.102381
O4	O	0.987041	0.320376	-0.102398
O5	O	0.998895	-0.010073	0.102263
O6	O	0.870726	0.164202	0.102262
O7	O	1.115200	0.146094	0.102248
Zn8	Zn	0.992961	0.155147	0.134747
Zn9	Zn	0.992975	0.155156	-0.134881
O10	O	0.987030	0.320369	0.102247
C11	C	0.998155	-0.052354	-0.000059
C12	C	0.995924	-0.178349	-0.000061
C13	C	0.839433	0.163464	-0.000059
C14	C	0.746175	0.161242	-0.000053
C15	C	0.991822	-0.409026	-0.000081
C16	C	0.994102	-0.280660	-0.000070
C17	C	0.455096	0.262491	-0.000077
C18	C	0.515892	0.209862	-0.100977
C19	C	0.410502	0.153167	-0.000081
C20	C	0.515868	0.209826	0.100787
C21	C	0.575428	0.157140	-0.000066
C22	C	0.470070	0.100508	-0.101065
C23	C	0.470039	0.100487	0.100789
C24	C	0.530818	0.047779	-0.000135
C25	C	0.315491	0.150881	-0.000092
C26	C	0.670438	0.159417	-0.000064
C27	C	1.146503	0.146839	-0.000079
C28	C	1.239761	0.149062	-0.000092
C29	C	0.987781	0.362657	-0.000078
C30	C	0.990011	0.488652	-0.000085
N31	N	0.992958	0.155140	0.318761
N32	N	0.992985	0.155154	-0.318896
C33	C	0.992971	0.155154	0.569767
C34	C	0.992961	0.155150	0.430089
H35	H	0.536204	0.256109	-0.186279
H36	H	0.449887	0.054314	-0.186464
C37	C	0.575102	-0.074889	-0.000203
C38	C	0.560347	-0.156209	-0.107020
C39	C	0.604633	-0.278874	-0.107095
C40	C	0.663675	-0.320220	-0.000351
C41	C	0.678433	-0.238899	0.106474
C42	C	0.634147	-0.116234	0.106549
H43	H	0.516638	-0.125604	-0.186046
H44	H	0.593707	-0.339073	-0.186175
H45	H	0.696458	-0.411024	-0.000406
H46	H	0.722142	-0.269504	0.185499
H47	H	0.645072	-0.056035	0.185629
H48	H	0.449710	0.054282	0.186100
H49	H	0.536147	0.256082	0.186087
H50	H	0.422175	0.353219	-0.000179
