data_functionalizedCrystal
_audit_creation_method	'MofGen! by Chris Wilmer'
_symmetry_space_group_name_H-M	'P1'
_symmetry_Int_Tables_number	1
_symmetry_cell_setting	triclinic
loop_
_symmetry_equiv_pos_as_xyz
  x,y,z
_cell_length_a	14.908571
_cell_length_b	12.645330
_cell_length_c	14.908308
_cell_angle_alpha	93.270481
_cell_angle_beta	90.175053
_cell_angle_gamma	86.714080
loop_
_atom_site_label
_atom_site_type_symbol
_atom_site_fract_x
_atom_site_fract_y
_atom_site_fract_z
Zn1	Zn	1.345316	-0.553227	-0.587609
Zn2	Zn	1.845316	-0.053227	-0.087609
Zn3	Zn	1.353903	-0.720906	-0.437258
Zn4	Zn	1.853903	-0.220906	0.062742
Zn5	Zn	1.203631	-0.532865	-0.428606
Zn6	Zn	1.703631	-0.032865	0.071394
Zn7	Zn	1.194931	-0.719646	-0.578909
Zn8	Zn	1.694931	-0.219646	-0.078909
O9	O	1.274445	-0.631661	-0.508096
O10	O	1.774445	-0.131661	-0.008096
O11	O	1.472282	-0.584518	-0.574926
O12	O	1.972282	-0.084518	-0.074926
O13	O	1.341204	-0.687967	-0.310285
O14	O	1.841204	-0.187967	0.189715
O15	O	1.222473	-0.387223	-0.449718
O16	O	1.722473	0.112777	0.050282
O17	O	1.478590	-0.707711	-0.464464
O18	O	1.978590	-0.207711	0.035536
O19	O	1.326569	-0.402183	-0.566537
O20	O	1.826569	0.097817	-0.066537
O21	O	1.230799	-0.549815	-0.303929
O22	O	1.730799	-0.049815	0.196071
O23	O	1.076650	-0.548593	-0.441282
O24	O	1.576650	-0.048593	0.058718
O25	O	1.207645	-0.705565	-0.705889
O26	O	1.707645	-0.205565	-0.205889
O27	O	1.070259	-0.685821	-0.551710
O28	O	1.570259	-0.185821	-0.051710
O29	O	1.318133	-0.583297	-0.712280
O30	O	1.818133	-0.083297	-0.212280
O31	O	1.332768	-0.869081	-0.456028
O32	O	1.832768	-0.369081	0.043972
O33	O	1.215971	-0.868156	-0.560099
O34	O	1.715971	-0.368156	-0.060099
C35	C	1.040829	-0.614862	-0.494614
C36	C	1.540829	-0.114862	0.005386
C37	C	0.940886	-0.607702	-0.488867
C38	C	1.440886	-0.107702	0.011133
C39	C	0.746483	-0.737343	-0.592903
C40	C	1.246483	-0.237343	-0.092903
C41	C	0.652577	-0.730619	-0.587507
C42	C	1.152577	-0.230619	-0.087507
C43	C	0.659166	-0.587526	-0.472684
C44	C	1.159166	-0.087526	0.027316
C45	C	0.753072	-0.594249	-0.478080
C46	C	1.253072	-0.094249	0.021920
C47	C	0.796727	-0.669162	-0.538191
C48	C	1.296727	-0.169162	-0.038191
C49	C	0.890635	-0.675890	-0.543582
C50	C	1.390635	-0.175890	-0.043582
C51	C	0.897222	-0.532792	-0.428764
C52	C	1.397222	-0.032792	0.071236
C53	C	0.803316	-0.526068	-0.423368
C54	C	1.303316	-0.026068	0.076632
C55	C	1.274380	-0.907085	-0.508079
C56	C	1.774380	-0.407085	-0.008079
C57	C	1.274433	-1.024921	-0.508107
C58	C	1.774433	-0.524921	-0.008107
C59	C	1.201231	-1.191981	-0.573809
C60	C	1.701231	-0.691981	-0.073809
C61	C	1.200890	-1.069382	-0.573564
C62	C	1.700890	-0.569382	-0.073564
C63	C	1.254254	-1.061620	-0.411871
C64	C	1.754254	-0.561620	0.088129
C65	C	1.253808	-1.184216	-0.412269
C66	C	1.753808	-0.684216	0.087731
C67	C	1.368282	-1.200403	-0.537898
C68	C	1.868282	-0.700403	-0.037898
C69	C	1.367579	-1.077886	-0.539936
C70	C	1.867579	-0.577886	-0.039936
C71	C	1.508974	-0.648527	-0.521631
C72	C	2.008974	-0.148527	-0.021631
C73	C	1.608916	-0.655714	-0.527399
C74	C	2.108916	-0.155714	-0.027399
C75	C	1.260961	-0.646562	-0.742622
C76	C	1.760961	-0.146562	-0.242622
C77	C	1.255214	-0.652912	-0.842563
C78	C	1.755214	-0.152912	-0.342563
C79	C	1.274534	-0.355164	-0.508133
C80	C	1.774534	0.144836	-0.008133
C81	C	1.274571	-0.237338	-0.508149
C82	C	1.774571	0.262662	-0.008149
C83	C	1.359465	-0.537502	-1.037020
C84	C	1.859465	-0.037502	-0.537020
C85	C	1.354068	-0.543464	-1.130923
C86	C	1.854068	-0.043464	-0.630923
C87	C	1.239021	-0.670794	-1.124275
C88	C	1.739021	-0.170794	-0.624275
C89	C	1.244418	-0.664831	-1.030371
C90	C	1.744418	-0.164831	-0.530371
C91	C	1.304642	-0.598184	-0.986747
C92	C	1.804642	-0.098184	-0.486747
C93	C	1.310043	-0.592227	-0.892842
C94	C	1.810043	-0.092227	-0.392842
C95	C	1.194992	-0.719550	-0.886195
C96	C	1.694992	-0.219550	-0.386195
C97	C	1.189595	-0.725513	-0.980099
C98	C	1.689595	-0.225513	-0.480099
C99	C	1.287929	-0.616745	-0.274485
C100	C	1.787929	-0.116745	0.225515
C101	C	1.293850	-0.610109	-0.174555
C102	C	1.793850	-0.110109	0.325445
H103	H	0.938141	-0.477276	-0.384212
H104	H	1.438141	0.022724	0.115788
H105	H	1.212881	-1.044868	-0.644752
H106	H	1.712881	-0.544868	-0.144752
H107	H	0.767759	-0.465075	-0.374431
H108	H	1.267759	0.034925	0.125569
H109	H	0.611672	-0.786137	-0.632061
H110	H	1.111672	-0.286137	-0.132061
H111	H	1.132076	-1.216836	-0.553899
H112	H	1.632076	-0.716836	-0.053899
H113	H	1.424660	-1.048136	-0.496031
H114	H	1.924660	-0.548136	0.003969
O115	O	0.612077	-0.506766	-0.407825
O116	O	1.112077	-0.006766	0.092175
H117	H	0.538339	-0.513564	-0.413254
H118	H	1.038339	-0.013564	0.086746
H119	H	1.382895	-1.054579	-0.610788
H120	H	1.882895	-0.554579	-0.110788
O121	O	1.413198	-0.478001	-1.185135
O122	O	1.913198	0.021999	-0.685135
H123	H	1.370504	-0.423885	-1.225589
H124	H	1.870504	0.076115	-0.725589
O125	O	1.174054	-0.742655	-1.171332
O126	O	1.674054	-0.242655	-0.671332
H127	H	1.179512	-0.736599	-1.245074
H128	H	1.679512	-0.236599	-0.745074
H129	H	1.408506	-0.483240	-1.001501
H130	H	1.908506	0.016760	-0.501501
H131	H	1.140561	-0.779773	-1.015631
H132	H	1.640561	-0.279773	-0.515631
O133	O	1.321887	-1.223574	-0.344875
O134	O	1.821887	-0.723574	0.155125
H135	H	1.287449	-1.266452	-0.293246
H136	H	1.787449	-0.766452	0.206754
H137	H	1.150354	-0.768965	-0.845253
H138	H	1.650354	-0.268965	-0.345253
O139	O	1.216842	-1.238930	-0.668251
O140	O	1.716842	-0.738930	-0.168251
H141	H	1.284047	-1.218946	-0.691773
H142	H	1.784047	-0.718946	-0.191773
O143	O	0.937727	-0.756676	-0.608416
O144	O	1.437727	-0.256676	-0.108416
H145	H	0.887008	-0.802947	-0.645562
H146	H	1.387008	-0.302947	-0.145562
H147	H	1.131307	-1.034056	-0.553424
H148	H	1.631307	-0.534056	-0.053424
H149	H	0.782028	-0.798344	-0.641842
H150	H	1.282028	-0.298344	-0.141842
H151	H	1.185468	-1.206601	-0.387705
H152	H	1.685468	-0.706601	0.112295
O153	O	1.323080	-1.023138	-0.344968
O154	O	1.823080	-0.523138	0.155032
H155	H	1.372515	-0.977333	-0.379683
H156	H	1.872515	-0.477333	0.120317
O157	O	1.164717	-1.012771	-0.378887
O158	O	1.664717	-0.512771	0.121113
H159	H	1.134451	-0.962349	-0.430869
H160	H	1.634451	-0.462349	0.069131
H161	H	1.422855	-1.229860	-0.490142
H162	H	1.922855	-0.729860	0.009858
O163	O	1.394085	-1.249214	-0.629660
O164	O	1.894085	-0.749214	-0.129660
H165	H	1.340398	-1.300349	-0.655089
H166	H	1.840398	-0.800349	-0.155089
O167	O	1.374993	-0.520346	-0.845783
O168	O	1.874993	-0.020346	-0.345783
H169	H	1.412200	-0.479143	-0.896521
H170	H	1.912200	0.020857	-0.396521
