data_functionalizedCrystal
_audit_creation_method	'MofGen! by Chris Wilmer'
_symmetry_space_group_name_H-M	'P1'
_symmetry_Int_Tables_number	1
_symmetry_cell_setting	triclinic
loop_
_symmetry_equiv_pos_as_xyz
  x,y,z
_cell_length_a	16.959455
_cell_length_b	16.625546
_cell_length_c	16.959447
_cell_angle_alpha	89.967702
_cell_angle_beta	89.983056
_cell_angle_gamma	90.019415
loop_
_atom_site_label
_atom_site_type_symbol
_atom_site_fract_x
_atom_site_fract_y
_atom_site_fract_z
Zn1	Zn	1.208391	-0.321051	-0.446898
Zn2	Zn	1.708391	0.178949	0.053102
Zn3	Zn	1.208302	-0.455898	-0.314715
Zn4	Zn	1.708302	0.044102	0.185285
Zn5	Zn	1.076213	-0.321076	-0.314736
Zn6	Zn	1.576213	0.178924	0.185264
Zn7	Zn	1.076179	-0.455838	-0.446854
Zn8	Zn	1.576179	0.044162	0.053146
O9	O	1.142271	-0.388466	-0.380801
O10	O	1.642271	0.111534	0.119199
O11	O	1.318990	-0.338953	-0.429374
O12	O	1.818990	0.161047	0.070626
O13	O	1.190757	-0.438050	-0.204107
O14	O	1.690757	0.061950	0.295893
O15	O	1.093799	-0.208240	-0.332295
O16	O	1.593799	0.291760	0.167705
O17	O	1.318925	-0.438025	-0.332260
O18	O	1.818925	0.061975	0.167740
O19	O	1.190909	-0.208222	-0.429394
O20	O	1.690909	0.291778	0.070606
O21	O	1.093713	-0.338997	-0.204122
O22	O	1.593713	0.161003	0.295878
O23	O	0.965598	-0.338938	-0.332252
O24	O	1.465598	0.161062	0.167748
O25	O	1.093740	-0.437922	-0.557471
O26	O	1.593740	0.062078	-0.057471
O27	O	0.965572	-0.437947	-0.429318
O28	O	1.465572	0.062053	0.070682
O29	O	1.190876	-0.338895	-0.557503
O30	O	1.690876	0.161105	-0.057503
O31	O	1.190724	-0.568723	-0.332217
O32	O	1.690724	-0.068723	0.167783
O33	O	1.093653	-0.568678	-0.429298
O34	O	1.593653	-0.068678	0.070702
C35	C	0.936905	-0.388439	-0.380783
C36	C	1.436905	0.111561	0.119217
C37	C	0.849048	-0.388447	-0.380794
C38	C	1.349048	0.111553	0.119206
C39	C	0.477562	-0.336870	-0.330364
C40	C	0.977562	0.163130	0.169636
C41	C	0.477584	-0.440128	-0.431283
C42	C	0.977584	0.059872	0.068717
C43	C	0.560130	-0.440117	-0.431278
C44	C	1.060130	0.059883	0.068722
C45	C	0.601395	-0.388482	-0.380815
C46	C	1.101395	0.111518	0.119185
C47	C	0.560115	-0.336858	-0.330356
C48	C	1.060115	0.163142	0.169644
C49	C	0.601416	-0.491745	-0.481731
C50	C	1.101416	0.008255	0.018269
C51	C	0.683967	-0.491736	-0.481727
C52	C	1.183967	0.008264	0.018273
C53	C	0.725234	-0.440096	-0.431267
C54	C	1.225234	0.059904	0.068733
C55	C	0.683949	-0.388470	-0.380807
C56	C	1.183949	0.111530	0.119193
C57	C	0.725215	-0.336835	-0.330343
C58	C	1.225215	0.163165	0.169657
C59	C	0.683931	-0.285204	-0.279886
C60	C	1.183931	0.214796	0.220114
C61	C	0.601382	-0.285219	-0.279895
C62	C	1.101382	0.214781	0.220105
C63	C	0.807783	-0.440082	-0.431257
C64	C	1.307783	0.059918	0.068743
C65	C	0.807768	-0.336824	-0.330335
C66	C	1.307768	0.163176	0.169665
C67	C	1.142196	-0.597957	-0.380768
C68	C	1.642196	-0.097957	0.119232
C69	C	1.142237	-0.687578	-0.380780
C70	C	1.642237	-0.187578	0.119220
C71	C	1.142375	-1.015753	-0.380862
C72	C	1.642375	-0.515753	0.119138
C73	C	1.142334	-0.924445	-0.380842
C74	C	1.642334	-0.424445	0.119158
C75	C	1.142305	-0.851668	-0.380821
C76	C	1.642305	-0.351668	0.119179
C77	C	1.142265	-0.760354	-0.380801
C78	C	1.642265	-0.260354	0.119199
C79	C	1.348439	-0.388493	-0.380819
C80	C	1.848439	0.111507	0.119181
C81	C	1.436296	-0.388505	-0.380827
C82	C	1.936296	0.111495	0.119173
C83	C	1.142314	-0.388399	-0.586969
C84	C	1.642314	0.111601	-0.086969
C85	C	1.142332	-0.388370	-0.674826
C86	C	1.642332	0.111630	-0.174826
C87	C	1.142368	-0.178157	-0.380851
C88	C	1.642368	0.321843	0.119149
C89	C	1.142409	-0.088536	-0.380873
C90	C	1.642409	0.411464	0.119127
C91	C	1.091875	-0.336713	-1.046316
C92	C	1.591875	0.163287	-0.546316
C93	C	1.192928	-0.439858	-1.046288
C94	C	1.692928	0.060142	-0.546288
C95	C	1.192914	-0.439877	-0.963742
C96	C	1.692914	0.060123	-0.463742
C97	C	1.142379	-0.388314	-0.922479
C98	C	1.642379	0.111686	-0.422479
C99	C	1.091858	-0.336732	-0.963762
C100	C	1.591858	0.163268	-0.463762
C101	C	1.243429	-0.491463	-0.922452
C102	C	1.743429	0.008537	-0.422452
C103	C	1.243417	-0.491485	-0.839901
C104	C	1.743417	0.008515	-0.339901
C105	C	1.192885	-0.439917	-0.798637
C106	C	1.692885	0.060083	-0.298637
C107	C	1.142362	-0.388332	-0.839925
C108	C	1.642362	0.111668	-0.339925
C109	C	1.091827	-0.336769	-0.798663
C110	C	1.591827	0.163231	-0.298663
C111	C	1.041307	-0.285180	-0.839949
C112	C	1.541307	0.214820	-0.339949
C113	C	1.041326	-0.285164	-0.922498
C114	C	1.541326	0.214836	-0.422498
C115	C	1.192867	-0.439933	-0.716089
C116	C	1.692867	0.060067	-0.216089
C117	C	1.091810	-0.336788	-0.716109
C118	C	1.591810	0.163212	-0.216109
C119	C	1.142275	-0.388474	-0.175435
C120	C	1.642275	0.111526	0.324565
C121	C	1.142410	-0.388276	-0.087578
C122	C	1.642410	0.111724	0.412422
H123	H	0.443980	-0.482172	-0.472364
H124	H	0.943980	0.017828	0.027636
C125	C	0.853192	-0.496868	-0.486753
C126	C	1.353192	0.003132	0.013247
H127	H	0.816792	-0.527620	-0.516809
H128	H	1.316792	-0.027620	-0.016809
H129	H	0.885378	-0.531954	-0.456451
H130	H	1.385378	-0.031954	0.043549
H131	H	0.885410	-0.466059	-0.521250
H132	H	1.385410	0.033941	-0.021250
H133	H	0.841361	-0.294771	-0.289245
H134	H	1.341361	0.205229	0.210755
C135	C	0.729372	-0.548519	-0.537233
C136	C	1.229372	-0.048519	-0.037233
H137	H	0.692972	-0.579267	-0.567292
H138	H	1.192972	-0.079267	-0.067292
H139	H	0.761561	-0.583608	-0.506938
H140	H	1.261561	-0.083608	-0.006938
H141	H	0.761588	-0.517704	-0.571728
H142	H	1.261588	-0.017704	-0.071728
C143	C	0.729328	-0.228409	-0.224380
C144	C	1.229328	0.271591	0.275620
H145	H	0.784403	-0.235799	-0.231607
H146	H	1.284403	0.264201	0.268393
H147	H	0.715778	-0.240138	-0.171251
H148	H	1.215778	0.259862	0.328749
H149	H	0.715822	-0.174246	-0.236053
H150	H	1.215822	0.325754	0.263947
C151	C	0.556025	-0.548538	-0.537235
C152	C	1.056025	-0.048538	-0.037235
H153	H	0.500949	-0.541142	-0.530019
H154	H	1.000949	-0.041142	-0.030019
H155	H	0.569532	-0.602698	-0.525571
H156	H	1.069532	-0.102698	-0.025571
H157	H	0.569578	-0.536798	-0.590366
H158	H	1.069578	-0.036798	-0.090366
H159	H	1.050661	-0.294795	-0.682519
H160	H	1.550661	0.205205	-0.182519
H161	H	1.000158	-0.243201	-0.806343
H162	H	1.500158	0.256799	-0.306343
H163	H	1.284552	-0.533493	-0.806292
H164	H	1.784552	-0.033493	-0.306292
C165	C	0.985759	-0.228425	-0.967914
C166	C	1.485759	0.271575	-0.467914
H167	H	0.993003	-0.235805	-1.022986
H168	H	1.493003	0.264195	-0.522986
H169	H	0.997349	-0.174253	-0.954408
H170	H	1.497349	0.325747	-0.454408
H171	H	0.932639	-0.240224	-0.954377
H172	H	1.432639	0.259776	-0.454377
H173	H	1.050745	-0.294708	-1.079935
H174	H	1.550745	0.205292	-0.579935
C175	C	1.299012	-0.548178	-0.967840
C176	C	1.799012	-0.048178	-0.467840
H177	H	1.291792	-0.540770	-1.022916
H178	H	1.791792	-0.040770	-0.522916
H179	H	1.287416	-0.602355	-0.954298
H180	H	1.787416	-0.102355	-0.454298
H181	H	1.352126	-0.536384	-0.954320
H182	H	1.852126	-0.036384	-0.454320
C183	C	1.248512	-0.496572	-1.091674
C184	C	1.748512	0.003428	-0.591674
H185	H	1.241289	-0.489170	-1.146750
H186	H	1.741289	0.010830	-0.646750
H187	H	1.236921	-0.550750	-1.078126
H188	H	1.736921	-0.050750	-0.578126
H189	H	1.301626	-0.484774	-1.078157
H190	H	1.801626	0.015226	-0.578157
H191	H	0.443945	-0.294831	-0.289285
H192	H	0.943945	0.205169	0.210715
H193	H	1.234004	-0.481931	-0.682477
H194	H	1.734004	0.018069	-0.182477
H195	H	0.567762	-0.243184	-0.238815
H196	H	1.067762	0.256816	0.261185
