data_functionalizedCrystal
_audit_creation_method	'MofGen! by Chris Wilmer'
_symmetry_space_group_name_H-M	'P1'
_symmetry_Int_Tables_number	1
_symmetry_cell_setting	triclinic
loop_
_symmetry_equiv_pos_as_xyz
  x,y,z
_cell_length_a	14.044191
_cell_length_b	13.101018
_cell_length_c	9.065218
_cell_angle_alpha	93.410526
_cell_angle_beta	90.896169
_cell_angle_gamma	93.666878
loop_
_atom_site_label
_atom_site_type_symbol
_atom_site_fract_x
_atom_site_fract_y
_atom_site_fract_z
O1	O	1.265919	0.085157	-0.348674
O2	O	1.599252	0.418491	-0.015341
O3	O	1.932585	0.751824	0.317993
O4	O	0.989840	0.085170	-0.335813
O5	O	1.323173	0.418504	-0.002479
O6	O	1.656506	0.751837	0.330854
O7	O	1.133586	0.085161	-0.128234
O8	O	1.466919	0.418495	0.205100
O9	O	1.800252	0.751828	0.538433
O10	O	1.122173	0.085166	-0.556253
O11	O	1.455506	0.418500	-0.222920
O12	O	1.788839	0.751833	0.110414
O13	O	1.123260	-0.085268	-0.143140
O14	O	1.456593	0.248065	0.190193
O15	O	1.789927	0.581398	0.523527
O16	O	0.979514	-0.085259	-0.350719
O17	O	1.312847	0.248074	-0.017386
O18	O	1.646181	0.581407	0.315948
O19	O	1.255593	-0.085273	-0.363580
O20	O	1.588927	0.248061	-0.030247
O21	O	1.922260	0.581394	0.303087
Zn22	Zn	1.115914	-0.112325	-0.359516
Zn23	Zn	1.449248	0.221008	-0.026183
Zn24	Zn	1.782581	0.554341	0.307150
Zn25	Zn	1.129519	0.112223	-0.339877
Zn26	Zn	1.462852	0.445557	-0.006543
Zn27	Zn	1.796185	0.778890	0.326790
O28	O	1.111847	-0.085264	-0.571159
O29	O	1.445181	0.248070	-0.237826
O30	O	1.778514	0.581403	0.095508
C31	C	0.949314	-0.000043	-0.337640
C32	C	1.282648	0.333291	-0.004306
C33	C	1.615981	0.666624	0.329027
C34	C	0.843944	-0.000037	-0.320858
C35	C	1.177278	0.333296	0.012475
C36	C	1.510611	0.666629	0.345808
C37	C	0.594416	-0.000047	-0.409195
C38	C	0.927749	0.333287	-0.075862
C39	C	1.261082	0.666620	0.257471
C40	C	0.651023	-0.000046	-0.290203
C41	C	0.984357	0.333287	0.043130
C42	C	1.317690	0.666620	0.376463
C43	C	0.758374	-0.000041	-0.307264
C44	C	1.091708	0.333292	0.026069
C45	C	1.425041	0.666625	0.359403
C46	C	0.487055	-0.000052	-0.392137
C47	C	0.820388	0.333282	-0.058804
C48	C	1.153721	0.666615	0.274530
N49	N	1.106637	-0.265574	-0.372920
N50	N	1.439970	0.067760	-0.039586
N51	N	1.773303	0.401093	0.293747
C52	C	1.151421	-0.525486	-0.308220
C53	C	1.484755	-0.192153	0.025113
C54	C	1.818088	0.141181	0.358447
C55	C	1.094022	-0.474610	-0.391158
C56	C	1.427355	-0.141276	-0.057824
C57	C	1.760689	0.192057	0.275509
C58	C	1.101043	-0.358291	-0.381007
C59	C	1.434376	-0.024958	-0.047674
C60	C	1.767709	0.308376	0.285659
C61	C	1.144402	-0.641815	-0.318369
C62	C	1.477735	-0.308481	0.014965
C63	C	1.811069	0.024852	0.348298
C64	C	1.296119	-0.000057	-0.361753
C65	C	1.629452	0.333276	-0.028419
C66	C	1.962786	0.666610	0.304914
C67	C	1.401489	-0.000056	-0.378534
C68	C	1.734822	0.333278	-0.045200
C69	C	2.068156	0.666611	0.288133
C70	C	1.127326	-0.000052	-0.080578
C71	C	1.460659	0.333282	0.252755
C72	C	1.793993	0.666615	0.586088
C73	C	1.124047	-0.000047	0.083628
C74	C	1.457380	0.333287	0.416962
C75	C	1.790713	0.666620	0.750295
N76	N	1.138804	0.265472	-0.326462
N77	N	1.472137	0.598805	0.006871
N78	N	1.805470	0.932138	0.340204
C79	C	1.118107	-0.000048	-0.618814
C80	C	1.451440	0.333285	-0.285481
C81	C	1.784774	0.666619	0.047853
C82	C	1.121387	-0.000046	-0.783020
C83	C	1.454720	0.333287	-0.449687
C84	C	1.788053	0.666620	-0.116354
H85	H	0.618868	0.000025	-0.175512
H86	H	0.952201	0.333358	0.157821
H87	H	1.285534	0.666691	0.491155
Cl88	Cl	1.010015	-0.542234	-0.512559
Cl89	Cl	1.343348	-0.208900	-0.179225
Cl90	Cl	1.676681	0.124433	0.154108
H91	H	0.626574	-0.000042	-0.523871
H92	H	0.959908	0.333291	-0.190538
H93	H	1.293241	0.666624	0.142796
H94	H	1.205832	-0.481690	-0.229598
H95	H	1.539165	-0.148356	0.103735
H96	H	1.872499	0.184977	0.437069
