data_functionalizedCrystal
_audit_creation_method	'MofGen! by Chris Wilmer'
_symmetry_space_group_name_H-M	'P1'
_symmetry_Int_Tables_number	1
_symmetry_cell_setting	triclinic
loop_
_symmetry_equiv_pos_as_xyz
  x,y,z
_cell_length_a	14.472310
_cell_length_b	16.109301
_cell_length_c	16.109298
_cell_angle_alpha	83.460834
_cell_angle_beta	89.995676
_cell_angle_gamma	90.010306
loop_
_atom_site_label
_atom_site_type_symbol
_atom_site_fract_x
_atom_site_fract_y
_atom_site_fract_z
O1	O	-0.076771	-1.103142	-0.106862
O2	O	-0.076785	-0.861079	-0.120161
O3	O	-0.076784	-0.988762	0.007520
O4	O	-0.076772	-0.975459	-0.234542
O5	O	0.076898	-0.988729	0.007512
O6	O	0.076897	-0.861047	-0.120168
O7	O	0.076911	-1.103109	-0.106869
Cu8	Cu	0.090936	-0.982075	-0.113519
Cu9	Cu	-0.090810	-0.982114	-0.113511
O10	O	0.076910	-0.975427	-0.234550
C11	C	0.000055	-0.830088	-0.119626
C12	C	0.000049	-0.737793	-0.118011
N13	N	0.218767	-0.982053	-0.113525
N14	N	-0.218641	-0.982141	-0.113498
C15	C	0.592859	-0.982112	-0.113507
C16	C	0.553692	-0.913563	-0.181598
C17	C	0.446604	-0.913721	-0.181846
C18	C	0.407268	-0.982082	-0.113516
C19	C	0.446111	-1.068826	-0.132440
C20	C	0.553232	-1.068441	-0.132924
C21	C	0.553382	-0.964692	-0.026291
C22	C	0.446255	-0.962702	-0.026873
C23	C	0.302379	-0.982071	-0.113519
C24	C	0.697747	-0.982130	-0.113506
C25	C	0.000053	-0.988207	0.038491
C26	C	0.000042	-0.986593	0.130787
C27	C	0.000070	-1.134100	-0.107404
C28	C	0.000069	-1.226395	-0.109019
C29	C	0.000063	-0.515520	-0.190019
C30	C	0.000069	-0.428799	-0.188495
C31	C	0.000057	-0.448675	-0.037006
C32	C	0.000058	-0.535394	-0.038531
C33	C	0.000056	-0.568814	-0.115039
C34	C	0.000062	-0.395375	-0.111990
C35	C	0.000068	-0.301349	-0.110337
C36	C	0.000052	-0.662846	-0.116693
C37	C	0.000071	-0.975981	-0.265521
C38	C	0.000076	-0.977595	-0.357817
C39	C	-0.083711	-0.981343	0.429859
C40	C	-0.083717	-0.982871	0.343139
C41	C	0.083835	-0.982847	0.343117
C42	C	0.083841	-0.981325	0.429836
C43	C	0.000065	-0.980569	0.473205
C44	C	0.000053	-0.983619	0.299766
C45	C	0.000047	-0.985276	0.205740
C46	C	0.000071	-0.978914	0.567236
H47	H	0.420344	-0.849242	-0.170575
C48	C	0.000051	-0.411905	0.047150
N49	N	0.000042	-0.384211	0.110538
H50	H	0.000055	-0.578789	0.022530
C51	C	0.175984	-0.983666	0.295402
N52	N	0.245392	-0.984277	0.259463
H53	H	0.000077	-0.385410	-0.249550
H54	H	-0.151926	-0.980727	0.465167
H55	H	-0.151936	-0.983503	0.307852
H56	H	0.152065	-0.980697	0.465129
C57	C	0.588546	-0.826172	-0.166638
N58	N	0.614810	-0.760348	-0.155372
C59	C	0.411975	-0.928752	-0.269282
N60	N	0.385894	-0.940078	-0.335142
C61	C	0.586981	-1.089169	-0.218858
N62	N	0.612396	-1.104775	-0.283588
C63	C	0.590050	-0.928379	-0.268544
N64	N	0.617435	-0.939541	-0.334031
C65	C	0.409874	-1.090063	-0.217395
N66	N	0.382585	-1.106052	-0.281387
C67	C	0.588233	-1.139438	-0.068493
N68	N	0.614592	-1.192921	-0.019975
H69	H	0.420628	-1.121054	-0.084165
C70	C	0.589909	-0.881077	-0.001718
N71	N	0.617420	-0.818094	0.016781
H72	H	0.420868	-0.898892	-0.012511
H73	H	0.578709	-1.014682	0.024380
C74	C	0.000073	-0.552278	-0.274180
N75	N	0.000085	-0.579961	-0.337574
C76	C	0.410104	-1.025787	0.044784
N77	N	0.382883	-1.073315	0.098754
