data_functionalizedCrystal
_audit_creation_method	'MofGen! by Chris Wilmer'
_symmetry_space_group_name_H-M	'P1'
_symmetry_Int_Tables_number	1
_symmetry_cell_setting	triclinic
loop_
_symmetry_equiv_pos_as_xyz
  x,y,z
_cell_length_a	14.971486
_cell_length_b	14.971486
_cell_length_c	14.048226
_cell_angle_alpha	89.998099
_cell_angle_beta	90.000107
_cell_angle_gamma	96.385872
loop_
_atom_site_label
_atom_site_type_symbol
_atom_site_fract_x
_atom_site_fract_y
_atom_site_fract_z
O1	O	-1.186945	0.116561	0.079039
O2	O	-0.853612	0.449894	0.412373
O3	O	-0.520279	0.783228	0.745706
O4	O	-0.926545	0.130520	0.079064
O5	O	-0.593212	0.463853	0.412397
O6	O	-0.259878	0.797187	0.745730
O7	O	-1.063725	-0.006660	0.079058
O8	O	-0.730391	0.326674	0.412391
O9	O	-0.397058	0.660007	0.745724
O10	O	-1.049766	0.253741	0.079045
O11	O	-0.716433	0.587074	0.412378
O12	O	-0.383099	0.920407	0.745712
O13	O	-1.063712	-0.006661	-0.079264
O14	O	-0.730378	0.326673	0.254070
O15	O	-0.397045	0.660006	0.587403
O16	O	-0.926532	0.130519	-0.079258
O17	O	-0.593199	0.463852	0.254076
O18	O	-0.259865	0.797185	0.587409
O19	O	-1.186932	0.116560	-0.079282
O20	O	-0.853599	0.449893	0.254051
O21	O	-0.520266	0.783227	0.587385
Zn22	Zn	-1.056730	0.123539	-0.104407
Zn23	Zn	-0.723397	0.456873	0.228927
Zn24	Zn	-0.390063	0.790206	0.562260
Zn25	Zn	-1.056747	0.123541	0.104188
Zn26	Zn	-0.723414	0.456874	0.437522
Zn27	Zn	-0.390081	0.790207	0.770855
O28	O	-1.049753	0.253739	-0.079276
O29	O	-0.716419	0.587073	0.254057
O30	O	-0.383086	0.920406	0.587390
C31	C	-1.063094	-0.039985	-0.000099
C32	C	-0.729761	0.293348	0.333234
C33	C	-0.396427	0.626682	0.666568
C34	C	-1.061223	-0.139282	-0.000087
C35	C	-0.727890	0.194051	0.333246
C36	C	-0.394556	0.527385	0.666579
C37	C	-0.893214	0.129895	-0.000094
C38	C	-0.559881	0.463228	0.333240
C39	C	-0.226547	0.796562	0.666573
C40	C	-0.793917	0.128024	-0.000084
C41	C	-0.460583	0.461358	0.333250
C42	C	-0.127250	0.794691	0.666583
N43	N	-1.056725	0.123538	-0.246767
N44	N	-0.723391	0.456871	0.086566
N45	N	-0.390058	0.790204	0.419899
C46	C	-1.220263	0.117185	-0.000123
C47	C	-0.886930	0.450518	0.333211
C48	C	-0.553597	0.783851	0.666544
C49	C	-1.319561	0.119056	-0.000126
C50	C	-0.986227	0.452389	0.333207
C51	C	-0.652894	0.785722	0.666540
C52	C	-0.736692	0.208614	-0.000089
C53	C	-0.403358	0.541947	0.333244
C54	C	-0.070025	0.875280	0.666578
C55	C	-0.643392	0.206850	-0.000103
C56	C	-0.310059	0.540184	0.333230
C57	C	0.023275	0.873517	0.666564
C58	C	-0.607320	0.124497	-0.000105
C59	C	-0.273986	0.457831	0.333228
C60	C	0.059347	0.791164	0.666562
C61	C	-0.664552	0.043902	-0.000103
C62	C	-0.331219	0.377235	0.333231
C63	C	0.002114	0.710569	0.666564
C64	C	-0.757850	0.045666	-0.000095
C65	C	-0.424517	0.378999	0.333238
C66	C	-0.091183	0.712333	0.666571
C67	C	-0.470090	0.040231	-0.000116
C68	C	-0.136757	0.373564	0.333218
C69	C	0.196577	0.706897	0.666551
C70	C	-0.376786	0.038466	-0.000121
C71	C	-0.043453	0.371800	0.333212
C72	C	0.289881	0.705133	0.666546
C73	C	-0.355632	0.201415	-0.000123
C74	C	-0.022299	0.534749	0.333210
C75	C	0.311035	0.868082	0.666543
C76	C	-0.448930	0.203179	-0.000116
C77	C	-0.115596	0.536513	0.333217
C78	C	0.217737	0.869846	0.666551
C79	C	-0.506156	0.122584	-0.000112
C80	C	-0.172822	0.455917	0.333222
C81	C	0.160511	0.789250	0.666555
C82	C	-1.050384	0.287065	-0.000117
C83	C	-0.717050	0.620398	0.333216
C84	C	-0.383717	0.953731	0.666549
C85	C	-1.052254	0.386362	-0.000123
C86	C	-0.718921	0.719695	0.333211
C87	C	-0.385588	1.053028	0.666544
C88	C	-0.971665	0.443587	-0.000114
C89	C	-0.638332	0.776920	0.333219
C90	C	-0.304998	1.110254	0.666552
C91	C	-0.973428	0.536887	-0.000102
C92	C	-0.640095	0.870220	0.333232
C93	C	-0.306761	1.203553	0.666565
C94	C	-1.055781	0.572959	-0.000104
C95	C	-0.722448	0.906292	0.333229
C96	C	-0.389115	1.239626	0.666562
C97	C	-1.136377	0.515726	-0.000110
C98	C	-0.803043	0.849060	0.333223
C99	C	-0.469710	1.182393	0.666557
C100	C	-1.134613	0.422429	-0.000116
C101	C	-0.801279	0.755762	0.333218
C102	C	-0.467946	1.089095	0.666551
C103	C	-1.140048	0.710189	-0.000100
C104	C	-0.806714	1.043522	0.333233
C105	C	-0.473381	1.376855	0.666567
C106	C	-1.141812	0.803493	-0.000096
C107	C	-0.808479	1.136826	0.333237
C108	C	-0.475146	1.470159	0.666571
C109	C	-0.978863	0.824647	-0.000086
C110	C	-0.645530	1.157980	0.333248
C111	C	-0.312197	1.491313	0.666581
C112	C	-0.977099	0.731349	-0.000092
C113	C	-0.643766	1.064682	0.333242
C114	C	-0.310433	1.398016	0.666575
C115	C	-1.057695	0.674123	-0.000099
C116	C	-0.724362	1.007456	0.333234
C117	C	-0.391028	1.340789	0.666568
C118	C	-1.111027	0.177879	-0.296590
C119	C	-0.777694	0.511212	0.036744
C120	C	-0.444361	0.844545	0.370077
C121	C	-1.111039	0.177875	-0.396247
C122	C	-0.777705	0.511208	-0.062914
C123	C	-0.444372	0.844542	0.270419
C124	C	-1.056742	0.123534	-0.446081
C125	C	-0.723409	0.456867	-0.112748
C126	C	-0.390076	0.790201	0.220586
C127	C	-1.002438	0.069187	-0.396252
C128	C	-0.669104	0.402520	-0.062919
C129	C	-0.335771	0.735853	0.270415
C130	C	-1.002432	0.069186	-0.296596
C131	C	-0.669098	0.402520	0.036737
C132	C	-0.335765	0.735853	0.370071
C133	C	-1.002453	0.069193	-0.603966
C134	C	-0.669119	0.402526	-0.270633
C135	C	-0.335786	0.735859	0.062701
C136	C	-1.002457	0.069194	-0.703629
C137	C	-0.669124	0.402527	-0.370296
C138	C	-0.335791	0.735861	-0.036962
C139	C	-1.111060	0.177881	-0.703617
C140	C	-0.777726	0.511215	-0.370284
C141	C	-0.444393	0.844548	-0.036951
C142	C	-1.111054	0.177881	-0.603962
C143	C	-0.777720	0.511214	-0.270628
C144	C	-0.444387	0.844548	0.062705
C145	C	-1.056748	0.123535	-0.554139
C146	C	-0.723414	0.456868	-0.220806
C147	C	-0.390081	0.790201	0.112527
N148	N	-1.056760	0.123535	0.246549
N149	N	-0.723426	0.456869	0.579882
N150	N	-0.390093	0.790202	0.913216
H151	H	-0.766054	0.275675	-0.000087
H152	H	-0.432720	0.609008	0.333247
H153	H	-0.099387	0.942342	0.666580
H154	H	-1.155274	0.222136	-0.744187
H155	H	-0.821941	0.555469	-0.410854
H156	H	-0.488608	0.888802	-0.077521
H157	H	-1.155259	0.222123	-0.436808
H158	H	-0.821926	0.555457	-0.103475
H159	H	-0.488592	0.888790	0.229859
H160	H	-0.596802	0.272474	-0.000106
H161	H	-0.263469	0.605808	0.333227
H162	H	0.069864	0.939141	0.666560
H163	H	-0.516682	-0.025399	-0.000114
H164	H	-0.183348	0.307934	0.333220
H165	H	0.149985	0.641268	0.666553
H166	H	-1.155262	0.222134	-0.563390
H167	H	-0.821929	0.555468	-0.230056
H168	H	-0.488596	0.888801	0.103277
O169	O	-0.943895	0.010582	-0.757377
O170	O	-0.610562	0.343916	-0.424044
O171	O	-0.277228	0.677249	-0.090711
H172	H	-0.986731	-0.037408	-0.802786
H173	H	-0.653398	0.295925	-0.469452
H174	H	-0.320065	0.629258	-0.136119
H175	H	-0.958232	0.024937	-0.563404
H176	H	-0.624899	0.358270	-0.230071
H177	H	-0.291565	0.691604	0.103263
H178	H	-0.907804	0.583476	-0.000092
H179	H	-0.574471	0.916810	0.333242
H180	H	-0.241137	1.250143	0.666575
H181	H	-1.205678	0.663597	-0.000098
H182	H	-0.872344	0.996930	0.333235
H183	H	-0.539011	1.330264	0.666568
O184	O	-0.625652	-0.044925	-0.000113
O185	O	-0.292319	0.288408	0.333220
O186	O	0.041015	0.621741	0.666554
H187	H	-0.583654	-0.049635	0.064417
H188	H	-0.250321	0.283698	0.397750
H189	H	0.083013	0.617032	0.731083
H190	H	-0.958233	0.024937	-0.436834
H191	H	-0.624900	0.358270	-0.103501
H192	H	-0.291566	0.691604	0.229832
H193	H	-0.904604	0.414225	-0.000123
H194	H	-0.571270	0.747558	0.333210
H195	H	-0.237937	1.080892	0.666544
H196	H	-0.804443	-0.019958	-0.000090
H197	H	-0.471109	0.313375	0.333243
H198	H	-0.137776	0.646708	0.666576
H199	H	-0.958213	0.024936	-0.256032
H200	H	-0.624879	0.358270	0.077301
H201	H	-0.291546	0.691603	0.410635
H202	H	-1.203430	0.545104	-0.000114
H203	H	-0.870097	0.878437	0.333219
H204	H	-0.536764	1.211770	0.666553
H205	H	-1.208871	0.832859	-0.000096
H206	H	-0.875538	1.166193	0.333237
H207	H	-0.542205	1.499526	0.666570
H208	H	-0.913239	0.871245	-0.000083
H209	H	-0.579906	1.204579	0.333250
H210	H	-0.246573	1.537912	0.666583
O211	O	-1.221534	0.360702	-0.000138
O212	O	-0.888201	0.694036	0.333196
O213	O	-0.554868	1.027369	0.666529
H214	H	-1.260952	0.373533	0.064384
H215	H	-0.927619	0.706867	0.397717
H216	H	-0.594285	1.040200	0.731050
O217	O	-0.487843	0.292000	-0.000126
O218	O	-0.154509	0.625333	0.333207
O219	O	0.178824	0.958667	0.666541
H220	H	-0.432377	0.347747	-0.000144
H221	H	-0.099044	0.681081	0.333189
H222	H	0.234289	1.014414	0.666522
O223	O	-0.293917	0.288348	-0.000138
O224	O	0.039416	0.621682	0.333195
O225	O	0.372749	0.955015	0.666528
H226	H	-0.222981	0.273290	-0.000158
H227	H	0.110352	0.606623	0.333175
H228	H	0.443686	0.939956	0.666509
H229	H	-1.155236	0.222135	-0.256022
H230	H	-0.821903	0.555468	0.077311
H231	H	-0.488570	0.888802	0.410645
O232	O	-0.337873	-0.050354	-0.000141
O233	O	-0.004539	0.282979	0.333192
O234	O	0.328794	0.616312	0.666526
H235	H	-0.360850	-0.089101	0.064379
H236	H	-0.027517	0.244232	0.397713
H237	H	0.305817	0.577566	0.731046
O238	O	-0.888279	0.692436	-0.000094
O239	O	-0.554945	1.025769	0.333239
O240	O	-0.221612	1.359103	0.666573
H241	H	-0.832531	0.747901	-0.000080
H242	H	-0.499198	1.081235	0.333253
H243	H	-0.165865	1.414568	0.666586
