data_functionalizedCrystal
_audit_creation_method	'MofGen! by Chris Wilmer'
_symmetry_space_group_name_H-M	'P1'
_symmetry_Int_Tables_number	1
_symmetry_cell_setting	triclinic
loop_
_symmetry_equiv_pos_as_xyz
  x,y,z
_cell_length_a	16.109301
_cell_length_b	16.109301
_cell_length_c	8.140239
_cell_angle_alpha	89.995060
_cell_angle_beta	89.999998
_cell_angle_gamma	83.461481
loop_
_atom_site_label
_atom_site_type_symbol
_atom_site_fract_x
_atom_site_fract_y
_atom_site_fract_z
O1	O	1.103130	0.106866	-0.136515
O2	O	0.861068	0.120165	-0.136542
O3	O	0.988749	-0.007515	-0.136511
O4	O	0.975449	0.234547	-0.136546
O5	O	0.988742	-0.007517	0.136716
O6	O	0.861061	0.120164	0.136686
O7	O	1.103123	0.106864	0.136712
Zn8	Zn	0.982091	0.113514	0.180080
Zn9	Zn	0.982100	0.113516	-0.179909
O10	O	0.975442	0.234545	0.136681
C11	C	0.830090	0.119626	0.000069
C12	C	0.737794	0.118011	0.000059
C13	C	0.515522	0.190018	0.000068
C14	C	0.428801	0.188494	0.000078
C15	C	0.448676	0.037006	0.000094
C16	C	0.535394	0.038530	0.000094
C17	C	0.568815	0.115039	0.000073
C18	C	0.395376	0.111990	0.000083
C19	C	0.301350	0.110337	0.000095
C20	C	0.662847	0.116693	0.000065
C21	C	0.988206	-0.038491	0.000104
C22	C	0.986591	-0.130786	0.000106
C23	C	1.058599	-0.353059	0.000088
C24	C	1.057075	-0.439779	0.000074
C25	C	0.905586	-0.419905	0.000064
C26	C	0.907111	-0.333186	0.000066
C27	C	0.983620	-0.299766	0.000086
C28	C	0.980571	-0.473205	0.000070
C29	C	0.978918	-0.567231	0.000056
C30	C	0.985273	-0.205734	0.000098
C31	C	1.134101	0.107404	0.000098
C32	C	1.226397	0.109019	0.000097
C33	C	0.975984	0.265521	0.000064
C34	C	0.977600	0.357816	0.000051
N35	N	0.982090	0.113512	0.425762
N36	N	0.982107	0.113511	-0.425591
H37	H	0.385413	0.249550	0.000077
Cl38	Cl	1.154781	-0.311047	0.000109
Cl39	Cl	0.557533	0.286200	0.000051
Cl40	Cl	0.406655	-0.059172	0.000109
Cl41	Cl	0.812844	-0.266184	0.000049
Cl42	Cl	0.602397	-0.055737	0.000115
Cl43	Cl	0.809409	-0.461926	0.000039
Cl44	Cl	1.151339	-0.506773	0.000073
