data_functionalizedCrystal
_audit_creation_method	'MofGen! by Chris Wilmer'
_symmetry_space_group_name_H-M	'P1'
_symmetry_Int_Tables_number	1
_symmetry_cell_setting	triclinic
loop_
_symmetry_equiv_pos_as_xyz
  x,y,z
_cell_length_a	17.699083
_cell_length_b	14.519731
_cell_length_c	16.176319
_cell_angle_alpha	89.992219
_cell_angle_beta	89.998611
_cell_angle_gamma	83.485934
loop_
_atom_site_label
_atom_site_type_symbol
_atom_site_fract_x
_atom_site_fract_y
_atom_site_fract_z
O1	O	1.004420	0.116623	-0.068632
O2	O	0.784086	0.131796	-0.068660
O3	O	0.900086	-0.010052	-0.068638
O4	O	0.888420	0.258472	-0.068654
O5	O	0.900070	-0.010061	0.068855
O6	O	0.784070	0.131787	0.068833
O7	O	1.004404	0.116614	0.068861
Cu8	Cu	0.894235	0.124200	0.081401
Cu9	Cu	0.894254	0.124211	-0.081200
O10	O	0.888404	0.258463	0.068839
C11	C	0.755879	0.131248	0.000083
C12	C	0.671857	0.129617	0.000073
C13	C	0.899532	-0.044414	0.000109
C14	C	0.897894	-0.146787	0.000109
C15	C	0.623479	0.212879	0.000068
C16	C	0.544531	0.211341	0.000079
C17	C	0.513962	0.126540	0.000089
C18	C	0.562346	0.043272	0.000096
C19	C	0.641292	0.044811	0.000091
C20	C	0.243965	0.037063	0.000117
C21	C	0.165012	0.035531	0.000119
C22	C	0.147204	0.203594	0.000105
C23	C	0.226150	0.205133	0.000100
C24	C	0.274527	0.121865	0.000112
C25	C	0.360131	0.123533	0.000102
C26	C	0.428360	0.124870	0.000093
C27	C	0.896563	-0.229926	0.000107
C28	C	0.894899	-0.334227	0.000101
C29	C	0.893579	-0.417361	0.000095
C30	C	0.891916	-0.521669	0.000090
C31	C	1.032611	0.117162	0.000116
C32	C	1.116633	0.118793	0.000121
C33	C	0.888958	0.292824	0.000090
C34	C	0.890596	0.395198	0.000085
N35	N	0.894228	0.124192	0.195767
N36	N	0.894268	0.124211	-0.195566
C37	C	0.945608	0.061407	0.239040
C38	C	0.945612	0.061406	0.325587
C39	C	0.894238	0.124195	0.368859
C40	C	0.842852	0.186983	0.325579
C41	C	0.842846	0.186979	0.239034
C42	C	0.842878	0.187000	0.674607
C43	C	0.842891	0.187001	0.761159
C44	C	0.945645	0.061427	0.761161
C45	C	0.945638	0.061423	0.674616
C46	C	0.894250	0.124207	0.631343
C47	C	0.894245	0.124207	0.537499
C48	C	0.894246	0.124201	0.462702
H49	H	0.648362	0.281934	0.000060
C50	C	1.047175	-0.062727	0.247745
C51	C	1.002079	-0.007616	0.191480
H52	H	1.082034	-0.105345	0.218383
H53	H	1.074453	-0.024379	0.281488
H54	H	1.015619	-0.095846	0.281512
H55	H	1.033635	0.025508	0.157717
H56	H	0.974799	-0.045969	0.157723
H57	H	0.801038	0.238123	0.639382
C58	C	0.086566	-0.063708	-0.070546
C59	C	0.131411	-0.057691	0.000134
H60	H	0.065826	-0.121258	-0.070539
H61	H	0.046460	-0.014343	-0.070547
H62	H	0.117003	-0.059617	-0.118488
H63	H	0.100972	-0.061774	0.048076
H64	H	0.171522	-0.107069	0.000142
C65	C	0.797241	0.242756	0.458244
C66	C	0.786382	0.256005	0.373142
H67	H	0.762382	0.285375	0.487604
H68	H	0.788936	0.181228	0.472437
H69	H	0.847769	0.252697	0.472409
H70	H	0.735856	0.246058	0.358976
H71	H	0.794682	0.317547	0.358943
H72	H	0.283344	-0.030739	0.000127
H73	H	0.505145	0.279141	0.000074
C74	C	0.741281	0.311115	0.247719
C75	C	0.786370	0.255998	0.191464
H76	H	0.706417	0.353728	0.218350
H77	H	0.714009	0.272771	0.281483
H78	H	0.772841	0.344240	0.281466
H79	H	0.754811	0.222868	0.157720
H80	H	0.813644	0.294348	0.157685
H81	H	0.251035	0.274186	0.000088
H82	H	0.537451	-0.025775	0.000116
H83	H	0.680681	-0.022990	0.000095
C84	C	0.018275	0.275875	0.000116
C85	C	0.094025	0.295126	0.000103
H86	H	-0.014552	0.332383	0.000119
H87	H	0.008996	0.241103	-0.047823
H88	H	0.009006	0.241094	0.048072
H89	H	0.103295	0.329901	-0.047855
H90	H	0.103308	0.329912	0.048047
H91	H	0.987449	0.010281	0.360821
C92	C	1.047205	-0.062713	0.683313
C93	C	1.002107	-0.007599	0.627053
H94	H	1.082061	-0.105331	0.653949
H95	H	1.074485	-0.024367	0.717056
H96	H	1.015650	-0.095832	0.717082
H97	H	1.033661	0.025525	0.593288
H98	H	0.974824	-0.045951	0.593296
H99	H	0.987486	0.010302	0.796403
C100	C	0.741298	0.311118	0.752468
C101	C	0.786409	0.256016	0.808725
H102	H	0.706428	0.353717	0.781836
H103	H	0.772836	0.344250	0.718704
H104	H	0.714025	0.272756	0.718721
H105	H	0.813687	0.294378	0.842469
H106	H	0.754867	0.222882	0.842503
