data_functionalizedCrystal
_audit_creation_method	'MofGen! by Chris Wilmer'
_symmetry_space_group_name_H-M	'P1'
_symmetry_Int_Tables_number	1
_symmetry_cell_setting	triclinic
loop_
_symmetry_equiv_pos_as_xyz
  x,y,z
_cell_length_a	10.654550
_cell_length_b	22.610064
_cell_length_c	10.654550
_cell_angle_alpha	89.995731
_cell_angle_beta	84.484931
_cell_angle_gamma	90.005063
loop_
_atom_site_label
_atom_site_type_symbol
_atom_site_fract_x
_atom_site_fract_y
_atom_site_fract_z
O1	O	1.667850	0.049140	0.176382
O2	O	1.302371	0.049151	0.193188
O3	O	1.493514	0.049142	0.002046
O4	O	1.476708	0.049150	0.367524
O5	O	1.493480	-0.049227	0.002074
O6	O	1.302337	-0.049218	0.193216
O7	O	1.667816	-0.049229	0.176410
Zn8	Zn	1.485071	-0.064842	0.184817
Zn9	Zn	1.485116	0.064764	0.184781
O10	O	1.476674	-0.049220	0.367552
C11	C	1.255556	-0.000032	0.191968
C12	C	1.116113	-0.000028	0.188276
N13	N	1.485050	-0.153294	0.184842
C14	C	1.036628	-0.000027	0.300818
C15	C	0.905607	-0.000038	0.297341
C16	C	0.933570	-0.000047	0.068772
C17	C	1.064588	-0.000041	0.072250
C18	C	1.569758	-0.561940	0.100156
C19	C	1.569764	-0.623860	0.100147
O20	O	1.641732	-0.655882	0.028162
N21	N	1.485115	-0.654831	0.184755
C22	C	1.400445	-0.623880	0.269368
O23	O	1.328444	-0.655909	0.341332
C24	C	1.400433	-0.561961	0.269370
C25	C	1.485097	-0.530993	0.184766
C26	C	1.654413	-0.530971	0.015557
C27	C	1.654408	-0.469056	0.015568
C28	C	1.569748	-0.438108	0.100178
C29	C	1.485092	-0.469077	0.184777
C30	C	1.315759	-0.531011	0.353977
C31	C	1.315754	-0.469088	0.353971
C32	C	1.400417	-0.438119	0.269366
C33	C	1.400426	-0.376214	0.269397
N34	N	1.485075	-0.345243	0.184790
C35	C	1.569736	-0.376190	0.100180
C36	C	1.400474	-0.753914	0.269356
C37	C	1.400490	-0.815831	0.269361
C38	C	1.569808	-0.815807	0.100138
C39	C	1.569797	-0.753888	0.100140
C40	C	1.485123	-0.722942	0.184748
C41	C	1.569720	-0.246162	0.100210
C42	C	1.569711	-0.184241	0.100232
C43	C	1.400389	-0.184271	0.269450
C44	C	1.400402	-0.246187	0.269433
C45	C	1.485072	-0.277131	0.184803
O46	O	1.328491	-0.344153	0.341342
O47	O	1.641714	-0.344153	0.028217
C48	C	1.714631	-0.000044	0.177630
C49	C	1.854074	-0.000045	0.181322
C50	C	1.492263	-0.000043	-0.044738
C51	C	1.488571	-0.000042	-0.184181
N52	N	1.485147	0.153216	0.184747
C53	C	1.601112	-0.000045	-0.263667
C54	C	1.597636	-0.000037	-0.394688
C55	C	1.369066	-0.000026	-0.366725
C56	C	1.372544	-0.000029	-0.235706
C57	C	1.477925	-0.000034	0.414336
C58	C	1.481616	-0.000031	0.553779
H59	H	0.840894	-0.000038	0.388984
H60	H	1.078574	-0.000021	0.395294
H61	H	1.280893	-0.000025	-0.170985
C62	C	0.877697	-0.000175	-0.057233
C63	C	0.917972	-0.050791	-0.125308
C64	C	0.866519	-0.050931	-0.241384
H65	H	0.904884	0.034088	-0.103779
H66	H	0.788278	-0.000208	-0.043243
H67	H	1.007373	-0.050753	-0.139302
H68	H	0.890787	-0.085063	-0.078800
H69	H	0.777100	-0.050964	-0.227395
H70	H	0.893709	-0.016665	-0.287919
H71	H	0.893829	-0.085276	-0.287583
C72	C	1.243064	0.000104	-0.422602
C73	C	1.174997	0.050723	-0.382332
C74	C	1.058924	0.050866	-0.433791
H75	H	1.196510	-0.034157	-0.395417
H76	H	1.257059	0.000136	-0.512021
H77	H	1.160998	0.050686	-0.292931
H78	H	1.221513	0.084993	-0.409515
H79	H	1.072918	0.050898	-0.523211
H80	H	1.012381	0.016603	-0.406603
H81	H	1.012731	0.085213	-0.406485
C82	C	1.661447	-0.279786	0.008186
C83	C	1.593900	-0.315321	-0.069357
C84	C	1.678360	-0.346297	-0.154148
H85	H	1.714152	-0.303988	0.053699
H86	H	1.711842	-0.252487	-0.042263
H87	H	1.543527	-0.342616	-0.018914
H88	H	1.541199	-0.291134	-0.114898
H89	H	1.728755	-0.318999	-0.204597
H90	H	1.731061	-0.370496	-0.108624
H91	H	1.632542	-0.370407	-0.206778
C92	C	1.661687	-0.150726	0.008227
C93	C	1.735802	-0.191086	-0.065895
C94	C	1.820528	-0.160236	-0.150673
H95	H	1.714476	-0.126569	0.053746
H96	H	1.616088	-0.126584	-0.044542
H97	H	1.781398	-0.215219	-0.013133
H98	H	1.683048	-0.215244	-0.111442
H99	H	1.774929	-0.136094	-0.203442
H100	H	1.873308	-0.136081	-0.105143
H101	H	1.870817	-0.187616	-0.200983
H102	H	1.246798	-0.443895	0.422868
H103	H	1.129309	-0.000043	-0.019401
C104	C	1.746373	-0.435545	-0.076443
C105	C	1.820481	-0.475910	-0.150557
C106	C	1.905202	-0.445066	-0.235351
H107	H	1.799167	-0.411385	-0.030935
H108	H	1.700771	-0.411406	-0.129215
H109	H	1.866081	-0.500039	-0.097791
H110	H	1.767722	-0.500071	-0.196091
H111	H	1.859599	-0.420927	-0.288123
H112	H	1.957987	-0.420908	-0.189833
H113	H	1.955486	-0.472449	-0.285655
H114	H	1.638736	-0.728677	0.031247
H115	H	1.723354	-0.556163	-0.053348
H116	H	1.638742	-0.841015	0.031242
H117	H	1.689279	-0.000039	-0.459401
C118	C	1.308495	-0.720425	0.361379
C119	C	1.234398	-0.760807	0.435489
C120	C	1.149666	-0.729982	0.520284
H121	H	1.255695	-0.696269	0.315873
H122	H	1.354089	-0.696283	0.414155
H123	H	1.188807	-0.784938	0.382721
H124	H	1.287163	-0.784964	0.481024
H125	H	1.195260	-0.705841	0.573059
H126	H	1.096875	-0.705828	0.474766
H127	H	1.099389	-0.757377	0.570585
H128	H	1.695588	-0.000053	-0.221720
C129	C	1.223692	-0.564516	0.445888
C130	C	1.149532	-0.524149	0.519946
C131	C	1.064689	-0.554991	0.604621
H132	H	1.269162	-0.588673	0.498718
H133	H	1.170953	-0.588658	0.400251
H134	H	1.202264	-0.500018	0.565579
H135	H	1.104034	-0.499991	0.467150
H136	H	1.011951	-0.579132	0.558984
H137	H	1.110170	-0.579147	0.657443
H138	H	1.014354	-0.527607	0.654872
C139	C	1.308341	-0.279707	0.361340
C140	C	1.234178	-0.239348	0.435418
C141	C	1.149332	-0.270200	0.520073
H142	H	1.353809	-0.303870	0.414159
H143	H	1.255605	-0.303842	0.315688
H144	H	1.286907	-0.215223	0.481067
H145	H	1.188682	-0.215183	0.382634
H146	H	1.096596	-0.294335	0.474420
H147	H	1.194811	-0.294363	0.572883
H148	H	1.098995	-0.242822	0.570337
C149	C	1.308514	-0.849526	0.361027
C150	C	1.231076	-0.885084	0.293410
C151	C	1.146335	-0.916135	0.377807
H152	H	1.257976	-0.822289	0.411449
H153	H	1.354107	-0.873715	0.413711
H154	H	1.185487	-0.860896	0.240748
H155	H	1.281579	-0.912331	0.242992
H156	H	1.191928	-0.940325	0.430491
H157	H	1.095806	-0.888894	0.428225
H158	H	1.093791	-0.940268	0.331942
H159	H	1.331463	-0.159064	0.338342
