data_functionalizedCrystal
_audit_creation_method	'MofGen! by Chris Wilmer'
_symmetry_space_group_name_H-M	'P1'
_symmetry_Int_Tables_number	1
_symmetry_cell_setting	triclinic
loop_
_symmetry_equiv_pos_as_xyz
  x,y,z
_cell_length_a	21.395362
_cell_length_b	18.050589
_cell_length_c	18.050582
_cell_angle_alpha	89.981795
_cell_angle_beta	89.965696
_cell_angle_gamma	90.044101
loop_
_atom_site_label
_atom_site_type_symbol
_atom_site_fract_x
_atom_site_fract_y
_atom_site_fract_z
Zn1	Zn	0.957811	-0.295392	-0.420319
Zn2	Zn	1.457811	0.204608	0.079681
Zn3	Zn	0.957735	-0.419575	-0.296139
Zn4	Zn	1.457735	0.080425	0.203861
Zn5	Zn	0.853043	-0.295438	-0.296101
Zn6	Zn	1.353043	0.204562	0.203899
Zn7	Zn	0.852999	-0.419579	-0.420245
Zn8	Zn	1.352999	0.080421	0.079755
O9	O	0.905397	-0.357496	-0.358201
O10	O	1.405397	0.142504	0.141799
O11	O	1.045479	-0.311844	-0.403893
O12	O	1.545479	0.188156	0.096107
O13	O	0.943835	-0.403126	-0.192209
O14	O	1.443835	0.096874	0.307791
O15	O	0.866991	-0.191507	-0.312594
O16	O	1.366991	0.308493	0.187406
O17	O	1.045423	-0.403081	-0.312658
O18	O	1.545423	0.096919	0.187342
O19	O	0.943963	-0.191473	-0.403857
O20	O	1.443963	0.308527	0.096143
O21	O	0.866918	-0.311923	-0.192182
O22	O	1.366918	0.188077	0.307818
O23	O	0.765360	-0.311926	-0.312523
O24	O	1.265360	0.188074	0.187477
O25	O	0.866916	-0.403088	-0.524180
O26	O	1.366916	0.096912	-0.024180
O27	O	0.765327	-0.403132	-0.403731
O28	O	1.265327	0.096868	0.096269
O29	O	0.943920	-0.311848	-0.524234
O30	O	1.443920	0.188152	-0.024234
O31	O	0.943792	-0.523500	-0.312586
O32	O	1.443792	-0.023500	0.187414
O33	O	0.866843	-0.523503	-0.403767
O34	O	1.366843	-0.023503	0.096233
C35	C	0.742610	-0.357535	-0.358115
C36	C	1.242610	0.142465	0.141885
C37	C	0.672968	-0.357570	-0.358096
C38	C	1.172968	0.142430	0.141904
C39	C	0.905322	-0.550448	-0.358189
C40	C	1.405322	-0.050448	0.141811
C41	C	0.905347	-0.632994	-0.358208
C42	C	1.405347	-0.132994	0.141792
C43	C	0.640255	-0.405124	-0.405517
C44	C	1.140255	0.094876	0.094483
C45	C	0.574819	-0.405106	-0.405550
C46	C	1.074819	0.094894	0.094450
C47	C	0.542100	-0.357541	-0.358149
C48	C	1.042100	0.142459	0.141851
C49	C	0.574821	-0.309978	-0.310724
C50	C	1.074821	0.190022	0.189276
C51	C	0.640255	-0.309993	-0.310698
C52	C	1.140255	0.190007	0.189302
C53	C	0.438384	-0.351565	-0.291291
C54	C	0.938384	0.148435	0.208709
C55	C	0.372952	-0.351556	-0.291316
C56	C	0.872952	0.148444	0.208684
C57	C	0.340279	-0.357493	-0.358231
C58	C	0.840279	0.142507	0.141769
C59	C	0.373048	-0.363455	-0.425122
C60	C	0.873048	0.136545	0.074878
C61	C	0.438482	-0.363469	-0.425095
C62	C	0.938482	0.136531	0.074905
C63	C	0.471148	-0.357520	-0.358172
C64	C	0.971148	0.142480	0.141828
C65	C	0.236613	-0.405030	-0.405691
C66	C	0.736613	0.094970	0.094309
C67	C	0.171177	-0.405006	-0.405726
C68	C	0.671177	0.094994	0.094274
C69	C	0.171180	-0.309883	-0.310894
C70	C	0.671180	0.190117	0.189106
C71	C	0.236615	-0.309902	-0.310866
C72	C	0.736615	0.190098	0.189134
C73	C	0.269328	-0.357480	-0.358264
C74	C	0.769328	0.142520	0.141736
C75	C	0.863543	-0.832473	-0.407775
C76	C	1.363543	-0.332473	0.092225
C77	C	0.848274	-0.881912	-0.340001
C78	C	1.348274	-0.381912	0.159999
C79	C	0.905408	-0.784124	-0.358218
C80	C	1.405408	-0.284124	0.141782
C81	C	0.920707	-0.881767	-0.425999
C82	C	1.420707	-0.381767	0.074001
C83	C	0.905466	-0.930109	-0.358233
C84	C	1.405466	-0.430109	0.141767
C85	C	0.890109	-0.832476	-0.290409
C86	C	1.390109	-0.332476	0.209591
C87	C	0.962569	-0.832327	-0.376452
C88	C	1.462569	-0.332327	0.123548
C89	C	0.947322	-0.881743	-0.308632
C90	C	1.447322	-0.381743	0.191368
C91	C	0.905373	-0.700026	-0.358210
C92	C	1.405373	-0.200026	0.141790
C93	C	0.905502	-1.014206	-0.358234
C94	C	1.405502	-0.514206	0.141766
C95	C	1.068821	-0.357457	-0.358288
C96	C	1.568821	0.142543	0.141712
C97	C	1.138462	-0.357441	-0.358325
C98	C	1.638462	0.142559	0.141675
C99	C	0.905422	-0.357463	-0.551907
C100	C	1.405422	0.142537	-0.051907
C101	C	0.905432	-0.357449	-0.634453
C102	C	1.405432	0.142551	-0.134453
C103	C	0.905490	-0.163790	-0.358230
C104	C	1.405490	0.336210	0.141770
C105	C	0.905530	-0.081245	-0.358242
C106	C	1.405530	0.418755	0.141758
C107	C	0.863589	-0.406997	-0.833874
C108	C	1.363589	0.093003	-0.333874
C109	C	0.920752	-0.425132	-0.883289
C110	C	1.420752	0.074868	-0.383289
C111	C	0.905463	-0.357392	-0.785583
C112	C	1.405463	0.142608	-0.285583
C113	C	0.848332	-0.339237	-0.883249
C114	C	1.348332	0.160763	-0.383249
C115	C	0.905488	-0.357339	-0.931568
C116	C	1.405488	0.142661	-0.431568
C117	C	0.962656	-0.375563	-0.833911
C118	C	1.462656	0.124437	-0.333911
C119	C	0.890197	-0.289636	-0.833867
C120	C	1.390197	0.210364	-0.333867
C121	C	0.947399	-0.307745	-0.883260
C122	C	1.447399	0.192255	-0.383260
C123	C	0.905448	-0.357425	-0.701485
C124	C	1.405448	0.142575	-0.201485
C125	C	0.905509	-0.357306	-1.015665
C126	C	1.405509	0.142694	-0.515665
C127	C	0.905409	-0.357475	-0.165249
C128	C	1.405409	0.142525	0.334751
C129	C	0.905520	-0.357280	-0.082704
C130	C	1.405520	0.142720	0.417296
H131	H	0.548179	-0.443829	-0.444168
H132	H	1.048179	0.056171	0.055832
H133	H	0.828211	-0.449002	-0.812190
H134	H	1.328211	0.050998	-0.312190
H135	H	0.877253	-0.232375	-0.812142
H136	H	1.377253	0.267625	-0.312142
H137	H	1.010870	-0.810533	-0.391893
H138	H	1.510870	-0.310533	0.108107
N139	N	0.473827	-0.369897	-0.497235
N140	N	0.973827	0.130103	0.002765
H141	H	0.443205	-0.373658	-0.539633
H142	H	0.943205	0.126342	-0.039633
H143	H	0.501018	-0.324663	-0.504195
H144	H	1.001018	0.175337	-0.004195
N145	N	0.539535	-0.258682	-0.259593
N146	N	1.039535	0.241318	0.240407
H147	H	0.550878	-0.270148	-0.206509
H148	H	1.050878	0.229852	0.293491
H149	H	0.550987	-0.205658	-0.271274
H150	H	1.050987	0.294342	0.228726
H151	H	0.346276	-0.346706	-0.236849
H152	H	0.846276	0.153294	0.263151
H153	H	0.877136	-0.810914	-0.233077
H154	H	1.377136	-0.310914	0.266923
H155	H	0.933624	-0.903419	-0.483315
H156	H	1.433624	-0.403419	0.016685
N157	N	0.994370	-0.252155	-0.911823
N158	N	1.494370	0.247845	-0.411823
H159	H	1.037497	-0.265947	-0.893783
H160	H	1.537497	0.234053	-0.393783
H161	H	0.993805	-0.252169	-0.967770
H162	H	1.493805	0.247831	-0.467770
H163	H	0.933680	-0.482410	-0.904998
H164	H	1.433680	0.017590	-0.404998
N165	N	1.026689	-0.395960	-0.805333
N166	N	1.526689	0.104040	-0.305333
H167	H	1.026280	-0.395876	-0.749381
H168	H	1.526280	0.104124	-0.249381
H169	H	1.038287	-0.446942	-0.823801
H170	H	1.538287	0.053058	-0.323801
H171	H	0.666890	-0.271266	-0.272082
H172	H	1.166890	0.228734	0.227918
H173	H	0.982752	-0.903241	-0.266681
H174	H	1.482752	-0.403241	0.233319
H175	H	0.800006	-0.323903	-0.904923
H176	H	1.300006	0.176097	-0.404923
H177	H	0.346448	-0.368288	-0.479610
H178	H	0.846448	0.131712	0.020390
H179	H	0.666885	-0.443864	-0.444113
H180	H	1.166885	0.056136	0.055887
H181	H	0.263251	-0.271182	-0.272247
H182	H	0.763251	0.228818	0.227753
H183	H	0.263249	-0.443766	-0.444289
H184	H	0.763249	0.056234	0.055711
H185	H	0.828087	-0.810838	-0.449624
H186	H	1.328087	-0.310838	0.050376
N187	N	0.784275	-0.910754	-0.319574
N188	N	1.284275	-0.410754	0.180426
H189	H	0.767548	-0.942341	-0.361277
H190	H	1.267548	-0.442341	0.138723
H191	H	0.787351	-0.941520	-0.272977
H192	H	1.287351	-0.441520	0.227023
N193	N	0.135889	-0.456303	-0.456871
N194	N	0.635889	0.043697	0.043129
H195	H	0.147330	-0.444856	-0.509950
H196	H	0.647330	0.055144	-0.009950
H197	H	0.147240	-0.509328	-0.445166
H198	H	0.647240	-0.009328	0.054834
N199	N	0.135899	-0.258574	-0.259772
N200	N	0.635899	0.241426	0.240228
H201	H	0.089483	-0.265778	-0.266986
H202	H	0.589483	0.234222	0.233014
H203	H	0.147284	-0.270061	-0.206708
H204	H	0.647284	0.229939	0.293292
H205	H	0.464981	-0.346727	-0.236797
H206	H	0.964981	0.153273	0.263203
