data_functionalizedCrystal
_audit_creation_method	'MofGen! by Chris Wilmer'
_symmetry_space_group_name_H-M	'P1'
_symmetry_Int_Tables_number	1
_symmetry_cell_setting	triclinic
loop_
_symmetry_equiv_pos_as_xyz
  x,y,z
_cell_length_a	26.809956
_cell_length_b	14.971486
_cell_length_c	14.971486
_cell_angle_alpha	96.385871
_cell_angle_beta	89.995860
_cell_angle_gamma	89.996118
loop_
_atom_site_label
_atom_site_type_symbol
_atom_site_fract_x
_atom_site_fract_y
_atom_site_fract_z
O1	O	0.041422	-1.186952	0.116550
O2	O	0.041436	-0.926552	0.130509
O3	O	0.041425	-1.063731	-0.006671
O4	O	0.041433	-1.049772	0.253730
O5	O	-0.041534	-1.063705	-0.006650
O6	O	-0.041523	-0.926526	0.130530
O7	O	-0.041537	-1.186926	0.116571
Zn8	Zn	-0.054702	-1.056722	0.123554
Zn9	Zn	0.054601	-1.056756	0.123526
O10	O	-0.041526	-1.049746	0.253750
C11	C	-0.000042	-0.893214	0.129895
C12	C	-0.000037	-0.793917	0.128024
N13	N	-0.129298	-1.056705	0.123572
C14	C	-0.000054	-1.063094	-0.039985
C15	C	-0.000054	-1.061223	-0.139282
C16	C	-0.473928	-1.117491	0.062798
C17	C	-0.682806	-1.117512	0.062785
O18	O	-0.709814	-1.169158	0.011118
N19	N	-0.708925	-1.056761	0.123506
C20	C	-0.682821	-0.995995	0.184232
O21	O	-0.709829	-0.944317	0.235873
C22	C	-0.473944	-0.995971	0.184241
C23	C	-0.447828	-1.056732	0.123521
C24	C	-0.447812	-1.178247	0.002083
C25	C	-0.395596	-1.178244	0.002090
C26	C	-0.369496	-1.117486	0.062813
C27	C	-0.395612	-1.056730	0.123528
C28	C	-0.447841	-0.935202	0.244962
C29	C	-0.395618	-0.935200	0.244957
C30	C	-0.369502	-0.995961	0.184237
C31	C	-0.317295	-0.995968	0.184258
N32	N	-0.291176	-1.056720	0.123536
C33	C	-0.317277	-1.117479	0.062814
C34	C	-0.792484	-0.996014	0.184225
C35	C	-0.844703	-0.996021	0.184224
C36	C	-0.844685	-1.117537	0.062775
C37	C	-0.792465	-1.117533	0.062781
C38	C	-0.766365	-1.056765	0.123503
C39	C	-0.207619	-1.117469	0.062834
C40	C	-0.155398	-1.117464	0.062849
C41	C	-0.155421	-0.995945	0.184295
C42	C	-0.207637	-0.995953	0.184283
C43	C	-0.233735	-1.056719	0.123545
O44	O	-0.290255	-0.944342	0.235891
O45	O	-0.290259	-1.169136	0.011167
C46	C	-0.526145	-1.117494	0.062791
C47	C	-0.552261	-1.056738	0.123506
C48	C	-0.526160	-0.995979	0.184229
C49	C	-0.604479	-1.056745	0.123506
C50	C	-0.630580	-1.117503	0.062783
C51	C	-0.604461	-1.178255	0.002061
C52	C	-0.552245	-1.178252	0.002068
C53	C	-0.552279	-0.935227	0.244951
C54	C	-0.604495	-0.935236	0.244940
C55	C	-0.630595	-0.995994	0.184217
N56	N	0.129197	-1.056780	0.123501
C57	C	-0.000058	-1.220263	0.117185
C58	C	-0.000060	-1.319561	0.119056
C59	C	-0.000035	-0.736691	0.208614
C60	C	-0.000042	-0.643392	0.206850
C61	C	-0.000048	-0.607320	0.124497
C62	C	-0.000051	-0.664552	0.043902
C63	C	-0.000047	-0.757850	0.045666
C64	C	-0.000058	-0.470090	0.040231
C65	C	-0.000061	-0.376786	0.038466
C66	C	-0.000053	-0.355632	0.201415
C67	C	-0.000049	-0.448930	0.203179
C68	C	-0.000052	-0.506156	0.122584
C69	C	-0.000058	-1.141812	-0.196507
C70	C	-0.000053	-1.140049	-0.289807
C71	C	-0.000047	-1.057696	-0.325879
C72	C	-0.000041	-0.977101	-0.268646
C73	C	-0.000042	-0.978865	-0.175349
C74	C	-0.000039	-0.973430	-0.463109
C75	C	-0.000038	-0.971665	-0.556413
C76	C	-0.000049	-1.134614	-0.577567
C77	C	-0.000051	-1.136378	-0.484269
C78	C	-0.000046	-1.055782	-0.427043
C79	C	-0.000046	-1.050383	0.287065
C80	C	-0.000043	-1.052254	0.386362
H81	H	-0.134136	-1.166946	0.013404
C82	C	-0.000035	-0.884773	-0.400160
C83	C	-0.043114	-0.863567	-0.333106
C84	C	-0.043113	-0.774914	-0.270157
C85	C	-0.000033	-0.707466	-0.274262
C86	C	0.043050	-0.728670	-0.341319
C87	C	0.043049	-0.817323	-0.404267
H88	H	-0.075007	-0.913498	-0.330064
H89	H	-0.075005	-0.759217	-0.220517
H90	H	-0.000032	-0.641839	-0.227664
H91	H	0.074943	-0.678739	-0.344360
H92	H	0.074941	-0.833020	-0.453907
H93	H	-0.000067	-0.347419	-0.028593
C94	C	-0.000041	-0.580448	0.295503
C95	C	0.043042	-0.584548	0.362945
C96	C	0.043042	-0.521606	0.451603
C97	C	-0.000041	-0.454563	0.472819
C98	C	-0.043128	-0.450461	0.405375
C99	C	-0.043127	-0.513403	0.316717
H100	H	0.074938	-0.634179	0.347242
H101	H	0.074937	-0.524643	0.501530
H102	H	-0.000042	-0.407970	0.538449
H103	H	-0.075024	-0.400830	0.421078
H104	H	-0.075023	-0.510366	0.266790
C105	C	-0.236366	-0.929120	0.251080
C106	C	-0.229184	-0.827270	0.249409
C107	C	-0.257908	-0.760428	0.316202
C108	C	-0.293813	-0.795437	0.384665
C109	C	-0.300996	-0.897292	0.386339
C110	C	-0.272272	-0.964134	0.319546
H111	H	-0.202604	-0.801349	0.198726
H112	H	-0.252590	-0.685028	0.314962
H113	H	-0.315076	-0.745956	0.434109
H114	H	-0.327576	-0.923212	0.437022
H115	H	-0.277590	-1.039534	0.320786
C116	C	-0.000058	-0.624874	-0.046688
C117	C	-0.043138	-0.563638	-0.070295
C118	C	-0.043142	-0.523961	-0.160886
C119	C	-0.000066	-0.545521	-0.227871
C120	C	0.043017	-0.606760	-0.204266
C121	C	0.043022	-0.646437	-0.113674
H122	H	-0.075028	-0.547676	-0.020707
H123	H	-0.075035	-0.478628	-0.178360
H124	H	-0.000069	-0.516150	-0.294932
H125	H	0.074907	-0.622722	-0.253853
H126	H	0.074915	-0.691770	-0.096200
H127	H	-0.771204	-1.167010	0.013337
H128	H	-0.374336	-1.227719	-0.047356
H129	H	-0.000066	-1.208874	-0.167145
H130	H	-0.228862	-1.166949	0.013375
H131	H	-0.000054	-0.309033	0.267039
H132	H	-0.000049	-0.804443	-0.019958
H133	H	-0.374371	-0.885712	0.294403
C134	C	-0.126705	-0.929109	0.251086
C135	C	-0.133890	-0.827258	0.249406
C136	C	-0.105173	-0.760416	0.316193
C137	C	-0.069272	-0.795424	0.384659
C138	C	-0.062086	-0.897279	0.386341
C139	C	-0.090803	-0.964122	0.319554
H140	H	-0.160467	-0.801339	0.198721
H141	H	-0.110493	-0.685016	0.314947
H142	H	-0.048015	-0.745943	0.434098
H143	H	-0.035509	-0.923198	0.437026
H144	H	-0.085483	-1.039522	0.320800
H145	H	-0.865944	-1.167010	0.013333
C146	C	-0.523521	-1.245087	-0.064730
C147	C	-0.530701	-1.243479	-0.166589
C148	C	-0.501981	-1.310315	-0.233392
C149	C	-0.466082	-1.378759	-0.198337
C150	C	-0.458900	-1.380370	-0.096473
C151	C	-0.487620	-1.313533	-0.029670
H152	H	-0.557277	-1.192810	-0.192544
H153	H	-0.507297	-1.309122	-0.308799
H154	H	-0.444821	-1.428235	-0.247789
H155	H	-0.432324	-1.431039	-0.070519
H156	H	-0.482304	-1.314726	0.045737
H157	H	-0.625721	-1.227731	-0.047379
H158	H	-0.469059	-1.227724	-0.047369
H159	H	-0.531032	-0.885749	0.294398
H160	H	-0.865963	-0.946553	0.233677
H161	H	-0.625755	-0.885758	0.294393
H162	H	-0.000040	-0.478296	0.270239
H163	H	-0.000041	-0.904606	-0.585780
H164	H	-0.000061	-0.516682	-0.025399
H165	H	-0.771237	-0.946528	0.233674
H166	H	-0.000030	-0.766054	0.275675
H167	H	-0.469097	-0.885724	0.294404
H168	H	-0.000058	-1.205673	-0.336396
H169	H	-0.000060	-1.203437	-0.454903
H170	H	-0.000052	-1.200238	-0.624165
H171	H	-0.000033	-0.910047	-0.298024
H172	H	-0.000039	-0.913240	-0.128756
