data_functionalizedCrystal
_audit_creation_method	'MofGen! by Chris Wilmer'
_symmetry_space_group_name_H-M	'P1'
_symmetry_Int_Tables_number	1
_symmetry_cell_setting	triclinic
loop_
_symmetry_equiv_pos_as_xyz
  x,y,z
_cell_length_a	14.971486
_cell_length_b	10.654550
_cell_length_c	13.448316
_cell_angle_alpha	89.994587
_cell_angle_beta	89.998199
_cell_angle_gamma	84.049516
loop_
_atom_site_label
_atom_site_type_symbol
_atom_site_fract_x
_atom_site_fract_y
_atom_site_fract_z
O1	O	1.187838	0.163659	-0.082575
O2	O	0.927544	0.183258	-0.082602
O3	O	1.063676	-0.009345	-0.082584
O4	O	1.051707	0.356262	-0.082593
O5	O	1.063659	-0.009357	0.082800
O6	O	0.927527	0.183246	0.082782
O7	O	1.187821	0.163647	0.082809
Cu8	Cu	1.057672	0.173445	0.097896
Cu9	Cu	1.057693	0.173460	-0.097689
O10	O	1.051689	0.356250	0.082791
C11	C	0.894206	0.182375	0.000087
C12	C	0.794895	0.179749	0.000077
C13	C	0.738285	0.292898	0.000075
C14	C	0.644972	0.290422	0.000090
C15	C	0.608271	0.174797	0.000099
C16	C	0.664888	0.061639	0.000104
C17	C	0.758199	0.064116	0.000096
C18	C	0.470397	0.056485	0.000117
C19	C	0.377080	0.054007	0.000123
C20	C	0.357171	0.282791	0.000112
C21	C	0.450482	0.285268	0.000104
C22	C	0.507092	0.172110	0.000106
C23	C	1.062788	-0.056139	0.000107
C24	C	1.060159	-0.195555	0.000103
C25	C	1.140311	-0.275900	0.000114
C26	C	1.137835	-0.406894	0.000107
C27	C	0.975048	-0.377185	0.000081
C28	C	0.977525	-0.246193	0.000082
C29	C	1.234295	-0.293054	0.000133
C30	C	1.231819	-0.424048	0.000126
C31	C	1.221159	0.164530	0.000118
C32	C	1.320470	0.167156	0.000122
C33	C	1.052577	0.403044	0.000098
C34	C	1.055206	0.542460	0.000096
N35	N	1.057664	0.173435	0.235461
N36	N	1.057708	0.173460	-0.235253
C37	C	1.117962	0.088185	0.287509
C38	C	1.117968	0.088184	0.391612
C39	C	1.057679	0.173440	0.443665
C40	C	0.997375	0.258693	0.391610
C41	C	0.997365	0.258687	0.287509
C42	C	0.997400	0.258702	0.608590
C43	C	0.997410	0.258710	0.712698
C44	C	1.118002	0.088199	0.712694
C45	C	1.117993	0.088193	0.608592
C46	C	1.057689	0.173448	0.556544
H47	H	0.516488	-0.035661	0.000121
C48	C	0.490853	0.412452	0.000096
H49	H	0.443775	0.479491	0.000106
H50	H	0.526840	0.418177	-0.057578
H51	H	0.526839	0.418162	0.057776
H52	H	1.271063	-0.264085	-0.069071
H53	H	0.907770	-0.418431	0.000063
H54	H	0.948282	0.328106	0.433998
H55	H	0.948315	0.328132	0.755075
C56	C	0.336705	-0.073174	0.000147
H57	H	0.273024	-0.058437	0.000142
H58	H	0.356087	-0.119763	0.057826
H59	H	0.356084	-0.119777	-0.057527
H60	H	0.948291	0.328122	0.566216
H61	H	1.167067	0.018767	0.433989
H62	H	1.260230	-0.469991	-0.071279
H63	H	1.167089	0.018778	0.566211
C64	C	0.889358	-0.157817	0.000063
H65	H	0.839793	-0.206739	0.000059
H66	H	0.886951	-0.106092	-0.057610
H67	H	0.886930	-0.106108	0.057743
C68	C	1.279632	-0.480989	0.093632
H69	H	1.300968	-0.415514	0.132097
H70	H	1.328807	-0.539509	0.074420
H71	H	1.238605	-0.523057	0.132075
H72	H	1.264215	-0.257753	0.071546
C73	C	0.624523	-0.065550	0.000112
H74	H	0.671605	-0.132583	0.000120
H75	H	0.588535	-0.071268	-0.057558
H76	H	0.588538	-0.071275	0.057795
C77	C	0.294908	0.407266	0.000115
H78	H	0.330130	0.476482	0.000096
H79	H	0.258096	0.411059	0.057792
H80	H	0.258090	0.411055	-0.057562
H81	H	0.598884	0.382560	0.000088
C82	C	0.820473	-0.060344	0.000096
H83	H	0.881302	-0.042310	0.000100
H84	H	0.809273	-0.107753	-0.057572
H85	H	0.809272	-0.107748	0.057781
H86	H	1.167060	0.018766	0.245134
C87	C	1.184336	-0.005583	0.769937
H88	H	1.220249	-0.056346	0.724027
H89	H	1.151850	-0.057941	0.810559
H90	H	1.221850	0.039697	0.810535
C91	C	0.931041	0.352461	0.230251
H92	H	0.939664	0.340240	0.160797
H93	H	0.941270	0.436302	0.247298
H94	H	0.871263	0.338674	0.247323
C95	C	0.778649	0.420087	0.000065
H96	H	0.731566	0.487119	0.000075
H97	H	0.814633	0.425817	-0.057611
H98	H	0.814636	0.425804	0.057743
