data_functionalizedCrystal
_audit_creation_method	'MofGen! by Chris Wilmer'
_symmetry_space_group_name_H-M	'P1'
_symmetry_Int_Tables_number	1
_symmetry_cell_setting	triclinic
loop_
_symmetry_equiv_pos_as_xyz
  x,y,z
_cell_length_a	10.685980
_cell_length_b	10.685194
_cell_length_c	10.686551
_cell_angle_alpha	81.584560
_cell_angle_beta	81.591741
_cell_angle_gamma	98.380820
loop_
_atom_site_label
_atom_site_type_symbol
_atom_site_fract_x
_atom_site_fract_y
_atom_site_fract_z
Zn1	Zn	1.972034	-0.286508	-0.842905
Zn2	Zn	1.936412	-0.518076	-0.611406
Zn3	Zn	1.740511	-0.322085	-0.611414
Zn4	Zn	1.740546	-0.517952	-0.807327
O5	O	1.847376	-0.411155	-0.718263
O6	O	2.146172	-0.302389	-0.827082
O7	O	1.895503	-0.507019	-0.432534
O8	O	1.786117	-0.138482	-0.657015
O9	O	2.120001	-0.472521	-0.657001
O10	O	1.956215	-0.112343	-0.827090
O11	O	1.751576	-0.363024	-0.432540
O12	O	1.561652	-0.362904	-0.622516
O13	O	1.786176	-0.472309	-0.990919
O14	O	1.561678	-0.506807	-0.766452
O15	O	1.956249	-0.302268	-1.017058
O16	O	1.895537	-0.696943	-0.622502
O17	O	1.751635	-0.696852	-0.766444
C18	C	1.515288	-0.438703	-0.690625
C19	C	1.373219	-0.450517	-0.678829
C20	C	1.819761	-0.743275	-0.690642
C21	C	1.808068	-0.885344	-0.678879
C22	C	2.180761	-0.383500	-0.746009
C23	C	2.322830	-0.371715	-0.757833
C24	C	1.875190	-0.383306	-1.051665
C25	C	1.887043	-0.371439	-1.193742
C26	C	1.875136	-0.077733	-0.746022
C27	C	1.886965	0.064351	-0.757851
C28	C	1.819751	-0.438797	-0.386171
C29	C	1.808176	-0.450284	-0.244146
H30	H	1.307665	-0.527025	-0.602155
N31	N	1.706732	-0.972256	-0.577377
H32	H	1.618920	-0.955090	-0.591439
H33	H	1.712567	-1.064796	-0.583121
N34	N	1.988492	-0.269987	-1.280565
H35	H	1.974329	-0.182214	-1.263352
H36	H	2.076212	-0.284283	-1.263313
H37	H	1.963460	-0.870031	-0.834470
H38	H	1.731591	-0.526869	-1.178606
H39	H	1.388376	-0.295205	-0.834495
