data_functionalizedCrystal
_audit_creation_method	'MofGen! by Chris Wilmer'
_symmetry_space_group_name_H-M	'P1'
_symmetry_Int_Tables_number	1
_symmetry_cell_setting	triclinic
loop_
_symmetry_equiv_pos_as_xyz
  x,y,z
_cell_length_a	13.897449
_cell_length_b	13.897447
_cell_length_c	13.897449
_cell_angle_alpha	90.008998
_cell_angle_beta	90.008641
_cell_angle_gamma	90.020357
loop_
_atom_site_label
_atom_site_type_symbol
_atom_site_fract_x
_atom_site_fract_y
_atom_site_fract_z
Zn1	Zn	1.474550	-0.384156	0.545458
Zn2	Zn	1.974550	0.115844	1.045458
Zn3	Zn	1.474480	-0.545421	0.384163
Zn4	Zn	1.974480	-0.045421	0.884163
Zn5	Zn	1.313280	-0.384144	0.384169
Zn6	Zn	1.813280	0.115856	0.884169
Zn7	Zn	1.313216	-0.545413	0.545408
Zn8	Zn	1.813216	-0.045413	1.045408
O9	O	1.393882	-0.464784	0.464799
O10	O	1.893882	0.035216	0.964799
O11	O	1.609522	-0.405557	0.524080
O12	O	2.109522	0.094443	1.024080
O13	O	1.453095	-0.524025	0.249182
O14	O	1.953095	-0.024025	0.749182
O15	O	1.334730	-0.249164	0.405587
O16	O	1.834730	0.250836	0.905587
O17	O	1.609471	-0.524037	0.405577
O18	O	2.109471	-0.024037	0.905577
O19	O	1.453213	-0.249173	0.524086
O20	O	1.953213	0.250827	1.024086
O21	O	1.334662	-0.405535	0.249186
O22	O	1.834662	0.094465	0.749186
O23	O	1.178290	-0.405528	0.405539
O24	O	1.678290	0.094472	0.905539
O25	O	1.334619	-0.524025	0.680396
O26	O	1.834619	-0.024025	1.180396
O27	O	1.178243	-0.524012	0.524001
O28	O	1.678243	-0.024012	1.024001
O29	O	1.453150	-0.405550	0.680433
O30	O	1.953150	0.094450	1.180433
O31	O	1.453032	-0.680402	0.405529
O32	O	1.953032	-0.180402	0.905529
O33	O	1.334551	-0.680396	0.523995
O34	O	1.834551	-0.180396	1.023995
C35	C	1.143267	-0.464769	0.464766
C36	C	1.643267	0.035231	0.964766
C37	C	1.036053	-0.464786	0.464774
C38	C	1.536053	0.035214	0.964774
C39	C	0.948983	-0.464789	0.464790
C40	C	1.448983	0.035211	0.964790
C41	C	0.839751	-0.464796	0.464820
C42	C	1.339751	0.035204	0.964820
C43	C	1.393803	-0.715398	0.464777
C44	C	1.893803	-0.215398	0.964777
C45	C	1.393858	-0.822612	0.464800
C46	C	1.893858	-0.322612	0.964800
C47	C	1.393904	-0.909682	0.464822
C48	C	1.893904	-0.409682	0.964822
C49	C	1.393972	-1.018914	0.464846
C50	C	1.893972	-0.518914	0.964846
C51	C	1.645474	-0.464799	0.464834
C52	C	2.145474	0.035201	0.964834
C53	C	1.752688	-0.464806	0.464848
C54	C	2.252688	0.035194	0.964848
C55	C	1.393885	-0.464788	0.716392
C56	C	1.893885	0.035212	1.216392
C57	C	1.393887	-0.464789	0.823606
C58	C	1.893887	0.035211	1.323606
C59	C	1.393987	-0.213191	0.464843
C60	C	1.893987	0.286809	0.964843
C61	C	1.394031	-0.105977	0.464861
C62	C	1.894031	0.394023	0.964861
C63	C	1.393862	-0.464794	1.019901
C64	C	1.893862	0.035206	1.519901
C65	C	1.393873	-0.464794	0.910669
C66	C	1.893873	0.035206	1.410669
C67	C	1.393869	-0.464799	1.214185
C68	C	1.893869	0.035201	1.714185
C69	C	1.393861	-0.464791	1.106971
C70	C	1.893861	0.035209	1.606971
