data_functionalizedCrystal
_audit_creation_method	'MofGen! by Chris Wilmer'
_symmetry_space_group_name_H-M	'P1'
_symmetry_Int_Tables_number	1
_symmetry_cell_setting	triclinic
loop_
_symmetry_equiv_pos_as_xyz
  x,y,z
_cell_length_a	18.101398
_cell_length_b	12.759399
_cell_length_c	12.759393
_cell_angle_alpha	90.032031
_cell_angle_beta	89.973031
_cell_angle_gamma	89.989617
loop_
_atom_site_label
_atom_site_type_symbol
_atom_site_fract_x
_atom_site_fract_y
_atom_site_fract_z
Zn1	Zn	1.132223	0.418336	-0.594217
Zn2	Zn	1.132147	0.594055	-0.418536
Zn3	Zn	1.008376	0.418377	-0.418530
Zn4	Zn	1.008367	0.593959	-0.594151
O5	O	1.070278	0.506182	-0.506359
O6	O	1.235846	0.441669	-0.570942
O7	O	1.115701	0.570808	-0.271514
O8	O	1.024840	0.271350	-0.441861
O9	O	1.235790	0.570769	-0.441870
O10	O	1.115829	0.271321	-0.570937
O11	O	1.024767	0.441738	-0.271510
O12	O	0.904742	0.441645	-0.441797
O13	O	1.024824	0.570606	-0.741181
O14	O	0.904735	0.570645	-0.570825
O15	O	1.115821	0.441576	-0.741229
O16	O	1.115692	0.741064	-0.441806
O17	O	1.024751	0.740993	-0.570830
C18	C	0.877868	0.506139	-0.506304
C19	C	0.795554	0.506146	-0.506305
C20	C	1.070233	0.779149	-0.506335
C21	C	1.070281	0.895926	-0.506360
C22	C	1.070330	0.506076	-0.780392
C23	C	1.070352	0.506030	-0.897169
C24	C	0.496463	0.506212	-0.506393
C25	C	0.527767	0.424643	-0.425609
C26	C	0.613385	0.424862	-0.425264
C27	C	0.644845	0.506178	-0.506350
C28	C	0.613748	0.616855	-0.476103
C29	C	0.528103	0.616402	-0.475541
C30	C	0.528075	0.478067	-0.617615
C31	C	0.613726	0.475602	-0.617008
C32	C	0.728705	0.506166	-0.506327
C33	C	0.412603	0.506231	-0.506414
C34	C	1.263440	0.506225	-0.506414
C35	C	1.345754	0.506244	-0.506438
C36	C	1.070344	0.232149	-0.506406
C37	C	1.070372	0.115372	-0.506426
C38	C	1.117688	0.950790	-0.439253
C39	C	1.117736	1.060514	-0.439289
C40	C	1.022963	1.060501	-0.573539
C41	C	1.022920	0.950778	-0.573509
C42	C	1.023019	0.438811	-0.952028
C43	C	1.023037	0.438779	-1.061752
C44	C	1.117725	0.573188	-1.061748
C45	C	1.117704	0.573225	-0.952026
C46	C	1.070269	0.506212	-0.233391
C47	C	1.070391	0.505961	-0.116615
H48	H	0.507181	0.342321	-0.444358
N49	N	0.971987	0.366272	-1.120919
H50	H	0.979181	0.376446	-1.198753
H51	H	0.919090	0.382617	-1.101716
H52	H	0.506219	0.443040	-0.343674
H53	H	1.156278	0.627894	-1.106426
N54	N	0.641243	0.316152	-0.450366
H55	H	0.597887	0.267656	-0.461755
H56	H	0.672134	0.289519	-0.390103
N57	N	0.971872	1.119660	-0.645949
H58	H	0.983336	1.100494	-0.721027
H59	H	0.979112	1.197476	-0.635695
H60	H	0.635165	0.641136	-0.395673
N61	N	1.168754	0.645735	-0.892847
H62	H	1.198757	0.688292	-0.944247
H63	H	1.203027	0.602995	-0.847339
N64	N	0.640659	0.367721	-0.647217
H65	H	0.670223	0.372285	-0.714211
H66	H	0.596886	0.319884	-0.658150
H67	H	0.507832	0.537478	-0.677807
N68	N	0.640489	0.449501	-0.316099
H69	H	0.596800	0.460270	-0.268016
H70	H	0.671373	0.515391	-0.317835
H71	H	0.984315	0.906105	-0.628160
H72	H	0.508093	0.640269	-0.394233
H73	H	1.156340	1.105179	-0.384645
H74	H	0.984462	0.384097	-0.907367
H75	H	0.634126	0.679259	-0.533102
N76	N	0.500656	0.699629	-0.550070
H77	H	0.519340	0.684203	-0.623067
H78	H	0.519389	0.770437	-0.526703
N79	N	0.499507	0.373021	-0.654074
H80	H	0.443811	0.375206	-0.658272
H81	H	0.515135	0.316998	-0.602776
N82	N	1.168779	0.891634	-0.366840
H83	H	1.203062	0.846039	-0.409576
H84	H	1.138635	0.846243	-0.318106
H85	H	0.635144	0.530682	-0.680424
