data_functionalizedCrystal
_audit_creation_method	'MofGen! by Chris Wilmer'
_symmetry_space_group_name_H-M	'P1'
_symmetry_Int_Tables_number	1
_symmetry_cell_setting	triclinic
loop_
_symmetry_equiv_pos_as_xyz
  x,y,z
_cell_length_a	23.532355
_cell_length_b	22.610064
_cell_length_c	17.699083
_cell_angle_alpha	89.998006
_cell_angle_beta	96.944744
_cell_angle_gamma	89.990547
loop_
_atom_site_label
_atom_site_type_symbol
_atom_site_fract_x
_atom_site_fract_y
_atom_site_fract_z
O1	O	0.755551	-0.049096	-0.091689
O2	O	1.005551	0.200904	0.158311
O3	O	1.255551	0.450904	0.408311
O4	O	1.505551	0.700904	0.658311
O5	O	0.589722	-0.049114	-0.105024
O6	O	0.839722	0.200886	0.144976
O7	O	1.089722	0.450886	0.394976
O8	O	1.339722	0.700886	0.644976
O9	O	0.677322	-0.049110	0.011858
O10	O	0.927322	0.200890	0.261858
O11	O	1.177322	0.450890	0.511858
O12	O	1.427322	0.700890	0.761858
O13	O	0.667951	-0.049100	-0.208570
O14	O	0.917951	0.200900	0.041430
O15	O	1.167951	0.450900	0.291430
O16	O	1.417951	0.700900	0.541430
O17	O	0.677296	0.049259	0.011858
O18	O	0.927296	0.299259	0.261858
O19	O	1.177296	0.549259	0.511858
O20	O	1.427296	0.799259	0.761858
O21	O	0.589696	0.049255	-0.105024
O22	O	0.839696	0.299255	0.144976
O23	O	1.089696	0.549255	0.394976
O24	O	1.339696	0.799255	0.644976
O25	O	0.755526	0.049273	-0.091689
O26	O	1.005526	0.299273	0.158311
O27	O	1.255526	0.549273	0.408311
O28	O	1.505526	0.799273	0.658311
Zn29	Zn	0.672607	0.064882	-0.098356
Zn30	Zn	0.922607	0.314882	0.151644
Zn31	Zn	1.172607	0.564882	0.401644
Zn32	Zn	1.422607	0.814882	0.651644
Zn33	Zn	0.672641	-0.064723	-0.098356
Zn34	Zn	0.922641	0.185277	0.151644
Zn35	Zn	1.172641	0.435277	0.401644
Zn36	Zn	1.422641	0.685277	0.651644
O37	O	0.667926	0.049270	-0.208570
O38	O	0.917926	0.299270	0.041430
O39	O	1.167926	0.549270	0.291430
O40	O	1.417926	0.799270	0.541430
C41	C	0.568492	0.000068	-0.104690
C42	C	0.818492	0.250068	0.145310
C43	C	1.068492	0.500068	0.395310
C44	C	1.318492	0.750068	0.645310
C45	C	0.505270	0.000061	-0.103688
C46	C	0.755270	0.250061	0.146312
C47	C	1.005270	0.500061	0.396312
C48	C	1.255270	0.750061	0.646312
N49	N	0.672588	0.153335	-0.098356
N50	N	0.922588	0.403335	0.151644
N51	N	1.172588	0.653335	0.401644
N52	N	1.422588	0.903335	0.651644
C53	C	0.113224	0.053707	-0.097391
C54	C	0.363224	0.303707	0.152609
C55	C	0.613224	0.553707	0.402609
C56	C	0.863224	0.803707	0.652609
C57	C	0.053822	0.053709	-0.096438
C58	C	0.303822	0.303709	0.153562
C59	C	0.553822	0.553709	0.403562
C60	C	0.803822	0.803709	0.653562
O61	O	0.023090	0.099311	-0.095919
O62	O	0.273090	0.349311	0.154081
O63	O	0.523090	0.599311	0.404081
O64	O	0.773090	0.849311	0.654081
N65	N	0.024126	0.000088	-0.095965
N66	N	0.274126	0.250088	0.154035
N67	N	0.524126	0.500088	0.404035
N68	N	0.774126	0.750088	0.654035
C69	C	0.053836	-0.053539	-0.096438
C70	C	0.303836	0.196461	0.153562
C71	C	0.553836	0.446461	0.403562
C72	C	0.803836	0.696461	0.653562
O73	O	0.023123	-0.099147	-0.095948
O74	O	0.273123	0.150853	0.154052
O75	O	0.523123	0.400853	0.404052
O76	O	0.773123	0.650853	0.654052
C77	C	0.113238	-0.053540	-0.097386
C78	C	0.363238	0.196460	0.152614
C79	C	0.613238	0.446460	0.402614
C80	C	0.863238	0.696460	0.652614
C81	C	0.142930	0.000084	-0.097867
C82	C	0.392930	0.250084	0.152133
C83	C	0.642930	0.500084	0.402133
C84	C	0.892930	0.750084	0.652133
C85	C	0.142916	0.107327	-0.097871
C86	C	0.392916	0.357327	0.152129
C87	C	0.642916	0.607327	0.402129
C88	C	0.892916	0.857327	0.652129
C89	C	0.202314	0.107324	-0.098826
C90	C	0.452314	0.357324	0.151174
C91	C	0.702314	0.607324	0.401174
C92	C	0.952314	0.857324	0.651174
C93	C	0.232020	0.053702	-0.099301
C94	C	0.482020	0.303702	0.150699
C95	C	0.732020	0.553702	0.400699
C96	C	0.982020	0.803702	0.650699
C97	C	0.202328	0.000082	-0.098821
C98	C	0.452328	0.250082	0.151179
C99	C	0.702328	0.500082	0.401179
C100	C	0.952328	0.750082	0.651179
C101	C	0.142947	-0.107166	-0.097854
C102	C	0.392947	0.142834	0.152146
C103	C	0.642947	0.392834	0.402146
C104	C	0.892947	0.642834	0.652146
C105	C	0.202353	-0.107163	-0.098801
C106	C	0.452353	0.142837	0.151199
C107	C	0.702353	0.392837	0.401199
C108	C	0.952353	0.642837	0.651199
C109	C	0.232045	-0.053539	-0.099282
C110	C	0.482045	0.196461	0.150718
C111	C	0.732045	0.446461	0.400718
C112	C	0.982045	0.696461	0.650718
C113	C	0.291431	-0.053543	-0.100251
C114	C	0.541431	0.196457	0.149749
C115	C	0.791431	0.446457	0.399749
C116	C	1.041431	0.696457	0.649749
N117	N	0.321127	0.000078	-0.100724
N118	N	0.571127	0.250078	0.149276
N119	N	0.821127	0.500078	0.399276
N120	N	1.071127	0.750078	0.649276
C121	C	0.291422	0.053700	-0.100249
C122	C	0.541422	0.303700	0.149751
C123	C	0.791422	0.553700	0.399751
C124	C	1.041422	0.803700	0.649751
C125	C	-0.070911	-0.053531	-0.094446
C126	C	0.179089	0.196469	0.155554
C127	C	0.429089	0.446469	0.405554
C128	C	0.679089	0.696469	0.655554
C129	C	-0.130312	-0.053530	-0.093503
C130	C	0.119688	0.196470	0.156497
C131	C	0.369688	0.446470	0.406497
C132	C	0.619688	0.696470	0.656497
C133	C	-0.130322	0.053718	-0.093502
C134	C	0.119678	0.303718	0.156498
C135	C	0.369678	0.553718	0.406498
C136	C	0.619678	0.803718	0.656498
C137	C	-0.070920	0.053716	-0.094450
C138	C	0.179080	0.303716	0.155550
C139	C	0.429080	0.553716	0.405550
C140	C	0.679080	0.803716	0.655550
C141	C	-0.041215	0.000090	-0.094919
C142	C	0.208785	0.250090	0.155081
C143	C	0.458785	0.500090	0.405081
C144	C	0.708785	0.750090	0.655081
C145	C	0.416161	0.053691	-0.102255
C146	C	0.666161	0.303691	0.147745
C147	C	0.916161	0.553691	0.397745
C148	C	1.166161	0.803691	0.647745
C149	C	0.475564	0.053684	-0.103213
C150	C	0.725564	0.303684	0.146787
C151	C	0.975564	0.553684	0.396787
C152	C	1.225564	0.803684	0.646787
C153	C	0.475570	-0.053564	-0.103210
C154	C	0.725570	0.196436	0.146790
C155	C	0.975570	0.446436	0.396790
C156	C	1.225570	0.696436	0.646790
C157	C	0.416171	-0.053557	-0.102256
C158	C	0.666171	0.196443	0.147744
C159	C	0.916171	0.446443	0.397744
C160	C	1.166171	0.696443	0.647744
C161	C	0.386469	0.000075	-0.101776
C162	C	0.636469	0.250075	0.148224
C163	C	0.886469	0.500075	0.398224
C164	C	1.136469	0.750075	0.648224
O165	O	0.322201	-0.099122	-0.100768
O166	O	0.572201	0.150878	0.149232
O167	O	0.822201	0.400878	0.399232
O168	O	1.072201	0.650878	0.649232
O169	O	0.322143	0.099301	-0.100729
O170	O	0.572143	0.349301	0.149271
O171	O	0.822143	0.599301	0.399271
O172	O	1.072143	0.849301	0.649271
N173	N	0.672664	-0.153176	-0.098351
N174	N	0.922664	0.096824	0.151649
N175	N	1.172664	0.346824	0.401649
N176	N	1.422664	0.596824	0.651649
C177	C	0.776756	0.000090	-0.092022
C178	C	1.026756	0.250090	0.157978
C179	C	1.276756	0.500090	0.407978
C180	C	1.526756	0.750090	0.657978
C181	C	0.839977	0.000093	-0.093024
C182	C	1.089977	0.250093	0.156976
C183	C	1.339977	0.500093	0.406976
C184	C	1.589977	0.750093	0.656976
C185	C	0.707117	0.561983	-0.144011
C186	C	0.957117	0.811983	0.105989
C187	C	1.207117	1.061983	0.355989
C188	C	1.457117	1.311983	0.605989
C189	C	0.707124	0.623903	-0.144009
C190	C	0.957124	0.873903	0.105991
C191	C	1.207124	1.123903	0.355991
C192	C	1.457124	1.373903	0.605991
O193	O	0.736460	0.655927	-0.182822
O194	O	0.986460	0.905927	0.067178
O195	O	1.236460	1.155927	0.317178
O196	O	1.486460	1.405927	0.567178
N197	N	0.672652	0.654872	-0.098347
N198	N	0.922652	0.904872	0.151653
N199	N	1.172652	1.154872	0.401653
N200	N	1.422652	1.404872	0.651653
C201	C	0.638174	0.623918	-0.052679
C202	C	0.888174	0.873918	0.197321
C203	C	1.138174	1.123918	0.447321
C204	C	1.388174	1.373918	0.697321
O205	O	0.608853	0.655946	-0.013839
O206	O	0.858853	0.905946	0.236161
O207	O	1.108853	1.155946	0.486161
O208	O	1.358853	1.405946	0.736161
C209	C	0.638170	0.562000	-0.052677
C210	C	0.888170	0.812000	0.197323
C211	C	1.138170	1.062000	0.447323
C212	C	1.388170	1.312000	0.697323
C213	C	0.672641	0.531033	-0.098348
C214	C	0.922641	0.781033	0.151652
C215	C	1.172641	1.031033	0.401652
C216	C	1.422641	1.281033	0.651652
C217	C	0.741586	0.531016	-0.189678
C218	C	0.991586	0.781016	0.060322
C219	C	1.241586	1.031016	0.310322
C220	C	1.491586	1.281016	0.560322
C221	C	0.741578	0.469101	-0.189680
C222	C	0.991578	0.719101	0.060320
C223	C	1.241578	0.969101	0.310320
C224	C	1.491578	1.219101	0.560320
C225	C	0.707101	0.438151	-0.144017
C226	C	0.957101	0.688151	0.105983
C227	C	1.207101	0.938151	0.355983
C228	C	1.457101	1.188151	0.605983
C229	C	0.672633	0.469118	-0.098350
C230	C	0.922633	0.719118	0.151650
C231	C	1.172633	0.969118	0.401650
C232	C	1.422633	1.219118	0.651650
C233	C	0.603695	0.531047	-0.007004
C234	C	0.853695	0.781047	0.242996
C235	C	1.103695	1.031047	0.492996
C236	C	1.353695	1.281047	0.742996
C237	C	0.603695	0.469124	-0.007006
C238	C	0.853695	0.719124	0.242994
C239	C	1.103695	0.969124	0.492994
C240	C	1.353695	1.219124	0.742994
C241	C	0.638166	0.438158	-0.052677
C242	C	0.888166	0.688158	0.197323
C243	C	1.138166	0.938158	0.447323
C244	C	1.388166	1.188158	0.697323
C245	C	0.638148	0.376253	-0.052690
C246	C	0.888148	0.626253	0.197310
C247	C	1.138148	0.876253	0.447310
C248	C	1.388148	1.126253	0.697310
N249	N	0.672621	0.345283	-0.098352
N250	N	0.922621	0.595283	0.151648
N251	N	1.172621	0.845283	0.401648
N252	N	1.422621	1.095283	0.651648
C253	C	0.707097	0.376233	-0.144015
C254	C	0.957097	0.626233	0.105985
C255	C	1.207097	0.876233	0.355985
C256	C	1.457097	1.126233	0.605985
C257	C	0.638185	0.753952	-0.052684
C258	C	0.888185	1.003952	0.197316
C259	C	1.138185	1.253952	0.447316
C260	C	1.388185	1.503952	0.697316
C261	C	0.638185	0.815870	-0.052690
C262	C	0.888185	1.065870	0.197310
C263	C	1.138185	1.315870	0.447310
C264	C	1.388185	1.565870	0.697310
C265	C	0.707137	0.815850	-0.144020
C266	C	0.957137	1.065850	0.105980
C267	C	1.207137	1.315850	0.355980
C268	C	1.457137	1.565850	0.605980
C269	C	0.707133	0.753931	-0.144018
C270	C	0.957133	1.003931	0.105982
C271	C	1.207133	1.253931	0.355982
C272	C	1.457133	1.503931	0.605982
C273	C	0.672658	0.722983	-0.098346
C274	C	0.922658	0.972983	0.151654
C275	C	1.172658	1.222983	0.401654
C276	C	1.422658	1.472983	0.651654
C277	C	0.707077	0.246205	-0.144018
C278	C	0.957077	0.496205	0.105982
C279	C	1.207077	0.746205	0.355982
C280	C	1.457077	0.996205	0.605982
C281	C	0.707065	0.184284	-0.144019
C282	C	0.957065	0.434284	0.105981
C283	C	1.207065	0.684284	0.355981
C284	C	1.457065	0.934284	0.605981
C285	C	0.638115	0.184310	-0.052687
C286	C	0.888115	0.434310	0.197313
C287	C	1.138115	0.684310	0.447313
C288	C	1.388115	0.934310	0.697313
C289	C	0.638126	0.246225	-0.052688
C290	C	0.888126	0.496225	0.197312
C291	C	1.138126	0.746225	0.447312
C292	C	1.388126	0.996225	0.697312
C293	C	0.672611	0.277172	-0.098356
C294	C	0.922611	0.527172	0.151644
C295	C	1.172611	0.777172	0.401644
C296	C	1.422611	1.027172	0.651644
O297	O	0.608829	0.344189	-0.013894
O298	O	0.858829	0.594189	0.236106
O299	O	1.108829	0.844189	0.486106
O300	O	1.358829	1.094189	0.736106
O301	O	0.736419	0.344197	-0.182841
O302	O	0.986419	0.594197	0.067159
O303	O	1.236419	0.844197	0.317159
O304	O	1.486419	1.094197	0.567159
C305	C	0.668274	0.000086	-0.236765
C306	C	0.918274	0.250086	0.013235
C307	C	1.168274	0.500086	0.263235
C308	C	1.418274	0.750086	0.513235
C309	C	0.669282	0.000091	-0.320778
C310	C	0.919282	0.250091	-0.070778
C311	C	1.169282	0.500091	0.179222
C312	C	1.419282	0.750091	0.429222
C313	C	0.617862	0.000085	-0.369673
C314	C	0.867862	0.250085	-0.119673
C315	C	1.117862	0.500085	0.130327
C316	C	1.367862	0.750085	0.380327
C317	C	0.618812	0.000079	-0.448611
C318	C	0.868812	0.250079	-0.198611
C319	C	1.118812	0.500079	0.051389
C320	C	1.368812	0.750079	0.301389
C321	C	0.671182	0.000081	-0.478653
C322	C	0.921182	0.250081	-0.228653
C323	C	1.171182	0.500081	0.021347
C324	C	1.421182	0.750081	0.271347
C325	C	0.722605	0.000085	-0.429752
C326	C	0.972605	0.250085	-0.179752
C327	C	1.222605	0.500085	0.070248
C328	C	1.472605	0.750085	0.320248
C329	C	0.721655	0.000088	-0.350816
C330	C	0.971655	0.250088	-0.100816
C331	C	1.221655	0.500088	0.149184
C332	C	1.471655	0.750088	0.399184
C333	C	0.726439	0.000074	-0.748095
C334	C	0.976439	0.250074	-0.498095
C335	C	1.226439	0.500074	-0.248095
C336	C	1.476439	0.750074	0.001905
C337	C	0.727386	0.000073	-0.827038
C338	C	0.977386	0.250073	-0.577038
C339	C	1.227386	0.500073	-0.327038
C340	C	1.477386	0.750073	-0.077038
C341	C	0.623597	0.000065	-0.845890
C342	C	0.873597	0.250065	-0.595890
C343	C	1.123597	0.500065	-0.345890
C344	C	1.373597	0.750065	-0.095890
C345	C	0.622646	0.000067	-0.766954
C346	C	0.872646	0.250067	-0.516954
C347	C	1.122646	0.500067	-0.266954
C348	C	1.372646	0.750067	-0.016954
C349	C	0.674069	0.000068	-0.718060
C350	C	0.924069	0.250068	-0.468060
C351	C	1.174069	0.500068	-0.218060
C352	C	1.424069	0.750068	0.031940
C353	C	0.673039	0.000074	-0.632466
C354	C	0.923039	0.250074	-0.382466
C355	C	1.173039	0.500074	-0.132466
C356	C	1.423039	0.750074	0.117534
C357	C	0.672213	0.000079	-0.564245
C358	C	0.922213	0.250079	-0.314245
C359	C	1.172213	0.500079	-0.064245
C360	C	1.422213	0.750079	0.185755
C361	C	0.676973	0.000072	0.040053
C362	C	0.926973	0.250072	0.290053
C363	C	1.176973	0.500072	0.540053
C364	C	1.426973	0.750072	0.790053
C365	C	0.675966	0.000063	0.124066
C366	C	0.925966	0.250063	0.374066
C367	C	1.175966	0.500063	0.624066
C368	C	1.425966	0.750063	0.874066
H369	H	0.499737	0.097353	-0.103607
H370	H	0.749737	0.347353	0.146393
H371	H	0.999737	0.597353	0.396393
H372	H	1.249737	0.847353	0.646393
H373	H	0.770034	0.000074	-0.851494
H374	H	1.020034	0.250074	-0.601494
H375	H	1.270034	0.500074	-0.351494
H376	H	1.520034	0.750074	-0.101494
H377	H	0.735202	0.728722	-0.181208
H378	H	0.985202	0.978722	0.068792
H379	H	1.235202	1.228722	0.318792
H380	H	1.485202	1.478722	0.568792
Br381	Br	-0.170603	-0.126309	-0.092870
Br382	Br	0.079397	0.123691	0.157130
Br383	Br	0.329397	0.373691	0.407130
Br384	Br	0.579397	0.623691	0.657130
H385	H	0.763525	0.000090	-0.311006
H386	H	1.013525	0.250090	-0.061006
H387	H	1.263525	0.500090	0.188994
H388	H	1.513525	0.750090	0.438994
Br389	Br	0.553807	0.000062	-0.912251
Br390	Br	0.803807	0.250062	-0.662251
Br391	Br	1.053807	0.500062	-0.412251
Br392	Br	1.303807	0.750062	-0.162251
Br393	Br	0.375861	0.126478	-0.101601
Br394	Br	0.625861	0.376478	0.148399
Br395	Br	0.875861	0.626478	0.398399
Br396	Br	1.125861	0.876478	0.648399
Br397	Br	0.793679	0.000082	-0.470523
Br398	Br	1.043679	0.250082	-0.220523
Br399	Br	1.293679	0.500082	0.029477
Br400	Br	1.543679	0.750082	0.279477
Br401	Br	0.591390	0.857888	0.009280
Br402	Br	0.841390	1.107888	0.259280
Br403	Br	1.091390	1.357888	0.509280
Br404	Br	1.341390	1.607888	0.759280
Br405	Br	0.796227	0.000079	-0.681749
Br406	Br	1.046227	0.250079	-0.431749
Br407	Br	1.296227	0.500079	-0.181749
Br408	Br	1.546227	0.750079	0.068251
Br409	Br	0.788382	0.573007	-0.251658
Br410	Br	1.038382	0.823007	-0.001658
Br411	Br	1.288382	1.073007	0.248342
Br412	Br	1.538382	1.323007	0.498342
Br413	Br	0.788351	0.427084	-0.251681
Br414	Br	1.038351	0.677084	-0.001681
Br415	Br	1.288351	0.927084	0.248319
Br416	Br	1.538351	1.177084	0.498319
Br417	Br	0.375872	-0.126333	-0.101620
Br418	Br	0.625872	0.123667	0.148380
Br419	Br	0.875872	0.373667	0.398380
Br420	Br	1.125872	0.623667	0.648380
Br421	Br	-0.170648	0.126492	-0.092856
Br422	Br	0.079352	0.376492	0.157144
Br423	Br	0.329352	0.626492	0.407144
Br424	Br	0.579352	0.876492	0.657144
H425	H	0.575217	0.000090	-0.345219
H426	H	0.825217	0.250090	-0.095219
H427	H	1.075217	0.500090	0.154781
H428	H	1.325217	0.750090	0.404781
H429	H	0.499766	-0.097222	-0.103601
H430	H	0.749766	0.152778	0.146399
H431	H	0.999766	0.402778	0.396399
H432	H	1.249766	0.652778	0.646399
Br433	Br	-0.030603	-0.126317	-0.095089
Br434	Br	0.219397	0.123683	0.154911
Br435	Br	0.469397	0.373683	0.404911
Br436	Br	0.719397	0.623683	0.654911
Br437	Br	0.102666	-0.179947	-0.097201
Br438	Br	0.352666	0.070053	0.152799
Br439	Br	0.602666	0.320053	0.402799
Br440	Br	0.852666	0.570053	0.652799
Br441	Br	0.549026	0.000063	-0.514966
Br442	Br	0.799026	0.250063	-0.264966
Br443	Br	1.049026	0.500063	-0.014966
Br444	Br	1.299026	0.750063	0.235034
H445	H	0.610044	0.159100	-0.015511
H446	H	0.860044	0.409100	0.234489
H447	H	1.110044	0.659100	0.484489
H448	H	1.360044	0.909100	0.734489
Br449	Br	0.102612	0.180110	-0.097229
Br450	Br	0.352612	0.430110	0.152771
Br451	Br	0.602612	0.680110	0.402771
Br452	Br	0.852612	0.930110	0.652771
Br453	Br	0.242602	0.180104	-0.099474
Br454	Br	0.492602	0.430104	0.150526
Br455	Br	0.742602	0.680104	0.400526
Br456	Br	0.992602	0.930104	0.650526
H457	H	0.226536	-0.150833	-0.099183
H458	H	0.476536	0.099167	0.150817
H459	H	0.726536	0.349167	0.400817
H460	H	0.976536	0.599167	0.650817
H461	H	0.735209	0.841060	-0.181202
H462	H	0.985209	1.091060	0.068798
H463	H	1.235209	1.341060	0.318798
H464	H	1.485209	1.591060	0.568798
H465	H	0.575626	0.556249	0.030187
H466	H	0.825626	0.806249	0.280187
H467	H	1.075626	1.056249	0.530187
H468	H	1.325626	1.306249	0.780187
H469	H	-0.046749	0.097382	-0.094842
H470	H	0.203251	0.347382	0.155158
H471	H	0.453251	0.597382	0.405158
H472	H	0.703251	0.847382	0.655158
H473	H	0.735135	0.159074	-0.181213
H474	H	0.985135	0.409074	0.068787
H475	H	1.235135	0.659074	0.318787
H476	H	1.485135	0.909074	0.568787
H477	H	0.735159	0.271394	-0.181205
H478	H	0.985159	0.521394	0.068795
H479	H	1.235159	0.771394	0.318795
H480	H	1.485159	1.021394	0.568795
Br481	Br	0.591385	0.711957	0.009296
Br482	Br	0.841385	0.961957	0.259296
Br483	Br	1.091385	1.211957	0.509296
Br484	Br	1.341385	1.461957	0.759296
Br485	Br	0.556910	0.427127	0.054989
Br486	Br	0.806910	0.677127	0.304989
Br487	Br	1.056910	0.927127	0.554989
Br488	Br	1.306910	1.177127	0.804989
Br489	Br	0.591337	0.288253	0.009285
Br490	Br	0.841337	0.538253	0.259285
Br491	Br	1.091337	0.788253	0.509285
Br492	Br	1.341337	1.038253	0.759285
H493	H	0.580002	0.000068	-0.742498
H494	H	0.830002	0.250068	-0.492498
H495	H	1.080002	0.500068	-0.242498
H496	H	1.330002	0.750068	0.007502
