data_functionalizedCrystal
_audit_creation_method	'MofGen! by Chris Wilmer'
_symmetry_space_group_name_H-M	'P1'
_symmetry_Int_Tables_number	1
_symmetry_cell_setting	triclinic
loop_
_symmetry_equiv_pos_as_xyz
  x,y,z
_cell_length_a	14.971486
_cell_length_b	17.766277
_cell_length_c	14.971506
_cell_angle_alpha	90.004778
_cell_angle_beta	83.618258
_cell_angle_gamma	90.004402
loop_
_atom_site_label
_atom_site_type_symbol
_atom_site_fract_x
_atom_site_fract_y
_atom_site_fract_z
O1	O	1.186959	0.062505	0.116563
O2	O	1.686959	0.562505	0.616563
O3	O	0.926560	0.062525	0.130522
O4	O	1.426560	0.562525	0.630522
O5	O	1.063730	0.062513	-0.006657
O6	O	1.563730	0.562513	0.493343
O7	O	1.049790	0.062518	0.253741
O8	O	1.549790	0.562518	0.753741
O9	O	1.063706	-0.062676	-0.006664
O10	O	1.563706	0.437324	0.493336
O11	O	0.926536	-0.062663	0.130515
O12	O	1.426536	0.437337	0.630515
O13	O	1.186935	-0.062684	0.116556
O14	O	1.686935	0.437316	0.616556
Cu15	Cu	1.056733	-0.074104	0.123535
Cu16	Cu	1.556733	0.425896	0.623535
Cu17	Cu	1.056762	0.073946	0.123543
Cu18	Cu	1.556762	0.573946	0.623543
O19	O	1.049766	-0.062671	0.253734
O20	O	1.549766	0.437329	0.753734
C21	C	0.893223	-0.000067	0.129894
C22	C	1.393223	0.499933	0.629894
C23	C	0.793926	-0.000059	0.128023
C24	C	1.293926	0.499941	0.628023
N25	N	1.056720	-0.178235	0.123528
N26	N	1.556720	0.321765	0.623528
C27	C	0.736707	-0.000058	0.208612
C28	C	1.236707	0.499942	0.708612
C29	C	0.643407	-0.000070	0.206849
C30	C	1.143407	0.499930	0.706849
C31	C	0.607329	-0.000076	0.124496
C32	C	1.107329	0.499924	0.624496
C33	C	0.664556	-0.000079	0.043901
C34	C	1.164556	0.499921	0.543901
C35	C	0.757853	-0.000073	0.045665
C36	C	1.257853	0.499927	0.545665
C37	C	0.470093	-0.000089	0.040230
C38	C	0.970093	0.499911	0.540230
C39	C	0.376789	-0.000094	0.038466
C40	C	0.876789	0.499906	0.538466
C41	C	0.355647	-0.000086	0.201414
C42	C	0.855647	0.499914	0.701414
C43	C	0.448944	-0.000080	0.203178
C44	C	0.948944	0.499920	0.703178
C45	C	0.506165	-0.000081	0.122582
C46	C	1.006165	0.499919	0.622582
C47	C	1.117478	-0.217627	0.062816
C48	C	1.617478	0.282373	0.562816
C49	C	1.117483	-0.296429	0.062811
C50	C	1.617483	0.203571	0.562811
C51	C	1.056739	-0.335835	0.123535
C52	C	1.556739	0.164165	0.623535
C53	C	0.995969	-0.296433	0.184253
C54	C	1.495969	0.203567	0.684253
C55	C	0.995959	-0.217633	0.184249
C56	C	1.495959	0.282367	0.684249
C57	C	1.045112	-0.460671	0.204984
C58	C	1.545112	0.039329	0.704984
C59	C	1.045128	-0.539470	0.204988
C60	C	1.545128	-0.039470	0.704988
C61	C	1.056763	-0.578881	0.123546
C62	C	1.556763	-0.078881	0.623546
C63	C	1.068401	-0.539485	0.042096
C64	C	1.568401	-0.039485	0.542096
C65	C	1.068391	-0.460684	0.042092
C66	C	1.568391	0.039316	0.542092
C67	C	1.056742	-0.421281	0.123546
C68	C	1.556742	0.078719	0.623546
C69	C	1.117530	-0.703720	0.062824
C70	C	1.617530	-0.203720	0.562824
C71	C	1.117529	-0.782523	0.062819
C72	C	1.617529	-0.282523	0.562819
C73	C	0.996019	-0.782526	0.184268
C74	C	1.496019	-0.282526	0.684268
C75	C	0.996015	-0.703724	0.184265
C76	C	1.496015	-0.203724	0.684265
C77	C	1.056776	-0.664326	0.123544
C78	C	1.556776	-0.164326	0.623544
C79	C	1.220272	-0.000090	0.117184
C80	C	1.720272	0.499910	0.617184
C81	C	1.319569	-0.000093	0.119054
C82	C	1.819569	0.499907	0.619054
C83	C	1.063091	-0.000081	-0.039984
C84	C	1.563091	0.499919	0.460016
C85	C	1.061213	-0.000077	-0.139281
C86	C	1.561213	0.499923	0.360719
N87	N	1.056783	0.178076	0.123542
N88	N	1.556783	0.678076	0.623542
C89	C	1.134631	-0.000083	-0.577563
C90	C	1.634631	0.499917	-0.077563
C91	C	1.136389	-0.000088	-0.484263
C92	C	1.636389	0.499912	0.015737
C93	C	1.055796	-0.000079	-0.427043
C94	C	1.555796	0.499921	0.072957
C95	C	0.973441	-0.000073	-0.463127
C96	C	1.473441	0.499927	0.036873
C97	C	0.971685	-0.000073	-0.556426
C98	C	1.471685	0.499927	-0.056426
C99	C	0.977108	-0.000070	-0.268664
C100	C	1.477108	0.499930	0.231336
C101	C	0.978864	-0.000069	-0.175359
C102	C	1.478864	0.499931	0.324641
C103	C	1.141812	-0.000085	-0.196501
C104	C	1.641812	0.499915	0.303499
C105	C	1.140055	-0.000086	-0.289800
C106	C	1.640055	0.499914	0.210200
C107	C	1.057700	-0.000078	-0.325878
C108	C	1.557700	0.499922	0.174122
C109	C	1.050404	-0.000076	0.287062
C110	C	1.550404	0.499924	0.787062
C111	C	1.052282	-0.000075	0.386358
C112	C	1.552282	0.499925	0.886358
H113	H	0.766074	-0.000053	0.275673
H114	H	1.266074	0.499947	0.775673
F115	F	1.182193	-0.661788	-0.001804
F116	F	1.682193	-0.161788	0.498196
H117	H	0.804441	-0.000073	-0.019958
H118	H	1.304441	0.499927	0.480042
H119	H	1.205681	-0.000088	-0.336387
H120	H	1.705681	0.499912	0.163613
H121	H	0.910045	-0.000075	-0.298035
H122	H	1.410045	0.499925	0.201965
H123	H	1.166962	-0.328508	0.013370
H124	H	1.666962	0.171492	0.513370
H125	H	0.596822	-0.000068	0.272472
H126	H	1.096822	0.499932	0.772472
H127	H	0.635173	-0.000095	-0.023152
H128	H	1.135173	0.499905	0.476848
F129	F	1.229461	-0.000093	-0.158104
F130	F	1.729461	0.499907	0.341896
H131	H	1.167003	-0.814597	0.013374
H132	H	1.667003	-0.314597	0.513374
H133	H	0.946556	-0.814610	0.233707
H134	H	1.446556	-0.314610	0.733707
F135	F	0.487339	-0.000066	0.290826
F136	F	0.987339	0.499934	0.790826
H137	H	0.309053	-0.000088	0.267037
H138	H	0.809053	0.499912	0.767037
H139	H	0.946544	-0.671649	0.233707
H140	H	1.446544	-0.171649	0.733707
F141	F	0.338394	-0.000120	-0.049183
F142	F	0.838394	0.499880	0.450817
H143	H	1.200259	-0.000084	-0.624146
H144	H	1.700259	0.499916	-0.124146
F145	F	0.893089	-0.000066	-0.114463
F146	F	1.393089	0.499934	0.385537
F147	F	0.887668	-0.000067	-0.402227
F148	F	1.387668	0.499933	0.097773
H149	H	1.035657	-0.571541	0.271310
H150	H	1.535657	-0.071541	0.771310
H151	H	0.516680	-0.000091	-0.025399
H152	H	1.016680	0.499909	0.474601
F153	F	0.931317	-0.338372	0.248877
F154	F	1.431317	0.161628	0.748877
F155	F	1.080790	-0.581423	-0.044588
F156	F	1.580790	-0.081423	0.455412
H157	H	1.166951	-0.185551	0.013371
H158	H	1.666951	0.314449	0.513371
H159	H	1.203445	-0.000096	-0.454893
H160	H	1.703445	0.499904	0.045107
F161	F	0.884038	-0.000068	-0.594823
F162	F	1.384038	0.499932	-0.094823
F163	F	1.032793	-0.418734	0.291674
F164	F	1.532793	0.081266	0.791674
F165	F	1.080770	-0.418758	-0.044591
F166	F	1.580770	0.081242	0.455409
H167	H	0.946481	-0.185559	0.233689
H168	H	1.446481	0.314441	0.733689
