data_functionalizedCrystal
_audit_creation_method	'MofGen! by Chris Wilmer'
_symmetry_space_group_name_H-M	'P1'
_symmetry_Int_Tables_number	1
_symmetry_cell_setting	triclinic
loop_
_symmetry_equiv_pos_as_xyz
  x,y,z
_cell_length_a	10.489741
_cell_length_b	14.044220
_cell_length_c	12.503572
_cell_angle_alpha	86.156832
_cell_angle_beta	86.448361
_cell_angle_gamma	91.135974
loop_
_atom_site_label
_atom_site_type_symbol
_atom_site_fract_x
_atom_site_fract_y
_atom_site_fract_z
O1	O	1.714360	-0.128402	-0.089257
O2	O	2.214360	0.371598	0.410743
O3	O	1.344439	-0.140964	-0.089274
O4	O	1.844439	0.359036	0.410726
O5	O	1.523846	0.003339	-0.089255
O6	O	2.023846	0.503339	0.410745
O7	O	1.534953	-0.272705	-0.089275
O8	O	2.034953	0.227295	0.410725
O9	O	1.510356	-0.007531	0.089386
O10	O	2.010356	0.492469	0.589386
O11	O	1.330949	-0.151834	0.089367
O12	O	1.830949	0.348166	0.589367
O13	O	1.700869	-0.139273	0.089384
O14	O	2.200869	0.360727	0.589384
Cu15	Cu	1.514677	-0.146546	0.105687
Cu16	Cu	2.014677	0.353454	0.605687
Cu17	Cu	1.530631	-0.133690	-0.105576
Cu18	Cu	2.030631	0.366310	0.394424
O19	O	1.521462	-0.283575	0.089365
O20	O	2.021462	0.216425	0.589365
C21	C	1.290066	-0.145450	0.000045
C22	C	1.790066	0.354550	0.500045
C23	C	1.148150	-0.142611	0.000038
C24	C	1.648150	0.357389	0.500038
C25	C	1.512240	0.033251	0.000066
C26	C	2.012240	0.533251	0.500066
C27	C	1.497740	0.138576	0.000066
C28	C	1.997740	0.638576	0.500066
N29	N	1.503465	-0.155587	0.254278
N30	N	2.003465	0.344413	0.754278
C31	C	1.070696	-0.050796	0.000055
C32	C	1.570696	0.449204	0.500055
C33	C	0.989620	-0.088809	-0.088025
C34	C	1.489620	0.411191	0.411975
C35	C	0.976355	-0.099548	0.088101
C36	C	1.476355	0.400452	0.588101
C37	C	1.068948	-0.180657	-0.088114
C38	C	1.568948	0.319343	0.411886
C39	C	1.055686	-0.191389	0.088090
C40	C	1.555686	0.308611	0.588090
C41	C	0.974646	-0.229468	-0.000011
C42	C	1.474646	0.270532	0.499989
C43	C	1.755242	-0.134786	0.000063
C44	C	2.255242	0.365214	0.500063
C45	C	1.897160	-0.137625	0.000062
C46	C	2.397160	0.362375	0.500062
C47	C	1.533069	-0.313487	0.000042
C48	C	2.033069	0.186513	0.500042
C49	C	1.547569	-0.418812	0.000034
C50	C	2.047569	0.081188	0.500034
C51	C	1.471233	0.331419	0.000050
C52	C	1.971233	0.831419	0.500050
C53	C	1.574071	0.388351	0.000051
C54	C	2.074071	0.888351	0.500051
C55	C	1.559322	0.495655	0.000042
C56	C	2.059322	0.995655	0.500042
C57	C	1.485980	0.224105	0.000059
C58	C	1.985980	0.724105	0.500059
N59	N	1.541853	-0.124641	-0.254168
N60	N	2.041853	0.375359	0.245832
C61	C	1.486973	-0.168896	0.473391
C62	C	1.986973	0.331104	0.973391
C63	C	1.558341	-0.111336	0.526726
C64	C	2.058341	0.388664	1.026726
C65	C	1.549164	-0.118741	0.648648
C66	C	2.049164	0.381259	1.148648
C67	C	1.496148	-0.161492	0.351458
C68	C	1.996148	0.338508	0.851458
H69	H	1.112738	0.024690	-0.000049
H70	H	1.612738	0.524690	0.499951
C71	C	1.329629	0.436270	-0.091782
C72	C	1.829629	0.936270	0.408218
C73	C	1.337433	0.374409	0.000050
C74	C	1.837433	0.874409	0.500050
H75	H	1.247029	0.462822	-0.091773
H76	H	1.747029	0.962822	0.408227
H77	H	1.344326	0.401870	-0.154065
H78	H	1.844326	0.901870	0.345935
H79	H	1.392228	0.486083	-0.091775
H80	H	1.892228	0.986083	0.408225
H81	H	1.274839	0.324592	0.000039
H82	H	1.774839	0.824592	0.500039
H83	H	1.322722	0.408810	0.062349
H84	H	1.822722	0.908810	0.562349
H85	H	0.960288	-0.045428	-0.162486
H86	H	1.460288	0.454572	0.337514
C87	C	1.428481	-0.334730	0.508252
C88	C	1.928481	0.165270	1.008252
C89	C	1.395192	-0.242929	0.535347
C90	C	1.895192	0.257071	1.035347
H91	H	1.371815	-0.380433	0.546505
H92	H	1.871815	0.119567	1.046505
H93	H	1.513501	-0.346627	0.526616
H94	H	2.013501	0.153373	1.026616
H95	H	1.422682	-0.339390	0.433257
H96	H	1.922682	0.160610	0.933257
H97	H	1.401001	-0.238267	0.610341
H98	H	1.901001	0.261733	1.110341
H99	H	1.310151	-0.231028	0.516990
H100	H	1.810151	0.268972	1.016990
C101	C	1.023200	-0.252790	-0.250668
C102	C	1.523200	0.247210	0.249332
C103	C	1.123467	-0.226933	-0.188760
C104	C	1.623467	0.273067	0.311240
H105	H	1.056862	-0.281360	-0.312797
H106	H	1.556862	0.218640	0.187203
H107	H	0.977665	-0.197548	-0.271706
H108	H	1.477665	0.302452	0.228294
H109	H	0.967086	-0.297010	-0.209486
H110	H	1.467086	0.202990	0.290514
H111	H	1.179576	-0.182707	-0.229939
H112	H	1.679576	0.317293	0.270061
H113	H	1.169023	-0.282182	-0.167723
H114	H	1.669023	0.217818	0.332277
C115	C	0.836930	-0.351090	0.092181
C116	C	1.336930	0.148910	0.592181
C117	C	0.918261	-0.331460	-0.000078
C118	C	1.418261	0.168540	0.499922
H119	H	0.802126	-0.414056	0.092137
H120	H	1.302126	0.085944	0.592137
H121	H	0.769664	-0.306802	0.092799
H122	H	1.269664	0.193198	0.592799
H123	H	0.883852	-0.345737	0.154176
H124	H	1.383852	0.154263	0.654176
H125	H	0.871337	-0.336806	-0.062073
H126	H	1.371337	0.163194	0.437927
H127	H	0.985537	-0.375760	-0.000706
H128	H	1.485537	0.124240	0.499294
C129	C	1.048556	-0.207298	0.280767
C130	C	1.548556	0.292702	0.780767
C131	C	1.095344	-0.249905	0.188611
C132	C	1.595344	0.250095	0.688611
H133	H	1.073050	-0.243416	0.342829
H134	H	1.573050	0.256584	0.842829
H135	H	0.958023	-0.205441	0.281852
H136	H	1.458023	0.294559	0.781852
H137	H	1.082883	-0.144146	0.280125
H138	H	1.582883	0.355854	0.780125
H139	H	1.061008	-0.313055	0.189249
H140	H	1.561008	0.186945	0.689249
H141	H	1.185894	-0.251773	0.187526
H142	H	1.685894	0.248227	0.687526
H143	H	0.935812	-0.065213	0.162566
H144	H	1.435812	0.434787	0.662566
H145	H	1.673195	0.356507	-0.000016
H146	H	2.173195	0.856507	0.499984
H147	H	1.626334	-0.056497	0.480820
H148	H	2.126334	0.443503	0.980820
