data_functionalizedCrystal
_audit_creation_method	'MofGen! by Chris Wilmer'
_symmetry_space_group_name_H-M	'P1'
_symmetry_Int_Tables_number	1
_symmetry_cell_setting	triclinic
loop_
_symmetry_equiv_pos_as_xyz
  x,y,z
_cell_length_a	15.944499
_cell_length_b	15.944499
_cell_length_c	15.072220
_cell_angle_alpha	90.002115
_cell_angle_beta	90.015087
_cell_angle_gamma	96.522390
loop_
_atom_site_label
_atom_site_type_symbol
_atom_site_fract_x
_atom_site_fract_y
_atom_site_fract_z
O1	O	1.114542	-0.108122	0.073829
O2	O	0.869983	-0.121524	0.073819
O3	O	0.998963	0.007456	0.073826
O4	O	0.985562	-0.237102	0.073822
O5	O	0.998932	0.007449	-0.073739
O6	O	0.869952	-0.121531	-0.073747
O7	O	1.114510	-0.108129	-0.073736
Zn8	Zn	0.992226	-0.114832	-0.097170
Zn9	Zn	0.992268	-0.114822	0.097253
O10	O	0.985530	-0.237109	-0.073743
C11	C	0.838673	-0.120979	0.000035
C12	C	0.745425	-0.119334	0.000031
C13	C	0.453875	-0.194268	0.000043
C14	C	0.514927	-0.155312	0.072803
C15	C	0.409789	-0.113358	0.000051
C16	C	0.514882	-0.155297	-0.072685
C17	C	0.574698	-0.116298	0.000040
C18	C	0.469614	-0.074379	0.072871
C19	C	0.469562	-0.074376	-0.072682
C20	C	0.530596	-0.035361	0.000095
C21	C	0.314790	-0.111666	0.000059
C22	C	0.669696	-0.117984	0.000039
C23	C	0.998399	0.038747	0.000045
C24	C	0.996754	0.131995	0.000052
C25	C	1.145820	-0.108675	0.000050
C26	C	1.239068	-0.110320	0.000059
C27	C	0.986094	-0.268400	0.000039
C28	C	0.987739	-0.361648	0.000038
C29	C	1.071688	0.423545	0.000050
C30	C	1.032719	0.362509	-0.072712
C31	C	0.990778	0.467630	0.000041
C32	C	1.032729	0.362522	0.072776
C33	C	0.993718	0.302722	0.000048
C34	C	0.951787	0.407822	-0.072781
C35	C	0.951808	0.407842	0.072772
C36	C	0.912781	0.346824	-0.000008
C37	C	0.989086	0.562630	0.000037
C38	C	0.995404	0.207723	0.000046
N39	N	0.992203	-0.114837	-0.229859
C40	C	0.992266	-0.114819	-0.589061
C41	C	0.923019	-0.183602	-0.551458
C42	C	0.923178	-0.183853	-0.448632
C43	C	0.992234	-0.114828	-0.410857
C44	C	1.079876	-0.133960	-0.448144
C45	C	1.079488	-0.134448	-0.551002
C46	C	0.974651	-0.026700	-0.551161
C47	C	0.972640	-0.027288	-0.448297
C48	C	0.992221	-0.114832	-0.310143
C49	C	0.992284	-0.114817	-0.689774
N50	N	0.992297	-0.114809	0.229942
H51	H	0.563786	0.031847	0.000135
H52	H	0.857662	-0.172393	-0.576222
N53	N	0.409694	-0.283205	0.000137
H54	H	0.373590	-0.292477	-0.054833
H55	H	0.453128	-0.324636	0.000775
H56	H	0.534937	-0.189536	-0.134195
H57	H	1.066929	0.342421	-0.134222
N58	N	0.891819	-0.002345	-0.585559
H59	H	0.852852	0.005072	-0.534033
H60	H	0.902306	0.052377	-0.619638
N61	N	0.906489	0.434273	-0.154359
H62	H	0.887084	0.382844	-0.191283
H63	H	0.855971	0.462977	-0.135845
N64	N	0.823767	0.302838	-0.000061
H65	H	0.792968	0.320052	0.054359
H66	H	0.793380	0.319309	-0.055078
N67	N	1.100051	-0.219570	-0.582778
H68	H	1.109280	-0.256423	-0.529969
H69	H	1.051640	-0.247186	-0.619586
N70	N	1.149767	-0.069365	-0.415740
H71	H	1.125231	-0.026979	-0.376481
H72	H	1.192050	-0.098624	-0.380848
H73	H	0.917627	0.427951	0.134285
H74	H	0.535032	-0.189534	0.134310
H75	H	1.138835	0.456887	-0.000016
H76	H	0.858032	-0.172456	-0.423424
H77	H	1.132625	-0.086325	-0.575874
H78	H	1.095771	-0.197491	-0.422375
H79	H	0.908170	-0.012769	-0.423928
H80	H	1.066979	0.342451	0.134285
H81	H	0.449654	-0.040186	0.134453
H82	H	0.934111	-0.248626	-0.577296
H83	H	0.449438	-0.040185	-0.134195
H84	H	0.934425	-0.249245	-0.424018
H85	H	1.019801	0.026294	-0.422586
N86	N	1.041537	0.041106	-0.583365
H87	H	1.083053	0.014921	-0.622313
H88	H	1.014047	0.084474	-0.618535
