data_functionalizedCrystal
_audit_creation_method	'MofGen! by Chris Wilmer'
_symmetry_space_group_name_H-M	'P1'
_symmetry_Int_Tables_number	1
_symmetry_cell_setting	triclinic
loop_
_symmetry_equiv_pos_as_xyz
  x,y,z
_cell_length_a	14.971482
_cell_length_b	19.188924
_cell_length_c	13.448316
_cell_angle_alpha	90.004751
_cell_angle_beta	90.004360
_cell_angle_gamma	83.377286
loop_
_atom_site_label
_atom_site_type_symbol
_atom_site_fract_x
_atom_site_fract_y
_atom_site_fract_z
O1	O	1.186464	0.090972	0.082684
O2	O	0.926006	0.101871	0.082689
O3	O	1.063754	-0.005210	0.082674
O4	O	1.048715	0.198053	0.082698
O5	O	1.063741	-0.005209	-0.082709
O6	O	0.925992	0.101872	-0.082695
O7	O	1.186451	0.090973	-0.082700
Cu8	Cu	1.056220	0.096423	-0.097798
Cu9	Cu	1.056236	0.096421	0.097787
O10	O	1.048702	0.198054	-0.082686
C11	C	0.892677	0.101384	-0.000002
C12	C	0.793387	0.099925	-0.000001
C13	C	0.746739	0.099238	-0.090153
C14	C	0.653448	0.097856	-0.090154
C15	C	0.606806	0.097166	-0.000002
C16	C	0.653461	0.097850	0.090157
C17	C	0.746751	0.099228	0.090157
C18	C	0.459014	0.094982	0.090150
C19	C	0.365717	0.093606	0.090150
C20	C	0.365711	0.093610	-0.090161
C21	C	0.459001	0.094987	-0.090161
C22	C	0.505650	0.095673	-0.000001
C23	C	1.063262	-0.031223	-0.000018
C24	C	1.061803	-0.108732	-0.000021
C25	C	1.061129	-0.145134	0.090130
C26	C	1.059746	-0.217961	0.090138
C27	C	1.059054	-0.254385	-0.000011
C28	C	1.059722	-0.217974	-0.090174
C29	C	1.061097	-0.145148	-0.090179
N30	N	1.107791	-0.373892	-0.067107
N31	N	1.106487	-0.443074	-0.067096
C32	C	1.054911	-0.473808	-0.000001
N33	N	1.004699	-0.432746	0.067098
N34	N	1.006007	-0.363558	0.067090
C35	C	1.057563	-0.333354	-0.000016
C36	C	1.052736	-0.589177	0.090164
C37	C	1.051347	-0.662005	0.090168
C38	C	1.051332	-0.662018	-0.090146
C39	C	1.052712	-0.589190	-0.090147
C40	C	1.053418	-0.552775	0.000011
C41	C	1.219780	0.091460	-0.000007
C42	C	1.319069	0.092919	-0.000002
C43	C	1.049195	0.224067	0.000009
C44	C	1.050653	0.301576	0.000019
N45	N	1.056215	0.096423	-0.235363
C46	C	1.002171	0.053999	-0.712614
C47	C	1.002168	0.053997	-0.608511
C48	C	1.056238	0.096415	-0.556444
C49	C	1.110321	0.138834	-0.608485
C50	C	1.110328	0.138832	-0.712587
C51	C	1.110300	0.138836	-0.391505
C52	C	1.110292	0.138840	-0.287397
C53	C	1.002140	0.054001	-0.287430
C54	C	1.002148	0.053999	-0.391531
C55	C	1.056230	0.096419	-0.443565
N56	N	1.056248	0.096415	0.235351
H57	H	0.615479	0.097283	0.163560
H58	H	1.059156	-0.247636	-0.163573
C59	C	0.314396	0.092851	-0.189337
N60	N	0.275742	0.092280	-0.264034
H61	H	0.496993	0.095540	0.163567
H62	H	0.958136	0.019455	-0.566149
C63	C	1.061843	-0.105105	-0.189356
N64	N	1.062408	-0.074945	-0.264058
H65	H	1.053268	-0.559553	-0.163558
H66	H	0.784731	0.099788	0.163568
C67	C	0.602136	0.097117	-0.189328
N68	N	0.563488	0.096565	-0.264031
C69	C	0.942579	0.007395	-0.230190
N70	N	0.897690	-0.027686	-0.187073
C71	C	1.050571	-0.702081	-0.189311
N72	N	1.049997	-0.732259	-0.264005
H73	H	1.050794	-0.691641	0.163583
H74	H	1.061701	-0.115488	0.163544
H75	H	1.154318	0.173383	-0.245007
H76	H	0.958136	0.019460	-0.755000
C77	C	1.169806	0.185489	-0.551208
N78	N	1.214611	0.220631	-0.508067
H79	H	1.154342	0.173377	-0.433869
H80	H	1.154364	0.173371	-0.754952
C81	C	1.059000	-0.258010	0.189315
N82	N	1.058436	-0.288173	0.264015
C83	C	0.314414	0.092843	0.189321
N84	N	0.275772	0.092268	0.264019
C85	C	1.053499	-0.549116	0.189338
N86	N	1.054071	-0.518943	0.264038
H87	H	0.784707	0.099806	-0.163565
H88	H	0.496974	0.095554	-0.163570
C89	C	0.942662	0.007341	-0.448803
N90	N	0.897858	-0.027803	-0.491940
