data_functionalizedCrystal
_audit_creation_method	'MofGen! by Chris Wilmer'
_symmetry_space_group_name_H-M	'P1'
_symmetry_Int_Tables_number	1
_symmetry_cell_setting	triclinic
loop_
_symmetry_equiv_pos_as_xyz
  x,y,z
_cell_length_a	12.759400
_cell_length_b	12.759401
_cell_length_c	12.759393
_cell_angle_alpha	90.019987
_cell_angle_beta	89.970777
_cell_angle_gamma	89.989584
loop_
_atom_site_label
_atom_site_type_symbol
_atom_site_fract_x
_atom_site_fract_y
_atom_site_fract_z
Zn1	Zn	-0.418327	-1.606256	-0.594037
Zn2	Zn	-0.594043	-1.606151	-0.418361
Zn3	Zn	-0.418366	-1.430558	-0.418371
Zn4	Zn	-0.593952	-1.430547	-0.593998
O5	O	-0.506172	-1.518378	-0.506192
O6	O	-0.441658	-1.753263	-0.570745
O7	O	-0.570794	-1.582819	-0.271342
O8	O	-0.271340	-1.453913	-0.441694
O9	O	-0.570756	-1.753186	-0.441677
O10	O	-0.271311	-1.582998	-0.570755
O11	O	-0.441725	-1.453812	-0.271349
O12	O	-0.441637	-1.283536	-0.441656
O13	O	-0.570601	-1.453895	-0.741024
O14	O	-0.570639	-1.283528	-0.570688
O15	O	-0.441570	-1.582987	-0.741053
O16	O	-0.741052	-1.582809	-0.441639
O17	O	-0.740985	-1.453793	-0.570679
C18	C	-0.506133	-1.245411	-0.506170
C19	C	-0.506141	-1.128634	-0.506185
C20	C	-0.439044	-1.073805	-0.573494
C21	C	-0.439058	-0.964081	-0.573497
C22	C	-0.573276	-0.964025	-0.438881
C23	C	-0.573256	-1.073747	-0.438873
C24	C	-0.361558	-1.073837	-0.651217
C25	C	-0.361572	-0.964113	-0.651220
C26	C	-0.779140	-1.518317	-0.506177
C27	C	-0.895916	-1.518387	-0.506205
C28	C	-1.060507	-1.451249	-0.573362
C29	C	-0.950783	-1.451191	-0.573345
C30	C	-0.950780	-1.585652	-0.439086
C31	C	-1.060502	-1.585714	-0.439110
C32	C	-1.115367	-1.384041	-0.640498
C33	C	-1.060511	-1.316777	-0.707619
C34	C	-0.950787	-1.316720	-0.707601
C35	C	-0.895919	-1.383926	-0.640463
C36	C	-0.232139	-1.518468	-0.506230
C37	C	-0.115362	-1.518507	-0.506247
C38	C	-0.506071	-1.518451	-0.780225
C39	C	-0.506028	-1.518482	-0.897002
C40	C	-0.506199	-0.792411	-0.506208
C41	C	-0.506176	-0.909188	-0.506197
C42	C	-0.438784	-1.585733	-1.061606
C43	C	-0.438828	-1.585708	-0.951882
C44	C	-0.573195	-1.451285	-0.951852
C45	C	-0.573156	-1.451316	-1.061575
C46	C	-0.361205	-1.663338	-1.061622
C47	C	-0.361249	-1.663313	-0.951897
C48	C	-0.506197	-1.518366	-0.233224
C49	C	-0.505945	-1.518538	-0.116448
H50	H	-0.280156	-1.103603	-0.629562
C51	C	-0.647029	-1.377409	-1.121916
C52	C	-0.601457	-1.294968	-1.197352
C53	C	-0.675329	-1.221058	-1.257701
C54	C	-0.794773	-1.229589	-1.242614
C55	C	-0.840352	-1.312032	-1.167174
C56	C	-0.766480	-1.385942	-1.106826
H57	H	-0.513031	-1.288650	-1.208524
H58	H	-0.641587	-1.160028	-1.313546
H59	H	-0.849458	-1.174876	-1.287287
H60	H	-0.928778	-1.318350	-1.156003
H61	H	-0.800222	-1.446973	-1.050980
H62	H	-0.283898	-1.634221	-1.095664
H63	H	-1.204710	-1.384079	-0.640519
C64	C	-0.391162	-0.923915	-0.761089
C65	C	-0.497886	-0.953073	-0.809259
C66	C	-0.527478	-0.912873	-0.919122
C67	C	-0.450344	-0.843516	-0.980814
C68	C	-0.343613	-0.814354	-0.932644
C69	C	-0.314022	-0.854553	-0.822782
H70	H	-0.554991	-1.004419	-0.763591
H71	H	-0.606488	-0.934461	-0.954780
H72	H	-0.472249	-0.813757	-1.062141
H73	H	-0.286508	-0.763007	-0.978313
H74	H	-0.235012	-0.832965	-0.787124
H75	H	-0.627917	-1.396555	-0.907161
H76	H	-1.105192	-1.262067	-0.762286
C77	C	-0.257111	-0.918112	-0.612039
C78	C	-0.242181	-0.798482	-0.606434
C79	C	-0.137725	-0.752479	-0.567251
C80	C	-0.048198	-0.826107	-0.533672
C81	C	-0.063125	-0.945745	-0.539276
C82	C	-0.167581	-0.991748	-0.578460
H83	H	-0.308457	-0.743971	-0.631292
H84	H	-0.126676	-0.663915	-0.563103
H85	H	0.029127	-0.792053	-0.504666
H86	H	0.003151	-1.000255	-0.514418
H87	H	-0.178630	-1.080312	-0.582608
C88	C	-1.120855	-1.659689	-0.365278
C89	C	-1.105871	-1.651168	-0.245830
C90	C	-1.166227	-1.725146	-0.171999
C91	C	-1.241566	-1.807644	-0.217617
C92	C	-1.256554	-1.816168	-0.337071
C93	C	-1.196198	-1.742191	-0.410901
H94	H	-1.050097	-1.590095	-0.212056
H95	H	-1.155132	-1.718835	-0.083571
H96	H	-1.286245	-1.862407	-0.162963
H97	H	-1.312327	-1.877242	-0.370845
H98	H	-1.207293	-1.748501	-0.499329
H99	H	-0.390422	-1.740590	-0.917869
H100	H	-0.390793	-1.107902	-0.728456
H101	H	-0.279886	-1.641537	-0.922129
H102	H	-0.906125	-1.261958	-0.762260
C103	C	-0.390649	-1.773260	-1.101860
C104	C	-0.488271	-1.787957	-1.171238
C105	C	-0.517715	-1.897875	-1.211476
C106	C	-0.449537	-1.993096	-1.182335
C107	C	-0.351909	-1.978402	-1.112953
C108	C	-0.322465	-1.868484	-1.072715
H109	H	-0.538745	-1.717465	-1.192813
H110	H	-0.589985	-1.908752	-1.262838
H111	H	-0.471333	-2.074464	-1.212122
H112	H	-0.301435	-2.048893	-1.091378
H113	H	-0.250194	-1.857607	-1.021354
C114	C	-0.647104	-0.903645	-0.364846
C115	C	-0.601490	-0.828181	-0.282445
C116	C	-0.675321	-0.767804	-0.208409
C117	C	-0.794765	-0.782891	-0.216774
C118	C	-0.840385	-0.858358	-0.299178
C119	C	-0.766554	-0.918735	-0.373214
H120	H	-0.513065	-0.817010	-0.276249
H121	H	-0.641550	-0.711938	-0.147408
H122	H	-0.849419	-0.738196	-0.161968
H123	H	-0.928810	-0.869529	-0.305374
H124	H	-0.800326	-0.974601	-0.434216
H125	H	-0.806574	-1.383880	-0.640461
H126	H	-0.627883	-1.118384	-0.384054
H127	H	-0.906099	-1.640368	-0.384424
