data_functionalizedCrystal
_audit_creation_method	'MofGen! by Chris Wilmer'
_symmetry_space_group_name_H-M	'P1'
_symmetry_Int_Tables_number	1
_symmetry_cell_setting	triclinic
loop_
_symmetry_equiv_pos_as_xyz
  x,y,z
_cell_length_a	6.817900
_cell_length_b	7.190334
_cell_length_c	15.866870
_cell_angle_alpha	74.030337
_cell_angle_beta	102.655915
_cell_angle_gamma	60.611776
loop_
_atom_site_label
_atom_site_type_symbol
_atom_site_fract_x
_atom_site_fract_y
_atom_site_fract_z
V1	V	-4.278433	0.767890	-0.130870
O2	O	-4.203398	0.646163	0.007859
O3	O	-4.283778	0.865652	-0.261003
O4	O	-4.314452	1.055795	-0.128168
O5	O	-4.172512	0.454703	-0.125896
V6	V	-4.744158	0.717916	-0.114358
O7	O	-4.578733	0.877511	-0.167091
O8	O	-4.894056	0.608295	-0.078137
O9	O	-4.515607	0.620154	0.015776
O10	O	-4.936591	0.839643	-0.253087
O11	O	-4.967477	1.031103	-0.119332
O12	O	-4.484933	0.430011	-0.117060
C13	C	-4.139122	0.880119	-0.292749
C14	C	-4.225342	0.961971	-0.399130
C15	C	-4.178259	1.122659	-0.123299
C16	C	-4.291433	1.363135	-0.121924
C17	C	-3.991620	0.202729	-0.682960
C18	C	-4.072667	0.279712	-0.782926
C19	C	-4.279585	0.691098	-0.809332
C20	C	-4.198544	0.614148	-0.709366
C21	C	-4.054566	0.369961	-0.646187
C22	C	-4.261489	0.781381	-0.672594
C23	C	-4.180466	0.704438	-0.572637
C24	C	-4.036496	0.460261	-0.509452
C25	C	-3.973542	0.293018	-0.546230
C26	C	-4.405482	1.025568	-0.735775
C27	C	-4.468428	1.192801	-0.699003
C28	C	-4.387389	1.115858	-0.599044
C29	C	-4.243420	0.871681	-0.535859
C30	C	-4.450344	1.283101	-0.562266
C31	C	-4.369320	1.206158	-0.462309
C32	C	-4.162396	0.794738	-0.435902
C33	C	-4.323605	0.605685	0.047516
C34	C	-4.216628	0.523848	0.153897
H35	H	-4.045122	0.595894	-0.384457
O36	O	-4.437635	1.386717	-0.422735
H37	H	-4.545852	1.372250	-0.381527
H38	H	-4.585670	1.391620	-0.750457
O39	O	-3.949049	0.377225	-0.401637
H40	H	-4.112373	0.456536	-0.384588
H41	H	-3.874346	0.003884	-0.631514
O42	O	-4.605658	1.546464	-0.630419
H43	H	-4.635835	1.649830	-0.588055
H44	H	-3.856268	0.094174	-0.494785
O45	O	-4.004754	0.099329	-0.822591
H46	H	-3.891011	-0.083390	-0.761862
O47	O	-4.434883	0.954466	-0.877475
H48	H	-4.480646	0.979879	-0.953160
O49	O	-4.492858	1.108571	-0.843588
H50	H	-4.609590	1.050849	-0.867877
