data_functionalizedCrystal
_audit_creation_method	'MofGen! by Chris Wilmer'
_symmetry_space_group_name_H-M	'P1'
_symmetry_Int_Tables_number	1
_symmetry_cell_setting	triclinic
loop_
_symmetry_equiv_pos_as_xyz
  x,y,z
_cell_length_a	14.446369
_cell_length_b	17.917603
_cell_length_c	17.917559
_cell_angle_alpha	60.139256
_cell_angle_beta	90.003555
_cell_angle_gamma	63.032965
loop_
_atom_site_label
_atom_site_type_symbol
_atom_site_fract_x
_atom_site_fract_y
_atom_site_fract_z
Zr1	Zr	0.944586	0.806815	-0.129030
O2	O	0.811761	0.951850	-0.249569
O3	O	0.978956	0.654586	-0.087378
O4	O	0.995728	0.796434	-0.242784
O5	O	0.788981	0.820699	0.023078
O6	O	1.148064	0.796427	-0.242780
O7	O	0.794990	0.810002	-0.094162
O8	O	1.118064	0.542688	0.035214
O9	O	0.818982	1.074438	-0.254916
O10	O	1.114971	0.719859	-0.075289
O11	O	0.996800	0.727847	0.012202
O12	O	1.016546	0.894854	-0.170769
O13	O	0.898374	0.902842	-0.083277
Zr14	Zr	1.177962	0.823865	0.057962
Zr15	Zr	1.187545	0.806804	-0.129023
Zr16	Zr	0.935003	0.823875	0.057955
Zr17	Zr	0.956102	1.002329	-0.137558
Zr18	Zr	1.166446	0.628350	0.066490
O19	O	1.143592	0.976093	0.016310
O20	O	1.157218	0.951835	-0.249558
O21	O	0.798135	0.976107	0.016300
O22	O	1.310787	0.678830	0.178501
O23	O	1.324413	0.654572	-0.087368
O24	O	0.965330	0.678844	0.178490
O25	O	1.333567	0.809980	-0.094146
O26	O	1.126821	0.834246	0.171716
O27	O	0.974484	0.834252	0.171712
O28	O	1.327558	0.820677	0.023094
O29	O	1.012102	1.074430	-0.254910
O30	O	1.110446	0.556249	0.183842
O31	O	1.303566	0.556241	0.183848
O32	O	1.311184	0.542680	0.035220
O33	O	0.811365	1.087999	-0.106288
O34	O	1.004485	1.087991	-0.106282
O35	O	1.106003	0.735825	0.099701
O36	O	1.224174	0.727838	0.012209
O37	O	1.125749	0.902832	-0.083270
O38	O	1.007577	0.910820	0.004221
C39	C	1.046869	0.570781	-0.024867
C40	C	1.041980	0.487780	-0.021247
C41	C	1.033048	0.335814	-0.014636
C42	C	1.089497	0.294861	-0.056430
C43	C	1.084527	0.210302	-0.052752
C44	C	1.038017	0.420381	-0.018313
C45	C	0.757369	0.815352	-0.035543
C46	C	0.654227	0.815357	-0.035546
C47	C	0.445469	0.925739	-0.095486
C48	C	0.552721	0.925789	-0.095798
C49	C	0.649590	0.754362	-0.073298
C50	C	0.541885	0.755058	-0.073732
C51	C	0.536144	0.765079	0.062254
C52	C	0.642249	0.767240	0.062009
C53	C	1.365179	0.815327	-0.035525
C54	C	1.468321	0.815323	-0.035522
C55	C	1.073261	0.794000	-0.269423
C56	C	1.077330	0.786757	-0.348803
C57	C	1.075679	1.059898	-0.046201
C58	C	1.080568	1.142900	-0.049821
C59	C	1.037766	0.857140	-0.576905
C60	C	1.084780	0.773544	-0.494160
C61	C	1.080633	0.780898	-0.413277
C62	C	1.041911	0.849787	-0.657797
C63	C	1.049287	0.836679	0.198355
C64	C	1.045218	0.843922	0.277735
C65	C	1.350774	0.570768	-0.024858
C66	C	1.449028	0.487763	-0.021234
C67	C	1.034882	0.592121	0.209022
C68	C	1.025925	0.516362	0.292022
C69	C	1.338787	0.592108	0.209031
C70	C	1.432972	0.516345	0.292035
C71	C	0.783762	1.038571	-0.280099
C72	C	0.689576	1.114334	-0.363103
C73	C	0.771774	1.059911	-0.046210
C74	C	0.673521	1.142916	-0.049834
C75	C	1.087666	1.038559	-0.280090
C76	C	1.096624	1.114317	-0.363090
C77	C	1.438166	0.444617	-0.065214
C78	C	1.530478	0.366634	-0.061827
C79	C	1.633650	0.331793	-0.014455
C80	C	1.644509	0.374946	0.029525
C81	C	1.552199	0.452933	0.026133
C82	C	1.078720	0.484950	0.376681
C83	C	1.070300	0.413779	0.454676
C84	C	1.009090	0.374015	0.448009
C85	C	0.956288	0.405434	0.363341
C86	C	0.964702	0.476609	0.285349
C87	C	1.538897	0.476597	0.285344
C88	C	1.627404	0.405420	0.363327
C89	C	1.609984	0.373987	0.448000
C90	C	1.504048	0.413743	0.454688
C91	C	1.415544	0.484924	0.376706
C92	C	0.583652	1.154092	-0.356413
C93	C	0.495146	1.225293	-0.434396
C94	C	0.512566	1.256730	-0.519069
C95	C	0.618502	1.216969	-0.525758
C96	C	0.707006	1.145774	-0.447775
C97	C	0.684383	1.186069	-0.005862
C98	C	0.592073	1.264072	-0.009270
C99	C	0.488902	1.298916	-0.056645
C100	C	0.478042	1.255759	-0.100622
C101	C	0.570351	1.177763	-0.097219
C102	C	1.157843	1.154059	-0.356395
C103	C	1.166280	1.225232	-0.434375
C104	C	1.113492	1.256668	-0.519049
C105	C	1.052270	1.216919	-0.525743
C106	C	1.043840	1.145741	-0.447764
H107	H	0.552251	0.973436	-0.070981
Cl108	Cl	1.749688	0.233749	-0.010197
Cl109	Cl	0.840165	1.095793	-0.456201
H110	H	0.994405	0.934226	-0.586998
H111	H	0.906450	0.373047	0.357926
Cl112	Cl	1.308476	0.488404	-0.124778
Cl113	Cl	0.952680	0.291895	0.044874
H114	H	0.413747	1.362426	-0.059409
Cl115	Cl	0.898328	0.516083	0.178924
H116	H	0.394027	1.284141	-0.139194
H117	H	1.128139	0.696452	-0.484066
H118	H	1.728524	0.346567	0.068094
H119	H	0.993984	1.113391	-0.453228
Cl120	Cl	0.561724	1.114587	-0.249976
Cl121	Cl	1.169875	0.338775	-0.115940
Cl122	Cl	0.640383	1.256495	-0.632211
Cl123	Cl	0.572367	0.629582	-0.010267
Cl124	Cl	0.556676	1.123516	-0.152497
H125	H	1.561057	0.488053	0.061952
Cl126	Cl	0.364153	0.999473	-0.057068
H127	H	0.396717	0.964451	-0.167259
Cl128	Cl	0.661994	0.806055	-0.183118
Cl129	Cl	1.516801	0.312396	-0.117118
H130	H	0.556539	0.964630	-0.168002
H131	H	1.128564	0.517319	0.382127
Cl132	Cl	1.560825	0.516103	0.178908
H133	H	0.497531	0.789402	-0.145567
H134	H	0.440491	1.314701	-0.582561
Cl135	Cl	0.361982	1.275260	-0.425967
H136	H	1.113303	0.388207	0.523608
Cl137	Cl	0.998524	0.284535	0.546067
H138	H	1.009292	1.242525	-0.594696
H139	H	0.768382	1.157707	0.032721
H140	H	1.713654	0.373057	0.357865
H141	H	1.682060	0.316026	0.511491
Cl142	Cl	1.482167	0.374216	0.561141
Cl143	Cl	1.282383	0.534879	0.385133
Cl144	Cl	0.605750	1.318306	0.046025
H145	H	0.720905	0.672935	-0.031512
Cl146	Cl	1.224218	1.114554	-0.249956
Cl147	Cl	1.243241	1.275195	-0.425939
H148	H	1.120365	1.314626	-0.582538
H149	H	0.486572	0.805080	0.094269
H150	H	0.714171	0.687046	0.110054
Cl151	Cl	0.567541	0.639586	0.131464
Cl152	Cl	0.642898	0.835987	0.105634
