data_functionalizedCrystal
_audit_creation_method	'MofGen! by Chris Wilmer'
_symmetry_space_group_name_H-M	'P1'
_symmetry_Int_Tables_number	1
_symmetry_cell_setting	triclinic
loop_
_symmetry_equiv_pos_as_xyz
  x,y,z
_cell_length_a	19.121063
_cell_length_b	19.805407
_cell_length_c	19.805399
_cell_angle_alpha	90.021064
_cell_angle_beta	92.411105
_cell_angle_gamma	87.531918
loop_
_atom_site_label
_atom_site_type_symbol
_atom_site_fract_x
_atom_site_fract_y
_atom_site_fract_z
Zn1	Zn	-0.279649	-1.023233	-0.394230
Zn2	Zn	-0.397102	-1.018317	-0.285865
Zn3	Zn	-0.279667	-0.910047	-0.281053
Zn4	Zn	-0.397062	-0.905182	-0.399007
O5	O	-0.338370	-0.964195	-0.340039
O6	O	-0.295239	-1.117297	-0.379870
O7	O	-0.381547	-1.003933	-0.190511
O8	O	-0.181380	-0.929155	-0.292053
O9	O	-0.381531	-1.113685	-0.300255
O10	O	-0.181367	-1.012312	-0.375204
O11	O	-0.295268	-0.924388	-0.186975
O12	O	-0.295230	-0.814685	-0.296685
O13	O	-0.381464	-0.920863	-0.493089
O14	O	-0.381480	-0.811111	-0.383345
O15	O	-0.295201	-1.007595	-0.489580
O16	O	-0.495381	-0.999215	-0.304887
O17	O	-0.495352	-0.916096	-0.388012
C18	C	-0.338353	-0.788339	-0.340012
C19	C	-0.338363	-0.713107	-0.340017
C20	C	-0.520851	-0.956612	-0.347505
C21	C	-0.598917	-0.953431	-0.350721
C22	C	-0.383341	-0.675916	-0.385073
C23	C	-0.383340	-0.605228	-0.385081
C24	C	-0.338366	-0.571731	-0.340028
C25	C	-0.293384	-0.608927	-0.294970
C26	C	-0.293381	-0.679614	-0.294966
C27	C	-0.293394	-0.323853	-0.294986
C28	C	-0.293402	-0.253161	-0.294992
C29	C	-0.383354	-0.249467	-0.385100
C30	C	-0.383351	-0.320154	-0.385096
C31	C	-0.338366	-0.357344	-0.340041
C32	C	-0.338366	-0.433992	-0.340034
C33	C	-0.338369	-0.495084	-0.340032
C34	C	-0.635584	-0.995246	-0.308990
C35	C	-0.708936	-0.992257	-0.312019
C36	C	-0.745618	-0.947450	-0.356777
C37	C	-0.708946	-0.905633	-0.398513
C38	C	-0.635596	-0.908626	-0.395487
C39	C	-0.967088	-0.936252	-0.368081
C40	C	-1.040443	-0.933261	-0.371102
C41	C	-1.040428	-1.019886	-0.284609
C42	C	-0.967077	-1.022872	-0.281584
C43	C	-0.930411	-0.981058	-0.323322
C44	C	-0.820595	-0.944393	-0.359873
C45	C	-0.855435	-0.984119	-0.320229
C46	C	-0.155177	-0.971825	-0.332558
C47	C	-0.077111	-0.975076	-0.329371
C48	C	-0.338326	-0.964234	-0.516580
C49	C	-0.338307	-0.964251	-0.591811
C50	C	-0.338383	-0.140737	-0.340060
C51	C	-0.338376	-0.215969	-0.340051
C52	C	-0.293388	-1.009414	-0.625329
C53	C	-0.293367	-1.009421	-0.696016
C54	C	-0.338270	-0.964270	-0.733185
C55	C	-0.383192	-0.919102	-0.699663
C56	C	-0.383208	-0.919092	-0.628976
C57	C	-0.383126	-0.919143	-0.984733
C58	C	-0.383108	-0.919159	-1.055425
C59	C	-0.293286	-1.009473	-1.051774
C60	C	-0.293302	-1.009462	-0.981087
C61	C	-0.338220	-0.964293	-0.947571
C62	C	-0.338241	-0.964284	-0.870923
C63	C	-0.338254	-0.964281	-0.809832
C64	C	-0.338363	-0.964196	-0.164183
C65	C	-0.338184	-0.964318	-0.088944
H66	H	-0.419966	-0.703184	-0.421757
H67	H	-1.070290	-1.053930	-0.250628
N68	N	-0.247424	-1.055583	-0.943132
N69	N	-0.182613	-1.053792	-0.948384
H70	H	-0.150208	-1.086364	-0.921580
N71	N	-0.429002	-0.872998	-0.950508
N72	N	-0.424331	-0.810739	-0.958207
H73	H	-0.456733	-0.778144	-0.934034
H74	H	-0.256791	-1.046199	-0.723303
H75	H	-1.070308	-0.896782	-0.407562
H76	H	-0.937211	-1.059357	-0.245138
N77	N	-0.247405	-1.055609	-1.086022
N78	N	-0.247393	-1.055615	-1.149134
H79	H	-0.214993	-1.088200	-1.173321
N80	N	-0.247442	-0.361833	-0.248965
N81	N	-0.182640	-0.356626	-0.250903
H82	H	-0.150185	-0.383450	-0.218397
N83	N	-0.929652	-0.893536	-0.410719
N84	N	-0.962415	-0.853533	-0.450676
H85	H	-0.935974	-0.823362	-0.480791
N86	N	-0.858080	-0.898621	-0.405578
N87	N	-0.899067	-0.853840	-0.383405
H88	H	-0.925545	-0.821514	-0.415684
N89	N	-0.429284	-0.567250	-0.431113
N90	N	-0.469437	-0.597165	-0.471333
H91	H	-0.501886	-0.570344	-0.503847
H92	H	-0.419675	-0.882388	-1.085686
H93	H	-0.419750	-0.882337	-0.729931
N94	N	-0.429092	-0.872951	-0.594747
N95	N	-0.469179	-0.832638	-0.627939
H96	H	-0.501584	-0.800046	-0.603766
H97	H	-0.605722	-1.031729	-0.272540
N98	N	-0.429300	-0.354359	-0.431116
N99	N	-0.469456	-0.321144	-0.471342
H100	H	-0.501908	-0.345300	-0.503846
H101	H	-0.256752	-0.709894	-0.258280
N102	N	-0.247442	-0.574723	-0.248942
N103	N	-0.207287	-0.607940	-0.208716
H104	H	-0.174841	-0.583786	-0.176206
H105	H	-0.738787	-1.026307	-0.278036
N106	N	-0.429312	-0.211478	-0.431120
N107	N	-0.474037	-0.170169	-0.409065
H108	H	-0.506497	-0.143340	-0.441563
H109	H	-0.256774	-0.225890	-0.258304
N110	N	-0.746424	-0.859873	-0.444235
N111	N	-0.811915	-0.857207	-0.446932
H112	H	-0.838384	-0.824888	-0.479224
H113	H	-0.605742	-0.874577	-0.429470
N114	N	-0.817958	-1.029876	-0.274508
N115	N	-0.777076	-1.007745	-0.229675
H116	H	-0.750602	-1.040059	-0.197381
H117	H	-0.256825	-1.046184	-0.595071
