data_functionalizedCrystal
_audit_creation_method	'MofGen! by Chris Wilmer'
_symmetry_space_group_name_H-M	'P1'
_symmetry_Int_Tables_number	1
_symmetry_cell_setting	triclinic
loop_
_symmetry_equiv_pos_as_xyz
  x,y,z
_cell_length_a	12.759401
_cell_length_b	12.759400
_cell_length_c	12.759393
_cell_angle_alpha	89.974992
_cell_angle_beta	89.982248
_cell_angle_gamma	90.006618
loop_
_atom_site_label
_atom_site_type_symbol
_atom_site_fract_x
_atom_site_fract_y
_atom_site_fract_z
Zn1	Zn	1.606337	-0.418115	-0.594010
Zn2	Zn	1.606266	-0.593834	-0.418350
Zn3	Zn	1.430639	-0.418179	-0.418352
Zn4	Zn	1.430662	-0.593762	-0.593994
O5	O	1.518476	-0.505972	-0.506176
O6	O	1.753349	-0.441427	-0.570715
O7	O	1.582929	-0.570590	-0.271329
O8	O	1.453966	-0.271150	-0.441660
O9	O	1.753297	-0.570527	-0.441658
O10	O	1.583050	-0.271102	-0.570716
O11	O	1.453897	-0.441537	-0.271330
O12	O	1.283621	-0.441468	-0.441645
O13	O	1.454005	-0.570405	-0.741017
O14	O	1.283638	-0.570467	-0.570688
O15	O	1.583073	-0.441358	-0.741029
O16	O	1.582952	-0.740845	-0.441643
O17	O	1.453936	-0.740793	-0.570687
C18	C	1.245509	-0.505967	-0.506166
C19	C	1.128732	-0.505991	-0.506186
C20	C	1.518467	-0.778940	-0.506186
C21	C	1.518560	-0.895716	-0.506225
C22	C	1.518549	-0.505866	-0.780210
C23	C	1.518581	-0.505821	-0.896987
C24	C	1.792509	-0.505978	-0.506188
C25	C	1.909286	-0.505981	-0.506193
C26	C	1.964156	-0.573143	-0.573379
C27	C	2.073880	-0.573151	-0.573373
C28	C	2.073855	-0.438825	-0.438992
C29	C	1.964132	-0.438823	-0.438993
C30	C	2.223826	-0.697044	-0.610906
C31	C	2.278700	-0.764197	-0.678109
C32	C	2.243120	-0.780285	-0.780623
C33	C	2.152668	-0.729205	-0.815955
C34	C	2.097800	-0.662044	-0.748758
C35	C	2.133378	-0.645976	-0.646229
C36	C	1.814185	-0.314929	-0.401472
C37	C	1.759315	-0.247762	-0.334279
C38	C	1.794893	-0.231663	-0.231763
C39	C	1.885348	-0.282725	-0.196434
C40	C	1.940218	-0.349892	-0.263627
C41	C	1.904633	-0.365993	-0.366142
C42	C	1.518514	-0.231939	-0.506190
C43	C	1.518530	-0.115163	-0.506196
C44	C	1.451333	-0.060324	-0.439009
C45	C	1.451345	0.049401	-0.439026
C46	C	1.585759	0.049437	-0.573419
C47	C	1.585741	-0.060285	-0.573407
C48	C	1.327455	0.199345	-0.401498
C49	C	1.260268	0.254187	-0.334294
C50	C	1.244106	0.218544	-0.231775
C51	C	1.295147	0.128061	-0.196438
C52	C	1.362342	0.073223	-0.263635
C53	C	1.378484	0.108865	-0.366169
C54	C	1.709632	-0.210231	-0.610924
C55	C	1.776833	-0.265070	-0.678117
C56	C	1.793006	-0.229430	-0.780639
C57	C	1.741984	-0.138942	-0.815972
C58	C	1.674783	-0.084103	-0.748779
C59	C	1.658608	-0.119752	-0.646259
C60	C	1.451418	-0.438611	-0.951849
C61	C	1.451442	-0.438579	-1.061573
C62	C	1.585802	-0.572969	-1.061563
C63	C	1.585771	-0.573006	-0.951841
C64	C	1.327584	-0.400985	-1.211523
C65	C	1.260431	-0.333759	-1.266389
C66	C	1.244306	-0.231256	-1.230788
C67	C	1.295351	-0.195958	-1.140323
C68	C	1.362513	-0.263179	-1.085463
C69	C	1.378617	-0.365697	-1.121062
C70	C	1.709630	-0.610589	-0.801889
C71	C	1.776798	-0.677805	-0.747027
C72	C	1.792933	-0.780310	-0.782626
C73	C	1.741907	-0.815603	-0.873094
C74	C	1.674739	-0.748387	-0.927956
C75	C	1.658603	-0.645883	-0.892350
C76	C	1.518464	-0.506002	-0.233209
C77	C	1.518636	-0.505752	-0.116433
H78	H	2.024158	-0.620452	-0.777527
H79	H	1.396707	-0.383905	-0.907189
H80	H	1.755156	-0.109919	-0.899452
O81	O	1.417415	-0.024353	-0.225540
H82	H	1.394242	-0.091898	-0.275185
H83	H	1.396603	-0.105002	-0.384284
O84	O	1.865483	-0.288578	-0.853119
H85	H	1.898248	-0.357489	-0.811332
O86	O	1.277726	0.089620	-0.085855
H87	H	1.222422	0.142948	-0.045067
H88	H	1.919503	-0.627827	-0.628097
H89	H	1.750213	-0.176959	-0.177060
O90	O	2.376251	-0.819291	-0.639994
H91	H	2.443835	-0.796071	-0.689633
H92	H	2.118524	-0.384147	-0.384282
H93	H	1.282226	-0.112485	-1.111350
H94	H	2.287806	-0.834963	-0.835340
O95	O	1.692197	-0.248672	-0.500340
H96	H	1.607787	-0.266258	-0.488758
H97	H	1.340596	0.228366	-0.484981
O98	O	2.037777	-0.404980	-0.225526
H99	H	2.053298	-0.382511	-0.142947
H100	H	1.189402	0.263206	-0.177057
H101	H	2.123713	-0.742300	-0.899438
O102	O	1.344964	-0.511553	-1.249910
H103	H	1.378361	-0.509351	-1.330215
O104	O	1.865389	-0.852823	-0.723480
H105	H	1.836002	-0.863177	-0.642247
O106	O	1.661740	-0.192689	-0.372360
H107	H	1.602488	-0.251844	-0.395939
H108	H	1.404077	-0.234439	-1.011811
H109	H	2.252795	-0.683964	-0.527426
H110	H	1.818383	-0.338747	-0.649338
H111	H	1.696469	-0.527132	-0.772874
O112	O	1.658269	-0.645431	-1.120728
H113	H	1.740723	-0.627432	-1.099664
H114	H	1.218711	0.327860	-0.363075
O115	O	1.619687	-0.786460	-1.025524
H116	H	1.678850	-0.810060	-1.084775
O117	O	1.923736	-0.265366	-0.085864
H118	H	1.870382	-0.210090	-0.045074
O119	O	1.775982	-0.332705	-0.512043
H120	H	1.774747	-0.257000	-0.554907
H121	H	1.640483	0.094129	-0.628140
H122	H	1.633240	-0.010421	-0.777555
O123	O	1.171844	-0.158756	-1.289934
H124	H	1.139046	-0.200525	-1.358807
O125	O	1.205350	-0.371831	-1.363941
H126	H	1.227819	-0.454415	-1.379467
H127	H	1.755049	-0.899069	-0.902084
H128	H	1.818357	-0.649055	-0.673371
