data_functionalizedCrystal
_audit_creation_method	'MofGen! by Chris Wilmer'
_symmetry_space_group_name_H-M	'P1'
_symmetry_Int_Tables_number	1
_symmetry_cell_setting	triclinic
loop_
_symmetry_equiv_pos_as_xyz
  x,y,z
_cell_length_a	14.586319
_cell_length_b	16.109301
_cell_length_c	16.109301
_cell_angle_alpha	96.538519
_cell_angle_beta	90.007381
_cell_angle_gamma	90.002176
loop_
_atom_site_label
_atom_site_type_symbol
_atom_site_fract_x
_atom_site_fract_y
_atom_site_fract_z
O1	O	0.076185	-1.103127	0.106869
O2	O	0.576185	-0.603127	0.606869
O3	O	0.076200	-0.861065	0.120168
O4	O	0.576200	-0.361065	0.620168
O5	O	0.076183	-0.988746	-0.007512
O6	O	0.576183	-0.488746	0.492488
O7	O	0.076203	-0.975446	0.234550
O8	O	0.576203	-0.475446	0.734550
O9	O	-0.076298	-0.988745	-0.007520
O10	O	0.423702	-0.488745	0.492480
O11	O	-0.076281	-0.861064	0.120160
O12	O	0.423719	-0.361064	0.620160
O13	O	-0.076295	-1.103126	0.106861
O14	O	0.423705	-0.603126	0.606861
Cu15	Cu	-0.090211	-0.982095	0.113510
Cu16	Cu	0.409789	-0.482095	0.613510
Cu17	Cu	0.090115	-0.982096	0.113520
Cu18	Cu	0.590115	-0.482096	0.613520
O19	O	-0.076278	-0.975445	0.234542
O20	O	0.423722	-0.475445	0.734542
C21	C	-0.000038	-0.830090	0.119626
C22	C	0.499962	-0.330090	0.619626
C23	C	-0.000033	-0.737794	0.118011
C24	C	0.499967	-0.237794	0.618011
N25	N	0.216947	-0.982097	0.113520
N26	N	0.716947	-0.482097	0.613520
C27	C	-0.000058	-0.988206	-0.038491
C28	C	0.499942	-0.488206	0.461509
C29	C	-0.000059	-0.986591	-0.130786
C30	C	0.499941	-0.486591	0.369214
N31	N	-0.217042	-0.982100	0.113503
N32	N	0.282958	-0.482100	0.613503
C33	C	0.451946	-1.038743	0.057093
C34	C	0.951946	-0.538743	0.557093
C35	C	0.547927	-1.038746	0.057091
C36	C	1.047927	-0.538746	0.557091
C37	C	0.547952	-0.925451	0.169936
C38	C	1.047952	-0.425451	0.669936
C39	C	0.451972	-0.925453	0.169942
C40	C	0.951972	-0.425453	0.669942
C41	C	0.403972	-0.982099	0.113515
C42	C	0.903972	-0.482099	0.613515
C43	C	0.595933	-0.982099	0.113508
C44	C	1.095933	-0.482099	0.613508
C45	C	0.700000	-0.982101	0.113506
C46	C	1.200000	-0.482101	0.613506
C47	C	0.299898	-0.982098	0.113518
C48	C	0.799898	-0.482098	0.613518
C49	C	-0.000055	-1.134101	0.107404
C50	C	0.499945	-0.634101	0.607404
C51	C	-0.000054	-1.226397	0.109019
C52	C	0.499946	-0.726397	0.609019
C53	C	-0.000038	-0.515522	0.190018
C54	C	0.499962	-0.015522	0.690018
C55	C	-0.000044	-0.428801	0.188494
C56	C	0.499956	0.071199	0.688494
C57	C	-0.000052	-0.448676	0.037006
C58	C	0.499948	0.051324	0.537006
C59	C	-0.000053	-0.535394	0.038530
C60	C	0.499947	-0.035394	0.538530
C61	C	-0.000041	-0.568815	0.115039
C62	C	0.499959	-0.068815	0.615039
C63	C	-0.000046	-0.395376	0.111990
C64	C	0.499954	0.104624	0.611990
C65	C	-0.000053	-0.301350	0.110337
C66	C	0.499947	0.198650	0.610337
C67	C	-0.000036	-0.662847	0.116693
C68	C	0.499964	-0.162847	0.616693
C69	C	-0.000049	-1.058599	-0.353059
C70	C	0.499951	-0.558599	0.146941
C71	C	-0.000041	-1.057075	-0.439779
C72	C	0.499959	-0.557075	0.060221
C73	C	-0.000036	-0.905586	-0.419905
C74	C	0.499964	-0.405586	0.080095
C75	C	-0.000037	-0.907111	-0.333186
C76	C	0.499963	-0.407111	0.166814
C77	C	-0.000048	-0.983620	-0.299766
C78	C	0.499952	-0.483620	0.200234
C79	C	-0.000039	-0.980571	-0.473205
C80	C	0.499961	-0.480571	0.026795
C81	C	-0.000031	-0.978918	-0.567231
C82	C	0.499969	-0.478918	-0.067231
C83	C	-0.000055	-0.985273	-0.205734
C84	C	0.499945	-0.485273	0.294266
C85	C	-0.000035	-0.975984	0.265521
C86	C	0.499965	-0.475984	0.765521
C87	C	-0.000028	-0.977600	0.357816
C88	C	0.499972	-0.477600	0.857816
H89	H	0.412866	-1.084869	0.011148
H90	H	0.912866	-0.584869	0.511148
Cl91	Cl	-0.000061	-1.154781	-0.311047
Cl92	Cl	0.499939	-0.654781	0.188953
Cl93	Cl	0.608234	-1.109962	-0.013842
Cl94	Cl	1.108234	-0.609962	0.486158
H95	H	-0.000035	-0.542730	0.252317
H96	H	0.499965	-0.042730	0.752317
H97	H	-0.000058	-0.578788	-0.022530
H98	H	0.499942	-0.078788	0.477470
Cl99	Cl	0.608300	-0.854240	0.240866
Cl100	Cl	1.108300	-0.354240	0.740866
Cl101	Cl	-0.000061	-0.406655	-0.059172
Cl102	Cl	0.499939	0.093345	0.440828
H103	H	0.412909	-0.879326	0.215891
H104	H	0.912909	-0.379326	0.715891
Cl105	Cl	-0.000027	-0.812844	-0.266184
Cl106	Cl	0.499973	-0.312844	0.233816
Cl107	Cl	-0.000022	-0.809409	-0.461926
Cl108	Cl	0.499978	-0.309409	0.038074
H109	H	-0.000043	-0.385413	0.249550
H110	H	0.499957	0.114587	0.749550
Cl111	Cl	-0.000041	-1.151339	-0.506773
Cl112	Cl	0.499959	-0.651339	-0.006773
