data_functionalizedCrystal
_audit_creation_method	'MofGen! by Chris Wilmer'
_symmetry_space_group_name_H-M	'P1'
_symmetry_Int_Tables_number	1
_symmetry_cell_setting	triclinic
loop_
_symmetry_equiv_pos_as_xyz
  x,y,z
_cell_length_a	17.699104
_cell_length_b	16.776229
_cell_length_c	17.699083
_cell_angle_alpha	90.000273
_cell_angle_beta	83.287266
_cell_angle_gamma	89.995647
loop_
_atom_site_label
_atom_site_type_symbol
_atom_site_fract_x
_atom_site_fract_y
_atom_site_fract_z
O1	O	0.095709	-0.066178	1.004085
O2	O	0.429042	0.267155	1.337418
O3	O	0.762375	0.600489	1.670751
O4	O	0.108161	-0.066204	0.783707
O5	O	0.441494	0.267129	1.117040
O6	O	0.774828	0.600462	1.450374
O7	O	-0.008253	-0.066183	0.900114
O8	O	0.325080	0.267150	1.233447
O9	O	0.658413	0.600483	1.566780
O10	O	0.212123	-0.066199	0.887678
O11	O	0.545456	0.267134	1.221011
O12	O	0.878790	0.600468	1.554344
O13	O	-0.008254	0.066393	0.900101
O14	O	0.325080	0.399726	1.233434
O15	O	0.658413	0.733060	1.566767
O16	O	0.108161	0.066372	0.783694
O17	O	0.441494	0.399705	1.117027
O18	O	0.774827	0.733039	1.450361
O19	O	0.095708	0.066398	1.004071
O20	O	0.429042	0.399732	1.337405
O21	O	0.762375	0.733065	1.670738
Zn22	Zn	0.101934	0.087435	0.893881
Zn23	Zn	0.435268	0.420768	1.227214
Zn24	Zn	0.768601	0.754101	1.560547
Zn25	Zn	0.101935	-0.087241	0.893898
Zn26	Zn	0.435268	0.246093	1.227231
Zn27	Zn	0.768601	0.579426	1.560565
O28	O	0.212123	0.066377	0.887665
O29	O	0.545456	0.399711	1.220998
O30	O	0.878789	0.733044	1.554331
C31	C	-0.036450	0.000105	0.899659
C32	C	0.296883	0.333438	1.232992
C33	C	0.630216	0.666772	1.566326
C34	C	-0.120467	0.000105	0.898314
C35	C	0.212866	0.333438	1.231647
C36	C	0.546199	0.666772	1.564981
C37	C	0.107715	0.000081	0.755503
C38	C	0.441048	0.333414	1.088837
C39	C	0.774381	0.666747	1.422170
C40	C	0.106376	0.000071	0.671485
C41	C	0.439709	0.333404	1.004819
C42	C	0.773043	0.666737	1.338152
C43	C	-0.645338	0.000090	0.959058
C44	C	-0.312005	0.333423	1.292391
C45	C	0.021328	0.666756	1.625725
C46	C	-0.566395	0.000097	0.960317
C47	C	-0.233061	0.333430	1.293650
C48	C	0.100272	0.666764	1.626984
C49	C	-0.517777	0.000091	0.891982
C50	C	-0.184444	0.333424	1.225315
C51	C	0.148890	0.666757	1.558648
C52	C	-0.548107	0.000085	0.822383
C53	C	-0.214774	0.333418	1.155716
C54	C	0.118560	0.666752	1.489050
C55	C	-0.627049	0.000084	0.821125
C56	C	-0.293716	0.333417	1.154458
C57	C	0.039617	0.666750	1.487791
C58	C	-0.229741	0.000092	0.827456
C59	C	0.103592	0.333426	1.160789
C60	C	0.436926	0.666759	1.494123
C61	C	-0.150794	0.000092	0.828720
C62	C	0.182540	0.333425	1.162053
C63	C	0.515873	0.666758	1.495386
C64	C	-0.169086	0.000106	0.966648
C65	C	0.164247	0.333439	1.299982
C66	C	0.497580	0.666772	1.633315
C67	C	-0.248029	0.000104	0.965390
C68	C	0.085305	0.333438	1.298723
C69	C	0.418638	0.666771	1.632057
C70	C	-0.278352	0.000103	0.895792
C71	C	0.054982	0.333436	1.229125
C72	C	0.388315	0.666770	1.562458
C73	C	-0.363951	0.000097	0.894427
C74	C	-0.030618	0.333430	1.227761
C75	C	0.302715	0.666763	1.561094
C76	C	-0.432179	0.000091	0.893345
C77	C	-0.098845	0.333425	1.226679
C78	C	0.234488	0.666758	1.560012
N79	N	0.101934	0.206646	0.893874
N80	N	0.435267	0.539979	1.227208
N81	N	0.768600	0.873312	1.560541
C82	C	0.240319	0.000087	0.888120
C83	C	0.573653	0.333421	1.221453
C84	C	0.906986	0.666754	1.554786
C85	C	0.324337	0.000082	0.889464
C86	C	0.657670	0.333415	1.222798
C87	C	0.991003	0.666748	1.556131
N88	N	0.101930	-0.206452	0.893910
N89	N	0.435263	0.126881	1.227244
N90	N	0.768596	0.460215	1.560577
C91	C	0.147782	0.248362	0.939693
C92	C	0.481115	0.581695	1.273026
C93	C	0.814449	0.915028	1.606359
C94	C	0.147779	0.331814	0.939701
C95	C	0.481112	0.665147	1.273034
C96	C	0.814446	0.998481	1.606368
C97	C	0.101931	0.373549	0.893887
C98	C	0.435265	0.706882	1.227220
C99	C	0.768598	1.040215	1.560553
C100	C	0.056078	0.331827	0.848066
C101	C	0.389411	0.665160	1.181400
C102	C	0.722745	0.998494	1.514733
C103	C	0.056077	0.248376	0.848062
C104	C	0.389411	0.581710	1.181396
C105	C	0.722744	0.915043	1.514729
C106	C	0.056079	0.668374	0.848082
C107	C	0.389412	1.001707	1.181415
C108	C	0.722746	1.335041	1.514748
C109	C	0.056085	0.751831	0.848087
C110	C	0.389418	1.085164	1.181421
C111	C	0.722752	1.418497	1.514754
C112	C	0.147781	0.751812	0.939720
C113	C	0.481114	1.085145	1.273054
C114	C	0.814447	1.418479	1.606387
C115	C	0.147780	0.668361	0.939716
C116	C	0.481113	1.001695	1.273050
C117	C	0.814447	1.335028	1.606383
C118	C	0.101924	0.626647	0.893899
C119	C	0.435257	0.959980	1.227233
C120	C	0.768591	1.293313	1.560566
C121	C	0.101926	0.536158	0.893892
C122	C	0.435260	0.869492	1.227225
C123	C	0.768593	1.202825	1.560559
C124	C	0.101932	0.464036	0.893889
C125	C	0.435266	0.797369	1.227223
C126	C	0.768599	1.130702	1.560556
C127	C	0.174709	0.000066	0.622869
C128	C	0.508042	0.333399	0.956203
C129	C	0.841375	0.666733	1.289536
C130	C	0.173446	0.000076	0.543926
C131	C	0.506780	0.333410	0.877259
C132	C	0.840113	0.666743	1.210593
C133	C	0.103851	0.000086	0.513600
C134	C	0.437184	0.333419	0.846933
C135	C	0.770517	0.666752	1.180267
C136	C	0.035513	0.000093	0.562222
C137	C	0.368846	0.333426	0.895555
C138	C	0.702179	0.666759	1.228889
C139	C	0.036776	0.000088	0.641164
C140	C	0.370109	0.333421	0.974497
C141	C	0.703442	0.666755	1.307831
C142	C	0.030418	0.000113	0.243859
C143	C	0.363751	0.333446	0.577192
C144	C	0.697084	0.666780	0.910525
C145	C	0.029160	0.000115	0.164911
C146	C	0.362493	0.333449	0.498244
C147	C	0.695826	0.666782	0.831577
C148	C	0.167088	0.000101	0.146621
C149	C	0.500422	0.333435	0.479954
C150	C	0.833755	0.666768	0.813287
C151	C	0.168351	0.000097	0.225563
C152	C	0.501685	0.333430	0.558896
C153	C	0.835018	0.666763	0.892229
C154	C	0.100014	0.000108	0.274178
C155	C	0.433347	0.333441	0.607511
C156	C	0.766680	0.666774	0.940844
C157	C	0.101383	0.000098	0.359777
C158	C	0.434717	0.333431	0.693110
C159	C	0.768050	0.666765	1.026444
C160	C	0.102480	0.000090	0.428002
C161	C	0.435814	0.333423	0.761336
C162	C	0.769147	0.666757	1.094669
C163	C	0.096155	0.000112	1.032275
C164	C	0.429488	0.333445	1.365608
C165	C	0.762821	0.666778	1.698942
C166	C	0.097493	0.000116	1.116293
C167	C	0.430827	0.333450	1.449626
C168	C	0.764160	0.666783	1.782960
H169	H	-0.684918	0.000088	1.014705
H170	H	-0.351585	0.333422	1.348038
H171	H	-0.018251	0.666755	1.681371
H172	H	0.185117	0.785786	0.977029
H173	H	0.518450	1.119119	1.310362
H174	H	0.851784	1.452452	1.643695
H175	H	0.018744	0.365814	0.810767
H176	H	0.352078	0.699147	1.144100
H177	H	0.685411	1.032481	1.477434
H178	H	-0.111210	0.000088	0.773070
H179	H	0.222123	0.333421	1.106403
H180	H	0.555457	0.666755	1.439736
H181	H	0.185112	0.365775	0.977012
H182	H	0.518445	0.699109	1.310346
H183	H	0.851779	1.032442	1.643679
H184	H	-0.508516	0.000085	0.766743
H185	H	-0.175183	0.333418	1.100077
H186	H	0.158151	0.666751	1.433410
H187	H	0.018748	0.785809	0.810778
H188	H	0.352081	1.119142	1.144111
H189	H	0.685414	1.452475	1.477444
F190	F	-0.262003	0.000085	0.753383
F191	F	0.071331	0.333419	1.086717
F192	F	0.404664	0.666752	1.420050
F193	F	-0.136808	0.000111	1.040722
F194	F	0.196525	0.333444	1.374055
F195	F	0.529858	0.666777	1.707389
H196	H	0.231382	0.000058	0.647554
H197	H	0.564715	0.333391	0.980887
H198	H	0.898048	0.666725	1.314221
H199	H	0.185121	0.214387	0.976996
H200	H	0.518454	0.547721	1.310329
H201	H	0.851788	0.881054	1.643662
H202	H	-0.541708	0.000104	1.016987
H203	H	-0.208375	0.333438	1.350320
H204	H	0.124958	0.666771	1.683654
H205	H	0.229090	0.000072	0.504346
H206	H	0.562423	0.333405	0.837679
H207	H	0.895757	0.666738	1.171012
F208	F	-0.299767	0.000108	1.038122
F209	F	0.033566	0.333441	1.371455
F210	F	0.366899	0.666774	1.704788
F211	F	-0.659322	0.000079	0.747054
F212	F	-0.325989	0.333412	1.080387
F213	F	0.007344	0.666746	1.413720
H214	H	0.185117	0.634385	0.977020
H215	H	0.518450	0.967718	1.310354
H216	H	0.851783	1.301052	1.643687
H217	H	0.018740	0.634420	0.810775
H218	H	0.352073	0.967754	1.144108
H219	H	0.685406	1.301087	1.477442
F220	F	0.242424	0.000082	0.257833
F221	F	0.575758	0.333415	0.591166
F222	F	0.909091	0.666748	0.924500
H223	H	0.018743	0.214412	0.810752
H224	H	0.352077	0.547746	1.144085
H225	H	0.685410	0.881079	1.477419
H226	H	0.222732	0.000096	0.107028
H227	H	0.556065	0.333430	0.440362
H228	H	0.889399	0.666763	0.773695
H229	H	-0.027517	0.000124	0.140223
H230	H	0.305817	0.333457	0.473556
H231	H	0.639150	0.666791	0.806890
F232	F	-0.042314	0.000125	0.295589
F233	F	0.291020	0.333458	0.628922
F234	F	0.624353	0.666791	0.962255
F235	F	-0.038557	0.000108	0.529945
F236	F	0.294777	0.333441	0.863278
F237	F	0.628110	0.666775	1.196611
H238	H	-0.018868	0.000091	0.680747
H239	H	0.314465	0.333425	1.014080
H240	H	0.647799	0.666758	1.347414
