data_functionalizedCrystal
_audit_creation_method	'MofGen! by Chris Wilmer'
_symmetry_space_group_name_H-M	'P1'
_symmetry_Int_Tables_number	1
_symmetry_cell_setting	triclinic
loop_
_symmetry_equiv_pos_as_xyz
  x,y,z
_cell_length_a	6.817900
_cell_length_b	11.102244
_cell_length_c	14.125286
_cell_angle_alpha	94.649566
_cell_angle_beta	100.396688
_cell_angle_gamma	108.604870
loop_
_atom_site_label
_atom_site_type_symbol
_atom_site_fract_x
_atom_site_fract_y
_atom_site_fract_z
V1	V	-4.017300	-0.174857	-0.299988
O2	O	-3.978132	0.009412	-0.294280
O3	O	-3.994716	-0.347683	-0.297934
O4	O	-3.952986	-0.171724	-0.430824
O5	O	-4.020150	-0.167765	-0.160470
V6	V	-4.499645	-0.152869	-0.283301
O7	O	-4.281143	-0.223090	-0.336593
O8	O	-4.685999	-0.104635	-0.246696
O9	O	-4.299022	0.019958	-0.285355
O10	O	-4.656209	-0.337138	-0.289009
O11	O	-4.614191	-0.159961	-0.422819
O12	O	-4.340752	-0.156001	-0.152465
C13	C	-3.846512	-0.389829	-0.293201
C14	C	-3.909227	-0.531114	-0.292393
C15	C	-3.906194	-0.579638	-0.203908
C16	C	-3.965133	-0.712392	-0.203160
C17	C	-4.030130	-0.748088	-0.379392
C18	C	-3.971205	-0.615336	-0.380139
C19	C	-3.868660	-0.559030	-0.102161
C20	C	-3.927599	-0.691785	-0.101414
C21	C	-3.793280	-0.165374	-0.462714
C22	C	-3.822151	-0.163956	-0.569674
C23	C	-4.061305	-0.166532	-0.817796
C24	C	-3.875020	-0.161192	-0.765481
C25	C	-3.845604	-0.162730	-0.656524
C26	C	-4.090728	-0.164994	-0.926763
C27	C	-4.110569	0.062096	-0.290085
C28	C	-4.027091	0.203380	-0.290899
C29	C	-4.163801	-0.162356	-0.120569
C30	C	-4.114168	-0.163768	-0.013609
H31	H	-4.080597	-0.816678	-0.450831
H32	H	-4.198686	-0.172259	-0.780756
H33	H	-3.737626	-0.155463	-0.802523
H34	H	-3.973696	-0.575835	-0.452192
H35	H	-3.789068	-0.714944	-0.058467
Br36	Br	-3.577845	-0.471203	-0.043599
Br37	Br	-4.051504	-0.494048	-0.043526
Br38	Br	-4.179611	-0.758291	-0.054745
