data_functionalizedCrystal
_audit_creation_method	'MofGen! by Chris Wilmer'
_symmetry_space_group_name_H-M	'P1'
_symmetry_Int_Tables_number	1
_symmetry_cell_setting	triclinic
loop_
_symmetry_equiv_pos_as_xyz
  x,y,z
_cell_length_a	16.992694
_cell_length_b	10.540539
_cell_length_c	15.455313
_cell_angle_alpha	92.694186
_cell_angle_beta	87.142206
_cell_angle_gamma	87.596857
loop_
_atom_site_label
_atom_site_type_symbol
_atom_site_fract_x
_atom_site_fract_y
_atom_site_fract_z
O1	O	1.045302	0.264111	-0.072015
O2	O	1.545302	0.764111	0.427985
O3	O	0.817001	0.261155	-0.072041
O4	O	1.317001	0.761155	0.427959
O5	O	0.936360	0.078379	-0.072026
O6	O	1.436360	0.578379	0.427974
O7	O	0.925943	0.446887	-0.072030
O8	O	1.425943	0.946887	0.427970
O9	O	0.929534	0.088785	0.072235
O10	O	1.429534	0.588785	0.572235
O11	O	0.810175	0.271561	0.072220
O12	O	1.310175	0.771561	0.572220
O13	O	1.038476	0.274517	0.072246
O14	O	1.538476	0.774517	0.572246
Cu15	Cu	0.923702	0.273989	0.085405
Cu16	Cu	1.423702	0.773989	0.585405
Cu17	Cu	0.931774	0.261683	-0.085200
Cu18	Cu	1.431774	0.761683	0.414800
O19	O	0.919117	0.457293	0.072232
O20	O	1.419117	0.957293	0.572232
C21	C	0.784354	0.262557	0.000086
C22	C	1.284354	0.762557	0.500086
C23	C	0.697247	0.251216	0.000077
C24	C	1.197247	0.751216	0.500077
C25	C	0.647619	0.360636	0.000076
C26	C	1.147619	0.860636	0.500076
C27	C	0.565773	0.349973	0.000088
C28	C	1.065773	0.849973	0.500088
C29	C	0.533555	0.229889	0.000094
C30	C	1.033555	0.729889	0.500094
C31	C	0.583189	0.120461	0.000097
C32	C	1.083189	0.620461	0.500097
C33	C	0.665034	0.131125	0.000092
C34	C	1.165034	0.631125	0.500092
C35	C	0.289709	0.185692	0.000118
C36	C	0.789709	0.685692	0.500118
C37	C	0.207858	0.175036	0.000121
C38	C	0.707858	0.675036	0.500121
C39	C	0.190446	0.404549	0.000114
C40	C	0.690446	0.904549	0.500114
C41	C	0.272294	0.415202	0.000103
C42	C	0.772294	0.915202	0.500103
C43	C	0.321921	0.305774	0.000110
C44	C	0.821921	0.805774	0.500110
N45	N	0.449895	0.218988	0.000104
N46	N	0.949895	0.718988	0.500104
N47	N	0.405579	0.316677	0.000107
N48	N	0.905579	0.816677	0.500107
C49	C	0.932166	0.036211	0.000103
C50	C	1.432166	0.536211	0.500103
C51	C	0.929829	-0.104941	0.000098
C52	C	1.429829	0.395059	0.500098
C53	C	0.840284	-0.296163	-0.000236
C54	C	1.340284	0.203837	0.499764
C55	C	0.842638	-0.149316	0.000089
C56	C	1.342638	0.350684	0.500089
C57	C	0.967891	-0.157014	0.082483
C58	C	1.467891	0.342986	0.582483
C59	C	0.964912	-0.303812	0.082552
C60	C	1.464912	0.196188	0.582552
C61	C	0.974447	-0.316010	-0.081500
C62	C	1.474447	0.183990	0.418500
C63	C	0.975302	-0.169037	-0.082589
C64	C	1.475302	0.330963	0.417411
C65	C	1.071122	0.273115	0.000117
C66	C	1.571122	0.773115	0.500117
C67	C	1.158230	0.284456	0.000121
C68	C	1.658230	0.784456	0.500121
C69	C	0.923311	0.499461	0.000101
C70	C	1.423311	0.999461	0.500101
C71	C	0.925648	0.640612	0.000100
C72	C	1.425648	1.140612	0.500100
N73	N	0.918030	0.282645	0.205400
N74	N	1.418030	0.782645	0.705400
N75	N	0.937452	0.253018	-0.205195
N76	N	1.437452	0.753018	0.294805
C77	C	0.968756	0.205027	0.250801
C78	C	1.468756	0.705027	0.750801
C79	C	0.964474	0.211585	0.341608
C80	C	1.464474	0.711585	0.841608
C81	C	0.909469	0.295768	0.387013
C82	C	1.409469	0.795768	0.887013
C83	C	0.858738	0.373389	0.341607
C84	C	1.358738	0.873389	0.841607
C85	C	0.863017	0.366823	0.250801
C86	C	1.363017	0.866823	0.750801
C87	C	0.891000	0.324073	0.658593
C88	C	1.391000	0.824073	1.158593
C89	C	0.886727	0.330635	0.749405
C90	C	1.386727	0.830635	1.249405
C91	C	0.992462	0.168829	0.749400
C92	C	1.492462	0.668829	1.249400
C93	C	0.996739	0.162277	0.658592
C94	C	1.496739	0.662277	1.158592
C95	C	0.946005	0.239893	0.613193
C96	C	1.446005	0.739893	1.113193
N97	N	0.905093	0.302477	0.479833
N98	N	1.405093	0.802477	0.979833
N99	N	0.950379	0.233177	0.520375
N100	N	1.450379	0.733177	1.020375
H101	H	0.298519	0.512986	0.000088
H102	H	0.798519	1.012986	0.500088
H103	H	0.150032	0.493639	0.000110
H104	H	0.650032	0.993639	0.500110
H105	H	0.808637	-0.332013	-0.059316
H106	H	1.308637	0.167987	0.440684
Cl107	Cl	1.065889	0.056447	0.601511
Cl108	Cl	1.565889	0.556447	1.101511
Cl109	Cl	0.688113	0.511606	0.000063
Cl110	Cl	1.188113	1.011606	0.500063
H111	H	0.821710	0.430026	0.213837
H112	H	1.321710	0.930026	0.713837
Cl113	Cl	0.918412	-0.088329	0.177130
Cl114	Cl	1.418412	0.411671	0.677130
H115	H	1.031777	-0.128883	0.085553
H116	H	1.531777	0.371117	0.585553
Cl117	Cl	0.932750	-0.116074	-0.176701
Cl118	Cl	1.432750	0.383926	0.323299
H119	H	0.525368	0.439075	0.000087
H120	H	1.025368	0.939075	0.500087
Cl121	Cl	0.727424	-0.006437	0.000096
Cl122	Cl	1.227424	0.493563	0.500096
Cl123	Cl	1.037913	0.099197	0.193729
Cl124	Cl	1.537913	0.599197	0.693729
H125	H	1.005778	0.148382	0.378572
H126	H	1.505778	0.648382	0.878572
H127	H	0.181630	0.077244	0.000125
H128	H	0.681630	0.577244	0.500125
H129	H	0.330106	0.096587	0.000125
H130	H	0.830106	0.596587	0.500125
Cl131	Cl	0.935432	-0.375441	-0.177907
Cl132	Cl	1.435432	0.124559	0.322093
H133	H	1.033766	0.105637	0.786371
H134	H	1.533766	0.605637	1.286371
Cl135	Cl	0.542687	-0.030502	0.000111
Cl136	Cl	1.042687	0.469498	0.500111
H137	H	0.812416	-0.113837	-0.058968
H138	H	1.312416	0.386163	0.441032
H139	H	0.841933	0.399192	0.786370
H140	H	1.341933	0.899192	1.286370
Cl141	Cl	1.073812	-0.123674	-0.090265
Cl142	Cl	1.573812	0.376326	0.409735
Cl143	Cl	0.782894	-0.341430	0.090188
Cl144	Cl	1.282894	0.158570	0.590188
H145	H	0.813948	0.441928	0.378581
H146	H	1.313948	0.941928	0.878581
H147	H	0.806591	-0.106178	0.059237
H148	H	1.306591	0.393822	0.559237
Cl149	Cl	0.912532	-0.344652	0.177619
Cl150	Cl	1.412532	0.155348	0.677619
H151	H	1.027442	-0.346069	0.086296
H152	H	1.527442	0.153931	0.586296
Cl153	Cl	1.071719	-0.380549	-0.082348
Cl154	Cl	1.571719	0.119451	0.417652
H155	H	0.849692	0.387274	0.621636
H156	H	1.349692	0.887274	1.121636
