data_functionalizedCrystal
_audit_creation_method	'MofGen! by Chris Wilmer'
_symmetry_space_group_name_H-M	'P1'
_symmetry_Int_Tables_number	1
_symmetry_cell_setting	triclinic
loop_
_symmetry_equiv_pos_as_xyz
  x,y,z
_cell_length_a	12.594516
_cell_length_b	12.594517
_cell_length_c	10.686551
_cell_angle_alpha	85.615660
_cell_angle_beta	94.408120
_cell_angle_gamma	89.992835
loop_
_atom_site_label
_atom_site_type_symbol
_atom_site_fract_x
_atom_site_fract_y
_atom_site_fract_z
Zn1	Zn	-0.377707	-1.673462	0.713040
Zn2	Zn	-0.569384	-1.659696	0.502033
Zn3	Zn	-0.391396	-1.481805	0.502101
Zn4	Zn	-0.555625	-1.495455	0.713023
O5	O	-0.473528	-1.577604	0.607549
O6	O	-0.403162	-1.820580	0.685028
O7	O	-0.557261	-1.624625	0.325463
O8	O	-0.240632	-1.507278	0.530118
O9	O	-0.543987	-1.810466	0.530002
O10	O	-0.230574	-1.648087	0.685095
O11	O	-0.426493	-1.493929	0.325513
O12	O	-0.413152	-1.334671	0.530102
O13	O	-0.520537	-1.530541	0.889605
O14	O	-0.533810	-1.344700	0.685065
O15	O	-0.389821	-1.661322	0.889617
O16	O	-0.716507	-1.637860	0.529985
O17	O	-0.706398	-1.517193	0.684999
C18	C	-0.473474	-1.301066	0.607590
C19	C	-0.473475	-1.182764	0.607637
C20	C	-0.750071	-1.577544	0.607510
C21	C	-0.868375	-1.577619	0.607536
C22	C	-0.539248	-1.118985	0.691764
C23	C	-0.440188	-1.050183	0.722810
C24	C	-0.572607	-1.040766	0.576580
C25	C	-0.374360	-1.115523	0.638743
C26	C	-0.506848	-1.106109	0.492459
C27	C	-0.407724	-1.037336	0.523461
C28	C	-1.013842	-1.643389	0.523370
C29	C	-0.945153	-1.544253	0.492386
C30	C	-0.935496	-1.676740	0.638463
C31	C	-1.010469	-1.478543	0.576601
C32	C	-1.000814	-1.611099	0.722732
C33	C	-0.932155	-1.511899	0.691791
C34	C	-0.195903	-1.577695	0.607616
C35	C	-0.077595	-1.577734	0.607644
C36	C	-0.452117	-1.598990	0.936676
C37	C	-0.442993	-1.608103	1.076930
C38	C	-0.473571	-0.855224	0.607529
C39	C	-0.473562	-0.973532	0.607569
C40	C	-0.494779	-1.556363	0.279703
C41	C	-0.503603	-1.547456	0.139449
H42	H	-0.594751	-1.154666	0.762992
N43	N	-1.053827	-1.367534	0.541840
H44	H	-0.993018	-1.317216	0.526098
H45	H	-1.093895	-1.343423	0.613035
N46	N	-0.581572	-1.469435	1.068215
H47	H	-0.563548	-1.394863	1.091101
H48	H	-0.656131	-1.487490	1.091080
N49	N	-0.885120	-1.438200	0.786123
H50	H	-0.836634	-1.480056	0.851739
H51	H	-0.944358	-1.404468	0.828201
N52	N	-0.544242	-1.139013	0.363517
H53	H	-0.543260	-1.219249	0.364306
H54	H	-0.495364	-1.107951	0.299759
N55	N	-0.402840	-1.017298	0.851783
H56	H	-0.328478	-1.045693	0.875878
H57	H	-0.452608	-1.047142	0.915211
H58	H	-0.290530	-1.148170	0.665093
N59	N	-0.683604	-0.997358	0.541807
H60	H	-0.733188	-1.027219	0.605441
H61	H	-0.709194	-1.018655	0.455431
N62	N	-0.334016	-0.990339	0.429176
H63	H	-0.259222	-1.017738	0.452769
H64	H	-0.335006	-0.910154	0.429177
H65	H	-0.384122	-1.667005	1.130710
H66	H	-0.902633	-1.760516	0.664574
N67	N	-1.061124	-1.716902	0.428969
H68	H	-1.110626	-1.675144	0.364370
H69	H	-1.102230	-1.775107	0.473857
N70	N	-0.912430	-1.506790	0.363411
H71	H	-0.942286	-1.556472	0.299849
H72	H	-0.832168	-1.506351	0.364650
N73	N	-1.033601	-1.648594	0.851660
H74	H	-1.006335	-1.723478	0.874902
H75	H	-1.113839	-1.647613	0.850808
