data_functionalizedCrystal
_audit_creation_method	'MofGen! by Chris Wilmer'
_symmetry_space_group_name_H-M	'P1'
_symmetry_Int_Tables_number	1
_symmetry_cell_setting	triclinic
loop_
_symmetry_equiv_pos_as_xyz
  x,y,z
_cell_length_a	14.971486
_cell_length_b	14.519709
_cell_length_c	13.448316
_cell_angle_alpha	89.992453
_cell_angle_beta	89.998199
_cell_angle_gamma	83.647137
loop_
_atom_site_label
_atom_site_type_symbol
_atom_site_fract_x
_atom_site_fract_y
_atom_site_fract_z
O1	O	1.187015	0.120184	-0.082580
O2	O	1.687015	0.620184	0.417420
O3	O	0.926623	0.134576	-0.082607
O4	O	1.426623	0.634576	0.417393
O5	O	1.063723	-0.006863	-0.082584
O6	O	1.563723	0.493137	0.417416
O7	O	1.049915	0.261623	-0.082603
O8	O	1.549915	0.761623	0.417397
O9	O	1.063706	-0.006871	0.082800
O10	O	1.563706	0.493129	0.582800
O11	O	0.926606	0.134567	0.082777
O12	O	1.426606	0.634567	0.582777
O13	O	1.186998	0.120175	0.082804
O14	O	1.686998	0.620175	0.582804
Cu15	Cu	1.056800	0.127371	0.097891
Cu16	Cu	1.556800	0.627371	0.597891
Cu17	Cu	1.056820	0.127381	-0.097694
Cu18	Cu	1.556820	0.627381	0.402306
O19	O	1.049898	0.261614	0.082781
O20	O	1.549898	0.761614	0.582781
C21	C	0.893289	0.133928	0.000082
C22	C	1.393289	0.633928	0.500082
C23	C	0.793991	0.131999	0.000071
C24	C	1.293991	0.631999	0.500071
C25	C	1.063071	-0.041226	0.000108
C26	C	1.563071	0.458774	0.500108
C27	C	1.061142	-0.143606	0.000109
C28	C	1.561142	0.356394	0.500109
C29	C	0.736812	0.215091	0.000067
C30	C	1.236812	0.715091	0.500067
C31	C	0.643512	0.213273	0.000082
C32	C	1.143512	0.713273	0.500082
C33	C	0.607392	0.128363	0.000094
C34	C	1.107392	0.628363	0.500094
C35	C	0.664578	0.045265	0.000102
C36	C	1.164578	0.545265	0.500102
C37	C	0.757876	0.047084	0.000094
C38	C	1.257876	0.547084	0.500094
C39	C	0.470113	0.041480	0.000116
C40	C	0.970113	0.541480	0.500116
C41	C	0.376808	0.039661	0.000122
C42	C	0.876808	0.539661	0.500122
C43	C	0.355749	0.207669	0.000104
C44	C	0.855749	0.707669	0.500104
C45	C	0.449047	0.209488	0.000096
C46	C	0.949047	0.709488	0.500096
C47	C	0.506227	0.126390	0.000101
C48	C	1.006227	0.626390	0.500101
C49	C	1.054043	-0.518498	0.000082
C50	C	1.554043	-0.018498	0.500082
C51	C	1.056015	-0.414191	0.000090
C52	C	1.556015	0.085809	0.500090
C53	C	1.057593	-0.331055	0.000096
C54	C	1.557593	0.168945	0.500096
C55	C	1.059564	-0.226742	0.000102
C56	C	1.559564	0.273258	0.500102
C57	C	1.220331	0.120823	0.000113
C58	C	1.720331	0.620823	0.500113
C59	C	1.319630	0.122752	0.000117
C60	C	1.819630	0.622752	0.500117
C61	C	1.050550	0.295978	0.000087
C62	C	1.550550	0.795978	0.500087
C63	C	1.052478	0.398358	0.000080
C64	C	1.552478	0.898358	0.500080
N65	N	1.056792	0.127363	0.235456
N66	N	1.556792	0.627363	0.735456
N67	N	1.056835	0.127381	-0.235258
N68	N	1.556835	0.627381	0.264742
C69	C	1.117519	0.064759	0.287506
C70	C	1.617519	0.564759	0.787506
C71	C	1.117525	0.064759	0.391610
C72	C	1.617525	0.564759	0.891610
C73	C	1.056807	0.127366	0.443660
C74	C	1.556807	0.627366	0.943660
C75	C	0.996074	0.189973	0.391602
C76	C	1.496074	0.689973	0.891602
C77	C	0.996065	0.189968	0.287501
C78	C	1.496065	0.689968	0.787501
C79	C	0.996099	0.189979	0.608582
C80	C	1.496099	0.689979	1.108582
C81	C	0.996109	0.189985	0.712691
C82	C	1.496109	0.689985	1.212691
C83	C	1.117559	0.064769	0.712691
C84	C	1.617559	0.564769	1.212691
C85	C	1.117549	0.064765	0.608590
C86	C	1.617549	0.564765	1.108590
C87	C	1.056817	0.127373	0.556539
C88	C	1.556817	0.627373	1.056539
H89	H	0.766213	0.284234	0.000056
H90	H	1.266213	0.784234	0.500056
C91	C	1.184361	-0.004103	0.769945
C92	C	1.684361	0.495897	1.269945
C93	C	1.251157	-0.072967	0.712698
C94	C	1.751157	0.427033	1.212698
C95	C	1.317959	-0.141832	0.769959
C96	C	1.817959	0.358168	1.269959
C97	C	1.317967	-0.141833	0.884466
C98	C	1.817967	0.358167	1.384466
C99	C	1.251169	-0.072967	0.941719
C100	C	1.751169	0.427033	1.441719
C101	C	1.184366	-0.004102	0.884459
C102	C	1.684366	0.495898	1.384459
H103	H	1.251153	-0.072968	0.627927
H104	H	1.751153	0.427032	1.127927
H105	H	1.367407	-0.192811	0.727575
H106	H	1.867407	0.307189	1.227575
H107	H	1.367418	-0.192812	0.926854
H108	H	1.867418	0.307188	1.426854
H109	H	1.251172	-0.072966	1.026490
H110	H	1.751172	0.427034	1.526490
H111	H	1.134918	0.046877	0.926842
H112	H	1.634918	0.546877	1.426842
H113	H	0.946632	0.240946	0.433988
H114	H	1.446632	0.740946	0.933988
H115	H	1.166994	0.013790	0.566210
H116	H	1.666994	0.513790	1.066210
H117	H	0.478453	0.278629	0.000076
H118	H	0.978453	0.778629	0.500076
H119	H	1.166966	0.013781	0.245134
H120	H	1.666966	0.513781	0.745134
H121	H	0.946641	0.240958	0.566206
H122	H	1.446641	0.740958	1.066206
C123	C	0.820778	-0.044318	0.000095
C124	C	1.320778	0.455682	0.500095
C125	C	0.887816	-0.066173	0.085974
C126	C	1.387816	0.433827	0.585974
C127	C	0.950716	-0.157577	0.085981
C128	C	1.450716	0.342423	0.585981
C129	C	0.946579	-0.227126	0.000109
C130	C	1.446579	0.272874	0.500109
C131	C	0.879538	-0.205272	-0.085777
C132	C	1.379538	0.294728	0.414223
C133	C	0.816638	-0.113868	-0.085783
C134	C	1.316638	0.386132	0.414217
H135	H	0.890881	-0.014688	0.149548
H136	H	1.390881	0.485312	0.649548
H137	H	1.000344	-0.173755	0.149560
H138	H	1.500344	0.326245	0.649560
H139	H	0.993142	-0.294789	0.000114
H140	H	1.493142	0.205211	0.500114
H141	H	0.876473	-0.256758	-0.149350
H142	H	1.376473	0.243242	0.350650
H143	H	0.767010	-0.097691	-0.149362
H144	H	1.267010	0.402309	0.350638
C145	C	0.929312	0.258849	0.769944
C146	C	1.429312	0.758849	1.269944
C147	C	0.862503	0.327703	0.712687
C148	C	1.362503	0.827703	1.212687
C149	C	0.795705	0.396568	0.769937
C150	C	1.295705	0.896568	1.269937
C151	C	0.795714	0.396579	0.884445
C152	C	1.295714	0.896579	1.384445
C153	C	0.862525	0.327722	0.941708
C154	C	1.362525	0.827722	1.441708
C155	C	0.929324	0.258857	0.884458
C156	C	1.429324	0.758857	1.384458
H157	H	0.862494	0.327697	0.627916
H158	H	1.362494	0.827697	1.127916
H159	H	0.746247	0.447540	0.727547
H160	H	1.246247	0.947540	1.227547
H161	H	0.746265	0.447557	0.926825
H162	H	1.246265	0.947557	1.426825
H163	H	0.862534	0.327728	1.026479
H164	H	1.362534	0.827728	1.526479
H165	H	0.978782	0.207885	0.926848
H166	H	1.478782	0.707885	1.426848
H167	H	0.596960	0.280934	0.000077
H168	H	1.096960	0.780934	0.500077
C169	C	0.292853	0.299078	0.000107
C170	C	0.792853	0.799078	0.500107
C171	C	0.297000	0.368628	0.085976
C172	C	0.797000	0.868628	0.585976
C173	C	0.234100	0.460032	0.085975
C174	C	0.734100	0.960032	0.585975
C175	C	0.167051	0.481886	0.000106
C176	C	0.667051	0.981886	0.500106
C177	C	0.162901	0.412334	-0.085770
C178	C	0.662901	0.912334	0.414230
C179	C	0.225802	0.320930	-0.085769
C180	C	0.725802	0.820930	0.414231
H181	H	0.346636	0.352452	0.149548
H182	H	0.846636	0.852452	0.649548
H183	H	0.237172	0.511519	0.149547
H184	H	0.737172	1.011519	0.649547
H185	H	0.120488	0.549548	0.000105
H186	H	0.620488	1.049548	0.500105
H187	H	0.113265	0.428510	-0.149341
H188	H	0.613265	0.928510	0.350659
H189	H	0.222729	0.269443	-0.149340
H190	H	0.722729	0.769443	0.350660
H191	H	0.347403	-0.029481	0.000133
H192	H	0.847403	0.470519	0.500133
H193	H	0.946614	0.240945	0.245122
H194	H	1.446614	0.740945	0.745122
C195	C	0.533014	-0.049927	0.000120
C196	C	1.033014	0.450073	0.500120
C197	C	0.528882	-0.119487	0.086002
C198	C	1.028882	0.380513	0.586002
C199	C	0.591783	-0.210890	0.086001
C200	C	1.091783	0.289110	0.586001
C201	C	0.658818	-0.232734	0.000118
C202	C	1.158818	0.267266	0.500118
C203	C	0.662953	-0.163172	-0.085771
C204	C	1.162953	0.336828	0.414229
C205	C	0.600051	-0.071768	-0.085770
C206	C	1.100051	0.428232	0.414230
H207	H	0.479256	-0.103319	0.149584
H208	H	0.979256	0.396681	0.649584
H209	H	0.588722	-0.262385	0.149582
H210	H	1.088722	0.237615	0.649582
H211	H	0.705382	-0.300396	0.000117
H212	H	1.205382	0.199604	0.500117
H213	H	0.712578	-0.179340	-0.149353
H214	H	1.212578	0.320660	0.350647
H215	H	0.603113	-0.020274	-0.149351
H216	H	1.103113	0.479726	0.350649
H217	H	0.635162	-0.023871	0.000126
H218	H	1.135162	0.476129	0.500126
H219	H	1.166972	0.013782	0.433989
H220	H	1.666972	0.513782	0.933989
