data_functionalizedCrystal
_audit_creation_method	'MofGen! by Chris Wilmer'
_symmetry_space_group_name_H-M	'P1'
_symmetry_Int_Tables_number	1
_symmetry_cell_setting	triclinic
loop_
_symmetry_equiv_pos_as_xyz
  x,y,z
_cell_length_a	19.188930
_cell_length_b	10.967961
_cell_length_c	9.482900
_cell_angle_alpha	87.495787
_cell_angle_beta	80.728812
_cell_angle_gamma	83.942486
loop_
_atom_site_label
_atom_site_type_symbol
_atom_site_fract_x
_atom_site_fract_y
_atom_site_fract_z
O1	O	0.940913	0.130797	-0.154132
O2	O	1.440913	0.630797	0.345868
O3	O	0.738180	0.150965	-0.159084
O4	O	1.238180	0.650965	0.340916
O5	O	0.840328	-0.033702	-0.112869
O6	O	1.340328	0.466298	0.387131
O7	O	0.838765	0.315464	-0.200346
O8	O	1.338765	0.815464	0.299654
O9	O	0.819583	0.003958	0.119498
O10	O	1.319583	0.503958	0.619498
O11	O	0.717436	0.188625	0.073284
O12	O	1.217436	0.688625	0.573284
O13	O	0.920168	0.168457	0.078236
O14	O	1.420168	0.668457	0.578236
Cu15	Cu	0.816908	0.181979	0.096977
Cu16	Cu	1.316908	0.681979	0.596977
Cu17	Cu	0.841441	0.137442	-0.177825
Cu18	Cu	1.341441	0.637442	0.322175
O19	O	0.818021	0.353124	0.032021
O20	O	1.318021	0.853124	0.532021
C21	C	0.701777	0.169144	-0.042724
C22	C	1.201777	0.669144	0.457276
C23	C	0.624212	0.167191	-0.042197
C24	C	1.124212	0.667191	0.457803
C25	C	0.828274	-0.059544	0.014504
C26	C	1.328274	0.440456	0.514504
C27	C	0.823257	-0.192651	0.047845
C28	C	1.323257	0.307349	0.547845
C29	C	0.826583	-0.409076	-0.023203
C30	C	1.326583	0.090924	0.476797
C31	C	0.831768	-0.271504	-0.057673
C32	C	1.331768	0.228496	0.442327
C33	C	0.582446	0.275539	-0.069364
C34	C	1.082446	0.775539	0.430636
C35	C	0.509570	0.273696	-0.068919
C36	C	1.009570	0.773696	0.431081
C37	C	0.478465	0.163494	-0.041332
C38	C	0.978465	0.663494	0.458668
C39	C	0.520240	0.055133	-0.014153
C40	C	1.020240	0.555133	0.485847
C41	C	0.593113	0.056981	-0.014585
C42	C	1.093113	0.556981	0.485415
N43	N	0.375097	0.066435	-0.099370
N44	N	0.875097	0.566435	0.400630
N45	N	0.305870	0.064686	-0.098964
N46	N	0.805870	0.564686	0.401036
C47	C	0.258902	0.157919	-0.040024
C48	C	0.758902	0.657919	0.459976
N49	N	0.283777	0.252983	0.018472
N50	N	0.783777	0.752983	0.518472
N51	N	0.353011	0.254735	0.018059
N52	N	0.853011	0.754735	0.518059
C53	C	0.399447	0.161478	-0.040859
C54	C	0.899447	0.661478	0.459141
C55	C	0.138116	0.264277	-0.066708
C56	C	0.638116	0.764277	0.433292
C57	C	0.065238	0.262431	-0.066253
C58	C	0.565238	0.762431	0.433747
C59	C	0.075910	0.043862	-0.011500
C60	C	0.575910	0.543862	0.488500
C61	C	0.148785	0.045714	-0.011942
C62	C	0.648785	0.545714	0.488058
C63	C	0.179884	0.155923	-0.039554
C64	C	0.679884	0.655923	0.460446
C65	C	0.956572	0.150277	-0.038127
C66	C	1.456572	0.650277	0.461873
C67	C	1.034138	0.152228	-0.038663
C68	C	1.534138	0.652228	0.461337
C69	C	0.830074	0.378965	-0.095355
C70	C	1.330074	0.878965	0.404645
C71	C	0.835093	0.512070	-0.128706
C72	C	1.335093	1.012070	0.371294
N73	N	0.799658	0.213304	0.290258
N74	N	1.299658	0.713304	0.790258
N75	N	0.858696	0.106108	-0.371103
N76	N	1.358696	0.606108	0.128897
C77	C	0.836348	0.146675	0.379132
C78	C	1.336348	0.646675	0.879132
C79	C	0.822001	0.172747	0.540024
C80	C	1.322001	0.672747	1.040024
H81	H	0.842886	-0.237170	-0.173524
H82	H	1.342886	0.262830	0.326476
O83	O	0.766325	0.273899	0.596973
O84	O	1.266325	0.773899	1.096973
H85	H	0.725010	0.234515	0.676237
H86	H	1.225010	0.734515	1.176237
H87	H	0.900729	0.029753	0.585881
H88	H	1.400729	0.529753	1.085881
O89	O	0.464517	0.390568	-0.098229
O90	O	0.964517	0.890568	0.401771
H91	H	0.422588	0.410316	-0.004630
H92	H	0.922588	0.910316	0.495370
O93	O	0.811853	-0.454562	0.130246
O94	O	1.311853	0.045438	0.630246
H95	H	0.760066	-0.409851	0.182313
H96	H	1.260066	0.090149	0.682313
H97	H	0.812127	-0.226981	0.163697
H98	H	1.312127	0.273019	0.663697
H99	H	0.757623	0.289645	0.333283
H100	H	1.257623	0.789645	0.833283
O101	O	0.486698	-0.063732	0.015602
O102	O	0.986698	0.436268	0.515602
H103	H	0.429008	-0.046818	0.011325
H104	H	0.929008	0.453182	0.511325
H105	H	0.846211	-0.453590	-0.244549
H106	H	1.346211	0.046410	0.255451
H107	H	0.607762	0.365280	-0.091851
H108	H	1.107762	0.865280	0.408149
H109	H	0.627119	-0.031252	0.007538
H110	H	1.127119	0.468748	0.507538
H111	H	0.163436	0.354020	-0.089171
H112	H	0.663436	0.854020	0.410829
O113	O	0.892015	0.045533	0.322135
O114	O	1.392015	0.545533	0.822135
H115	H	0.944414	0.064793	0.346374
H116	H	1.444414	0.564793	0.846374
H117	H	0.031232	0.350666	-0.088369
H118	H	0.531232	0.850666	0.411631
O119	O	0.042374	-0.075005	0.018255
O120	O	0.542374	0.424995	0.518255
H121	H	-0.015317	-0.058091	0.013986
H122	H	0.484683	0.441909	0.513986
O123	O	0.193841	-0.071150	0.017348
O124	O	0.693841	0.428850	0.517348
H125	H	0.159972	-0.148094	0.036598
H126	H	0.659972	0.351906	0.536598
