data_functionalizedCrystal
_audit_creation_method	'MofGen! by Chris Wilmer'
_symmetry_space_group_name_H-M	'P1'
_symmetry_Int_Tables_number	1
_symmetry_cell_setting	triclinic
loop_
_symmetry_equiv_pos_as_xyz
  x,y,z
_cell_length_a	19.188929
_cell_length_b	17.019282
_cell_length_c	15.500346
_cell_angle_alpha	89.308724
_cell_angle_beta	86.799823
_cell_angle_gamma	96.731347
loop_
_atom_site_label
_atom_site_type_symbol
_atom_site_fract_x
_atom_site_fract_y
_atom_site_fract_z
O1	O	-0.088663	1.046103	-0.005978
O2	O	0.244671	1.379436	0.327355
O3	O	0.578004	1.712770	0.660688
O4	O	-0.100699	0.817172	0.011091
O5	O	0.232634	1.150506	0.344424
O6	O	0.565968	1.483839	0.677757
O7	O	0.006986	0.938242	0.002010
O8	O	0.340319	1.271575	0.335344
O9	O	0.673652	1.604908	0.668677
O10	O	-0.196347	0.925034	0.003102
O11	O	0.136986	1.258367	0.336435
O12	O	0.470319	1.591700	0.669769
O13	O	0.012726	0.931730	-0.141393
O14	O	0.346059	1.265063	0.191940
O15	O	0.679393	1.598396	0.525273
O16	O	-0.094959	0.810660	-0.132313
O17	O	0.238375	1.143994	0.201020
O18	O	0.571708	1.477327	0.534354
O19	O	-0.082922	1.039591	-0.149382
O20	O	0.250411	1.372924	0.183951
O21	O	0.583744	1.706258	0.517285
Cu22	Cu	-0.088416	0.924531	-0.153942
Cu23	Cu	0.244917	1.257864	0.179392
Cu24	Cu	0.578250	1.591198	0.512725
Cu25	Cu	-0.095205	0.932232	0.015650
Cu26	Cu	0.238128	1.265566	0.348984
Cu27	Cu	0.571462	1.598899	0.682317
O28	O	-0.190607	0.918522	-0.140302
O29	O	0.142726	1.251855	0.193032
O30	O	0.476060	1.585188	0.526365
C31	C	-0.097488	0.784628	-0.058428
C32	C	0.235846	1.117961	0.274905
C33	C	0.569179	1.451294	0.608238
C34	C	-0.096462	0.697357	-0.051924
C35	C	0.236871	1.030690	0.281409
C36	C	0.570205	1.364023	0.614742
C37	C	-0.092849	0.652812	-0.127040
C38	C	0.240484	0.986145	0.206293
C39	C	0.573817	1.319478	0.539627
C40	C	-0.091874	0.570813	-0.120931
C41	C	0.241459	0.904146	0.212402
C42	C	0.574792	1.237479	0.545735
C43	C	-0.094517	0.533360	-0.039706
C44	C	0.238816	0.866693	0.293628
C45	C	0.572150	1.200026	0.626961
C46	C	-0.098128	0.577911	0.035416
C47	C	0.235205	0.911244	0.368749
C48	C	0.568539	1.244578	0.702082
C49	C	-0.099098	0.659909	0.029306
C50	C	0.234235	0.993243	0.362639
C51	C	0.567569	1.326576	0.695973
C52	C	-0.091741	0.285957	-0.017348
C53	C	0.241593	0.619290	0.315986
C54	C	0.574926	0.952623	0.649319
C55	C	-0.090773	0.203952	-0.011244
C56	C	0.242561	0.537286	0.322090
C57	C	0.575894	0.870619	0.655423
C58	C	-0.084518	0.196860	-0.167591
C59	C	0.248816	0.530193	0.165742
C60	C	0.582149	0.863526	0.499075
C61	C	-0.085492	0.278859	-0.173694
C62	C	0.247841	0.612192	0.159639
C63	C	0.581175	0.945526	0.492973
C64	C	-0.089099	0.323404	-0.098573
C65	C	0.244234	0.656737	0.234761
C66	C	0.577568	0.990070	0.568094
C67	C	-0.093523	0.449543	-0.033460
C68	C	0.239810	0.782877	0.299874
C69	C	0.573144	1.116210	0.633207
C70	C	-0.090088	0.407219	-0.104820
C71	C	0.243245	0.740553	0.228514
C72	C	0.576578	1.073886	0.561847
C73	C	-0.219488	0.922206	-0.068618
C74	C	0.113845	1.255540	0.264715
C75	C	0.447178	1.588873	0.598049
C76	C	-0.296993	0.923492	-0.068673
C77	C	0.036341	1.256826	0.264661
C78	C	0.369674	1.590159	0.597994
C79	C	-0.342010	0.852451	-0.063393
C80	C	-0.008676	1.185784	0.269940
C81	C	0.324657	1.519117	0.603273
C82	C	-0.414831	0.853657	-0.063503
C83	C	-0.081498	1.186990	0.269831
C84	C	0.251835	1.520323	0.603164
C85	C	-0.442632	0.925907	-0.068909
C86	C	-0.109298	1.259241	0.264424
C87	C	0.224035	1.592574	0.597757
C88	C	-0.397605	0.996959	-0.074184
C89	C	-0.064272	1.330292	0.259149
C90	C	0.269062	1.663625	0.592482
C91	C	-0.324786	0.995751	-0.074066
C92	C	0.008548	1.329085	0.259267
C93	C	0.341881	1.662418	0.592600
N94	N	-0.548571	0.978916	-0.121885
N95	N	-0.215238	1.312249	0.211449
N96	N	0.118095	1.645583	0.544782
N97	N	-0.617747	0.980058	-0.121999
N98	N	-0.284414	1.313391	0.211335
N99	N	0.048919	1.646725	0.544668
C100	C	-0.662032	0.929550	-0.069264
C101	C	-0.328699	1.262883	0.264069
C102	C	0.004635	1.596216	0.597403
N103	N	-0.634529	0.877844	-0.016421
N104	N	-0.301195	1.211177	0.316912
N105	N	0.032138	1.544510	0.650246
N106	N	-0.565346	0.876699	-0.016311
N107	N	-0.232013	1.210033	0.317022
N108	N	0.101320	1.543366	0.650356
C109	C	-0.521591	0.927225	-0.069037
C110	C	-0.188258	1.260558	0.264296
C111	C	0.145075	1.593891	0.597629
C112	C	-0.786011	0.859811	-0.064102
C113	C	-0.452678	1.193144	0.269232
C114	C	-0.119344	1.526477	0.602565
C115	C	-0.858834	0.861020	-0.064206
C116	C	-0.525500	1.194353	0.269127
C117	C	-0.192167	1.527686	0.602461
C118	C	-0.841605	1.004324	-0.074896
C119	C	-0.508272	1.337657	0.258437
C120	C	-0.174939	1.670990	0.591770
C121	C	-0.768785	1.003113	-0.074783
C122	C	-0.435451	1.336446	0.258550
C123	C	-0.102118	1.669779	0.591883
C124	C	-0.740992	0.930854	-0.069390
C125	C	-0.407659	1.264187	0.263943
C126	C	-0.074325	1.597521	0.597277
C127	C	0.035867	0.934557	-0.069671
C128	C	0.369200	1.267891	0.263662
C129	C	0.702533	1.601224	0.596995
C130	C	0.113371	0.933271	-0.069611
C131	C	0.446704	1.266605	0.263722
C132	C	0.780038	1.599938	0.597056
C133	C	-0.086134	1.072136	-0.079861
C134	C	0.247199	1.405469	0.253472
C135	C	0.580533	1.738803	0.586806
C136	C	-0.087160	1.159407	-0.086360
C137	C	0.246173	1.492740	0.246974
C138	C	0.579507	1.826074	0.580307
N139	N	-0.083641	0.919120	-0.273224
N140	N	0.249692	1.252454	0.060110
N141	N	0.583025	1.585787	0.393443
C142	C	-0.059614	0.892162	-0.816405
C143	C	0.273720	1.225495	-0.483072
C144	C	0.607053	1.558828	-0.149738
C145	C	-0.063252	0.896249	-0.726137
C146	C	0.270081	1.229582	-0.392803
C147	C	0.603415	1.562915	-0.059470
C148	C	-0.107256	0.945820	-0.684532
C149	C	0.226078	1.279153	-0.351199
C150	C	0.559411	1.612486	-0.017866
C151	C	-0.147618	0.991312	-0.733202
C152	C	0.185715	1.324646	-0.399869
C153	C	0.519048	1.657979	-0.066535
C154	C	-0.143976	0.987229	-0.823469
C155	C	0.189358	1.320562	-0.490136
C156	C	0.522691	1.653896	-0.156803
C157	C	-0.120361	0.960530	-0.412161
C158	C	0.212972	1.293863	-0.078827
C159	C	0.546306	1.627197	0.254506
C160	C	-0.124002	0.964608	-0.321887
C161	C	0.209331	1.297941	0.011447
C162	C	0.542664	1.631275	0.344780
C163	C	-0.039635	0.869545	-0.314827
C164	C	0.293699	1.202878	0.018506
C165	C	0.627032	1.536212	0.351839
C166	C	-0.035999	0.865462	-0.405096
C167	C	0.297334	1.198796	-0.071763
C168	C	0.630668	1.532129	0.261570
C169	C	-0.076359	0.910958	-0.453758
C170	C	0.256974	1.244292	-0.120425
C171	C	0.590308	1.577625	0.212908
C172	C	-0.110978	0.949996	-0.592263
C173	C	0.222356	1.283330	-0.258930
C174	C	0.555689	1.616663	0.074403
C175	C	-0.072633	0.906785	-0.546026
C176	C	0.260700	1.240119	-0.212693
C177	C	0.594034	1.573452	0.120641
N178	N	-0.099975	0.937649	0.134932
N179	N	0.233359	1.270983	0.468265
N180	N	0.566692	1.604316	0.801599
H181	H	-0.087933	0.437717	-0.170953
H182	H	0.245400	0.771051	0.162380
H183	H	0.578734	1.104384	0.495714
H184	H	-0.083337	0.309348	-0.239836
H185	H	0.249997	0.642681	0.093497
H186	H	0.583330	0.976014	0.426830
H187	H	-0.319386	0.793612	-0.058994
H188	H	0.013947	1.126946	0.274339
H189	H	0.347280	1.460279	0.607673
H190	H	-0.732130	1.060963	-0.079088
H191	H	-0.398797	1.394296	0.254245
H192	H	-0.065464	1.727629	0.587579
O193	O	-0.095635	0.333996	0.063672
O194	O	0.237698	0.667329	0.397006
O195	O	0.571031	1.000662	0.730339
H196	H	-0.144541	0.312789	0.102884
H197	H	0.188792	0.646122	0.436217
H198	H	0.522126	0.979455	0.769551
O199	O	-0.907386	0.784387	-0.058514
O200	O	-0.574053	1.117720	0.274819
O201	O	-0.240720	1.451054	0.608152
H202	H	-0.943344	0.784152	0.000143
H203	H	-0.610011	1.117485	0.333476
H204	H	-0.276677	1.450818	0.666810
O205	O	-0.100981	0.537521	0.123027
O206	O	0.232352	0.870855	0.456360
O207	O	0.565685	1.204188	0.789693
H208	H	-0.099709	0.473017	0.114658
H209	H	0.233625	0.806351	0.447991
H210	H	0.566958	1.139684	0.781324
H211	H	-0.102041	0.696177	0.090474
H212	H	0.231292	1.029510	0.423807
H213	H	0.564626	1.362844	0.757140
H214	H	-0.006776	0.832506	-0.275197
H215	H	0.326558	1.165839	0.058136
H216	H	0.659891	1.499172	0.391469
H217	H	-0.183444	1.031678	-0.699321
H218	H	0.149890	1.365011	-0.365988
H219	H	0.483223	1.698345	-0.032654
H220	H	-0.451491	0.795804	-0.059205
H221	H	-0.118158	1.129137	0.274128
H222	H	0.215176	1.462471	0.607461
O223	O	-0.427583	1.074889	-0.080018
O224	O	-0.094249	1.408222	0.253315
O225	O	0.239084	1.741556	0.586648
H226	H	-0.485782	1.063794	-0.079223
H227	H	-0.152449	1.397127	0.254110
H228	H	0.180885	1.730461	0.587444
O229	O	-0.276223	1.072377	-0.079774
O230	O	0.057110	1.405710	0.253559
O231	O	0.390443	1.739043	0.586892
H232	H	-0.307785	1.122822	-0.083558
H233	H	0.025548	1.456155	0.249775
H234	H	0.358882	1.789489	0.583109
O235	O	-0.756026	0.781881	-0.058270
O236	O	-0.422693	1.115214	0.275063
O237	O	-0.089359	1.448547	0.608396
H238	H	-0.799568	0.732682	-0.054602
H239	H	-0.466234	1.066015	0.278731
H240	H	-0.132901	1.399349	0.612065
O241	O	-0.012139	0.838711	-0.861279
O242	O	0.321195	1.172045	-0.527946
O243	O	0.654528	1.505378	-0.194612
H244	H	0.015325	0.807780	-0.812272
H245	H	0.348659	1.141113	-0.478939
H246	H	0.681992	1.474446	-0.145605
H247	H	-0.095674	0.419040	0.032675
H248	H	0.237659	0.752373	0.366008
H249	H	0.570992	1.085707	0.699341
H250	H	-0.092927	0.173461	0.054903
H251	H	0.240406	0.506794	0.388237
H252	H	0.573740	0.840127	0.721570
O253	O	-0.019726	0.847182	-0.673646
O254	O	0.313608	1.180515	-0.340313
O255	O	0.646941	1.513849	-0.006979
H256	H	0.011476	0.812017	-0.717740
H257	H	0.344810	1.145351	-0.384407
H258	H	0.678143	1.478684	-0.051074
H259	H	-0.864242	1.063154	-0.079236
H260	H	-0.530909	1.396488	0.254098
H261	H	-0.197576	1.729821	0.587431
H262	H	-0.000166	0.825098	-0.438964
H263	H	0.333168	1.158431	-0.105631
H264	H	0.666501	1.491765	0.227702
H265	H	-0.159840	1.004973	-0.288015
H266	H	0.173493	1.338306	0.045318
H267	H	0.506826	1.671639	0.378651
H268	H	-0.146806	0.990356	-0.558379
H269	H	0.186527	1.323690	-0.225046
H270	H	0.519860	1.657023	0.108288
H271	H	-0.081580	0.160583	-0.228751
H272	H	0.251754	0.493916	0.104583
H273	H	0.585087	0.827249	0.437916
H274	H	-0.153226	0.997576	-0.451771
H275	H	0.180108	1.330909	-0.118437
H276	H	0.513441	1.664242	0.214896
O277	O	-0.187510	1.036286	-0.875963
O278	O	0.145823	1.369620	-0.542629
O279	O	0.479156	1.702953	-0.209296
H280	H	-0.218726	1.071436	-0.831869
H281	H	0.114607	1.404770	-0.498536
H282	H	0.447940	1.738103	-0.165202
H283	H	-0.036803	0.866428	-0.579904
H284	H	0.296530	1.199761	-0.246571
H285	H	0.629864	1.533094	0.086762
H286	H	-0.090703	0.683299	-0.193183
H287	H	0.242630	1.016632	0.140151
H288	H	0.575964	1.349965	0.473484
H289	H	-0.088921	0.534549	-0.182099
H290	H	0.244413	0.867882	0.151235
H291	H	0.577746	1.201216	0.484568
