data_functionalizedCrystal
_audit_creation_method	'MofGen! by Chris Wilmer'
_symmetry_space_group_name_H-M	'P1'
_symmetry_Int_Tables_number	1
_symmetry_cell_setting	triclinic
loop_
_symmetry_equiv_pos_as_xyz
  x,y,z
_cell_length_a	18.050588
_cell_length_b	18.215407
_cell_length_c	18.215399
_cell_angle_alpha	89.982632
_cell_angle_beta	89.973451
_cell_angle_gamma	90.027004
loop_
_atom_site_label
_atom_site_type_symbol
_atom_site_fract_x
_atom_site_fract_y
_atom_site_fract_z
Zn1	Zn	-0.295718	1.125048	-0.416075
Zn2	Zn	-0.419913	1.124946	-0.293011
Zn3	Zn	-0.295736	1.001981	-0.293027
Zn4	Zn	-0.419865	1.001936	-0.416042
O5	O	-0.357808	1.063478	-0.354539
O6	O	-0.312205	1.228019	-0.399757
O7	O	-0.403468	1.108611	-0.190029
O8	O	-0.191809	1.018367	-0.309370
O9	O	-0.403451	1.227944	-0.309343
O10	O	-0.191796	1.108784	-0.399773
O11	O	-0.312235	1.018268	-0.190041
O12	O	-0.312189	0.898990	-0.309338
O13	O	-0.403369	1.018291	-0.519030
O14	O	-0.403386	0.898958	-0.399716
O15	O	-0.312159	1.108741	-0.519055
O16	O	-0.523831	1.108568	-0.309311
O17	O	-0.523796	1.018193	-0.399701
C18	C	-0.357785	0.872272	-0.354526
C19	C	-0.357793	0.790473	-0.354538
C20	C	-0.310379	0.602317	-0.401691
C21	C	-0.310386	0.525458	-0.401693
C22	C	-0.405257	0.525391	-0.307400
C23	C	-0.405246	0.602248	-0.307394
C24	C	-0.357809	0.640709	-0.354544
C25	C	-0.357826	0.486993	-0.354552
C26	C	-0.357833	0.403659	-0.354554
C27	C	-0.357800	0.724048	-0.354541
C28	C	-0.550760	1.063385	-0.354517
C29	C	-0.633306	1.063412	-0.354532
C30	C	-0.882139	1.014343	-0.403686
C31	C	-0.832672	1.081449	-0.421743
C32	C	-0.930426	1.063565	-0.354573
C33	C	-0.832812	0.996388	-0.336531
C34	C	-0.784441	1.063486	-0.354554
C35	C	-0.882046	1.130706	-0.372664
C36	C	-0.882190	1.045600	-0.287421
C37	C	-0.832745	1.112751	-0.305452
C38	C	-1.014524	1.063609	-0.354585
C39	C	-0.700344	1.063449	-0.354542
C40	C	-0.164102	1.063592	-0.354577
C41	C	-0.081556	1.063640	-0.354593
C42	C	-0.357757	1.063523	-0.546492
C43	C	-0.357735	1.063542	-0.628291
C44	C	-0.357831	1.255431	-0.354552
C45	C	-0.357841	1.337230	-0.354558
C46	C	-0.310197	1.110656	-0.816498
C47	C	-0.310175	1.110665	-0.893357
C48	C	-0.405158	1.016480	-0.893321
C49	C	-0.405175	1.016468	-0.816463
C50	C	-0.357696	1.063560	-0.778054
C51	C	-0.357657	1.063581	-0.931770
C52	C	-0.357634	1.063590	-1.015104
C53	C	-0.357718	1.063550	-0.694715
C54	C	-0.357805	1.063476	-0.163332
C55	C	-0.357618	1.063599	-0.081534
H56	H	-0.271763	0.494202	-0.440084
H57	H	-0.443853	0.978112	-0.785161
O58	O	-0.264227	0.639564	-0.447510
C59	C	-0.170160	0.631515	-0.541068
C60	C	-0.222379	0.589244	-0.489202
H61	H	-0.136323	0.590849	-0.574800
H62	H	-0.131231	0.667479	-0.507380
H63	H	-0.204312	0.667519	-0.579457
H64	H	-0.188287	0.553200	-0.450802
H65	H	-0.261311	0.553326	-0.522935
H66	H	-0.271496	1.149013	-0.924655
O67	O	-0.451256	0.970810	-0.930747
C68	C	-0.493294	0.929055	-1.049133
C69	C	-0.441060	0.980826	-1.006842
H70	H	-0.485058	0.937124	-1.110664
H71	H	-0.553199	0.941944	-1.034063
H72	H	-0.480258	0.869727	-1.033972
H73	H	-0.454029	1.040171	-1.021981
H74	H	-0.381172	0.967874	-1.021916
O75	O	-0.908129	1.027357	-0.219724
C76	C	-0.912484	0.935956	-0.124156
C77	C	-0.883071	0.956527	-0.200835
H78	H	-0.892223	0.878695	-0.108853
H79	H	-0.975635	0.936647	-0.124673
H80	H	-0.891325	0.977330	-0.082150
H81	H	-0.904175	0.915173	-0.242884
H82	H	-0.819920	0.955859	-0.200257
H83	H	-0.443880	0.494067	-0.269013
O84	O	-0.807063	1.162523	-0.255977
C85	C	-0.803182	1.289494	-0.219085
C86	C	-0.832304	1.233207	-0.275172
H87	H	-0.823590	1.346653	-0.234576
H88	H	-0.740028	1.288822	-0.219099
H89	H	-0.824410	1.274663	-0.162020
H90	H	-0.811130	1.247999	-0.332264
H91	H	-0.895457	1.233890	-0.275094
H92	H	-0.811181	0.939610	-0.321279
H93	H	-0.903825	0.972803	-0.445259
O94	O	-0.451393	0.639434	-0.261570
C95	C	-0.545462	0.631264	-0.168012
C96	C	-0.493257	0.589060	-0.219881
H97	H	-0.579311	0.590555	-0.134282
H98	H	-0.584380	0.667227	-0.201696
H99	H	-0.511297	0.667262	-0.129620
H100	H	-0.527362	0.553021	-0.258284
H101	H	-0.454337	0.553142	-0.186152
O102	O	-0.806753	1.099421	-0.489524
C103	C	-0.802550	1.067941	-0.617936
C104	C	-0.831935	1.047500	-0.541212
H105	H	-0.822910	1.025983	-0.659749
H106	H	-0.739397	1.068223	-0.617182
H107	H	-0.823631	1.124789	-0.633683
H108	H	-0.810908	0.990649	-0.525417
H109	H	-0.895086	1.047268	-0.542007
H110	H	-0.903584	1.187500	-0.387982
H111	H	-0.271534	1.148999	-0.785228
