data_functionalizedCrystal
_audit_creation_method	'MofGen! by Chris Wilmer'
_symmetry_space_group_name_H-M	'P1'
_symmetry_Int_Tables_number	1
_symmetry_cell_setting	triclinic
loop_
_symmetry_equiv_pos_as_xyz
  x,y,z
_cell_length_a	16.959454
_cell_length_b	16.959455
_cell_length_c	19.076919
_cell_angle_alpha	92.276161
_cell_angle_beta	92.275489
_cell_angle_gamma	90.017095
loop_
_atom_site_label
_atom_site_type_symbol
_atom_site_fract_x
_atom_site_fract_y
_atom_site_fract_z
Zn1	Zn	-0.332721	1.190436	-0.398063
Zn2	Zn	0.167279	1.690436	0.101937
Zn3	Zn	-0.459594	1.195665	-0.280377
Zn4	Zn	0.040406	1.695665	0.219623
Zn5	Zn	-0.327426	1.063571	-0.280372
Zn6	Zn	0.172574	1.563571	0.219628
Zn7	Zn	-0.464853	1.058231	-0.398022
Zn8	Zn	0.035147	1.558231	0.101978
O9	O	-0.396148	1.126976	-0.339208
O10	O	0.103852	1.626976	0.160792
O11	O	-0.349566	1.301740	-0.382471
O12	O	0.150434	1.801740	0.117529
O13	O	-0.437645	1.182565	-0.181887
O14	O	0.062355	1.682565	0.318113
O15	O	-0.217518	1.080446	-0.295998
O16	O	0.282482	1.580446	0.204002
O17	O	-0.442779	1.305581	-0.296008
O18	O	0.057221	1.805581	0.203992
O19	O	-0.221408	1.173654	-0.382465
O20	O	0.278592	1.673654	0.117535
O21	O	-0.340542	1.085516	-0.181883
O22	O	0.159458	1.585516	0.318117
O23	O	-0.345641	0.952253	-0.295959
O24	O	0.154359	1.452253	0.204041
O25	O	-0.451741	1.071345	-0.496516
O26	O	0.048259	1.571345	0.003484
O27	O	-0.446608	0.948329	-0.382396
O28	O	0.053392	1.448329	0.117604
O29	O	-0.354665	1.168476	-0.496546
O30	O	0.145335	1.668476	0.003454
O31	O	-0.570902	1.177387	-0.295968
O32	O	-0.070902	1.677387	0.204032
O33	O	-0.574765	1.076415	-0.382401
O34	O	-0.074765	1.576415	0.117599
C35	C	-0.396121	0.921611	-0.339173
C36	C	0.103879	1.421611	0.160827
C37	C	-0.396129	0.833754	-0.339174
C38	C	0.103871	1.333754	0.160826
C39	C	-0.444633	0.464268	-0.294164
C40	C	0.055367	0.964268	0.205836
C41	C	-0.347733	0.460283	-0.384338
C42	C	0.152267	0.960283	0.115662
C43	C	-0.347719	0.542829	-0.384321
C44	C	0.152281	1.042829	0.115679
C45	C	-0.396164	0.586099	-0.339226
C46	C	0.103836	1.086099	0.160774
C47	C	-0.444623	0.546822	-0.294147
C48	C	0.055377	1.046822	0.205853
C49	C	-0.299267	0.582112	-0.429404
C50	C	0.200733	1.082112	0.070596
C51	C	-0.299252	0.664664	-0.429389
C52	C	0.200748	1.164664	0.070611
C53	C	-0.347693	0.707935	-0.384289
C54	C	0.152307	1.207935	0.115711
C55	C	-0.396153	0.668653	-0.339209
C56	C	0.103847	1.168653	0.160791
C57	C	-0.444598	0.711923	-0.294113
C58	C	0.055402	1.211923	0.205887
C59	C	-0.493055	0.672643	-0.249028
C60	C	0.006945	1.172643	0.250972
C61	C	-0.493064	0.590094	-0.249047
C62	C	0.006936	1.090094	0.250953
C63	C	-0.347684	0.790485	-0.384270
C64	C	0.152316	1.290485	0.115730
C65	C	-0.444588	0.794477	-0.294096
C66	C	0.055412	1.294477	0.205904
C67	C	-0.601514	1.126910	-0.339196
C68	C	-0.101514	1.626910	0.160804
C69	C	-0.689372	1.126953	-0.339215
C70	C	-0.189372	1.626953	0.160785
C71	C	-1.062888	1.074473	-0.384209
C72	C	-0.562888	1.574473	0.115791
C73	C	-1.058809	1.179695	-0.294279
C74	C	-0.558809	1.679695	0.205721
C75	C	-0.976262	1.179668	-0.294273
C76	C	-0.476262	1.679668	0.205727
C77	C	-0.937025	1.127042	-0.339234
C78	C	-0.437025	1.627042	0.160766
C79	C	-0.980334	1.074443	-0.384203
C80	C	-0.480334	1.574443	0.115797
C81	C	-0.932947	1.232260	-0.249300
C82	C	-0.432947	1.732260	0.250700
C83	C	-0.850396	1.232235	-0.249291
C84	C	-0.350396	1.732235	0.250709
C85	C	-0.811157	1.179612	-0.294257
C86	C	-0.311157	1.679612	0.205743
C87	C	-0.854472	1.127011	-0.339228
C88	C	-0.354472	1.627011	0.160772
C89	C	-0.815234	1.074385	-0.384190
C90	C	-0.315234	1.574385	0.115810
C91	C	-0.858547	1.021788	-0.429164
C92	C	-0.358547	1.521788	0.070836
C93	C	-0.941096	1.021820	-0.429169
C94	C	-0.441096	1.521820	0.070831
C95	C	-0.728609	1.179579	-0.294253
C96	C	-0.228609	1.679579	0.205747
C97	C	-0.732681	1.074354	-0.384183
C98	C	-0.232681	1.574354	0.115817
C99	C	-0.189981	1.127063	-0.339236
C100	C	0.310019	1.627063	0.160764
C101	C	-0.102125	1.127099	-0.339247
C102	C	0.397875	1.627099	0.160753
C103	C	-0.404380	1.118732	-0.522782
C104	C	0.095620	1.618732	-0.022782
C105	C	-0.407888	1.115219	-0.601011
C106	C	0.092112	1.615219	-0.101011
C107	C	-0.396176	1.333142	-0.339244
C108	C	0.103824	1.833142	0.160756
C109	C	-0.396188	1.420998	-0.339260
C110	C	0.103812	1.920998	0.160740
C111	C	-0.358996	1.164136	-0.637779
C112	C	0.141004	1.664136	-0.137779
C113	C	-0.362289	1.160826	-0.711283
C114	C	0.137711	1.660826	-0.211283
C115	C	-0.414479	1.108601	-0.748017
C116	C	0.085521	1.608601	-0.248017
C117	C	-0.463373	1.059678	-0.711243
C118	C	0.036627	1.559678	-0.211243
C119	C	-0.460076	1.062985	-0.637741
C120	C	0.039924	1.562985	-0.137741
C121	C	-0.429757	1.093284	-0.967844
C122	C	0.070243	1.593284	-0.467844
C123	C	-0.433053	1.089982	-1.041352
C124	C	0.066947	1.589982	-0.541352
C125	C	-0.331967	1.191129	-1.041387
C126	C	0.168033	1.691129	-0.541387
C127	C	-0.328678	1.194435	-0.967883
C128	C	0.171322	1.694435	-0.467883
C129	C	-0.377569	1.145509	-0.931115
C130	C	0.122431	1.645509	-0.431115
N131	N	-0.417848	1.105217	-0.823150
N132	N	0.082152	1.605217	-0.323150
N133	N	-0.374195	1.148889	-0.855984
N134	N	0.125805	1.648889	-0.355984
C135	C	-0.387891	1.135233	-0.156348
C136	C	0.112109	1.635233	0.343652
C137	C	-0.384161	1.138899	-0.078120
C138	C	0.115839	1.638899	0.421880
H139	H	-0.308233	0.822463	-0.420979
H140	H	0.191767	1.322463	0.079021
H141	H	-0.700739	1.031502	-0.420799
H142	H	-0.200739	1.531502	0.079201
F143	F	-1.108984	1.018501	-0.432075
F144	F	-0.608984	1.518501	0.067925
F145	F	-0.310278	1.212918	-0.750412
F146	F	0.189722	1.712918	-0.250412
F147	F	-0.816779	0.965777	-0.477011
F148	F	-0.316779	1.465777	0.022989
H149	H	-0.976369	0.978997	-0.465784
H150	H	-0.476369	1.478997	0.034216
F151	F	-0.544617	0.718703	-0.201040
F152	F	-0.044617	1.218703	0.298960
H153	H	-1.090760	1.222537	-0.257669
H154	H	-0.590760	1.722537	0.242331
H155	H	-0.316500	1.206666	-0.607876
H156	H	0.183500	1.706666	-0.107876
F157	F	-0.544631	0.548284	-0.201070
F158	F	-0.044631	1.048284	0.298930
F159	F	-0.974710	1.288268	-0.201455
F160	F	-0.474710	1.788268	0.298545
H161	H	-0.815135	1.275062	-0.212671
H162	H	-0.315135	1.775062	0.287329
H163	H	-0.484083	0.432282	-0.257455
H164	H	0.015917	0.932282	0.242545
F165	F	-0.682515	1.235546	-0.246385
F166	F	-0.182515	1.735546	0.253615
H167	H	-0.286181	1.236964	-0.937979
H168	H	0.213819	1.736964	-0.437979
F169	F	-0.279936	1.243194	-1.080522
F170	F	0.220064	1.743194	-0.580522
H171	H	-0.475554	1.047452	-1.071259
H172	H	0.024446	1.547452	-0.571259
H173	H	-0.469580	1.053456	-0.937917
H174	H	0.030420	1.553456	-0.437917
H175	H	-0.499881	1.023143	-0.607805
H176	H	0.000119	1.523143	-0.107805
F177	F	-0.496146	0.840522	-0.246094
F178	F	0.003854	1.340522	0.253906
F179	F	-0.296185	0.414230	-0.432336
F180	F	0.203815	0.914230	0.067664
H181	H	-0.259831	0.546876	-0.466123
H182	H	0.240169	1.046876	0.033877
F183	F	-0.247681	0.706462	-0.477371
F184	F	0.252319	1.206462	0.022629
F185	F	-0.518915	1.004093	-0.750340
F186	F	-0.018915	1.504093	-0.250340
