data_functionalizedCrystal
_audit_creation_method	'MofGen! by Chris Wilmer'
_symmetry_space_group_name_H-M	'P1'
_symmetry_Int_Tables_number	1
_symmetry_cell_setting	triclinic
loop_
_symmetry_equiv_pos_as_xyz
  x,y,z
_cell_length_a	6.817900
_cell_length_b	9.582860
_cell_length_c	16.015572
_cell_angle_alpha	76.189886
_cell_angle_beta	104.485554
_cell_angle_gamma	111.206767
loop_
_atom_site_label
_atom_site_type_symbol
_atom_site_fract_x
_atom_site_fract_y
_atom_site_fract_z
V1	V	-4.003263	-0.060387	-0.269347
O2	O	-3.950086	0.153916	-0.264383
O3	O	-3.994506	-0.264976	-0.267348
O4	O	-3.926564	0.006805	-0.386890
O5	O	-4.018499	-0.119746	-0.144013
V6	V	-4.485422	-0.042583	-0.254375
O7	O	-4.267516	-0.099440	-0.302189
O8	O	-4.671367	-0.003529	-0.221533
O9	O	-4.270973	0.162006	-0.256374
O10	O	-4.655995	-0.256885	-0.259339
O11	O	-4.587583	0.016777	-0.379709
O12	O	-4.338915	-0.109774	-0.136832
C13	C	-3.850066	-0.316921	-0.263058
C14	C	-3.924004	-0.483749	-0.262208
C15	C	-3.763398	0.029764	-0.415545
C16	C	-3.782234	0.083346	-0.511636
C17	C	-4.163022	-0.392251	-0.888905
C18	C	-4.180716	-0.341854	-0.979193
C19	C	-4.053206	-0.081114	-0.954685
C20	C	-4.035491	-0.131490	-0.864393
C21	C	-4.090405	-0.287060	-0.831511
C22	C	-3.962873	-0.026298	-0.806999
C23	C	-3.945171	-0.076671	-0.716715
C24	C	-4.000085	-0.232235	-0.683826
C25	C	-4.072703	-0.337432	-0.741227
C26	C	-3.907974	0.129271	-0.839884
C27	C	-3.835357	0.234463	-0.782489
C28	C	-3.817639	0.184091	-0.692203
C29	C	-3.872554	0.028527	-0.659314
C30	C	-3.745022	0.289289	-0.634802
C31	C	-3.727319	0.238917	-0.544518
C32	C	-3.854851	-0.021845	-0.569030
C33	C	-4.078756	0.213942	-0.260661
C34	C	-3.984056	0.380772	-0.261517
C35	C	-4.165424	-0.132741	-0.108172
C36	C	-4.125826	-0.186316	-0.012081
H37	H	-3.985674	-0.273246	-0.610310
O38	O	-3.691373	0.440449	-0.666638
C39	C	-3.474831	0.512292	-0.632977
H40	H	-3.422266	0.440260	-0.569522
H41	H	-3.372215	0.525961	-0.682576
C42	C	-3.512479	0.758081	-0.692858
C43	C	-3.447923	0.669615	-0.614918
H44	H	-3.495875	0.855128	-0.681722
H45	H	-3.658365	0.709680	-0.715539
H46	H	-3.426958	0.769455	-0.734183
H47	H	-3.533461	0.658226	-0.573599
H48	H	-3.302049	0.718018	-0.592229
O49	O	-3.657133	0.341023	-0.488732
C50	C	-3.816466	0.314839	-0.439928
H51	H	-3.979192	0.252674	-0.477008
H52	H	-3.780982	0.242714	-0.373857
C53	C	-3.618765	0.543995	-0.380237
C54	C	-3.818631	0.467653	-0.425783
H55	H	-3.620097	0.638256	-0.371508
H56	H	-3.511415	0.561634	-0.413114
H57	H	-3.589218	0.483874	-0.325183
H58	H	-3.848163	0.527765	-0.480840
H59	H	-3.925987	0.450028	-0.392914
H60	H	-4.207712	-0.518931	-0.862130
H61	H	-4.239844	-0.427525	-1.025922
H62	H	-4.117392	-0.464112	-0.714452
O63	O	-3.999862	0.069949	-0.986775
C64	C	-4.031113	0.091855	-1.078771
H65	H	-4.024954	-0.011554	-1.100112
H66	H	-4.193745	0.107870	-1.107671
C67	C	-3.861445	0.360850	-1.085183
C68	C	-3.853862	0.233846	-1.111394
H69	H	-3.752115	0.448440	-1.105309
H70	H	-3.840397	0.346093	-1.023204
H71	H	-3.996980	0.374175	-1.109269
H72	H	-3.718339	0.220511	-1.087300
H73	H	-3.874883	0.248604	-1.173371
O74	O	-3.782013	0.385526	-0.814579
C75	C	-3.813264	0.407432	-0.906575
H76	H	-3.807105	0.304023	-0.927916
H77	H	-3.975896	0.423447	-0.935475
C78	C	-3.643596	0.676427	-0.912988
C79	C	-3.636013	0.549422	-0.939199
H80	H	-3.534267	0.764016	-0.933113
H81	H	-3.622548	0.661670	-0.851009
H82	H	-3.779132	0.689752	-0.937073
H83	H	-3.500490	0.536088	-0.915104
H84	H	-3.657034	0.564180	-1.001175
H85	H	-3.922361	0.170280	-0.913399
H86	H	-3.899541	-0.148525	-0.542255
