data_functionalizedCrystal
_audit_creation_method	'MofGen! by Chris Wilmer'
_symmetry_space_group_name_H-M	'P1'
_symmetry_Int_Tables_number	1
_symmetry_cell_setting	triclinic
loop_
_symmetry_equiv_pos_as_xyz
  x,y,z
_cell_length_a	11.169417
_cell_length_b	12.759400
_cell_length_c	11.169409
_cell_angle_alpha	90.031157
_cell_angle_beta	90.019513
_cell_angle_gamma	90.015533
loop_
_atom_site_label
_atom_site_type_symbol
_atom_site_fract_x
_atom_site_fract_y
_atom_site_fract_z
Zn1	Zn	1.834929	-0.418146	0.678543
Zn2	Zn	1.834805	-0.593872	0.477864
Zn3	Zn	1.634215	-0.418211	0.477878
Zn4	Zn	1.634209	-0.593788	0.678510
O5	O	1.734540	-0.506004	0.578198
O6	O	2.002863	-0.441465	0.651930
O7	O	1.808147	-0.570633	0.309916
O8	O	1.660895	-0.271182	0.504517
O9	O	2.002771	-0.570570	0.504492
O10	O	1.808359	-0.271134	0.651944
O11	O	1.660775	-0.441576	0.309926
O12	O	1.466265	-0.441494	0.504485
O13	O	1.660884	-0.570426	0.846464
O14	O	1.466260	-0.570489	0.651888
O15	O	1.808353	-0.441383	0.846488
O16	O	1.808141	-0.740882	0.504460
O17	O	1.660764	-0.740820	0.651874
C18	C	1.422715	-0.505990	0.578185
C19	C	1.289315	-0.506009	0.578207
C20	C	1.734471	-0.778972	0.578188
C21	C	1.734551	-0.895748	0.578223
C22	C	1.657795	-0.950616	0.654921
C23	C	1.657859	-1.060340	0.654932
C24	C	1.811444	-1.060319	0.501545
C25	C	1.811374	-0.950597	0.501529
C26	C	1.580973	-0.895768	0.731616
C27	C	1.504212	-0.950636	0.808321
C28	C	1.504275	-1.060360	0.808332
C29	C	1.581100	-1.115216	0.731639
C30	C	2.047582	-0.506019	0.578213
C31	C	2.180982	-0.506026	0.578219
C32	C	1.734632	-0.505888	0.891241
C33	C	1.734671	-0.505838	1.024641
C34	C	1.734642	-0.231971	0.578235
C35	C	1.734685	-0.115194	0.578251
C36	C	1.734517	-0.506045	0.266374
C37	C	1.734710	-0.505798	0.132974
H38	H	1.580914	-0.806425	0.731617
H39	H	1.581142	-1.204561	0.731651
Br40	Br	1.915528	-0.876126	0.397421
H41	H	1.441656	-0.905967	0.870755
Br42	Br	1.915703	-1.134765	0.397473
Br43	Br	1.400093	-1.134822	0.912419
