data_functionalizedCrystal
_audit_creation_method	'MofGen! by Chris Wilmer'
_symmetry_space_group_name_H-M	'P1'
_symmetry_Int_Tables_number	1
_symmetry_cell_setting	triclinic
loop_
_symmetry_equiv_pos_as_xyz
  x,y,z
_cell_length_a	10.686285
_cell_length_b	18.215407
_cell_length_c	18.215399
_cell_angle_alpha	90.020595
_cell_angle_beta	85.609148
_cell_angle_gamma	94.368569
loop_
_atom_site_label
_atom_site_type_symbol
_atom_site_fract_x
_atom_site_fract_y
_atom_site_fract_z
Zn1	Zn	-0.502362	-1.147640	-0.393718
Zn2	Zn	-0.252362	-0.897640	-0.143718
Zn3	Zn	-0.002362	-0.647640	0.106282
Zn4	Zn	0.247638	-0.397640	0.356282
Zn5	Zn	-0.713378	-1.157028	-0.261238
Zn6	Zn	-0.463378	-0.907028	-0.011238
Zn7	Zn	-0.213378	-0.657028	0.238762
Zn8	Zn	0.036622	-0.407028	0.488762
Zn9	Zn	-0.502401	-1.024574	-0.270662
Zn10	Zn	-0.252401	-0.774574	-0.020662
Zn11	Zn	-0.002401	-0.524574	0.229338
Zn12	Zn	0.247599	-0.274574	0.479338
Zn13	Zn	-0.713305	-1.034015	-0.384264
Zn14	Zn	-0.463305	-0.784015	-0.134264
Zn15	Zn	-0.213305	-0.534015	0.115736
Zn16	Zn	0.036695	-0.284015	0.365736
O17	O	-0.607861	-1.090814	-0.327471
O18	O	-0.357861	-0.840814	-0.077471
O19	O	-0.107861	-0.590814	0.172529
O20	O	0.142139	-0.340814	0.422529
O21	O	-0.530367	-1.251870	-0.376157
O22	O	-0.280367	-1.001870	-0.126157
O23	O	-0.030367	-0.751870	0.123843
O24	O	0.219633	-0.501870	0.373843
O25	O	-0.685438	-1.139436	-0.159502
O26	O	-0.435438	-0.889436	0.090498
O27	O	-0.185438	-0.639436	0.340498
O28	O	0.064562	-0.389436	0.590498
O29	O	-0.325821	-1.033019	-0.294887
O30	O	-0.075821	-0.783019	-0.044887
O31	O	0.174179	-0.533019	0.205113
O32	O	0.424179	-0.283019	0.455113
O33	O	-0.685400	-1.258767	-0.278824
O34	O	-0.435400	-1.008767	-0.028824
O35	O	-0.185400	-0.758767	0.221176
O36	O	0.064600	-0.508767	0.471176
O37	O	-0.325792	-1.123435	-0.385296
O38	O	-0.075792	-0.873435	-0.135296
O39	O	0.174208	-0.623435	0.114704
O40	O	0.424208	-0.373435	0.364704
O41	O	-0.530434	-1.042123	-0.166426
O42	O	-0.280434	-0.792123	0.083574
O43	O	-0.030434	-0.542123	0.333574
O44	O	0.219566	-0.292123	0.583574
O45	O	-0.530364	-0.922842	-0.285720
O46	O	-0.280364	-0.672842	-0.035720
O47	O	-0.030364	-0.422842	0.214280
O48	O	0.219636	-0.172842	0.464280
O49	O	-0.685277	-1.049109	-0.488505
O50	O	-0.435277	-0.799109	-0.238505
O51	O	-0.185277	-0.549109	0.011495
O52	O	0.064723	-0.299109	0.261495
O53	O	-0.685315	-0.929778	-0.369182
O54	O	-0.435315	-0.679778	-0.119182
O55	O	-0.185315	-0.429778	0.130818
O56	O	0.064685	-0.179778	0.380818
O57	O	-0.530297	-1.132589	-0.495451
O58	O	-0.280297	-0.882589	-0.245451
O59	O	-0.030297	-0.632589	0.004549
O60	O	0.219703	-0.382589	0.254549
O61	O	-0.889943	-1.148590	-0.269657
O62	O	-0.639943	-0.898590	-0.019657
O63	O	-0.389943	-0.648590	0.230343
O64	O	-0.139943	-0.398590	0.480343
O65	O	-0.889890	-1.058212	-0.360044
O66	O	-0.639890	-0.808212	-0.110044
O67	O	-0.389890	-0.558212	0.139956
O68	O	-0.139890	-0.308212	0.389956
C69	C	-0.607837	-0.899607	-0.327448
C70	C	-0.357837	-0.649607	-0.077448
C71	C	-0.107837	-0.399607	0.172552
C72	C	0.142163	-0.149607	0.422552
C73	C	-0.607857	-0.817809	-0.327455
C74	C	-0.357857	-0.567809	-0.077455
C75	C	-0.107857	-0.317809	0.172545
C76	C	0.142143	-0.067809	0.422545
C77	C	-0.935701	-1.105464	-0.312818
C78	C	-0.685701	-0.855464	-0.062818
C79	C	-0.435701	-0.605464	0.187182
C80	C	-0.185701	-0.355464	0.437182
C81	C	-1.075952	-1.111799	-0.306574
C82	C	-0.825952	-0.861799	-0.056574
C83	C	-0.575952	-0.611799	0.193426
C84	C	-0.325952	-0.361799	0.443426
C85	C	-0.688663	-0.633251	-0.370847
C86	C	-0.438663	-0.383251	-0.120847
C87	C	-0.188663	-0.133251	0.129153
C88	C	0.061337	0.116749	0.379153
C89	C	-0.688666	-0.556393	-0.370855
C90	C	-0.438666	-0.306393	-0.120855
C91	C	-0.188666	-0.056393	0.129145
C92	C	0.061334	0.193607	0.379145
C93	C	-0.527067	-0.549129	-0.284097
C94	C	-0.277067	-0.299129	-0.034097
C95	C	-0.027067	-0.049129	0.215903
C96	C	0.222933	0.200871	0.465903
C97	C	-0.527058	-0.625986	-0.284094
C98	C	-0.277058	-0.375986	-0.034094
C99	C	-0.027058	-0.125986	0.215906
C100	C	0.222942	0.124014	0.465906
C101	C	-0.607864	-0.668046	-0.327467
C102	C	-0.357864	-0.418046	-0.077467
C103	C	-0.107864	-0.168046	0.172533
C104	C	0.142136	0.081954	0.422533
C105	C	-0.607875	-0.514330	-0.327479
C106	C	-0.357875	-0.264330	-0.077479
C107	C	-0.107875	-0.014330	0.172521
C108	C	0.142125	0.235670	0.422521
C109	C	-0.607877	-0.430997	-0.327487
C110	C	-0.357877	-0.180997	-0.077487
C111	C	-0.107877	0.069003	0.172513
C112	C	0.142123	0.319003	0.422513
C113	C	-0.607860	-0.751384	-0.327460
C114	C	-0.357860	-0.501384	-0.077460
C115	C	-0.107860	-0.251384	0.172540
C116	C	0.142140	-0.001384	0.422540
C117	C	-0.278742	-1.076127	-0.342197
C118	C	-0.028742	-0.826127	-0.092197
C119	C	0.221258	-0.576127	0.157803
C120	C	0.471258	-0.326127	0.407803
C121	C	-0.138491	-1.069868	-0.348473
C122	C	0.111509	-0.819868	-0.098473
C123	C	0.361509	-0.569868	0.151527
C124	C	0.611509	-0.319868	0.401527
C125	C	-0.607774	-1.090855	-0.519428
C126	C	-0.357774	-0.840855	-0.269428
C127	C	-0.107774	-0.590855	-0.019428
C128	C	0.142226	-0.340855	0.230572
C129	C	-0.607737	-1.090873	-0.601228
C130	C	-0.357737	-0.840873	-0.351228
C131	C	-0.107737	-0.590873	-0.101228
C132	C	0.142263	-0.340873	0.148772
C133	C	-0.607883	-0.282768	-0.327491
C134	C	-0.357883	-0.032768	-0.077491
C135	C	-0.107883	0.217232	0.172509
C136	C	0.142117	0.467232	0.422509
C137	C	-0.607882	-0.364567	-0.327491
C138	C	-0.357882	-0.114567	-0.077491
C139	C	-0.107882	0.135433	0.172509
C140	C	0.142118	0.385433	0.422509
C141	C	-0.526964	-1.134354	-0.793044
C142	C	-0.276964	-0.884354	-0.543044
C143	C	-0.026964	-0.634354	-0.293044
C144	C	0.223036	-0.384354	-0.043044
C145	C	-0.526927	-1.134361	-0.869904
C146	C	-0.276927	-0.884361	-0.619904
C147	C	-0.026927	-0.634361	-0.369904
C148	C	0.223073	-0.384361	-0.119904
C149	C	-0.688315	-1.047434	-0.862660
C150	C	-0.438315	-0.797434	-0.612660
C151	C	-0.188315	-0.547434	-0.362660
C152	C	0.061685	-0.297434	-0.112660
C153	C	-0.688345	-1.047424	-0.785801
C154	C	-0.438345	-0.797424	-0.535801
C155	C	-0.188345	-0.547424	-0.285801
C156	C	0.061655	-0.297424	-0.035801
C157	C	-0.607671	-1.090888	-0.750995
C158	C	-0.357671	-0.840888	-0.500995
C159	C	-0.107671	-0.590888	-0.250995
C160	C	0.142329	-0.340888	-0.000995
C161	C	-0.607605	-1.090906	-0.904714
C162	C	-0.357605	-0.840906	-0.654714
C163	C	-0.107605	-0.590906	-0.404714
C164	C	0.142395	-0.340906	-0.154714
C165	C	-0.607566	-1.090913	-0.988049
C166	C	-0.357566	-0.840913	-0.738049
C167	C	-0.107566	-0.590913	-0.488049
C168	C	0.142434	-0.340913	-0.238049
C169	C	-0.607708	-1.090880	-0.667654
C170	C	-0.357708	-0.840880	-0.417654
C171	C	-0.107708	-0.590880	-0.167654
C172	C	0.142292	-0.340880	0.082346
C173	C	-0.607857	-1.090812	-0.136265
C174	C	-0.357857	-0.840812	0.113735
C175	C	-0.107857	-0.590812	0.363735
C176	C	0.142143	-0.340812	0.613735
C177	C	-0.607539	-1.090921	-0.054480
C178	C	-0.357539	-0.840921	0.195520
C179	C	-0.107539	-0.590921	0.445520
C180	C	0.142461	-0.340921	0.695520
H181	H	-0.754457	-0.667494	-0.406166
H182	H	-0.504457	-0.417494	-0.156166
H183	H	-0.254457	-0.167494	0.093834
H184	H	-0.004457	0.082506	0.343834
O185	O	-1.147155	-1.165768	-0.252719
O186	O	-0.897155	-0.915768	-0.002719
O187	O	-0.647155	-0.665768	0.247281
O188	O	-0.397155	-0.415768	0.497281
H189	H	-1.079285	-1.195481	-0.223008
H190	H	-0.829285	-0.945481	0.026992
H191	H	-0.579285	-0.695481	0.276992
H192	H	-0.329285	-0.445481	0.526992
H193	H	-0.754459	-0.528067	-0.406180
H194	H	-0.504459	-0.278067	-0.156180
H195	H	-0.254459	-0.028067	0.093820
H196	H	-0.004459	0.221933	0.343820
O197	O	-1.067304	-1.015890	-0.402316
O198	O	-0.817304	-0.765890	-0.152316
O199	O	-0.567304	-0.515890	0.097684
O200	O	-0.317304	-0.265890	0.347684
H201	H	-1.092457	-1.029591	-0.458981
H202	H	-0.842457	-0.779591	-0.208981
H203	H	-0.592457	-0.529591	0.041019
H204	H	-0.342457	-0.279591	0.291019
H205	H	-0.461254	-0.654316	-0.248769
H206	H	-0.211254	-0.404316	0.001231
H207	H	0.038746	-0.154316	0.251231
H208	H	0.288746	0.095684	0.501231
H209	H	-0.461280	-0.514876	-0.248783
H210	H	-0.211280	-0.264876	0.001217
H211	H	0.038720	-0.014876	0.251217
H212	H	0.288720	0.235124	0.501217
O213	O	-0.439947	-1.181224	-0.755499
O214	O	-0.189947	-0.931224	-0.505499
O215	O	0.060053	-0.681224	-0.255499
O216	O	0.310053	-0.431224	-0.005499
H217	H	-0.383812	-1.211445	-0.797655
H218	H	-0.133812	-0.961445	-0.547655
H219	H	0.116188	-0.711445	-0.297655
H220	H	0.366188	-0.461445	-0.047655
H221	H	-0.461205	-1.169755	-0.904137
H222	H	-0.211205	-0.919755	-0.654137
H223	H	0.038795	-0.669755	-0.404137
H224	H	0.288795	-0.419755	-0.154137
H225	H	-0.754000	-1.012049	-0.891008
H226	H	-0.504000	-0.762049	-0.641008
H227	H	-0.254000	-0.512049	-0.391008
H228	H	-0.004000	-0.262049	-0.141008
H229	H	-0.754065	-1.012023	-0.751564
H230	H	-0.504065	-0.762023	-0.501564
H231	H	-0.254065	-0.512023	-0.251564
H232	H	-0.004065	-0.262023	-0.001564
