data_functionalizedCrystal
_audit_creation_method	'MofGen! by Chris Wilmer'
_symmetry_space_group_name_H-M	'P1'
_symmetry_Int_Tables_number	1
_symmetry_cell_setting	triclinic
loop_
_symmetry_equiv_pos_as_xyz
  x,y,z
_cell_length_a	16.992694
_cell_length_b	11.792241
_cell_length_c	15.455313
_cell_angle_alpha	92.683265
_cell_angle_beta	87.142206
_cell_angle_gamma	87.430819
loop_
_atom_site_label
_atom_site_type_symbol
_atom_site_fract_x
_atom_site_fract_y
_atom_site_fract_z
O1	O	1.044827	0.236106	-0.072022
O2	O	0.816531	0.233463	-0.072048
O3	O	0.936219	0.070068	-0.072029
O4	O	0.925139	0.399501	-0.072042
O5	O	0.929374	0.079370	0.072232
O6	O	0.809687	0.242766	0.072213
O7	O	1.037982	0.245409	0.072239
Cu8	Cu	0.923210	0.244937	0.085398
Cu9	Cu	0.931304	0.233935	-0.085207
O10	O	0.918295	0.408804	0.072219
C11	C	0.783882	0.234716	0.000079
C12	C	0.696795	0.224578	0.000070
C13	C	0.646971	0.322395	0.000066
C14	C	0.565143	0.312864	0.000079
C15	C	0.533142	0.205513	0.000088
C16	C	0.582973	0.107688	0.000094
C17	C	0.664799	0.117221	0.000088
C18	C	0.289375	0.166002	0.000113
C19	C	0.207543	0.156476	0.000117
C20	C	0.189719	0.361652	0.000103
C21	C	0.271548	0.371176	0.000091
C22	C	0.321371	0.273351	0.000102
N23	N	0.449501	0.195767	0.000098
N24	N	0.405010	0.283098	0.000098
C25	C	0.932101	0.032371	0.000102
C26	C	0.930017	-0.093813	0.000101
C27	C	0.926187	-0.324840	0.000086
C28	C	0.928315	-0.196280	0.000094
C29	C	1.070631	0.244155	0.000109
C30	C	1.157718	0.254293	0.000113
C31	C	0.922413	0.446501	0.000087
C32	C	0.924497	0.572684	0.000082
N33	N	0.917522	0.252674	0.205393
N34	N	0.936998	0.226189	-0.205202
C35	C	0.968388	0.183287	0.250795
C36	C	0.964094	0.189150	0.341602
C37	C	0.908938	0.264406	0.387005
C38	C	0.858067	0.333796	0.341597
C39	C	0.862358	0.327927	0.250791
C40	C	0.890417	0.289710	0.658584
C41	C	0.886132	0.295576	0.749396
C42	C	0.992158	0.150928	0.749395
C43	C	0.996447	0.145070	0.658588
C44	C	0.945574	0.214455	0.613187
N45	N	0.904549	0.270403	0.479825
N46	N	0.949959	0.208452	0.520369
H47	H	0.329932	0.086346	0.000122
C48	C	0.134912	0.469254	0.000101
C49	C	0.079747	0.486088	-0.074804
C50	C	0.024939	0.593695	-0.074802
C51	C	0.025296	0.684468	0.000105
C52	C	0.080463	0.667637	0.075016
C53	C	0.135270	0.560030	0.075014
H54	H	0.079481	0.418890	-0.130260
H55	H	-0.015899	0.606154	-0.130256
H56	H	-0.015276	0.764125	0.000107
H57	H	0.080729	0.734835	0.130472
H58	H	0.176108	0.547571	0.130468
C59	C	0.547774	-0.010400	0.000103
C60	C	0.457770	-0.020893	0.000104
C61	C	0.422574	-0.138985	0.000109
C62	C	0.477382	-0.246583	0.000114
C63	C	0.567392	-0.236094	0.000113
C64	C	0.602588	-0.118002	0.000108
H65	H	0.417193	0.058761	0.000100
H66	H	0.355942	-0.146749	0.000109
H67	H	0.451328	-0.334002	0.000118
H68	H	0.607969	-0.315748	0.000117
H69	H	0.669219	-0.110238	0.000108
C70	C	1.057115	0.062284	0.608641
C71	C	1.113070	-0.014051	0.658574
C72	C	1.173740	-0.096833	0.608625
C73	C	1.178455	-0.103281	0.508742
C74	C	1.122498	-0.026943	0.458804
C75	C	1.061828	0.055839	0.508753
H76	H	1.109581	-0.009281	0.732518
H77	H	1.215162	-0.153343	0.645593
H78	H	1.223366	-0.164561	0.471766
H79	H	1.125987	-0.031714	0.384859
H80	H	1.020406	0.112349	0.471785
C81	C	0.682168	0.440485	0.000054
C82	C	0.739509	0.470426	-0.074864
C83	C	0.774702	0.588519	-0.074873
C84	C	0.752554	0.676672	0.000035
C85	C	0.695210	0.646733	0.074959
C86	C	0.660017	0.528640	0.074969
H87	H	0.755906	0.405168	-0.130321
H88	H	0.817151	0.610681	-0.130337
H89	H	0.778606	0.764092	0.000028
H90	H	0.678812	0.711991	0.130416
H91	H	0.617567	0.506478	0.130433
H92	H	0.705366	0.037568	0.000090
C93	C	0.797393	0.416582	0.391535
C94	C	0.792707	0.423104	0.491418
C95	C	0.732034	0.505895	0.541353
C96	C	0.676047	0.582163	0.491406
C97	C	0.680731	0.575642	0.391518
C98	C	0.741405	0.492852	0.341583
H99	H	0.834154	0.366644	0.528396
H100	H	0.728566	0.510721	0.615297
H101	H	0.631133	0.643449	0.528372
H102	H	0.639285	0.632103	0.354540
H103	H	0.744872	0.488026	0.267639
C104	C	1.029061	0.100502	0.200856
C105	C	1.085008	0.024173	0.250803
C106	C	1.145681	-0.058618	0.200868
C107	C	1.150408	-0.065079	0.100985
C108	C	1.094459	0.011252	0.051033
C109	C	1.033786	0.094043	0.100968
H110	H	1.081511	0.028953	0.324747
H111	H	1.187098	-0.115124	0.237846
H112	H	1.195321	-0.126366	0.064020
H113	H	1.097956	0.006472	-0.022911
H114	H	0.992369	0.150549	0.063989
H115	H	1.005512	0.132648	0.378568
C116	C	1.048111	0.074597	0.799336
C117	C	1.014147	-0.011012	0.861775
C118	C	1.070100	-0.087350	0.911715
C119	C	1.160018	-0.078079	0.899216
C120	C	1.193987	0.007534	0.836774
C121	C	1.138033	0.083872	0.786834
H122	H	0.947581	-0.017878	0.871030
H123	H	1.044954	-0.150726	0.957938
H124	H	1.201438	-0.134589	0.936184
H125	H	1.260553	0.014400	0.827519
H126	H	1.163180	0.147248	0.740611
H127	H	0.524579	0.392517	0.000075
H128	H	0.820937	0.384428	0.213825
H129	H	0.841215	0.356864	0.786359
H130	H	0.848996	0.346209	0.621625
H131	H	0.297597	0.458591	0.000074
H132	H	0.181491	0.069054	0.000123
