data_functionalizedCrystal
_audit_creation_method	'MofGen! by Chris Wilmer'
_symmetry_space_group_name_H-M	'P1'
_symmetry_Int_Tables_number	1
_symmetry_cell_setting	triclinic
loop_
_symmetry_equiv_pos_as_xyz
  x,y,z
_cell_length_a	19.288864
_cell_length_b	10.654551
_cell_length_c	18.366186
_cell_angle_alpha	90.001551
_cell_angle_beta	89.979684
_cell_angle_gamma	83.810805
loop_
_atom_site_label
_atom_site_type_symbol
_atom_site_fract_x
_atom_site_fract_y
_atom_site_fract_z
O1	O	0.922377	0.156648	-0.060779
O2	O	0.720255	0.177781	-0.060729
O3	O	0.825962	-0.015624	-0.060755
O4	O	0.816669	0.350053	-0.060752
O5	O	0.825948	-0.015617	0.060344
O6	O	0.720241	0.177788	0.060371
O7	O	0.922363	0.156656	0.060320
Zn8	Zn	0.821299	0.167223	0.079573
Zn9	Zn	0.821318	0.167213	-0.079981
O10	O	0.816655	0.350061	0.060347
C11	C	0.694367	0.177104	-0.000173
C12	C	0.617250	0.175063	-0.000153
C13	C	0.825273	-0.062404	-0.000207
C14	C	0.823231	-0.201803	-0.000211
C15	C	0.573297	0.288544	-0.000164
C16	C	0.500837	0.286627	-0.000172
C17	C	0.472334	0.171221	-0.000184
C18	C	0.516296	0.057725	-0.000170
C19	C	0.588754	0.059646	-0.000154
C20	C	0.363482	0.080497	-0.042636
C21	C	0.291025	0.078581	-0.042656
C22	C	0.248849	0.165292	-0.000228
C23	C	0.279138	0.253940	0.042210
C24	C	0.351596	0.255861	0.042225
C25	C	0.393766	0.169126	-0.000200
C26	C	0.126327	0.276702	-0.000247
C27	C	0.053866	0.274779	-0.000250
C28	C	0.069327	0.045875	-0.000255
C29	C	0.141786	0.047800	-0.000244
C30	C	0.170281	0.163217	-0.000243
C31	C	0.822281	-0.267299	-0.066221
C32	C	0.820356	-0.398278	-0.066217
C33	C	0.820335	-0.398255	0.065812
C34	C	0.822255	-0.267277	0.065807
C35	C	0.822296	-0.267314	-0.142447
C36	C	0.820371	-0.398293	-0.142444
C37	C	0.948251	0.157332	-0.000237
C38	C	1.025368	0.159373	-0.000261
C39	C	0.817344	0.396840	-0.000203
C40	C	0.819386	0.536239	-0.000203
N41	N	0.821292	0.167229	0.188464
C42	C	0.863819	0.243164	0.773003
C43	C	0.863812	0.243175	0.696775
C44	C	0.821323	0.167205	0.658675
C45	C	0.778824	0.091241	0.696809
C46	C	0.778827	0.091241	0.773036
C47	C	0.818855	0.053982	0.537909
C48	C	0.818856	0.053980	0.461684
C49	C	0.821309	0.167206	0.423568
C50	C	0.823775	0.280438	0.461685
C51	C	0.823778	0.280438	0.537912
C52	C	0.821314	0.167197	0.576020
C53	C	0.863794	0.243184	0.302788
C54	C	0.863782	0.243199	0.226559
C55	C	0.778798	0.091253	0.226594
C56	C	0.778806	0.091250	0.302822
C57	C	0.821308	0.167214	0.340914
N58	N	0.821329	0.167205	0.811128
H59	H	0.596493	0.382526	-0.000165
H60	H	0.816854	-0.038221	0.430655
Cl61	Cl	0.252955	-0.032849	-0.096013
H62	H	0.493084	-0.036239	-0.000190
Cl63	Cl	0.917244	0.338654	0.648837
H64	H	0.465044	0.379040	-0.000179
Cl65	Cl	0.815772	-0.088375	0.585819
H66	H	0.898399	0.305044	0.333804
Cl67	Cl	0.742168	-0.442283	-0.178947
H68	H	0.744209	0.029390	0.333864
H69	H	0.825784	0.372635	0.568944
Cl70	Cl	0.725406	-0.004259	0.648913
H71	H	0.177574	-0.044609	-0.000240
Cl72	Cl	0.823426	-0.184938	0.148794
H73	H	0.868373	-0.445614	-0.171723
H74	H	0.624542	-0.032767	-0.000146
Cl75	Cl	0.725407	-0.004259	0.820967
H76	H	0.376254	0.328038	0.076782
Cl77	Cl	-0.001391	0.417455	-0.000260
Cl78	Cl	0.033501	-0.099208	-0.000262
H79	H	0.825773	0.372638	0.430652
H80	H	0.244799	0.324548	0.076759
H81	H	0.774301	-0.220008	-0.171706
Cl82	Cl	0.162153	0.421794	-0.000238
H83	H	0.744199	0.029404	0.195574
H84	H	0.819539	-0.451580	0.119562
H85	H	0.397817	0.009884	-0.077190
Cl86	Cl	0.900508	-0.223331	-0.178985
Cl87	Cl	0.917188	0.338728	0.178629
Cl88	Cl	0.917244	0.338671	0.820887
