data_functionalizedCrystal
_audit_creation_method	'MofGen! by Chris Wilmer'
_symmetry_space_group_name_H-M	'P1'
_symmetry_Int_Tables_number	1
_symmetry_cell_setting	triclinic
loop_
_symmetry_equiv_pos_as_xyz
  x,y,z
_cell_length_a	19.121241
_cell_length_b	19.121063
_cell_length_c	19.121605
_cell_angle_alpha	89.924837
_cell_angle_beta	94.790231
_cell_angle_gamma	95.003121
loop_
_atom_site_label
_atom_site_type_symbol
_atom_site_fract_x
_atom_site_fract_y
_atom_site_fract_z
Zn1	Zn	1.083885	-0.214178	0.452569
Zn2	Zn	1.073759	-0.336869	0.339911
Zn3	Zn	0.960776	-0.224655	0.330316
Zn4	Zn	0.961157	-0.336821	0.452509
O5	O	1.019894	-0.278131	0.393826
O6	O	1.181187	-0.226089	0.441665
O7	O	1.054374	-0.326388	0.240353
O8	O	0.981185	-0.124977	0.342543
O9	O	1.173748	-0.316229	0.358896
O10	O	1.071632	-0.117280	0.432361
O11	O	0.971366	-0.243945	0.233304
O12	O	0.862181	-0.243898	0.342485
O13	O	0.981835	-0.316147	0.550802
O14	O	0.862461	-0.326306	0.432259
O15	O	1.072002	-0.226043	0.550846
O16	O	1.054744	-0.435150	0.358838
O17	O	0.972016	-0.435115	0.441563
C18	C	0.836743	-0.286234	0.386325
C19	C	0.758391	-0.289717	0.383133
C20	C	0.725455	-0.244491	0.424798
C21	C	0.651834	-0.247760	0.421793
C22	C	0.611151	-0.296260	0.377126
C23	C	0.644092	-0.341488	0.335456
C24	C	0.717711	-0.338215	0.338458
C25	C	0.388673	-0.308485	0.365899
C26	C	0.315049	-0.311756	0.362902
C27	C	0.322796	-0.218026	0.449238
C28	C	0.396417	-0.214760	0.452239
C29	C	0.429352	-0.259986	0.410567
C30	C	0.535898	-0.299605	0.374055
C31	C	0.504603	-0.256638	0.413635
C32	C	1.012343	-0.460616	0.401252
C33	C	1.009177	-0.538680	0.404454
C34	C	1.050799	-0.575347	0.362927
C35	C	1.047827	-0.648696	0.365943
C36	C	1.003228	-0.685378	0.410484
C37	C	0.961605	-0.648706	0.452015
C38	C	0.964582	-0.575358	0.449002
C39	C	0.992088	-0.906842	0.421738
C40	C	0.989113	-0.980196	0.424746
C41	C	1.075336	-0.980181	0.338674
C42	C	1.078305	-0.906831	0.335662
C43	C	1.036685	-0.870166	0.377197
C44	C	1.000187	-0.760353	0.413566
C45	C	1.039730	-0.795192	0.374117
C46	C	1.203760	-0.269996	0.401358
C47	C	1.282113	-0.266530	0.404567
C48	C	1.028090	-0.269921	0.577021
C49	C	1.031583	-0.266423	0.655088
C50	C	1.027495	-0.094931	0.386388
C51	C	1.030734	-0.016862	0.383219
C52	C	1.011773	-0.286256	0.211344
C53	C	1.008425	-0.289551	0.133275
C54	C	1.053727	-0.244284	1.096620
C55	C	1.050440	-0.247575	1.023268
C56	C	1.001849	-0.296129	0.986572
C57	C	0.956545	-0.341400	1.023233
C58	C	0.959835	-0.338112	1.096584
C59	C	0.989569	-0.308406	0.765099
C60	C	0.986281	-0.311689	0.691743
C61	C	1.080178	-0.217864	0.691783
C62	C	1.083461	-0.214578	0.765135
C63	C	1.038160	-0.259851	0.801790
C64	C	0.998487	-0.299492	0.911595
C65	C	1.041525	-0.256491	0.876766
H66	H	0.625021	-0.210933	0.455723
H67	H	1.114621	-0.876967	0.299394
C68	C	0.770203	-0.191139	0.473934
C69	C	0.733970	-0.141388	0.519761
C70	C	0.778716	-0.088033	0.568896
C71	C	0.859695	-0.084429	0.572204
C72	C	0.895932	-0.134182	0.526375
C73	C	0.851186	-0.187537	0.477240
H74	H	0.674021	-0.144054	0.517314
H75	H	0.751891	-0.051203	0.602822
H76	H	0.892819	-0.044933	0.608576
H77	H	0.955882	-0.131516	0.528822
H78	H	0.878012	-0.224367	0.443314
C79	C	0.932852	-0.365117	0.651365
C80	C	0.876513	-0.339408	0.597426
C81	C	0.823097	-0.392837	0.557042
C82	C	0.826019	-0.471975	0.570596
C83	C	0.882360	-0.497688	0.624536
C84	C	0.935776	-0.444259	0.664921
H85	H	0.874348	-0.280821	0.587391
H86	H	0.781389	-0.373801	0.517111
H87	H	0.786477	-0.511526	0.540701
H88	H	0.884525	-0.556274	0.634572
H89	H	0.977483	-0.463294	0.704852
C90	C	0.286565	-0.168274	0.495067
C91	C	0.237166	-0.198568	0.549338
C92	C	0.200935	-0.148810	0.595165
C93	C	0.214103	-0.068757	0.586722
C94	C	0.263506	-0.038459	0.532449
C95	C	0.299737	-0.088217	0.486622
H96	H	0.227415	-0.257831	0.555590
H97	H	0.164364	-0.171239	0.635341
H98	H	0.187283	-0.031923	0.620646
H99	H	0.273256	0.020804	0.526197
H100	H	0.336307	-0.065788	0.446445
C101	C	0.753944	-0.387966	0.292626
C102	C	0.709197	-0.441316	0.243493
C103	C	0.745429	-0.491065	0.197657
C104	C	0.826407	-0.487464	0.200954
C105	C	0.871159	-0.434112	0.250088
C106	C	0.834927	-0.384362	0.295925
H107	H	0.649248	-0.443984	0.241051
H108	H	0.712301	-0.530561	0.161284
H109	H	0.853228	-0.524292	0.167023
H110	H	0.931108	-0.431444	0.252530
H111	H	0.868055	-0.344867	0.332298
C112	C	0.270293	-0.365107	0.313764
C113	C	0.218458	-0.339300	0.255376
C114	C	0.173700	-0.392649	0.206243
C115	C	0.180777	-0.471803	0.215499
C116	C	0.232613	-0.497613	0.273889
C117	C	0.277371	-0.444265	0.323022
H118	H	0.213218	-0.280702	0.248522
H119	H	0.135328	-0.373542	0.163018
H120	H	0.147644	-0.511295	0.179128
H121	H	0.237853	-0.556212	0.280743
H122	H	0.315744	-0.463372	0.366247
C123	C	0.939706	-0.358187	0.805395
C124	C	0.941650	-0.438236	0.798779
C125	C	0.891770	-0.488013	0.839070
C126	C	0.839947	-0.457741	0.885978
C127	C	0.838001	-0.377688	0.892597
C128	C	0.887880	-0.327911	0.852306
H129	H	0.980015	-0.460649	0.764053
H130	H	0.893211	-0.547273	0.834171
H131	H	0.803022	-0.494588	0.915805
H132	H	0.799636	-0.355275	0.927323
H133	H	0.886440	-0.268651	0.857205
H134	H	0.415480	-0.345312	0.331967
C135	C	1.093608	-0.689034	0.320262
C136	C	1.148249	-0.735581	0.355076
C137	C	1.194032	-0.775920	0.309395
C138	C	1.185174	-0.769713	0.228900
C139	C	1.130530	-0.723165	0.194082
C140	C	1.084747	-0.682825	0.239763
H141	H	1.154808	-0.740177	0.414668
H142	H	1.234483	-0.810378	0.335170
H143	H	1.219065	-0.799575	0.195084
H144	H	1.123971	-0.718568	0.134490
H145	H	1.044296	-0.648367	0.213988
C146	C	1.107180	-0.190873	1.136982
C147	C	1.157014	-0.141085	1.096659
C148	C	1.210470	-0.087675	1.137018
C149	C	1.214093	-0.084053	1.217701
C150	C	1.164257	-0.133844	1.258029
C151	C	1.110800	-0.187254	1.217669
H152	H	1.154334	-0.143764	1.036928
H153	H	1.247362	-0.050817	1.107165
H154	H	1.253664	-0.044516	1.247578
H155	H	1.166937	-0.131164	1.317760
H156	H	1.073909	-0.224112	1.247523
H157	H	1.087113	-0.545486	0.326654
H158	H	0.925295	-0.678578	0.488284
C159	C	1.094974	-0.203082	0.917129
C160	C	1.151312	-0.228811	0.971056
C161	C	1.204758	-0.175399	1.011426
C162	C	1.201866	-0.096258	0.997870
C163	C	1.145526	-0.070525	0.943941
C164	C	1.092080	-0.123936	0.903571
H165	H	1.153455	-0.287400	0.981093
H166	H	1.246465	-0.194449	1.051348
H167	H	1.241431	-0.056719	1.027754
H168	H	1.143383	-0.011936	0.933904
H169	H	1.050373	-0.104886	0.863649
H170	H	0.916984	-0.380937	0.993350
H171	H	0.922946	-0.374974	1.126428
H172	H	0.930690	-0.545504	0.482819
H173	H	0.610961	-0.380975	0.299083
H174	H	1.109222	-1.010042	0.304860
H175	H	1.076045	-0.765323	0.337855
C176	C	0.549352	-0.203289	0.462767
C177	C	0.601182	-0.229097	0.521159
C178	C	0.645939	-0.175749	0.570293
C179	C	0.638868	-0.096594	0.561035
C180	C	0.587036	-0.070782	0.502641
C181	C	0.542279	-0.124130	0.453507
H182	H	0.606418	-0.287695	0.528014
H183	H	0.684308	-0.194857	0.613520
H184	H	0.672000	-0.057103	0.597407
H185	H	0.581800	-0.012183	0.495785
H186	H	0.503910	-0.105021	0.410279
H187	H	0.429537	-0.175269	0.488615
H188	H	0.502766	-0.339093	0.337686
H189	H	0.958197	-0.876995	0.455555
C190	C	0.951129	-0.800708	0.462557
C191	C	0.892405	-0.855014	0.431883
C192	C	0.843350	-0.895373	0.480876
C193	C	0.853019	-0.881425	0.560543
C194	C	0.911746	-0.827116	0.591222
C195	C	0.960801	-0.786757	0.542229
H196	H	0.885245	-0.865342	0.372905
H197	H	0.799877	-0.935576	0.458165
H198	H	0.816706	-0.911301	0.596811
H199	H	0.918906	-0.816788	0.650200
H200	H	1.004274	-0.746554	0.564940
C201	C	1.136917	-0.161168	0.805495
C202	C	1.193259	-0.186896	0.859418
C203	C	1.246715	-0.133484	0.899775
C204	C	1.243829	-0.054344	0.886209
C205	C	1.187485	-0.028612	0.832283
C206	C	1.134029	-0.082024	0.791926
H207	H	1.195397	-0.245484	0.869463
H208	H	1.288424	-0.152533	0.939695
H209	H	1.283401	-0.014805	0.916084
H210	H	1.185347	0.029976	0.822238
H211	H	1.092320	-0.062975	0.752006
H212	H	0.952804	-1.010059	0.461029
H213	H	0.958922	-0.339024	0.881709
H214	H	1.117060	-0.181005	0.661932
H215	H	1.087332	-0.210716	0.993427
