data_functionalizedCrystal
_audit_creation_method	'MofGen! by Chris Wilmer'
_symmetry_space_group_name_H-M	'P1'
_symmetry_Int_Tables_number	1
_symmetry_cell_setting	triclinic
loop_
_symmetry_equiv_pos_as_xyz
  x,y,z
_cell_length_a	15.297475
_cell_length_b	16.120484
_cell_length_c	15.298259
_cell_angle_alpha	82.663079
_cell_angle_beta	88.370891
_cell_angle_gamma	83.687474
loop_
_atom_site_label
_atom_site_type_symbol
_atom_site_fract_x
_atom_site_fract_y
_atom_site_fract_z
Zn1	Zn	1.227898	-0.409432	-0.744681
Zn2	Zn	1.727898	0.090568	-0.244681
Zn3	Zn	1.242876	-0.573539	-0.605402
Zn4	Zn	1.742876	-0.073539	-0.105402
Zn5	Zn	1.106253	-0.417405	-0.573256
Zn6	Zn	1.606253	0.082595	-0.073256
Zn7	Zn	1.074006	-0.527384	-0.724512
Zn8	Zn	1.574006	-0.027384	-0.224512
O9	O	1.162758	-0.481940	-0.661962
O10	O	1.662758	0.018060	-0.161962
O11	O	1.351467	-0.447181	-0.748100
O12	O	1.851467	0.052819	-0.248100
O13	O	1.244516	-0.575481	-0.479547
O14	O	1.744516	-0.075481	0.020453
O15	O	1.129616	-0.301641	-0.590984
O16	O	1.629616	0.198359	-0.090984
O17	O	1.362471	-0.567750	-0.645771
O18	O	1.862471	-0.067750	-0.145771
O19	O	1.218989	-0.295783	-0.716929
O20	O	1.718989	0.204217	-0.216929
O21	O	1.144139	-0.460769	-0.455930
O22	O	1.644139	0.039231	0.044070
O23	O	0.980394	-0.416014	-0.571426
O24	O	1.480394	0.083986	-0.071426
O25	O	1.074657	-0.489084	-0.848777
O26	O	1.574657	0.010916	-0.348777
O27	O	0.956702	-0.496815	-0.682553
O28	O	1.456702	0.003185	-0.182553
O29	O	1.187721	-0.402425	-0.863596
O30	O	1.687721	0.097575	-0.363596
O31	O	1.213248	-0.682123	-0.626214
O32	O	1.713248	-0.182123	-0.126214
O33	O	1.089180	-0.648213	-0.713723
O34	O	1.589180	-0.148213	-0.213723
C35	C	0.937023	-0.452272	-0.621313
C36	C	1.437023	0.047728	-0.121313
C37	C	0.840448	-0.439595	-0.603945
C38	C	1.340448	0.060405	-0.103945
C39	C	0.519012	-0.572545	-0.786100
C40	C	1.019012	-0.072545	-0.286100
C41	C	0.609749	-0.584461	-0.802417
C42	C	1.109749	-0.084461	-0.302417
C43	C	0.667428	-0.548246	-0.752801
C44	C	1.167428	-0.048246	-0.252801
C45	C	0.634361	-0.500112	-0.686864
C46	C	1.134361	-0.000112	-0.186864
C47	C	0.543616	-0.488199	-0.670542
C48	C	1.043616	0.011801	-0.170542
C49	C	0.692032	-0.463900	-0.637242
C50	C	1.192032	0.036100	-0.137242
C51	C	0.658965	-0.415766	-0.571305
C52	C	1.158965	0.084234	-0.071305
C53	C	0.568228	-0.403856	-0.554986
C54	C	1.068228	0.096144	-0.054986
C55	C	0.510549	-0.440072	-0.604603
C56	C	1.010549	0.059928	-0.104603
C57	C	0.782778	-0.475813	-0.653564
C58	C	1.282778	0.024187	-0.153564
C59	C	0.807381	-0.391467	-0.538005
C60	C	1.307381	0.108533	-0.038005
C61	C	0.716644	-0.379551	-0.521689
C62	C	1.216644	0.120449	-0.021689
C63	C	1.149361	-0.694909	-0.671291
C64	C	1.649361	-0.194909	-0.171291
C65	C	1.143704	-0.786024	-0.675326
C66	C	1.643704	-0.286024	-0.175326
C67	C	1.133378	-0.952850	-0.682710
C68	C	1.633378	-0.452850	-0.182710
C69	C	1.192292	-1.010207	-0.641257
C70	C	1.692292	-0.510207	-0.141257
C71	C	1.186547	-1.103035	-0.645366
C72	C	1.686547	-0.603035	-0.145366
C73	C	1.139122	-0.860013	-0.678602
C74	C	1.639122	-0.360013	-0.178602
C75	C	1.389375	-0.511724	-0.702771
C76	C	1.889375	-0.011724	-0.202771
C77	C	1.485946	-0.524417	-0.720161
C78	C	1.985946	-0.024417	-0.220161
C79	C	1.125921	-0.439717	-0.888595
C80	C	1.625921	0.060283	-0.388595
C81	C	1.110224	-0.421724	-0.985172
C82	C	1.610224	0.078276	-0.485172
C83	C	1.176229	-0.268138	-0.652620
C84	C	1.676229	0.231862	-0.152620
C85	C	1.181969	-0.177029	-0.648639
C86	C	1.681969	0.322971	-0.148639
C87	C	1.275020	-0.609910	-1.306586
C88	C	1.775020	-0.109910	-0.806586
C89	C	1.289764	-0.626820	-1.215847
C90	C	1.789764	-0.126820	-0.715847
C91	C	1.244881	-0.575547	-1.158174
C92	C	1.744881	-0.075547	-0.658174
C93	C	1.185250	-0.507362	-1.191249
C94	C	1.685250	-0.007362	-0.691249
C95	C	1.170499	-0.490455	-1.281997
C96	C	1.670499	0.009545	-0.781997
C97	C	1.140360	-0.456092	-1.133585
C98	C	1.640360	0.043908	-0.633585
C99	C	1.080729	-0.387906	-1.166660
C100	C	1.580729	0.112094	-0.666660
C101	C	1.065982	-0.371002	-1.257399
C102	C	1.565982	0.128998	-0.757399
C103	C	1.110865	-0.422274	-1.315072
C104	C	1.610865	0.077726	-0.815072
C105	C	1.155110	-0.472999	-1.042837
C106	C	1.655110	0.027001	-0.542837
C107	C	1.050589	-0.353544	-1.018247
C108	C	1.550589	0.146456	-0.518247
C109	C	1.035846	-0.336634	-1.108987
C110	C	1.535846	0.163366	-0.608987
C111	C	1.199506	-0.523946	-0.436218
C112	C	1.699506	-0.023946	0.063782
C113	C	1.215386	-0.541730	-0.339661
C114	C	1.715386	-0.041730	0.160339
H115	H	0.741310	-0.557951	-0.766090
H116	H	1.241310	-0.057951	-0.266090
O117	O	0.869587	-0.352416	-0.484477
O118	O	1.369587	0.147584	0.015523
H119	H	0.831352	-0.316960	-0.435873
H120	H	1.331352	0.183040	0.064127
O121	O	0.645416	-0.636364	-0.873535
O122	O	1.145416	-0.136364	-0.373535
H123	H	0.590065	-0.659538	-0.905302
H124	H	1.090065	-0.159538	-0.405302
H125	H	1.014041	-0.311794	-0.971289
H126	H	1.514041	0.188206	-0.471289
H127	H	1.078630	-0.973461	-0.721281
H128	H	1.578630	-0.473461	-0.221281
O129	O	0.532560	-0.351953	-0.483860
O130	O	1.032560	0.148047	0.016140
H131	H	0.487501	-0.297626	-0.513560
H132	H	0.987501	0.202374	-0.013560
H133	H	0.689708	-0.340360	-0.468003
H134	H	1.189708	0.159640	0.031997
H135	H	1.247043	-0.989595	-0.602682
H136	H	1.747043	-0.489595	-0.102682
H137	H	1.203668	-0.528512	-1.015917
H138	H	1.703668	-0.028512	-0.515917
H139	H	1.256888	-0.589320	-1.084290
H140	H	1.756888	-0.089320	-0.584290
H141	H	1.338307	-0.682343	-1.188922
H142	H	1.838307	-0.182343	-0.688922
O143	O	1.323426	-0.665208	-1.368785
O144	O	1.823426	-0.165208	-0.868785
H145	H	1.303152	-0.641992	-1.437440
H146	H	1.803152	-0.141992	-0.937440
O147	O	1.095215	-0.404000	-1.412987
O148	O	1.595215	0.096000	-0.912987
H149	H	1.069938	-0.459020	-1.436606
H150	H	1.569938	0.040980	-0.936606
O151	O	1.001667	-0.297462	-1.293079
O152	O	1.501667	0.202538	-0.793079
H153	H	0.972940	-0.264642	-1.237735
H154	H	1.472940	0.235358	-0.737735
O155	O	0.971543	-0.263086	-1.144674
O156	O	1.471543	0.236914	-0.644674
H157	H	0.918303	-0.286249	-1.179663
H158	H	1.418303	0.213751	-0.679663
H159	H	0.472043	-0.602032	-0.826486
H160	H	0.972043	-0.102032	-0.326486
O161	O	0.818443	-0.527709	-0.724688
O162	O	1.318443	-0.027709	-0.224688
H163	H	0.799425	-0.592533	-0.709370
H164	H	1.299425	-0.092533	-0.209370
H165	H	0.436662	-0.430370	-0.591323
H166	H	0.936662	0.069630	-0.091323
