data_functionalizedCrystal
_audit_creation_method	'MofGen! by Chris Wilmer'
_symmetry_space_group_name_H-M	'P1'
_symmetry_Int_Tables_number	1
_symmetry_cell_setting	triclinic
loop_
_symmetry_equiv_pos_as_xyz
  x,y,z
_cell_length_a	27.780901
_cell_length_b	27.780865
_cell_length_c	27.780936
_cell_angle_alpha	89.996322
_cell_angle_beta	59.999340
_cell_angle_gamma	60.000211
loop_
_atom_site_label
_atom_site_type_symbol
_atom_site_fract_x
_atom_site_fract_y
_atom_site_fract_z
O1	O	-0.344529	-0.410276	0.014325
O2	O	-0.245961	-0.340277	-0.014246
O3	O	-0.344526	-0.340276	0.084319
O4	O	-0.245964	-0.410277	-0.084241
O5	O	-0.424581	-0.260220	0.084311
O6	O	-0.326016	-0.260220	-0.014254
O7	O	-0.424584	-0.330220	0.014317
Cu8	Cu	-0.382610	-0.287910	0.000030
Cu9	Cu	-0.287936	-0.382586	0.000040
O10	O	-0.326019	-0.330220	-0.084249
C11	C	-0.177732	-0.120432	-0.029858
C12	C	-0.211526	-0.056937	-0.025766
C13	C	-0.206426	-0.149669	-0.030269
C14	C	-0.090563	-0.207600	-0.029863
C15	C	-0.031155	-0.237305	-0.025777
C16	C	-0.119389	-0.236704	-0.030274
C17	C	-0.177727	-0.207601	-0.029866
C18	C	-0.211516	-0.237307	-0.025782
C19	C	-0.119393	-0.149668	-0.030266
C20	C	-0.238815	-0.261305	-0.022482
C21	C	-0.238829	-0.005638	-0.022458
C22	C	0.016840	-0.261303	-0.022474
C23	C	-0.273062	-0.291413	-0.018342
C24	C	-0.273081	0.058718	-0.018310
C25	C	0.077052	-0.291410	-0.018331
C26	C	-0.492831	-0.462887	0.029959
C27	C	-0.459038	-0.433184	0.025868
C28	C	-0.464139	-0.520816	0.030372
C29	C	-0.579997	-0.462888	0.029959
C30	C	-0.639402	-0.433186	0.025868
C31	C	-0.551173	-0.520817	0.030372
C32	C	-0.492837	-0.550051	0.029967
C33	C	-0.459049	-0.613544	0.025886
C34	C	-0.551168	-0.433786	0.030363
C35	C	-0.431751	-0.664840	0.022587
C36	C	-0.431736	-0.409188	0.022561
C37	C	-0.687395	-0.409191	0.022562
C38	C	-0.397506	-0.729194	0.018450
C39	C	-0.397485	-0.379083	0.018414
C40	C	-0.747604	-0.379087	0.018415
C41	C	-0.177729	-0.462885	-0.372313
C42	C	-0.211519	-0.433181	-0.402019
C43	C	-0.119394	-0.520814	-0.401412
C44	C	-0.177728	-0.462885	-0.285148
C45	C	-0.211518	-0.433183	-0.221655
C46	C	-0.119393	-0.520814	-0.314379
C47	C	-0.090567	-0.550048	-0.372307
C48	C	-0.031163	-0.613541	-0.402006
C49	C	-0.206423	-0.433783	-0.314385
C50	C	0.016828	-0.664838	-0.425999
C51	C	-0.238819	-0.409185	-0.426018
C52	C	-0.238817	-0.409187	-0.170359
C53	C	0.077036	-0.729191	-0.456100
C54	C	-0.273067	-0.379080	-0.456125
C55	C	-0.273064	-0.379083	-0.106006
O56	O	0.234725	-0.330221	0.014325
O57	O	0.094720	-0.260214	-0.014235
O58	O	0.094727	-0.260231	0.084326
O59	O	0.234718	-0.330205	-0.084235
O60	O	0.094731	-0.340293	0.084318
O61	O	0.094724	-0.340276	-0.014242
O62	O	0.234729	-0.410283	0.014318
Cu63	Cu	0.164727	-0.382590	0.000037
Cu64	Cu	0.164722	-0.287908	0.000046
O65	O	0.234722	-0.410267	-0.084243
O66	O	-0.424608	0.249044	0.014358
O67	O	-0.326038	0.080480	-0.014217
O68	O	-0.424600	0.179030	0.084350
O69	O	-0.326047	0.150494	-0.084209
O70	O	-0.344542	0.179031	0.084353
O71	O	-0.245980	0.080481	-0.014214
O72	O	-0.344550	0.249045	0.014361
Cu73	Cu	-0.287955	0.164763	0.000073
Cu74	Cu	-0.382633	0.164762	0.000070
O75	O	-0.245989	0.150495	-0.084206
O76	O	-0.344526	-0.340276	-0.574994
O77	O	-0.245967	-0.410274	-0.504987
O78	O	-0.344531	-0.410275	-0.504986
O79	O	-0.245962	-0.340275	-0.574995
O80	O	-0.424587	-0.330217	-0.424933
O81	O	-0.326023	-0.330216	-0.424934
O82	O	-0.424582	-0.260219	-0.494941
Cu83	Cu	-0.382612	-0.287908	-0.452628
Cu84	Cu	-0.287937	-0.382585	-0.547300
O85	O	-0.326018	-0.260218	-0.494942
O86	O	0.234698	-0.919513	-0.494893
O87	O	0.094706	-0.750954	-0.424904
O88	O	0.094700	-0.849515	-0.424896
O89	O	0.234704	-0.820952	-0.494901
O90	O	0.094698	-0.849513	-0.504955
O91	O	0.094704	-0.750952	-0.504962
O92	O	0.234696	-0.919511	-0.574952
Cu93	Cu	0.164700	-0.835231	-0.547267
Cu94	Cu	0.164702	-0.835234	-0.452588
O95	O	0.234702	-0.820950	-0.574960
C96	C	-0.579980	-0.120446	0.372377
C97	C	-0.639384	-0.056953	0.402075
C98	C	-0.551154	-0.149680	0.401482
C99	C	-0.492818	-0.207610	0.285218
C100	C	-0.459029	-0.237312	0.221725
C101	C	-0.464124	-0.236712	0.314455
C102	C	-0.492818	-0.207610	0.372384
C103	C	-0.459029	-0.237312	0.402090
C104	C	-0.551153	-0.149681	0.314448
C105	C	-0.431729	-0.261308	0.426089
C106	C	-0.687375	-0.005657	0.426068
C107	C	-0.431729	-0.261309	0.170429
C108	C	-0.397481	-0.291413	0.456197
C109	C	-0.747583	0.058696	0.456168
C110	C	-0.397481	-0.291414	0.106076
C111	C	-0.177724	-0.207655	0.372380
C112	C	-0.211513	-0.237363	0.402077
C113	C	-0.206422	-0.149726	0.401485
C114	C	-0.090558	-0.207643	0.285223
C115	C	-0.031150	-0.237340	0.221731
C116	C	-0.119389	-0.149715	0.314460
C117	C	-0.177728	-0.120486	0.372388
C118	C	-0.211522	-0.056993	0.402094
C119	C	-0.119384	-0.236751	0.314452
C120	C	-0.238825	-0.005697	0.426093
C121	C	-0.238812	-0.261364	0.426069
C122	C	0.016846	-0.261331	0.170436
C123	C	-0.273078	0.058656	0.456201
C124	C	-0.273059	-0.291475	0.456169
C125	C	0.077059	-0.291429	0.106084
C126	C	0.507177	-0.550011	-0.372305
C127	C	0.540971	-0.613504	-0.402011
C128	C	0.535871	-0.520772	-0.401402
C129	C	0.420007	-0.462854	-0.285140
C130	C	0.360599	-0.433158	-0.221648
C131	C	0.448834	-0.433747	-0.314369
C132	C	0.507173	-0.462843	-0.372297
C133	C	0.540962	-0.433135	-0.401994
C134	C	0.448838	-0.520783	-0.314377
C135	C	0.568262	-0.409134	-0.425986
C136	C	0.568274	-0.664800	-0.426010
C137	C	0.312603	-0.409167	-0.170353
C138	C	0.602509	-0.379023	-0.456085
C139	C	0.602526	-0.729153	-0.456118
C140	C	0.252390	-0.379068	-0.106001
C141	C	-0.492816	0.194612	0.372416
C142	C	-0.459022	0.190520	0.402118
C143	C	-0.551151	0.195014	0.401516
C144	C	-0.492823	0.194626	0.285253
C145	C	-0.459037	0.190549	0.221761
C146	C	-0.551158	0.195028	0.314486
C147	C	-0.579981	0.194611	0.372414
C148	C	-0.639385	0.190518	0.402115
C149	C	-0.464125	0.195029	0.314488
C150	C	-0.687376	0.187209	0.426110
C151	C	-0.431720	0.187212	0.426114
C152	C	-0.431740	0.187253	0.170465
C153	C	-0.747584	0.183060	0.456214
C154	C	-0.397468	0.183064	0.456219
C155	C	-0.397496	0.183120	0.106113
O156	O	-0.344568	0.248988	0.495005
O157	O	-0.245985	0.080426	0.425005
O158	O	-0.344565	0.178981	0.425012
O159	O	-0.245988	0.150433	0.494998
O160	O	-0.424607	0.178964	0.505074
O161	O	-0.326027	0.080409	0.505066
O162	O	-0.424610	0.248971	0.575067
Cu163	Cu	-0.382627	0.164688	0.547377
Cu164	Cu	-0.287967	0.164708	0.452695
O165	O	-0.326030	0.150416	0.575059
C166	C	-0.090610	0.134914	-0.372271
C167	C	-0.031206	0.139008	-0.401973
C168	C	-0.119440	0.134511	-0.401373
C169	C	-0.177767	0.134899	-0.285109
C170	C	-0.211553	0.138977	-0.221617
C171	C	-0.206465	0.134497	-0.314343
C172	C	-0.177775	0.134913	-0.372271
C173	C	-0.211569	0.139006	-0.401973
C174	C	-0.119432	0.134498	-0.314343
C175	C	-0.238872	0.142313	-0.425969
C176	C	0.016785	0.142316	-0.425968
C177	C	-0.238849	0.142272	-0.170321
C178	C	-0.273125	0.146461	-0.456073
C179	C	0.076993	0.146465	-0.456072
C180	C	-0.273092	0.146405	-0.105969
H181	H	-0.095267	-0.126195	-0.030923
H182	H	-0.575287	-0.386190	0.031010
H183	H	-0.095332	0.133885	-0.290859
H184	H	-0.417183	0.195687	0.291019
H185	H	0.424704	-0.386151	-0.290893
F186	F	-0.087851	-0.298960	0.283769
H187	H	-0.095315	0.133863	-0.448969
F188	F	-0.267782	-0.118990	-0.031127
F189	F	-0.087852	-0.298919	-0.031133
H190	H	-0.095265	-0.126240	0.290989
H191	H	0.424724	-0.544266	-0.290908
F192	F	-0.267755	-0.119068	0.463708
H193	H	-0.575283	-0.126208	0.449079
F194	F	-0.087868	-0.551495	-0.463620
F195	F	0.597225	-0.551441	-0.463615
F196	F	-0.582690	-0.119004	0.283769
H197	H	-0.575300	-0.544288	0.031025
H198	H	-0.575290	0.195695	0.291016
F199	F	-0.582683	0.195864	0.463729
H200	H	-0.253406	0.133837	-0.290871
H201	H	-0.095270	-0.544284	-0.290903
F202	F	-0.402764	-0.551503	0.031202
F203	F	-0.402745	-0.298912	0.283769
F204	F	-0.267781	-0.371573	-0.283709
