data_functionalizedCrystal
_audit_creation_method	'MofGen! by Chris Wilmer'
_symmetry_space_group_name_H-M	'P1'
_symmetry_Int_Tables_number	1
_symmetry_cell_setting	triclinic
loop_
_symmetry_equiv_pos_as_xyz
  x,y,z
_cell_length_a	14.044220
_cell_length_b	14.044191
_cell_length_c	12.503552
_cell_angle_alpha	86.157523
_cell_angle_beta	86.157908
_cell_angle_gamma	86.809673
loop_
_atom_site_label
_atom_site_type_symbol
_atom_site_fract_x
_atom_site_fract_y
_atom_site_fract_z
O1	O	-0.225150	1.282214	-0.089264
O2	O	0.108183	1.615548	0.244069
O3	O	0.441516	1.948881	0.577403
O4	O	-0.216837	1.005543	-0.089278
O5	O	0.116496	1.338876	0.244056
O6	O	0.449830	1.672209	0.577389
O7	O	-0.082658	1.139725	-0.089266
O8	O	0.250675	1.473059	0.244067
O9	O	0.584009	1.806392	0.577400
O10	O	-0.359329	1.148032	-0.089275
O11	O	-0.025996	1.481365	0.244058
O12	O	0.307337	1.814698	0.577391
O13	O	-0.092758	1.129622	0.089375
O14	O	0.240576	1.462956	0.422709
O15	O	0.573909	1.796289	0.756042
O16	O	-0.226937	0.995439	0.089364
O17	O	0.106397	1.328773	0.422697
O18	O	0.439730	1.662106	0.756031
O19	O	-0.235250	1.272111	0.089378
O20	O	0.098083	1.605444	0.422711
O21	O	0.431417	1.938778	0.756044
Cu22	Cu	-0.232016	1.132853	0.105682
Cu23	Cu	0.101318	1.466186	0.439016
Cu24	Cu	0.434651	1.799519	0.772349
Cu25	Cu	-0.220072	1.144801	-0.105582
Cu26	Cu	0.113262	1.478134	0.227751
Cu27	Cu	0.446595	1.811468	0.561085
O28	O	-0.369429	1.137928	0.089366
O29	O	-0.036096	1.471262	0.422700
O30	O	0.297238	1.804595	0.756033
C31	C	-0.218250	0.964869	0.000041
C32	C	0.115083	1.298203	0.333375
C33	C	0.448416	1.631536	0.666708
C34	C	-0.207403	0.858726	0.000036
C35	C	0.125931	1.192060	0.333370
C36	C	0.459264	1.525393	0.666703
C37	C	-0.264504	0.613267	0.000045
C38	C	0.068830	0.946601	0.333378
C39	C	0.402163	1.279934	0.666712
C40	C	-0.187587	0.664393	0.000046
C41	C	0.145746	0.997726	0.333379
C42	C	0.479079	1.331060	0.666712
C43	C	-0.198615	0.772530	0.000040
C44	C	0.134718	1.105863	0.333374
C45	C	0.468051	1.439197	0.666707
C46	C	-0.253477	0.505120	0.000050
C47	C	0.079856	0.838454	0.333384
C48	C	0.413190	1.171787	0.666717
C49	C	-0.400001	1.146616	0.000044
C50	C	-0.066668	1.479949	0.333378
C51	C	0.266666	1.813282	0.666711
C52	C	-0.506144	1.157461	0.000041
C53	C	-0.172810	1.490794	0.333374
C54	C	0.160523	1.824127	0.666708
C55	C	-0.700482	1.177287	0.000047
C56	C	-0.367149	1.510620	0.333380
C57	C	-0.033816	1.843953	0.666713
C58	C	-0.751610	1.100372	0.000044
C59	C	-0.418277	1.433705	0.333377
C60	C	-0.084943	1.767039	0.666711
C61	C	-0.859747	1.111404	0.000047
C62	C	-0.526413	1.444737	0.333380
C63	C	-0.193080	1.778070	0.666714
C64	C	-0.592336	1.166257	0.000044
C65	C	-0.259003	1.499590	0.333377
C66	C	0.074331	1.832923	0.666710
C67	C	-0.052086	1.131038	0.000053
C68	C	0.281247	1.464372	0.333387
C69	C	0.614581	1.797705	0.666720
C70	C	0.054057	1.120194	0.000050
C71	C	0.387391	1.453527	0.333383
C72	C	0.720724	1.786860	0.666716
C73	C	-0.233837	1.312785	0.000056
C74	C	0.099497	1.646118	0.333390
C75	C	0.432830	1.979451	0.666723
C76	C	-0.244684	1.418928	0.000055
C77	C	0.088649	1.752261	0.333388
C78	C	0.421983	2.085595	0.666721
N79	N	-0.240416	1.124456	0.254274
N80	N	0.092917	1.457789	0.587608
N81	N	0.426250	1.791123	0.920941
N82	N	-0.211664	1.153205	-0.254174
N83	N	0.121669	1.486538	0.079159
N84	N	0.455003	1.819871	0.412492
C85	C	-0.199303	1.165552	0.526711
C86	C	0.134031	1.498885	0.860044
C87	C	0.467364	1.832218	1.193378
C88	C	-0.252775	1.112112	0.473382
C89	C	0.080559	1.445445	0.806716
C90	C	0.413892	1.778779	1.140049
C91	C	-0.245897	1.118982	0.351459
C92	C	0.087437	1.452315	0.684793
C93	C	0.420770	1.785649	1.018126
C94	C	-0.206179	1.158683	0.648645
C95	C	0.127154	1.492016	0.981978
C96	C	0.460487	1.825349	1.315312
H97	H	-0.113451	0.626954	-0.000027
H98	H	0.219883	0.960287	0.333306
H99	H	0.553216	1.293620	0.666639
H100	H	-0.737922	1.251414	0.000055
H101	H	-0.404588	1.584747	0.333388
H102	H	-0.071255	1.918081	0.666721
N103	N	-0.702023	1.002171	0.000068
N104	N	-0.368690	1.335504	0.333401
N105	N	-0.035357	1.668837	0.666735
H106	H	-0.751214	0.952375	0.000075
H107	H	-0.417880	1.285709	0.333408
H108	H	-0.084547	1.619042	0.666742
H109	H	-0.657063	0.997989	-0.066151
H110	H	-0.323730	1.331323	0.267182
H111	H	0.009603	1.664656	0.600516
H112	H	-0.303720	1.061202	0.519294
H113	H	0.029613	1.394535	0.852627
H114	H	0.362947	1.727869	1.185960
N115	N	-0.131818	1.232970	0.465890
N116	N	0.201515	1.566303	0.799223
N117	N	0.534848	1.899637	1.132557
H118	H	-0.169282	1.280932	0.419219
H119	H	0.164052	1.614265	0.752553
H120	H	0.497385	1.947598	1.085886
H121	H	-0.097092	1.267618	0.518520
H122	H	0.236241	1.600951	0.851853
H123	H	0.569574	1.934285	1.185187
N124	N	-0.362696	0.662856	0.000035
N125	N	-0.029363	0.996189	0.333368
N126	N	0.303971	1.329522	0.666702
H127	H	-0.356753	0.734196	0.000029
H128	H	-0.023420	1.067529	0.333362
H129	H	0.309914	1.400862	0.666696
H130	H	-0.394758	0.647466	-0.066194
H131	H	-0.061424	0.980800	0.267139
H132	H	0.271909	1.314133	0.600472
