data_functionalizedCrystal
_audit_creation_method	'MofGen! by Chris Wilmer'
_symmetry_space_group_name_H-M	'P1'
_symmetry_Int_Tables_number	1
_symmetry_cell_setting	triclinic
loop_
_symmetry_equiv_pos_as_xyz
  x,y,z
_cell_length_a	12.759401
_cell_length_b	16.120444
_cell_length_c	12.759386
_cell_angle_alpha	92.833981
_cell_angle_beta	89.957969
_cell_angle_gamma	92.926494
loop_
_atom_site_label
_atom_site_type_symbol
_atom_site_fract_x
_atom_site_fract_y
_atom_site_fract_z
Zn1	Zn	1.585224	-0.331595	-0.615161
Zn2	Zn	1.576101	-0.471104	-0.448381
Zn3	Zn	1.409449	-0.331713	-0.439505
Zn4	Zn	1.400576	-0.470965	-0.624011
O5	O	1.492837	-0.401344	-0.531764
O6	O	1.731034	-0.350110	-0.593049
O7	O	1.553890	-0.452722	-0.300189
O8	O	1.440296	-0.215035	-0.455388
O9	O	1.724332	-0.452607	-0.470516
O10	O	1.569438	-0.214948	-0.584442
O11	O	1.431451	-0.350312	-0.293668
O12	O	1.261251	-0.350176	-0.463969
O13	O	1.425174	-0.452369	-0.769851
O14	O	1.254732	-0.452484	-0.599525
O15	O	1.560834	-0.349975	-0.763350
O16	O	1.545287	-0.587748	-0.479096
O17	O	1.416329	-0.587646	-0.608131
C18	C	1.219871	-0.401328	-0.531745
C19	C	1.103094	-0.401342	-0.531762
C20	C	0.935134	-0.454708	-0.602265
C21	C	1.044858	-0.454697	-0.602247
C22	C	1.051598	-0.348000	-0.461284
C23	C	0.941875	-0.348015	-0.461297
C24	C	0.876905	-0.508061	-0.672761
C25	C	0.928392	-0.561404	-0.743238
C26	C	1.038117	-0.561393	-0.743221
C27	C	1.096354	-0.508039	-0.672725
C28	C	1.478884	-0.617946	-0.545560
C29	C	1.473010	-0.710610	-0.551497
C30	C	1.523563	-0.921576	-0.501193
C31	C	1.462306	-0.880261	-0.562347
C32	C	1.468264	-0.785858	-0.556308
C33	C	1.517607	-1.015988	-0.507230
C34	C	1.766870	-0.401361	-0.531785
C35	C	1.883646	-0.401368	-0.531794
C36	C	1.493032	-0.401143	-0.805785
C37	C	1.493115	-0.401057	-0.922557
C38	C	1.506874	-0.183896	-0.517938
C39	C	1.512856	-0.091233	-0.512046
C40	C	1.492708	-0.401485	-0.258806
C41	C	1.492844	-0.401335	-0.142020
C42	C	1.428650	-0.348338	-0.083833
C43	C	1.428788	-0.348197	0.025900
C44	C	1.557316	-0.454057	0.019248
C45	C	1.557182	-0.454193	-0.090482
C46	C	1.364311	-0.295480	-0.135371
C47	C	1.300111	-0.242479	-0.077184
C48	C	1.300250	-0.242338	0.032549
C49	C	1.364587	-0.295197	0.084095
H50	H	0.899953	-0.304577	-0.403919
C51	C	1.465273	-0.273849	-0.291428
C52	C	1.364164	-0.295629	-0.255989
H53	H	1.465182	-0.273947	-0.365892
H54	H	1.486439	-0.219921	-0.263382
H55	H	1.512767	-0.312919	-0.269055
H56	H	1.316672	-0.256556	-0.278356
H57	H	1.342986	-0.349566	-0.284046
C58	C	1.263634	-0.316821	0.240158
C59	C	1.364743	-0.295045	0.204715
H60	H	1.263732	-0.316734	0.314622
H61	H	1.216148	-0.277753	0.217797
H62	H	1.242461	-0.370754	0.212103
H63	H	1.385913	-0.241110	0.232764
H64	H	1.412245	-0.334116	0.227086
C65	C	1.020429	-0.666855	-0.882562
C66	C	1.094715	-0.620027	-0.820686
H67	H	1.055371	-0.703047	-0.930393
H68	H	0.975549	-0.698727	-0.838760
H69	H	0.980000	-0.630545	-0.920511
H70	H	1.135139	-0.656337	-0.782731
H71	H	1.139613	-0.588152	-0.864493
C72	C	0.804380	-0.573062	-0.885303
C73	C	0.864382	-0.620048	-0.820723
H74	H	0.764870	-0.609269	-0.933143
H75	H	0.758016	-0.541303	-0.843335
H76	H	0.849567	-0.536758	-0.923241
H77	H	0.819195	-0.656349	-0.782779
H78	H	0.910751	-0.651821	-0.862696
H79	H	1.185699	-0.508039	-0.672711
C80	C	1.242821	-0.195697	-0.242441
C81	C	1.229393	-0.184379	-0.133838
H82	H	1.199155	-0.159830	-0.277413
H83	H	1.314079	-0.183111	-0.259793
H84	H	1.224317	-0.251824	-0.263771
H85	H	1.247905	-0.128253	-0.112507
H86	H	1.158119	-0.196959	-0.116478
H87	H	0.787561	-0.508073	-0.672785
H88	H	1.609456	-0.497347	-0.137859
H89	H	1.099023	-0.304560	-0.403891
H90	H	1.580476	-0.886052	-0.444304
H91	H	1.609695	-0.497093	0.061225
H92	H	1.405389	-0.915789	-0.619238
H93	H	1.247983	-0.199176	0.079923
