data_functionalizedCrystal
_audit_creation_method	'MofGen! by Chris Wilmer'
_symmetry_space_group_name_H-M	'P1'
_symmetry_Int_Tables_number	1
_symmetry_cell_setting	triclinic
loop_
_symmetry_equiv_pos_as_xyz
  x,y,z
_cell_length_a	17.699083
_cell_length_b	14.044220
_cell_length_c	16.776229
_cell_angle_alpha	89.992645
_cell_angle_beta	89.998886
_cell_angle_gamma	88.235946
loop_
_atom_site_label
_atom_site_type_symbol
_atom_site_fract_x
_atom_site_fract_y
_atom_site_fract_z
O1	O	1.012346	0.119850	-0.066178
O2	O	1.512346	0.619850	0.433822
O3	O	0.793043	0.135443	-0.066204
O4	O	1.293043	0.635443	0.433796
O5	O	0.899403	-0.010330	-0.066183
O6	O	1.399403	0.489670	0.433817
O7	O	0.905986	0.265624	-0.066198
O8	O	1.405986	0.765624	0.433802
O9	O	0.899387	-0.010339	0.066393
O10	O	1.399387	0.489661	0.566393
O11	O	0.793027	0.135434	0.066372
O12	O	1.293027	0.635434	0.566372
O13	O	1.012330	0.119841	0.066399
O14	O	1.512330	0.619841	0.566399
Zn15	Zn	0.902676	0.127636	0.087435
Zn16	Zn	1.402676	0.627636	0.587435
Zn17	Zn	0.902697	0.127648	-0.087240
Zn18	Zn	1.402697	0.627648	0.412760
O19	O	0.905970	0.265615	0.066378
O20	O	1.405970	0.765615	0.566378
C21	C	0.764800	0.134880	0.000081
C22	C	1.264800	0.634880	0.500081
C23	C	0.680666	0.133204	0.000071
C24	C	1.180666	0.633204	0.500071
C25	C	0.637948	0.218769	0.000067
C26	C	1.137948	0.718769	0.500067
C27	C	0.558895	0.217189	0.000077
C28	C	1.058895	0.717189	0.500077
C29	C	0.522563	0.130041	0.000086
C30	C	1.022563	0.630041	0.500086
C31	C	0.565287	0.044469	0.000093
C32	C	1.065287	0.544469	0.500093
C33	C	0.644338	0.046050	0.000088
C34	C	1.144338	0.546050	0.500088
C35	C	0.246484	0.038089	0.000113
C36	C	0.746484	0.538089	0.500113
C37	C	0.167427	0.036514	0.000115
C38	C	0.667427	0.536514	0.500115
C39	C	0.161041	0.209227	0.000102
C40	C	0.661041	0.709227	0.500102
C41	C	0.240092	0.210809	0.000097
C42	C	0.740092	0.710809	0.500097
C43	C	0.282809	0.125237	0.000108
C44	C	0.782809	0.625237	0.500108
C45	C	0.368527	0.126952	0.000098
C46	C	0.868527	0.626952	0.500098
C47	C	0.436847	0.128325	0.000090
C48	C	0.936847	0.628325	0.500090
C49	C	0.896513	-0.045643	0.000105
C50	C	1.396513	0.454357	0.500105
C51	C	0.887917	-0.150849	0.000105
C52	C	1.387917	0.349151	0.500105
C53	C	0.872202	-0.343474	0.000091
C54	C	1.372202	0.156526	0.500091
C55	C	0.933168	-0.401248	0.000096
C56	C	1.433168	0.098752	0.500096
C57	C	0.924424	-0.508431	0.000089
C58	C	1.424424	-0.008431	0.500089
C59	C	0.880945	-0.236281	0.000099
C60	C	1.380945	0.263719	0.500099
C61	C	1.040574	0.120404	0.000112
C62	C	1.540574	0.620404	0.500112
C63	C	1.124707	0.122081	0.000117
C64	C	1.624707	0.622081	0.500117
C65	C	0.908860	0.300927	0.000088
C66	C	1.408860	0.800927	0.500088
C67	C	0.917456	0.406133	0.000083
C68	C	1.417456	0.906133	0.500083
N69	N	0.902667	0.127628	0.206646
N70	N	1.402667	0.627628	0.706646
N71	N	0.902712	0.127649	-0.206452
N72	N	1.402712	0.627649	0.293548
C73	C	0.949781	0.063106	0.248372
C74	C	1.449781	0.563106	0.748372
C75	C	0.949785	0.063105	0.331825
C76	C	1.449785	0.563105	0.831825
C77	C	0.902679	0.127631	0.373549
C78	C	1.402679	0.627631	0.873549
C79	C	0.855560	0.192156	0.331817
C80	C	1.355560	0.692156	0.831817
C81	C	0.855552	0.192152	0.248366
C82	C	1.355552	0.692152	0.748366
C83	C	0.855589	0.192175	0.668364
C84	C	1.355589	0.692175	1.168364
C85	C	0.855601	0.192176	0.751821
C86	C	1.355601	0.692176	1.251821
C87	C	0.949821	0.063128	0.751822
C88	C	1.449821	0.563128	1.251822
C89	C	0.949813	0.063123	0.668372
C90	C	1.449813	0.563123	1.168372
C91	C	0.902692	0.127645	0.626647
C92	C	1.402692	0.627645	1.126647
C93	C	0.902687	0.127644	0.536159
C94	C	1.402687	0.627644	1.036159
C95	C	0.902687	0.127638	0.464036
C96	C	1.402687	0.627638	0.964036
H97	H	0.524117	0.286865	0.000073
H98	H	1.024117	0.786865	0.500073
N99	N	1.011008	-0.360153	0.000123
N100	N	1.511008	0.139847	0.500123
H101	H	1.039448	-0.382295	-0.049017
H102	H	1.539448	0.117705	0.450983
H103	H	1.006244	-0.288306	0.000160
H104	H	1.506244	0.211694	0.500160
N105	N	0.794369	-0.384574	0.000081
N106	N	1.294369	0.115426	0.500081
H107	H	0.799077	-0.456427	0.000080
H108	H	1.299077	0.043573	0.500080
H109	H	0.765980	-0.362361	0.049229
H110	H	1.265980	0.137639	0.549229
H111	H	0.269670	0.281773	0.000086
H112	H	0.769670	0.781773	0.500086
H113	H	0.535699	-0.026488	0.000112
H114	H	1.035699	0.473512	0.500112
N115	N	1.000593	-0.006486	0.203372
N116	N	1.500593	0.493514	0.703372
H117	H	1.030439	-0.047361	0.242472
H118	H	1.530439	0.452639	0.742472
H119	H	0.968793	-0.048342	0.168757
H120	H	1.468793	0.451658	0.668757
H121	H	0.126251	0.278904	0.000097
H122	H	0.626251	0.778904	0.500097
N123	N	1.000628	-0.006454	0.376830
N124	N	1.500628	0.493546	0.876830
H125	H	1.030481	-0.047316	0.337735
H126	H	1.530481	0.452684	0.837735
H127	H	1.036521	0.029819	0.411430
H128	H	1.536521	0.529819	0.911430
N129	N	0.804780	0.261770	0.623360
N130	N	1.304780	0.761770	1.123360
H131	H	0.768826	0.225605	0.588747
H132	H	1.268826	0.725605	1.088747
H133	H	0.774992	0.302637	0.662502
H134	H	1.274992	0.802637	1.162502
H135	H	0.679119	-0.023626	0.000091
H136	H	1.179119	0.476374	0.500091
N137	N	0.677124	0.312771	0.000057
N138	N	1.177124	0.812771	0.500057
H139	H	0.709783	0.317275	0.049201
H140	H	1.209783	0.817275	0.549201
H141	H	0.709735	0.317227	-0.049124
H142	H	1.209735	0.817227	0.450876
H143	H	0.988174	0.010583	0.634402
H144	H	1.488174	0.510583	1.134402
N145	N	0.804758	0.261759	0.376818
N146	N	1.304758	0.761759	0.876818
H147	H	0.774910	0.302632	0.337719
H148	H	1.274910	0.802632	0.837719
H149	H	0.768859	0.225532	0.411455
H150	H	1.268859	0.725532	0.911455
N151	N	0.292558	-0.054197	0.000110
N152	N	0.792558	0.445803	0.500110
H153	H	0.325500	-0.057397	0.049255
H154	H	0.825500	0.442603	0.549255
H155	H	0.257500	-0.109594	0.000081
H156	H	0.757500	0.390406	0.500081
N157	N	1.000646	-0.006468	0.796825
N158	N	1.500646	0.493532	1.296825
H159	H	0.993504	0.003320	0.856022
H160	H	1.493504	0.503320	1.356022
H161	H	0.987371	-0.073689	0.782247
H162	H	1.487371	0.426311	1.282247
H163	H	0.817239	0.244723	0.785791
H164	H	1.317239	0.744723	1.285791
H165	H	0.137848	-0.034456	0.000124
H166	H	0.637848	0.465544	0.500124
N167	N	0.804733	0.261738	0.203357
N168	N	1.304733	0.761738	0.703357
H169	H	0.774893	0.302617	0.242451
H170	H	1.274893	0.802617	0.742451
H171	H	0.836524	0.303591	0.168720
H172	H	1.336524	0.803591	0.668720
