data_functionalizedCrystal
_audit_creation_method	'MofGen! by Chris Wilmer'
_symmetry_space_group_name_H-M	'P1'
_symmetry_Int_Tables_number	1
_symmetry_cell_setting	triclinic
loop_
_symmetry_equiv_pos_as_xyz
  x,y,z
_cell_length_a	6.817900
_cell_length_b	14.125469
_cell_length_c	10.992468
_cell_angle_alpha	94.595596
_cell_angle_beta	108.765637
_cell_angle_gamma	100.398878
loop_
_atom_site_label
_atom_site_type_symbol
_atom_site_fract_x
_atom_site_fract_y
_atom_site_fract_z
V1	V	-4.071590	-0.133099	-0.400094
O2	O	-4.074431	0.006411	-0.392989
O3	O	-4.007237	-0.263928	-0.396867
O4	O	-4.049840	-0.131045	-0.574813
O5	O	-4.031533	-0.127392	-0.213810
V6	V	-4.553831	-0.116413	-0.377873
O7	O	-4.335659	-0.169702	-0.448839
O8	O	-4.739959	-0.079810	-0.329128
O9	O	-4.394977	0.014416	-0.381100
O10	O	-4.668387	-0.255923	-0.384978
O11	O	-4.711284	-0.122121	-0.564157
O12	O	-4.352374	-0.118467	-0.203154
C13	C	-3.847495	-0.295821	-0.390428
C14	C	-3.876344	-0.402776	-0.388954
C15	C	-3.929234	-0.598601	-0.386274
C16	C	-4.115555	-0.650923	-0.391698
C17	C	-4.144985	-0.759887	-0.390206
C18	C	-3.899795	-0.489627	-0.387765
C19	C	-3.901838	-0.126315	-0.617415
C20	C	-3.965233	-0.125501	-0.760245
C21	C	-3.768810	-0.119384	-0.806765
C22	C	-3.834536	-0.118155	-0.955248
C23	C	-4.131739	-0.035102	-0.948852
C24	C	-4.064282	-0.035847	-0.800176
C25	C	-4.135403	-0.219746	-0.837755
C26	C	-4.197720	-0.219988	-0.986474
C27	C	-4.218060	0.046304	-0.387535
C28	C	-4.168450	0.153257	-0.389018
C29	C	-4.163717	-0.123200	-0.160545
C30	C	-4.079561	-0.124009	-0.017714
H31	H	-3.791833	-0.635639	-0.380509
N32	N	-4.287955	-0.604476	-0.398901
N33	N	-4.463107	-0.653606	-0.403987
H34	H	-4.584858	-0.620800	-0.409068
H35	H	-4.377319	-0.229848	-1.030522
H36	H	-3.642154	-0.051385	-0.752872
H37	H	-3.788736	-0.181693	-1.002149
N38	N	-3.670344	-0.199632	-0.775002
N39	N	-3.743770	-0.262268	-0.717702
H40	H	-3.674228	-0.318947	-0.695262
H41	H	-3.739759	-0.049266	-0.974144
H42	H	-3.945970	0.035110	-0.748614
H43	H	-4.208715	-0.036388	-0.769167
N44	N	-4.353526	-0.036241	-0.999602
N45	N	-4.475900	-0.102749	-1.087300
H46	H	-4.632541	-0.103556	-1.123145
H47	H	-4.047238	0.035914	-0.969295
H48	H	-4.073483	-0.287934	-0.812038
N49	N	-4.148175	-0.302569	-1.044617
N50	N	-4.026325	-0.290856	-1.108843
H51	H	-3.991339	-0.349177	-1.149919
N52	N	-4.320056	-0.226467	-0.801127
N53	N	-4.326563	-0.162209	-0.718326
H54	H	-4.456964	-0.166947	-0.692451
