data_functionalizedCrystal
_audit_creation_method	'MofGen! by Chris Wilmer'
_symmetry_space_group_name_H-M	'P1'
_symmetry_Int_Tables_number	1
_symmetry_cell_setting	triclinic
loop_
_symmetry_equiv_pos_as_xyz
  x,y,z
_cell_length_a	10.489741
_cell_length_b	18.266242
_cell_length_c	10.489741
_cell_angle_alpha	89.993983
_cell_angle_beta	95.460826
_cell_angle_gamma	90.006327
loop_
_atom_site_label
_atom_site_type_symbol
_atom_site_fract_x
_atom_site_fract_y
_atom_site_fract_z
O1	O	1.694062	0.060835	-0.179970
O2	O	2.194062	0.560835	0.320030
O3	O	1.322866	0.060847	-0.196863
O4	O	1.822866	0.560847	0.303137
O5	O	1.516910	0.060836	-0.002819
O6	O	2.016910	0.560836	0.497181
O7	O	1.500018	0.060846	-0.374014
O8	O	2.000018	0.560846	0.125986
O9	O	1.516877	-0.060926	-0.002808
O10	O	2.016877	0.439074	0.497192
O11	O	1.322833	-0.060915	-0.196852
O12	O	1.822833	0.439085	0.303148
O13	O	1.694029	-0.060927	-0.179960
O14	O	2.194029	0.439073	0.320040
Zn15	Zn	1.508425	-0.080253	-0.188404
Zn16	Zn	2.008425	0.419747	0.311596
Zn17	Zn	1.508469	0.080173	-0.188418
Zn18	Zn	2.008469	0.580173	0.311582
O19	O	1.499984	-0.060916	-0.374004
O20	O	1.999984	0.439084	0.125996
C21	C	1.275318	-0.000033	-0.195582
C22	C	1.775318	0.499967	0.304418
C23	C	1.133688	-0.000029	-0.191765
C24	C	1.633688	0.499971	0.308235
N25	N	1.508405	-0.189740	-0.188394
N26	N	2.008405	0.310260	0.311606
C27	C	1.065548	-0.000039	-0.068300
C28	C	1.565548	0.499961	0.431700
C29	C	0.973438	0.059996	-0.126629
C30	C	1.473438	0.559996	0.373371
C31	C	0.973439	-0.060052	-0.126648
C32	C	1.473439	0.439948	0.373352
C33	C	1.043443	0.060056	-0.250144
C34	C	1.543443	0.560056	0.249856
C35	C	1.043454	-0.060046	-0.250146
C36	C	1.543454	0.439954	0.249854
C37	C	0.951371	0.000004	-0.308564
C38	C	1.451371	0.500004	0.191436
C39	C	1.594356	-0.228054	-0.102514
C40	C	2.094356	0.271946	0.397486
C41	C	1.594365	-0.304699	-0.102508
C42	C	2.094365	0.195301	0.397492
C43	C	1.508433	-0.343027	-0.188405
C44	C	2.008433	0.156973	0.311595
C45	C	1.422465	-0.304705	-0.274291
C46	C	1.922465	0.195295	0.225709
C47	C	1.422451	-0.228061	-0.274286
C48	C	1.922451	0.271939	0.225714
N49	N	1.493234	-0.463356	-0.301127
N50	N	1.993234	0.036644	0.198873
N51	N	1.493255	-0.536165	-0.301128
N52	N	1.993255	-0.036165	0.198872
C53	C	1.508469	-0.573950	-0.188424
C54	C	2.008469	-0.073950	0.311576
N55	N	1.523687	-0.536176	-0.075715
N56	N	2.023687	-0.036176	0.424285
N57	N	1.523672	-0.463361	-0.075715
N58	N	2.023672	0.036639	0.424285
C59	C	1.508439	-0.426134	-0.188419
C60	C	2.008439	0.073866	0.311581
C61	C	1.594434	-0.695370	-0.102530
C62	C	2.094434	-0.195370	0.397470
C63	C	1.594434	-0.772017	-0.102523
C64	C	2.094434	-0.272017	0.397477
C65	C	1.422541	-0.772021	-0.274316
C66	C	1.922541	-0.272021	0.225684
C67	C	1.422535	-0.695376	-0.274313
C68	C	1.922535	-0.195376	0.225687
C69	C	1.508489	-0.657055	-0.188421
C70	C	2.008489	-0.157055	0.311579
C71	C	1.741577	-0.000046	-0.181241
C72	C	2.241577	0.499954	0.318759
C73	C	1.883206	-0.000045	-0.185058
C74	C	2.383206	0.499955	0.314942
C75	C	1.515618	-0.000044	0.044718
C76	C	2.015618	0.499956	0.544718
C77	C	1.511801	-0.000043	0.186348
C78	C	2.011801	0.499957	0.686348
N79	N	1.508500	0.189660	-0.188418
N80	N	2.008500	0.689660	0.311582
C81	C	1.501277	-0.000034	-0.421541
C82	C	2.001277	0.499966	0.078459
C83	C	1.505094	-0.000031	-0.563170
C84	C	2.005094	0.499969	-0.063170
C85	C	1.388336	-0.000034	0.254488
C86	C	1.888336	0.499966	0.754488
C87	C	1.446643	-0.060070	0.346615
C88	C	1.946643	0.439930	0.846615
C89	C	1.446705	0.059977	0.346580
C90	C	1.946705	0.559977	0.846580
C91	C	1.570159	-0.060129	0.276610
C92	C	2.070159	0.439871	0.776610
C93	C	1.570204	0.059973	0.276565
C94	C	2.070204	0.559973	0.776565
C95	C	1.628600	-0.000079	0.368665
C96	C	2.128600	0.499921	0.868665
H97	H	1.115238	0.000034	0.033196
H98	H	1.615238	0.500034	0.533196
H99	H	1.664342	-0.196855	-0.032573
H100	H	2.164342	0.303145	0.467427
H101	H	1.074285	0.110868	-0.302348
H102	H	1.574285	0.610868	0.197652
H103	H	1.352457	-0.196866	-0.344221
H104	H	1.852457	0.303134	0.155779
H105	H	1.664419	-0.664168	-0.032588
H106	H	2.164419	-0.164168	0.467412
H107	H	1.352569	-0.803227	-0.344250
H108	H	1.852569	-0.303227	0.155750
H109	H	0.942447	-0.110807	-0.074380
H110	H	1.442447	0.389193	0.425620
H111	H	0.942437	0.110750	-0.074392
H112	H	1.442437	0.610750	0.425608
H113	H	1.664359	-0.335899	-0.032572
H114	H	2.164359	0.164101	0.467428
H115	H	1.352497	-0.335915	-0.344227
H116	H	1.852497	0.164085	0.155773
H117	H	0.901947	0.000039	-0.410168
H118	H	1.401947	0.500039	0.089832
H119	H	1.622340	-0.110942	0.245782
H120	H	2.122340	0.389058	0.745782
H121	H	1.074486	-0.110802	-0.302340
H122	H	1.574486	0.389198	0.197660
H123	H	1.664422	-0.803212	-0.032582
H124	H	2.164422	-0.303212	0.467418
H125	H	1.352550	-0.664179	-0.344250
H126	H	1.852550	-0.164179	0.155750
H127	H	1.286824	-0.000091	0.204837
H128	H	1.786824	0.499909	0.704837
H129	H	1.394389	-0.110824	0.377631
H130	H	1.894389	0.389176	0.877631
H131	H	1.730204	-0.000115	0.418089
H132	H	2.230204	0.499885	0.918089
H133	H	1.622414	0.110729	0.245516
H134	H	2.122414	0.610729	0.745516
H135	H	1.394463	0.110739	0.377539
H136	H	1.894463	0.610739	0.877539
