data_functionalizedCrystal
_audit_creation_method	'MofGen! by Chris Wilmer'
_symmetry_space_group_name_H-M	'P1'
_symmetry_Int_Tables_number	1
_symmetry_cell_setting	triclinic
loop_
_symmetry_equiv_pos_as_xyz
  x,y,z
_cell_length_a	17.766277
_cell_length_b	27.731988
_cell_length_c	19.288865
_cell_angle_alpha	97.122694
_cell_angle_beta	89.988397
_cell_angle_gamma	89.997486
loop_
_atom_site_label
_atom_site_type_symbol
_atom_site_fract_x
_atom_site_fract_y
_atom_site_fract_z
O1	O	-0.062394	-0.641198	0.082452
O2	O	-0.062443	-0.500439	0.095062
O3	O	-0.062402	-0.574886	-0.012400
O4	O	-0.062435	-0.566751	0.189914
O5	O	0.062786	-0.574873	-0.012405
O6	O	0.062746	-0.500426	0.095057
O7	O	0.062794	-0.641185	0.082447
Cu8	Cu	0.074201	-0.570804	0.088752
Cu9	Cu	-0.073849	-0.570820	0.088758
O10	O	0.062754	-0.566738	0.189909
C11	C	0.000146	-0.482424	0.094801
C12	C	0.000128	-0.428765	0.094024
N13	N	0.178331	-0.570797	0.088747
C14	C	0.000194	-0.574618	-0.038277
C15	C	0.000201	-0.573832	-0.115375
N16	N	-0.177979	-0.570831	0.088757
C17	C	0.217736	-0.603773	0.041186
C18	C	0.296538	-0.603776	0.041182
C19	C	0.335932	-0.570807	0.088752
C20	C	0.296517	-0.537825	0.136317
C21	C	0.217717	-0.537820	0.136314
C22	C	0.460758	-0.564336	0.152082
C23	C	0.539557	-0.564344	0.152086
C24	C	0.578978	-0.570820	0.088760
C25	C	0.539591	-0.577298	0.025429
C26	C	0.460790	-0.577293	0.025426
C27	C	0.421377	-0.570809	0.088760
C28	C	0.703829	-0.603801	0.041192
C29	C	0.782632	-0.603800	0.041188
C30	C	0.782610	-0.537852	0.136328
C31	C	0.703808	-0.537851	0.136326
C32	C	0.664423	-0.570827	0.088759
C33	C	-0.068079	-0.045594	0.088388
C34	C	-0.068098	-0.247261	0.091353
O35	O	-0.126134	-0.273342	0.091711
N36	N	0.000141	-0.272476	0.091721
C37	C	0.068390	-0.247271	0.091344
O38	O	0.126431	-0.273345	0.091717
C39	C	0.068408	-0.045605	0.088374
C40	C	0.000165	-0.020393	0.088013
C41	C	-0.136316	-0.020382	0.088026
C42	C	-0.136311	0.030032	0.087289
C43	C	-0.068068	0.055234	0.086913
C44	C	0.000170	0.030021	0.087275
C45	C	0.136656	-0.020401	0.087991
C46	C	0.136654	0.030018	0.087246
C47	C	0.068411	0.055230	0.086885
C48	C	0.068419	0.105637	0.086162
N49	N	0.000180	0.130851	0.085794
C50	C	-0.068063	0.105650	0.086170
C51	C	0.068375	-0.353148	0.092904
C52	C	0.068371	-0.403564	0.093648
C53	C	-0.068117	-0.403551	0.093656
C54	C	-0.068111	-0.353134	0.092918
C55	C	0.000137	-0.327933	0.092536
C56	C	-0.068047	0.211523	0.084622
C57	C	-0.068035	0.261942	0.083887
C58	C	0.068452	0.261924	0.083875
C59	C	0.068441	0.211510	0.084613
C60	C	0.000185	0.186311	0.084984
O61	O	0.126425	0.131748	0.085796
O62	O	-0.126096	0.131731	0.085780
C63	C	-0.068084	-0.096008	0.089126
C64	C	0.000154	-0.121221	0.089487
C65	C	0.068397	-0.096019	0.089112
C66	C	0.000149	-0.171637	0.090231
C67	C	-0.068094	-0.196838	0.090607
C68	C	-0.136333	-0.171624	0.090239
C69	C	-0.136327	-0.121210	0.089501
C70	C	0.136636	-0.121233	0.089480
C71	C	0.136625	-0.171647	0.090218
C72	C	0.068382	-0.196849	0.090594
C73	C	0.000202	0.340800	0.082714
C74	C	0.000208	0.287143	0.083511
C75	C	0.000219	-0.617514	-0.160358
C76	C	0.000207	-0.616776	-0.232800
C77	C	0.000191	-0.572353	-0.260257
C78	C	0.000169	-0.528665	-0.215265
C79	C	0.000173	-0.529405	-0.142824
C80	C	0.044030	-0.537427	-0.368317
C81	C	0.044030	-0.536690	-0.440757
C82	C	0.000174	-0.570071	-0.483687
C83	C	-0.043673	-0.604198	-0.454171
C84	C	-0.043668	-0.604937	-0.381730
C85	C	0.000186	-0.571547	-0.338805
C86	C	0.000178	-0.612956	-0.607220
C87	C	0.000162	-0.612216	-0.679663
C88	C	0.000130	-0.524104	-0.662127
C89	C	0.000140	-0.524845	-0.589685
C90	C	0.000167	-0.569272	-0.562236
C91	C	0.000156	-0.567007	0.215786
C92	C	0.000144	-0.567792	0.292885
H93	H	0.185670	-0.630623	0.002452
H94	H	-0.123681	-0.332609	0.092624
H95	H	-0.123683	-0.424079	0.093964
N96	N	0.138087	-0.429305	0.094034
N97	N	0.199010	-0.406792	0.093699
H98	H	0.248250	-0.424970	0.093970
H99	H	0.079748	-0.510243	-0.333368
H100	H	0.814716	-0.630652	0.002454
N101	N	0.206351	-0.095495	0.089120
N102	N	0.221573	-0.062804	0.137697
H103	H	0.270815	-0.044628	0.137450
N104	N	0.000234	-0.662890	-0.132309
N105	N	0.000236	-0.663546	-0.067630
H106	H	0.000246	-0.695593	-0.047818
N107	N	0.138101	-0.327418	0.092513
N108	N	0.199018	-0.349942	0.092842
H109	H	0.248263	-0.331773	0.092567
H110	H	0.814684	-0.511007	0.175058
H111	H	0.000114	-0.487934	-0.684481
H112	H	-0.123610	0.282468	0.083595
N113	N	0.000226	-0.661403	-0.278749
N114	N	0.000248	-0.701065	-0.254232
H115	H	0.000262	-0.732583	-0.286681
H116	H	-0.079371	-0.632724	-0.357701
H117	H	0.124010	0.190983	0.084921
H118	H	0.000158	-0.493832	-0.106199
N119	N	-0.206014	0.055788	0.086900
N120	N	-0.206014	0.100801	0.086231
H121	H	-0.255245	0.118989	0.085953
N122	N	0.206364	0.055767	0.086868
N123	N	0.206365	0.100781	0.086212
H124	H	0.255597	0.118967	0.085947
N125	N	-0.088488	-0.638291	-0.498015
N126	N	-0.158283	-0.639079	-0.490047
H127	H	-0.189931	-0.663156	-0.521015
H128	H	0.192201	-0.192171	0.090518
N129	N	0.000208	-0.658339	-0.579188
N130	N	0.000220	-0.697339	-0.619363
H131	H	0.000243	-0.729392	-0.599568
N132	N	0.206373	-0.046140	0.088350
N133	N	0.267292	-0.023624	0.088002
H134	H	0.316535	-0.041802	0.088251
N135	N	0.138151	0.287680	0.083494
N136	N	0.138137	0.332694	0.082832
H137	H	0.187362	0.350886	0.082558
H138	H	-0.191898	-0.100687	0.089207
N139	N	0.579853	-0.583899	-0.039260
N140	N	0.623819	-0.551638	-0.054519
H141	H	0.652256	-0.556298	-0.100205
H142	H	-0.191899	-0.192152	0.090549
H143	H	0.671723	-0.511000	0.175058
N144	N	0.663540	-0.637444	-0.007410
N145	N	0.619581	-0.622149	-0.050328
H146	H	0.591109	-0.645897	-0.084656
N147	N	0.336789	-0.637463	-0.007409
N148	N	0.301614	-0.666901	-0.049877
H149	H	0.330038	-0.690693	-0.084195
N150	N	0.336742	-0.504148	0.184917
N151	N	0.301545	-0.474707	0.227381
H152	H	0.329952	-0.450920	0.261705
H153	H	0.428668	-0.559054	0.203653
H154	H	0.000173	-0.647788	-0.716288
N155	N	0.000123	-0.480219	-0.543742
N156	N	0.000106	-0.440559	-0.568263
H157	H	0.000092	-0.409039	-0.535816
N158	N	0.088850	-0.501845	-0.470896
N159	N	0.128013	-0.472047	-0.432562
H160	H	0.159678	-0.447441	-0.453846
N161	N	0.579775	-0.557734	0.216780
N162	N	0.544572	-0.551948	0.273316
H163	H	0.572973	-0.547280	0.319009
H164	H	0.000154	-0.492496	-0.237625
H165	H	0.428724	-0.582566	-0.026141
H166	H	-0.123627	0.191011	0.084925
N167	N	0.177474	-0.504130	0.184902
N168	N	0.212651	-0.474693	0.227369
H169	H	0.184229	-0.450898	0.261685
H170	H	-0.191891	-0.040896	0.088330
