data_functionalizedCrystal
_audit_creation_method	'MofGen! by Chris Wilmer'
_symmetry_space_group_name_H-M	'P1'
_symmetry_Int_Tables_number	1
_symmetry_cell_setting	triclinic
loop_
_symmetry_equiv_pos_as_xyz
  x,y,z
_cell_length_a	12.645331
_cell_length_b	12.759399
_cell_length_c	12.759393
_cell_angle_alpha	89.973195
_cell_angle_beta	90.022936
_cell_angle_gamma	89.986771
loop_
_atom_site_label
_atom_site_type_symbol
_atom_site_fract_x
_atom_site_fract_y
_atom_site_fract_z
Zn1	Zn	1.620759	0.418244	0.594103
Zn2	Zn	1.620651	0.593960	0.418434
Zn3	Zn	1.443473	0.418292	0.418432
Zn4	Zn	1.443466	0.593878	0.594066
O5	O	1.532087	0.506094	0.506259
O6	O	1.769092	0.441567	0.570817
O7	O	1.597105	0.570711	0.271413
O8	O	1.467039	0.271265	0.441750
O9	O	1.769012	0.570664	0.441754
O10	O	1.597290	0.271229	0.570815
O11	O	1.466934	0.441649	0.271411
O12	O	1.295125	0.441570	0.441714
O13	O	1.467027	0.570526	0.741092
O14	O	1.295120	0.570573	0.570751
O15	O	1.597284	0.441488	0.741119
O16	O	1.597099	0.740970	0.441718
O17	O	1.466922	0.740910	0.570753
C18	C	1.256658	0.506069	0.506228
C19	C	1.138828	0.506083	0.506240
C20	C	0.971231	0.424554	0.425511
C21	C	1.093791	0.424765	0.425155
C22	C	1.094314	0.616761	0.476002
C23	C	0.971715	0.616316	0.475452
C24	C	0.971677	0.477988	0.617519
C25	C	1.094283	0.475515	0.616901
C26	C	1.532027	0.779061	0.506254
C27	C	1.532098	0.895838	0.506288
C28	C	1.532167	0.505993	0.780292
C29	C	1.532201	0.505950	0.897069
C30	C	1.808593	0.506119	0.506290
C31	C	1.926423	0.506130	0.506303
C32	C	1.599959	0.950696	0.439179
C33	C	1.600029	1.060420	0.439222
C34	C	1.464367	1.060418	0.573485
C35	C	1.464303	0.950696	0.573447
C36	C	1.532181	1.232060	0.506304
C37	C	1.532231	1.115284	0.506369
C38	C	1.532069	0.506118	0.233291
C39	C	1.532241	0.505865	0.116515
C40	C	1.600030	0.438749	0.951947
C41	C	1.600048	0.438704	1.061671
C42	C	1.464404	0.573069	1.061630
C43	C	1.464381	0.573108	0.951907
H44	H	0.941762	0.342236	0.444260
N45	N	1.134907	0.648906	0.369454
H46	H	1.073239	0.660177	0.320395
H47	H	1.176572	0.716102	0.376043
H48	H	1.124944	0.530596	0.680317
H49	H	1.655289	1.105080	0.384577
N50	N	0.933766	0.647907	0.367752
H51	H	0.853907	0.647930	0.366315
H52	H	0.960732	0.720438	0.350715
N53	N	0.930781	0.372946	0.653977
H54	H	0.851055	0.375137	0.658183
H55	H	0.953150	0.316920	0.602675
H56	H	1.409169	1.105097	0.628162
H57	H	1.655280	0.383980	1.106348
H58	H	1.409042	0.906027	0.628099
H59	H	1.409190	0.627749	1.106292
H60	H	1.655250	0.384061	0.907301
N61	N	1.391198	0.645571	0.892708
H62	H	1.348238	0.688109	0.944095
H63	H	1.434305	0.694217	0.847175
N64	N	0.932430	0.699550	0.549988
H65	H	0.959176	0.684125	0.622982
H66	H	0.959245	0.770354	0.526621
N67	N	1.133667	0.316054	0.450249
H68	H	1.071604	0.267563	0.461642
H69	H	1.177885	0.289416	0.389981
H70	H	0.940384	0.442950	0.343580
H71	H	1.123382	0.394069	0.639702
H72	H	1.123070	0.443367	0.342739
H73	H	1.123487	0.679166	0.533001
H74	H	1.655163	0.906033	0.384496
N75	N	0.933305	0.556687	0.697263
H76	H	0.886835	0.610314	0.661582
H77	H	0.891435	0.519359	0.753384
