data_functionalizedCrystal
_audit_creation_method	'MofGen! by Chris Wilmer'
_symmetry_space_group_name_H-M	'P1'
_symmetry_Int_Tables_number	1
_symmetry_cell_setting	triclinic
loop_
_symmetry_equiv_pos_as_xyz
  x,y,z
_cell_length_a	17.699097
_cell_length_b	19.188930
_cell_length_c	16.176319
_cell_angle_alpha	89.988074
_cell_angle_beta	89.988988
_cell_angle_gamma	83.216605
loop_
_atom_site_label
_atom_site_type_symbol
_atom_site_fract_x
_atom_site_fract_y
_atom_site_fract_z
O1	O	1.003956	0.088339	-0.068825
O2	O	1.503956	0.588339	0.431175
O3	O	0.783564	0.099816	-0.068812
O4	O	1.283564	0.599816	0.431188
O5	O	0.900120	-0.007571	-0.068803
O6	O	1.400120	0.492429	0.431197
O7	O	0.887400	0.195726	-0.068834
O8	O	1.387400	0.695726	0.431166
O9	O	0.900104	-0.007578	0.068691
O10	O	1.400104	0.492422	0.568691
O11	O	0.783548	0.099809	0.068681
O12	O	1.283548	0.599809	0.568681
O13	O	1.003940	0.088332	0.068669
O14	O	1.503940	0.588332	0.568669
Cu15	Cu	0.893743	0.094070	0.081229
Cu16	Cu	1.393743	0.594070	0.581229
Cu17	Cu	0.893762	0.094078	-0.081373
Cu18	Cu	1.393762	0.594078	0.418627
O19	O	0.887384	0.195719	0.068659
O20	O	1.387384	0.695719	0.568659
C21	C	0.755360	0.099400	-0.000064
C22	C	1.255360	0.599400	0.499936
C23	C	0.671344	0.098161	-0.000059
C24	C	1.171344	0.598161	0.499941
C25	C	0.899700	-0.033586	-0.000054
C26	C	1.399700	0.466414	0.499946
C27	C	0.898464	-0.111092	-0.000046
C28	C	1.398464	0.388908	0.499954
C29	C	0.155644	0.090574	-0.075038
C30	C	0.655644	0.590574	0.424962
C31	C	0.234587	0.091732	-0.075034
C32	C	0.734587	0.591732	0.424966
C33	C	0.274043	0.092309	-0.000084
C34	C	0.774043	0.592309	0.499916
C35	C	0.234554	0.091720	0.074868
C36	C	0.734554	0.591720	0.574868
C37	C	0.155614	0.090556	0.074863
C38	C	0.655614	0.590556	0.574863
C39	C	0.552912	0.096413	0.074889
C40	C	1.052912	0.596413	0.574889
C41	C	0.631858	0.097579	0.074888
C42	C	1.131858	0.597579	0.574888
C43	C	0.631885	0.097589	-0.075009
C44	C	1.131885	0.597589	0.424991
C45	C	0.552945	0.096426	-0.075013
C46	C	1.052945	0.596426	0.424987
C47	C	0.513463	0.095833	-0.000062
C48	C	1.013463	0.595833	0.499938
C49	C	0.427865	0.094575	-0.000067
C50	C	0.927865	0.594575	0.499933
C51	C	0.359639	0.093572	-0.000078
C52	C	0.859639	0.593572	0.499922
C53	C	0.966855	-0.155936	-0.000046
C54	C	1.466855	0.344064	0.499954
C55	C	0.965693	-0.228761	-0.000059
C56	C	1.465693	0.271239	0.499941
C57	C	0.896136	-0.256739	-0.000056
C58	C	1.396136	0.243261	0.499944
C59	C	0.827736	-0.211885	-0.000061
C60	C	1.327736	0.288115	0.499939
C61	C	0.828900	-0.139061	-0.000056
C62	C	1.328900	0.360939	0.499944
N63	N	0.842963	-0.364808	0.046738
N64	N	1.342963	0.135192	0.546738
N65	N	0.841862	-0.433988	0.046735
N66	N	1.341862	0.066012	0.546735
C67	C	0.892626	-0.476151	-0.000073
C68	C	1.392626	0.023849	0.499927
N69	N	0.944544	-0.446523	-0.046868
N70	N	1.444544	0.053477	0.453132
N71	N	0.945647	-0.377337	-0.046861
N72	N	1.445647	0.122663	0.453139
C73	C	0.894867	-0.335703	-0.000062
C74	C	1.394867	0.164297	0.499938
C75	C	0.959763	-0.599962	-0.000088
C76	C	1.459763	-0.099962	0.499912
C77	C	0.958598	-0.672788	-0.000106
C78	C	1.458598	-0.172788	0.499894
C79	C	0.820639	-0.655910	-0.000100
C80	C	1.320639	-0.155910	0.499900
C81	C	0.821805	-0.583085	-0.000090
C82	C	1.321805	-0.083085	0.499910
C83	C	0.891369	-0.555116	-0.000080
C84	C	1.391369	-0.055116	0.499920
C85	C	1.032144	0.088748	-0.000082
C86	C	1.532144	0.588748	0.499918
C87	C	1.116160	0.089987	-0.000092
C88	C	1.616160	0.589987	0.499908
C89	C	0.887804	0.221734	-0.000092
C90	C	1.387804	0.721734	0.499908
C91	C	0.889040	0.299240	-0.000104
C92	C	1.389040	0.799240	0.499896
N93	N	0.893735	0.094064	0.195594
N94	N	1.393735	0.594064	0.695594
N95	N	0.893775	0.094079	-0.195738
N96	N	1.393775	0.594079	0.304262
C97	C	0.945361	0.046532	0.238863
C98	C	1.445361	0.546532	0.738863
C99	C	0.945365	0.046531	0.325410
C100	C	1.445365	0.546531	0.825410
C101	C	0.893746	0.094066	0.368687
C102	C	1.393746	0.594066	0.868687
C103	C	0.842114	0.141600	0.325412
C104	C	1.342114	0.641600	0.825412
C105	C	0.842107	0.141597	0.238867
C106	C	1.342107	0.641597	0.738867
C107	C	0.842139	0.141613	0.674441
C108	C	1.342139	0.641613	1.174441
C109	C	0.842152	0.141614	0.760992
C110	C	1.342152	0.641614	1.260992
C111	C	0.945398	0.046548	0.760984
C112	C	1.445398	0.546548	1.260984
C113	C	0.945391	0.046545	0.674438
C114	C	1.445391	0.546545	1.174438
C115	C	0.893757	0.094076	0.631171
C116	C	1.393757	0.594076	1.131171
C117	C	0.893752	0.094075	0.537327
C118	C	1.393752	0.594075	1.037327
C119	C	0.893753	0.094071	0.462529
C120	C	1.393753	0.594071	0.962529
H121	H	0.123524	0.090109	-0.136072
H122	H	0.623524	0.590109	0.363928
H123	H	0.766114	-0.546572	-0.000085
H124	H	1.266114	-0.046572	0.499915
C125	C	0.675259	0.098208	0.157344
C126	C	1.175259	0.598208	0.657344
N127	N	0.707949	0.098680	0.219447
N128	N	1.207949	0.598680	0.719447
C129	C	0.509489	0.095782	0.157338
C130	C	1.009489	0.595782	0.657338
N131	N	0.476780	0.095314	0.219442
N132	N	0.976780	0.595314	0.719442
H133	H	0.266732	0.092206	-0.136063
H134	H	0.766732	0.592206	0.363937
C135	C	0.509548	0.095787	-0.157465
C136	C	1.009548	0.595787	0.342535
N137	N	0.476863	0.095301	-0.219569
N138	N	0.976863	0.595301	0.280431
C139	C	1.002140	-0.005774	0.373001
C140	C	1.502140	0.494226	0.873001
N141	N	1.044899	-0.045179	0.408846
N142	N	1.544899	0.454821	0.908846
C143	C	0.753660	-0.089730	-0.000054
C144	C	1.253660	0.410270	0.499946
N145	N	0.696989	-0.052573	-0.000051
N146	N	1.196989	0.447427	0.499949
H147	H	0.664041	0.098069	-0.136038
H148	H	1.164041	0.598069	0.363962
C149	C	0.277955	0.092384	0.157315
C150	C	0.777955	0.592384	0.657315
N151	N	0.310642	0.092898	0.219416
N152	N	0.810642	0.592898	0.719416
H153	H	0.800114	0.180324	0.796227
H154	H	1.300114	0.680324	1.296227
H155	H	0.123466	0.090085	0.135892
H156	H	0.623466	0.590085	0.635892
H157	H	1.023499	-0.133169	-0.000041
H158	H	1.523499	0.366831	0.499959
H159	H	0.800098	0.180316	0.639219
H160	H	1.300098	0.680316	1.139219
H161	H	1.021387	-0.265280	-0.000063
H162	H	1.521387	0.234720	0.499937
C163	C	0.785324	0.193882	0.373020
C164	C	1.285324	0.693882	0.873020
N165	N	0.742549	0.233262	0.408878
N166	N	1.242549	0.733262	0.908878
C167	C	1.002191	-0.005744	0.808585
C168	C	1.502191	0.494256	1.308585
N169	N	1.044966	-0.045129	0.844437
N170	N	1.544966	0.454871	1.344437
C171	C	0.751223	-0.242661	-0.000051
C172	C	1.251223	0.257339	0.499949
N173	N	0.693591	-0.265842	-0.000045
N174	N	1.193591	0.234158	0.499955
C175	C	1.036284	-0.569193	-0.000090
C176	C	1.536284	-0.069193	0.499910
N177	N	1.093920	-0.546020	-0.000094
N178	N	1.593920	-0.046020	0.499906
H179	H	1.014293	-0.709300	-0.000111
H180	H	1.514293	-0.209300	0.499889
C181	C	0.744125	-0.686681	-0.000099
C182	C	1.244125	-0.186681	0.499901
N183	N	0.686493	-0.709861	-0.000100
N184	N	1.186493	-0.209861	0.499900
C185	C	1.002148	-0.005761	0.191266
C186	C	1.502148	0.494239	0.691266
N187	N	1.044919	-0.045152	0.155418
N188	N	1.544919	0.454848	0.655418
C189	C	1.002175	-0.005749	0.626838
C190	C	1.502175	0.494251	1.126838
N191	N	1.044943	-0.045140	0.590987
N192	N	1.544943	0.454860	1.090987
C193	C	0.785320	0.193891	0.191272
C194	C	1.285320	0.693891	0.691272
N195	N	0.742546	0.233281	0.155425
N196	N	1.242546	0.733281	0.655425
