data_functionalizedCrystal
_audit_creation_method	'MofGen! by Chris Wilmer'
_symmetry_space_group_name_H-M	'P1'
_symmetry_Int_Tables_number	1
_symmetry_cell_setting	triclinic
loop_
_symmetry_equiv_pos_as_xyz
  x,y,z
_cell_length_a	14.908795
_cell_length_b	12.759394
_cell_length_c	14.908694
_cell_angle_alpha	93.269693
_cell_angle_beta	83.203537
_cell_angle_gamma	93.305335
loop_
_atom_site_label
_atom_site_type_symbol
_atom_site_fract_x
_atom_site_fract_y
_atom_site_fract_z
Zn1	Zn	1.413420	-0.363172	-0.591784
Zn2	Zn	1.404602	-0.529299	-0.440421
Zn3	Zn	1.253317	-0.363199	-0.431689
Zn4	Zn	1.262030	-0.548377	-0.582993
O5	O	1.333342	-0.451012	-0.511722
O6	O	1.538921	-0.377214	-0.579039
O7	O	1.377196	-0.499292	-0.312596
O8	O	1.274599	-0.216173	-0.452951
O9	O	1.532442	-0.499266	-0.467833
O10	O	1.392226	-0.216153	-0.570572
O11	O	1.266048	-0.377259	-0.306180
O12	O	1.127802	-0.395759	-0.444426
O13	O	1.289450	-0.531783	-0.710826
O14	O	1.134204	-0.531809	-0.555588
O15	O	1.400675	-0.395713	-0.717285
O16	O	1.385646	-0.678852	-0.459309
O17	O	1.280899	-0.692869	-0.564055
C18	C	1.098159	-0.465858	-0.498106
C19	C	0.997547	-0.472236	-0.492303
C20	C	0.852363	-0.544653	-0.426135
C21	C	0.946897	-0.538665	-0.431587
C22	C	0.953658	-0.411788	-0.547568
C23	C	0.859125	-0.417776	-0.542116
C24	C	0.808481	-0.484212	-0.481398
C25	C	0.713946	-0.490206	-0.475951
C26	C	0.720709	-0.363324	-0.591926
C27	C	0.815242	-0.357335	-0.597379
C28	C	1.333287	-0.723981	-0.511697
C29	C	1.333347	-0.840756	-0.511721
C30	C	1.442512	-0.826106	-0.402740
C31	C	1.497119	-0.873642	-0.348261
C32	C	1.497173	-0.983362	-0.348289
C33	C	1.442617	-1.045549	-0.402803
C34	C	1.388011	-0.998014	-0.457282
C35	C	1.387960	-0.888291	-0.457246
C36	C	1.278852	-1.012663	-0.566266
C37	C	1.278792	-0.902943	-0.566235
C38	C	1.224296	-1.074851	-0.620780
C39	C	1.169684	-1.027316	-0.675255
C40	C	1.169631	-0.917589	-0.675225
C41	C	1.224185	-0.855408	-0.620714
C42	C	1.569444	-0.436109	-0.525391
C43	C	1.670057	-0.429758	-0.531216
C44	C	1.347018	-0.465873	-0.747817
C45	C	1.352846	-0.472206	-0.848427
C46	C	1.333424	-0.176976	-0.511768
C47	C	1.333459	-0.060198	-0.511788
C48	C	1.248037	-0.357038	-1.030804
C49	C	1.253509	-0.362985	-1.125335
C50	C	1.369259	-0.490053	-1.132024
C51	C	1.363786	-0.484106	-1.037492
C52	C	1.303174	-0.417595	-0.986885
C53	C	1.297707	-0.411643	-0.892352
C54	C	1.413451	-0.538715	-0.899042
C55	C	1.418923	-0.544662	-0.993573
C56	C	1.319772	-0.436129	-0.276548
C57	C	1.314119	-0.429489	-0.175949
H58	H	0.994908	-0.357693	-0.596996
H59	H	0.684970	-0.314109	-0.636927
H60	H	0.811128	-0.598757	-0.376704
C61	C	1.193688	-0.297361	-1.173184
C62	C	1.211433	-0.316823	-1.266802
C63	C	1.156330	-0.256401	-1.310909
H64	H	1.206001	-0.224925	-1.158576
H65	H	1.131952	-0.315626	-1.154216
H66	H	1.273155	-0.298552	-1.285764
H67	H	1.199116	-0.389248	-1.281437
H68	H	1.094594	-0.274666	-1.291940
H69	H	1.168647	-0.183969	-1.296294
H70	H	1.168356	-0.269605	-1.374432
C71	C	1.110310	-1.094703	-0.734378
C72	C	1.019604	-1.072516	-0.709426
C73	C	0.964882	-1.134566	-0.763878
H74	H	1.118048	-1.166883	-0.726648
H75	H	1.126974	-1.079647	-0.795976
H76	H	1.002945	-1.087580	-0.647843
H77	H	1.011837	-1.000348	-0.717160
H78	H	0.981546	-1.119510	-0.825477
H79	H	0.972628	-1.206743	-0.756145
H80	H	0.903333	-1.119514	-0.746962
H81	H	0.856489	-0.303242	-0.646811
H82	H	1.442461	-0.736766	-0.402700
H83	H	1.541643	-1.022064	-0.303933
C84	C	1.434942	-0.562449	-1.186916
C85	C	1.413854	-0.666197	-1.162771
C86	C	1.474335	-0.732922	-1.213324
H87	H	1.494906	-0.542399	-1.174994
H88	H	1.430297	-0.557397	-1.249514
H89	H	1.418508	-0.671244	-1.100187
H90	H	1.353901	-0.686279	-1.174695
H91	H	1.469689	-0.727870	-1.275922
H92	H	1.534295	-0.712863	-1.201398
H93	H	1.460030	-0.803323	-1.196955
H94	H	1.541540	-0.822999	-0.303878
C95	C	1.442773	-1.164657	-0.402681
C96	C	1.502260	-1.192977	-0.343293
C97	C	1.502418	-1.302690	-0.343150
H98	H	1.461809	-1.192244	-0.461965
H99	H	1.383488	-1.192284	-0.383567
H100	H	1.561533	-1.165362	-0.362411
H101	H	1.483238	-1.165417	-0.284001
H102	H	1.443133	-1.330316	-0.324035
H103	H	1.521452	-1.330267	-0.402436
H104	H	1.542772	-1.321919	-0.302850
H105	H	1.224349	-1.164190	-0.620803
C106	C	1.473210	-0.604426	-0.851189
C107	C	1.455433	-0.585002	-0.757569
C108	C	1.510458	-0.645521	-0.713458
H109	H	1.534960	-0.586239	-0.870102
H110	H	1.460829	-0.676850	-0.865849
H111	H	1.467821	-0.512595	-0.742915
H112	H	1.393693	-0.603194	-0.738630
H113	H	1.498077	-0.717944	-0.728118
H114	H	1.572205	-0.627329	-0.732379
H115	H	1.498398	-0.632358	-0.649933
H116	H	1.125167	-0.878892	-0.719591
H117	H	1.224141	-0.766067	-0.620677
H118	H	1.248357	-0.357482	-0.851149
C119	C	1.182145	-0.284806	-0.976010
C120	C	1.135014	-0.233060	-1.034706
C121	C	1.074296	-0.166523	-0.984264
H122	H	1.214547	-0.234437	-0.941134
H123	H	1.140511	-0.325151	-0.936862
H124	H	1.176642	-0.192718	-1.073839
H125	H	1.102593	-0.283403	-1.069583
H126	H	1.032663	-0.206868	-0.945116
H127	H	1.106706	-0.116161	-0.949390
H128	H	1.042305	-0.131413	-1.024081
C129	C	1.484869	-0.616791	-1.048416
C130	C	1.573102	-0.586818	-1.030598
C131	C	1.633877	-0.653245	-1.081092
H132	H	1.480355	-0.611721	-1.111027
H133	H	1.470764	-0.687258	-1.032130
H134	H	1.587203	-0.516368	-1.046890
H135	H	1.577645	-0.591893	-0.967997
H136	H	1.619772	-0.723712	-1.064805
H137	H	1.629355	-0.648170	-1.143699
H138	H	1.693749	-0.632924	-1.069002
H139	H	0.672713	-0.544305	-0.426514
H140	H	0.982622	-0.587882	-0.386586
