data_functionalizedCrystal
_audit_creation_method	'MofGen! by Chris Wilmer'
_symmetry_space_group_name_H-M	'P1'
_symmetry_Int_Tables_number	1
_symmetry_cell_setting	triclinic
loop_
_symmetry_equiv_pos_as_xyz
  x,y,z
_cell_length_a	10.065875
_cell_length_b	17.699083
_cell_length_c	17.699092
_cell_angle_alpha	96.715309
_cell_angle_beta	81.226759
_cell_angle_gamma	81.276876
loop_
_atom_site_label
_atom_site_type_symbol
_atom_site_fract_x
_atom_site_fract_y
_atom_site_fract_z
O1	O	0.113295	-1.015153	0.084585
O2	O	0.113339	-0.794780	0.097033
O3	O	0.113313	-0.911189	-0.019380
O4	O	0.113322	-0.898744	0.200997
O5	O	-0.113671	-0.888991	0.002908
O6	O	-0.113644	-0.772582	0.119320
O7	O	-0.113688	-0.992955	0.106872
Zn8	Zn	-0.149705	-0.879244	0.116635
Zn9	Zn	0.149356	-0.908491	0.087270
O10	O	-0.113662	-0.876546	0.223284
C11	C	-0.000147	-0.755484	0.107730
C12	C	-0.000130	-0.671468	0.106389
N13	N	-0.353806	-0.859290	0.136674
C14	C	-0.000177	-0.899643	-0.036433
C15	C	-0.000170	-0.898303	-0.120451
C16	C	-0.421594	-0.901543	0.094238
C17	C	-0.578758	-0.886192	0.109667
N18	N	0.353457	-0.928451	0.067224
C19	C	-0.000199	-1.032251	0.096175
C20	C	-0.000207	-1.116268	0.097514
C21	C	-0.000128	-0.622849	0.174722
C22	C	-0.000145	-0.543904	0.173462
C23	C	-0.000155	-0.513580	0.103867
C24	C	-0.000162	-0.562205	0.035529
C25	C	-0.000154	-0.641147	0.036791
C26	C	-0.000196	-0.243838	0.030437
C27	C	-0.000200	-0.164890	0.029180
C28	C	-0.000187	-0.146595	0.167108
C29	C	-0.000179	-0.225537	0.168370
C30	C	-0.000193	-0.274154	0.100033
C31	C	-0.000176	-0.359755	0.101401
C32	C	-0.000162	-0.427982	0.102497
C33	C	0.123560	-0.909775	-0.172068
C34	C	0.123562	-0.908510	-0.251011
C35	C	-0.000168	-0.895779	-0.278337
C36	C	-0.123908	-0.884304	-0.226714
C37	C	-0.123908	-0.885563	-0.147771
C38	C	-0.123909	-0.879223	-0.545079
C39	C	-0.123899	-0.877967	-0.624028
C40	C	0.123562	-0.902170	-0.648318
C41	C	0.123561	-0.903430	-0.569376
C42	C	-0.000178	-0.891950	-0.517759
C43	C	-0.000178	-0.893321	-0.432160
C44	C	-0.000169	-0.894414	-0.363935
C45	C	-0.000169	-0.888092	0.240338
C46	C	-0.000167	-0.889433	0.324355
H47	H	-0.637068	-0.838645	0.157422
C48	C	-0.260012	-0.870296	-0.256766
H49	H	-0.333702	-0.863636	-0.214716
H50	H	-0.265170	-0.913418	-0.292908
H51	H	-0.265141	-0.825178	-0.281204
H52	H	-0.224662	-0.876211	-0.105744
H53	H	0.224316	-0.920146	-0.149827
C54	C	-0.342833	-0.965767	0.029724
H55	H	-0.405743	-0.990282	0.005097
H56	H	-0.287081	-1.002722	0.051369
H57	H	-0.287101	-0.943912	-0.007107
C58	C	-0.000201	-0.297307	-0.044731
H59	H	-0.000194	-0.267940	-0.086359
H60	H	-0.079354	-0.320748	-0.039336
H61	H	0.078964	-0.336218	-0.054881
H62	H	-0.588233	-0.975992	0.019464
C63	C	-0.432573	-0.795067	0.201188
H64	H	-0.527872	-0.793178	0.203098
H65	H	-0.409232	-0.746800	0.190900
H66	H	-0.409222	-0.805612	0.249374
C67	C	0.259666	-0.921116	-0.307784
H68	H	0.333354	-0.928883	-0.280204
H69	H	0.264808	-0.877003	-0.333224
H70	H	0.264814	-0.965247	-0.344943
C71	C	-0.260012	-0.866597	-0.488308
H72	H	-0.242301	-0.869159	-0.437376
H73	H	-0.310868	-0.905533	-0.502102
H74	H	-0.310830	-0.817294	-0.490409
C75	C	-0.000115	-0.656198	0.251278
H76	H	-0.000129	-0.615932	0.291795
H77	H	0.079041	-0.694347	0.246868
H78	H	-0.079277	-0.678878	0.262410
H79	H	-0.000210	-0.140204	-0.027496
C80	C	-0.000138	-0.490427	0.248628
H81	H	-0.000114	-0.519795	0.290254
H82	H	-0.079297	-0.451518	0.258779
H83	H	0.079022	-0.466985	0.243226
H84	H	-0.000165	-0.250223	0.225041
H85	H	-0.000190	-0.537507	-0.021135
C86	C	0.259664	-0.917431	-0.539321
H87	H	0.333356	-0.924074	-0.581368
H88	H	0.264803	-0.962542	-0.514879
H89	H	0.264808	-0.874299	-0.503180
H90	H	-0.000183	-0.107000	0.222751
C91	C	0.259675	-0.914786	-0.705097
H92	H	0.241961	-0.912205	-0.756025
H93	H	0.310504	-0.964083	-0.703003
H94	H	0.310520	-0.875841	-0.691295
H95	H	-0.000155	-0.680733	-0.018853
C96	C	-0.260008	-0.863953	-0.654083
H97	H	-0.333704	-0.857288	-0.612036
H98	H	-0.265169	-0.907075	-0.690225
H99	H	-0.265124	-0.818836	-0.678523
