data_functionalizedCrystal
_audit_creation_method	'MofGen! by Chris Wilmer'
_symmetry_space_group_name_H-M	'P1'
_symmetry_Int_Tables_number	1
_symmetry_cell_setting	triclinic
loop_
_symmetry_equiv_pos_as_xyz
  x,y,z
_cell_length_a	13.262529
_cell_length_b	10.868271
_cell_length_c	13.339070
_cell_angle_alpha	90.002394
_cell_angle_beta	80.570968
_cell_angle_gamma	74.079838
loop_
_atom_site_label
_atom_site_type_symbol
_atom_site_fract_x
_atom_site_fract_y
_atom_site_fract_z
O1	O	-1.432406	0.581653	0.136423
O2	O	-1.131141	0.480841	0.151258
O3	O	-1.247198	0.519674	-0.003569
O4	O	-1.316349	0.542821	0.291249
O5	O	-1.247183	0.315024	-0.003575
O6	O	-1.131126	0.276192	0.151252
O7	O	-1.432391	0.377004	0.136417
Zn8	Zn	-1.281756	0.294105	0.143833
Zn9	Zn	-1.281776	0.563740	0.143841
O10	O	-1.316334	0.338171	0.291243
C11	C	-1.091787	0.365350	0.150423
C12	C	-0.974545	0.326117	0.147934
C13	C	-0.919463	0.196124	0.146763
C14	C	-0.809306	0.159252	0.144415
C15	C	-0.754221	0.252370	0.143246
C16	C	-0.809304	0.382366	0.144424
C17	C	-0.919470	0.419241	0.146764
C18	C	-0.754228	0.475487	0.143247
C19	C	-0.809310	0.605483	0.144425
C20	C	-0.919466	0.642352	0.146766
C21	C	-0.974551	0.549234	0.147935
C22	C	-0.644061	0.438612	0.140906
C23	C	-0.644068	0.661729	0.140907
C24	C	-0.754225	0.698601	0.143255
N25	N	-1.281750	0.110089	0.143827
C26	C	-1.281770	-0.140910	0.143839
C27	C	-1.281756	-0.001237	0.143835
C28	C	-0.471744	0.492497	0.137250
C29	C	-0.588987	0.531736	0.139736
C30	C	-1.235510	0.413442	-0.041310
C31	C	-1.200691	0.401796	-0.153758
N32	N	-1.281788	0.747758	0.143839
C33	C	-1.471418	0.492388	-0.517412
C34	C	-1.504135	0.503325	-0.411762
C35	C	-1.428277	0.477944	-0.347256
C36	C	-1.319697	0.441624	-0.388411
C37	C	-1.286977	0.430677	-0.494071
C38	C	-1.243835	0.416232	-0.323915
C39	C	-1.135255	0.379912	-0.365070
C40	C	-1.102541	0.368968	-0.470720
C41	C	-1.178399	0.394349	-0.535226
C42	C	-1.276555	0.427179	-0.218254
C43	C	-1.092113	0.365468	-0.194913
C44	C	-1.059397	0.354531	-0.300564
C45	C	-1.328022	0.444406	0.328985
C46	C	-1.362840	0.456060	0.441433
H47	H	-1.364962	0.456751	-0.184757
H48	H	-0.964309	0.748202	0.147712
H49	H	-0.664526	0.222341	0.141335
H50	H	-1.533170	0.513039	-0.569941
C51	C	-1.671423	0.664494	-0.399124
C52	C	-1.623480	0.543251	-0.366529
H53	H	-1.745104	0.689145	-0.371194
H54	H	-1.662792	0.661600	-0.471270
H55	H	-1.638895	0.724966	-0.376998
H56	H	-1.656002	0.482777	-0.388661
H57	H	-1.632119	0.546137	-0.294367
C58	C	-0.640434	0.003666	0.140789
C59	C	-0.748759	0.016369	0.143105
H60	H	-0.603055	-0.084551	0.139970
H61	H	-0.631555	0.046509	0.199401
H62	H	-0.613226	0.040408	0.081414
H63	H	-0.775970	-0.020365	0.202485
H64	H	-0.757645	-0.026491	0.084487
H65	H	-1.151766	0.385450	-0.621256
C66	C	-0.958760	0.426063	-0.575992
C67	C	-0.983189	0.329038	-0.515960
H68	H	-0.885079	0.401406	-0.603923
H69	H	-0.975363	0.502967	-0.535255
H70	H	-0.999262	0.439599	-0.629524
H71	H	-0.942693	0.315508	-0.462423
H72	H	-0.966576	0.252111	-0.556700
H73	H	-0.970989	0.324958	-0.334087
C74	C	-1.060367	0.354864	-0.022591
C75	C	-1.008720	0.337575	-0.124018
H76	H	-1.008886	0.337651	0.021178
H77	H	-1.103602	0.297969	-0.010080
H78	H	-1.103627	0.440706	-0.010083
H79	H	-0.965466	0.251729	-0.136528
H80	H	-0.965467	0.394471	-0.136534
C81	C	-1.424927	0.371610	-0.189562
C82	C	-1.464243	0.489965	-0.231124
H83	H	-1.447143	0.379035	-0.117865
H84	H	-1.349414	0.346361	-0.204833
H85	H	-1.451576	0.309170	-0.217792
H86	H	-1.437587	0.552403	-0.202899
H87	H	-1.539771	0.515230	-0.215844
C88	C	-0.596634	0.232563	0.053221
C89	C	-0.583527	0.295727	0.139618
H90	H	-0.559269	0.144345	0.052433
H91	H	-0.569397	0.269276	-0.006145
H92	H	-0.670129	0.241216	0.054794
H93	H	-0.510032	0.287082	0.138042
H94	H	-0.610759	0.259002	0.198999
H95	H	-0.964322	0.120322	0.147707
H96	H	-0.799089	0.804446	0.144215
H97	H	-0.599218	0.737554	0.139957
C98	C	-1.118815	0.536757	0.064321
C99	C	-1.095641	0.589751	0.150506
H100	H	-1.193571	0.561771	0.065905
H101	H	-1.093886	0.446024	0.063804
H102	H	-1.084718	0.566555	0.004804
H103	H	-1.129732	0.559945	0.210023
H104	H	-1.120582	0.680503	0.151033
