data_functionalizedCrystal
_audit_creation_method	'MofGen! by Chris Wilmer'
_symmetry_space_group_name_H-M	'P1'
_symmetry_Int_Tables_number	1
_symmetry_cell_setting	triclinic
loop_
_symmetry_equiv_pos_as_xyz
  x,y,z
_cell_length_a	16.793024
_cell_length_b	16.793047
_cell_length_c	33.586455
_cell_angle_alpha	113.253857
_cell_angle_beta	66.219990
_cell_angle_gamma	112.758327
loop_
_atom_site_label
_atom_site_type_symbol
_atom_site_fract_x
_atom_site_fract_y
_atom_site_fract_z
O1	O	0.005016	-0.570216	-0.583573
O2	O	-0.034529	-0.474528	-0.453458
O3	O	0.114723	-0.474535	-0.528082
O4	O	-0.144235	-0.570209	-0.508949
O5	O	0.108729	-0.346329	-0.530229
O6	O	-0.040523	-0.346322	-0.455605
O7	O	-0.000977	-0.442010	-0.585721
Cu8	Cu	-0.021297	-0.382459	-0.520859
Cu9	Cu	-0.014209	-0.534079	-0.518320
O10	O	-0.150229	-0.442003	-0.511097
C11	C	0.005100	-0.790970	-0.238461
C12	C	-0.040584	-0.395375	-0.435637
C13	C	-0.044693	-0.353446	-0.386631
C14	C	-0.039275	-0.401741	-0.363054
C15	C	-0.040566	-0.125547	-0.300731
C16	C	-0.044689	-0.223451	-0.321635
C17	C	-0.039266	-0.270752	-0.297563
C18	C	0.005118	-0.521142	-0.103554
C19	C	-0.046224	-0.263935	-0.366370
C20	C	-0.036476	-0.360146	-0.318399
C21	C	-0.030850	-0.408530	-0.294565
C22	C	-0.028014	-0.367522	-0.249895
C23	C	-0.030804	-0.278128	-0.229058
C24	C	-0.036430	-0.229743	-0.252892
C25	C	-0.027971	-0.237122	-0.184383
C26	C	-0.022345	-0.285507	-0.160550
C27	C	-0.019555	-0.374900	-0.181386
C28	C	-0.022391	-0.415909	-0.226057
C29	C	-0.019601	-0.505302	-0.246894
C30	C	-0.013975	-0.553687	-0.223060
C31	C	-0.011142	-0.512684	-0.178391
C32	C	-0.013932	-0.423291	-0.157554
C33	C	-0.005516	-0.561069	-0.154557
C34	C	-0.002726	-0.650463	-0.175394
C35	C	-0.005562	-0.691471	-0.220064
C36	C	-0.011185	-0.643081	-0.243897
C37	C	-0.022434	-0.546309	-0.291568
C38	C	-0.019644	-0.635702	-0.312405
C39	C	-0.014021	-0.684089	-0.288567
C40	C	-0.022480	-0.676711	-0.357076
C41	C	-0.028106	-0.628326	-0.380910
C42	C	-0.030896	-0.538933	-0.360073
C43	C	-0.028060	-0.497924	-0.315402
C44	C	-0.036522	-0.490548	-0.383907
C45	C	0.815184	-0.521162	-0.508596
C46	C	0.415541	-0.125553	-0.528781
C47	C	0.375032	-0.223457	-0.531493
C48	C	0.423813	-0.270761	-0.529101
C49	C	0.149318	-0.395376	-0.530584
C50	C	0.246774	-0.353455	-0.532364
C51	C	0.294574	-0.401748	-0.529976
C52	C	0.548961	-0.790984	-0.510398
C53	C	0.286104	-0.263940	-0.532530
C54	C	0.383336	-0.360149	-0.528302
C55	C	0.432207	-0.407971	-0.525810
C56	C	0.392316	-0.497392	-0.524993
C57	C	0.303554	-0.538991	-0.526667
C58	C	0.254683	-0.491169	-0.529159
C59	C	0.263666	-0.628421	-0.525851
C60	C	0.312537	-0.676243	-0.523359
C61	C	0.401299	-0.634644	-0.521685
C62	C	0.441190	-0.545223	-0.522502
C63	C	0.529952	-0.503624	-0.520828
C64	C	0.578823	-0.551446	-0.518336
C65	C	0.538939	-0.640864	-0.517520
C66	C	0.450177	-0.682463	-0.519194
C67	C	0.587810	-0.688687	-0.515028
C68	C	0.676572	-0.647088	-0.513354
C69	C	0.716463	-0.557666	-0.514172
C70	C	0.667586	-0.509847	-0.516662
C71	C	0.569840	-0.414195	-0.521644
C72	C	0.658602	-0.372596	-0.519970
C73	C	0.707476	-0.420426	-0.517480
C74	C	0.698493	-0.283174	-0.520788
C75	C	0.649622	-0.235352	-0.523280
C76	C	0.560860	-0.276951	-0.524954
C77	C	0.520969	-0.366372	-0.524136
C78	C	0.511989	-0.229129	-0.527446
C79	C	-0.040530	-0.395407	-0.935652
C80	C	0.005063	-0.791004	-0.738448
C81	C	0.009186	-0.693099	-0.717543
C82	C	0.003779	-0.645796	-0.741620
C83	C	0.005077	-0.521171	-0.603544
C84	C	0.009198	-0.563096	-0.652550
C85	C	0.003786	-0.514804	-0.676131
C86	C	-0.040516	-0.125574	-0.800747
C87	C	0.010719	-0.652613	-0.672809
C88	C	0.000994	-0.556406	-0.720789
C89	C	-0.004621	-0.508585	-0.744908
C90	C	-0.007444	-0.419162	-0.724369
C91	C	-0.004651	-0.377560	-0.679711
C92	C	0.000964	-0.425381	-0.655592
C93	C	-0.007471	-0.288129	-0.659174
C94	C	-0.013086	-0.240308	-0.683293
C95	C	-0.015878	-0.281910	-0.727951
C96	C	-0.013056	-0.371333	-0.748490
C97	C	-0.015848	-0.412935	-0.793148
C98	C	-0.021463	-0.365114	-0.817267
C99	C	-0.024282	-0.275694	-0.796731
C100	C	-0.021490	-0.234092	-0.752073
C101	C	-0.029897	-0.227873	-0.820850
C102	C	-0.032690	-0.269476	-0.865508
C103	C	-0.029867	-0.358899	-0.886047
C104	C	-0.024255	-0.406717	-0.861925
C105	C	-0.013028	-0.502367	-0.813685
C106	C	-0.015821	-0.543969	-0.858343
C107	C	-0.021433	-0.496140	-0.882464
C108	C	-0.012998	-0.633392	-0.878882
C109	C	-0.007383	-0.681213	-0.854763
C110	C	-0.004591	-0.639611	-0.810105
C111	C	-0.007414	-0.550188	-0.789566
C112	C	0.001024	-0.687432	-0.785986
O113	O	-0.000965	0.173549	-0.277957
O114	O	-0.040516	-0.085616	-0.325254
O115	O	0.108737	0.059592	-0.327284
O116	O	-0.150219	0.028341	-0.275927
O117	O	0.114753	0.055151	-0.263265
O118	O	-0.034500	-0.090057	-0.261234
O119	O	0.005051	0.169108	-0.213937
Cu120	Cu	-0.014175	0.039120	-0.231740
Cu121	Cu	-0.021290	0.044372	-0.307451
O122	O	-0.144202	0.023900	-0.211907
O123	O	-0.034458	-0.474571	0.046517
O124	O	0.005076	-0.570190	-0.083599
O125	O	-0.144170	-0.570237	-0.008972
O126	O	0.114787	-0.474523	-0.028110
O127	O	-0.150200	-0.442024	-0.011093
O128	O	-0.000954	-0.441976	-0.085720
O129	O	-0.040488	-0.346357	0.044396
Cu130	Cu	-0.021272	-0.382460	-0.020856
Cu131	Cu	-0.014141	-0.534087	-0.018347
O132	O	0.108757	-0.346309	-0.030231
C133	C	-0.850734	0.086244	-0.289716
C134	C	-0.450996	0.035117	-0.097351
C135	C	-0.410501	0.028587	-0.146852
C136	C	-0.459292	0.034683	-0.169840
C137	C	-0.184802	0.024283	-0.235878
C138	C	-0.282257	0.023363	-0.213592
C139	C	-0.330068	0.029423	-0.237088
C140	C	-0.584541	0.075410	-0.428242
C141	C	-0.321573	0.024104	-0.168302
C142	C	-0.418828	0.035176	-0.215083
C143	C	-0.467711	0.041476	-0.238329
C144	C	-0.427833	0.042022	-0.283580
C145	C	-0.339073	0.036269	-0.305586
C146	C	-0.290190	0.029970	-0.282340
C147	C	-0.299198	0.036812	-0.350842
C148	C	-0.348081	0.043111	-0.374088
C149	C	-0.436841	0.048864	-0.352082
C150	C	-0.476719	0.048318	-0.306830
C151	C	-0.565480	0.054071	-0.284825
C152	C	-0.614362	0.060370	-0.308071
C153	C	-0.574491	0.060913	-0.353321
C154	C	-0.485730	0.055160	-0.375326
C155	C	-0.623374	0.067212	-0.376567
C156	C	-0.712134	0.072965	-0.354561
C157	C	-0.752012	0.072419	-0.309309
C158	C	-0.703123	0.066123	-0.286065
C159	C	-0.605355	0.053528	-0.239569
C160	C	-0.694115	0.059281	-0.217564
C161	C	-0.743001	0.065577	-0.240813
C162	C	-0.733993	0.058735	-0.172312
C163	C	-0.685110	0.052436	-0.149066
C164	C	-0.596350	0.046683	-0.171072
C165	C	-0.556472	0.047229	-0.216323
C166	C	-0.547467	0.040383	-0.147826
O167	O	0.585213	0.169090	-0.504004
O168	O	0.494056	-0.090076	-0.525516
O169	O	0.488081	0.055124	-0.449918
O170	O	0.591189	0.023889	-0.579602
O171	O	0.359978	0.059584	-0.452885
O172	O	0.365953	-0.085616	-0.528483
O173	O	0.457110	0.173550	-0.506971
Cu174	Cu	0.399835	0.044374	-0.517998
Cu175	Cu	0.551332	0.039099	-0.514489
O176	O	0.463086	0.028349	-0.582569
C177	C	0.815354	-0.521094	-0.008709
C178	C	0.415547	-0.125494	-0.028771
C179	C	0.375059	-0.223405	-0.031498
C180	C	0.423859	-0.270708	-0.029121
C181	C	0.149365	-0.395355	-0.030599
C182	C	0.246820	-0.353421	-0.032381
C183	C	0.294640	-0.401713	-0.030008
C184	C	0.549171	-0.790955	-0.010537
C185	C	0.286131	-0.263897	-0.032533
C186	C	0.383402	-0.360104	-0.028335
C187	C	0.432293	-0.407926	-0.025859
C188	C	0.392422	-0.497356	-0.025055
C189	C	0.303660	-0.538965	-0.026727
C190	C	0.254769	-0.491143	-0.029204
C191	C	0.263791	-0.628403	-0.025925
C192	C	0.312683	-0.676224	-0.023448
C193	C	0.401445	-0.634615	-0.021775
C194	C	0.441316	-0.545185	-0.022579
C195	C	0.530078	-0.503576	-0.020906
C196	C	0.578969	-0.551398	-0.018429
C197	C	0.539104	-0.640825	-0.017627
C198	C	0.450342	-0.682434	-0.019300
C199	C	0.587995	-0.688646	-0.015150
C200	C	0.676757	-0.647037	-0.013477
C201	C	0.716628	-0.557607	-0.014281
C202	C	0.667731	-0.509789	-0.016757
C203	C	0.569946	-0.414138	-0.021709
C204	C	0.658708	-0.372530	-0.020036
C205	C	0.707602	-0.420359	-0.017561
C206	C	0.698579	-0.283100	-0.020840
C207	C	0.649688	-0.235278	-0.023317
C208	C	0.560926	-0.276887	-0.024990
C209	C	0.521055	-0.366317	-0.024186
C210	C	0.512035	-0.229066	-0.027467
O211	O	-0.620614	0.089309	0.052274
O212	O	-0.529507	0.043784	-0.078544
O213	O	-0.523494	0.194833	-0.006033
O214	O	-0.626628	-0.061740	-0.020236
O215	O	-0.395386	0.185419	-0.005549
O216	O	-0.401400	0.034370	-0.078059
O217	O	-0.492507	0.079895	0.052758
Cu218	Cu	-0.435256	0.056273	-0.012607
Cu219	Cu	-0.586758	0.067406	-0.013179
O220	O	-0.498521	-0.071154	-0.019752
C221	C	-0.437537	0.048335	0.402491
C222	C	-0.837226	0.099430	0.210091
C223	C	-0.739773	0.100339	0.187806
C224	C	-0.691967	0.094287	0.211308
C225	C	-0.571027	0.088563	0.071568
C226	C	-0.611521	0.095108	0.121070
C227	C	-0.562739	0.089011	0.144061
C228	C	-0.171338	0.037467	0.263967
C229	C	-0.700452	0.099593	0.142516
C230	C	-0.603213	0.088528	0.189308
C231	C	-0.554892	0.082255	0.212848
C232	C	-0.466098	0.076466	0.191141
C233	C	-0.425624	0.076949	0.145894
C234	C	-0.473945	0.083222	0.122354
C235	C	-0.336822	0.071163	0.124188
C236	C	-0.288502	0.064890	0.147728
C237	C	-0.328975	0.064407	0.192975
C238	C	-0.417770	0.070196	0.214682
C239	C	-0.458244	0.069713	0.259929
C240	C	-0.409923	0.063441	0.283469
C241	C	-0.321132	0.057655	0.261765
C242	C	-0.280658	0.058138	0.216518
C243	C	-0.272811	0.051382	0.285305
C244	C	-0.313285	0.050899	0.330552
C245	C	-0.402079	0.056688	0.352259
C246	C	-0.450397	0.062957	0.328716
C247	C	-0.547046	0.075500	0.281635
C248	C	-0.587520	0.075016	0.326882
C249	C	-0.539191	0.068747	0.350423
C250	C	-0.676314	0.080806	0.348589
C251	C	-0.724634	0.087078	0.325049
C252	C	-0.684160	0.087561	0.279802
C253	C	-0.595366	0.081772	0.258095
C254	C	-0.732481	0.093834	0.256262
O255	O	-0.040608	-1.085661	-0.825229
O256	O	-0.001018	-0.826491	-0.777938
O257	O	-0.150287	-0.971682	-0.775894
O258	O	0.108661	-0.940470	-0.827272
O259	O	-0.144253	-0.976123	-0.711878
O260	O	0.005016	-0.830932	-0.713922
O261	O	-0.034575	-1.090102	-0.761213
Cu262	Cu	-0.014228	-0.960923	-0.731722
Cu263	Cu	-0.021364	-0.955670	-0.807428
O264	O	0.114695	-0.944911	-0.763256
O265	O	-0.049204	-0.216238	-0.390138
C266	C	0.023934	-0.087413	-0.419426
C267	C	0.027428	-0.141358	-0.392509
H268	H	0.085873	-0.026851	-0.421343
H269	H	0.023187	-0.132201	-0.455182
H270	H	-0.039891	-0.063219	-0.401649
H271	H	0.091245	-0.165561	-0.410246
H272	H	0.028125	-0.096536	-0.356753
H273	H	-0.453130	0.055597	-0.412328
O274	O	-0.015740	-0.674113	-0.922434
C275	C	-0.015038	-0.809651	-0.984825
C276	C	-0.011947	-0.763651	-0.935497
H277	H	-0.011953	-0.882044	-0.995405
H278	H	-0.080496	-0.809444	-0.987511
H279	H	0.045118	-0.771489	-1.008088
H280	H	-0.072057	-0.801776	-0.912204
H281	H	0.053550	-0.763847	-0.932848
H282	H	-0.806568	0.063430	-0.154318
H283	H	0.245737	-0.223998	-0.033572
O284	O	-0.030533	-0.149887	-0.164066
C285	C	0.045493	0.000297	-0.127901
C286	C	0.048524	-0.098463	-0.150916
H287	H	0.109394	0.041898	-0.117254
H288	H	0.041024	0.028020	-0.152699
H289	H	-0.016225	0.004071	-0.096681
H290	H	0.110237	-0.102315	-0.182133
H291	H	0.052946	-0.126142	-0.126087
H292	H	-0.208057	0.053400	0.198770
O293	O	0.785215	-0.242605	-0.019287
C294	C	0.941428	-0.243890	-0.054982
C295	C	0.843364	-0.289826	-0.056806
H296	H	0.988467	-0.282060	-0.085307
H297	H	0.961682	-0.171469	-0.056014
H298	H	0.946722	-0.244166	-0.022250
H299	H	0.837996	-0.289617	-0.089533
H300	H	0.823154	-0.362224	-0.055749
H301	H	-0.015393	-0.167196	-0.666497
O302	O	0.273672	-0.763461	-0.022691
C303	C	0.140366	-0.888890	-0.023794
C304	C	0.184440	-0.790097	-0.024666
H305	H	0.068208	-0.910449	-0.025381
H306	H	0.180934	-0.933598	-0.054191
H307	H	0.139311	-0.895741	0.008871
H308	H	0.185502	-0.783159	-0.057311
H309	H	0.143858	-0.745435	0.005753
H310	H	0.182201	-0.525171	-0.030575
O311	O	0.015184	-0.691171	-0.153281
C312	C	-0.031089	-0.737199	-0.085996
C313	C	-0.051488	-0.691096	-0.110993
H314	H	-0.084969	-0.737136	-0.051798
H315	H	-0.031232	-0.809545	-0.107236
H316	H	0.038087	-0.698985	-0.080439
H317	H	-0.120665	-0.729235	-0.116555
H318	H	-0.051284	-0.618745	-0.089741
H319	H	-0.740818	0.102779	0.123104
H320	H	-0.038719	-0.156659	-0.235851
H321	H	-0.215904	0.060157	0.129977
O322	O	-0.268588	0.032054	0.350232
C323	C	-0.204921	-0.075741	0.348760
C324	C	-0.255522	-0.054507	0.326421
H325	H	-0.194358	-0.145733	0.329524
H326	H	-0.136514	-0.023738	0.347829
H327	H	-0.246491	-0.073492	0.385489
H328	H	-0.214027	-0.056769	0.289684
H329	H	-0.323934	-0.106513	0.327388
H330	H	0.191224	-0.662427	-0.027294
O331	O	-0.273345	0.020181	-0.145217
C332	C	-0.191582	-0.064417	-0.140318
C333	C	-0.246168	-0.060082	-0.166510
H334	H	-0.169609	-0.129313	-0.157518
H335	H	-0.129299	-0.004150	-0.140056
H336	H	-0.235487	-0.063020	-0.103966
H337	H	-0.202338	-0.061506	-0.202873
H338	H	-0.308457	-0.120344	-0.166736
H339	H	0.710767	-0.684484	-0.506030
O340	O	0.411309	-0.769628	-0.018462
C341	C	0.290133	-0.873391	0.020592
C342	C	0.334226	-0.774613	0.019695
H343	H	0.227814	-0.877451	0.051445
H344	H	0.269433	-0.915312	-0.011623
H345	H	0.340558	-0.900533	0.022635
H346	H	0.283849	-0.747390	0.017668
H347	H	0.354945	-0.732754	0.051909
H348	H	-0.717713	0.052007	-0.112064
O349	O	-0.011272	-0.771269	-0.308965
C350	C	-0.011981	-0.896040	-0.376720
C351	C	-0.015076	-0.797302	-0.353681
H352	H	-0.015074	-0.917124	-0.412874
H353	H	0.053483	-0.903179	-0.377505
H354	H	-0.072130	-0.940938	-0.356822
H355	H	0.045029	-0.752344	-0.373560
H356	H	-0.080578	-0.790236	-0.352890
O357	O	0.238029	-0.216330	-0.533856
C358	C	0.227278	-0.132228	-0.574481
C359	C	0.281799	-0.186148	-0.573047
H360	H	0.262654	-0.107795	-0.606158
H361	H	0.156446	-0.177090	-0.575284
H362	H	0.222400	-0.071822	-0.543037
H363	H	0.286749	-0.246557	-0.604484
H364	H	0.352601	-0.141224	-0.572220
H365	H	0.544632	-0.155941	-0.028119
H366	H	-0.023809	-0.160979	-0.735279
H367	H	0.003251	-0.391359	-0.619081
O368	O	-0.004660	-0.768456	-0.874720
C369	C	0.004103	-0.900719	-0.866432
C370	C	0.001001	-0.801932	-0.843771
H371	H	0.008701	-0.927808	-0.841423
H372	H	-0.059816	-0.942683	-0.877012
H373	H	0.065793	-0.904777	-0.897655
H374	H	-0.060647	-0.797788	-0.812533
H375	H	0.064963	-0.760013	-0.833225
H376	H	0.710969	-0.684436	-0.006165
O377	O	-0.578821	0.068242	0.394550
C378	C	-0.712667	0.074235	0.458747
C379	C	-0.667908	0.074798	0.408772
H380	H	-0.784695	0.079554	0.470263
H381	H	-0.714136	0.008910	0.462337
H382	H	-0.672273	0.133895	0.480648
H383	H	-0.708266	0.015183	0.386840
H384	H	-0.666426	0.140162	0.405217
O385	O	0.168104	-0.531869	-0.530770
C386	C	0.045171	-0.667445	-0.531389
C387	C	0.143224	-0.621456	-0.529553
H388	H	0.025031	-0.739889	-0.530415
H389	H	-0.001945	-0.629395	-0.501043
H390	H	0.039858	-0.667108	-0.564104
H391	H	0.148623	-0.621782	-0.496858
H392	H	0.190294	-0.659520	-0.559921
H393	H	0.003321	-0.760550	-0.802778
H394	H	0.780178	-0.386331	-0.016193
H395	H	0.682288	-0.162154	-0.023969
O396	O	-0.019733	-0.763889	-0.377473
C397	C	-0.020433	-0.888655	-0.445230
C398	C	-0.023536	-0.789919	-0.422188
H399	H	-0.023526	-0.909737	-0.481383
H400	H	0.045033	-0.895789	-0.446015
H401	H	-0.080580	-0.933557	-0.425333
H402	H	0.036566	-0.744956	-0.442066
H403	H	-0.089040	-0.782857	-0.421397
H404	H	-0.440845	0.083623	0.085362
O405	O	0.177087	-0.669117	-0.527460
C406	C	0.054158	-0.804696	-0.528080
C407	C	0.152209	-0.758704	-0.526242
H408	H	0.034020	-0.877139	-0.527105
H409	H	0.007040	-0.766647	-0.497734
H410	H	0.048846	-0.804361	-0.560795
H411	H	0.157608	-0.759027	-0.493546
H412	H	0.199282	-0.796767	-0.556610
O413	O	-0.297222	0.071588	0.080053
C414	C	-0.163329	0.065715	0.015878
C415	C	-0.208081	0.065195	0.065859
H416	H	-0.091245	0.060565	0.004389
H417	H	-0.203612	0.006018	-0.006064
H418	H	-0.161985	0.131017	0.012317
H419	H	-0.209434	-0.000066	0.069464
H420	H	-0.167784	0.124936	0.087777
H421	H	-0.709407	0.080425	0.385586
H422	H	0.279916	-0.749353	-0.522691
H423	H	-0.797237	0.091807	0.342798
H424	H	-0.030422	-0.661858	-0.417434
H425	H	-0.805083	0.098565	0.274011
H426	H	-0.580066	0.039960	-0.110823
O427	O	0.794035	-0.379702	-0.515830
C428	C	0.917012	-0.244165	-0.515269
C429	C	0.818975	-0.290163	-0.517129
H430	H	0.937212	-0.171771	-0.516328
H431	H	0.922374	-0.244374	-0.482538
H432	H	0.964053	-0.282327	-0.545597
H433	H	0.771874	-0.252038	-0.486823
H434	H	0.813686	-0.289964	-0.549878
H435	H	-0.020027	-0.251971	-0.124027
H436	H	-0.047834	-0.232081	-0.882358
O437	O	0.785052	-0.242454	-0.519140
C438	C	0.908025	-0.106915	-0.518579
C439	C	0.809989	-0.152916	-0.520440
H440	H	0.928224	-0.034522	-0.519639
H441	H	0.913387	-0.107122	-0.485849
H442	H	0.955068	-0.145076	-0.548908
H443	H	0.762887	-0.114792	-0.490135
H444	H	0.804701	-0.152720	-0.553190
H445	H	0.417564	-0.755580	-0.518528
O446	O	0.688414	-0.148074	-0.523992
C447	C	0.682048	0.005885	-0.487290
C448	C	0.638047	-0.092917	-0.486425
H449	H	0.641334	0.050506	-0.456925
H450	H	0.754167	0.027584	-0.485627
H451	H	0.683186	0.012700	-0.519981
H452	H	0.636843	-0.099806	-0.453739
H453	H	0.565951	-0.114571	-0.488112
H454	H	-0.217624	0.025258	-0.300336
O455	O	0.013727	-0.700348	-0.649069
C456	C	-0.059582	-0.828994	-0.619642
C457	C	-0.063085	-0.775030	-0.646547
H458	H	-0.121686	-0.889375	-0.617586
H459	H	0.004093	-0.853442	-0.637454
H460	H	-0.058586	-0.784067	-0.583936
H461	H	-0.064116	-0.819901	-0.682255
H462	H	-0.126752	-0.750571	-0.628699
H463	H	-0.023718	-0.530163	-0.918978
H464	H	-0.226632	0.032105	-0.368836
H465	H	0.544602	-0.156012	-0.528109
H466	H	-0.746339	0.088530	-0.372795
O467	O	-0.829507	0.071409	-0.219312
C468	C	-0.929001	0.155290	-0.157391
C469	C	-0.831008	0.148766	-0.181697
H470	H	-0.930250	0.217819	-0.126969
H471	H	-0.957180	0.159991	-0.181866
H472	H	-0.972134	0.092844	-0.145328
H473	H	-0.787804	0.211195	-0.193761
H474	H	-0.802902	0.144022	-0.157206
H475	H	-0.038841	-0.524079	-0.420431
H476	H	-0.011621	-0.389765	-0.121028
H477	H	-0.315470	0.043557	-0.411085
H478	H	-0.005182	-0.254109	-0.622664
