data_functionalizedCrystal
_audit_creation_method	'MofGen! by Chris Wilmer'
_symmetry_space_group_name_H-M	'P1'
_symmetry_Int_Tables_number	1
_symmetry_cell_setting	triclinic
loop_
_symmetry_equiv_pos_as_xyz
  x,y,z
_cell_length_a	23.532407
_cell_length_b	23.532407
_cell_length_c	10.868271
_cell_angle_alpha	89.990218
_cell_angle_beta	90.001021
_cell_angle_gamma	82.848678
loop_
_atom_site_label
_atom_site_type_symbol
_atom_site_fract_x
_atom_site_fract_y
_atom_site_fract_z
O1	O	0.755259	0.069135	-0.102181
O2	O	0.589396	0.079138	-0.102219
O3	O	0.677329	-0.008795	-0.102176
O4	O	0.667326	0.157068	-0.102224
O5	O	0.677322	-0.008798	0.102468
O6	O	0.589389	0.079135	0.102426
O7	O	0.755252	0.069132	0.102464
Zn8	Zn	0.672319	0.074133	0.134936
Zn9	Zn	0.672329	0.074137	-0.134692
O10	O	0.667319	0.157065	0.102421
C11	C	0.568176	0.078882	0.000099
C12	C	0.504959	0.078116	0.000085
C13	C	0.105856	0.125350	0.000128
C14	C	0.046456	0.124638	0.000135
O15	O	0.009711	0.168424	0.000168
N16	N	0.023830	0.072362	0.000148
C17	C	0.060607	0.020794	0.000166
O18	O	0.035908	-0.023737	0.000179
C19	C	0.120006	0.021506	0.000167
C20	C	0.142629	0.073785	0.000142
C21	C	0.128479	0.177625	0.000104
C22	C	0.187876	0.178336	0.000094
C23	C	0.224649	0.126772	0.000108
C24	C	0.202025	0.074496	0.000132
C25	C	0.156783	-0.030062	0.000193
C26	C	0.216185	-0.029345	0.000195
C27	C	0.238808	0.022934	0.000170
C28	C	0.298194	0.023643	0.000136
N29	N	0.320820	0.075920	0.000123
C30	C	0.284048	0.127484	0.000109
C31	C	-0.064135	0.019302	0.000166
C32	C	-0.123533	0.018589	0.000156
C33	C	-0.137680	0.122434	0.000128
C34	C	-0.078281	0.123146	0.000129
C35	C	-0.041509	0.071578	0.000153
C36	C	0.408784	0.128974	0.000087
C37	C	0.468186	0.129680	0.000071
C38	C	0.482329	0.025836	0.000106
C39	C	0.422932	0.025129	0.000115
C40	C	0.386160	0.076702	0.000109
O41	O	0.334974	-0.020119	0.000108
O42	O	0.308755	0.172007	0.000112
C43	C	0.677071	-0.030013	0.000149
C44	C	0.676305	-0.093230	0.000158
C45	C	0.723539	-0.492333	0.000102
C46	C	0.722827	-0.551733	0.000092
O47	O	0.766613	-0.588478	0.000057
N48	N	0.670551	-0.574359	0.000081
C49	C	0.618983	-0.537582	0.000067
O50	O	0.574452	-0.562281	0.000056
C51	C	0.619695	-0.478182	0.000068
C52	C	0.671974	-0.455560	0.000091
C53	C	0.775814	-0.469710	0.000124
C54	C	0.776525	-0.410313	0.000136
C55	C	0.724961	-0.373540	0.000125
C56	C	0.672685	-0.396164	0.000103
C57	C	0.568127	-0.441406	0.000045
C58	C	0.568844	-0.382004	0.000045
C59	C	0.621123	-0.359381	0.000068
C60	C	0.621832	-0.299995	0.000105
N61	N	0.674109	-0.277368	0.000116
C62	C	0.725673	-0.314141	0.000126
C63	C	0.617491	-0.662324	0.000063
C64	C	0.616778	-0.721722	0.000072
C65	C	0.720623	-0.735869	0.000094
C66	C	0.721335	-0.676470	0.000095
C67	C	0.669767	-0.639698	0.000075
C68	C	0.727163	-0.189405	0.000152
C69	C	0.727869	-0.130003	0.000169
C70	C	0.624025	-0.115860	0.000139
C71	C	0.623318	-0.175257	0.000129
C72	C	0.674891	-0.212029	0.000131
O73	O	0.578070	-0.263215	0.000135
O74	O	0.770196	-0.289433	0.000121
C75	C	0.776472	0.069388	0.000143
C76	C	0.839689	0.070154	0.000148
C77	C	0.667577	0.178283	0.000093
C78	C	0.668343	0.241500	0.000075
N79	N	0.672317	0.074129	0.318950
N80	N	0.672336	0.074136	-0.318706
C81	C	0.672326	0.074136	0.569956
C82	C	0.672319	0.074134	0.430279
H83	H	-0.167632	0.164421	0.000122
Br84	Br	0.545825	-0.752416	0.000069
Br85	Br	0.547499	-0.612424	0.000046
H86	H	-0.059867	0.165717	0.000115
Br87	Br	0.497171	-0.472092	0.000008
Br88	Br	0.554048	-0.065943	0.000126
H89	H	0.246123	-0.071339	0.000216
H90	H	-0.034198	-0.022693	0.000175
Br91	Br	0.798825	-0.099305	0.000202
H92	H	-0.141947	-0.023982	0.000157
H93	H	0.098544	0.219617	0.000097
Br94	Br	0.845804	-0.519606	0.000137
H95	H	0.378851	0.170970	0.000086
H96	H	0.138375	-0.072634	0.000215
H97	H	0.404512	-0.017441	0.000117
H98	H	0.512280	-0.016146	0.000113
Br99	Br	0.797156	-0.239299	0.000153
Br100	Br	0.218568	0.249291	0.000065
H101	H	0.526850	-0.352066	0.000026
H102	H	0.580748	-0.193677	0.000144
H103	H	0.486602	0.172255	0.000050
H104	H	0.762610	-0.765821	0.000098
Br105	Br	0.792288	-0.645775	0.000130
Br106	Br	0.847480	-0.379621	0.000133
