data_functionalizedCrystal
_audit_creation_method	'MofGen! by Chris Wilmer'
_symmetry_space_group_name_H-M	'P1'
_symmetry_Int_Tables_number	1
_symmetry_cell_setting	triclinic
loop_
_symmetry_equiv_pos_as_xyz
  x,y,z
_cell_length_a	15.297979
_cell_length_b	15.297327
_cell_length_c	17.077396
_cell_angle_alpha	99.646061
_cell_angle_beta	80.292328
_cell_angle_gamma	110.796881
loop_
_atom_site_label
_atom_site_type_symbol
_atom_site_fract_x
_atom_site_fract_y
_atom_site_fract_z
Zn1	Zn	1.357786	-0.124455	-0.667417
Zn2	Zn	1.857786	0.375545	-0.167417
Zn3	Zn	1.330752	-0.280004	-0.555482
Zn4	Zn	1.830752	0.219996	-0.055482
Zn5	Zn	1.202250	-0.151374	-0.516751
Zn6	Zn	1.702250	0.348626	-0.016751
Zn7	Zn	1.175292	-0.306820	-0.667288
Zn8	Zn	1.675292	0.193180	-0.167288
O9	O	1.266520	-0.215663	-0.601734
O10	O	1.766520	0.284337	-0.101734
O11	O	1.484352	-0.122601	-0.668832
O12	O	1.984352	0.377399	-0.168832
O13	O	1.313674	-0.262984	-0.440499
O14	O	1.813674	0.237016	0.059501
O15	O	1.245478	-0.017650	-0.520582
O16	O	1.745478	0.482350	-0.020582
O17	O	1.464491	-0.236882	-0.586594
O18	O	1.964491	0.263118	-0.086594
O19	O	1.359749	0.002127	-0.631276
O20	O	1.859749	0.502127	-0.131276
O21	O	1.219264	-0.168480	-0.412043
O22	O	1.719264	0.331520	0.087957
O23	O	1.068521	-0.194482	-0.520457
O24	O	1.568521	0.305518	-0.020457
O25	O	1.199532	-0.282586	-0.777150
O26	O	1.699532	0.217414	-0.277150
O27	O	1.048715	-0.308688	-0.631055
O28	O	1.548715	0.191312	-0.131055
O29	O	1.333609	-0.148603	-0.777245
O30	O	1.833609	0.351397	-0.277245
O31	O	1.287534	-0.413714	-0.586468
O32	O	1.787534	0.086286	-0.086468
O33	O	1.173318	-0.433416	-0.668611
O34	O	1.673318	0.066584	-0.168611
C35	C	1.024871	-0.257417	-0.571540
C36	C	1.524871	0.242583	-0.071540
C37	C	0.921488	-0.275301	-0.558644
C38	C	1.421488	0.224699	-0.058644
C39	C	0.862593	-0.343110	-0.509676
C40	C	1.362593	0.156890	-0.009676
C41	C	0.765460	-0.359915	-0.497564
C42	C	1.265460	0.140085	0.002436
C43	C	0.727213	-0.308909	-0.534413
C44	C	1.227213	0.191091	-0.034413
C45	C	0.786109	-0.241095	-0.583377
C46	C	1.286109	0.258905	-0.083377
C47	C	0.883251	-0.224293	-0.595495
C48	C	1.383251	0.275707	-0.095495
C49	C	0.747870	-0.190092	-0.620232
C50	C	1.247870	0.309908	-0.120232
C51	C	0.806766	-0.122278	-0.669196
C52	C	1.306766	0.377722	-0.169196
C53	C	0.903899	-0.105478	-0.681312
C54	C	1.403899	0.394522	-0.181312
C55	C	0.942146	-0.156484	-0.644463
C56	C	1.442146	0.343516	-0.144463
C57	C	0.650728	-0.206894	-0.608114
C58	C	1.150728	0.293106	-0.108114
C59	C	0.671386	-0.088077	-0.693933
C60	C	1.171386	0.411923	-0.193933
C61	C	0.768519	-0.071272	-0.706045
C62	C	1.268519	0.428728	-0.206045
C63	C	1.224592	-0.457308	-0.631749
C64	C	1.724592	0.042692	-0.131749
C65	C	1.206741	-0.560669	-0.644626
C66	C	1.706741	-0.060669	-0.144626
C67	C	1.394491	-0.810838	-0.510016
C68	C	1.894491	-0.310838	-0.010016
C69	C	1.411263	-0.713724	-0.497913
C70	C	1.911263	-0.213724	0.002087
C71	C	1.360134	-0.675456	-0.534590
C72	C	1.860134	-0.175456	-0.034590
C73	C	1.292230	-0.734310	-0.583372
C74	C	1.792230	-0.234310	-0.083372
C75	C	1.275451	-0.831434	-0.595471
C76	C	1.775451	-0.331434	-0.095471
C77	C	1.241094	-0.696052	-0.620046
C78	C	1.741094	-0.196052	-0.120046
C79	C	1.173190	-0.754907	-0.668827
C80	C	1.673190	-0.254907	-0.168827
C81	C	1.156415	-0.852020	-0.680925
C82	C	1.656415	-0.352020	-0.180925
C83	C	1.207544	-0.890289	-0.644247
C84	C	1.707544	-0.390289	-0.144247
C85	C	1.257873	-0.598928	-0.607947
C86	C	1.757873	-0.098928	-0.107947
C87	C	1.138833	-0.619524	-0.693402
C88	C	1.638833	-0.119524	-0.193402
C89	C	1.122062	-0.716638	-0.705505
C90	C	1.622062	-0.216638	-0.205505
C91	C	1.509112	-0.173748	-0.632048
C92	C	2.009112	0.326252	-0.132048
C93	C	1.612491	-0.155886	-0.644965
C94	C	2.112491	0.344114	-0.144965
C95	C	1.266579	-0.215583	-0.806476
C96	C	1.766579	0.284417	-0.306476
C97	C	1.266604	-0.215549	-0.893724
C98	C	1.766604	0.284451	-0.393724
C99	C	1.308636	0.026929	-0.571623
C100	C	1.808636	0.526929	-0.071623
C101	C	1.326583	0.130307	-0.558792
C102	C	1.826583	0.630307	-0.058792
C103	C	1.217464	-0.166330	-0.919898
C104	C	1.717464	0.333670	-0.419898
C105	C	1.217483	-0.166307	-1.001878
C106	C	1.717483	0.333693	-0.501878
C107	C	1.266648	-0.215497	-1.057682
C108	C	1.766648	0.284503	-0.557682
C109	C	1.315789	-0.264721	-1.031504
C110	C	1.815789	0.235279	-0.531504
C111	C	1.315764	-0.264750	-0.949525
C112	C	1.815764	0.235250	-0.449525
C113	C	1.315840	-0.264656	-1.202372
C114	C	1.815840	0.235344	-0.702372
C115	C	1.315866	-0.264626	-1.284356
C116	C	1.815866	0.235374	-0.784356
C117	C	1.217558	-0.166213	-1.254725
C118	C	1.717558	0.333787	-0.754725
C119	C	1.217533	-0.166242	-1.172746
C120	C	1.717533	0.333758	-0.672746
C121	C	1.266676	-0.215465	-1.146573
C122	C	1.766676	0.284535	-0.646573
C123	C	1.266526	-0.215667	-0.397788
C124	C	1.766526	0.284333	0.102212
C125	C	1.266726	-0.215408	-0.310530
C126	C	1.766726	0.284592	0.189470
H127	H	0.602784	-0.262110	-0.568247
H128	H	1.102784	0.237890	-0.068247
H129	H	0.640246	-0.046545	-0.723940
H130	H	1.140246	0.453455	-0.223940
H131	H	1.193894	-0.969366	-0.654101
H132	H	1.693894	-0.469366	-0.154101
H133	H	0.816486	-0.016057	-0.745913
H134	H	1.316486	0.483943	-0.245913
H135	H	0.648122	-0.322596	-0.524548
H136	H	1.148122	0.177404	-0.024548
H137	H	1.021239	-0.142802	-0.654320
H138	H	1.521239	0.357198	-0.154320
F139	F	1.448895	-0.851573	-0.470985
F140	F	1.948895	-0.351573	0.029015
F141	F	0.702788	-0.432072	-0.445442
F142	F	1.202788	0.067928	0.054558
F143	F	1.165258	-0.113824	-1.282580
F144	F	1.665258	0.386176	-0.782580
F145	F	1.378186	-0.572064	-0.521901
F146	F	1.878186	-0.072064	-0.021901
F147	F	1.483535	-0.651093	-0.446004
F148	F	1.983535	-0.151093	0.053996
F149	F	1.165214	-0.113881	-1.113356
F150	F	1.665214	0.386119	-0.613356
F151	F	1.368198	-0.316974	-1.343746
F152	F	1.868198	0.183026	-0.843746
F153	F	1.368139	-0.317050	-1.174519
F154	F	1.868139	0.182950	-0.674519
H155	H	1.313161	-0.551017	-0.568228
H156	H	1.813161	-0.051017	-0.068228
F157	F	1.084141	-0.914656	-0.732839
F158	F	1.584141	-0.414656	-0.232839
F159	F	1.165141	-0.113962	-1.029730
F160	F	1.665141	0.386038	-0.529730
H161	H	0.893743	-0.384635	-0.479683
H162	H	1.393743	0.115365	0.020317
F163	F	1.049795	-0.779286	-0.757421
F164	F	1.549795	-0.279286	-0.257421
H165	H	1.097198	-0.588368	-0.723266
H166	H	1.597198	-0.088368	-0.223266
F167	F	1.165141	-0.113969	-0.860513
F168	F	1.665141	0.386031	-0.360513
H169	H	1.355815	-0.304778	-1.076946
H170	H	1.855815	0.195222	-0.576946
F171	F	1.368062	-0.317139	-0.921670
F172	F	1.868062	0.182861	-0.421670
H173	H	0.951848	-0.050268	-0.721190
H174	H	1.451848	0.449732	-0.221190
