data_functionalizedCrystal
_audit_creation_method	'MofGen! by Chris Wilmer'
_symmetry_space_group_name_H-M	'P1'
_symmetry_Int_Tables_number	1
_symmetry_cell_setting	triclinic
loop_
_symmetry_equiv_pos_as_xyz
  x,y,z
_cell_length_a	16.959454
_cell_length_b	10.685912
_cell_length_c	10.685880
_cell_angle_alpha	99.083823
_cell_angle_beta	94.340455
_cell_angle_gamma	85.615033
loop_
_atom_site_label
_atom_site_type_symbol
_atom_site_fract_x
_atom_site_fract_y
_atom_site_fract_z
Zn1	Zn	-0.260488	-1.995724	-0.866777
Zn2	Zn	0.239512	-1.495724	-0.366777
Zn3	Zn	-0.383288	-1.979296	-0.654521
Zn4	Zn	0.116712	-1.479296	-0.154521
Zn5	Zn	-0.260525	-1.767162	-0.638238
Zn6	Zn	0.239475	-1.267162	-0.138238
Zn7	Zn	-0.402030	-1.783404	-0.850415
Zn8	Zn	0.097970	-1.283404	-0.350415
O9	O	-0.326583	-1.881396	-0.752488
O10	O	0.173417	-1.381396	-0.252488
O11	O	-0.268919	-2.171181	-0.852283
O12	O	0.231081	-1.671181	-0.352283
O13	O	-0.359175	-1.937484	-0.474735
O14	O	0.140825	-1.437484	0.025265
O15	O	-0.149907	-1.797559	-0.668586
O16	O	0.350093	-1.297559	-0.168586
O17	O	-0.359140	-2.159111	-0.696340
O18	O	0.140860	-1.659111	-0.196340
O19	O	-0.149880	-1.965483	-0.836493
O20	O	0.350120	-1.465483	-0.336493
O21	O	-0.268981	-1.781629	-0.462771
O22	O	0.231019	-1.281629	0.037229
O23	O	-0.287154	-1.591680	-0.652721
O24	O	0.212846	-1.091680	-0.152721
O25	O	-0.391083	-1.825241	-1.030212
O26	O	0.108917	-1.325241	-0.530212
O27	O	-0.391118	-1.603613	-0.808608
O28	O	0.108882	-1.103613	-0.308608
O29	O	-0.287092	-1.981232	-1.042233
O30	O	0.212908	-1.481232	-0.542233
O31	O	-0.496388	-1.953233	-0.680475
O32	O	0.003612	-1.453233	-0.180475
O33	O	-0.510157	-1.809311	-0.824397
O34	O	-0.010157	-1.309311	-0.324397
C35	C	-0.341175	-1.551588	-0.727123
C36	C	0.158825	-1.051588	-0.227123
C37	C	-0.347437	-1.410497	-0.716302
C38	C	0.152563	-0.910497	-0.216302
C39	C	-0.531953	-1.881288	-0.752458
C40	C	-0.031953	-1.381288	-0.252458
C41	C	-0.619808	-1.881362	-0.752497
C42	C	-0.119808	-1.381362	-0.252497
C43	C	-0.998475	-1.806574	-0.827429
C44	C	-0.498475	-1.306574	-0.327429
C45	C	-0.984077	-1.956583	-0.677703
C46	C	-0.484077	-1.456583	-0.177703
C47	C	-0.901533	-1.956537	-0.677688
C48	C	-0.401533	-1.456537	-0.177688
C49	C	-0.867456	-1.881508	-0.752543
C50	C	-0.367456	-1.381508	-0.252543
C51	C	-0.915924	-1.806523	-0.827413
C52	C	-0.415924	-1.306523	-0.327413
C53	C	-0.853059	-2.031511	-0.602810
C54	C	-0.353059	-1.531511	-0.102810
C55	C	-0.770509	-2.031467	-0.602791
C56	C	-0.270509	-1.531467	-0.102791
C57	C	-0.736431	-1.956444	-0.677654
C58	C	-0.236431	-1.456444	-0.177654
C59	C	-0.784904	-1.881457	-0.752527
C60	C	-0.284904	-1.381457	-0.252527
C61	C	-0.750827	-1.806428	-0.827382
C62	C	-0.250827	-1.306428	-0.327382
C63	C	-0.799299	-1.731447	-0.902264
C64	C	-0.299299	-1.231447	-0.402264
C65	C	-0.881845	-1.731500	-0.902275
C66	C	-0.381845	-1.231500	-0.402275
C67	C	-0.653885	-1.956391	-0.677642
C68	C	-0.153885	-1.456391	-0.177642
C69	C	-0.668275	-1.806377	-0.827366
C70	C	-0.168275	-1.306377	-0.327366
C71	C	-0.120410	-1.881542	-0.752548
C72	C	0.379590	-1.381542	-0.252548
C73	C	-0.032552	-1.881603	-0.752574
C74	C	0.467448	-1.381603	-0.252574
C75	C	-0.341174	-1.906881	-1.083567
C76	C	0.158826	-1.406881	-0.583567
C77	C	-0.347392	-1.917741	-1.224653
C78	C	0.152608	-1.417741	-0.724653
C79	C	-0.311928	-1.212492	-0.777941
C80	C	0.188072	-0.712492	-0.277941
C81	C	-0.305667	-1.353583	-0.788758
C82	C	0.194333	-0.853583	-0.288758
C83	C	-0.311988	-1.856084	-0.422702
C84	C	0.188012	-1.356084	0.077298
C85	C	-0.305537	-1.845471	-0.281636
C86	C	0.194463	-1.345471	0.218364
H87	H	-0.640536	-1.745284	-0.888328
H88	H	-0.140536	-1.245284	-0.388328
H89	H	-0.771544	-1.670351	-0.963205
H90	H	-0.271544	-1.170351	-0.463205
N91	N	-0.251955	-1.432014	-0.881909
N92	N	0.248045	-0.932014	-0.381909
H93	H	-0.195605	-1.407525	-0.860614
H94	H	0.304395	-0.907525	-0.360614
H95	H	-0.255015	-1.525042	-0.876655
H96	H	0.244985	-1.025042	-0.376655
H97	H	-0.921318	-1.670453	-0.963239
H98	H	-0.421318	-1.170453	-0.463239
N99	N	-0.401146	-1.332064	-0.623160
N100	N	0.098854	-0.832064	-0.123160
H101	H	-0.442507	-1.281018	-0.670473
H102	H	0.057493	-0.781018	-0.170473
H103	H	-0.428076	-1.390162	-0.576365
H104	H	0.071924	-0.890162	-0.076365
H105	H	-1.037944	-1.745530	-0.888399
H106	H	-0.537944	-1.245530	-0.388399
H107	H	-1.011828	-2.017660	-0.616752
H108	H	-0.511828	-1.517660	-0.116752
H109	H	-0.880811	-2.092586	-0.541857
H110	H	-0.380811	-1.592586	-0.041857
H111	H	-0.731048	-2.092521	-0.541820
H112	H	-0.231048	-1.592521	-0.041820
H113	H	-0.387986	-1.987932	-1.283811
H114	H	0.112014	-1.487932	-0.783811
N115	N	-0.601605	-2.037242	-0.596879
N116	N	-0.101605	-1.537242	-0.096879
H117	H	-0.635718	-2.084775	-0.549456
H118	H	-0.135718	-1.584775	-0.049456
H119	H	-0.567001	-2.099911	-0.653100
H120	H	-0.067001	-1.599911	-0.153100
N121	N	-0.251772	-1.752486	-1.203295
N122	N	0.248228	-1.252486	-0.703295
H123	H	-0.254802	-1.757639	-1.110232
H124	H	0.245198	-1.257639	-0.610232
H125	H	-0.195451	-1.774042	-1.227935
H126	H	0.304549	-1.274042	-0.727935
