data_functionalizedCrystal
_audit_creation_method	'MofGen! by Chris Wilmer'
_symmetry_space_group_name_H-M	'P1'
_symmetry_Int_Tables_number	1
_symmetry_cell_setting	triclinic
loop_
_symmetry_equiv_pos_as_xyz
  x,y,z
_cell_length_a	10.540510
_cell_length_b	10.540510
_cell_length_c	12.996460
_cell_angle_alpha	89.996346
_cell_angle_beta	89.994188
_cell_angle_gamma	84.513311
loop_
_atom_site_label
_atom_site_type_symbol
_atom_site_fract_x
_atom_site_fract_y
_atom_site_fract_z
O1	O	1.685892	0.178725	-0.085567
O2	O	2.185892	0.678725	0.414433
O3	O	1.316472	0.195621	-0.085567
O4	O	1.816472	0.695621	0.414433
O5	O	1.509630	0.002463	-0.085567
O6	O	2.009630	0.502463	0.414433
O7	O	1.492734	0.371883	-0.085568
O8	O	1.992734	0.871883	0.414432
O9	O	1.509609	0.002452	0.085567
O10	O	2.009609	0.502452	0.585567
O11	O	1.316452	0.195610	0.085567
O12	O	1.816452	0.695610	0.585567
O13	O	1.685872	0.178714	0.085567
O14	O	2.185872	0.678714	0.585567
Cu15	Cu	1.501160	0.187161	0.101193
Cu16	Cu	2.001160	0.687161	0.601193
Cu17	Cu	1.501184	0.187174	-0.101193
Cu18	Cu	2.001184	0.687174	0.398807
O19	O	1.492714	0.371872	0.085566
O20	O	1.992714	0.871872	0.585566
C21	C	1.269159	0.194356	-0.000000
C22	C	1.769159	0.694356	0.500000
C23	C	1.128209	0.190589	-0.000001
C24	C	1.628209	0.690589	0.499999
C25	C	0.910739	0.324775	-0.000394
C26	C	1.410739	0.824775	0.499606
C27	C	1.057334	0.328793	-0.000002
C28	C	1.557334	0.828793	0.499998
C29	C	1.083445	0.119836	0.097723
C30	C	1.583445	0.619836	0.597723
C31	C	0.936685	0.116797	0.097799
C32	C	1.436685	0.616797	0.597799
C33	C	0.936902	0.113931	-0.096813
C34	C	1.436902	0.613931	0.403187
C35	C	1.083242	0.120486	-0.098098
C36	C	1.583242	0.620486	0.401902
C37	C	1.508361	-0.044846	-0.000002
C38	C	2.008361	0.455154	0.499998
C39	C	1.504594	-0.185795	-0.000008
C40	C	2.004594	0.314205	0.499992
C41	C	1.638780	-0.403265	0.000384
C42	C	2.138780	0.096735	0.500384
C43	C	1.642798	-0.256670	-0.000007
C44	C	2.142798	0.243330	0.499993
C45	C	1.433858	-0.230540	-0.097732
C46	C	1.933858	0.269460	0.402268
C47	C	1.430819	-0.377301	-0.097808
C48	C	1.930819	0.122699	0.402192
C49	C	1.427918	-0.377121	0.096803
C50	C	1.927918	0.122879	0.596803
C51	C	1.434473	-0.230781	0.098089
C52	C	1.934473	0.269219	0.598089
C53	C	1.733185	0.179979	-0.000002
C54	C	2.233185	0.679979	0.499998
C55	C	1.874135	0.183746	-0.000009
C56	C	2.374135	0.683746	0.499991
C57	C	1.493983	0.419181	-0.000001
C58	C	1.993983	0.919181	0.499999
C59	C	1.497750	0.560130	-0.000001
C60	C	1.997750	1.060130	0.499999
N61	N	1.501152	0.187151	0.243540
N62	N	2.001152	0.687151	0.743540
N63	N	1.501202	0.187174	-0.243540
N64	N	2.001202	0.687174	0.256460
C65	C	1.501182	0.187175	0.663354
C66	C	2.001182	0.687175	1.163354
C67	C	1.501170	0.187173	0.546549
C68	C	2.001170	0.687173	1.046549
C69	C	1.501168	0.187164	0.453450
C70	C	2.001168	0.687164	0.953450
C71	C	1.501154	0.187160	0.336638
C72	C	2.001154	0.687160	0.836638
H73	H	0.896454	0.165141	0.170848
H74	H	1.396454	0.665141	0.670848
H75	H	0.867218	0.378303	0.069292
H76	H	1.367218	0.878303	0.569292
H77	H	1.471829	-0.419313	0.170878
H78	H	1.971829	0.080687	0.670878
C79	C	0.906985	-0.026247	-0.097707
C80	C	1.406985	0.473753	0.402293
N81	N	0.884442	-0.131824	-0.098375
N82	N	1.384442	0.368176	0.401625
C83	C	0.879585	0.172961	-0.196881
C84	C	1.379585	0.672961	0.303119
N85	N	0.836415	0.217440	-0.272248
N86	N	1.336415	0.717440	0.227752
C87	C	1.718020	-0.218291	-0.094812
C88	C	2.218020	0.281709	0.405188
N89	N	1.774677	-0.189386	-0.166224
N90	N	2.274677	0.310614	0.333776
H91	H	1.132322	0.019588	-0.103999
H92	H	1.632322	0.519588	0.396001
H93	H	1.324153	-0.399260	0.097461
H94	H	1.824153	0.100740	0.597461
H95	H	1.698144	-0.227336	0.070043
H96	H	2.198144	0.272664	0.570043
H97	H	1.085724	0.384472	0.070167
H98	H	1.585724	0.884472	0.570167
H99	H	1.485943	-0.202179	0.170384
H100	H	1.985943	0.297821	0.670384
H101	H	1.086683	0.384145	-0.070057
H102	H	1.586683	0.884145	0.429943
H103	H	1.692614	-0.445231	0.070467
H104	H	2.192614	0.054769	0.570467
C105	C	0.854059	0.397528	-0.095071
C106	C	1.354059	0.897528	0.404929
N107	N	0.811359	0.452325	-0.166385
N108	N	1.311359	0.952325	0.333615
C109	C	0.905629	-0.022846	0.103801
C110	C	1.405629	0.477154	0.603801
N111	N	0.882244	-0.128023	0.108328
N112	N	1.382244	0.371977	0.608328
H113	H	1.333573	-0.181704	0.103990
H114	H	1.833573	0.318296	0.603990
H115	H	1.692320	-0.446772	-0.069302
H116	H	2.192320	0.053228	0.430698
C117	C	1.496167	-0.431636	-0.196487
C118	C	1.996167	0.068364	0.303513
N119	N	1.545396	-0.472556	-0.270812
N120	N	2.045396	0.027444	0.229188
C121	C	1.291178	-0.408355	-0.103820
C122	C	1.791178	0.091645	0.396180
N123	N	1.186002	-0.431739	-0.108358
N124	N	1.686002	0.068261	0.391642
C125	C	1.147523	-0.017598	0.102661
C126	C	1.647523	0.482402	0.602661
N127	N	1.195804	-0.121106	0.106387
N128	N	1.695804	0.378894	0.606387
H129	H	1.332115	-0.183140	-0.101366
H130	H	1.832115	0.316860	0.398634
H131	H	1.482999	-0.199684	-0.170458
H132	H	1.982999	0.300316	0.329542
C133	C	1.125093	0.186213	0.195975
C134	C	1.625093	0.686213	0.695975
N135	N	1.156456	0.236218	0.269976
N136	N	1.656456	0.736218	0.769976
C137	C	1.121919	0.190024	-0.195768
C138	C	1.621919	0.690024	0.304232
N139	N	1.151063	0.242399	-0.269332
N140	N	1.651063	0.742399	0.230668
