data_functionalizedCrystal
_audit_creation_method	'MofGen! by Chris Wilmer'
_symmetry_space_group_name_H-M	'P1'
_symmetry_Int_Tables_number	1
_symmetry_cell_setting	triclinic
loop_
_symmetry_equiv_pos_as_xyz
  x,y,z
_cell_length_a	17.699083
_cell_length_b	17.699104
_cell_length_c	16.776229
_cell_angle_alpha	89.998888
_cell_angle_beta	90.001114
_cell_angle_gamma	96.712734
loop_
_atom_site_label
_atom_site_type_symbol
_atom_site_fract_x
_atom_site_fract_y
_atom_site_fract_z
O1	O	-1.004086	0.095712	-0.066167
O2	O	-0.783708	0.108164	-0.066192
O3	O	-0.900115	-0.008250	-0.066184
O4	O	-0.887679	0.212126	-0.066174
O5	O	-0.900099	-0.008257	0.066392
O6	O	-0.783693	0.108157	0.066385
O7	O	-1.004070	0.095705	0.066410
Zn8	Zn	-0.893879	0.101930	0.087447
Zn9	Zn	-0.893899	0.101939	-0.087228
O10	O	-0.887664	0.212119	0.066403
C11	C	-0.755503	0.107715	0.000093
C12	C	-0.671485	0.106376	0.000083
C13	C	-0.899659	-0.036450	0.000101
C14	C	-0.898314	-0.120467	0.000091
C15	C	-0.888120	0.240319	0.000116
C16	C	-0.889464	0.324337	0.000120
C17	C	-1.032275	0.096155	0.000123
C18	C	-1.116293	0.097493	0.000128
C19	C	-0.622869	0.174709	0.000087
C20	C	-0.543926	0.173446	0.000097
C21	C	-0.513600	0.103851	0.000098
C22	C	-0.562222	0.035513	0.000097
C23	C	-0.641164	0.036776	0.000093
C24	C	-0.243859	0.030418	0.000117
C25	C	-0.164911	0.029160	0.000119
C26	C	-0.146621	0.167088	0.000121
C27	C	-0.225563	0.168351	0.000117
C28	C	-0.274178	0.100014	0.000120
C29	C	-0.359777	0.101383	0.000110
C30	C	-0.428002	0.102480	0.000102
C31	C	-0.828721	0.849208	0.000083
C32	C	-0.827461	0.770264	0.000091
C33	C	-0.895797	0.721646	0.000101
C34	C	-0.965395	0.751976	0.000112
C35	C	-0.966654	0.830919	0.000109
C36	C	-0.960322	0.433610	0.000122
C37	C	-0.959059	0.354663	0.000123
C38	C	-0.821130	0.372956	0.000105
C39	C	-0.822388	0.451898	0.000102
C40	C	-0.891987	0.482221	0.000116
C41	C	-0.893351	0.567821	0.000109
C42	C	-0.894433	0.636048	0.000103
N43	N	-0.893871	0.101923	0.206658
N44	N	-0.893914	0.101940	-0.206440
C45	C	-0.945431	0.050396	0.248378
C46	C	-0.945435	0.050395	0.331830
C47	C	-0.893882	0.101926	0.373561
C48	C	-0.842316	0.153456	0.331835
C49	C	-0.842309	0.153452	0.248384
C50	C	-0.842343	0.153470	0.668382
C51	C	-0.842356	0.153472	0.751839
C52	C	-0.945470	0.050414	0.751828
C53	C	-0.945463	0.050410	0.668378
C54	C	-0.893894	0.101937	0.626659
C55	C	-0.893890	0.101936	0.536170
C56	C	-0.893890	0.101931	0.464048
H57	H	-0.647554	0.231382	0.000085
H58	H	-0.987419	0.008438	0.365799
C59	C	-0.797668	0.284552	0.642704
C60	C	-0.785667	0.210117	0.622535
H61	H	-0.762679	0.319525	0.614394
H62	H	-0.790299	0.291918	0.698370
H63	H	-0.848163	0.292696	0.629011
H64	H	-0.735173	0.201971	0.636234
H65	H	-0.793030	0.202748	0.566856
C66	C	-0.343242	-0.048192	0.068261
C67	C	-0.297292	-0.044697	0.000110
H68	H	-0.376229	-0.094569	0.068256
H69	H	-0.372597	-0.006569	0.068257
H70	H	-0.312059	-0.045822	0.114489
H71	H	-0.328475	-0.047061	-0.046119
H72	H	-0.267934	-0.086331	0.000106
H73	H	-1.014709	0.315079	0.000131
C74	C	-0.770300	-0.022533	0.000089
C75	C	-0.694607	-0.038337	0.000088
H76	H	-0.803292	-0.068907	0.000094
H77	H	-0.779475	0.006006	-0.046141
H78	H	-0.779471	0.006011	0.046324
H79	H	-0.685435	-0.066876	-0.046150
H80	H	-0.685429	-0.066888	0.046323
C81	C	-1.082584	0.712086	-0.068025
C82	C	-1.040513	0.698538	0.000121
H83	H	-1.128961	0.679099	-0.068017
H84	H	-1.054047	0.702902	-0.114251
H85	H	-1.093288	0.763443	-0.068014
H86	H	-1.029804	0.647182	0.000108
H87	H	-1.069056	0.707716	0.046360
H88	H	-0.800337	0.195410	0.365817
C89	C	-0.692253	0.859352	0.000071
C90	C	-0.753603	0.902645	0.000072
H91	H	-0.645878	0.892342	0.000071
H92	H	-0.694637	0.828182	-0.046157
H93	H	-0.694633	0.828180	0.046308
H94	H	-0.751226	0.933813	-0.046168
H95	H	-0.751218	0.933828	0.046305
C96	C	-0.746039	0.692095	-0.068074
C97	C	-0.750961	0.736932	0.000076
H98	H	-0.698810	0.671516	-0.068079
H99	H	-0.749407	0.722510	-0.114298
H100	H	-0.786558	0.651844	-0.068054
H101	H	-0.710445	0.777187	0.000053
H102	H	-0.747587	0.706516	0.046312
C103	C	-1.048092	0.909092	-0.068036
C104	C	-1.043151	0.864258	0.000115
H105	H	-1.095318	0.929678	-0.068026
H106	H	-1.044746	0.878675	-0.114260
H107	H	-1.007569	0.949339	-0.068033
H108	H	-1.083672	0.824008	0.000108
H109	H	-1.046505	0.894678	0.046350
C110	C	-0.684911	0.398969	0.000077
C111	C	-0.744623	0.339624	0.000094
H112	H	-0.637682	0.378391	0.000063
H113	H	-0.688263	0.429379	0.046306
H114	H	-0.688288	0.429377	-0.046160
H115	H	-0.741250	0.309218	0.046334
H116	H	-0.741270	0.309201	-0.046140
H117	H	-0.987415	0.008437	0.214407
H118	H	-0.987445	0.008452	0.634403
C119	C	-0.444536	0.252043	-0.068056
C120	C	-0.490488	0.248561	0.000092
H121	H	-0.411545	0.298417	-0.068056
H122	H	-0.475712	0.249666	-0.114281
H123	H	-0.415179	0.210413	-0.068041
H124	H	-0.519850	0.290189	0.000074
H125	H	-0.459309	0.250945	0.046329
H126	H	-0.987458	0.008455	0.785805
C127	C	-0.449333	-0.027670	0.000096
C128	C	-0.528890	-0.040989	0.000097
H129	H	-0.428758	-0.074901	0.000089
H130	H	-0.432642	0.000452	0.046327
H131	H	-0.432645	0.000464	-0.046138
H132	H	-0.545578	-0.069118	0.046334
H133	H	-0.545587	-0.069123	-0.046139
C134	C	-0.303744	0.249783	0.068251
C135	C	-0.258904	0.244849	0.000106
H136	H	-0.324332	0.297008	0.068240
H137	H	-0.273331	0.246434	0.114479
H138	H	-0.343990	0.209258	0.068241
H139	H	-0.218654	0.285370	0.000119
H140	H	-0.289319	0.248205	-0.046133
C141	C	-0.047224	0.245694	-0.068020
C142	C	-0.093178	0.242208	0.000127
H143	H	-0.014230	0.292066	-0.068014
H144	H	-0.078397	0.243322	-0.114246
H145	H	-0.017868	0.204061	-0.068007
H146	H	-0.122538	0.283837	0.000111
H147	H	-0.062001	0.244587	0.046365
H148	H	-0.800372	0.195436	0.785814
C149	C	-0.740389	0.255330	0.256771
C150	C	-0.785635	0.210096	0.202522
H151	H	-0.705403	0.290302	0.228456
H152	H	-0.713227	0.223861	0.289324
H153	H	-0.771854	0.282516	0.289315
H154	H	-0.754171	0.182906	0.169982
H155	H	-0.812799	0.241569	0.169955
H156	H	-0.140223	-0.027517	0.000121
H157	H	-0.766743	0.491479	0.000090
C158	C	-1.096534	0.407588	0.000138
C159	C	-1.036824	0.466935	0.000133
H160	H	-1.143765	0.428165	0.000140
H161	H	-1.093166	0.377179	0.046366
H162	H	-1.093173	0.377179	-0.046099
H163	H	-1.040181	0.497340	0.046373
H164	H	-1.040194	0.497356	-0.046100
