data_functionalizedCrystal
_audit_creation_method	'MofGen! by Chris Wilmer'
_symmetry_space_group_name_H-M	'P1'
_symmetry_Int_Tables_number	1
_symmetry_cell_setting	triclinic
loop_
_symmetry_equiv_pos_as_xyz
  x,y,z
_cell_length_a	17.077404
_cell_length_b	17.640280
_cell_length_c	17.077396
_cell_angle_alpha	78.774026
_cell_angle_beta	89.982480
_cell_angle_gamma	78.795741
loop_
_atom_site_label
_atom_site_type_symbol
_atom_site_fract_x
_atom_site_fract_y
_atom_site_fract_z
Zn1	Zn	1.263294	-0.314761	-0.380731
Zn2	Zn	1.763294	0.185239	0.119269
Zn3	Zn	1.289771	-0.446946	-0.222958
Zn4	Zn	1.789771	0.053054	0.277042
Zn5	Zn	1.132034	-0.314779	-0.249474
Zn6	Zn	1.632034	0.185221	0.250526
Zn7	Zn	1.158546	-0.446886	-0.354193
Zn8	Zn	1.658546	0.053114	0.145807
O9	O	1.210911	-0.380843	-0.301839
O10	O	1.710911	0.119157	0.198161
O11	O	1.376656	-0.332313	-0.359811
O12	O	1.876656	0.167687	0.140189
O13	O	1.268832	-0.429446	-0.116622
O14	O	1.768832	0.070554	0.383378
O15	O	1.127270	-0.204170	-0.289089
O16	O	1.627270	0.295830	0.210911
O17	O	1.396109	-0.429428	-0.243896
O18	O	1.896109	0.070572	0.256104
O19	O	1.223706	-0.204156	-0.385522
O20	O	1.723706	0.295844	0.114478
O21	O	1.152944	-0.332344	-0.136103
O22	O	1.652944	0.167656	0.363897
O23	O	1.025701	-0.332286	-0.263357
O24	O	1.525701	0.167714	0.236643
O25	O	1.172456	-0.429326	-0.467567
O26	O	1.672456	0.070674	0.032433
O27	O	1.045179	-0.429344	-0.340293
O28	O	1.545179	0.070656	0.159707
O29	O	1.249413	-0.332254	-0.487064
O30	O	1.749413	0.167746	0.012936
O31	O	1.294540	-0.557544	-0.218164
O32	O	1.794540	-0.057544	0.281836
O33	O	1.198129	-0.557500	-0.314581
O34	O	1.698129	-0.057500	0.185419
C35	C	1.006957	-0.380811	-0.301823
C36	C	1.506957	0.119189	0.198177
C37	C	0.919708	-0.380817	-0.301831
C38	C	1.419708	0.119183	0.198169
C39	C	1.252106	-0.586201	-0.260633
C40	C	1.752106	-0.086201	0.239367
C41	C	1.269801	-0.674055	-0.243031
C42	C	1.769801	-0.174055	0.256969
C43	C	0.554085	-0.431494	-0.341821
C44	C	1.054085	0.068506	0.158179
C45	C	0.636063	-0.431484	-0.341811
C46	C	1.136063	0.068516	0.158189
C47	C	0.666869	-0.380864	-0.301847
C48	C	1.166869	0.119136	0.198153
C49	C	0.615693	-0.330256	-0.261884
C50	C	1.115693	0.169744	0.238116
C51	C	0.533717	-0.330271	-0.261890
C52	C	1.033717	0.169729	0.238110
C53	C	0.786557	-0.330228	-0.261877
C54	C	1.286557	0.169772	0.238123
C55	C	0.868538	-0.330212	-0.261873
C56	C	1.368538	0.169788	0.238127
C57	C	0.888903	-0.431440	-0.341798
C58	C	1.388903	0.068560	0.158202
C59	C	0.806927	-0.431455	-0.341804
C60	C	1.306927	0.068545	0.158196
C61	C	0.755756	-0.380846	-0.301842
C62	C	1.255756	0.119154	0.198158
C63	C	1.076806	-0.963016	-0.435845
C64	C	1.576806	-0.463016	0.064155
C65	C	1.093435	-1.045568	-0.419281
C66	C	1.593435	-0.545568	0.080719
C67	C	1.193889	-1.045548	-0.318982
C68	C	1.693889	-0.545548	0.181018
C69	C	1.177271	-0.962995	-0.335541
C70	C	1.677271	-0.462995	0.164459
C71	C	1.118729	-0.921735	-0.393973
C72	C	1.618729	-0.421735	0.106027
C73	C	1.219194	-0.921714	-0.293669
C74	C	1.719194	-0.421714	0.206331
C75	C	1.202574	-0.839168	-0.310224
C76	C	1.702574	-0.339168	0.189776
C77	C	1.144033	-0.797903	-0.368652
C78	C	1.644033	-0.297903	0.131348
C79	C	1.102109	-0.839189	-0.410528
C80	C	1.602109	-0.339189	0.089472
C81	C	1.277732	-0.962975	-0.235234
C82	C	1.777732	-0.462975	0.264766
C83	C	1.319655	-0.921694	-0.193362
C84	C	1.819655	-0.421694	0.306638
C85	C	1.303040	-0.839147	-0.209920
C86	C	1.803040	-0.339147	0.290080
C87	C	1.244498	-0.797881	-0.268348
C88	C	1.744498	-0.297881	0.231652
C89	C	1.344963	-0.797860	-0.168044
C90	C	1.844963	-0.297860	0.331956
C91	C	1.328344	-0.715314	-0.184599
C92	C	1.828344	-0.215314	0.315401
C93	C	1.227878	-0.715335	-0.284903
C94	C	1.727878	-0.215335	0.215097
C95	C	1.415662	-0.380875	-0.301856
C96	C	1.915662	0.119125	0.198144
C97	C	1.502915	-0.380889	-0.301863
C98	C	2.002915	0.119111	0.198137
C99	C	1.210938	-0.380782	-0.506596
C100	C	1.710938	0.119218	-0.006596
C101	C	1.210950	-0.380755	-0.593851
C102	C	1.710950	0.119245	-0.093851
C103	C	1.169577	-0.174682	-0.343224
C104	C	1.669577	0.325318	0.156776
C105	C	1.151963	-0.086829	-0.360859
C106	C	1.651963	0.413171	0.139141
C107	C	1.150621	-0.330188	-0.644985
C108	C	1.650621	0.169812	-0.144985
C109	C	1.150630	-0.330170	-0.726970
C110	C	1.650630	0.169830	-0.226970
C111	C	1.210972	-0.380716	-0.757818
C112	C	1.710972	0.119284	-0.257818
C113	C	1.271304	-0.431289	-0.706677
C114	C	1.771304	0.068711	-0.206677
C115	C	1.271291	-0.431310	-0.624693
C116	C	1.771291	0.068690	-0.124693
C117	C	1.271328	-0.431239	-0.877557
C118	C	1.771328	0.068761	-0.377557
C119	C	1.271343	-0.431217	-0.959546
C120	C	1.771343	0.068783	-0.459546
C121	C	1.150667	-0.330100	-0.979833
C122	C	1.650667	0.169900	-0.479833
C123	C	1.150654	-0.330121	-0.897850
C124	C	1.650654	0.169879	-0.397850
C125	C	1.210988	-0.380693	-0.846714
C126	C	1.710988	0.119307	-0.346714
C127	C	1.210918	-0.380847	-0.097890
C128	C	1.710918	0.119153	0.402110
C129	C	1.211014	-0.380650	-0.010680
C130	C	1.711014	0.119350	0.489320
H131	H	0.529009	-0.472710	-0.374369
H132	H	1.029009	0.027290	0.125631
H133	H	1.291264	-1.030189	-0.221759
H134	H	1.791264	-0.530189	0.278241
H135	H	0.677724	-0.472693	-0.374347
H136	H	1.177724	0.027307	0.125653
H137	H	1.367318	-0.955299	-0.145784
H138	H	1.867318	-0.455299	0.354216
F139	F	1.165577	-0.671419	-0.347100
F140	F	1.665577	-0.171419	0.152900
F141	F	0.732099	-0.276368	-0.219340
F142	F	1.232099	0.223632	0.280660
H143	H	1.320433	-0.472448	-0.731799
H144	H	1.820433	0.027552	-0.231799
F145	F	1.335568	-0.485009	-0.992376
F146	F	1.835568	0.014991	-0.492376
H147	H	1.320464	-0.472413	-0.835925
H148	H	1.820464	0.027587	-0.335925
H149	H	0.640782	-0.289044	-0.229341
H150	H	1.140782	0.210956	0.270659
F151	F	1.335499	-0.485133	-0.570271
F152	F	1.835499	0.014867	-0.070271
H153	H	1.101542	-0.288921	-1.021472
H154	H	1.601542	0.211079	-0.521472
F155	F	0.774143	-0.485326	-0.384343
F156	F	1.274143	0.014674	0.115657
F157	F	0.479258	-0.276414	-0.219358
F158	F	0.979258	0.223586	0.280642
F159	F	1.126486	-0.710049	-0.386413
F160	F	1.626486	-0.210049	0.113587
H161	H	1.101487	-0.289024	-0.619877
H162	H	1.601487	0.210976	-0.119877
F163	F	1.086397	-0.276379	-0.781382
F164	F	1.586397	0.223621	-0.281382
H165	H	1.054443	-0.805594	-0.458115
H166	H	1.554443	-0.305594	0.041885
H167	H	1.241552	-1.079153	-0.271405
H168	H	1.741552	-0.579153	0.228595
F169	F	1.372956	-0.671378	-0.140028
F170	F	1.872956	-0.171378	0.359972
H171	H	1.101521	-0.288959	-0.872737
H172	H	1.601521	0.211041	-0.372737
F173	F	0.943362	-0.485291	-0.384342
F174	F	1.443362	0.014709	0.115658
H175	H	1.059302	-1.079175	-0.453392
H176	H	1.559302	-0.579175	0.046608
F177	F	1.014504	-0.919100	-0.498042
F178	F	1.514504	-0.419100	0.001958
F179	F	0.901323	-0.276342	-0.219332
F180	F	1.401323	0.223658	0.280668
F181	F	1.407262	-0.841782	-0.105854
F182	F	1.907262	-0.341782	0.394146
