data_functionalizedCrystal
_audit_creation_method	'MofGen! by Chris Wilmer'
_symmetry_space_group_name_H-M	'P1'
_symmetry_Int_Tables_number	1
_symmetry_cell_setting	triclinic
loop_
_symmetry_equiv_pos_as_xyz
  x,y,z
_cell_length_a	12.759401
_cell_length_b	12.759400
_cell_length_c	12.759393
_cell_angle_alpha	90.029805
_cell_angle_beta	90.019596
_cell_angle_gamma	90.014922
loop_
_atom_site_label
_atom_site_type_symbol
_atom_site_fract_x
_atom_site_fract_y
_atom_site_fract_z
Zn1	Zn	1.606267	-0.418208	0.593988
Zn2	Zn	1.606158	-0.593923	0.418310
Zn3	Zn	1.430565	-0.418260	0.418327
Zn4	Zn	1.430558	-0.593846	0.593951
O5	O	1.518387	-0.506059	0.506144
O6	O	1.753273	-0.441527	0.570692
O7	O	1.582823	-0.570675	0.271291
O8	O	1.453921	-0.271232	0.441651
O9	O	1.753193	-0.570625	0.441622
O10	O	1.583008	-0.271194	0.570708
O11	O	1.453816	-0.441616	0.271303
O12	O	1.283543	-0.441541	0.441616
O13	O	1.453908	-0.570493	0.740977
O14	O	1.283538	-0.570544	0.570646
O15	O	1.583001	-0.441452	0.741004
O16	O	1.582815	-0.740934	0.441587
O17	O	1.453802	-0.740877	0.570630
C18	C	1.245420	-0.506040	0.506129
C19	C	1.128643	-0.506058	0.506148
C20	C	0.964074	-0.573347	0.573236
C21	C	1.073798	-0.573336	0.573225
C22	C	1.073758	-0.438794	0.439070
C23	C	0.964036	-0.438812	0.439077
C24	C	1.223751	-0.697262	0.610541
C25	C	1.278633	-0.764513	0.677628
C26	C	1.243061	-0.780771	0.780117
C27	C	1.152610	-0.729764	0.815539
C28	C	1.097735	-0.662505	0.748458
C29	C	1.133305	-0.646266	0.645955
C30	C	0.814081	-0.314885	0.401771
C31	C	0.759203	-0.247620	0.334694
C32	C	0.794772	-0.231350	0.232204
C33	C	0.885227	-0.282339	0.196785
C34	C	0.940104	-0.349604	0.263862
C35	C	0.904528	-0.365876	0.366351
C36	C	1.518325	-0.779027	0.506125
C37	C	1.518394	-0.895803	0.506152
C38	C	1.585581	-0.950555	0.573410
C39	C	1.585640	-1.060279	0.573438
C40	C	1.451323	-1.060489	0.438943
C41	C	1.451260	-0.950767	0.438921
C42	C	1.623201	-1.210108	0.697406
C43	C	1.690404	-1.264864	0.764654
C44	C	1.792889	-1.229156	0.780865
C45	C	1.828193	-1.138693	0.729812
C46	C	1.760996	-1.083943	0.662556
C47	C	1.658496	-1.119650	0.646366
C48	C	1.413709	-0.800937	0.314951
C49	C	1.346516	-0.746184	0.247689
C50	C	1.244029	-0.781891	0.231468
C51	C	1.208729	-0.872357	0.282502
C52	C	1.275922	-0.927109	0.349764
C53	C	1.378408	-0.891395	0.365987
C54	C	1.792420	-0.506079	0.506159
C55	C	1.909197	-0.506087	0.506165
C56	C	1.518466	-0.505958	0.780177
C57	C	1.518499	-0.505915	0.896954
C58	C	1.518478	-0.232026	0.506186
C59	C	1.518517	-0.115249	0.506203
C60	C	1.518369	-0.506084	0.233176
C61	C	1.518539	-0.505831	0.116400
C62	C	1.585723	-0.438713	0.951832
C63	C	1.585740	-0.438668	1.061556
C64	C	1.451308	-0.573036	1.061515
C65	C	1.451286	-0.573075	0.951793
H66	H	1.287754	-0.835529	0.834739
C67	C	1.170111	-0.721705	0.157447
C68	C	1.199583	-0.707362	0.041309
C69	C	1.125662	-0.647199	-0.032720
C70	C	1.022269	-0.601379	0.009389
C71	C	0.992793	-0.615721	0.125532
C72	C	1.066714	-0.675884	0.199561
H73	H	1.276125	-0.741281	0.010133
H74	H	1.147483	-0.636583	-0.118697
H75	H	0.967549	-0.556843	-0.045412
H76	H	0.916251	-0.581801	0.156709
H77	H	1.044893	-0.686500	0.285539
H78	H	1.024094	-0.620973	0.777300
C79	C	1.526450	-0.761655	0.332798
C80	C	1.600357	-0.821873	0.406787
C81	C	1.713097	-0.782591	0.424630
C82	C	1.751930	-0.683091	0.368483
C83	C	1.678022	-0.622867	0.294489
C84	C	1.565282	-0.662149	0.276646
H85	H	1.571611	-0.895534	0.448355
H86	H	1.767808	-0.827173	0.479406
H87	H	1.835387	-0.654012	0.381691
H88	H	1.706768	-0.549205	0.252921
H89	H	1.510571	-0.617566	0.221871
H90	H	1.352278	-0.806043	0.648777
H91	H	0.919428	-0.628127	0.627863
H92	H	1.640479	-0.383943	1.106232
H93	H	1.375268	-0.672525	0.206129
H94	H	1.911652	-1.109633	0.743007
C95	C	1.659419	-0.890094	0.647369
C96	C	1.733319	-0.950325	0.721355
C97	C	1.807158	-0.889867	0.795319
C98	C	1.807097	-0.769177	0.795297
C99	C	1.733195	-0.708939	0.721309
C100	C	1.659356	-0.769397	0.647345
H101	H	1.733367	-1.039673	0.721373
H102	H	1.861866	-0.934460	0.850090
H103	H	1.861757	-0.724422	0.850050
H104	H	1.733147	-0.619591	0.721291
H105	H	1.604649	-0.724804	0.592574
H106	H	1.123662	-0.742998	0.899001
H107	H	1.789740	-1.010291	0.620988
H108	H	1.252714	-0.684043	0.527083
C109	C	0.734407	-0.157357	0.158417
C110	C	0.773536	-0.139469	0.045677
C111	C	0.713175	-0.065482	-0.028111
C112	C	0.613684	-0.009382	0.010840
C113	C	0.574550	-0.027268	0.123585
C114	C	0.634911	-0.101255	0.197374
H115	H	0.847190	-0.180999	0.016838
H116	H	0.742145	-0.052242	-0.111573
H117	H	0.569001	0.045387	-0.043783
H118	H	0.500896	0.014262	0.152424
H119	H	0.605941	-0.114495	0.280836
H120	H	1.118421	-0.384020	0.384451
H121	H	1.661650	-1.338519	0.806222
H122	H	1.396537	-0.627799	0.907110
C123	C	0.924359	-0.264447	0.084043
C124	C	0.933489	-0.357590	0.007796
C125	C	0.972620	-0.339689	-0.104946
C126	C	1.002621	-0.228645	-0.141443
C127	C	0.993492	-0.135494	-0.065195
C128	C	0.954361	-0.153395	0.047548
H129	H	0.911280	-0.439798	0.034812
H130	H	0.979378	-0.408647	-0.161390
H131	H	1.031588	-0.215394	-0.224902
H132	H	1.015702	-0.053286	-0.092211
H133	H	0.947604	-0.084438	0.103991
H134	H	1.396588	-0.627718	1.106178
C135	C	1.039584	-0.405726	0.224891
C136	C	1.078704	-0.387855	0.112145
C137	C	1.178173	-0.443989	0.073172
C138	C	1.238523	-0.517994	0.146944
C139	C	1.199404	-0.535868	0.259696
C140	C	1.099935	-0.479735	0.298670
H141	H	1.034029	-0.333069	0.057529
H142	H	1.207132	-0.430756	-0.010296
H143	H	1.312156	-0.559547	0.118093
H144	H	1.244079	-0.590654	0.314313
H145	H	1.070977	-0.492967	0.382137
C146	C	1.510458	-1.249384	0.679586
C147	C	1.471638	-1.348890	0.735730
C148	C	1.358894	-1.388171	0.717908
C149	C	1.284971	-1.327946	0.643942
C150	C	1.323790	-1.228434	0.587792
C151	C	1.436533	-1.189152	0.605614
H152	H	1.526362	-1.393478	0.790489
H153	H	1.330158	-1.461837	0.759475
H154	H	1.201511	-1.357024	0.630749
H155	H	1.269066	-1.183846	0.533033
H156	H	1.465269	-1.115487	0.564048
H157	H	0.685555	-0.206095	0.363545
H158	H	1.125276	-0.901432	0.269292
C159	C	1.237095	-1.026622	0.405910
C160	C	1.199548	-1.121557	0.341462
C161	C	1.160725	-1.221068	0.397608
C162	C	1.159448	-1.225645	0.518201
C163	C	1.196997	-1.130706	0.582656
C164	C	1.235820	-1.031195	0.526511
H165	H	1.200492	-1.118172	0.252185
H166	H	1.132929	-1.291347	0.349893
H167	H	1.130709	-1.299309	0.559763
H168	H	1.196053	-1.134091	0.671933
H169	H	1.263616	-0.960916	0.574226
H170	H	0.785111	-0.328128	0.485228
H171	H	1.847606	-1.273746	0.835620
H172	H	1.396666	-1.105255	0.384204
H173	H	1.640449	-0.384024	0.907185
