data_functionalizedCrystal
_audit_creation_method	'MofGen! by Chris Wilmer'
_symmetry_space_group_name_H-M	'P1'
_symmetry_Int_Tables_number	1
_symmetry_cell_setting	triclinic
loop_
_symmetry_equiv_pos_as_xyz
  x,y,z
_cell_length_a	13.897449
_cell_length_b	29.839131
_cell_length_c	13.897441
_cell_angle_alpha	90.035143
_cell_angle_beta	90.020733
_cell_angle_gamma	90.042700
loop_
_atom_site_label
_atom_site_type_symbol
_atom_site_fract_x
_atom_site_fract_y
_atom_site_fract_z
Zn1	Zn	1.474544	-0.178824	0.545351
Zn2	Zn	1.974544	0.321176	1.045351
Zn3	Zn	1.474371	-0.253959	0.384039
Zn4	Zn	1.974371	0.246041	0.884039
Zn5	Zn	1.313233	-0.178845	0.384069
Zn6	Zn	1.813233	0.321155	0.884069
Zn7	Zn	1.313148	-0.253929	0.545292
Zn8	Zn	1.813148	0.246071	1.045292
O9	O	1.393824	-0.216389	0.464688
O10	O	1.893824	0.283611	0.964688
O11	O	1.609502	-0.188794	0.523965
O12	O	2.109502	0.311206	1.023965
O13	O	1.452959	-0.244016	0.249061
O14	O	1.952959	0.255984	0.749061
O15	O	1.334739	-0.115975	0.405500
O16	O	1.834739	0.384025	0.905500
O17	O	1.609375	-0.243995	0.405450
O18	O	2.109375	0.256005	0.905450
O19	O	1.453253	-0.115959	0.523993
O20	O	1.953253	0.384041	1.023993
O21	O	1.334571	-0.188830	0.249083
O22	O	1.834571	0.311170	0.749083
O23	O	1.178240	-0.188802	0.405443
O24	O	1.678240	0.311198	0.905443
O25	O	1.334594	-0.243945	0.680281
O26	O	1.834594	0.256055	1.180281
O27	O	1.178177	-0.243966	0.523893
O28	O	1.678177	0.256034	1.023893
O29	O	1.453171	-0.188765	0.680325
O30	O	1.953171	0.311235	1.180325
O31	O	1.452876	-0.316822	0.405393
O32	O	1.952876	0.183178	0.905393
O33	O	1.334426	-0.316800	0.523864
O34	O	1.834426	0.183200	1.023864
C35	C	1.143209	-0.216383	0.464666
C36	C	1.643209	0.283617	0.964666
C37	C	1.035995	-0.216391	0.464679
C38	C	1.535995	0.283609	0.964679
C39	C	0.839700	-0.216393	0.464704
C40	C	1.339700	0.283607	0.964704
C41	C	0.948933	-0.216391	0.464688
C42	C	1.448933	0.283609	0.964688
C43	C	1.393649	-0.333112	0.464640
C44	C	1.893649	0.166888	0.964640
C45	C	1.393663	-0.383046	0.464652
C46	C	1.893663	0.116954	0.964652
C47	C	1.455613	-0.692688	0.403090
C48	C	1.955613	-0.192688	0.903090
C49	C	1.455732	-0.880361	0.403127
C50	C	1.955732	-0.380361	0.903127
O51	O	1.508265	-0.904625	0.350748
O52	O	2.008265	-0.404625	0.850748
N53	N	1.394024	-0.903831	0.464760
N54	N	1.894024	-0.403831	0.964760
C55	C	1.332286	-0.880380	0.526393
C56	C	1.832286	-0.380380	1.026393
O57	O	1.279809	-0.904649	0.578824
O58	O	1.779809	-0.404649	1.078824
C59	C	1.332172	-0.692708	0.526360
C60	C	1.832172	-0.192708	1.026360
C61	C	1.393878	-0.669240	0.464716
C62	C	1.893878	-0.169240	0.964716
C63	C	1.517314	-0.669221	0.341451
C64	C	2.017314	-0.169221	0.841451
C65	C	1.517280	-0.622305	0.341439
C66	C	2.017280	-0.122305	0.841439
C67	C	1.455545	-0.598857	0.403065
C68	C	1.955545	-0.098857	0.903065
C69	C	1.393844	-0.622325	0.464703
C70	C	1.893844	-0.122325	0.964703
C71	C	1.270440	-0.669258	0.587997
C72	C	1.770440	-0.169258	1.087997
C73	C	1.270419	-0.622336	0.587985
C74	C	1.770419	-0.122336	1.087985
C75	C	1.332124	-0.598869	0.526341
C76	C	1.832124	-0.098869	1.026341
C77	C	1.332074	-0.551962	0.526317
C78	C	1.832074	-0.051962	1.026317
N79	N	1.393782	-0.528492	0.464684
N80	N	1.893782	-0.028492	0.964684
C81	C	1.455518	-0.551939	0.403057
C82	C	1.955518	-0.051939	0.903057
C83	C	1.332349	-0.978911	0.526405
C84	C	1.832349	-0.478911	1.026405
C85	C	1.332375	-1.025828	0.526412
C86	C	1.832375	-0.525828	1.026412
C87	C	1.455823	-1.025806	0.403147
C88	C	1.955823	-0.525806	0.903147
C89	C	1.455790	-0.978888	0.403136
C90	C	1.955790	-0.478888	0.903136
C91	C	1.394057	-0.955441	0.464772
C92	C	1.894057	-0.455441	0.964772
C93	C	1.455441	-0.453414	0.403035
C94	C	1.955441	0.046586	0.903035
C95	C	1.455398	-0.406494	0.403026
C96	C	1.955398	0.093506	0.903026
C97	C	1.331955	-0.406520	0.526294
C98	C	1.831955	0.093480	1.026294
C99	C	1.331993	-0.453436	0.526301
C100	C	1.831993	0.046564	1.026301
C101	C	1.393744	-0.476881	0.464668
C102	C	1.893744	0.023119	0.964668
O103	O	1.279576	-0.527669	0.578676
O104	O	1.779576	-0.027669	1.078676
O105	O	1.508002	-0.527662	0.350650
O106	O	2.008002	-0.027662	0.850650
C107	C	1.455647	-0.739604	0.403102
C108	C	1.955647	-0.239604	0.903102
C109	C	1.393946	-0.763071	0.464741
C110	C	1.893946	-0.263071	0.964741
C111	C	1.332211	-0.739623	0.526367
C112	C	1.832211	-0.239623	1.026367
C113	C	1.393973	-0.809989	0.464748
C114	C	1.893973	-0.309989	0.964748
C115	C	1.455708	-0.833437	0.403122
C116	C	1.955708	-0.333437	0.903122
C117	C	1.517416	-0.809967	0.341489
C118	C	2.017416	-0.309967	0.841489
C119	C	1.517382	-0.763051	0.341476
C120	C	2.017382	-0.263051	0.841476
C121	C	1.270503	-0.763093	0.588000
C122	C	1.770503	-0.263093	1.088000
C123	C	1.270541	-0.810009	0.588007
C124	C	1.770541	-0.310009	1.088007
C125	C	1.332276	-0.833457	0.526381
C126	C	1.832276	-0.333457	1.026381
C127	C	1.645417	-0.216395	0.464710
C128	C	2.145417	0.283605	0.964710
C129	C	1.752631	-0.216398	0.464720
C130	C	2.252631	0.283602	0.964720
C131	C	1.393892	-0.216349	0.716281
C132	C	1.893892	0.283651	1.216281
C133	C	1.393921	-0.216332	0.823495
C134	C	1.893921	0.283668	1.323495
C135	C	1.394025	-0.099211	0.464757
C136	C	1.894025	0.400789	0.964757
C137	C	1.394111	-0.049276	0.464786
C138	C	1.894111	0.450724	0.964786
C139	C	1.393811	-0.216396	0.214073
C140	C	1.893811	0.283604	0.714073
C141	C	1.393969	-0.216287	0.106860
C142	C	1.893969	0.283713	0.606860
C143	C	1.393948	-0.216302	1.019790
C144	C	1.893948	0.283698	1.519790
C145	C	1.393930	-0.216320	0.910558
C146	C	1.893930	0.283680	1.410558
H147	H	1.505646	-0.387388	0.352824
H148	H	2.005646	0.112612	0.852824
N149	N	1.522035	-0.478692	0.336547
N150	N	2.022035	0.021308	0.836547
H151	H	1.482871	-0.498191	0.291814
H152	H	1.982871	0.001809	0.791814
H153	H	1.566728	-0.498098	0.375844
H154	H	2.066728	0.001902	0.875844
N155	N	1.583848	-0.596997	0.274965
N156	N	2.083848	-0.096997	0.774965
H157	H	1.622962	-0.618976	0.235938
H158	H	2.122962	-0.118976	0.735938
H159	H	1.628452	-0.577500	0.314276
H160	H	2.128452	-0.077500	0.814276
H161	H	1.567591	-0.688307	0.291268
H162	H	2.067591	-0.188307	0.791268
N163	N	1.522412	-1.051105	0.336687
N164	N	2.022412	-0.551105	0.836687
H165	H	1.591318	-1.042904	0.351736
H166	H	2.091318	-0.542904	0.851736
H167	H	1.507393	-1.042964	0.267774
H168	H	2.007393	-0.542964	0.767774
N169	N	1.203974	-0.835318	0.654490
N170	N	1.703974	-0.335318	1.154490
H171	H	1.164864	-0.813340	0.693525
H172	H	1.664864	-0.313340	1.193525
H173	H	1.243226	-0.854748	0.699172
H174	H	1.743226	-0.354748	1.199172
H175	H	1.506036	-0.959783	0.352940
H176	H	2.006036	-0.459783	0.852940
H177	H	1.220232	-0.744006	0.638185
H178	H	1.720232	-0.244006	1.138185
H179	H	1.282120	-1.044932	0.576600
H180	H	1.782120	-0.544932	1.076600
N181	N	1.265755	-0.953624	0.592883
N182	N	1.765755	-0.453624	1.092883
H183	H	1.226670	-0.975616	0.631920
H184	H	1.726670	-0.475616	1.131920
H185	H	1.221125	-0.934193	0.553574
H186	H	1.721125	-0.434193	1.053574
N187	N	1.203881	-0.694561	0.654481
N188	N	1.703881	-0.194561	1.154481
H189	H	1.164777	-0.672581	0.693515
H190	H	1.664777	-0.172581	1.193515
H191	H	1.243129	-0.713994	0.699163
H192	H	1.743129	-0.213994	1.199163
H193	H	1.220149	-0.603248	0.638179
H194	H	1.720149	-0.103248	1.138179
H195	H	1.281751	-0.472544	0.576499
H196	H	1.781751	0.027456	1.076499
N197	N	1.584009	-0.835263	0.275028
N198	N	2.084009	-0.335263	0.775028
H199	H	1.623101	-0.813281	0.235975
H200	H	2.123101	-0.313281	0.735975
H201	H	1.544782	-0.854766	0.230361
H202	H	2.044782	-0.354766	0.730361
H203	H	1.281688	-0.387422	0.576466
H204	H	1.781688	0.112578	1.076466
N205	N	1.583941	-0.737743	0.274994
N206	N	2.083941	-0.237743	0.774994
H207	H	1.623052	-0.759723	0.235964
H208	H	2.123052	-0.259723	0.735964
H209	H	1.628549	-0.718244	0.314296
H210	H	2.128549	-0.218244	0.814296
