data_functionalizedCrystal
_audit_creation_method	'MofGen! by Chris Wilmer'
_symmetry_space_group_name_H-M	'P1'
_symmetry_Int_Tables_number	1
_symmetry_cell_setting	triclinic
loop_
_symmetry_equiv_pos_as_xyz
  x,y,z
_cell_length_a	17.639617
_cell_length_b	17.639999
_cell_length_c	12.759393
_cell_angle_alpha	78.768298
_cell_angle_beta	101.241988
_cell_angle_gamma	92.173759
loop_
_atom_site_label
_atom_site_type_symbol
_atom_site_fract_x
_atom_site_fract_y
_atom_site_fract_z
Zn1	Zn	1.222277	0.067883	0.904838
Zn2	Zn	1.247873	0.194909	0.701944
Zn3	Zn	1.095271	0.093561	0.688089
Zn4	Zn	1.120916	0.220480	0.836539
O5	O	1.171584	0.144208	0.782852
O6	O	1.331957	0.063285	0.912306
O7	O	1.227610	0.181510	0.553068
O8	O	1.090674	-0.016123	0.739626
O9	O	1.350762	0.156611	0.763241
O10	O	1.183985	-0.034988	0.898871
O11	O	1.115494	0.107049	0.542888
O12	O	0.992388	0.131845	0.673398
O13	O	1.134382	0.200193	0.992637
O14	O	1.011229	0.225092	0.782464
O15	O	1.208851	0.088080	1.042817
O16	O	1.252476	0.304579	0.697014
O17	O	1.159201	0.323366	0.795900
C18	C	0.974250	0.184030	0.719017
C19	C	0.889834	0.201084	0.691729
C20	C	1.211420	0.341525	0.740578
C21	C	1.228531	0.425923	0.722551
C22	C	0.563298	0.014633	0.990421
C23	C	0.483980	0.030677	0.964754
C24	C	0.503551	0.127696	0.809374
C25	C	0.582873	0.111663	0.835030
C26	C	0.612740	0.055130	0.925555
C27	C	0.632315	0.152160	0.770164
C28	C	0.711630	0.136125	0.795816
C29	C	0.741502	0.079593	0.886334
C30	C	0.692054	0.039095	0.951206
C31	C	0.602446	0.208689	0.679636
C32	C	0.651888	0.249185	0.614769
C33	C	0.731205	0.233155	0.640425
C34	C	0.761078	0.176623	0.730943
C35	C	0.780653	0.273652	0.575553
C36	C	0.859967	0.257617	0.601204
C37	C	0.840392	0.160587	0.756595
C38	C	1.041784	0.752586	0.920226
C39	C	1.057865	0.831892	0.903254
C40	C	1.155052	0.812251	0.800439
C41	C	1.138983	0.732942	0.817408
C42	C	1.082348	0.703116	0.877301
C43	C	1.179546	0.683472	0.774482
C44	C	1.163475	0.604171	0.791445
C45	C	1.106841	0.574339	0.851332
C46	C	1.066276	0.623815	0.894263
C47	C	1.236177	0.713300	0.714583
C48	C	1.276740	0.663830	0.671657
C49	C	1.260673	0.584526	0.688626
C50	C	1.204039	0.554695	0.748514
C51	C	1.301237	0.535051	0.645695
C52	C	1.285166	0.455749	0.662658
C53	C	1.187968	0.475393	0.765476
C54	C	1.369688	0.104232	0.846938
C55	C	1.454108	0.087196	0.874247
C56	C	1.171622	0.144125	1.056918
C57	C	1.171638	0.144089	1.173709
C58	C	1.131590	0.946122	0.825309
C59	C	1.114486	0.861722	0.843370
C60	C	1.171579	0.144228	0.509878
C61	C	1.171667	0.144020	0.393182
C62	C	1.230015	0.182842	1.233874
C63	C	1.230032	0.182805	1.343612
C64	C	1.113286	0.105262	1.333010
C65	C	1.113274	0.105295	1.223276
C66	C	1.288380	0.221637	1.184307
C67	C	1.346761	0.260393	1.244472
C68	C	1.346778	0.260356	1.354211
C69	C	1.288412	0.221563	1.403784
H70	H	0.864711	0.114555	0.830312
H71	H	1.093751	0.509767	0.865133
Cl72	Cl	0.502734	0.228842	0.647383
H73	H	0.756322	0.319676	0.501842
H74	H	0.806085	0.066535	0.907215
H75	H	1.020164	0.599529	0.943044
Cl76	Cl	1.226250	0.849754	0.725151
H77	H	1.288435	0.221528	1.493144
H78	H	1.065768	0.073679	1.373381
H79	H	1.249262	0.777873	0.700777
H80	H	1.322850	0.688126	0.622889
Cl81	Cl	1.006855	0.894083	0.957209
H82	H	1.347344	0.559348	0.596921
H83	H	0.479222	0.173723	0.735666
Cl84	Cl	0.970592	0.715084	0.995534
H85	H	1.065740	0.073736	1.174289
Cl86	Cl	0.922128	0.308535	0.519666
H87	H	0.716374	-0.006937	1.024923
H88	H	0.443725	-0.002309	1.017579
Cl89	Cl	1.116775	0.437891	0.840784
H90	H	0.587617	-0.031399	1.064138
H91	H	1.394319	0.291907	1.403197
H92	H	1.318196	0.415470	0.627702
Cl93	Cl	1.288362	0.221687	1.046351
H94	H	0.627559	0.295212	0.541062
Cl95	Cl	1.420137	0.309150	1.182157
