data_functionalizedCrystal
_audit_creation_method	'MofGen! by Chris Wilmer'
_symmetry_space_group_name_H-M	'P1'
_symmetry_Int_Tables_number	1
_symmetry_cell_setting	triclinic
loop_
_symmetry_equiv_pos_as_xyz
  x,y,z
_cell_length_a	14.446369
_cell_length_b	14.446369
_cell_length_c	21.606444
_cell_angle_alpha	59.999934
_cell_angle_beta	90.003067
_cell_angle_gamma	59.997400
loop_
_atom_site_label
_atom_site_type_symbol
_atom_site_fract_x
_atom_site_fract_y
_atom_site_fract_z
Zr1	Zr	0.891711	1.013221	-0.081202
O2	O	0.743887	1.206354	-0.180034
O3	O	0.937033	0.820097	-0.050904
O4	O	0.937015	1.013226	-0.180027
O5	O	0.743913	1.013218	0.050944
O6	O	1.089350	1.013220	-0.180023
O7	O	0.743905	1.013225	-0.050910
O8	O	1.089384	0.667747	0.050955
O9	O	0.743880	1.358691	-0.180035
O10	O	1.070042	0.899524	-0.037980
O11	O	0.956361	0.899523	0.038030
O12	O	0.956339	1.126908	-0.113997
O13	O	0.842658	1.126907	-0.037987
Zr14	Zr	1.134681	1.013201	0.081251
Zr15	Zr	1.134669	1.013212	-0.081195
Zr16	Zr	0.891723	1.013211	0.081244
Zr17	Zr	0.891700	1.256181	-0.081203
Zr18	Zr	1.134692	0.770241	0.081252
O19	O	1.089359	1.206326	0.050953
O20	O	1.089342	1.206340	-0.180024
O21	O	0.743904	1.206339	0.050943
O22	O	1.282506	0.820069	0.180083
O23	O	1.282488	0.820083	-0.050894
O24	O	0.937051	0.820082	0.180073
O25	O	1.282480	1.013204	-0.050895
O26	O	1.089378	1.013197	0.180076
O27	O	0.937042	1.013202	0.180072
O28	O	1.282487	1.013198	0.050959
O29	O	0.936999	1.358683	-0.180029
O30	O	1.089394	0.667739	0.180078
O31	O	1.282513	0.667732	0.180083
O32	O	1.282503	0.667740	0.050961
O33	O	0.743889	1.358682	-0.050912
O34	O	0.937009	1.358675	-0.050907
O35	O	1.070053	0.899514	0.114045
O36	O	1.183734	0.899515	0.038036
O37	O	1.070031	1.126899	-0.037981
O38	O	0.956351	1.126898	0.038028
C39	C	1.013210	0.709305	0.000026
C40	C	1.013215	0.606163	0.000026
C41	C	1.084916	0.566881	-0.047920
C42	C	1.084581	0.459961	-0.048179
C43	C	0.889610	0.546973	-0.034697
C44	C	0.890025	0.654349	-0.035057
C45	C	1.064078	0.479342	0.082719
C46	C	1.066552	0.370879	0.082592
C47	C	0.709293	1.013223	0.000016
C48	C	0.606151	1.013227	0.000013
C49	C	0.495145	1.156652	-0.047934
C50	C	0.387839	1.156704	-0.047710
C51	C	0.495035	0.941549	0.082652
C52	C	0.601872	0.942502	0.082376
C53	C	0.603015	0.940405	-0.033987
C54	C	0.494361	0.943070	-0.035642
C55	C	1.317100	1.013200	0.000033
C56	C	1.420242	1.013196	0.000036
C57	C	1.013181	1.013224	-0.203170
C58	C	1.013176	1.013229	-0.272133
C59	C	1.013182	1.317117	0.000023
C60	C	1.013178	1.420260	0.000022
C61	C	0.953823	1.131920	-0.344211
C62	C	0.953833	1.131916	-0.409006
C63	C	1.013189	1.013220	-0.401721
C64	C	1.072549	0.894520	-0.329634
C65	C	1.072545	0.894525	-0.264841
C66	C	1.072567	0.894497	-0.590937
C67	C	1.072563	0.894501	-0.655738
C68	C	0.953855	1.131888	-0.735102
C69	C	0.953851	1.131893	-0.670309
C70	C	1.013215	1.013194	-0.598229
C71	C	1.013206	1.013199	-0.527971
C72	C	1.013193	1.013213	-0.471977
C73	C	1.013212	1.013198	0.203219
C74	C	1.013217	1.013194	0.272181
C75	C	1.317114	0.709294	0.000035
C76	C	1.420260	0.606147	0.000038
C77	C	1.013225	0.709292	0.203220
C78	C	1.013235	0.606145	0.272183
C79	C	1.317129	0.709281	0.203229
C80	C	1.420281	0.606129	0.272195
C81	C	0.709263	1.317142	-0.203181
C82	C	0.606111	1.420293	-0.272146
C83	C	0.709279	1.317129	0.000014
C84	C	0.606132	1.420275	0.000011
C85	C	1.013167	1.317130	-0.203172
C86	C	1.013157	1.420277	-0.272135
C87	C	1.072586	0.557701	0.344255
C88	C	1.072591	0.460797	0.409060
C89	C	1.013251	0.412332	0.401790
C90	C	0.953893	0.460785	0.329710
C91	C	0.953882	0.557694	0.264908
C92	C	1.528073	0.557689	0.264906
C93	C	1.625004	0.460781	0.329701
C94	C	1.614142	0.412309	0.401784
C95	C	1.506339	0.460759	0.409071
C96	C	1.409410	0.557672	0.344277
C97	C	0.498320	1.468745	-0.264857
C98	C	0.401388	1.565683	-0.329652
C99	C	0.412251	1.614161	-0.401735
C100	C	0.520054	1.565704	-0.409022
C101	C	0.616983	1.468775	-0.344228
C102	C	1.072508	1.468712	-0.264841
C103	C	1.072521	1.565617	-0.329633
C104	C	1.013175	1.614092	-0.401717
C105	C	0.953822	1.565648	-0.409010
C106	C	0.953817	1.468738	-0.344219
C107	C	1.638638	0.459821	0.047736
C108	C	1.531402	0.566749	0.048007
C109	C	1.423597	0.479285	0.035007
C110	C	1.531370	0.371903	0.035353
C111	C	1.529980	0.546891	-0.082697
C112	C	1.424007	0.655368	-0.082564
H113	H	1.157590	0.280495	0.108531
H114	H	0.905521	1.228539	-0.793800
Cl115	Cl	1.147190	0.745271	-0.646575
H116	H	0.489453	1.429280	-0.206170
H117	H	0.704749	1.429325	-0.350172
H118	H	0.494244	1.212377	-0.024556
H119	H	0.313620	1.605120	-0.323704
H120	H	1.424521	0.745859	-0.108686
H121	H	0.528885	1.605187	-0.467720
H122	H	1.176138	0.529765	-0.024781
H123	H	1.692591	0.497062	0.024399
H124	H	1.120905	0.797844	-0.532255
H125	H	1.693077	0.333396	0.454537
Cl126	Cl	0.827203	0.794652	-0.128993
H127	H	1.120835	1.429258	-0.206152
Cl128	Cl	1.147135	1.626505	-0.320448
H129	H	0.519913	0.838397	-0.004366
H130	H	1.120884	0.797875	-0.323707
Cl131	Cl	1.147175	0.745306	-0.174225
H132	H	1.533866	0.529277	0.109022
H133	H	1.013189	1.693003	-0.454468
H134	H	1.120932	0.421358	0.467743
Cl135	Cl	1.013279	0.290499	0.483265
Cl136	Cl	0.879208	1.626615	-0.499637
H137	H	0.905481	1.429313	-0.350168
H138	H	1.533010	0.656101	0.024554
Cl139	Cl	0.723815	0.777284	0.019666
H140	H	1.049945	0.656677	-0.108558
H141	H	1.693632	0.370146	0.108381
H142	H	1.019755	0.338574	0.121292
H143	H	1.120908	0.597151	0.350189
Cl144	Cl	1.609122	0.231771	0.129322
Cl145	Cl	1.030048	0.518010	-0.142359
H146	H	0.443581	0.990692	0.110050
Cl147	Cl	1.490225	0.325648	-0.014840
H148	H	0.601805	0.992689	0.109650
Cl149	Cl	0.290384	1.736014	-0.483184
H150	H	1.345326	0.501536	0.001922
Cl151	Cl	0.803002	0.700268	0.015390
H152	H	0.905580	0.421310	0.323803
Cl153	Cl	1.420319	0.419737	0.128087
H154	H	0.905555	0.597124	0.206226
Cl155	Cl	1.607190	0.608000	-0.127795
Cl156	Cl	1.301789	0.704972	-0.142081
Cl157	Cl	0.803489	0.512283	0.016651
Cl158	Cl	1.541758	0.618614	0.174296
H159	H	0.905513	1.228548	-0.676248
H160	H	1.712773	0.421342	0.323754
Cl161	Cl	1.492702	0.399806	0.499696
H162	H	1.153728	0.439863	0.111749
Cl163	Cl	1.225045	0.322174	-0.012243
Cl164	Cl	0.826329	0.606694	-0.127733
H165	H	0.606946	0.986643	-0.093926
Cl166	Cl	1.273904	0.618549	0.353454
Cl167	Cl	0.414704	1.023726	-0.129616
Cl168	Cl	0.983837	0.517255	0.138126
Cl169	Cl	1.487601	0.508625	-0.137852
Cl170	Cl	0.303749	1.243509	-0.141626
Cl171	Cl	0.491242	1.244065	-0.142106
H172	H	0.334198	1.212629	-0.024105
H173	H	0.522314	0.836018	0.119949
Cl174	Cl	0.723257	0.780012	0.140559
H175	H	0.905481	1.228576	-0.350153
H176	H	0.905505	1.228566	-0.467694
