data_functionalizedCrystal
_audit_creation_method	'MofGen! by Chris Wilmer'
_symmetry_space_group_name_H-M	'P1'
_symmetry_Int_Tables_number	1
_symmetry_cell_setting	triclinic
loop_
_symmetry_equiv_pos_as_xyz
  x,y,z
_cell_length_a	19.121102
_cell_length_b	29.839131
_cell_length_c	29.839126
_cell_angle_alpha	90.029653
_cell_angle_beta	92.464336
_cell_angle_gamma	87.589066
loop_
_atom_site_label
_atom_site_type_symbol
_atom_site_fract_x
_atom_site_fract_y
_atom_site_fract_z
Zn1	Zn	1.073718	-0.208248	0.283242
Zn2	Zn	1.573718	0.291752	0.783242
Zn3	Zn	1.073596	-0.283362	0.208098
Zn4	Zn	1.573596	0.216638	0.708098
Zn5	Zn	0.956254	-0.205039	0.204923
Zn6	Zn	1.456254	0.294961	0.704923
Zn7	Zn	0.956213	-0.280140	0.280001
Zn8	Zn	1.456213	0.219860	0.780001
O9	O	1.014945	-0.244197	0.244066
O10	O	1.514945	0.255803	0.744066
O11	O	1.171986	-0.220903	0.275959
O12	O	1.671986	0.279097	0.775959
O13	O	1.057997	-0.272979	0.144809
O14	O	1.557997	0.227021	0.644809
O15	O	0.971904	-0.142600	0.215340
O16	O	1.471904	0.357400	0.715340
O17	O	1.171896	-0.276090	0.220751
O18	O	1.671896	0.223910	0.720751
O19	O	1.058204	-0.144957	0.272880
O20	O	1.558204	0.355043	0.772880
O21	O	0.971786	-0.215435	0.142477
O22	O	1.471786	0.284565	0.642477
O23	O	0.857965	-0.212310	0.212198
O24	O	1.357965	0.287690	0.712198
O25	O	0.971834	-0.270597	0.343299
O26	O	1.471834	0.229403	0.843299
O27	O	0.857935	-0.267486	0.267357
O28	O	1.357935	0.232514	0.767357
O29	O	1.058164	-0.217779	0.345680
O30	O	1.558164	0.282221	0.845680
O31	O	1.057957	-0.345800	0.217609
O32	O	1.557957	0.154200	0.717609
O33	O	0.971716	-0.343432	0.270436
O34	O	1.471716	0.156568	0.770436
C35	C	0.832466	-0.239201	0.239081
C36	C	1.332466	0.260799	0.739081
C37	C	0.754400	-0.237074	0.236959
C38	C	1.254400	0.262926	0.736959
C39	C	0.717727	-0.264845	0.264636
C40	C	1.217727	0.235155	0.764636
C41	C	0.644376	-0.262841	0.262644
C42	C	1.144376	0.237159	0.762644
C43	C	0.607699	-0.233067	0.232974
C44	C	1.107699	0.266933	0.732974
C45	C	0.644377	-0.205293	0.205296
C46	C	1.144377	0.294707	0.705296
C47	C	0.717727	-0.207295	0.207290
C48	C	1.217727	0.292705	0.707290
C49	C	0.386231	-0.225580	0.225520
C50	C	0.886231	0.274420	0.725520
C51	C	0.312876	-0.223581	0.223527
C52	C	0.812876	0.276419	0.723527
C53	C	0.312880	-0.281128	0.280876
C54	C	0.812880	0.218872	0.780876
C55	C	0.386231	-0.283130	0.282866
C56	C	0.886231	0.216870	0.782866
C57	C	0.422903	-0.255354	0.255190
C58	C	0.922903	0.244646	0.755190
C59	C	0.532723	-0.231019	0.230936
C60	C	1.032723	0.268981	0.730936
C61	C	0.497878	-0.257400	0.257230
C62	C	0.997878	0.242600	0.757230
C63	C	1.014838	-0.360917	0.244025
C64	C	1.514838	0.139083	0.744025
C65	C	1.014857	-0.410852	0.244025
C66	C	1.514857	0.089148	0.744025
C67	C	1.059872	-0.721690	0.274068
C68	C	1.559872	-0.221690	0.774068
C69	C	1.059948	-0.909365	0.274097
C70	C	1.559948	-0.409365	0.774097
O71	O	1.098117	-0.934643	0.299610
O72	O	1.598117	-0.434643	0.799610
N73	N	1.015065	-0.931643	0.244119
N74	N	1.515065	-0.431643	0.744119
C75	C	0.970156	-0.906998	0.214134
C76	C	1.470156	-0.406998	0.714134
O77	O	0.931976	-0.930253	0.188640
O78	O	1.431976	-0.430253	0.688640
C79	C	0.970076	-0.719324	0.214107
C80	C	1.470076	-0.219324	0.714107
C81	C	1.014968	-0.697049	0.244084
C82	C	1.514968	-0.197049	0.744084
C83	C	1.104759	-0.699415	0.304043
C84	C	1.604759	-0.199415	0.804043
C85	C	1.104743	-0.652499	0.304033
C86	C	1.604743	-0.152499	0.804033
C87	C	1.059838	-0.627858	0.274050
C88	C	1.559838	-0.127858	0.774050
C89	C	1.014951	-0.650133	0.244075
C90	C	1.514951	-0.150133	0.744075
C91	C	0.925164	-0.694680	0.184125
C92	C	1.425164	-0.194680	0.684125
C93	C	0.925147	-0.647759	0.184122
C94	C	1.425147	-0.147759	0.684122
C95	C	0.970039	-0.625484	0.214098
C96	C	1.470039	-0.125484	0.714098
C97	C	0.970030	-0.578576	0.214082
C98	C	1.470030	-0.078576	0.714082
N99	N	1.014914	-0.556299	0.244060
N100	N	1.514914	-0.056299	0.744060
C101	C	1.059818	-0.580940	0.274044
C102	C	1.559818	-0.080940	0.774044
C103	C	0.970201	-1.005530	0.214149
C104	C	1.470201	-0.505530	0.714149
C105	C	0.970222	-1.052449	0.214156
C106	C	1.470222	-0.552449	0.714156
C107	C	1.060014	-1.054812	0.274119
C108	C	1.560014	-0.554812	0.774119
C109	C	1.059996	-1.007893	0.274111
C110	C	1.559996	-0.507893	0.774111
C111	C	1.015085	-0.983253	0.244127
C112	C	1.515085	-0.483253	0.744127
C113	C	1.059780	-0.482413	0.274022
C114	C	1.559780	0.017587	0.774022
C115	C	1.059761	-0.435493	0.274009
C116	C	1.559761	0.064507	0.774009
C117	C	0.969967	-0.433133	0.214047
C118	C	1.469967	0.066867	0.714047
C119	C	0.969988	-0.480049	0.214058
C120	C	1.469988	0.019951	0.714058
C121	C	1.014896	-0.504688	0.244049
C122	C	1.514896	-0.004688	0.744049
O123	O	0.931876	-0.553270	0.188586
O124	O	1.431876	-0.053270	0.688586
O125	O	1.097981	-0.557677	0.299541
O126	O	1.597981	-0.057677	0.799541
C127	C	1.059889	-0.768606	0.274077
C128	C	1.559889	-0.268606	0.774077
C129	C	1.015001	-0.790881	0.244103
C130	C	1.515001	-0.290881	0.744103
C131	C	0.970097	-0.766240	0.214119
C132	C	1.470097	-0.266240	0.714119
C133	C	1.015022	-0.837799	0.244109
C134	C	1.515022	-0.337799	0.744109
C135	C	1.059926	-0.862440	0.274093
C136	C	1.559926	-0.362440	0.774093
C137	C	1.104810	-0.840163	0.304070
C138	C	1.604810	-0.340163	0.804070
C139	C	1.104793	-0.793247	0.304061
C140	C	1.604793	-0.293247	0.804061
C141	C	0.925214	-0.788518	0.184141
C142	C	1.425214	-0.288518	0.684141
C143	C	0.925235	-0.835434	0.184152
C144	C	1.425235	-0.335434	0.684152
C145	C	0.970139	-0.860075	0.214136
C146	C	1.470139	-0.360075	0.714136
C147	C	1.198138	-0.249214	0.249071
C148	C	1.698138	0.250786	0.749071
C149	C	1.276203	-0.251352	0.251203
C150	C	1.776203	0.248648	0.751203
C151	C	1.015008	-0.244186	0.361246
C152	C	1.515008	0.255814	0.861246
C153	C	1.015035	-0.244181	0.411181
C154	C	1.515035	0.255819	0.911181
C155	C	1.015072	-0.127022	0.244117
C156	C	1.515072	0.372978	0.744117
C157	C	1.015126	-0.077089	0.244139
C158	C	1.515126	0.422911	0.744139
C159	C	1.014923	-0.244177	0.127343
C160	C	1.514923	0.255823	0.627343
C161	C	1.015032	-0.244059	0.077412
C162	C	1.515032	0.255941	0.577412
C163	C	1.059916	-0.274084	0.768986
C164	C	1.559916	0.225916	1.268986
C165	C	1.059917	-0.274115	0.581313
C166	C	1.559917	0.225885	1.081313
O167	O	1.098069	-0.299610	0.558083
O168	O	1.598069	0.200390	1.058083
N169	N	1.015032	-0.244160	0.556627
N170	N	1.515032	0.255840	1.056627
C171	C	0.970140	-0.214196	0.578861
C172	C	1.470140	0.285804	1.078861
O173	O	0.931958	-0.188721	0.553557
O174	O	1.431958	0.311279	1.053557
C175	C	0.970136	-0.214167	0.766533
C176	C	1.470136	0.285833	1.266533
C177	C	1.015029	-0.244122	0.791217
C178	C	1.515029	0.255878	1.291217
C179	C	1.104804	-0.304037	0.793670
C180	C	1.604804	0.195963	1.293670
C181	C	1.104806	-0.304027	0.840586
C182	C	1.604806	0.195973	1.340586
C183	C	1.059920	-0.274065	0.862817
C184	C	1.559920	0.225935	1.362817
C185	C	1.015031	-0.244112	0.838133
C186	C	1.515031	0.255888	1.338133
C187	C	0.925242	-0.184206	0.788767
C188	C	1.425242	0.315794	1.288767
C189	C	0.925243	-0.184202	0.835688
C190	C	1.425243	0.315798	1.335688
C191	C	0.970136	-0.214157	0.860372
C192	C	1.470136	0.285843	1.360372
C193	C	0.970146	-0.214140	0.907280
C194	C	1.470146	0.285860	1.407280
N195	N	1.015031	-0.244096	0.931966
N196	N	1.515031	0.255904	1.431966
C197	C	1.059918	-0.274058	0.909735
C198	C	1.559918	0.225942	1.409735
C199	C	0.970147	-0.214213	0.480331
C200	C	1.470147	0.285787	0.980331
C201	C	0.970149	-0.214219	0.433413
C202	C	1.470149	0.285781	0.933413
C203	C	1.059924	-0.274139	0.435868
C204	C	1.559924	0.225861	0.935868
C205	C	1.059925	-0.274130	0.482787
C206	C	1.559925	0.225870	0.982787
C207	C	1.015032	-0.244168	0.505017
C208	C	1.515032	0.255832	1.005017
C209	C	1.059919	-0.274035	1.008261
C210	C	1.559919	0.225965	1.508261
C211	C	1.059919	-0.274021	1.055181
C212	C	1.559919	0.225979	1.555181
C213	C	0.970141	-0.214103	1.052721
C214	C	1.470141	0.285897	1.552721
C215	C	0.970143	-0.214115	1.005806
C216	C	1.470143	0.285885	1.505806
C217	C	1.015035	-0.244085	0.983577
C218	C	1.515035	0.255915	1.483577
O219	O	0.932009	-0.188662	0.930539
O220	O	1.432009	0.311338	1.430539
O221	O	1.098083	-0.299536	0.935046
O222	O	1.598083	0.200464	1.435046
C223	C	1.059914	-0.274094	0.722071
C224	C	1.559914	0.225906	1.222071
C225	C	1.015025	-0.244141	0.697386
C226	C	1.515025	0.255859	1.197386
C227	C	0.970139	-0.214179	0.719618
C228	C	1.470139	0.285821	1.219618
C229	C	1.015027	-0.244148	0.650469
C230	C	1.515027	0.255852	1.150469
C231	C	1.059914	-0.274110	0.628237
C232	C	1.559914	0.225890	1.128237
C233	C	1.104798	-0.304066	0.652924
C234	C	1.604798	0.195934	1.152924
C235	C	1.104800	-0.304056	0.699839
C236	C	1.604800	0.195944	1.199839
C237	C	0.925254	-0.184223	0.694931
C238	C	1.425254	0.315777	1.194931
C239	C	0.925256	-0.184235	0.648016
C240	C	1.425256	0.315765	1.148016
C241	C	0.970143	-0.214198	0.625785
C242	C	1.470143	0.285802	1.125785
H243	H	0.614521	-0.285455	0.285181
H244	H	1.114521	0.214545	0.785181
C245	C	0.378865	-0.339809	0.339355
C246	C	0.878865	0.160191	0.839355
C247	C	0.426544	-0.315856	0.315482
C248	C	0.926544	0.184144	0.815482
H249	H	0.403754	-0.360012	0.359492
H250	H	0.903754	0.139988	0.859492
H251	H	0.350225	-0.356182	0.318970
H252	H	0.850225	0.143818	0.818970
H253	H	0.350287	-0.319476	0.355802
H254	H	0.850287	0.180524	0.855802
H255	H	0.455119	-0.336190	0.299033
H256	H	0.955119	0.163810	0.799033
H257	H	0.455196	-0.299482	0.335871
H258	H	0.955196	0.200518	0.835871
C259	C	1.193518	-0.697026	0.363305
C260	C	1.693518	-0.197026	0.863305
C261	C	1.154128	-0.726495	0.337002
C262	C	1.654128	-0.226495	0.837002
H263	H	1.224004	-0.713743	0.383651
H264	H	1.724004	-0.213743	0.883651
H265	H	1.162894	-0.677899	0.379635
H266	H	1.662894	-0.177899	0.879635
H267	H	1.220378	-0.679455	0.344468
H268	H	1.720378	-0.179455	0.844468
H269	H	1.127263	-0.744064	0.355839
H270	H	1.627263	-0.244064	0.855839
H271	H	1.184756	-0.745630	0.320672
H272	H	1.684756	-0.245630	0.820672
H273	H	0.933628	-0.985471	0.189732
H274	H	1.433628	-0.485471	0.689732
H275	H	1.096478	-0.298436	0.990168
H276	H	1.596478	0.201564	1.490168
C277	C	1.069688	-0.955353	0.334807
C278	C	1.569688	-0.455353	0.834807
C279	C	1.109336	-0.983408	0.307064
C280	C	1.609336	-0.483408	0.807064
H281	H	1.100150	-0.940238	0.355150
H282	H	1.600150	-0.440238	0.855150
H283	H	1.039089	-0.972828	0.351138
H284	H	1.539089	-0.472828	0.851138
H285	H	1.042945	-0.933962	0.316946
H286	H	1.542945	-0.433962	0.816946
H287	H	1.136075	-1.004802	0.324925
H288	H	1.636075	-0.504802	0.824925
H289	H	1.139947	-0.965932	0.290731
H290	H	1.639947	-0.465932	0.790731
C291	C	1.148516	-0.442549	0.333285
C292	C	1.648516	0.057451	0.833285
C293	C	1.109105	-0.411009	0.306964
C294	C	1.609105	0.088991	0.806964
H295	H	1.178973	-0.427434	0.353632
H296	H	1.678973	0.072566	0.853632
H297	H	1.175402	-0.461581	0.314463
H298	H	1.675402	0.038419	0.814463
H299	H	1.117899	-0.460018	0.349617
H300	H	1.617899	0.039982	0.849617
H301	H	1.139722	-0.393542	0.290629
H302	H	1.639722	0.106458	0.790629
H303	H	1.082217	-0.391969	0.325788
H304	H	1.582217	0.108031	0.825788
H305	H	0.888572	-0.627699	0.159706
H306	H	1.388572	-0.127699	0.659706
H307	H	1.141356	-0.328449	0.719933
H308	H	1.641356	0.171551	1.219933
C309	C	1.144592	-0.581631	0.330658
C310	C	1.644592	-0.081631	0.830658
C311	C	1.154082	-0.628018	0.336989
C312	C	1.654082	-0.128018	0.836989
H313	H	1.175056	-0.566520	0.351004
H314	H	1.675056	-0.066520	0.851004
H315	H	1.097400	-0.572675	0.335917
H316	H	1.597400	-0.072675	0.835917
H317	H	1.154898	-0.574238	0.300759
H318	H	1.654898	-0.074238	0.800759
H319	H	1.143771	-0.635411	0.366887
H320	H	1.643771	-0.135411	0.866887
H321	H	1.201285	-0.636977	0.331734
H322	H	1.701285	-0.136977	0.831734
H323	H	0.933408	-0.413063	0.189633
H324	H	1.433408	0.086937	0.689633
H325	H	0.888685	-0.159803	0.853785
H326	H	1.388685	0.340197	1.353785
C327	C	1.099805	-0.300611	1.128191
C328	C	1.599805	0.199389	1.628191
C329	C	1.109273	-0.306947	1.082314
C330	C	1.609273	0.193053	1.582314
H331	H	1.130277	-0.320935	1.144940
H332	H	1.630277	0.179065	1.644940
H333	H	1.052617	-0.305898	1.134580
H334	H	1.552617	0.194102	1.634580
H335	H	1.110112	-0.270704	1.136167
H336	H	1.610112	0.229296	1.636167
H337	H	1.098961	-0.336853	1.074336
H338	H	1.598961	0.163147	1.574336
H339	H	1.156472	-0.301663	1.075922
H340	H	1.656472	0.198337	1.575922
C341	C	0.830778	-0.175419	0.592660
C342	C	1.330778	0.324581	1.092660
C343	C	0.875905	-0.151306	0.620885
C344	C	1.375905	0.348694	1.120885
H345	H	0.800312	-0.155092	0.575911
H346	H	1.300312	0.344908	1.075911
H347	H	0.803902	-0.194252	0.610220
H348	H	1.303902	0.305748	1.110220
H349	H	0.857517	-0.193261	0.572704
H350	H	1.357517	0.306739	1.072704
H351	H	0.849166	-0.133467	0.640844
H352	H	1.349166	0.366533	1.140844
H353	H	0.902783	-0.132466	0.603324
H354	H	1.402783	0.367534	1.103324
C355	C	0.468662	-0.221497	0.167342
C356	C	0.968662	0.278503	0.667342
C357	C	0.426532	-0.195052	0.195095
C358	C	0.926532	0.304948	0.695095
H359	H	0.493546	-0.202648	0.148560
H360	H	0.993546	0.297352	0.648560
H361	H	0.440017	-0.240262	0.149343
H362	H	0.940017	0.259738	0.649343
H363	H	0.501005	-0.239510	0.185302
H364	H	1.001005	0.260490	0.685302
H365	H	0.394186	-0.177040	0.177135
H366	H	0.894186	0.322960	0.677135
H367	H	0.455180	-0.176279	0.213095
H368	H	0.955180	0.323721	0.713095
C369	C	1.099898	-1.127788	0.300754
C370	C	1.599898	-0.627788	0.800754
C371	C	1.109369	-1.081903	0.307082
C372	C	1.609369	-0.581903	0.807082
H373	H	1.130361	-1.144513	0.321107
H374	H	1.630361	-0.644513	0.821107
H375	H	1.110211	-1.135768	0.270861
H376	H	1.610211	-0.635768	0.770861
H377	H	1.052701	-1.134200	0.306011
H378	H	1.552701	-0.634200	0.806011
H379	H	1.156565	-1.075490	0.301822
H380	H	1.656565	-0.575490	0.801822
H381	H	1.099060	-1.073920	0.336981
H382	H	1.599060	-0.573920	0.836981
C383	C	0.200443	-0.303609	0.303288
C384	C	0.700443	0.196391	0.803288
C385	C	0.272569	-0.311653	0.311300
C386	C	0.772569	0.188347	0.811300
H387	H	0.175558	-0.322453	0.322075
H388	H	0.675558	0.177547	0.822075
H389	H	0.188392	-0.309814	0.272767
H390	H	0.688392	0.190186	0.772767
H391	H	0.188461	-0.273105	0.309595
H392	H	0.688461	0.226895	0.809595
H393	H	0.284552	-0.342157	0.304990
H394	H	0.784552	0.157843	0.804990
H395	H	0.284624	-0.305451	0.341828
H396	H	0.784624	0.194549	0.841828
C397	C	1.138962	-0.855478	0.381098
C398	C	1.638962	-0.355478	0.881098
C399	C	1.154164	-0.867254	0.337032
C400	C	1.654164	-0.367254	0.837032
H401	H	1.169430	-0.872203	0.401446
H402	H	1.669430	-0.372203	0.901446
H403	H	1.091772	-0.861895	0.386351
H404	H	1.591772	-0.361895	0.886351
H405	H	1.145386	-0.824348	0.385381
H406	H	1.645386	-0.324348	0.885381
H407	H	1.147735	-0.898384	0.332748
H408	H	1.647735	-0.398384	0.832748
H409	H	1.201365	-0.860840	0.331777
H410	H	1.701365	-0.360840	0.831777
C411	C	0.881462	-1.045388	0.154887
C412	C	1.381462	-0.545388	0.654887
C413	C	0.920880	-1.076930	0.181202
C414	C	1.420880	-0.576930	0.681202
H415	H	0.850995	-1.060501	0.134545
H416	H	1.350995	-0.560501	0.634545
H417	H	0.912069	-1.027921	0.138553
H418	H	1.412069	-0.527921	0.638553
H419	H	0.854580	-1.026355	0.173717
H420	H	1.354580	-0.526355	0.673717
H421	H	0.947766	-1.095961	0.162372
H422	H	1.447766	-0.595961	0.662372
H423	H	0.890269	-1.094405	0.197536
H424	H	1.390269	-0.594405	0.697536
C425	C	0.836394	-0.687611	0.124865
C426	C	1.336394	-0.187611	0.624865
C427	C	0.875811	-0.719156	0.151176
C428	C	1.375811	-0.219156	0.651176
H429	H	0.805920	-0.702722	0.104525
H430	H	1.305920	-0.202722	0.604525
H431	H	0.867001	-0.670146	0.108529
H432	H	1.367001	-0.170146	0.608529
H433	H	0.809519	-0.668577	0.143698
H434	H	1.309519	-0.168577	0.643698
H435	H	0.902690	-0.738189	0.132344
H436	H	1.402690	-0.238189	0.632344
H437	H	0.845200	-0.736630	0.167513
H438	H	1.345200	-0.236630	0.667513
H439	H	0.888680	-0.853566	0.159737
H440	H	1.388680	-0.353566	0.659737
H441	H	0.614509	-0.181049	0.181140
H442	H	1.114509	0.318951	0.681140
H443	H	0.933439	-0.498187	0.189645
H444	H	1.433439	0.001813	0.689645
H445	H	0.933597	-0.189718	0.985707
H446	H	1.433597	0.310282	1.485707
H447	H	0.888700	-0.159825	0.713027
H448	H	1.388700	0.340175	1.213027
C449	C	0.710360	-0.150219	0.150396
C450	C	1.210360	0.349781	0.650396
C451	C	0.758040	-0.176772	0.176863
C452	C	1.258040	0.323228	0.676863
H453	H	0.735249	-0.131376	0.131610
H454	H	1.235249	0.368624	0.631610
H455	H	0.681786	-0.132281	0.169226
H456	H	1.181786	0.367719	0.669226
H457	H	0.681716	-0.168991	0.132397
H458	H	1.181716	0.331009	0.632397
H459	H	0.786681	-0.158000	0.194865
H460	H	1.286681	0.342000	0.694865
H461	H	0.786626	-0.194711	0.158032
H462	H	1.286626	0.305289	0.658032
H463	H	0.933600	-0.189822	0.413319
H464	H	1.433600	0.310178	0.913319
H465	H	1.141348	-0.775114	0.328471
H466	H	1.641348	-0.275114	0.828471
C467	C	0.580416	-0.265981	0.319887
C468	C	1.080416	0.234019	0.819887
C469	C	0.538193	-0.290127	0.289843
C470	C	1.038193	0.209873	0.789843
H471	H	0.605311	-0.286187	0.340018
H472	H	1.105311	0.213813	0.840018
H473	H	0.551831	-0.245660	0.336335
H474	H	1.051831	0.254340	0.836335
H475	H	0.612747	-0.249727	0.303684
H476	H	1.112747	0.250273	0.803684
H477	H	0.505857	-0.306379	0.306046
H478	H	1.005857	0.193621	0.806046
H479	H	0.566779	-0.310456	0.273393
H480	H	1.066779	0.189544	0.773393
C481	C	1.193534	-0.363259	0.838285
C482	C	1.693534	0.136741	1.338285
C483	C	1.154145	-0.336960	0.867715
C484	C	1.654145	0.163040	1.367715
H485	H	1.223990	-0.383595	0.855032
H486	H	1.723990	0.116405	1.355032
H487	H	1.220420	-0.344424	0.820736
H488	H	1.720420	0.155576	1.320736
H489	H	1.162902	-0.379602	0.819133
H490	H	1.662902	0.120398	1.319133
H491	H	1.184777	-0.320614	0.886864
H492	H	1.684777	0.179386	1.386864
H493	H	1.127257	-0.355798	0.885271
H494	H	1.627257	0.144202	1.385271
H495	H	0.502852	-0.206778	0.206777
H496	H	1.002852	0.293222	0.706777
C497	C	0.830761	-0.175392	0.733416
C498	C	1.330761	0.324608	1.233416
C499	C	0.875888	-0.151281	0.761642
C500	C	1.375888	0.348719	1.261642
H501	H	0.800292	-0.155065	0.716669
H502	H	1.300292	0.344935	1.216669
H503	H	0.803888	-0.194229	0.750974
H504	H	1.303888	0.305771	1.250974
H505	H	0.857499	-0.193231	0.713456
H506	H	1.357499	0.306769	1.213456
H507	H	0.849149	-0.133446	0.781604
H508	H	1.349149	0.366554	1.281604
H509	H	0.902763	-0.132438	0.744083
H510	H	1.402763	0.367562	1.244083
C511	C	0.930285	-0.187494	1.123557
C512	C	1.430285	0.312506	1.623557
C513	C	0.920802	-0.181170	1.077164
C514	C	1.420802	0.318830	1.577164
H515	H	0.899819	-0.167165	1.138647
H516	H	1.399819	0.332835	1.638647
H517	H	0.977477	-0.182206	1.132544
H518	H	1.477477	0.317794	1.632544
H519	H	0.919980	-0.217398	1.130945
H520	H	1.419980	0.282602	1.630945
H521	H	0.931112	-0.151266	1.069776
H522	H	1.431112	0.348734	1.569776
H523	H	0.873600	-0.186455	1.068175
H524	H	1.373600	0.313545	1.568175
H525	H	0.283016	-0.199330	0.199368
H526	H	0.783016	0.300670	0.699368
C527	C	1.114521	-0.364750	0.741160
C528	C	1.614521	0.135250	1.241160
C529	C	1.154151	-0.336975	0.769240
C530	C	1.654151	0.163025	1.269240
H531	H	1.144992	-0.385086	0.726083
H532	H	1.644992	0.114914	1.226083
H533	H	1.087800	-0.346915	0.719740
H534	H	1.587800	0.153085	1.219740
H535	H	1.083901	-0.381092	0.758617
H536	H	1.583901	0.118908	1.258617
H537	H	1.184768	-0.320631	0.751783
H538	H	1.684768	0.179369	1.251783
H539	H	1.180884	-0.354812	0.790662
H540	H	1.680884	0.145188	1.290662
H541	H	1.141349	-0.328461	0.634815
H542	H	1.641349	0.171539	1.134815
H543	H	0.747584	-0.289091	0.288795
H544	H	1.247584	0.210909	0.788795
C545	C	1.148662	-0.333358	0.480490
C546	C	1.648662	0.166642	0.980490
C547	C	1.109267	-0.307061	0.509917
C548	C	1.609267	0.192939	1.009917
H549	H	1.179120	-0.353691	0.497238
H550	H	1.679120	0.146309	0.997238
H551	H	1.175546	-0.314521	0.462941
H552	H	1.675546	0.185479	0.962941
H553	H	1.118035	-0.349704	0.461338
H554	H	1.618035	0.150296	0.961338
H555	H	1.139894	-0.290712	0.529067
H556	H	1.639894	0.209288	1.029067
H557	H	1.082381	-0.325900	0.527473
H558	H	1.582381	0.174100	1.027473
H559	H	0.888646	-0.768458	0.159725
H560	H	1.388646	-0.268458	0.659725
H561	H	1.096474	-0.298535	0.417759
H562	H	1.596474	0.201465	0.917759
H563	H	0.933587	-0.189813	0.498426
H564	H	1.433587	0.310187	0.998426
H565	H	1.096344	-0.502468	0.298446
H566	H	1.596344	-0.002468	0.798446
