data_functionalizedCrystal
_audit_creation_method	'MofGen! by Chris Wilmer'
_symmetry_space_group_name_H-M	'P1'
_symmetry_Int_Tables_number	1
_symmetry_cell_setting	triclinic
loop_
_symmetry_equiv_pos_as_xyz
  x,y,z
_cell_length_a	19.077236
_cell_length_b	10.685194
_cell_length_c	19.076919
_cell_angle_alpha	92.275516
_cell_angle_beta	90.112677
_cell_angle_gamma	96.482909
loop_
_atom_site_label
_atom_site_type_symbol
_atom_site_fract_x
_atom_site_fract_y
_atom_site_fract_z
Zn1	Zn	1.039603	-0.457977	0.420210
Zn2	Zn	1.035992	-0.660163	0.293727
Zn3	Zn	0.926845	-0.457316	0.298019
Zn4	Zn	0.913124	-0.676995	0.405718
O5	O	0.978891	-0.563113	0.354418
O6	O	1.137733	-0.478030	0.407700
O7	O	1.025744	-0.625934	0.196290
O8	O	0.949056	-0.280851	0.322089
O9	O	1.135081	-0.626576	0.314774
O10	O	1.031898	-0.281337	0.411862
O11	O	0.945555	-0.476903	0.199444
O12	O	0.826415	-0.493224	0.308037
O13	O	0.925671	-0.655263	0.505646
O14	O	0.816335	-0.654621	0.387163
O15	O	1.018594	-0.494351	0.516293
O16	O	1.012440	-0.838948	0.300721
O17	O	0.922170	-0.851314	0.383001
C18	C	0.795806	-0.575678	0.346493
C19	C	0.717480	-0.581085	0.343118
C20	C	0.682056	-0.506419	0.389977
C21	C	0.608460	-0.511493	0.386800
C22	C	0.570290	-0.591241	0.336767
C23	C	0.605720	-0.665910	0.289903
C24	C	0.679314	-0.660828	0.293078
C25	C	0.350039	-0.614712	0.322076
C26	C	0.276439	-0.619790	0.318906
C27	C	0.279185	-0.465371	0.415803
C28	C	0.352781	-0.460303	0.418975
C29	C	0.388204	-0.534966	0.372109
N30	N	0.495063	-0.596432	0.333520
N31	N	0.463430	-0.529768	0.375354
C32	C	0.965443	-0.890909	0.339839
C33	C	0.959753	-1.031139	0.333628
C34	C	1.162690	-0.550499	0.362375
C35	C	1.241015	-0.545124	0.365765
C36	C	0.971005	-0.576758	0.537092
C37	C	0.967644	-0.582573	0.614936
C38	C	0.992410	-0.234036	0.369071
C39	C	0.998172	-0.093804	0.375315
C40	C	0.986791	-0.549427	0.172461
C41	C	0.990303	-0.543247	0.094639
C42	C	1.014443	-0.501531	0.657052
C43	C	1.011276	-0.506991	0.730195
C44	C	0.961314	-0.593499	0.761221
C45	C	0.914511	-0.674545	0.719100
C46	C	0.917674	-0.669079	0.645958
C47	C	0.946663	-0.618826	0.979376
C48	C	0.943504	-0.624289	1.052523
C49	C	1.040269	-0.456732	1.063614
C50	C	1.043431	-0.451279	0.990470
C51	C	0.996625	-0.532320	0.948355
N52	N	0.958078	-0.599085	0.835985
N53	N	0.999858	-0.526727	0.873593
H54	H	0.574636	-0.730836	0.249162
O55	O	1.062907	-0.417320	0.626954
C56	C	1.106922	-0.198692	0.615657
C57	C	1.051986	-0.293929	0.649773
H58	H	1.098120	-0.098911	0.634104
H59	H	1.101150	-0.208590	0.556142
H60	H	1.162203	-0.218086	0.631505
H61	H	0.996681	-0.274596	0.633980
H62	H	1.057819	-0.284010	0.709282
O63	O	1.042598	-1.029635	0.423507
C64	C	1.088917	-0.826670	0.473895
C65	C	1.038588	-0.899192	0.419276
H66	H	1.085681	-0.721196	0.470503
H67	H	1.145263	-0.847511	0.462979
H68	H	1.073027	-0.857633	0.528679
H69	H	1.054413	-0.868271	0.364472
H70	H	0.982254	-0.878348	0.430254
H71	H	0.908559	-0.684833	0.945094
O72	O	0.915367	-1.095308	0.285394
C73	C	0.868975	-1.298279	0.235068
C74	C	0.919281	-1.225764	0.289708
H75	H	0.872112	-1.403767	0.238547
H76	H	0.884866	-1.267488	0.180252
H77	H	0.812661	-1.277257	0.245986
H78	H	0.975610	-1.246751	0.278855
H79	H	0.903330	-1.256564	0.344506
O80	O	0.872318	-0.747855	0.604965
C81	C	0.859419	-0.912713	0.514412
C82	C	0.910866	-0.823552	0.560782
H83	H	0.890564	-0.973955	0.478689
H84	H	0.826446	-0.854819	0.481101
H85	H	0.823151	-0.975434	0.549159
H86	H	0.947178	-0.760812	0.526089
H87	H	0.943789	-0.881522	0.594099
H88	H	0.708156	-0.721629	0.254920
H89	H	1.049386	-0.441000	0.764483
O90	O	0.384330	-0.687365	0.276521
C91	C	0.373837	-0.841005	0.180050
C92	C	0.334909	-0.758811	0.231612
H93	H	0.333898	-0.898770	0.143718
H94	H	0.404188	-0.907168	0.210649
H95	H	0.412256	-0.777847	0.147578
H96	H	0.296455	-0.821871	0.264096
H97	H	0.304604	-0.692638	0.200971
O98	O	0.866039	-0.758541	0.749349
C99	C	0.818252	-0.841172	0.857110
C100	C	0.873192	-0.746003	0.822947
H101	H	0.824007	-0.831050	0.916620
H102	H	0.827065	-0.941013	0.838785
H103	H	0.762974	-0.821846	0.841211
H104	H	0.928493	-0.765212	0.838831
H105	H	0.864317	-0.646193	0.841272
O106	O	0.894930	-0.708153	1.082742
C107	C	0.795494	-0.737789	1.160406
C108	C	0.850472	-0.642687	1.126246
H109	H	0.759526	-0.684897	1.195576
H110	H	0.823607	-0.804096	1.193160
H111	H	0.762615	-0.794789	1.117726
H112	H	0.883366	-0.585602	1.168880
H113	H	0.822315	-0.576466	1.093476
H114	H	1.078375	-0.390752	1.097911
O115	O	0.719026	-0.428845	0.438605
C116	C	0.713970	-0.276277	0.534405
C117	C	0.672019	-0.364056	0.479358
H118	H	0.675981	-0.223891	0.567378
H119	H	0.752494	-0.205359	0.506774
H120	H	0.744494	-0.334674	0.569848
H121	H	0.641453	-0.305762	0.443898
H122	H	0.633537	-0.434977	0.507034
O123	O	1.091893	-0.367045	0.960385
C124	C	1.135894	-0.148402	0.949122
C125	C	1.080959	-0.243668	0.983219
H126	H	1.127082	-0.048632	0.967581
H127	H	1.130132	-0.158275	0.889606
H128	H	1.191175	-0.167790	0.964975
H129	H	1.025654	-0.224340	0.967421
H130	H	1.086782	-0.233774	1.042728
O131	O	0.574025	-0.438833	0.432226
C132	C	0.497461	-0.275035	0.445802
C133	C	0.536436	-0.357221	0.394278
H134	H	0.467048	-0.209050	0.415140
H135	H	0.537353	-0.217079	0.482103
H136	H	0.459086	-0.338206	0.478311
H137	H	0.574810	-0.294143	0.361722
H138	H	0.496503	-0.415188	0.358024
O139	O	0.389753	-0.382713	0.467595
C140	C	0.384705	-0.230123	0.563385
C141	C	0.342749	-0.317916	0.508348
H142	H	0.346719	-0.177731	0.596358
H143	H	0.423226	-0.159211	0.535745
H144	H	0.415234	-0.288511	0.598830
H145	H	0.312178	-0.259632	0.472887
H146	H	0.304271	-0.388831	0.536033
O147	O	0.244667	-0.392883	0.461249
C148	C	0.132505	-0.332319	0.499331
C149	C	0.171507	-0.414466	0.447810
H150	H	0.073348	-0.349760	0.488494
H151	H	0.151618	-0.228619	0.492271
H152	H	0.143678	-0.357830	0.555411
H153	H	0.160352	-0.389067	0.391710
H154	H	0.152389	-0.518145	0.454932
O155	O	0.239316	-0.697398	0.270391
C156	C	0.149624	-0.872670	0.249657
C157	C	0.191629	-0.784893	0.304668
H158	H	0.111049	-0.943413	0.277347
H159	H	0.187545	-0.925258	0.216708
H160	H	0.119149	-0.814251	0.214180
H161	H	0.222107	-0.843217	0.340191
H162	H	0.153673	-0.732299	0.337565
