data_functionalizedCrystal
_audit_creation_method	'MofGen! by Chris Wilmer'
_symmetry_space_group_name_H-M	'P1'
_symmetry_Int_Tables_number	1
_symmetry_cell_setting	triclinic
loop_
_symmetry_equiv_pos_as_xyz
  x,y,z
_cell_length_a	19.121424
_cell_length_b	19.121063
_cell_length_c	18.215399
_cell_angle_alpha	92.409843
_cell_angle_beta	92.413696
_cell_angle_gamma	94.804615
loop_
_atom_site_label
_atom_site_type_symbol
_atom_site_fract_x
_atom_site_fract_y
_atom_site_fract_z
Zn1	Zn	1.063710	-0.234204	-0.379181
Zn2	Zn	1.397043	0.099130	-0.045847
Zn3	Zn	1.730377	0.432463	0.287486
Zn4	Zn	1.058597	-0.351877	-0.261594
Zn5	Zn	1.391931	-0.018543	0.071739
Zn6	Zn	1.725264	0.314790	0.405072
Zn7	Zn	0.946045	-0.239250	-0.261595
Zn8	Zn	1.279379	0.094084	0.071738
Zn9	Zn	1.612712	0.427417	0.405071
Zn10	Zn	0.940990	-0.356858	-0.390081
Zn11	Zn	1.274323	-0.023525	-0.056748
Zn12	Zn	1.607657	0.309808	0.276586
O13	O	1.002336	-0.295547	-0.323113
O14	O	1.335669	0.037786	0.010220
O15	O	1.669002	0.371120	0.343554
O16	O	1.161494	-0.245617	-0.359020
O17	O	1.494827	0.087717	-0.025687
O18	O	1.828161	0.421050	0.307646
O19	O	1.043643	-0.336964	-0.158613
O20	O	1.376976	-0.003630	0.174721
O21	O	1.710309	0.329703	0.508054
O22	O	0.965909	-0.140114	-0.272632
O23	O	1.299242	0.193219	0.060701
O24	O	1.632576	0.526553	0.394035
O25	O	1.157738	-0.332071	-0.272630
O26	O	1.491071	0.001263	0.060703
O27	O	1.824404	0.334596	0.394036
O28	O	1.052357	-0.136407	-0.359021
O29	O	1.385690	0.196927	-0.025688
O30	O	1.719024	0.530260	0.307645
O31	O	0.960951	-0.254217	-0.158613
O32	O	1.294285	0.079116	0.174720
O33	O	1.627618	0.412450	0.508053
O34	O	0.846912	-0.259047	-0.283201
O35	O	1.180246	0.074286	0.050132
O36	O	1.513579	0.407619	0.383465
O37	O	0.957293	-0.340561	-0.491617
O38	O	1.290626	-0.007228	-0.158284
O39	O	1.623960	0.326106	0.175049
O40	O	0.843198	-0.345454	-0.377599
O41	O	1.176532	-0.012121	-0.044266
O42	O	1.509865	0.321213	0.289067
O43	O	1.047455	-0.250447	-0.483609
O44	O	1.380788	0.082886	-0.150275
O45	O	1.714122	0.416220	0.183058
O46	O	1.038741	-0.451004	-0.283200
O47	O	1.372074	-0.117671	0.050133
O48	O	1.705408	0.215663	0.383467
O49	O	0.952335	-0.454664	-0.377599
O50	O	1.285669	-0.121331	-0.044265
O51	O	1.619002	0.212003	0.289068
C52	C	0.819525	-0.303339	-0.331584
C53	C	1.152858	0.029994	0.001750
C54	C	1.486192	0.363327	0.335083
C55	C	0.741317	-0.306690	-0.335226
C56	C	1.074651	0.026644	-0.001893
C57	C	1.407984	0.359977	0.331441
C58	C	0.298894	-0.327876	-0.358344
C59	C	0.632227	0.005457	-0.025011
C60	C	0.965561	0.338791	0.308323
C61	C	0.372378	-0.324733	-0.354909
C62	C	0.705712	0.008600	-0.021575
C63	C	1.039045	0.341933	0.311758
C64	C	0.411035	-0.278102	-0.304118
C65	C	0.744368	0.055231	0.029216
C66	C	1.077701	0.388564	0.362549
C67	C	0.376202	-0.234616	-0.256754
C68	C	0.709536	0.098717	0.076579
C69	C	1.042869	0.432050	0.409913
C70	C	0.302719	-0.237763	-0.260187
C71	C	0.636052	0.095570	0.073147
C72	C	0.969386	0.428904	0.406480
C73	C	0.633002	-0.266350	-0.291295
C74	C	0.966335	0.066983	0.042038
C75	C	1.299669	0.400316	0.375372
C76	C	0.706490	-0.263205	-0.287868
C77	C	1.039823	0.070128	0.045466
C78	C	1.373157	0.403461	0.378799
C79	C	0.702661	-0.353324	-0.386022
C80	C	1.035995	-0.019990	-0.052688
C81	C	1.369328	0.313343	0.280645
C82	C	0.629177	-0.356463	-0.389453
C83	C	0.962510	-0.023130	-0.056119
C84	C	1.295844	0.310203	0.277214
C85	C	0.594351	-0.312980	-0.342087
C86	C	0.927684	0.020353	-0.008753
C87	C	1.261018	0.353687	0.324580
C88	C	0.486147	-0.274887	-0.300606
C89	C	0.819481	0.058446	0.032727
C90	C	1.152814	0.391779	0.366061
C91	C	0.519239	-0.316199	-0.345595
C92	C	0.852573	0.017134	-0.012262
C93	C	1.185906	0.350468	0.321072
C94	C	0.994454	-0.478364	-0.331597
C95	C	1.327787	-0.145031	0.001736
C96	C	1.661120	0.188302	0.335070
C97	C	0.991146	-0.556572	-0.335248
C98	C	1.324480	-0.223238	-0.001915
C99	C	1.657813	0.110095	0.331418
C100	C	1.034614	-0.591383	-0.287853
C101	C	1.367948	-0.258050	0.045481
C102	C	1.701281	0.075283	0.378814
C103	C	1.031508	-0.664867	-0.291291
C104	C	1.364841	-0.331534	0.042043
C105	C	1.698174	0.001800	0.375376
C106	C	0.984929	-0.703538	-0.342121
C107	C	1.318263	-0.370205	-0.008788
C108	C	1.651596	-0.036872	0.324545
C109	C	0.941460	-0.668722	-0.389522
C110	C	1.274793	-0.335388	-0.056189
C111	C	1.608126	-0.002055	0.277145
C112	C	0.944570	-0.595239	-0.386087
C113	C	1.277904	-0.261906	-0.052754
C114	C	1.611237	0.071428	0.280580
C115	C	0.973288	-0.925505	-0.354953
C116	C	1.306622	-0.592172	-0.021620
C117	C	1.639955	-0.258839	0.311713
C118	C	0.970180	-0.998993	-0.358383
C119	C	1.303513	-0.665660	-0.025050
C120	C	1.636846	-0.332326	0.308283
C121	C	1.060229	-0.995134	-0.260153
C122	C	1.393562	-0.661800	0.073181
C123	C	1.726896	-0.328467	0.406514
C124	C	1.063332	-0.921650	-0.256719
C125	C	1.396666	-0.588316	0.076614
C126	C	1.729999	-0.254983	0.409948
C127	C	1.019865	-0.886839	-0.304122
C128	C	1.353199	-0.553506	0.029211
C129	C	1.686532	-0.220173	0.362544
C130	C	0.981751	-0.778651	-0.345635
C131	C	1.315085	-0.445318	-0.012302
C132	C	1.648418	-0.111984	0.321031
C133	C	1.023047	-0.811728	-0.300611
C134	C	1.356381	-0.478395	0.032722
C135	C	1.689714	-0.145061	0.366055
C136	C	1.185860	-0.287725	-0.314609
C137	C	1.519193	0.045608	0.018724
C138	C	1.852527	0.378942	0.352057
C139	C	1.264067	-0.284392	-0.310986
C140	C	1.597400	0.048942	0.022348
C141	C	1.930734	0.382275	0.355681
C142	C	1.002381	-0.295497	-0.515062
C143	C	1.335714	0.037837	-0.181728
C144	C	1.669047	0.371170	0.151605
C145	C	1.002400	-0.295475	-0.596859
C146	C	1.335733	0.037858	-0.263525
C147	C	1.669066	0.371191	0.069808
C148	C	1.010267	-0.112015	-0.314611
C149	C	1.343601	0.221318	0.018723
C150	C	1.676934	0.554652	0.352056
C151	C	1.013647	-0.033805	-0.310988
C152	C	1.346981	0.299529	0.022346
C153	C	1.680314	0.632862	0.355679
C154	C	1.049365	-0.248510	-0.780881
C155	C	1.382698	0.084823	-0.447548
C156	C	1.716032	0.418156	-0.114215
C157	C	1.049374	-0.248489	-0.857739
C158	C	1.382708	0.084844	-0.524405
C159	C	1.716041	0.418177	-0.191072
C160	C	0.955489	-0.342329	-0.866067
C161	C	1.288822	-0.008996	-0.532734
C162	C	1.622155	0.324337	-0.199400
C163	C	0.955477	-0.342346	-0.789211
C164	C	1.288810	-0.009013	-0.455877
C165	C	1.622143	0.324320	-0.122544
C166	C	1.002419	-0.295438	-0.746620
C167	C	1.335752	0.037896	-0.413287
C168	C	1.669085	0.371229	-0.079953
C169	C	1.002440	-0.295400	-0.900333
C170	C	1.335773	0.037934	-0.567000
C171	C	1.669107	0.371267	-0.233667
C172	C	1.002450	-0.295378	-0.983666
C173	C	1.335783	0.037956	-0.650332
C174	C	1.669117	0.371289	-0.316999
C175	C	1.002408	-0.295459	-0.663282
C176	C	1.335742	0.037875	-0.329949
C177	C	1.669075	0.371208	0.003384
C178	C	1.002334	-0.295545	-0.131907
C179	C	1.335667	0.037789	0.201427
C180	C	1.669000	0.371122	0.534760
C181	C	1.002459	-0.295362	-0.050094
C182	C	1.335793	0.037971	0.283239
C183	C	1.669126	0.371305	0.616572
H184	H	0.274364	-0.202352	-0.221624
H185	H	0.607697	0.130982	0.111709
H186	H	0.941031	0.464315	0.445043
Br187	Br	0.466776	-0.379489	-0.414517
Br188	Br	0.800110	-0.046156	-0.081183
Br189	Br	1.133443	0.287178	0.252150
H190	H	0.400731	-0.360145	-0.393471
H191	H	0.734065	-0.026811	-0.060138
H192	H	1.067398	0.306522	0.273195
Br193	Br	0.891753	-0.406032	-0.742708
Br194	Br	1.225086	-0.072699	-0.409375
Br195	Br	1.558420	0.260634	-0.076042
Br196	Br	0.538615	-0.211602	-0.231679
Br197	Br	0.871948	0.121731	0.101654
Br198	Br	1.205282	0.455065	0.434988
Br199	Br	0.918540	-0.831139	-0.414619
Br200	Br	1.251874	-0.497806	-0.081286
Br201	Br	1.585207	-0.164472	0.252047
H202	H	0.917272	-0.380522	-0.900754
H203	H	1.250605	-0.047189	-0.567420
H204	H	1.583938	0.286144	-0.234087
H205	H	0.267426	-0.365844	-0.399708
H206	H	0.600759	-0.032511	-0.066374
H207	H	0.934092	0.300822	0.266959
H208	H	0.903538	-0.700213	-0.430913
H209	H	1.236871	-0.366880	-0.097579
H210	H	1.570204	-0.033547	0.235754
Br211	Br	0.576720	-0.419749	-0.458388
Br212	Br	0.910053	-0.086416	-0.125054
Br213	Br	1.243387	0.246918	0.208279
H214	H	0.407682	-0.196651	-0.215396
H215	H	0.741015	0.136682	0.117938
H216	H	1.074348	0.470015	0.451271
H217	H	1.087602	-0.210275	-0.885631
H218	H	1.420935	0.123058	-0.552297
H219	H	1.754268	0.456391	-0.218964
Br220	Br	1.097824	-0.538908	-0.218858
Br221	Br	1.431158	-0.205575	0.114475
Br222	Br	1.764491	0.127759	0.447808
Br223	Br	1.126557	-0.869172	-0.187741
Br224	Br	1.459891	-0.535838	0.145592
Br225	Br	1.793224	-0.202505	0.478926
H226	H	0.731024	-0.388726	-0.424584
H227	H	1.064358	-0.055393	-0.091250
H228	H	1.397691	0.277941	0.242083
Br229	Br	1.086263	-0.759245	-0.231633
Br230	Br	1.419597	-0.425911	0.101700
Br231	Br	1.752930	-0.092578	0.435033
Br232	Br	1.119220	-1.042380	-0.195827
Br233	Br	1.452553	-0.709046	0.137507
Br234	Br	1.785887	-0.375713	0.470840
Br235	Br	0.885580	-0.547993	-0.450417
Br236	Br	1.218914	-0.214660	-0.117083
Br237	Br	1.552247	0.118673	0.216250
Br238	Br	0.758952	-0.199918	-0.218931
Br239	Br	1.092285	0.133416	0.114402
Br240	Br	1.425619	0.466749	0.447736
H241	H	0.604655	-0.230946	-0.252723
H242	H	0.937989	0.102388	0.080610
H243	H	1.271322	0.435721	0.413943
H244	H	0.932258	-1.030477	-0.399788
H245	H	1.265592	-0.697144	-0.066455
H246	H	1.598925	-0.363810	0.266878
H247	H	1.066903	-0.693207	-0.252696
H248	H	1.400237	-0.359874	0.080638
H249	H	1.733570	-0.026541	0.413971
H250	H	0.937894	-0.897169	-0.393550
H251	H	1.271228	-0.563835	-0.060216
H252	H	1.604561	-0.230502	0.273117
H253	H	1.087586	-0.210312	-0.746206
H254	H	1.420920	0.123021	-0.412872
H255	H	1.754253	0.456354	-0.079539
