data_functionalizedCrystal
_audit_creation_method	'MofGen! by Chris Wilmer'
_symmetry_space_group_name_H-M	'P1'
_symmetry_Int_Tables_number	1
_symmetry_cell_setting	triclinic
loop_
_symmetry_equiv_pos_as_xyz
  x,y,z
_cell_length_a	6.394989
_cell_length_b	10.723024
_cell_length_c	9.798715
_cell_angle_alpha	90.000034
_cell_angle_beta	89.996337
_cell_angle_gamma	85.482790
loop_
_atom_site_label
_atom_site_type_symbol
_atom_site_fract_x
_atom_site_fract_y
_atom_site_fract_z
O1	O	-0.293033	-1.660290	0.113473
O2	O	-0.321081	-1.297436	0.113476
O3	O	-0.003067	-1.484013	0.113475
O4	O	-0.611048	-1.473713	0.113474
O5	O	-0.003043	-1.484013	-0.113507
O6	O	-0.321057	-1.297435	-0.113506
O7	O	-0.293009	-1.660290	-0.113510
Zn8	Zn	-0.307030	-1.478862	-0.149546
Zn9	Zn	-0.307061	-1.478863	0.149513
O10	O	-0.611024	-1.473712	-0.113509
C11	C	-0.319028	-1.250914	-0.000014
C12	C	-0.312921	-1.112295	-0.000012
N13	N	-0.307067	-1.478864	0.353612
C14	C	-0.295062	-1.706811	-0.000016
C15	C	-0.301169	-1.845430	-0.000009
C16	C	0.074796	-1.481977	-0.000011
C17	C	0.311120	-1.475752	-0.000009
N18	N	-0.307007	-1.478871	-0.353646
C19	C	-0.490865	-1.039201	-0.000012
C20	C	-0.484558	-0.895931	-0.000010
C21	C	-0.173243	-1.557374	0.421389
C22	C	-0.173210	-1.557378	0.578552
H23	H	-0.647879	-1.082689	-0.000020
Br24	Br	-0.051205	-1.039826	-0.000027
Br25	Br	-0.497968	-1.366820	0.549225
H26	H	-0.636892	-0.833115	-0.000004
H27	H	-0.058630	-1.624589	0.636836
H28	H	-0.148827	-0.908239	-0.000001
Br29	Br	0.017673	-1.669417	0.324193
H30	H	-0.421622	-1.411657	0.411937
