data_functionalizedCrystal
_audit_creation_method	'MofGen! by Chris Wilmer'
_symmetry_space_group_name_H-M	'P1'
_symmetry_Int_Tables_number	1
_symmetry_cell_setting	triclinic
loop_
_symmetry_equiv_pos_as_xyz
  x,y,z
_cell_length_a	29.839134
_cell_length_b	29.839131
_cell_length_c	29.839125
_cell_angle_alpha	89.982291
_cell_angle_beta	90.021980
_cell_angle_gamma	89.963719
loop_
_atom_site_label
_atom_site_type_symbol
_atom_site_fract_x
_atom_site_fract_y
_atom_site_fract_z
Zn1	Zn	0.686720	0.178978	0.254125
Zn2	Zn	1.020053	0.512311	0.587458
Zn3	Zn	1.353386	0.845645	0.920792
Zn4	Zn	0.686652	0.254090	0.178995
Zn5	Zn	1.019985	0.587423	0.512328
Zn6	Zn	1.353318	0.920757	0.845662
Zn7	Zn	0.611602	0.178968	0.178995
Zn8	Zn	0.944936	0.512301	0.512328
Zn9	Zn	1.278269	0.845635	0.845661
Zn10	Zn	0.611550	0.254075	0.254083
Zn11	Zn	0.944883	0.587408	0.587417
Zn12	Zn	1.278217	0.920742	0.920750
O13	O	0.649131	0.216528	0.216549
O14	O	0.982464	0.549861	0.549883
O15	O	1.315798	0.883194	0.883216
O16	O	0.749578	0.188952	0.244176
O17	O	1.082911	0.522285	0.577510
O18	O	1.416244	0.855619	0.910843
O19	O	0.676690	0.244127	0.116128
O20	O	1.010023	0.577460	0.449461
O21	O	1.343356	0.910794	0.782794
O22	O	0.621617	0.116102	0.188978
O23	O	0.954950	0.449436	0.522311
O24	O	1.288284	0.782769	0.855645
O25	O	0.749528	0.244137	0.188979
O26	O	1.082861	0.577470	0.522312
O27	O	1.416195	0.910803	0.855645
O28	O	0.676805	0.116109	0.244176
O29	O	1.010139	0.449443	0.577509
O30	O	1.343472	0.782776	0.910843
O31	O	0.621551	0.188935	0.116127
O32	O	0.954885	0.522269	0.449461
O33	O	1.288218	0.855602	0.782794
O34	O	0.548728	0.188921	0.188938
O35	O	0.882062	0.522254	0.522271
O36	O	1.215395	0.855587	0.855604
O37	O	0.621528	0.244111	0.316956
O38	O	0.954861	0.577444	0.650289
O39	O	1.288195	0.910778	0.983623
O40	O	0.548690	0.244101	0.244105
O41	O	0.882023	0.577435	0.577438
O42	O	1.215357	0.910768	0.910772
O43	O	0.676755	0.188937	0.316987
O44	O	1.010088	0.522271	0.650320
O45	O	1.343421	0.855604	0.983653
O46	O	0.676639	0.316955	0.188938
O47	O	1.009972	0.650288	0.522272
O48	O	1.343306	0.983622	0.855605
O49	O	0.621462	0.316944	0.244105
O50	O	0.954796	0.650277	0.577439
O51	O	1.288129	0.983611	0.910772
C52	C	0.532408	0.216509	0.216517
C53	C	0.865742	0.549842	0.549850
C54	C	1.199075	0.883175	0.883184
C55	C	0.482474	0.216511	0.216514
C56	C	0.815807	0.549845	0.549847
C57	C	1.149141	0.883178	0.883181
C58	C	0.649050	0.333250	0.216527
C59	C	0.982383	0.666584	0.549861
C60	C	1.315717	0.999917	0.883194
C61	C	0.649056	0.383185	0.216533
C62	C	0.982390	0.716518	0.549866
C63	C	1.315723	1.049851	0.883199
C64	C	0.172820	0.245303	0.245240
C65	C	0.506153	0.578636	0.578573
C66	C	0.839487	0.911969	0.911907
C67	C	-0.014853	0.245315	0.245260
C68	C	0.318480	0.578649	0.578593
C69	C	0.651814	0.911982	0.911927
O70	O	-0.039127	0.269774	0.269665
O71	O	0.294207	0.603107	0.602998
O72	O	0.627540	0.936440	0.936331
N73	N	-0.038311	0.216544	0.216583
N74	N	0.295022	0.549877	0.549917
N75	N	0.628356	0.883211	0.883250
C76	C	-0.014848	0.187766	0.187902
C77	C	0.318485	0.521099	0.521235
C78	C	0.651819	0.854432	0.854568
O79	O	-0.039107	0.163291	0.163514
O80	O	0.294226	0.496624	0.496848
O81	O	0.627560	0.829958	0.830181
C82	C	0.172824	0.187751	0.187884
C83	C	0.506157	0.521084	0.521218
C84	C	0.839491	0.854418	0.854551
C85	C	0.196280	0.216527	0.216560
C86	C	0.529613	0.549861	0.549893
C87	C	0.862946	0.883194	0.883226
C88	C	0.196276	0.274076	0.273913
C89	C	0.529609	0.607410	0.607247
C90	C	0.862942	0.940743	0.940580
C91	C	0.243191	0.274075	0.273906
C92	C	0.576525	0.607408	0.607240
C93	C	0.909858	0.940741	0.940573
C94	C	0.266651	0.245299	0.245226
C95	C	0.599984	0.578633	0.578559
C96	C	0.933318	0.911966	0.911893
C97	C	0.243195	0.216526	0.216553
C98	C	0.576529	0.549859	0.549886
C99	C	0.909862	0.883192	0.883219
C100	C	0.196286	0.158971	0.159205
C101	C	0.529620	0.492304	0.492539
C102	C	0.862953	0.825637	0.825872
C103	C	0.243207	0.158969	0.159204
C104	C	0.576541	0.492302	0.492538
C105	C	0.909874	0.825635	0.825871
C106	C	0.266663	0.187745	0.187880
C107	C	0.599996	0.521078	0.521213
C108	C	0.933330	0.854412	0.854546
C109	C	0.313570	0.187749	0.187865
C110	C	0.646904	0.521082	0.521199
C111	C	0.980237	0.854415	0.854532
N112	N	0.337029	0.216520	0.216542
N113	N	0.670362	0.549853	0.549875
N114	N	1.003695	0.883186	0.883209
C115	C	0.313569	0.245295	0.245222
C116	C	0.646902	0.578628	0.578556
C117	C	0.980235	0.911962	0.911889
C118	C	-0.113379	0.187776	0.187912
C119	C	0.219955	0.521109	0.521246
C120	C	0.553288	0.854443	0.854579
C121	C	-0.160297	0.187780	0.187916
C122	C	0.173037	0.521113	0.521249
C123	C	0.506370	0.854447	0.854583
C124	C	-0.160298	0.245329	0.245275
C125	C	0.173035	0.578663	0.578608
C126	C	0.506368	0.911996	0.911942
C127	C	-0.113380	0.245327	0.245269
C128	C	0.219954	0.578661	0.578602
C129	C	0.553287	0.911994	0.911935
C130	C	-0.089921	0.216547	0.216589
C131	C	0.243413	0.549881	0.549922
C132	C	0.576746	0.883214	0.883256
C133	C	0.412095	0.245290	0.245205
C134	C	0.745428	0.578623	0.578538
C135	C	1.078761	0.911956	0.911872
C136	C	0.459014	0.245287	0.245194
C137	C	0.792348	0.578620	0.578528
C138	C	1.125681	0.911953	0.911861
C139	C	0.459012	0.187736	0.187837
C140	C	0.792345	0.521069	0.521170
C141	C	1.125678	0.854403	0.854504
C142	C	0.412096	0.187740	0.187846
C143	C	0.745430	0.521074	0.521179
C144	C	1.078763	0.854407	0.854513
C145	C	0.388639	0.216519	0.216534
C146	C	0.721972	0.549852	0.549867
C147	C	1.055306	0.883185	0.883200
O148	O	0.337873	0.163299	0.163477
O149	O	0.671206	0.496633	0.496810
O150	O	1.004540	0.829966	0.830144
O151	O	0.337836	0.269759	0.269613
O152	O	0.671169	0.603092	0.602946
O153	O	1.004502	0.936426	0.936280
C154	C	0.125905	0.245304	0.245247
C155	C	0.459238	0.578638	0.578580
C156	C	0.792571	0.911971	0.911914
C157	C	0.102449	0.216531	0.216574
C158	C	0.435782	0.549864	0.549907
C159	C	0.769116	0.883197	0.883240
C160	C	0.125909	0.187755	0.187893
C161	C	0.459242	0.521089	0.521227
C162	C	0.792575	0.854422	0.854560
C163	C	0.055531	0.216535	0.216577
C164	C	0.388864	0.549868	0.549911
C165	C	0.722198	0.883202	0.883244
C166	C	0.032071	0.245310	0.245258
C167	C	0.365405	0.578644	0.578591
C168	C	0.698738	0.911977	0.911924
C169	C	0.055529	0.274082	0.273934
C170	C	0.388863	0.607415	0.607268
C171	C	0.722196	0.940748	0.940601
C172	C	0.102445	0.274080	0.273927
C173	C	0.435778	0.607413	0.607261
C174	C	0.769112	0.940747	0.940594
C175	C	0.102451	0.158984	0.159217
C176	C	0.435784	0.492318	0.492550
C177	C	0.769117	0.825651	0.825883
C178	C	0.055535	0.158989	0.159226
C179	C	0.388868	0.492322	0.492559
C180	C	0.722202	0.825655	0.825892
C181	C	0.032075	0.187764	0.187906
C182	C	0.365409	0.521097	0.521239
C183	C	0.698742	0.854431	0.854573
C184	C	0.649143	0.216524	0.333728
C185	C	0.982476	0.549857	0.667061
C186	C	1.315810	0.883190	1.000395
C187	C	0.649148	0.216522	0.383662
C188	C	0.982482	0.549855	0.716996
C189	C	1.315815	0.883189	1.050329
C190	C	0.766309	0.216547	0.216582
C191	C	1.099643	0.549880	0.549916
C192	C	1.432976	0.883214	0.883249
C193	C	0.816244	0.216555	0.216596
C194	C	1.149577	0.549889	0.549930
C195	C	1.482910	0.883222	0.883263
C196	C	0.649225	0.099349	0.216582
C197	C	0.982558	0.432683	0.549915
C198	C	1.315891	0.766016	0.883248
C199	C	0.649265	0.049415	0.216595
C200	C	0.982598	0.382748	0.549929
C201	C	1.315931	0.716082	0.883262
C202	C	0.677914	0.692821	0.187866
C203	C	1.011247	1.026155	0.521199
C204	C	1.344580	1.359488	0.854533
C205	C	0.677969	0.880494	0.187883
C206	C	1.011303	1.213828	0.521217
C207	C	1.344636	1.547161	0.854550
O208	O	0.702441	0.904753	0.163493
O209	O	1.035774	1.238087	0.496826
O210	O	1.369107	1.571420	0.830159
N211	N	0.649224	0.903970	0.216583
N212	N	0.982557	1.237303	0.549917
N213	N	1.315891	1.570636	0.883250
C214	C	0.620465	0.880524	0.245283
C215	C	0.953799	1.213857	0.578616
C216	C	1.287132	1.547191	0.911950
O217	O	0.596020	0.904798	0.269698
O218	O	0.929354	1.238131	0.603031
O219	O	1.262687	1.571464	0.936365
C220	C	0.620412	0.692852	0.245268
C221	C	0.953746	1.026185	0.578601
C222	C	1.287079	1.359519	0.911934
C223	C	0.649156	0.669379	0.216563
C224	C	0.982489	1.002712	0.549896
C225	C	1.315823	1.336045	0.883229
C226	C	0.706656	0.669348	0.159164
C227	C	1.039989	1.002681	0.492497
C228	C	1.373322	1.336015	0.825830
C229	C	0.706640	0.622433	0.159158
C230	C	1.039973	0.955766	0.492491
C231	C	1.373306	1.289099	0.825824
C232	C	0.677882	0.598990	0.187854
C233	C	1.011215	0.932324	0.521188
C234	C	1.344549	1.265657	0.854521
C235	C	0.649140	0.622463	0.216557
C236	C	0.982474	0.955797	0.549890
C237	C	1.315807	1.289130	0.883223
C238	C	0.591656	0.669407	0.273969
C239	C	0.924989	1.002740	0.607303
C240	C	1.258323	1.336074	0.940636
C241	C	0.591646	0.622486	0.273964
C242	C	0.924979	0.955819	0.607297
C243	C	1.258313	1.289153	0.940630
C244	C	0.620390	0.599013	0.245259
C245	C	0.953723	0.932346	0.578592
C246	C	1.287057	1.265680	0.911925
C247	C	0.620367	0.552106	0.245248
C248	C	0.953700	0.885439	0.578581
C249	C	1.287033	1.218772	0.911914
N250	N	0.649112	0.528630	0.216548
N251	N	0.982445	0.861963	0.549881
N252	N	1.315778	1.195297	0.883214
C253	C	0.677869	0.552072	0.187851
C254	C	1.011203	0.885406	0.521184
C255	C	1.344536	1.218739	0.854518
C256	C	0.620494	0.979055	0.245289
C257	C	0.953828	1.312388	0.578622
C258	C	1.287161	1.645721	0.911955
C259	C	0.620507	1.025973	0.245292
C260	C	0.953840	1.359306	0.578625
C261	C	1.287174	1.692639	0.911959
C262	C	0.678012	1.025939	0.187893
C263	C	1.011345	1.359273	0.521226
C264	C	1.344678	1.692606	0.854559
C265	C	0.677996	0.979021	0.187887
C266	C	1.011330	1.312354	0.521221
C267	C	1.344663	1.645687	0.854554
C268	C	0.649239	0.955579	0.216589
C269	C	0.982573	1.288913	0.549922
C270	C	1.315906	1.622246	0.883255
C271	C	0.677834	0.453547	0.187841
C272	C	1.011167	0.786880	0.521174
C273	C	1.344500	1.120213	0.854507
C274	C	0.677814	0.406627	0.187836
C275	C	1.011147	0.739960	0.521169
C276	C	1.344481	1.073294	0.854503
C277	C	0.620311	0.406664	0.245237
C278	C	0.953644	0.739998	0.578570
C279	C	1.286978	1.073331	0.911903
C280	C	0.620329	0.453580	0.245240
C281	C	0.953662	0.786913	0.578573
C282	C	1.286996	1.120246	0.911907
C283	C	0.649094	0.477020	0.216540
C284	C	0.982427	0.810353	0.549874
C285	C	1.315761	1.143686	0.883207
O286	O	0.595912	0.527818	0.269629
O287	O	0.929245	0.861151	0.602962
O288	O	1.262578	1.194484	0.936296
O289	O	0.702318	0.527791	0.163447
O290	O	1.035651	0.861124	0.496780
O291	O	1.368984	1.194457	0.830114
C292	C	0.677930	0.739737	0.187872
C293	C	1.011263	1.073070	0.521205
C294	C	1.344596	1.406403	0.854538
C295	C	0.649188	0.763210	0.216574
C296	C	0.982521	1.096543	0.549907
C297	C	1.315855	1.429876	0.883241
C298	C	0.620430	0.739767	0.245271
C299	C	0.953764	1.073101	0.578604
C300	C	1.287097	1.406434	0.911937
C301	C	0.649200	0.810128	0.216578
C302	C	0.982534	1.143461	0.549911
C303	C	1.315867	1.476794	0.883244
C304	C	0.677958	0.833570	0.187881
C305	C	1.011291	1.166903	0.521214
C306	C	1.344625	1.500237	0.854548
C307	C	0.706703	0.810094	0.159181
C308	C	1.040037	1.143428	0.492514
C309	C	1.373370	1.476761	0.825848
C310	C	0.706687	0.763179	0.159175
C311	C	1.040021	1.096512	0.492508
C312	C	1.373354	1.429846	0.825842
C313	C	0.591685	0.763243	0.273971
C314	C	0.925018	1.096576	0.607304
C315	C	1.258352	1.429910	0.940637
C316	C	0.591703	0.810158	0.273974
C317	C	0.925036	1.143492	0.607307
C318	C	1.258370	1.476825	0.940640
C319	C	0.620461	0.833601	0.245277
C320	C	0.953794	1.166934	0.578611
C321	C	1.287127	1.500267	0.911944
C322	C	0.649145	0.216499	0.099827
C323	C	0.982478	0.549833	0.433160
C324	C	1.315811	0.883166	0.766494
C325	C	0.649227	0.216374	0.049893
C326	C	0.982560	0.549708	0.383226
C327	C	1.315893	0.883041	0.716560
C328	C	0.677935	0.187718	0.693325
C329	C	1.011268	0.521051	1.026658
C330	C	1.344602	0.854385	1.359991
C331	C	0.677957	0.187680	0.880998
C332	C	1.011291	0.521013	1.214331
C333	C	1.344624	0.854346	1.547665
O334	O	0.702399	0.163232	0.905279
O335	O	1.035733	0.496565	1.238612
O336	O	1.369066	0.829899	1.571946
N337	N	0.649208	0.216402	0.904448
N338	N	0.982541	0.549735	1.237781
N339	N	1.315875	0.883068	1.571114
C340	C	0.620449	0.245133	0.880976
C341	C	0.953782	0.578467	1.214310
C342	C	1.287115	0.911800	1.547643
O343	O	0.595993	0.269559	0.905228
O344	O	0.929326	0.602892	1.238561
O345	O	1.262659	0.936226	1.571895
C346	C	0.620424	0.245169	0.693304
C347	C	0.953758	0.578502	1.026637
C348	C	1.287091	0.911836	1.359971
C349	C	0.649179	0.216448	0.669857
C350	C	0.982512	0.549782	1.003190
C351	C	1.315846	0.883115	1.336523
C352	C	0.706687	0.158999	0.669877
C353	C	1.040020	0.492333	1.003211
C354	C	1.373354	0.825666	1.336544
C355	C	0.706683	0.159011	0.622962
C356	C	1.040016	0.492344	0.956295
C357	C	1.373349	0.825677	1.289629
C358	C	0.677927	0.187741	0.599494
C359	C	1.011260	0.521074	0.932827
C360	C	1.344593	0.854408	1.266160
C361	C	0.649175	0.216460	0.622941
C362	C	0.982508	0.549793	0.956274
C363	C	1.315842	0.883126	1.289608
C364	C	0.591663	0.273898	0.669833
C365	C	0.924997	0.607231	1.003167
C366	C	1.258330	0.940565	1.336500
C367	C	0.591659	0.273903	0.622912
C368	C	0.924992	0.607237	0.956246
C369	C	1.258326	0.940570	1.289579
C370	C	0.620414	0.245183	0.599465
C371	C	0.953747	0.578516	0.932798
C372	C	1.287080	0.911849	1.266132
C373	C	0.620415	0.245202	0.552558
C374	C	0.953748	0.578535	0.885891
C375	C	1.287081	0.911868	1.219224
N376	N	0.649164	0.216480	0.529108
N377	N	0.982498	0.549813	0.862441
N378	N	1.315831	0.883146	1.195774
C379	C	0.677920	0.187749	0.552576
C380	C	1.011254	0.521083	0.885909
C381	C	1.344587	0.854416	1.219243
C382	C	0.620464	0.245113	0.979507
C383	C	0.953797	0.578446	1.312840
C384	C	1.287131	0.911780	1.646173
C385	C	0.620471	0.245105	1.026425
C386	C	0.953804	0.578438	1.359758
C387	C	1.287137	0.911771	1.693091
C388	C	0.677979	0.187650	1.026443
C389	C	1.011312	0.520984	1.359777
C390	C	1.344645	0.854317	1.693110
C391	C	0.677974	0.187661	0.979524
C392	C	1.011308	0.520995	1.312858
C393	C	1.344641	0.854328	1.646191
C394	C	0.649214	0.216391	0.956057
C395	C	0.982547	0.549724	1.289390
C396	C	1.315880	0.883058	1.622724
C397	C	0.677910	0.187776	0.454050
C398	C	1.011243	0.521109	0.787383
C399	C	1.344576	0.854443	1.120717
C400	C	0.677904	0.187792	0.407130
C401	C	1.011238	0.521125	0.740464
C402	C	1.344571	0.854458	1.073797
C403	C	0.620395	0.245244	0.407116
C404	C	0.953728	0.578577	0.740449
C405	C	1.287061	0.911911	1.073783
C406	C	0.620401	0.245230	0.454032
C407	C	0.953735	0.578564	0.787365
C408	C	1.287068	0.911897	1.120698
C409	C	0.649161	0.216493	0.477497
C410	C	0.982494	0.549826	0.810831
C411	C	1.315827	0.883160	1.144164
O412	O	0.595982	0.269633	0.528248
O413	O	0.929315	0.602966	0.861581
O414	O	1.262649	0.936300	1.194914
O415	O	0.702366	0.163320	0.528316
O416	O	1.035699	0.496654	0.861650
O417	O	1.369032	0.829987	1.194983
C418	C	0.677939	0.187706	0.740240
C419	C	1.011273	0.521040	1.073574
C420	C	1.344606	0.854373	1.406907
C421	C	0.649187	0.216425	0.763688
C422	C	0.982521	0.549758	1.097021
C423	C	1.315854	0.883092	1.430354
C424	C	0.620431	0.245155	0.740219
C425	C	0.953765	0.578489	1.073553
C426	C	1.287098	0.911822	1.406886
C427	C	0.649194	0.216417	0.810605
C428	C	0.982527	0.549750	1.143939
C429	C	1.315861	0.883083	1.477272
C430	C	0.677950	0.187686	0.834074
C431	C	1.011283	0.521020	1.167407
C432	C	1.344617	0.854353	1.500740
C433	C	0.706699	0.158964	0.810624
C434	C	1.040033	0.492298	1.143957
C435	C	1.373366	0.825631	1.477291
C436	C	0.706695	0.158976	0.763708
C437	C	1.040029	0.492309	1.097042
C438	C	1.373362	0.825643	1.430375
C439	C	0.591682	0.273877	0.763669
C440	C	0.925015	0.607211	1.097002
C441	C	1.258349	0.940544	1.430336
C442	C	0.591689	0.273864	0.810585
C443	C	0.925022	0.607197	1.143918
C444	C	1.258355	0.940530	1.477251
C445	C	0.620445	0.245133	0.834053
C446	C	0.953778	0.578467	1.167386
C447	C	1.287111	0.911800	1.500719
H448	H	0.478110	0.268721	0.268545
H449	H	0.811443	0.602055	0.601879
H450	H	1.144776	0.935388	0.935212
H451	H	0.730047	0.603324	0.135785
H452	H	1.063380	0.936657	0.469118
H453	H	1.396713	1.269990	0.802452
H454	H	0.701258	0.472626	0.164472
H455	H	1.034591	0.805959	0.497805
H456	H	1.367924	1.139293	0.831138
H457	H	0.121547	0.135551	0.135861
H458	H	0.454880	0.468885	0.469195
H459	H	0.788213	0.802218	0.802528
H460	H	-0.094285	0.268759	0.268619
H461	H	0.239048	0.602092	0.601953
H462	H	0.572382	0.935425	0.935286
C463	C	-0.174746	0.165784	0.111881
C464	C	0.158587	0.499117	0.445214
C465	C	0.491920	0.832450	0.778547
C466	C	-0.186070	0.156152	0.156387
C467	C	0.147263	0.489485	0.489720
C468	C	0.480597	0.822818	0.823054
H469	H	-0.190654	0.146253	0.092417
H470	H	0.142680	0.479587	0.425750
H471	H	0.476013	0.812920	0.759083
H472	H	-0.182462	0.195954	0.105255
H473	H	0.150871	0.529287	0.438588
H474	H	0.484205	0.862621	0.771921
H475	H	-0.143444	0.161668	0.107787
H476	H	0.189890	0.495002	0.441120
H477	H	0.523223	0.828335	0.774453
H478	H	-0.217373	0.160270	0.160482
H479	H	0.115961	0.493604	0.493815
H480	H	0.449294	0.826937	0.827149
H481	H	-0.178358	0.125974	0.163016
H482	H	0.154976	0.459307	0.496349
H483	H	0.488309	0.792641	0.829682
C484	C	0.767126	0.152740	0.710962
C485	C	1.100459	0.486073	1.044295
C486	C	1.433792	0.819406	1.377628
C487	C	0.738295	0.127399	0.737936
C488	C	1.071628	0.460732	1.071269
C489	C	1.404962	0.794066	1.404603
H490	H	0.786634	0.133242	0.695055
H491	H	1.119968	0.466575	1.028388
H492	H	1.453301	0.799909	1.361721
H493	H	0.750002	0.169848	0.690269
H494	H	1.083335	0.503181	1.023603
H495	H	1.416668	0.836515	1.356936
H496	H	0.784300	0.172310	0.729269
H497	H	1.117633	0.505643	1.062603
H498	H	1.450966	0.838976	1.395936
H499	H	0.721119	0.107831	0.719628
H500	H	1.054452	0.441165	1.052961
H501	H	1.387786	0.774498	1.386295
H502	H	0.755421	0.110283	0.758631
H503	H	1.088755	0.443617	1.091964
H504	H	1.422088	0.776950	1.425297
H505	H	-0.094283	0.164339	0.164556
H506	H	0.239051	0.497673	0.497889
H507	H	0.572384	0.831006	0.831222
C508	C	0.201021	0.102076	0.102522
C509	C	0.534354	0.435410	0.435855
C510	C	0.867687	0.768743	0.769188
C511	C	0.170512	0.127334	0.127688
C512	C	0.503845	0.460667	0.461021
C513	C	0.837179	0.794001	0.794355
H514	H	0.185108	0.082542	0.083066
H515	H	0.518442	0.415875	0.416399
H516	H	0.851775	0.749208	0.749733
H517	H	0.219297	0.121623	0.085299
H518	H	0.552631	0.454957	0.418632
H519	H	0.885964	0.788290	0.751965
H520	H	0.219342	0.084929	0.122135
H521	H	0.552676	0.418262	0.455468
H522	H	0.886009	0.751596	0.788801
H523	H	0.152193	0.144484	0.108075
H524	H	0.485526	0.477818	0.441408
H525	H	0.818859	0.811151	0.774742
H526	H	0.152228	0.107785	0.144912
H527	H	0.485561	0.441118	0.478246
H528	H	0.818895	0.774451	0.811579
C529	C	0.295942	0.152628	0.098778
C530	C	0.629276	0.485961	0.432112
C531	C	0.962609	0.819295	0.765445
C532	C	0.268995	0.127335	0.127677
C533	C	0.602328	0.460668	0.461010
C534	C	0.935662	0.794001	0.794344
H535	H	0.311864	0.133099	0.079317
H536	H	0.645197	0.466432	0.412650
H537	H	0.978531	0.799765	0.745983
H538	H	0.277618	0.172171	0.081562
H539	H	0.610951	0.505505	0.414895
H540	H	0.944285	0.838838	0.748228
H541	H	0.316626	0.169762	0.115859
H542	H	0.649959	0.503095	0.449192
H543	H	0.983293	0.836429	0.782526
H544	H	0.248309	0.110203	0.110596
H545	H	0.581642	0.443536	0.443930
H546	H	0.914976	0.776869	0.777263
H547	H	0.287321	0.107783	0.144896
H548	H	0.620654	0.441117	0.478229
H549	H	0.953988	0.774450	0.811562
C550	C	0.359377	0.127294	0.181734
C551	C	0.692711	0.460627	0.515067
C552	C	1.026044	0.793960	0.848400
C553	C	0.386315	0.156103	0.156329
C554	C	0.719648	0.489437	0.489663
C555	C	1.052982	0.822770	0.822996
H556	H	0.343463	0.107760	0.162279
H557	H	0.676797	0.441093	0.495612
H558	H	1.010130	0.774426	0.828945
H559	H	0.377707	0.110150	0.201335
H560	H	0.711040	0.443484	0.534669
H561	H	1.044374	0.776817	0.868002
H562	H	0.338687	0.144435	0.198810
H563	H	0.672020	0.477768	0.532143
H564	H	1.005354	0.811101	0.865477
H565	H	0.407008	0.138963	0.139255
H566	H	0.740341	0.472296	0.472588
H567	H	1.073674	0.805629	0.805922
H568	H	0.367983	0.173249	0.136720
H569	H	0.701317	0.506582	0.470053
H570	H	1.034650	0.839915	0.803386
H571	H	0.568292	0.829266	0.297349
H572	H	0.901626	1.162599	0.630682
H573	H	1.234959	1.495933	0.964015
H574	H	0.478121	0.164309	0.164485
H575	H	0.811455	0.497642	0.497818
H576	H	1.144788	0.830976	0.831152
C577	C	0.782792	0.137087	0.825106
C578	C	1.116126	0.470420	1.158439
C579	C	1.449459	0.803753	1.491773
C580	C	0.738308	0.127383	0.836427
C581	C	1.071641	0.460716	1.169761
C582	C	1.404974	0.794050	1.503094
H583	H	0.802302	0.117591	0.841040
H584	H	1.135636	0.450924	1.174374
H585	H	1.468969	0.784258	1.507707
H586	H	0.786906	0.132977	0.793813
H587	H	1.120239	0.466310	1.127146
H588	H	1.453572	0.799643	1.460479
H589	H	0.789339	0.167272	0.832794
H590	H	1.122672	0.500606	1.166128
H591	H	1.456005	0.833939	1.499461
H592	H	0.731760	0.097198	0.828736
H593	H	1.065093	0.430531	1.162069
H594	H	1.398427	0.763865	1.495402
H595	H	0.734192	0.131489	0.867728
H596	H	1.067525	0.464822	1.201061
H597	H	1.400859	0.798156	1.534394
H598	H	0.121538	0.297512	0.297278
H599	H	0.454872	0.630846	0.630611
H600	H	0.788205	0.964179	0.963945
H601	H	0.701402	0.959912	0.164514
H602	H	1.034736	1.293245	0.497847
H603	H	1.368069	1.626578	0.831180
C604	C	0.703433	0.162287	0.335219
C605	C	1.036766	0.495620	0.668552
C606	C	1.370099	0.828953	1.001886
C607	C	0.709507	0.156214	0.381357
C608	C	1.042840	0.489547	0.714691
C609	C	1.376174	0.822880	1.048024
H610	H	0.722942	0.142792	0.319310
H611	H	1.056276	0.476125	0.652643
H612	H	1.389609	0.809458	0.985977
H613	H	0.673254	0.155713	0.327526
H614	H	1.006588	0.489046	0.660859
H615	H	1.339921	0.822379	0.994193
H616	H	0.709990	0.192474	0.327531
H617	H	1.043323	0.525807	0.660864
H618	H	1.376656	0.859140	0.994197
H619	H	0.702947	0.126027	0.389046
H620	H	1.036280	0.459361	0.722380
H621	H	1.369614	0.792694	1.055713
H622	H	0.739692	0.162784	0.389054
H623	H	1.073026	0.496118	0.722387
H624	H	1.406359	0.829451	1.055720
H625	H	0.730117	0.829189	0.135814
H626	H	1.063451	1.162523	0.469147
H627	H	1.396784	1.495856	0.802481
H628	H	-0.179407	0.268759	0.268628
H629	H	0.153926	0.602093	0.601961
H630	H	0.487260	0.935426	0.935294
H631	H	0.596991	0.268621	0.473123
H632	H	0.930325	0.601955	0.806457
H633	H	1.263658	0.935288	1.139790
H634	H	0.568274	0.297256	0.829671
H635	H	0.901607	0.630589	1.163005
H636	H	1.234941	0.963923	1.496338
C637	C	0.534841	0.330666	0.768373
C638	C	0.868174	0.663999	1.101706
C639	C	1.201508	0.997332	1.435040
C640	C	0.560071	0.305461	0.737877
C641	C	0.893405	0.638795	1.071211
C642	C	1.226738	0.972128	1.404544
H643	H	0.515328	0.350168	0.752451
H644	H	0.848661	0.683501	1.085784
H645	H	1.181994	1.016835	1.419117
H646	H	0.517676	0.311083	0.786667
H647	H	0.851010	0.644416	1.120001
H648	H	1.184343	0.977750	1.453334
H649	H	0.554410	0.347845	0.786678
H650	H	0.887743	0.681179	1.120011
H651	H	1.221077	1.014512	1.453345
H652	H	0.540502	0.288279	0.719574
H653	H	0.873836	0.621612	1.052908
H654	H	1.207169	0.954946	1.386241
H655	H	0.577237	0.325046	0.719575
H656	H	0.910571	0.658380	1.052909
H657	H	1.243904	0.991713	1.386242
H658	H	0.262285	0.297506	0.297258
H659	H	0.595618	0.630840	0.630591
H660	H	0.928951	0.964173	0.963924
C661	C	-0.016397	0.299630	0.299409
C662	C	0.316936	0.632963	0.632742
C663	C	0.650269	0.966296	0.966076
C664	C	0.029736	0.305710	0.305462
C665	C	0.363069	0.639044	0.638796
C666	C	0.696403	0.972377	0.972129
H667	H	-0.032321	0.319152	0.318876
H668	H	0.301012	0.652485	0.652209
H669	H	0.634345	0.985818	0.985542
H670	H	-0.024101	0.306162	0.269216
H671	H	0.309232	0.639495	0.602550
H672	H	0.642566	0.972828	0.935883
H673	H	-0.024057	0.269452	0.306037
H674	H	0.309277	0.602785	0.639371
H675	H	0.642610	0.936119	0.972704
H676	H	0.037396	0.335887	0.298831
H677	H	0.370730	0.669221	0.632164
H678	H	0.704063	1.002554	0.965497
H679	H	0.037443	0.299182	0.335662
H680	H	0.370776	0.632515	0.668995
H681	H	0.704110	0.965848	1.002328
C682	C	0.734817	0.130870	0.984266
C683	C	1.068150	0.464203	1.317600
C684	C	1.401484	0.797537	1.650933
C685	C	0.709578	0.156087	0.953754
C686	C	1.042911	0.489420	1.287087
C687	C	1.376245	0.822754	1.620420
H688	H	0.754326	0.111374	0.968357
H689	H	1.087659	0.444708	1.301690
H690	H	1.420993	0.778041	1.635024
H691	H	0.751987	0.150445	1.002565
H692	H	1.085321	0.483779	1.335898
H693	H	1.418654	0.817112	1.669231
H694	H	0.715254	0.113683	1.002566
H695	H	1.048587	0.447016	1.335899
H696	H	1.381920	0.780350	1.669232
H697	H	0.729141	0.173277	0.935456
H698	H	1.062475	0.506610	1.268790
H699	H	1.395808	0.839944	1.602123
H700	H	0.692406	0.136509	0.935448
H701	H	1.025740	0.469843	1.268781
H702	H	1.359073	0.803176	1.602114
H703	H	0.568248	0.297285	0.688916
H704	H	0.901582	0.630619	1.022249
H705	H	1.234915	0.963952	1.355583
H706	H	0.393001	0.268723	0.268566
H707	H	0.726334	0.602056	0.601900
H708	H	1.059668	0.935389	0.935233
C709	C	0.060261	0.102096	0.102533
C710	C	0.393594	0.435430	0.435866
C711	C	0.726928	0.768763	0.769200
C712	C	0.029756	0.127353	0.127704
C713	C	0.363089	0.460687	0.461037
C714	C	0.696422	0.794020	0.794370
H715	H	0.044346	0.082563	0.083078
H716	H	0.377680	0.415896	0.416411
H717	H	0.711013	0.749230	0.749745
H718	H	0.078537	0.121644	0.085309
H719	H	0.411870	0.454977	0.418642
H720	H	0.745203	0.788310	0.751976
H721	H	0.078584	0.084947	0.122143
H722	H	0.411917	0.418280	0.455477
H723	H	0.745251	0.751614	0.788810
H724	H	0.011435	0.144505	0.108093
H725	H	0.344768	0.477839	0.441427
H726	H	0.678101	0.811172	0.774760
H727	H	0.011473	0.107804	0.144929
H728	H	0.344806	0.441137	0.478262
H729	H	0.678139	0.774470	0.811596
C730	C	0.569708	0.608035	0.350015
C731	C	0.903041	0.941369	0.683348
C732	C	1.236375	1.274702	1.016682
C733	C	0.560035	0.596720	0.305514
C734	C	0.893368	0.930053	0.638847
C735	C	1.226702	1.263386	0.972181
H736	H	0.550191	0.592130	0.369491
H737	H	0.883524	0.925463	0.702825
H738	H	1.216857	1.258797	1.036158
H739	H	0.599882	0.600312	0.356616
H740	H	0.933216	0.933645	0.689949
H741	H	1.266549	1.266978	1.023283
H742	H	0.565603	0.639338	0.354119
H743	H	0.898937	0.972672	0.687452
H744	H	1.232270	1.306005	1.020785
H745	H	0.564143	0.565417	0.301409
H746	H	0.897476	0.898750	0.634743
H747	H	1.230810	1.232083	0.968076
H748	H	0.529853	0.604440	0.298911
H749	H	0.863187	0.937773	0.632244
H750	H	1.196520	1.271107	0.965577
C751	C	0.767107	0.152762	0.570207
C752	C	1.100440	0.486096	0.903540
C753	C	1.433773	0.819429	1.236873
C754	C	0.738275	0.127429	0.597186
C755	C	1.071608	0.460762	0.930520
C756	C	1.404942	0.794095	1.263853
H757	H	0.786608	0.133260	0.554297
H758	H	1.119942	0.466593	0.887630
H759	H	1.453275	0.799926	1.220963
H760	H	0.749983	0.169874	0.549517
H761	H	1.083316	0.503207	0.882850
H762	H	1.416650	0.836541	1.216184
H763	H	0.784288	0.172329	0.588511
H764	H	1.117621	0.505662	0.921844
H765	H	1.450955	0.838995	1.255178
H766	H	0.721091	0.107865	0.578881
H767	H	1.054424	0.441198	0.912215
H768	H	1.387758	0.774531	1.245548
H769	H	0.755401	0.110309	0.617878
H770	H	1.088734	0.443643	0.951212
H771	H	1.422067	0.776976	1.284545
H772	H	0.701220	0.387517	0.164459
H773	H	1.034554	0.720850	0.497793
H774	H	1.367887	1.054183	0.831126
H775	H	0.730076	0.688430	0.135795
H776	H	1.063409	1.021763	0.469129
H777	H	1.396743	1.355097	0.802462
H778	H	0.568233	0.297294	0.603808
H779	H	0.901567	0.630628	0.937141
H780	H	1.234900	0.963961	1.270474
H781	H	0.701327	0.164374	0.473150
H782	H	1.034660	0.497707	0.806484
H783	H	1.367993	0.831040	1.139817
H784	H	0.701427	1.045034	0.164527
H785	H	1.034761	1.378367	0.497860
H786	H	1.368094	1.711701	0.831194
C787	C	0.534842	0.767998	0.330700
C788	C	0.868176	1.101331	0.664033
C789	C	1.201509	1.434664	0.997366
C790	C	0.560068	0.737479	0.305513
C791	C	0.893401	1.070813	0.638846
C792	C	1.226734	1.404146	0.972179
H793	H	0.515318	0.752093	0.350170
H794	H	0.848652	1.085426	0.683503
H795	H	1.181985	1.418760	1.016836
H796	H	0.554410	0.786268	0.347909
H797	H	0.887744	1.119601	0.681242
H798	H	1.221077	1.452934	1.014576
H799	H	0.517685	0.786325	0.311101
H800	H	0.851018	1.119658	0.644434
H801	H	1.184352	1.452992	0.977768
H802	H	0.577228	0.719154	0.325111
H803	H	0.910561	1.052488	0.658445
H804	H	1.243894	1.385821	0.991778
H805	H	0.540497	0.719202	0.288302
H806	H	0.873831	1.052535	0.621635
H807	H	1.207164	1.385869	0.954969
C808	C	0.200999	0.330964	0.330601
C809	C	0.534333	0.664297	0.663935
C810	C	0.867666	0.997631	0.997268
C811	C	0.170494	0.305713	0.305440
C812	C	0.503827	0.639046	0.638773
C813	C	0.837161	0.972380	0.972106
H814	H	0.185084	0.350500	0.350061
H815	H	0.518417	0.683833	0.683395
H816	H	0.851751	1.017167	1.016728
H817	H	0.219314	0.311413	0.347820
H818	H	0.552648	0.644747	0.681153
H819	H	0.885981	0.978080	1.014486
H820	H	0.219283	0.348110	0.310986
H821	H	0.552616	0.681443	0.644319
H822	H	0.885949	1.014777	0.977652
H823	H	0.152213	0.288564	0.325055
H824	H	0.485546	0.621898	0.658389
H825	H	0.818879	0.955231	0.991722
H826	H	0.152171	0.325266	0.288220
H827	H	0.485505	0.658599	0.621554
H828	H	0.818838	0.991933	0.954887
C829	C	0.594854	0.270759	0.335182
C830	C	0.928187	0.604092	0.668515
C831	C	1.261520	0.937426	1.001848
C832	C	0.588785	0.276821	0.381314
C833	C	0.922118	0.610154	0.714647
C834	C	1.255451	0.943488	1.047980
H835	H	0.575334	0.290250	0.319253
H836	H	0.908668	0.623584	0.652586
H837	H	1.242001	0.956917	0.985919
H838	H	0.625028	0.277345	0.327504
H839	H	0.958362	0.610678	0.660837
H840	H	1.291695	0.944012	0.994171
H841	H	0.588306	0.240571	0.327502
H842	H	0.921639	0.573905	0.660835
H843	H	1.254973	0.907238	0.994169
H844	H	0.595335	0.307008	0.388994
H845	H	0.928669	0.640342	0.722327
H846	H	1.262002	0.973675	1.055660
H847	H	0.558603	0.270238	0.388994
H848	H	0.891936	0.603572	0.722328
H849	H	1.225270	0.936905	1.055661
C850	C	0.563668	1.021281	0.302030
C851	C	0.897002	1.354614	0.635363
C852	C	1.230335	1.687947	0.968697
C853	C	0.588908	1.051771	0.276843
C854	C	0.922242	1.385104	0.610176
C855	C	1.255575	1.718438	0.943510
H856	H	0.544164	1.037207	0.321512
H857	H	0.877497	1.370541	0.654845
H858	H	1.210830	1.703874	0.988178
H859	H	0.546494	1.003007	0.282435
H860	H	0.879827	1.336340	0.615768
H861	H	1.213160	1.669673	0.949102
H862	H	0.583232	1.002955	0.319230
H863	H	0.916565	1.336288	0.652564
H864	H	1.249898	1.669622	0.985897
H865	H	0.569345	1.070095	0.259640
H866	H	0.902678	1.403428	0.592973
H867	H	1.236012	1.736761	0.926306
H868	H	0.606084	1.070053	0.296440
H869	H	0.939417	1.403386	0.629774
H870	H	1.272751	1.736720	0.963107
H871	H	0.597076	0.959972	0.268661
H872	H	0.930409	1.293305	0.601995
H873	H	1.263742	1.626638	0.935328
C874	C	0.563489	0.448897	0.301979
C875	C	0.896823	0.782231	0.635312
C876	C	1.230156	1.115564	0.968645
C877	C	0.588734	0.479384	0.276792
C878	C	0.922067	0.812717	0.610126
C879	C	1.255400	1.146051	0.943459
H880	H	0.543989	0.464826	0.321462
H881	H	0.877322	0.798160	0.654796
H882	H	1.210655	1.131493	0.988129
H883	H	0.546310	0.430628	0.282383
H884	H	0.879644	0.763961	0.615717
H885	H	1.212977	1.097294	0.949050
H886	H	0.583050	0.430567	0.319177
H887	H	0.916383	0.763900	0.652510
H888	H	1.249717	1.097233	0.985844
H889	H	0.569173	0.497713	0.259591
H890	H	0.902507	0.831046	0.592925
H891	H	1.235840	1.164379	0.926258
H892	H	0.605914	0.497661	0.296390
H893	H	0.939248	0.830995	0.629724
H894	H	1.272581	1.164328	0.963057
H895	H	0.568248	0.688511	0.297342
H896	H	0.901581	1.021844	0.630675
H897	H	1.234914	1.355178	0.964009
H898	H	0.596895	0.387570	0.268600
H899	H	0.930229	0.720903	0.601933
H900	H	1.263562	1.054237	0.935267
C901	C	0.763530	0.767874	0.102443
C902	C	1.096863	1.101207	0.435776
C903	C	1.430197	1.434540	0.769110
C904	C	0.738287	0.737381	0.127625
C905	C	1.071621	1.070715	0.460958
C906	C	1.404954	1.404048	0.794291
H907	H	0.783041	0.751948	0.082967
H908	H	1.116375	1.085282	0.416300
H909	H	1.449708	1.418615	0.749634
H910	H	0.743972	0.786196	0.085241
H911	H	1.077306	1.119530	0.418574
H912	H	1.410639	1.452863	0.751908
H913	H	0.780701	0.786151	0.122045
H914	H	1.114035	1.119484	0.455378
H915	H	1.447368	1.452817	0.788712
H916	H	0.721113	0.719107	0.108023
H917	H	1.054446	1.052440	0.441356
H918	H	1.387780	1.385773	0.774689
H919	H	0.757847	0.719051	0.144828
H920	H	1.091181	1.052384	0.478161
H921	H	1.424514	1.385718	0.811495
C922	C	0.703509	0.162122	1.098377
C923	C	1.036843	0.495456	1.431710
C924	C	1.370176	0.828789	1.765044
C925	C	0.709582	0.156063	1.052245
C926	C	1.042916	0.489396	1.385579
C927	C	1.376249	0.822730	1.718912
H928	H	0.723015	0.142618	1.114307
H929	H	1.056348	0.475951	1.447640
H930	H	1.389681	0.809284	1.780973
H931	H	0.710069	0.192302	1.106062
H932	H	1.043402	0.525635	1.439395
H933	H	1.376736	0.858968	1.772728
H934	H	0.673326	0.155549	1.106049
H935	H	1.006659	0.488882	1.439383
H936	H	1.339993	0.822215	1.772716
H937	H	0.739765	0.162640	1.044572
H938	H	1.073098	0.495973	1.377906
H939	H	1.406432	0.829307	1.711239
H940	H	0.703026	0.125877	1.044558
H941	H	1.036359	0.459210	1.377891
H942	H	1.369692	0.792543	1.711224
C943	C	0.563624	0.301893	1.021682
C944	C	0.896958	0.635227	1.355015
C945	C	1.230291	0.968560	1.688349
C946	C	0.588865	0.276678	1.052195
C947	C	0.922199	0.610012	1.385528
C948	C	1.255532	0.943345	1.718861
H949	H	0.544109	0.321382	1.037591
H950	H	0.877442	0.654716	1.370924
H951	H	1.210776	0.988049	1.704258
H952	H	0.583183	0.319083	1.003387
H953	H	0.916516	0.652417	1.336721
H954	H	1.249850	0.985750	1.670054
H955	H	0.546457	0.282313	1.003379
H956	H	0.879790	0.615647	1.336712
H957	H	1.213124	0.948980	1.670046
H958	H	0.606036	0.296258	1.070496
H959	H	0.939369	0.629592	1.403829
H960	H	1.272702	0.962925	1.737162
H961	H	0.569305	0.259487	1.070497
H962	H	0.902638	0.592820	1.403831
H963	H	1.235971	0.926154	1.737164
H964	H	0.730104	0.135601	0.688980
H965	H	1.063437	0.468934	1.022314
H966	H	1.396770	0.802268	1.355647
H967	H	0.597044	0.268511	0.960404
H968	H	0.930377	0.601844	1.293737
H969	H	1.263711	0.935178	1.627071
