data_functionalizedCrystal
_audit_creation_method	'MofGen! by Chris Wilmer'
_symmetry_space_group_name_H-M	'P1'
_symmetry_Int_Tables_number	1
_symmetry_cell_setting	triclinic
loop_
_symmetry_equiv_pos_as_xyz
  x,y,z
_cell_length_a	10.489711
_cell_length_b	10.489716
_cell_length_c	9.565339
_cell_angle_alpha	90.001829
_cell_angle_beta	89.999222
_cell_angle_gamma	84.528072
loop_
_atom_site_label
_atom_site_type_symbol
_atom_site_fract_x
_atom_site_fract_y
_atom_site_fract_z
O1	O	1.694047	0.179793	0.116297
O2	O	1.322845	0.196725	0.116287
O3	O	1.516909	0.002658	0.116297
O4	O	1.499983	0.373860	0.116287
O5	O	1.516918	0.002645	-0.116223
O6	O	1.322854	0.196712	-0.116233
O7	O	1.694056	0.179780	-0.116223
Zn8	Zn	1.508456	0.188244	-0.153146
Zn9	Zn	1.508445	0.188261	0.153210
O10	O	1.499992	0.373847	-0.116233
C11	C	1.275317	0.195448	0.000026
C12	C	1.133686	0.191646	0.000023
C13	C	1.515642	-0.044880	0.000041
C14	C	1.511837	-0.186511	0.000054
C15	C	0.951289	0.308352	0.000036
C16	C	1.043436	0.250062	0.114680
C17	C	1.043418	0.250018	-0.114567
C18	C	0.973496	0.126518	0.114792
C19	C	0.973468	0.126491	-0.114558
C20	C	1.065587	0.068111	0.000114
C21	C	1.741584	0.181057	0.000041
C22	C	1.883215	0.184859	0.000053
C23	C	1.630843	-0.284198	0.000044
C24	C	1.567953	-0.361545	0.114684
C25	C	1.567934	-0.361522	-0.114563
C26	C	1.448997	-0.261993	0.114788
C27	C	1.448995	-0.261964	-0.114562
C28	C	1.386018	-0.339263	0.000106
C29	C	1.501259	0.421385	0.000026
C30	C	1.505064	0.563016	0.000022
N31	N	1.508437	0.188263	0.362289
N32	N	1.508474	0.188232	-0.362225
C33	C	1.418511	0.277837	0.453479
C34	C	1.393006	0.162251	0.546664
C35	C	1.533922	0.303807	0.546659
C36	C	1.482875	0.072619	0.453422
C37	C	1.623842	0.214251	0.453410
C38	C	1.598385	0.098582	0.546553
H39	H	0.901590	0.409854	0.000147
F40	F	1.083925	0.318363	0.241368
F41	F	1.633632	-0.418355	-0.241242
H42	H	1.674453	0.022735	0.587162
H43	H	1.295428	0.140253	0.587635
H44	H	0.942688	0.074319	0.211829
H45	H	1.115053	-0.033485	0.000175
F46	F	0.932926	0.058241	-0.241247
F47	F	1.083883	0.318336	-0.241251
H48	H	1.721389	0.236291	0.412414
F49	F	1.766142	-0.251955	0.000196
H50	H	1.618186	-0.405040	0.211608
F51	F	1.250616	-0.371185	0.000179
H52	H	1.342396	0.353511	0.412610
F53	F	1.454574	-0.055149	0.400121
F54	F	1.383367	-0.205384	0.241612
F55	F	1.562079	0.431541	0.600192
H56	H	1.398806	-0.218446	-0.211489
