data_functionalizedCrystal
_audit_creation_method	'MofGen! by Chris Wilmer'
_symmetry_space_group_name_H-M	'P1'
_symmetry_Int_Tables_number	1
_symmetry_cell_setting	triclinic
loop_
_symmetry_equiv_pos_as_xyz
  x,y,z
_cell_length_a	9.065218
_cell_length_b	15.995350
_cell_length_c	8.140239
_cell_angle_alpha	89.998714
_cell_angle_beta	89.997198
_cell_angle_gamma	84.254130
loop_
_atom_site_label
_atom_site_type_symbol
_atom_site_fract_x
_atom_site_fract_y
_atom_site_fract_z
O1	O	1.957507	0.122770	-0.136609
O2	O	1.527985	0.132840	-0.136610
O3	O	1.754487	0.006007	-0.136608
O4	O	1.731005	0.249604	-0.136611
O5	O	1.754475	0.006005	0.136619
O6	O	1.527973	0.132839	0.136617
O7	O	1.957495	0.122769	0.136619
Zn8	Zn	1.742732	0.127803	0.179998
Zn9	Zn	1.742748	0.127806	-0.179990
O10	O	1.730992	0.249602	0.136616
C11	C	1.473015	0.131872	0.000003
C12	C	1.309240	0.128978	0.000002
C13	C	1.753510	-0.025196	0.000003
C14	C	1.750600	-0.118169	-0.000007
C15	C	1.740148	-0.455995	-0.000001
C16	C	1.578837	-0.409785	-0.000615
C17	C	1.581748	-0.313072	0.000001
C18	C	1.745332	-0.288396	-0.000005
C19	C	1.824889	-0.328871	0.156019
C20	C	1.820837	-0.425537	0.156149
C21	C	1.824183	-0.425868	-0.154561
C22	C	1.824145	-0.328923	-0.156623
C23	C	1.748271	-0.193676	-0.000001
C24	C	1.737214	-0.550716	0.000006
C25	C	2.012465	0.123737	0.000002
C26	C	2.176239	0.126631	-0.000008
C27	C	1.731969	0.280805	0.000002
C28	C	1.734880	0.373778	0.000001
N29	N	1.742731	0.127802	0.425681
N30	N	1.742760	0.127801	-0.425673
H31	H	1.514368	-0.428805	-0.112502
H32	H	1.939269	-0.456887	0.163224
O33	O	1.502482	-0.433793	0.132250
C34	C	1.594187	-0.492219	0.225725
H35	H	1.715401	-0.484094	0.199185
H36	H	1.570745	-0.481098	0.361990
H37	H	1.570571	-0.558707	0.191590
O38	O	1.968231	-0.310896	0.163247
C39	C	1.990873	-0.266482	0.309214
H40	H	1.903783	-0.280256	0.403811
H41	H	2.106122	-0.287070	0.359641
H42	H	1.981026	-0.196206	0.282224
O43	O	1.965978	-0.462818	-0.155918
C44	C	1.964867	-0.550848	-0.161826
H45	H	1.855142	-0.567014	-0.215622
H46	H	2.060128	-0.579010	-0.242278
H47	H	1.978433	-0.577702	-0.032362
O48	O	1.507266	-0.279840	-0.133599
C49	C	1.575731	-0.313668	-0.277766
H50	H	1.641047	-0.376521	-0.248326
H51	H	1.487330	-0.323417	-0.373554
H52	H	1.654177	-0.268421	-0.327994
O53	O	1.506443	-0.280484	0.133608
C54	C	1.358498	-0.300323	0.126555
H55	H	1.352041	-0.358135	0.045984
H56	H	1.318446	-0.313859	0.255703
H57	H	1.285377	-0.245020	0.072278
H58	H	1.762813	-0.444279	0.272783
H59	H	1.769623	-0.300909	0.272130
O60	O	1.966453	-0.309474	-0.167589
C61	C	1.997997	-0.258515	-0.033298
H62	H	1.918973	-0.268793	0.072081
H63	H	2.117123	-0.275862	0.008614
H64	H	1.983405	-0.189684	-0.071997
H65	H	1.771448	-0.446807	-0.272818
O66	O	1.754962	-0.296746	-0.294286
C67	C	1.760944	-0.209026	-0.298267
H68	H	1.857831	-0.191925	-0.220073
H69	H	1.776778	-0.188029	-0.430381
H70	H	1.653062	-0.176193	-0.247568
