data_functionalizedCrystal
_audit_creation_method	'MofGen! by Chris Wilmer'
_symmetry_space_group_name_H-M	'P1'
_symmetry_Int_Tables_number	1
_symmetry_cell_setting	triclinic
loop_
_symmetry_equiv_pos_as_xyz
  x,y,z
_cell_length_a	20.875621
_cell_length_b	14.560438
_cell_length_c	14.560438
_cell_angle_alpha	59.997945
_cell_angle_beta	87.028020
_cell_angle_gamma	58.321053
loop_
_atom_site_label
_atom_site_type_symbol
_atom_site_fract_x
_atom_site_fract_y
_atom_site_fract_z
Zr1	Zr	0.618023	1.005222	-0.166446
O2	O	0.515617	1.196813	-0.305480
O3	O	0.649404	0.813632	-0.123826
O4	O	0.649420	1.005225	-0.315429
O5	O	0.515601	1.005218	0.037263
O6	O	0.754980	1.005225	-0.323275
O7	O	0.515601	1.005220	-0.113878
O8	O	0.754951	0.662501	0.019467
O9	O	0.515630	1.347942	-0.305479
O10	O	0.741580	0.892436	-0.111503
O11	O	0.662802	0.892433	0.007147
O12	O	0.662821	1.118009	-0.218440
O13	O	0.584043	1.118007	-0.099790
Zr14	Zr	0.786378	1.005219	0.062092
Zr15	Zr	0.786378	1.005223	-0.178960
Zr16	Zr	0.618023	1.005218	0.074606
Zr17	Zr	0.618043	1.246255	-0.166444
Zr18	Zr	0.786357	0.764186	0.062090
O19	O	0.754996	1.196809	0.019472
O20	O	0.754996	1.196815	-0.323273
O21	O	0.515617	1.196807	0.037265
O22	O	0.888784	0.813628	0.201127
O23	O	0.888783	0.813634	-0.141619
O24	O	0.649404	0.813626	0.218919
O25	O	0.888800	1.005223	-0.141617
O26	O	0.754980	1.005216	0.211075
O27	O	0.649421	1.005216	0.218921
O28	O	0.888800	1.005220	0.009524
O29	O	0.649450	1.347943	-0.315425
O30	O	0.754951	0.662498	0.211072
O31	O	0.888771	0.662499	0.201125
O32	O	0.888770	0.662502	0.009521
O33	O	0.515630	1.347939	-0.113875
O34	O	0.649450	1.347940	-0.123821
O35	O	0.741580	0.892432	0.114086
O36	O	0.820357	0.892434	-0.004564
O37	O	0.741599	1.118008	-0.111501
O38	O	0.662821	1.118005	0.007149
C39	C	0.702175	0.703724	-0.052180
C40	C	0.702166	0.601399	-0.052181
C41	C	0.491614	1.005219	-0.036525
C42	C	0.420143	1.005219	-0.031212
C43	C	0.760333	0.470082	0.026761
C44	C	0.760366	0.373902	0.026768
C45	C	0.644062	0.540372	-0.131119
C46	C	0.644026	0.636549	-0.131120
C47	C	0.827482	0.373971	0.117913
C48	C	0.827515	0.277791	0.117920
C49	C	0.386565	1.005223	-0.111984
C50	C	0.319413	1.005216	-0.106987
C51	C	0.285836	1.005214	-0.021222
C52	C	0.319420	1.005205	0.059557
C53	C	0.386574	1.005203	0.054564
C54	C	0.084996	1.005211	0.002644
C55	C	0.017835	1.005217	0.007630
C56	C	0.017834	1.005226	-0.158914
C57	C	0.084987	1.005232	-0.163903
C58	C	0.118567	1.005216	-0.083121
N59	N	0.217194	1.005211	-0.016115
N60	N	0.187211	1.005210	-0.088225
C61	C	0.912787	1.005222	-0.067829
C62	C	0.984258	1.005222	-0.073142
C63	C	0.702200	1.005226	-0.353696
C64	C	0.702200	1.005227	-0.456029
C65	C	0.702226	1.306717	-0.052174
C66	C	0.702235	1.409042	-0.052173
C67	C	0.661086	1.122972	-0.559926
C68	C	0.661088	1.122966	-0.656074
C69	C	0.743320	0.887460	-0.544417
C70	C	0.743322	0.887467	-0.448271
C71	C	0.613607	1.258940	-0.624390
C72	C	0.613609	1.258934	-0.720539
C73	C	0.702201	1.005215	0.249343
C74	C	0.702201	1.005214	0.351676
C75	C	0.912761	0.703726	-0.067832
C76	C	0.984223	0.601401	-0.073145
C77	C	0.702175	0.703719	0.249340
C78	C	0.702166	0.601392	0.351672
C79	C	0.912761	0.703721	0.233687
C80	C	0.984223	0.601394	0.330707
C81	C	0.491640	1.306720	-0.338041
C82	C	0.420177	1.409047	-0.435061
C83	C	0.491640	1.306715	-0.036522
C84	C	0.420177	1.409040	-0.031208
C85	C	0.702226	1.306722	-0.353694
C86	C	0.702235	1.409048	-0.456026
C87	C	0.976661	0.553349	-0.131472
C88	C	1.043802	0.457218	-0.136486
C89	C	1.118503	0.409134	-0.083167
C90	C	1.126063	0.457195	-0.024838
C91	C	1.058923	0.553331	-0.019831
C92	C	1.058911	0.553342	0.314334
C93	C	1.126064	0.457209	0.405485
C94	C	1.118528	0.409123	0.513007
C95	C	1.043832	0.457185	0.529379
C96	C	0.976681	0.553323	0.438229
C97	C	0.345489	1.457110	-0.418688
C98	C	0.278336	1.553273	-0.509838
C99	C	0.285873	1.601364	-0.617361
C100	C	0.360569	1.553296	-0.633733
C101	C	0.427720	1.457142	-0.542583
C102	C	0.427739	1.457102	0.027108
C103	C	0.360599	1.553260	0.032096
C104	C	0.285898	1.601347	-0.021227
C105	C	0.278338	1.553281	-0.079551
C106	C	0.345477	1.457132	-0.084544
C107	C	0.743284	0.553314	0.455569
C108	C	0.743270	0.457172	0.551717
C109	C	0.661018	0.457192	0.440058
C110	C	0.661028	0.553339	0.343912
C111	C	0.790775	0.553297	0.520035
C112	C	0.790760	0.457155	0.616183
H113	H	0.596727	0.568976	-0.195389
C114	C	0.121923	1.005202	0.091498
H115	H	0.092302	1.005214	0.143282
H116	H	0.174419	0.929871	0.128726
H117	H	0.121818	1.080536	0.057301
C118	C	1.035471	0.404354	-0.200635
H119	H	0.981365	0.446748	-0.231652
H120	H	1.059947	0.420118	-0.258186
H121	H	1.059952	0.313577	-0.151628
C122	C	1.192349	0.303375	-0.088671
H123	H	1.177139	0.281640	-0.131038
H124	H	1.222738	0.334872	-0.122452
H125	H	1.222719	0.228347	-0.015912
C126	C	0.580036	0.780997	-0.217941
H127	H	0.588335	0.833245	-0.206631
H128	H	0.582444	0.799474	-0.290007
H129	H	0.529846	0.799392	-0.210732
H130	H	1.186893	0.418031	0.018571
C131	C	0.121917	1.005233	-0.258243
H132	H	0.092305	1.005226	-0.305629
H133	H	0.121814	1.080560	-0.299360
H134	H	0.174417	0.929896	-0.227938
C135	C	1.208220	0.404317	0.387463
H136	H	1.247139	0.340175	0.457141
H137	H	1.214084	0.366810	0.347082
H138	H	1.214125	0.473334	0.347058
C139	C	0.904993	0.192717	0.100957
H140	H	0.905015	0.127444	0.100973
H141	H	0.909818	0.245224	0.032174
H142	H	0.947945	0.152977	0.159277
H143	H	0.776800	0.791584	-0.538114
C144	C	1.067251	0.606163	0.044346
H145	H	1.121357	0.563741	0.075390
H146	H	1.042775	0.696935	-0.004633
H147	H	1.042771	0.590378	0.101897
H148	H	-0.009513	1.005237	-0.224682
C149	C	0.531483	1.315954	-0.606491
H150	H	0.534284	1.314014	-0.540567
H151	H	0.496128	1.403134	-0.667608
H152	H	0.513376	1.265869	-0.600235
C153	C	0.423496	1.005219	-0.206322
H154	H	0.393883	1.005207	-0.253703
H155	H	0.423396	1.080543	-0.247447
H156	H	0.475995	0.929878	-0.176011
C157	C	0.755102	0.674893	0.522698
H158	H	0.740416	0.659662	0.589034
H159	H	0.792819	0.693380	0.519900
H160	H	0.710049	0.746655	0.460806
H161	H	0.815793	0.218104	0.195271
H162	H	0.627537	0.592494	0.259318
H163	H	-0.009500	1.005216	0.077474
C164	C	0.788553	0.757949	-0.333989
H165	H	0.813036	0.687819	-0.343143
H166	H	0.827463	0.753064	-0.296933
H167	H	0.753057	0.753049	-0.291390
H168	H	1.065062	0.592479	0.226791
C169	C	0.282476	1.005234	-0.195841
H170	H	0.312085	1.005253	-0.247642
H171	H	0.282578	0.929908	-0.161653
H172	H	0.229976	1.080573	-0.233063
H173	H	0.292081	1.005195	0.129393
C174	C	0.899611	0.374035	0.089857
H175	H	0.897124	0.440593	0.090806
H176	H	0.946152	0.292261	0.143065
H177	H	0.900045	0.389318	0.018371
C178	C	0.894529	0.606156	0.456253
H179	H	0.899665	0.563732	0.533346
H180	H	0.866615	0.696927	0.423274
H181	H	0.866628	0.590373	0.423278
C182	C	1.192398	0.303364	0.613262
H183	H	1.237957	0.281629	0.588101
H184	H	1.192417	0.334861	0.656768
H185	H	1.192403	0.228336	0.656754
H186	H	0.339338	1.417960	-0.331145
H187	H	0.853630	0.367137	0.663708
H188	H	0.366696	1.592464	-0.721289
H189	H	0.231188	1.679659	-0.691572
H190	H	0.366770	1.592379	0.079593
C191	C	0.509901	1.404221	0.085770
H192	H	0.504778	1.446636	0.121203
H193	H	0.537800	1.313452	0.139417
H194	H	0.537810	1.419983	0.032870
H195	H	0.644944	1.301123	-0.773791
C196	C	0.819645	0.359355	0.229420
H197	H	0.816439	0.288085	0.275277
H198	H	0.864196	0.344381	0.264811
H199	H	0.773452	0.436586	0.216959
C200	C	1.035552	0.404271	0.647656
H201	H	1.086246	0.340122	0.699587
H202	H	1.007657	0.473272	0.658189
H203	H	1.007657	0.366740	0.658167
H204	H	0.413913	1.005196	0.120337
C205	C	0.212052	1.707106	-0.015722
H206	H	0.227261	1.728828	0.026657
H207	H	0.181675	1.782129	-0.088472
H208	H	0.181670	1.675589	0.018073
C209	C	0.196165	1.606177	-0.138191
H210	H	0.157268	1.670311	-0.126846
H211	H	0.190262	1.643692	-0.215217
H212	H	0.190264	1.537153	-0.108661
H213	H	0.640023	1.311152	-0.626375
C214	C	0.196182	1.606119	-0.491811
H215	H	0.201317	1.563685	-0.414718
H216	H	0.168278	1.696887	-0.524776
H217	H	0.168272	1.590360	-0.524800
C218	C	0.337150	1.404257	-0.148680
H219	H	0.283043	1.446663	-0.179707
H220	H	0.361634	1.420001	-0.206222
H221	H	0.361620	1.313484	-0.099666
C222	C	0.615771	0.404332	0.431524
H223	H	0.591279	0.446746	0.355874
H224	H	0.651251	0.313561	0.463945
H225	H	0.576853	0.420105	0.469474
C226	C	0.748436	0.505954	0.688120
H227	H	0.729603	0.594210	0.653628
H228	H	0.705499	0.498839	0.696145
H229	H	0.784098	0.454926	0.758963
H230	H	0.488532	1.418009	-0.555928
C231	C	0.894497	0.606233	-0.190131
H232	H	0.855587	0.670366	-0.178796
H233	H	0.888611	0.643747	-0.267154
H234	H	0.888602	0.537204	-0.160617
H235	H	0.550736	1.311131	-0.768060
H236	H	0.851569	0.517166	0.506787
