data_functionalizedCrystal
_audit_creation_method	'MofGen! by Chris Wilmer'
_symmetry_space_group_name_H-M	'P1'
_symmetry_Int_Tables_number	1
_symmetry_cell_setting	triclinic
loop_
_symmetry_equiv_pos_as_xyz
  x,y,z
_cell_length_a	10.967953
_cell_length_b	10.723024
_cell_length_c	9.798715
_cell_angle_alpha	90.001978
_cell_angle_beta	77.868449
_cell_angle_gamma	95.409197
loop_
_atom_site_label
_atom_site_type_symbol
_atom_site_fract_x
_atom_site_fract_y
_atom_site_fract_z
O1	O	1.657191	-0.175008	-0.503199
O2	O	2.157191	0.324992	-0.003199
O3	O	1.294038	-0.191765	-0.417801
O4	O	1.794038	0.308235	0.082199
O5	O	1.483991	-0.001810	-0.462465
O6	O	1.983991	0.498190	0.037535
O7	O	1.467237	-0.364962	-0.458535
O8	O	1.967237	0.135038	0.041465
O9	O	1.483977	-0.001809	-0.235479
O10	O	1.983977	0.498191	0.264521
O11	O	1.294023	-0.191764	-0.190815
O12	O	1.794023	0.308236	0.309185
O13	O	1.657176	-0.175007	-0.276213
O14	O	2.157176	0.324993	0.223787
Zn15	Zn	1.475598	-0.183386	-0.197475
Zn16	Zn	1.975598	0.316614	0.302525
Zn17	Zn	1.475616	-0.183386	-0.496539
Zn18	Zn	1.975616	0.316614	0.003461
O19	O	1.467223	-0.364962	-0.231549
O20	O	1.967223	0.135038	0.268451
C21	C	1.247531	-0.190546	-0.293373
C22	C	1.747531	0.309454	0.206627
C23	C	1.108976	-0.186899	-0.260791
C24	C	1.608976	0.313101	0.239209
C25	C	1.482765	0.044690	-0.348687
C26	C	1.982765	0.544690	0.151313
C27	C	1.479117	0.183244	-0.347834
C28	C	1.979117	0.683244	0.152166
C29	C	1.703683	-0.176226	-0.400644
C30	C	2.203683	0.323774	0.099356
C31	C	1.842238	-0.179872	-0.433235
C32	C	2.342238	0.320128	0.066765
C33	C	2.047207	-0.185272	-0.363846
C34	C	2.547207	0.314728	0.136154
C35	C	1.904004	-0.181499	-0.330165
C36	C	2.404004	0.318501	0.169835
C37	C	1.468450	-0.411462	-0.345330
C38	C	1.968450	0.088538	0.154670
C39	C	1.472097	-0.550016	-0.346192
C40	C	1.972097	-0.050016	0.153808
N41	N	1.475594	-0.183384	0.006625
N42	N	1.975594	0.316616	0.506625
C43	C	1.585405	0.258228	-0.372830
C44	C	2.085405	0.758228	0.127170
C45	C	1.581637	0.401431	-0.371949
C46	C	2.081637	0.901431	0.128051
N47	N	1.475630	-0.183378	-0.700641
N48	N	1.975630	0.316622	-0.200641
C49	C	1.555350	-0.103276	0.055649
C50	C	2.055350	0.396724	0.555649
C51	C	1.555370	-0.103272	0.212807
C52	C	2.055370	0.396728	0.712807
H53	H	2.100340	-0.186679	-0.477009
H54	H	2.600340	0.313321	0.022991
H55	H	1.679191	0.216407	-0.394876
H56	H	2.179191	0.716407	0.105124
Cl57	Cl	1.331601	0.350517	-0.313140
Cl58	Cl	1.831601	0.850517	0.186860
H59	H	1.672628	0.465865	-0.393342
H60	H	2.172628	0.965865	0.106658
Cl61	Cl	1.370205	-0.289281	0.234174
Cl62	Cl	1.870205	0.210719	0.734174
H63	H	1.385331	0.225065	-0.325788
H64	H	1.885331	0.725065	0.174212
Cl65	Cl	1.370182	-0.289266	0.121450
Cl66	Cl	1.870182	0.210734	0.621450
H67	H	1.850874	-0.180107	-0.216995
H68	H	2.350874	0.319893	0.283005
H69	H	1.623657	-0.034692	0.255036
H70	H	2.123657	0.465308	0.755036
Cl71	Cl	1.924252	-0.182051	-0.607965
Cl72	Cl	2.424252	0.317949	-0.107965
H73	H	1.623614	-0.034690	-0.018725
H74	H	2.123614	0.465310	0.481275
H75	H	2.055841	-0.185506	-0.147628
H76	H	2.555841	0.314494	0.352372
