data_functionalizedCrystal
_audit_creation_method	'MofGen! by Chris Wilmer'
_symmetry_space_group_name_H-M	'P1'
_symmetry_Int_Tables_number	1
_symmetry_cell_setting	triclinic
loop_
_symmetry_equiv_pos_as_xyz
  x,y,z
_cell_length_a	13.262533
_cell_length_b	16.109301
_cell_length_c	15.186229
_cell_angle_alpha	90.005167
_cell_angle_beta	105.913449
_cell_angle_gamma	96.030687
loop_
_atom_site_label
_atom_site_type_symbol
_atom_site_fract_x
_atom_site_fract_y
_atom_site_fract_z
O1	O	1.392587	-0.112000	0.260296
O2	O	1.087009	-0.124173	0.187107
O3	O	1.248193	0.002913	0.225721
O4	O	1.231404	-0.239087	0.221682
O5	O	1.248182	0.002915	0.372176
O6	O	1.086998	-0.124171	0.333562
O7	O	1.392576	-0.111999	0.406751
Zn8	Zn	1.239786	-0.118085	0.393409
Zn9	Zn	1.239800	-0.118087	0.200449
O10	O	1.231393	-0.239085	0.368137
C11	C	1.047901	-0.123489	0.250969
C12	C	0.931388	-0.121445	0.223064
C13	C	0.602924	-0.115688	0.463733
C14	C	0.712394	-0.117613	0.489956
C15	C	0.767148	-0.118571	0.423235
C16	C	0.712422	-0.117604	0.330287
C17	C	0.602941	-0.115685	0.304061
C18	C	0.767164	-0.118568	0.263563
C19	C	0.712438	-0.117601	0.170615
C20	C	0.602968	-0.115682	0.144394
C21	C	0.548214	-0.114724	0.211115
C22	C	0.876645	-0.120487	0.289789
C23	C	0.876661	-0.120483	0.130117
C24	C	0.767192	-0.118558	0.103894
C25	C	1.247507	0.033892	0.298786
C26	C	1.245468	0.126194	0.298299
C27	C	1.431684	-0.112682	0.342887
C28	C	1.548197	-0.114727	0.370786
C29	C	1.232078	-0.270063	0.295070
C30	C	1.234117	-0.362366	0.295551
N31	N	1.239784	-0.118082	0.525101
C32	C	1.336370	0.348132	0.320057
C33	C	1.334446	0.434859	0.319589
C34	C	1.143208	0.415690	0.273789
C35	C	1.145133	0.328964	0.274251
C36	C	1.241717	0.295188	0.297390
C37	C	1.237868	0.468641	0.296460
C38	C	1.235781	0.562675	0.295952
C39	C	1.243805	0.201148	0.297896
N40	N	1.239810	-0.118083	0.068759
C41	C	1.311180	-0.061828	0.767928
C42	C	1.311183	-0.061826	0.860119
C43	C	1.168406	-0.174340	0.825923
C44	C	1.168399	-0.174337	0.733734
C45	C	1.239791	-0.118082	0.704740
C46	C	1.239802	-0.118083	0.889120
C47	C	1.239805	-0.118081	0.989077
C48	C	1.239787	-0.118083	0.604776
H49	H	0.921192	-0.121276	0.365468
O50	O	1.043032	0.271858	0.249807
H51	H	1.039331	0.231887	0.189223
H52	H	0.722618	-0.117772	0.028214
O53	O	1.091417	-0.235024	0.857197
H54	H	1.103423	-0.225583	0.931920
H55	H	1.369311	-0.016020	0.744324
O56	O	1.388193	-0.001162	0.928278
H57	H	1.437840	0.037946	0.892627
H58	H	0.756944	-0.118400	0.565634
H59	H	0.558333	-0.114915	0.518046
H60	H	1.415016	0.320634	0.338896
H61	H	0.856283	-0.120139	0.444591
O62	O	1.091401	-0.235017	0.665570
H63	H	1.041770	-0.274144	0.701220
H64	H	1.411523	0.477963	0.338045
H65	H	0.558411	-0.114903	0.068709
H66	H	0.921241	-0.121266	0.075787
H67	H	0.459076	-0.113149	0.189769
H68	H	1.064572	0.443202	0.254951
