data_functionalizedCrystal
_audit_creation_method	'MofGen! by Chris Wilmer'
_symmetry_space_group_name_H-M	'P1'
_symmetry_Int_Tables_number	1
_symmetry_cell_setting	triclinic
loop_
_symmetry_equiv_pos_as_xyz
  x,y,z
_cell_length_a	9.065218
_cell_length_b	10.868271
_cell_length_c	9.065218
_cell_angle_alpha	90.003285
_cell_angle_beta	85.015885
_cell_angle_gamma	90.004378
loop_
_atom_site_label
_atom_site_type_symbol
_atom_site_fract_x
_atom_site_fract_y
_atom_site_fract_z
O1	O	1.960401	0.102320	0.216358
O2	O	1.531116	0.102321	0.234104
O3	O	1.754632	0.102318	0.010589
O4	O	1.736885	0.102323	0.439873
O5	O	1.754613	-0.102327	0.010580
O6	O	1.531098	-0.102323	0.234095
O7	O	1.960382	-0.102325	0.216349
Zn8	Zn	1.745737	-0.134816	0.225221
Zn9	Zn	1.745762	0.134812	0.225232
O10	O	1.736867	-0.102322	0.439864
C11	C	1.476120	-0.000001	0.232394
C12	C	1.312277	-0.000000	0.227294
N13	N	1.745731	-0.318830	0.225212
C14	C	1.745754	-0.569836	0.225229
C15	C	1.745736	-0.430158	0.225224
C16	C	2.015378	0.000000	0.218059
C17	C	2.179221	0.000008	0.223158
C18	C	1.752917	-0.000002	-0.044403
C19	C	1.747817	0.000004	-0.208245
N20	N	1.745779	0.318826	0.225230
C21	C	1.738582	0.000001	0.494855
C22	C	1.743681	0.000004	0.658698
