data_functionalizedCrystal
_audit_creation_method	'MofGen! by Chris Wilmer'
_symmetry_space_group_name_H-M	'P1'
_symmetry_Int_Tables_number	1
_symmetry_cell_setting	triclinic
loop_
_symmetry_equiv_pos_as_xyz
  x,y,z
_cell_length_a	17.640280
_cell_length_b	17.077404
_cell_length_c	17.077396
_cell_angle_alpha	90.019501
_cell_angle_beta	78.774396
_cell_angle_gamma	101.199462
loop_
_atom_site_label
_atom_site_type_symbol
_atom_site_fract_x
_atom_site_fract_y
_atom_site_fract_z
Zn1	Zn	-0.314659	-1.263288	-0.380745
Zn2	Zn	0.185341	-0.763288	0.119255
Zn3	Zn	-0.446839	-1.289758	-0.222973
Zn4	Zn	0.053161	-0.789758	0.277027
Zn5	Zn	-0.314687	-1.132026	-0.249487
Zn6	Zn	0.185313	-0.632026	0.250513
Zn7	Zn	-0.446792	-1.158541	-0.354206
Zn8	Zn	0.053208	-0.658541	0.145794
O9	O	-0.380744	-1.210903	-0.301853
O10	O	0.119256	-0.710903	0.198147
O11	O	-0.332201	-1.376648	-0.359827
O12	O	0.167799	-0.876648	0.140173
O13	O	-0.429340	-1.268815	-0.116637
O14	O	0.070660	-0.768815	0.383363
O15	O	-0.204078	-1.127263	-0.289102
O16	O	0.295922	-0.627263	0.210898
O17	O	-0.429313	-1.396095	-0.243912
O18	O	0.070687	-0.896095	0.256088
O19	O	-0.204058	-1.223701	-0.385536
O20	O	0.295942	-0.723701	0.114464
O21	O	-0.332248	-1.152930	-0.136117
O22	O	0.167752	-0.652930	0.363883
O23	O	-0.332203	-1.025694	-0.263368
O24	O	0.167797	-0.525694	0.236632
O25	O	-0.429233	-1.172456	-0.467580
O26	O	0.070767	-0.672456	0.032420
O27	O	-0.429260	-1.045176	-0.340305
O28	O	0.070740	-0.545176	0.159695
O29	O	-0.332155	-1.249413	-0.487078
O30	O	0.167845	-0.749413	0.012922
O31	O	-0.557437	-1.294527	-0.218179
O32	O	-0.057437	-0.794527	0.281821
O33	O	-0.557403	-1.198122	-0.314595
O34	O	-0.057403	-0.698122	0.185405
C35	C	-0.380730	-1.006953	-0.301834
C36	C	0.119270	-0.506953	0.198166
C37	C	-0.380743	-0.919705	-0.301841
C38	C	0.119257	-0.419705	0.198159
C39	C	-0.586099	-1.252095	-0.260647
C40	C	-0.086099	-0.752095	0.239353
C41	C	-0.673950	-1.269789	-0.243045
C42	C	-0.173950	-0.769789	0.256955
C43	C	-0.380686	-1.210939	-0.506609
C44	C	0.119314	-0.710939	-0.006609
C45	C	-0.380661	-1.210954	-0.593864
C46	C	0.119339	-0.710954	-0.093864
C47	C	-0.962931	-1.076806	-0.435857
C48	C	-0.462931	-0.576806	0.064143
C49	C	-1.045481	-1.093434	-0.419293
C50	C	-0.545481	-0.593434	0.080707
C51	C	-1.045451	-1.193882	-0.318996
C52	C	-0.545451	-0.693882	0.181004
C53	C	-0.962900	-1.177265	-0.335555
C54	C	-0.462900	-0.677265	0.164445
C55	C	-0.921646	-1.118726	-0.393986
C56	C	-0.421646	-0.618726	0.106014
C57	C	-0.921615	-1.219185	-0.293683
C58	C	-0.421615	-0.719185	0.206317
C59	C	-0.839070	-1.202567	-0.310238
C60	C	-0.339070	-0.702567	0.189762
C61	C	-0.797811	-1.144029	-0.368665
C62	C	-0.297811	-0.644029	0.131335
C63	C	-0.839101	-1.102108	-0.410541
C64	C	-0.339101	-0.602108	0.089459
C65	C	-0.962870	-1.277721	-0.235249
C66	C	-0.462870	-0.777721	0.264751
C67	C	-0.921585	-1.319640	-0.193377
C68	C	-0.421585	-0.819640	0.306623
C69	C	-0.839039	-1.303026	-0.209936
C70	C	-0.339039	-0.803026	0.290064
C71	C	-0.797780	-1.244488	-0.268362
C72	C	-0.297780	-0.744488	0.231638
C73	C	-0.797748	-1.344947	-0.168060
C74	C	-0.297748	-0.844947	0.331940
C75	C	-0.715204	-1.328329	-0.184615
C76	C	-0.215204	-0.828329	0.315385
C77	C	-0.715235	-1.227870	-0.284917
C78	C	-0.215235	-0.727870	0.215083
C79	C	-0.174588	-1.169572	-0.343237
C80	C	0.325412	-0.669572	0.156763
C81	C	-0.086736	-1.151959	-0.360872
C82	C	0.413264	-0.651959	0.139128
C83	C	-0.380759	-1.415651	-0.301872
C84	C	0.119241	-0.915651	0.198128
C85	C	-0.380765	-1.502902	-0.301880
C86	C	0.119235	-1.002902	0.198120
C87	C	-0.431357	-0.888895	-0.341806
C88	C	0.068643	-0.388895	0.158194
C89	C	-0.431359	-0.806915	-0.341818
C90	C	0.068641	-0.306915	0.158182
C91	C	-0.380750	-0.755747	-0.301860
C92	C	0.119250	-0.255747	0.198140
C93	C	-0.330130	-0.786562	-0.261894
C94	C	0.169870	-0.286562	0.238106
C95	C	-0.330125	-0.868540	-0.261887
C96	C	0.169875	-0.368540	0.238113
C97	C	-0.330146	-0.615696	-0.261910
C98	C	0.169854	-0.115696	0.238090
C99	C	-0.330151	-0.533712	-0.261915
C100	C	0.169849	-0.033712	0.238085
C101	C	-0.431379	-0.554070	-0.341841
C102	C	0.068621	-0.054070	0.158159
C103	C	-0.431374	-0.636048	-0.341834
C104	C	0.068626	-0.136048	0.158166
C105	C	-0.380755	-0.666858	-0.301866
C106	C	0.119245	-0.166858	0.198134
C107	C	-0.330109	-1.251027	-0.645009
C108	C	0.169891	-0.751027	-0.145009
C109	C	-0.330082	-1.251031	-0.726995
C110	C	0.169918	-0.751031	-0.226995
C111	C	-0.380613	-1.210967	-0.757833
C112	C	0.119387	-0.710967	-0.257833
C113	C	-0.431168	-1.170889	-0.706682
C114	C	0.068832	-0.670889	-0.206682
C115	C	-0.431190	-1.170881	-0.624699
C116	C	0.068810	-0.670881	-0.124699
C117	C	-0.431120	-1.170911	-0.877562
C118	C	0.068880	-0.670911	-0.377562
C119	C	-0.431100	-1.170921	-0.959550
C120	C	0.068900	-0.670921	-0.459550
C121	C	-0.330013	-1.251062	-0.979858
C122	C	0.169987	-0.751062	-0.479858
C123	C	-0.330035	-1.251053	-0.897874
C124	C	0.169965	-0.751053	-0.397874
C125	C	-0.380591	-1.210977	-0.846729
C126	C	0.119409	-0.710977	-0.346729
C127	C	-0.380745	-1.210901	-0.097905
C128	C	0.119255	-0.710901	0.402095
C129	C	-0.380547	-1.210993	-0.010695
C130	C	0.119453	-0.710993	0.489305
H131	H	-0.681645	-1.180207	-0.332503
H132	H	-0.181645	-0.680207	0.167497
H133	H	-0.472245	-1.138295	-0.984656
H134	H	0.027755	-0.638295	-0.484656
C135	C	-0.669788	-1.374449	-0.138560
C136	C	-0.169788	-0.874449	0.361440
N137	N	-0.635581	-1.409189	-0.103871
N138	N	-0.135581	-0.909189	0.396129
H139	H	-0.730598	-1.130494	-0.382137
H140	H	-0.230598	-0.630494	0.117863
H141	H	-0.288919	-1.283664	-0.768634
H142	H	0.211081	-0.783664	-0.268634
H143	H	-0.472589	-0.677708	-0.374366
H144	H	0.027411	-0.177708	0.125634
H145	H	-0.288932	-0.492051	-0.229389
H146	H	0.211068	0.007949	0.270611
H147	H	-0.472347	-1.138240	-0.583058
H148	H	0.027653	-0.638240	-0.083058
H149	H	-1.030083	-1.291251	-0.221774
H150	H	-0.530083	-0.791251	0.278226
C151	C	-0.487032	-0.945173	-0.385763
C152	C	0.012968	-0.445173	0.114237
N153	N	-0.528966	-0.987559	-0.418876
N154	N	-0.028966	-0.487559	0.081124
C155	C	-0.274447	-0.902431	-0.217920
C156	C	0.225553	-0.402431	0.282080
N157	N	-0.232508	-0.927956	-0.184805
N158	N	0.267492	-0.427956	0.315195
H159	H	-0.472593	-0.528981	-0.374387
H160	H	0.027407	-0.028981	0.125613
H161	H	-0.472574	-0.781834	-0.374361
H162	H	0.027426	-0.281834	0.125639
H163	H	-0.288963	-1.283655	-0.619907
H164	H	0.211037	-0.783655	-0.119907
C165	C	-0.274457	-0.730275	-0.217942
C166	C	0.225543	-0.230275	0.282058
N167	N	-0.232526	-0.687880	-0.184834
N168	N	0.267474	-0.187880	0.315166
C169	C	-0.274446	-1.295123	-0.863954
C170	C	0.225554	-0.795123	-0.363954
N171	N	-0.232573	-1.328314	-0.838407
N172	N	0.267427	-0.828314	-0.338407
H173	H	-0.955185	-1.367301	-0.145800
H174	H	-0.455185	-0.867301	0.354200
C175	C	-0.793718	-1.037701	-0.474807
C176	C	-0.293718	-0.537701	0.025193
N177	N	-0.759535	-0.989185	-0.523205
N178	N	-0.259535	-0.489185	-0.023205
C179	C	-1.090891	-1.047318	-0.465364
C180	C	-0.590891	-0.547318	0.034636
N181	N	-1.125094	-1.012584	-0.500064
N182	N	-0.625094	-0.512584	-0.000064
C183	C	-0.486738	-1.126828	-0.821302
C184	C	0.013262	-0.626828	-0.321302
N185	N	-0.528632	-1.093630	-0.778927
N186	N	-0.028632	-0.593630	-0.278927
H187	H	-0.929340	-1.029143	-0.483444
H188	H	-0.429340	-0.529143	0.016556
C189	C	-0.274400	-1.295146	-1.036119
C190	C	0.225600	-0.795146	-0.536119
N191	N	-0.232516	-1.328351	-1.078499
N192	N	0.267484	-0.828351	-0.578499
H193	H	-0.831350	-1.392604	-0.120480
H194	H	-0.331350	-0.892604	0.379520
H195	H	-0.472308	-1.138265	-0.731798
H196	H	0.027692	-0.638265	-0.231798
C197	C	-1.090840	-1.258270	-0.254721
C198	C	-0.590840	-0.758270	0.245279
N199	N	-1.125025	-1.306770	-0.206308
N200	N	-0.625025	-0.806770	0.293692
H201	H	-0.288919	-0.640776	-0.229372
H202	H	0.211081	-0.140776	0.270628
