data_functionalizedCrystal
_audit_creation_method	'MofGen! by Chris Wilmer'
_symmetry_space_group_name_H-M	'P1'
_symmetry_Int_Tables_number	1
_symmetry_cell_setting	triclinic
loop_
_symmetry_equiv_pos_as_xyz
  x,y,z
_cell_length_a	6.817900
_cell_length_b	11.353959
_cell_length_c	12.908943
_cell_angle_alpha	105.957120
_cell_angle_beta	100.860631
_cell_angle_gamma	107.526623
loop_
_atom_site_label
_atom_site_type_symbol
_atom_site_fract_x
_atom_site_fract_y
_atom_site_fract_z
V1	V	-4.033109	-0.179109	-0.361558
O2	O	-3.982191	0.010285	-0.320537
O3	O	-4.021429	-0.356757	-0.391917
O4	O	-3.970667	-0.175618	-0.504266
O5	O	-4.033304	-0.172108	-0.207410
V6	V	-4.513799	-0.156542	-0.339132
O7	O	-4.300583	-0.228611	-0.410750
O8	O	-4.696522	-0.107040	-0.289939
O9	O	-4.302273	0.021105	-0.308772
O10	O	-4.682114	-0.345936	-0.380152
O11	O	-4.631001	-0.163543	-0.493279
O12	O	-4.353035	-0.160034	-0.196423
C13	C	-3.875817	-0.400087	-0.394685
C14	C	-3.947460	-0.545311	-0.420459
C15	C	-3.811064	-0.169024	-0.537996
C16	C	-3.841537	-0.167345	-0.654877
C17	C	-3.946121	-0.592784	-0.337035
C18	C	-4.020167	-0.742881	-0.363672
C19	C	-4.264729	-0.177153	-0.887624
C20	C	-4.293371	-0.175576	-0.997444
C21	C	-3.927460	-0.162605	-0.984337
C22	C	-3.898818	-0.164182	-0.874517
C23	C	-4.067462	-0.171458	-0.826165
C24	C	-4.038823	-0.173044	-0.716345
C25	C	-3.672909	-0.160063	-0.703238
C26	C	-3.701551	-0.158486	-0.813058
C27	C	-4.111229	0.064428	-0.306003
C28	C	-4.018823	0.209652	-0.280236
C29	C	-4.175981	-0.166632	-0.162689
C30	C	-4.124746	-0.168304	-0.045806
H31	H	-3.890169	-0.522307	-0.245894
O32	O	-3.745357	-0.154536	-1.036346
H33	H	-3.699319	-0.241034	-1.039782
H34	H	-4.076138	-0.813355	-0.454820
O35	O	-4.220709	-0.180880	-0.664194
H36	H	-4.263881	-0.271309	-0.642148
O37	O	-3.944673	-0.697003	-0.159498
H38	H	-3.803934	-0.709456	-0.111379
H39	H	-4.402054	-0.183092	-0.848260
O40	O	-4.021592	-0.638650	-0.541194
H41	H	-4.068109	-0.741894	-0.543168
O42	O	-4.506138	-0.181710	-1.063727
H43	H	-4.575382	-0.270688	-1.141748
O44	O	-3.460115	-0.153908	-0.636948
H45	H	-3.468518	-0.156217	-0.552456
H46	H	-3.564251	-0.152557	-0.852440
