data_functionalizedCrystal
_audit_creation_method	'MofGen! by Chris Wilmer'
_symmetry_space_group_name_H-M	'P1'
_symmetry_Int_Tables_number	1
_symmetry_cell_setting	triclinic
loop_
_symmetry_equiv_pos_as_xyz
  x,y,z
_cell_length_a	10.723024
_cell_length_b	9.730223
_cell_length_c	10.723024
_cell_angle_alpha	90.000190
_cell_angle_beta	84.467869
_cell_angle_gamma	89.999921
loop_
_atom_site_label
_atom_site_type_symbol
_atom_site_fract_x
_atom_site_fract_y
_atom_site_fract_z
O1	O	1.657181	0.114277	0.175022
O2	O	1.294029	0.114282	0.191775
O3	O	1.483982	0.114274	0.001822
O4	O	1.467228	0.114285	0.364975
O5	O	1.483980	-0.114306	0.001827
O6	O	1.294027	-0.114298	0.191780
O7	O	1.657179	-0.114303	0.175027
Zn8	Zn	1.475603	-0.150593	0.183404
Zn9	Zn	1.475605	0.150571	0.183398
O10	O	1.467226	-0.114295	0.364979
C11	C	1.247528	-0.000008	0.190558
C12	C	1.108974	-0.000006	0.186911
N13	N	1.475610	-0.356129	0.183408
C14	C	1.033991	-0.000002	0.293198
C15	C	0.890788	-0.000001	0.289431
C16	C	1.559743	-0.428058	0.099325
C17	C	1.559739	-0.571941	0.099310
C18	C	1.391466	-0.571953	0.267471
C19	C	1.391464	-0.428073	0.267479
C20	C	1.643888	-0.356115	0.015254
C21	C	1.728029	-0.428044	-0.068834
C22	C	1.728025	-0.571927	-0.068849
C23	C	1.643881	-0.643881	0.015224
C24	C	1.703680	-0.000010	0.176243
C25	C	1.842234	-0.000003	0.179891
C26	C	1.482762	-0.000014	-0.044675
C27	C	1.479114	-0.000009	-0.183229
N28	N	1.475608	0.356108	0.183384
C29	C	1.585401	-0.000009	-0.258212
C30	C	1.581634	-0.000004	-0.401415
C31	C	1.468447	-0.000004	0.411477
C32	C	1.472094	0.000000	0.550031
H33	H	1.075814	-0.000007	0.386984
N34	N	1.351556	0.000011	-0.364637
H35	H	1.277938	0.000016	-0.416722
H36	H	1.348096	-0.084728	-0.310022
H37	H	1.385328	0.000001	-0.225051
N38	N	1.300729	-0.350484	0.358174
H39	H	1.313494	-0.248421	0.345416
H40	H	1.212084	-0.375633	0.342942
N41	N	0.927573	-0.000014	0.059357
H42	H	0.911059	-0.084752	0.009092
H43	H	0.911025	0.084773	0.009180
N44	N	1.053582	-0.000022	0.062678
H45	H	1.000171	0.084711	0.056261
H46	H	1.123361	-0.000079	-0.007666
N47	N	1.709640	-0.000027	-0.202831
H48	H	1.694721	-0.000037	-0.108381
H49	H	1.758644	-0.084772	-0.231605
N50	N	1.300716	-0.649552	0.358144
H51	H	1.313486	-0.751615	0.345381
H52	H	1.315881	-0.624409	0.446808
H53	H	1.643901	-0.238958	0.015261
H54	H	1.796529	-0.369452	-0.137291
H55	H	1.796527	-0.630491	-0.137325
N56	N	0.805453	0.000016	0.409967
H57	H	0.715250	0.000019	0.390190
H58	H	0.822069	-0.084720	0.460185
N59	N	1.702165	-0.000015	-0.486759
H60	H	1.705739	0.084720	-0.541390
H61	H	1.775716	-0.000072	-0.434591
H62	H	1.643877	-0.761040	0.015196
