data_functionalizedCrystal
_audit_creation_method	'MofGen! by Chris Wilmer'
_symmetry_space_group_name_H-M	'P1'
_symmetry_Int_Tables_number	1
_symmetry_cell_setting	triclinic
loop_
_symmetry_equiv_pos_as_xyz
  x,y,z
_cell_length_a	10.489763
_cell_length_b	15.186229
_cell_length_c	10.489746
_cell_angle_alpha	89.999432
_cell_angle_beta	84.544831
_cell_angle_gamma	89.996253
loop_
_atom_site_label
_atom_site_type_symbol
_atom_site_fract_x
_atom_site_fract_y
_atom_site_fract_z
O1	O	-1.694043	0.073191	-0.180095
O2	O	-1.322852	0.073201	-0.196958
O3	O	-1.516890	0.073189	-0.002930
O4	O	-1.500005	0.073203	-0.374124
O5	O	-1.516868	-0.073268	-0.002941
O6	O	-1.322829	-0.073256	-0.196969
O7	O	-1.694021	-0.073266	-0.180106
Zn8	Zn	-1.508421	-0.096514	-0.188540
Zn9	Zn	-1.508451	0.096449	-0.188525
O10	O	-1.499982	-0.073254	-0.374135
C11	C	-1.275309	-0.000026	-0.195684
C12	C	-1.133681	-0.000022	-0.191855
C13	C	-1.065539	-0.000036	-0.068386
C14	C	-0.973426	0.072175	-0.126696
C15	C	-0.973437	-0.072221	-0.126736
C16	C	-1.043433	0.072248	-0.250217
C17	C	-1.043454	-0.072212	-0.250240
C18	C	-0.951368	0.000016	-0.308640
N19	N	-1.508410	-0.228207	-0.188549
C20	C	-1.586506	-0.453929	-0.266657
C21	C	-1.586520	-0.546119	-0.266648
C22	C	-1.430373	-0.546129	-0.110389
C23	C	-1.430367	-0.453941	-0.110392
C24	C	-1.508431	-0.407844	-0.188533
C25	C	-1.508451	-0.592221	-0.188521
C26	C	-1.508466	-0.692177	-0.188511
C27	C	-1.508419	-0.307881	-0.188542
C28	C	-0.741566	-0.000039	-0.181360
C29	C	-0.883201	-0.000044	-0.185129
C30	C	-1.515602	-0.000039	0.044596
C31	C	-1.511782	-0.000038	0.186226
N32	N	-1.508472	0.228142	-0.188506
C33	C	-1.501270	-0.000024	-0.421661
C34	C	-1.505090	-0.000019	-0.563290
C35	C	-1.386060	-0.000024	0.339093
C36	C	-1.448927	0.072184	0.261702
C37	C	-1.448934	-0.072212	0.261732
C38	C	-1.567908	0.072248	0.361184
C39	C	-1.567897	-0.072212	0.361219
C40	C	-1.630852	0.000013	0.283877
H41	H	-1.115226	0.000051	0.033106
C42	C	-1.758120	-0.350238	-0.276315
C43	C	-1.672319	-0.403254	-0.352538
H44	H	-1.811094	-0.318952	-0.329338
H45	H	-1.809847	-0.386197	-0.218134
H46	H	-1.711605	-0.309599	-0.229796
H47	H	-1.718835	-0.443898	-0.399050
H48	H	-1.620587	-0.367292	-0.410742
H49	H	-1.074271	0.133366	-0.302415
C50	C	-0.869176	-0.129039	0.050043
C51	C	-0.931602	-0.154638	-0.056196
H52	H	-0.843360	-0.179918	0.093601
H53	H	-0.795972	-0.094822	0.022251
H54	H	-0.925872	-0.095028	0.106340
H55	H	-0.874903	-0.188645	-0.112497
H56	H	-1.004817	-0.188870	-0.028404
C57	C	-1.740846	-0.536842	-0.421115
C58	C	-1.672336	-0.596776	-0.352530
H59	H	-1.793822	-0.568117	-0.474141
H60	H	-1.792571	-0.500882	-0.362928
H61	H	-1.682604	-0.500890	-0.472805
H62	H	-1.730578	-0.632724	-0.300832
H63	H	-1.620607	-0.632751	-0.410724
C64	C	-1.334643	-0.205067	0.300423
C65	C	-1.381084	-0.154635	0.203097
H66	H	-1.292760	-0.255953	0.264228
H67	H	-1.275679	-0.171055	0.343072
H68	H	-1.404002	-0.222408	0.359964
H69	H	-1.311724	-0.137289	0.143560
H70	H	-1.440053	-0.188654	0.160428
H71	H	-1.282559	0.000051	0.363821
C72	C	-1.360960	-0.687451	-0.041078
C73	C	-1.344553	-0.596800	-0.024511
H74	H	-1.307967	-0.718728	0.011935
H75	H	-1.447999	-0.702585	-0.018270
H76	H	-1.338019	-0.702517	-0.128133
H77	H	-1.367503	-0.581733	0.062544
H78	H	-1.257495	-0.581660	-0.047311
H79	H	-1.366788	-0.416418	-0.046768
H80	H	-1.398689	0.133234	0.218235
H81	H	-1.618091	-0.133265	0.404709
H82	H	-0.942420	0.133221	-0.074449
C83	C	-0.919962	0.075744	-0.510107
C84	C	-0.884634	0.000070	-0.445788
H85	H	-0.878755	0.075782	-0.594771
H86	H	-1.010151	0.076227	-0.513273
H87	H	-0.894918	0.126546	-0.465904
H88	H	-0.909687	-0.050732	-0.489986
H89	H	-0.794426	-0.000421	-0.442628
C90	C	-1.050425	-0.230177	-0.255880
C91	C	-1.085376	-0.154624	-0.320710
H92	H	-1.076318	-0.281058	-0.299374
H93	H	-0.960170	-0.231067	-0.253286
H94	H	-1.091103	-0.229650	-0.171015
H95	H	-1.044689	-0.155148	-0.405572
H96	H	-1.175648	-0.153734	-0.323318
H97	H	-1.618131	0.133364	0.404465
H98	H	-1.734431	0.000050	0.259393
