data_functionalizedCrystal
_audit_creation_method	'MofGen! by Chris Wilmer'
_symmetry_space_group_name_H-M	'P1'
_symmetry_Int_Tables_number	1
_symmetry_cell_setting	triclinic
loop_
_symmetry_equiv_pos_as_xyz
  x,y,z
_cell_length_a	16.109302
_cell_length_b	16.109301
_cell_length_c	15.186229
_cell_angle_alpha	90.005167
_cell_angle_beta	89.994701
_cell_angle_gamma	96.538369
loop_
_atom_site_label
_atom_site_type_symbol
_atom_site_fract_x
_atom_site_fract_y
_atom_site_fract_z
O1	O	1.103130	-0.106869	-0.073271
O2	O	1.436464	0.226464	0.260062
O3	O	1.769797	0.559798	0.593396
O4	O	0.861068	-0.120168	-0.073264
O5	O	1.194402	0.213166	0.260069
O6	O	1.527735	0.546499	0.593402
O7	O	0.988749	0.007513	-0.073259
O8	O	1.322082	0.340846	0.260074
O9	O	1.655416	0.674179	0.593408
O10	O	0.975450	-0.234549	-0.073276
O11	O	1.308783	0.098784	0.260057
O12	O	1.642116	0.432117	0.593390
O13	O	0.988740	0.007514	0.073198
O14	O	1.322074	0.340848	0.406532
O15	O	1.655407	0.674181	0.739865
O16	O	0.861060	-0.120166	0.073193
O17	O	1.194393	0.213167	0.406526
O18	O	1.527727	0.546501	0.739860
O19	O	1.103122	-0.106867	0.073186
O20	O	1.436455	0.226466	0.406520
O21	O	1.769788	0.559800	0.739853
Zn22	Zn	0.982089	-0.113516	0.096443
Zn23	Zn	1.315423	0.219817	0.429776
Zn24	Zn	1.648756	0.553150	0.763110
Zn25	Zn	0.982101	-0.113519	-0.096521
Zn26	Zn	1.315434	0.219815	0.236812
Zn27	Zn	1.648767	0.553148	0.570146
O28	O	0.975441	-0.234547	0.073181
O29	O	1.308774	0.098786	0.406514
O30	O	1.642108	0.432119	0.739848
C31	C	0.830089	-0.119628	-0.000035
C32	C	1.163423	0.213705	0.333299
C33	C	1.496756	0.547039	0.666632
C34	C	0.737794	-0.118013	-0.000032
C35	C	1.071127	0.215321	0.333301
C36	C	1.404461	0.548654	0.666635
C37	C	0.525448	-0.114276	0.079793
C38	C	0.858782	0.219057	0.413127
C39	C	1.192115	0.552390	0.746460
C40	C	0.438728	-0.112750	0.079790
C41	C	0.772062	0.220584	0.413124
C42	C	1.105395	0.553917	0.746457
C43	C	0.438748	-0.112756	-0.079885
C44	C	0.772081	0.220577	0.253448
C45	C	1.105415	0.553911	0.586781
C46	C	0.525467	-0.114277	-0.079881
C47	C	0.858801	0.219057	0.253452
C48	C	1.192134	0.552390	0.586785
C49	C	0.568815	-0.115041	-0.000039
C50	C	0.902148	0.218292	0.333294
C51	C	1.235481	0.551626	0.666627
C52	C	0.395375	-0.111994	-0.000046
C53	C	0.728709	0.221340	0.333287
C54	C	1.062042	0.554673	0.666620
C55	C	0.301350	-0.110338	-0.000050
C56	C	0.634683	0.222995	0.333283
C57	C	0.968016	0.556328	0.666617
C58	C	0.662847	-0.116695	-0.000035
C59	C	0.996180	0.216638	0.333298
C60	C	1.329513	0.549972	0.666631
C61	C	0.988206	0.038488	-0.000030
C62	C	1.321539	0.371822	0.333304
C63	C	1.654873	0.705155	0.666637
C64	C	0.986591	0.130784	-0.000028
C65	C	1.319924	0.464117	0.333305
C66	C	1.653258	0.797450	0.666638
C67	C	1.134101	-0.107407	-0.000045
C68	C	1.467434	0.225926	0.333288
C69	C	1.800768	0.559260	0.666622
C70	C	1.226396	-0.109022	-0.000054
C71	C	1.559729	0.224311	0.333280
C72	C	1.893063	0.557644	0.666613
N73	N	0.982088	-0.113514	0.228136
N74	N	1.315421	0.219819	0.561469
N75	N	1.648755	0.553153	0.894802
C76	C	0.975984	-0.265523	-0.000050
C77	C	1.309317	0.067810	0.333283
C78	C	1.642651	0.401143	0.666616
C79	C	0.977599	-0.357819	-0.000057
C80	C	1.310933	-0.024485	0.333276
C81	C	1.644266	0.308848	0.666609
C82	C	1.058599	0.353056	-0.000044
C83	C	1.391932	0.686389	0.333289
C84	C	1.725265	1.019723	0.666622
C85	C	1.057074	0.439776	-0.000052
C86	C	1.390408	0.773110	0.333282
C87	C	1.723741	1.106443	0.666615
C88	C	0.905586	0.419902	-0.000044
C89	C	1.238919	0.753236	0.333289
C90	C	1.572252	1.086569	0.666623
C91	C	0.907111	0.333184	-0.000043
C92	C	1.240444	0.666517	0.333290
C93	C	1.573777	0.999850	0.666624
C94	C	0.983620	0.299763	-0.000039
C95	C	1.316953	0.633096	0.333295
C96	C	1.650286	0.966430	0.666628
C97	C	0.980571	0.473202	-0.000047
C98	C	1.313904	0.806535	0.333286
C99	C	1.647237	1.139869	0.666620
C100	C	0.978918	0.567228	-0.000055
C101	C	1.312251	0.900562	0.333279
C102	C	1.645584	1.233895	0.666612
C103	C	0.985273	0.205731	-0.000033
C104	C	1.318606	0.539064	0.333301
C105	C	1.651940	0.872398	0.666634
N106	N	0.982109	-0.113514	-0.228214
N107	N	1.315442	0.219819	0.105120
N108	N	1.648775	0.553153	0.438453
C109	C	1.038644	-0.056996	0.453861
C110	C	1.371977	0.276337	0.787194
C111	C	1.705311	0.609670	1.120528
C112	C	1.038647	-0.056994	0.546051
C113	C	1.371980	0.276339	0.879384
C114	C	1.705313	0.609672	1.212717
C115	C	0.925547	-0.170035	0.546055
C116	C	1.258880	0.163299	0.879388
C117	C	1.592213	0.496632	1.212721
C118	C	0.925541	-0.170032	0.453867
C119	C	1.258874	0.163301	0.787200
C120	C	1.592207	0.496635	1.120533
C121	C	0.982094	-0.113514	0.407772
C122	C	1.315427	0.219820	0.741106
C123	C	1.648761	0.553153	1.074439
C124	C	0.982103	-0.113514	0.592150
C125	C	1.315436	0.219819	0.925483
C126	C	1.648769	0.553152	1.258816
C127	C	0.982105	-0.113513	0.692106
C128	C	1.315438	0.219821	1.025439
C129	C	1.648772	0.553154	1.358773
C130	C	0.982091	-0.113514	0.307810
C131	C	1.315424	0.219819	0.641143
C132	C	1.648757	0.553152	0.974476
H133	H	0.403444	-0.112134	-0.144890
H134	H	0.736777	0.221199	0.188444
H135	H	1.070111	0.554532	0.521777
Cl136	Cl	0.854457	-0.241086	0.604006
Cl137	Cl	1.187791	0.092247	0.937339
Cl138	Cl	1.521124	0.425581	1.270673
H139	H	0.843295	0.447124	-0.000046
H140	H	1.176628	0.780458	0.333288
H141	H	1.509962	1.113791	0.666621
Cl142	Cl	0.854440	-0.241084	0.395921
Cl143	Cl	1.187773	0.092249	0.729254
Cl144	Cl	1.521106	0.425583	1.062588
Cl145	Cl	0.579940	-0.115232	0.180166
Cl146	Cl	0.913273	0.218101	0.513499
Cl147	Cl	1.246607	0.551434	0.846832
Cl148	Cl	1.154781	0.311044	-0.000041
Cl149	Cl	1.488114	0.644378	0.333292
Cl150	Cl	1.821447	0.977711	0.666626
H151	H	0.846050	0.289790	-0.000041
H152	H	1.179383	0.623123	0.333292
H153	H	1.512717	0.956457	0.666625
H154	H	0.403423	-0.112127	0.144798
H155	H	0.736757	0.221206	0.478132
H156	H	1.070090	0.554539	0.811465
Cl157	Cl	0.579990	-0.115232	-0.180251
Cl158	Cl	0.913323	0.218102	0.153082
Cl159	Cl	1.246657	0.551435	0.486415
Cl160	Cl	1.151338	0.506770	-0.000060
Cl161	Cl	1.484672	0.840104	0.333273
Cl162	Cl	1.818005	1.173437	0.666606
H163	H	1.084692	-0.010975	0.416333
H164	H	1.418025	0.322359	0.749666
H165	H	1.751359	0.655692	1.082999
Cl166	Cl	1.109739	0.014061	0.603988
Cl167	Cl	1.443073	0.347394	0.937321
Cl168	Cl	1.776406	0.680728	1.270655
