data_functionalizedCrystal
_audit_creation_method	'MofGen! by Chris Wilmer'
_symmetry_space_group_name_H-M	'P1'
_symmetry_Int_Tables_number	1
_symmetry_cell_setting	triclinic
loop_
_symmetry_equiv_pos_as_xyz
  x,y,z
_cell_length_a	13.032831
_cell_length_b	12.645330
_cell_length_c	13.032268
_cell_angle_alpha	97.151313
_cell_angle_beta	90.886977
_cell_angle_gamma	82.822813
loop_
_atom_site_label
_atom_site_type_symbol
_atom_site_fract_x
_atom_site_fract_y
_atom_site_fract_z
Zn1	Zn	1.498478	-0.715929	-0.780858
Zn2	Zn	1.998478	-0.215929	-0.280858
Zn3	Zn	1.520220	-0.873876	-0.608884
Zn4	Zn	2.020220	-0.373876	-0.108884
Zn5	Zn	1.348336	-0.671644	-0.587098
Zn6	Zn	1.848336	-0.171644	-0.087098
Zn7	Zn	1.326468	-0.868144	-0.759009
Zn8	Zn	1.826468	-0.368144	-0.259009
O9	O	1.423375	-0.782398	-0.683962
O10	O	1.923375	-0.282398	-0.183962
O11	O	1.645282	-0.757814	-0.776307
O12	O	2.145282	-0.257814	-0.276307
O13	O	1.515670	-0.830915	-0.462076
O14	O	2.015670	-0.330915	0.037924
O15	O	1.368306	-0.529182	-0.612827
O16	O	1.868306	-0.029182	-0.112827
O17	O	1.661256	-0.873856	-0.649958
O18	O	2.161256	-0.373856	-0.149958
O19	O	1.478614	-0.561718	-0.755182
O20	O	1.978614	-0.061718	-0.255182
O21	O	1.389388	-0.682336	-0.446071
O22	O	1.889388	-0.182336	0.053929
O23	O	1.201515	-0.676778	-0.591641
O24	O	1.701515	-0.176778	-0.091641
O25	O	1.331034	-0.864087	-0.905824
O26	O	1.831034	-0.364087	-0.405824
O27	O	1.185448	-0.821146	-0.717943
O28	O	1.685448	-0.321146	-0.217943
O29	O	1.457409	-0.752256	-0.921877
O30	O	1.957409	-0.252256	-0.421877
O31	O	1.494465	-1.021452	-0.628771
O32	O	1.994465	-0.521452	-0.128771
O33	O	1.352116	-1.017241	-0.739067
O34	O	1.852116	-0.517241	-0.239067
C35	C	1.156164	-0.743535	-0.650057
C36	C	1.656164	-0.243535	-0.150057
C37	C	1.041847	-0.726938	-0.635577
C38	C	1.541847	-0.226938	-0.135577
C39	C	1.423302	-1.057816	-0.683938
C40	C	1.923302	-0.557816	-0.183938
C41	C	1.423360	-1.175658	-0.683974
C42	C	1.923360	-0.675658	-0.183974
C43	C	0.982971	-0.791061	-0.691519
C44	C	1.482971	-0.291061	-0.191519
C45	C	0.864818	-0.773908	-0.676555
C46	C	1.364818	-0.273908	-0.176555
C47	C	1.334105	-1.340692	-0.753648
C48	C	1.834105	-0.840692	-0.253648
C49	C	1.333733	-1.218045	-0.753341
C50	C	1.833733	-0.718045	-0.253341
C51	C	1.407793	-1.203807	-0.571873
C52	C	1.907793	-0.703807	-0.071873
C53	C	1.407248	-1.326389	-0.572295
C54	C	1.907248	-0.826389	-0.072295
C55	C	1.528779	-1.361707	-0.725584
C56	C	2.028779	-0.861707	-0.225584
C57	C	1.527810	-1.239270	-0.727870
C58	C	2.027810	-0.739270	-0.227870
C59	C	1.691630	-0.821414	-0.718000
C60	C	2.191630	-0.321414	-0.218000
C61	C	1.805944	-0.838040	-0.732505
C62	C	2.305944	-0.338040	-0.232505
C63	C	1.389357	-0.812472	-0.952210
C64	C	1.889357	-0.312472	-0.452210
C65	C	1.374860	-0.825288	-1.066522
C66	C	1.874860	-0.325288	-0.566522
C67	C	1.423474	-0.505912	-0.684012
C68	C	1.923474	-0.005912	-0.184012
C69	C	1.423516	-0.388090	-0.684033
C70	C	1.923516	0.111910	-0.184033
C71	C	1.430925	-0.775669	-1.125428
C72	C	1.930925	-0.275669	-0.625428
C73	C	1.415944	-0.788914	-1.243575
C74	C	1.915944	-0.288914	-0.743575
C75	C	1.457320	-0.752374	-0.416765
C76	C	1.957320	-0.252374	0.083235
C77	C	1.472016	-0.739288	-0.302479
C78	C	1.972016	-0.239288	0.197521
H79	H	1.020037	-0.858655	-0.750496
H80	H	1.520037	-0.358655	-0.250496
H81	H	1.531105	-0.686993	-1.265449
H82	H	2.031105	-0.186993	-0.765449
H83	H	1.004781	-0.659337	-0.576608
H84	H	1.504781	-0.159337	-0.076608
H85	H	1.342048	-1.381809	-0.836582
H86	H	1.842048	-0.881809	-0.336582
H87	H	1.330710	-1.340879	-0.538698
H88	H	1.830710	-0.840879	-0.038698
H89	H	0.827756	-0.706302	-0.617582
H90	H	1.327756	-0.206302	-0.117582
H91	H	1.471460	-1.175923	-0.517982
H92	H	1.971460	-0.675923	-0.017982
H93	H	0.843003	-0.905637	-0.791489
H94	H	1.343003	-0.405637	-0.291489
H95	H	1.332138	-1.159066	-0.537955
H96	H	1.832138	-0.659066	-0.037955
H97	H	1.315763	-0.877565	-1.103557
H98	H	1.815763	-0.377565	-0.603557
H99	H	1.341878	-1.199591	-0.836032
H100	H	1.841878	-0.699591	-0.336032
H101	H	1.356842	-0.841195	-1.280605
H102	H	1.856842	-0.341195	-0.780605
H103	H	1.545671	-1.405172	-0.806666
H104	H	2.045671	-0.905172	-0.306666
H105	H	1.490012	-0.723380	-1.088392
H106	H	1.990012	-0.223380	-0.588392
H107	H	1.256264	-1.357903	-0.725332
H108	H	1.756264	-0.857903	-0.225332
H109	H	1.255418	-1.175020	-0.724725
H110	H	1.755418	-0.675020	-0.224725
H111	H	1.470292	-1.357178	-0.517917
H112	H	1.970292	-0.857178	-0.017917
H113	H	1.539800	-1.222299	-0.810438
H114	H	2.039800	-0.722299	-0.310438
H115	H	1.596830	-1.211611	-0.681954
H116	H	2.096830	-0.711611	-0.181954
H117	H	1.595223	-1.392760	-0.675049
H118	H	2.095223	-0.892760	-0.175049
