data_functionalizedCrystal
_audit_creation_method	'MofGen! by Chris Wilmer'
_symmetry_space_group_name_H-M	'P1'
_symmetry_Int_Tables_number	1
_symmetry_cell_setting	triclinic
loop_
_symmetry_equiv_pos_as_xyz
  x,y,z
_cell_length_a	10.489711
_cell_length_b	10.489716
_cell_length_c	9.130313
_cell_angle_alpha	89.999518
_cell_angle_beta	89.994946
_cell_angle_gamma	84.528072
loop_
_atom_site_label
_atom_site_type_symbol
_atom_site_fract_x
_atom_site_fract_y
_atom_site_fract_z
O1	O	1.694058	0.179789	-0.121838
O2	O	1.322856	0.196722	-0.121828
O3	O	1.516920	0.002655	-0.121838
O4	O	1.499994	0.373856	-0.121827
O5	O	1.516907	0.002649	0.121760
O6	O	1.322843	0.196716	0.121771
O7	O	1.694045	0.179783	0.121761
Cu8	Cu	1.508442	0.188249	0.144008
Cu9	Cu	1.508458	0.188256	-0.144075
O10	O	1.499981	0.373850	0.121771
C11	C	1.275317	0.195448	-0.000027
C12	C	1.133686	0.191646	-0.000024
C13	C	1.515642	-0.044880	-0.000043
C14	C	1.511837	-0.186511	-0.000057
C15	C	0.951289	0.308352	-0.000038
C16	C	1.043447	0.250058	-0.120144
C17	C	1.043407	0.250021	0.120025
C18	C	0.973507	0.126514	-0.120261
C19	C	0.973457	0.126494	0.120016
C20	C	1.065587	0.068111	-0.000120
C21	C	1.630843	-0.284198	-0.000047
C22	C	1.567964	-0.361549	-0.120148
C23	C	1.567923	-0.361518	0.120021
C24	C	1.449008	-0.261997	-0.120257
C25	C	1.448984	-0.261961	0.120020
C26	C	1.386018	-0.339263	-0.000111
C27	C	1.741584	0.181057	-0.000043
C28	C	1.883215	0.184859	-0.000056
C29	C	1.501259	0.421385	-0.000027
C30	C	1.505064	0.563016	-0.000023
N31	N	1.508441	0.188244	0.346631
N32	N	1.508470	0.188251	-0.346698
C33	C	1.594401	0.102347	0.423278
C34	C	1.594414	0.102347	0.576615
C35	C	1.422500	0.274152	0.576644
C36	C	1.422483	0.274144	0.423310
H37	H	1.074442	0.302317	-0.221678
H38	H	1.618180	-0.404998	0.221555
C39	C	0.931911	0.055995	-0.257602
C40	C	0.960362	0.107226	-0.411056
C41	C	0.918761	0.036714	-0.548397
C42	C	0.848710	-0.085028	-0.532284
C43	C	0.820255	-0.136265	-0.378824
C44	C	0.861855	-0.065754	-0.241483
H45	H	1.012222	0.197352	-0.422989
H46	H	0.939826	0.074644	-0.661998
H47	H	0.817914	-0.137225	-0.633952
H48	H	0.768395	-0.226392	-0.366891
H49	H	0.840790	-0.103683	-0.127882
H50	H	1.115053	-0.033485	-0.000183
H51	H	1.664409	0.032401	0.639017
C52	C	1.381173	-0.203153	0.257200
C53	C	1.455315	-0.126264	0.366519
C54	C	1.387516	-0.067456	0.503713
C55	C	1.245576	-0.085536	0.531589
C56	C	1.171426	-0.162428	0.422267
C57	C	1.239225	-0.221237	0.285072
H58	H	1.560395	-0.112877	0.345887
H59	H	1.442408	-0.010535	0.584641
H60	H	1.195388	-0.042002	0.633148
H61	H	1.066346	-0.175815	0.442899
H62	H	1.184333	-0.278158	0.204145
C63	C	1.085216	0.320626	0.257207
C64	C	1.055904	0.270207	0.410786
C65	C	1.097708	0.340821	0.547959
C66	C	1.168823	0.461853	0.531553
C67	C	1.198138	0.512278	0.377968
C68	C	1.156335	0.441664	0.240795
H69	H	1.003257	0.180606	0.422936
H70	H	1.076006	0.303493	0.661652
H71	H	1.199769	0.514126	0.633097
H72	H	1.250786	0.601879	0.365818
H73	H	1.178036	0.478993	0.127102
C74	C	1.246078	-0.372271	-0.000194
C75	C	1.216435	-0.513248	0.000998
C76	C	1.076498	-0.546262	0.000904
C77	C	0.966203	-0.438297	-0.000384
C78	C	0.995843	-0.297311	-0.001577
C79	C	1.135780	-0.264297	-0.001482
H80	H	1.298084	-0.593178	0.001952
H81	H	1.054557	-0.650630	0.001787
H82	H	0.862614	-0.462736	-0.000454
H83	H	0.914194	-0.217381	-0.002530
H84	H	1.157721	-0.159929	-0.002365
H85	H	1.618207	-0.405047	-0.221690
C86	C	1.688943	0.007849	0.338931
C87	C	1.685488	-0.137432	0.360028
C88	C	1.780029	-0.231936	0.275685
C89	C	1.878025	-0.181159	0.170246
C90	C	1.881483	-0.035871	0.149145
C91	C	1.786942	0.058633	0.233487
H92	H	1.612942	-0.175027	0.438084
H93	H	1.777468	-0.339489	0.291307
H94	H	1.948010	-0.251117	0.107811
H95	H	1.954029	0.001724	0.071088
H96	H	1.789503	0.166186	0.217865
H97	H	0.901590	0.409854	-0.000154
H98	H	0.942433	0.074283	0.221560
H99	H	1.734358	-0.259532	-0.000171
H100	H	1.352517	0.344092	0.639091
H101	H	1.398803	-0.218685	-0.221906
H102	H	1.352477	0.344092	0.360900
