data_functionalizedCrystal
_audit_creation_method	'MofGen! by Chris Wilmer'
_symmetry_space_group_name_H-M	'P1'
_symmetry_Int_Tables_number	1
_symmetry_cell_setting	triclinic
loop_
_symmetry_equiv_pos_as_xyz
  x,y,z
_cell_length_a	25.639242
_cell_length_b	19.077068
_cell_length_c	19.076919
_cell_angle_alpha	94.470751
_cell_angle_beta	92.272383
_cell_angle_gamma	92.322930
loop_
_atom_site_label
_atom_site_type_symbol
_atom_site_fract_x
_atom_site_fract_y
_atom_site_fract_z
Zn1	Zn	0.778189	-0.296771	-0.410014
Zn2	Zn	1.278189	0.203229	0.089986
Zn3	Zn	0.778124	-0.409925	-0.296859
Zn4	Zn	1.278124	0.090075	0.203141
Zn5	Zn	0.694419	-0.292046	-0.292126
Zn6	Zn	1.194419	0.207954	0.207874
Zn7	Zn	0.687071	-0.414611	-0.414683
Zn8	Zn	1.187071	0.085389	0.085317
O9	O	0.734451	-0.353338	-0.353421
O10	O	1.234451	0.146662	0.146579
O11	O	0.851344	-0.311797	-0.395031
O12	O	1.351344	0.188203	0.104969
O13	O	0.770069	-0.390349	-0.197585
O14	O	1.270069	0.109651	0.302415
O15	O	0.708634	-0.194024	-0.303830
O16	O	1.208634	0.305976	0.196170
O17	O	0.851297	-0.394931	-0.311896
O18	O	1.351297	0.105069	0.188104
O19	O	0.770179	-0.197495	-0.390442
O20	O	1.270179	0.302505	0.109558
O21	O	0.708571	-0.303744	-0.194108
O22	O	1.208571	0.196256	0.305892
O23	O	0.620281	-0.308288	-0.308357
O24	O	1.120281	0.191712	0.191643
O25	O	0.696110	-0.402918	-0.512710
O26	O	1.196110	0.097082	-0.012710
O27	O	0.614882	-0.398336	-0.398399
O28	O	1.114882	0.101664	0.101601
O29	O	0.763054	-0.316342	-0.509280
O30	O	1.263054	0.183658	-0.009280
O31	O	0.762943	-0.509195	-0.316423
O32	O	1.262943	-0.009195	0.183577
O33	O	0.696047	-0.512638	-0.402988
O34	O	1.196047	-0.012638	0.097012
C35	C	0.728704	-0.536496	-0.360741
C36	C	1.228704	-0.036496	0.139259
C37	C	0.726293	-0.614852	-0.363896
C38	C	1.226293	-0.114852	0.136104
C39	C	0.598611	-0.353308	-0.353372
C40	C	1.098611	0.146692	0.146628
C41	C	0.540497	-0.353313	-0.353368
C42	C	1.040497	0.146687	0.146632
C43	C	0.760015	-0.649850	-0.320346
C44	C	1.260015	-0.149850	0.179654
C45	C	0.757750	-0.723475	-0.323318
C46	C	1.257750	-0.223475	0.176682
C47	C	0.721760	-0.762100	-0.369837
C48	C	1.221760	-0.262100	0.130163
C49	C	0.688038	-0.727098	-0.413392
C50	C	1.188038	-0.227098	0.086608
C51	C	0.690305	-0.653474	-0.410423
C52	C	1.190305	-0.153474	0.089577
C53	C	0.711243	-0.982485	-0.383548
C54	C	1.211243	-0.482485	0.116452
C55	C	0.708976	-1.056113	-0.386512
C56	C	1.208976	-0.556113	0.113488
C57	C	0.778689	-1.052485	-0.296439
C58	C	1.278689	-0.552485	0.203561
C59	C	0.780952	-0.978860	-0.293472
C60	C	1.280952	-0.478860	0.206528
C61	C	0.747231	-0.943864	-0.337029
C62	C	1.247231	-0.443864	0.162971
N63	N	0.719443	-0.837356	-0.372874
N64	N	1.219443	-0.337356	0.127126
N65	N	0.749551	-0.868610	-0.333995
N66	N	1.249551	-0.368610	0.166005
C67	C	0.177328	-0.400300	-0.400266
C68	C	0.677328	0.099700	0.099734
C69	C	0.122723	-0.400304	-0.400277
C70	C	0.622723	0.099696	0.099723
O71	O	0.092103	-0.440218	-0.440109
O72	O	0.592103	0.059782	0.059891
N73	N	0.098210	-0.353359	-0.353467
N74	N	0.598210	0.146641	0.146533
C75	C	0.128304	-0.306402	-0.306648
C76	C	0.628304	0.193598	0.193352
O77	O	0.102440	-0.266471	-0.266835
O78	O	0.602440	0.233529	0.233165
C79	C	0.182908	-0.306394	-0.306641
C80	C	0.682908	0.193606	0.193359
C81	C	0.207418	-0.353347	-0.353449
C82	C	0.707418	0.146653	0.146551
C83	C	0.201838	-0.447248	-0.447070
C84	C	0.701838	0.052752	0.052930
C85	C	0.256439	-0.447244	-0.447058
C86	C	0.756439	0.052756	0.052942
C87	C	0.286530	-0.400292	-0.400241
C88	C	0.786530	0.099708	0.099759
C89	C	0.262019	-0.353343	-0.353437
C90	C	0.762019	0.146657	0.146563
C91	C	0.213001	-0.259433	-0.259826
C92	C	0.713001	0.240567	0.240174
C93	C	0.267609	-0.259429	-0.259823
C94	C	0.767609	0.240571	0.240177
C95	C	0.292119	-0.306382	-0.306631
C96	C	0.792119	0.193618	0.193369
C97	C	0.346711	-0.306386	-0.306607
C98	C	0.846711	0.193614	0.193393
N99	N	0.371224	-0.353331	-0.353417
N100	N	0.871224	0.146669	0.146583
C101	C	0.341134	-0.400284	-0.400234
C102	C	0.841134	0.099716	0.099766
C103	C	0.013632	-0.306420	-0.306668
C104	C	0.513632	0.193580	0.193332
C105	C	-0.040970	-0.306431	-0.306672
C106	C	0.459030	0.193569	0.193328
C107	C	-0.046548	-0.400333	-0.400301
C108	C	0.453452	0.099667	0.099699
C109	C	0.008056	-0.400325	-0.400294
C110	C	0.508056	0.099675	0.099706
C111	C	0.038146	-0.353365	-0.353478
C112	C	0.538146	0.146635	0.146522
C113	C	0.455800	-0.400272	-0.400204
C114	C	0.955800	0.099728	0.099796
C115	C	0.510406	-0.400266	-0.400185
C116	C	1.010406	0.099734	0.099815
C117	C	0.515979	-0.306362	-0.306558
C118	C	1.015979	0.193638	0.193442
C119	C	0.461377	-0.306370	-0.306574
C120	C	0.961377	0.193630	0.193426
C121	C	0.431289	-0.353328	-0.353403
C122	C	0.931289	0.146672	0.146597
O123	O	0.377364	-0.266491	-0.266797
O124	O	0.877364	0.233509	0.233203
O125	O	0.367005	-0.440202	-0.440047
O126	O	0.867005	0.059798	0.059953
C127	C	0.870821	-0.353368	-0.353470
C128	C	1.370821	0.146632	0.146530
C129	C	0.928934	-0.353381	-0.353491
C130	C	1.428934	0.146619	0.146509
C131	C	0.728769	-0.360680	-0.537288
C132	C	1.228769	0.139320	-0.037288
C133	C	0.726348	-0.363808	-0.615642
C134	C	1.226348	0.136192	-0.115642
C135	C	0.740233	-0.169466	-0.346087
C136	C	1.240233	0.330534	0.153913
C137	C	0.742698	-0.091110	-0.342962
C138	C	1.242698	0.408890	0.157038
C139	C	0.760063	-0.320204	-0.650667
C140	C	1.260063	0.179796	-0.150667
C141	C	0.757782	-0.323141	-0.724289
C142	C	1.257782	0.176859	-0.224289
C143	C	0.721788	-0.369686	-0.762883
C144	C	1.221788	0.130314	-0.262883
C145	C	0.688069	-0.413292	-0.727852
C146	C	1.188069	0.086708	-0.227852
C147	C	0.690348	-0.410351	-0.654232
C148	C	1.190348	0.089649	-0.154232
C149	C	0.711231	-0.383312	-0.983255
C150	C	1.211231	0.116688	-0.483255
C151	C	0.708956	-0.386251	-1.056880
C152	C	1.208956	0.113749	-0.556880
C153	C	0.778668	-0.296099	-1.053311
C154	C	1.278668	0.203901	-0.553311
C155	C	0.780946	-0.293166	-0.979690
C156	C	1.280946	0.206834	-0.479690
C157	C	0.747226	-0.336768	-0.944666
C158	C	1.247226	0.163232	-0.444666
N159	N	0.719456	-0.372691	-0.838136
N160	N	1.219456	0.127309	-0.338136
N161	N	0.749555	-0.333760	-0.869414
N162	N	1.249555	0.166240	-0.369414
C163	C	0.740142	-0.345974	-0.170266
C164	C	1.240142	0.154026	0.329734
C165	C	0.742671	-0.342647	-0.091906
C166	C	1.242671	0.157353	0.408094
H167	H	0.785209	-0.751966	-0.287855
H168	H	1.285209	-0.251966	0.212145
C169	C	0.828736	-0.231384	-0.654543
C170	C	1.328736	0.268616	-0.154543
C171	C	0.799628	-0.269039	-0.608248
C172	C	1.299628	0.230961	-0.108248
H173	H	0.853159	-0.199792	-0.628354
H174	H	1.353159	0.300208	-0.128354
H175	H	0.846880	-0.263249	-0.684488
H176	H	1.346880	0.236751	-0.184488
H177	H	0.805909	-0.205564	-0.682173
H178	H	1.305909	0.294436	-0.182173
H179	H	0.822455	-0.294862	-0.580621
H180	H	1.322455	0.205138	-0.080621
H181	H	0.781483	-0.237169	-0.578290
H182	H	1.281483	0.262831	-0.078290
H183	H	0.658760	-0.451187	-0.759281
H184	H	1.158760	0.048813	-0.259281
C185	C	0.810854	-0.172888	-0.952307
C186	C	1.310854	0.327112	-0.452307
C187	C	0.820508	-0.241985	-0.937284
C188	C	1.320508	0.258015	-0.437284
H189	H	0.835277	-0.141289	-0.926128
H190	H	1.335277	0.358711	-0.426128
H191	H	0.814317	-0.168417	-1.001163
H192	H	1.314317	0.331583	-0.501163
H193	H	0.776422	-0.162095	-0.939807
H194	H	1.276422	0.337905	-0.439807
H195	H	0.854939	-0.252780	-0.949790
H196	H	1.354939	0.247220	-0.449790
H197	H	0.817050	-0.246458	-0.888418
H198	H	1.317050	0.253542	-0.388418
C199	C	0.267633	-0.166612	-0.167272
C200	C	0.767633	0.333388	0.332728
C201	C	0.300682	-0.207815	-0.208353
C202	C	0.800682	0.292185	0.291647
H203	H	0.288051	-0.134753	-0.135493
H204	H	0.788051	0.365247	0.364507
H205	H	0.246240	-0.140924	-0.196959
H206	H	0.746240	0.359076	0.303041
H207	H	0.246198	-0.196217	-0.141494
H208	H	0.746198	0.303783	0.358506
H209	H	0.322114	-0.178210	-0.234135
H210	H	0.822114	0.321790	0.265865
H211	H	0.322084	-0.233504	-0.178662
H212	H	0.822084	0.266496	0.321338
C213	C	0.621227	-0.499776	-0.665150
C214	C	1.121227	0.000224	-0.165150
C215	C	0.653296	-0.458294	-0.615729
C216	C	1.153296	0.041706	-0.115729
H217	H	0.598355	-0.529378	-0.641379
H218	H	1.098355	-0.029378	-0.141379
H219	H	0.601299	-0.470207	-0.692624
H220	H	1.101299	0.029793	-0.192624
H221	H	0.642277	-0.527884	-0.694955
H222	H	1.142277	-0.027884	-0.194955
H223	H	0.632246	-0.430182	-0.585927
H224	H	1.132246	0.069818	-0.085927
H225	H	0.673225	-0.487866	-0.588243
H226	H	1.173225	0.012134	-0.088243
H227	H	-0.071057	-0.438562	-0.438425
H228	H	0.428943	0.061438	0.061575
C229	C	0.806126	-0.260571	-1.164581
C230	C	1.306126	0.239429	-0.664581
C231	C	0.815726	-0.248166	-1.091812
C232	C	1.315726	0.251834	-0.591812
H233	H	0.829002	-0.230972	-1.188347
H234	H	1.329002	0.269028	-0.688347
H235	H	0.811918	-0.308413	-1.178535
H236	H	1.311918	0.191587	-0.678535
H237	H	0.770946	-0.250729	-1.176211
H238	H	1.270946	0.249271	-0.676211
H239	H	0.850905	-0.258013	-1.080181
H240	H	1.350905	0.241987	-0.580181
H241	H	0.809938	-0.200313	-1.077852
H242	H	1.309938	0.299687	-0.577852
H243	H	-0.060922	-0.268204	-0.268549
H244	H	0.439078	0.231796	0.231451
C245	C	0.765461	-0.231610	-0.803282
C246	C	1.265461	0.268390	-0.303282
C247	C	0.794840	-0.275201	-0.762782
C248	C	1.294840	0.224799	-0.262782
H249	H	0.788341	-0.202006	-0.827039
H250	H	1.288341	0.297994	-0.327039
H251	H	0.743707	-0.259747	-0.836805
H252	H	1.243707	0.240253	-0.336805
H253	H	0.744419	-0.203503	-0.773464
H254	H	1.244419	0.296497	-0.273464
H255	H	0.815880	-0.303311	-0.792601
H256	H	1.315880	0.196689	-0.292601
H257	H	0.816604	-0.247060	-0.729255
H258	H	1.316604	0.252940	-0.229255
C259	C	0.472378	-0.213552	-0.214024
C260	C	0.972378	0.286448	0.285976
C261	C	0.434432	-0.254763	-0.255120
C262	C	0.934432	0.245237	0.244880
H263	H	0.455745	-0.181686	-0.182265
H264	H	0.955745	0.318314	0.317735
H265	H	0.493537	-0.243146	-0.188229
H266	H	0.993537	0.256854	0.311771
H267	H	0.493581	-0.187866	-0.243708
H268	H	0.993581	0.312134	0.256292
H269	H	0.413232	-0.280452	-0.225436
H270	H	0.913232	0.219548	0.274564
H271	H	0.413264	-0.225165	-0.280916
H272	H	0.913264	0.274835	0.219084
H273	H	0.789319	-0.618406	-0.282463
H274	H	1.289319	-0.118406	0.217537
H275	H	0.540488	-0.268136	-0.268439
H276	H	1.040488	0.231864	0.231561
H277	H	0.177344	-0.485483	-0.485198
H278	H	0.677344	0.014517	0.014802
H279	H	0.806144	-1.080987	-0.260978
H280	H	1.306144	-0.580987	0.239022
C281	C	0.849643	-0.982673	-0.204750
C282	C	1.349643	-0.482673	0.295250
C283	C	0.820519	-0.936406	-0.242345
C284	C	1.320519	-0.436406	0.257655
H285	H	0.874072	-0.956462	-0.173190
H286	H	1.374072	-0.456462	0.326810
H287	H	0.826830	-1.010340	-0.178907
H288	H	1.326830	-0.510340	0.321093
H289	H	0.867785	-1.012587	-0.236658
H290	H	1.367785	-0.512587	0.263342
H291	H	0.802373	-0.906494	-0.210437
H292	H	1.302373	-0.406494	0.289563
H293	H	0.843335	-0.908726	-0.268189
H294	H	1.343335	-0.408726	0.231811
C295	C	-0.002954	-0.493140	-0.492844
C296	C	0.497046	0.006860	0.007156
C297	C	0.034995	-0.451931	-0.451753
C298	C	0.534995	0.048069	0.048247
H299	H	0.013676	-0.524996	-0.524617
H300	H	0.513676	-0.024996	-0.024617
H301	H	-0.024147	-0.518832	-0.463162
H302	H	0.475853	-0.018832	0.036838
H303	H	-0.024123	-0.463539	-0.518628
H304	H	0.475877	0.036461	-0.018628
H305	H	0.056161	-0.481531	-0.425964
H306	H	0.556161	0.018469	0.074036
H307	H	0.056197	-0.426237	-0.481438
H308	H	0.556197	0.073763	0.018562
C309	C	0.640302	-1.052309	-0.475266
C310	C	1.140302	-0.552309	0.024734
C311	C	0.669419	-1.098572	-0.437657
C312	C	1.169419	-0.598572	0.062343
H313	H	0.615886	-1.078523	-0.506841
H314	H	1.115886	-0.578523	-0.006841
H315	H	0.622151	-1.022400	-0.443374
H316	H	1.122151	-0.522400	0.056626
H317	H	0.663125	-1.024635	-0.501100
H318	H	1.163125	-0.524635	-0.001100
H319	H	0.646596	-1.126243	-0.411819
H320	H	1.146596	-0.626243	0.088181
H321	H	0.687572	-1.128493	-0.469554
H322	H	1.187572	-0.628493	0.030446
H323	H	0.193055	-0.221201	-0.221708
H324	H	0.693055	0.278799	0.278292
C325	C	0.640268	-0.475063	-1.053016
C326	C	1.140268	0.024937	-0.553016
C327	C	0.669386	-0.437414	-1.099304
C328	C	1.169386	0.062586	-0.599304
H329	H	0.615840	-0.506644	-1.079209
H330	H	1.115840	-0.006644	-0.579209
H331	H	0.663085	-0.500888	-1.025386
H332	H	1.163085	-0.000888	-0.525386
H333	H	0.622125	-0.443188	-1.023068
H334	H	1.122125	0.056812	-0.523068
H335	H	0.687533	-0.469289	-1.129249
H336	H	1.187533	0.030711	-0.629249
H337	H	0.646566	-0.411588	-1.126946
H338	H	1.146566	0.088412	-0.626946
C339	C	0.683766	-0.418836	-0.871992
C340	C	1.183766	0.081164	-0.371992
C341	C	0.674170	-0.431244	-0.944761
C342	C	1.174170	0.068756	-0.444761
H343	H	0.660882	-0.448427	-0.848227
H344	H	1.160882	0.051573	-0.348227
H345	H	0.718939	-0.428679	-0.860355
H346	H	1.218939	0.071321	-0.360355
H347	H	0.677974	-0.370986	-0.858041
H348	H	1.177974	0.129014	-0.358041
H349	H	0.679966	-0.479093	-0.958713
H350	H	1.179966	0.020907	-0.458713
H351	H	0.638989	-0.421406	-0.956402
H352	H	1.138989	0.078594	-0.456402
C353	C	0.683765	-0.871244	-0.419002
C354	C	1.183765	-0.371244	0.080998
C355	C	0.674175	-0.944022	-0.431422
C356	C	1.174175	-0.444022	0.068578
H357	H	0.660881	-0.847498	-0.448563
H358	H	1.160881	-0.347498	0.051437
H359	H	0.677974	-0.857315	-0.371149
H360	H	1.177974	-0.357315	0.128851
H361	H	0.718942	-0.859560	-0.428884
H362	H	1.218942	-0.359560	0.071116
H363	H	0.638999	-0.955707	-0.421536
H364	H	1.138999	-0.455707	0.078464
H365	H	0.679962	-0.957956	-0.479287
H366	H	1.179962	-0.457956	0.020713
C367	C	0.675238	-0.813652	-0.511537
C368	C	1.175238	-0.313652	-0.011537
C369	C	0.648478	-0.769556	-0.464526
C370	C	1.148478	-0.269556	0.035474
H371	H	0.650812	-0.839865	-0.543101
H372	H	1.150812	-0.339865	-0.043101
H373	H	0.698047	-0.785975	-0.537375
H374	H	1.198047	-0.285975	-0.037375
H375	H	0.694995	-0.845029	-0.486016
H376	H	1.194995	-0.345029	0.013984
H377	H	0.628723	-0.738175	-0.490047
H378	H	1.128723	-0.238175	0.009953
H379	H	0.625659	-0.797235	-0.438685
H380	H	1.125659	-0.297235	0.061315
C381	C	0.078250	-0.292685	-0.211445
C382	C	0.578250	0.207315	0.288555
C383	C	0.046707	-0.254807	-0.255195
C384	C	0.546707	0.245193	0.244805
H385	H	0.098668	-0.260820	-0.179672
H386	H	0.598668	0.239180	0.320328
H387	H	0.056815	-0.322279	-0.185666
H388	H	0.556815	0.177721	0.314334
H389	H	0.100664	-0.320636	-0.239327
H390	H	0.600664	0.179364	0.260673
H391	H	0.024289	-0.226859	-0.227313
H392	H	0.524289	0.273141	0.272687
H393	H	0.068143	-0.225201	-0.280976
H394	H	0.568143	0.274799	0.219024
C395	C	0.621170	-0.664451	-0.499754
C396	C	1.121170	-0.164451	0.000246
C397	C	0.653239	-0.615002	-0.458296
C398	C	1.153239	-0.115002	0.041704
H399	H	0.598286	-0.640699	-0.529308
H400	H	1.098286	-0.140699	-0.029308
H401	H	0.642217	-0.694211	-0.527902
H402	H	1.142217	-0.194211	-0.027902
H403	H	0.601252	-0.691971	-0.470164
H404	H	1.101252	-0.191971	0.029836
H405	H	0.673160	-0.587486	-0.487885
H406	H	1.173160	-0.087486	0.012115
H407	H	0.632189	-0.585230	-0.430145
H408	H	1.132189	-0.085230	0.069855
H409	H	0.530360	-0.438504	-0.438303
H410	H	1.030360	0.061496	0.061697
H411	H	0.431308	-0.438508	-0.438338
H412	H	0.931308	0.061492	0.061662
H413	H	0.276391	-0.485477	-0.485175
H414	H	0.776391	0.014523	0.014825
