data_functionalizedCrystal
_audit_creation_method	'MofGen! by Chris Wilmer'
_symmetry_space_group_name_H-M	'P1'
_symmetry_Int_Tables_number	1
_symmetry_cell_setting	triclinic
loop_
_symmetry_equiv_pos_as_xyz
  x,y,z
_cell_length_a	13.897449
_cell_length_b	18.050590
_cell_length_c	18.050583
_cell_angle_alpha	89.966777
_cell_angle_beta	89.980272
_cell_angle_gamma	90.019379
loop_
_atom_site_label
_atom_site_type_symbol
_atom_site_fract_x
_atom_site_fract_y
_atom_site_fract_z
Zn1	Zn	1.474662	-0.295618	-0.419938
Zn2	Zn	1.474564	-0.419822	-0.295747
Zn3	Zn	1.313361	-0.295653	-0.295759
Zn4	Zn	1.313330	-0.419772	-0.419892
O5	O	1.393979	-0.357716	-0.357834
O6	O	1.609631	-0.312100	-0.403478
O7	O	1.453152	-0.403387	-0.191824
O8	O	1.334812	-0.191723	-0.312256
O9	O	1.609558	-0.403353	-0.312235
O10	O	1.453319	-0.191698	-0.403490
O11	O	1.334717	-0.312160	-0.191833
O12	O	1.178376	-0.312111	-0.312211
O13	O	1.334759	-0.403267	-0.523823
O14	O	1.178353	-0.403301	-0.403411
O15	O	1.453289	-0.312052	-0.523857
O16	O	1.453122	-0.523740	-0.312190
O17	O	1.334664	-0.523703	-0.403399
C18	C	1.143365	-0.357705	-0.357808
C19	C	1.036151	-0.357718	-0.357815
C20	C	0.949081	-0.357720	-0.357827
C21	C	0.839849	-0.357726	-0.357850
C22	C	1.393905	-0.550668	-0.357804
C23	C	1.393962	-0.633214	-0.357817
C24	C	1.458513	-0.832658	-0.308286
C25	C	1.482073	-0.881985	-0.376067
C26	C	1.394017	-0.784345	-0.357846
C27	C	1.370555	-0.882099	-0.290096
C28	C	1.394071	-0.930330	-0.357869
C29	C	1.417622	-0.832584	-0.425662
C30	C	1.306062	-0.832695	-0.339646
C31	C	1.329589	-0.881999	-0.407473
C32	C	1.393987	-0.700246	-0.357832
C33	C	1.394100	-1.014426	-0.357890
C34	C	1.645572	-0.357728	-0.357860
C35	C	1.752786	-0.357733	-0.357872
C36	C	1.394032	-0.357650	-0.551540
C37	C	1.394054	-0.357622	-0.634085
C38	C	1.394080	-0.164011	-0.357880
C39	C	1.394123	-0.081465	-0.357900
C40	C	1.458571	-0.307968	-0.882930
C41	C	1.482123	-0.375731	-0.833515
C42	C	1.394116	-0.357574	-0.931206
C43	C	1.370579	-0.289839	-0.833539
C44	C	1.394088	-0.357594	-0.785221
C45	C	1.417714	-0.425373	-0.882879
C46	C	1.306129	-0.339435	-0.882907
C47	C	1.329648	-0.407244	-0.833514
C48	C	1.394135	-0.357562	-1.015304
C49	C	1.394069	-0.357614	-0.701124
C50	C	1.393983	-0.357729	-0.164882
C51	C	1.394147	-0.357548	-0.082336
H52	H	1.513074	-0.810992	-0.266418
H53	H	1.437718	-0.482676	-0.904462
C54	C	1.255934	-0.911083	-0.464170
N55	N	1.200459	-0.932989	-0.506875
C56	C	1.582588	-0.911242	-0.396881
N57	N	1.658298	-0.933278	-0.412553
C58	C	1.256018	-0.463997	-0.804359
N59	N	1.200572	-0.506746	-0.782389
C60	C	1.444585	-0.803329	-0.503100
N61	N	1.464898	-0.781292	-0.561424
H62	H	1.231754	-0.324058	-0.904619
C63	C	1.343711	-0.911477	-0.212679
N64	N	1.323498	-0.933601	-0.154367
H65	H	1.231679	-0.811026	-0.324217
C66	C	1.532278	-0.251357	-0.912245
N67	N	1.587796	-0.208720	-0.934327
C68	C	1.343695	-0.212440	-0.804261
N69	N	1.323453	-0.154142	-0.782213
C70	C	1.582627	-0.396473	-0.804198
N71	N	1.658328	-0.412089	-0.782116
