data_functionalizedCrystal
_audit_creation_method	'MofGen! by Chris Wilmer'
_symmetry_space_group_name_H-M	'P1'
_symmetry_Int_Tables_number	1
_symmetry_cell_setting	triclinic
loop_
_symmetry_equiv_pos_as_xyz
  x,y,z
_cell_length_a	27.731993
_cell_length_b	26.210047
_cell_length_c	16.992695
_cell_angle_alpha	89.995910
_cell_angle_beta	93.355692
_cell_angle_gamma	90.004884
loop_
_atom_site_label
_atom_site_type_symbol
_atom_site_fract_x
_atom_site_fract_y
_atom_site_fract_z
O1	O	0.644976	0.042292	-0.093047
O2	O	0.504794	0.042323	-0.107271
O3	O	0.574323	0.042303	0.013977
O4	O	0.575447	0.042311	-0.214294
O5	O	0.574299	-0.042555	0.013977
O6	O	0.504770	-0.042535	-0.107271
O7	O	0.644953	-0.042566	-0.093047
Cu8	Cu	0.574859	-0.050299	-0.100159
Cu9	Cu	0.574887	0.050055	-0.100159
O10	O	0.575423	-0.042547	-0.214295
C11	C	0.486762	-0.000102	-0.106979
C12	C	0.433068	-0.000091	-0.106100
N13	N	0.574843	-0.120883	-0.100158
C14	C	0.049645	0.046141	-0.099727
C15	C	0.251447	0.046155	-0.103078
O16	O	0.277548	0.085495	-0.103480
N17	N	0.276673	-0.000101	-0.103497
C18	C	0.251445	-0.046362	-0.103074
O19	O	0.277532	-0.085705	-0.103499
C20	C	0.049644	-0.046376	-0.099717
C21	C	0.024420	-0.000118	-0.099306
C22	C	0.024421	0.092395	-0.099315
C23	C	-0.026026	0.092391	-0.098481
C24	C	-0.051251	0.046133	-0.098060
C25	C	-0.026027	-0.000122	-0.098472
C26	C	0.024417	-0.092637	-0.099288
C27	C	-0.026036	-0.092636	-0.098446
C28	C	-0.051260	-0.046378	-0.098035
C29	C	-0.101699	-0.046384	-0.097217
N30	N	-0.126925	-0.000129	-0.096798
C31	C	-0.101701	0.046129	-0.097219
C32	C	0.357393	-0.046352	-0.104838
C33	C	0.407843	-0.046349	-0.105678
C34	C	0.407842	0.046168	-0.105681
C35	C	0.357391	0.046165	-0.104846
C36	C	0.332168	-0.000097	-0.104418
C37	C	-0.207645	0.046118	-0.095470
C38	C	-0.258097	0.046110	-0.094639
C39	C	-0.258091	-0.046407	-0.094632
C40	C	-0.207643	-0.046399	-0.095467
C41	C	-0.182421	-0.000133	-0.095883
O42	O	-0.127832	-0.085703	-0.096806
O43	O	-0.127796	0.085466	-0.096776
C44	C	0.100092	0.046145	-0.100560
C45	C	0.125316	-0.000110	-0.100972
C46	C	0.100091	-0.046368	-0.100551
C47	C	0.175766	-0.000107	-0.101813
C48	C	0.200990	0.046152	-0.102234
C49	C	0.175765	0.092407	-0.101815
C50	C	0.125317	0.092403	-0.100982
C51	C	0.125317	-0.092623	-0.100971
C52	C	0.175765	-0.092615	-0.101805
C53	C	0.200989	-0.046357	-0.102226
C54	C	0.606020	-0.473402	-0.147347
C55	C	0.606034	-0.687061	-0.147346
O56	O	0.632530	-0.714687	-0.187459
N57	N	0.574898	-0.713777	-0.100151
C58	C	0.543758	-0.687075	-0.052948
O59	O	0.517279	-0.714701	-0.012800
C60	C	0.543747	-0.473417	-0.052945
C61	C	0.574882	-0.446704	-0.100150
C62	C	0.637153	-0.446689	-0.194547
C63	C	0.637147	-0.393277	-0.194550
C64	C	0.606008	-0.366579	-0.147353
C65	C	0.574876	-0.393293	-0.100153
C66	C	0.512610	-0.446717	-0.005739
C67	C	0.512611	-0.393299	-0.005741
C68	C	0.543746	-0.366586	-0.052946
C69	C	0.543732	-0.313183	-0.052959
N70	N	0.574868	-0.286467	-0.100154
C71	C	0.606006	-0.313165	-0.147351
C72	C	0.543766	-0.799248	-0.052954
C73	C	0.543768	-0.852663	-0.052956
C74	C	0.606045	-0.852645	-0.147353
C75	C	0.606040	-0.799230	-0.147355
C76	C	0.574902	-0.772532	-0.100150
C77	C	0.605992	-0.200997	-0.147354
C78	C	0.605982	-0.147581	-0.147355
C79	C	0.543707	-0.147604	-0.052956
C80	C	0.543715	-0.201015	-0.052957
C81	C	0.574861	-0.227711	-0.100159
O82	O	0.517254	-0.285524	-0.012860
O83	O	0.632489	-0.285530	-0.187481
C84	C	0.606026	-0.526814	-0.147344
C85	C	0.574893	-0.553527	-0.100144
C86	C	0.543755	-0.526829	-0.052947
C87	C	0.574895	-0.606941	-0.100146
C88	C	0.606034	-0.633639	-0.147343
C89	C	0.637170	-0.606923	-0.194538
C90	C	0.637164	-0.553512	-0.194541
C91	C	0.512619	-0.553545	-0.005752
C92	C	0.512627	-0.606957	-0.005753
C93	C	0.543765	-0.633655	-0.052950
C94	C	0.662984	-0.000140	-0.093339
C95	C	0.716679	-0.000149	-0.094218
C96	C	0.572865	-0.000125	0.043171
C97	C	0.568551	-0.000124	0.130162
N98	N	0.574906	0.120639	-0.100153
C99	C	0.576881	-0.000117	-0.243489
C100	C	0.581195	-0.000115	-0.330480
C101	C	0.610175	-0.000134	0.180920
C102	C	0.606119	-0.000128	0.262656
C103	C	0.560438	-0.000116	0.293633
C104	C	0.518811	-0.000105	0.242868
C105	C	0.522868	-0.000107	0.161134
C106	C	0.543625	-0.000106	0.537021
C107	C	0.539571	-0.000105	0.618762
C108	C	0.626879	-0.000127	0.638545
C109	C	0.630932	-0.000133	0.556808
C110	C	0.589305	-0.000119	0.506050
N111	N	0.556291	-0.000112	0.377180
N112	N	0.593453	-0.000119	0.422505
H113	H	-0.278632	0.083780	-0.094307
F114	F	0.499321	-0.000090	0.483012
H115	H	0.660769	-0.000138	0.679880
H116	H	0.481617	-0.000092	0.268096
H117	H	0.488974	-0.000099	0.119806
H118	H	0.336857	0.083832	-0.104511
H119	H	0.104785	-0.130293	-0.100624
H120	H	0.518354	-0.125856	-0.014531
F121	F	0.670300	-0.525088	-0.244787
F122	F	0.490949	-0.000095	0.651727
F123	F	0.670297	-0.475095	-0.244785
F124	F	0.658795	-0.000152	0.147960
H125	H	0.631397	-0.874391	-0.185786
F126	F	0.670308	-0.635347	-0.244772
H127	H	0.631335	-0.125834	-0.185799
F128	F	0.639141	-0.229401	-0.197591
F129	F	0.479472	-0.364889	0.044508
H130	H	0.631392	-0.777483	-0.185794
H131	H	-0.187115	0.083792	-0.095809
F132	F	0.510574	-0.229446	-0.002725
F133	F	0.510624	-0.881087	-0.002726
F134	F	0.051251	-0.141872	-0.099725
F135	F	0.479484	-0.635381	0.044487
F136	F	0.510616	-0.770842	-0.002720
F137	F	0.202604	-0.141853	-0.102249
F138	F	0.330555	-0.095593	-0.104391
F139	F	-0.180798	-0.095632	-0.095915
F140	F	0.434682	-0.095583	-0.106131
F141	F	0.051259	0.141634	-0.099761
F142	F	0.434696	0.095400	-0.106132
F143	F	-0.052865	0.141626	-0.098038
H144	H	0.487257	-0.468457	0.032701
F145	F	0.479470	-0.525138	0.044476
F146	F	-0.052877	-0.141876	-0.097986
F147	F	0.650421	-0.000140	0.316674
F148	F	0.098478	0.141638	-0.100543
F149	F	-0.284946	-0.095636	-0.094187
F150	F	0.670279	-0.364854	-0.244802
F151	F	0.202619	0.141638	-0.102267
H152	H	0.668130	-0.000142	0.531593
