data_functionalizedCrystal
_audit_creation_method	'MofGen! by Chris Wilmer'
_symmetry_space_group_name_H-M	'P1'
_symmetry_Int_Tables_number	1
_symmetry_cell_setting	triclinic
loop_
_symmetry_equiv_pos_as_xyz
  x,y,z
_cell_length_a	21.395364
_cell_length_b	18.101395
_cell_length_c	21.395355
_cell_angle_alpha	90.017487
_cell_angle_beta	89.975448
_cell_angle_gamma	89.947636
loop_
_atom_site_label
_atom_site_type_symbol
_atom_site_fract_x
_atom_site_fract_y
_atom_site_fract_z
Zn1	Zn	0.957830	0.294620	-0.354266
Zn2	Zn	1.291163	0.627953	-0.020933
Zn3	Zn	1.624497	0.961287	0.312401
Zn4	Zn	0.957720	0.418443	-0.249490
Zn5	Zn	1.291054	0.751777	0.083843
Zn6	Zn	1.624387	1.085110	0.417176
Zn7	Zn	0.853045	0.294652	-0.249503
Zn8	Zn	1.186378	0.627986	0.083831
Zn9	Zn	1.519712	0.961319	0.417164
Zn10	Zn	0.853002	0.418457	-0.354231
Zn11	Zn	1.186335	0.751790	-0.020897
Zn12	Zn	1.519669	1.085123	0.312436
O13	O	0.905399	0.356543	-0.301872
O14	O	1.238733	0.689876	0.031461
O15	O	1.572066	1.023210	0.364794
O16	O	1.045493	0.311026	-0.340377
O17	O	1.378827	0.644360	-0.007044
O18	O	1.712160	0.977693	0.326290
O19	O	0.943807	0.402030	-0.161814
O20	O	1.277140	0.735364	0.171519
O21	O	1.610474	1.068697	0.504853
O22	O	0.867009	0.191015	-0.263420
O23	O	1.200342	0.524349	0.069914
O24	O	1.533676	0.857682	0.403247
O25	O	1.045413	0.401999	-0.263399
O26	O	1.378746	0.735332	0.069935
O27	O	1.712079	1.068665	0.403268
O28	O	0.943994	0.190991	-0.340389
O29	O	1.277327	0.524325	-0.007056
O30	O	1.610661	0.857658	0.326278
O31	O	0.866903	0.311082	-0.161823
O32	O	1.200236	0.644415	0.171510
O33	O	1.533569	0.977748	0.504844
O34	O	0.765361	0.311094	-0.263385
O35	O	1.098695	0.644428	0.069948
O36	O	1.432028	0.977761	0.403281
O37	O	0.866936	0.402021	-0.441913
O38	O	1.200269	0.735355	-0.108580
O39	O	1.533602	1.068688	0.224754
O40	O	0.765330	0.402053	-0.340328
O41	O	1.098663	0.735386	-0.006995
O42	O	1.431996	1.068719	0.326338
O43	O	0.943952	0.311039	-0.441939
O44	O	1.277286	0.644372	-0.108606
O45	O	1.610619	0.977706	0.224728
O46	O	0.943765	0.522078	-0.263364
O47	O	1.277099	0.855411	0.069969
O48	O	1.610432	1.188745	0.403302
O49	O	0.866829	0.522088	-0.340317
O50	O	1.200162	0.855421	-0.006983
O51	O	1.533496	1.188754	0.326350
C52	C	0.905298	0.548954	-0.301849
C53	C	1.238631	0.882287	0.031484
C54	C	1.571964	1.215620	0.364818
C55	C	0.905311	0.631268	-0.301860
C56	C	1.238645	0.964601	0.031473
C57	C	1.571978	1.297934	0.364807
C58	C	0.742612	0.356579	-0.301855
C59	C	1.075945	0.689912	0.031479
C60	C	1.409278	1.023246	0.364812
C61	C	0.672970	0.356612	-0.301862
C62	C	1.006304	0.689946	0.031471
C63	C	1.339637	1.023279	0.364805
C64	C	0.905371	0.781976	-0.301887
C65	C	1.238704	1.115310	0.031446
C66	C	1.572038	1.448643	0.364779
C67	C	0.856938	0.813367	-0.350267
C68	C	1.190271	1.146700	-0.016933
C69	C	1.523604	1.480034	0.316400
C70	C	0.857114	0.898985	-0.350472
C71	C	1.190447	1.232318	-0.017139
C72	C	1.523780	1.565652	0.316195
C73	C	0.905429	0.930359	-0.301914
C74	C	1.238762	1.263692	0.031419
C75	C	1.572096	1.597025	0.364753
C76	C	0.971488	0.899159	-0.319677
C77	C	1.304821	1.232493	0.013656
C78	C	1.638155	1.565826	0.346990
C79	C	0.971174	0.813515	-0.320013
C80	C	1.304508	1.146848	0.013321
C81	C	1.637841	1.480181	0.346654
C82	C	0.888336	0.813604	-0.235629
C83	C	1.221669	1.146937	0.097704
C84	C	1.555002	1.480270	0.431037
C85	C	0.886912	0.899256	-0.235998
C86	C	1.220245	1.232590	0.097335
C87	C	1.553579	1.565923	0.430669
C88	C	0.905466	1.014218	-0.301928
C89	C	1.238799	1.347551	0.031405
C90	C	1.572132	1.680885	0.364738
C91	C	0.905339	0.698117	-0.301875
C92	C	1.238672	1.031450	0.031459
C93	C	1.572006	1.364783	0.364792
C94	C	0.640322	0.309321	-0.342007
C95	C	0.973655	0.642654	-0.008673
C96	C	1.306988	0.975987	0.324660
C97	C	0.574886	0.309301	-0.342009
C98	C	0.908220	0.642634	-0.008676
C99	C	1.241553	0.975968	0.324658
C100	C	0.542102	0.356586	-0.301874
C101	C	0.875435	0.689920	0.031460
C102	C	1.208769	1.023253	0.364793
C103	C	0.574759	0.403881	-0.261721
C104	C	0.908092	0.737215	0.071612
C105	C	1.241425	1.070548	0.404945
C106	C	0.640193	0.403894	-0.261716
C107	C	0.973526	0.737228	0.071618
C108	C	1.306860	1.070561	0.404951
C109	C	0.438371	0.423279	-0.296837
C110	C	0.771704	0.756612	0.036496
C111	C	1.105038	1.089945	0.369830
C112	C	0.372938	0.423267	-0.296847
C113	C	0.706272	0.756600	0.036486
C114	C	1.039605	1.089933	0.369820
C115	C	0.340281	0.356545	-0.301887
C116	C	0.673615	0.689879	0.031446
C117	C	1.006948	1.023212	0.364779
C118	C	0.373066	0.289834	-0.306931
C119	C	0.706399	0.623167	0.026402
C120	C	1.039732	0.956501	0.359736
C121	C	0.438500	0.289847	-0.306925
C122	C	0.771833	0.623180	0.026408
C123	C	1.105166	0.956514	0.359741
C124	C	0.471150	0.356577	-0.301875
C125	C	0.804483	0.689910	0.031458
C126	C	1.137816	1.023244	0.364792
C127	C	0.236680	0.309228	-0.342037
C128	C	0.570013	0.642562	-0.008703
C129	C	0.903347	0.975895	0.324630
C130	C	0.171243	0.309207	-0.342035
C131	C	0.504577	0.642541	-0.008701
C132	C	0.837910	0.975874	0.324632
C133	C	0.171117	0.403794	-0.261750
C134	C	0.504451	0.737128	0.071583
C135	C	0.837784	1.070461	0.404916
C136	C	0.236553	0.403809	-0.261749
C137	C	0.569886	0.737142	0.071584
C138	C	0.903219	1.070475	0.404918
C139	C	0.269330	0.356527	-0.301895
C140	C	0.602663	0.689860	0.031438
C141	C	0.935997	1.023193	0.364771
C142	C	1.068823	0.356507	-0.301890
C143	C	1.402156	0.689841	0.031443
C144	C	1.735489	1.023174	0.364776
C145	C	1.138464	0.356492	-0.301898
C146	C	1.471797	0.689826	0.031435
C147	C	1.805131	1.023159	0.364769
C148	C	0.905451	0.356528	-0.465296
C149	C	1.238785	0.689861	-0.131962
C150	C	1.572118	1.023195	0.201371
C151	C	0.905474	0.356522	-0.534937
C152	C	1.238807	0.689855	-0.201604
C153	C	1.572140	1.023188	0.131730
C154	C	0.905498	1.163381	-0.301914
C155	C	1.238832	1.496714	0.031420
C156	C	1.572165	1.830048	0.364753
C157	C	0.905489	1.081067	-0.301941
C158	C	1.238822	1.414400	0.031392
C159	C	1.572155	1.747734	0.364725
C160	C	0.945574	0.309145	-0.567665
C161	C	1.278908	0.642479	-0.234331
C162	C	1.612241	0.975812	0.099002
C163	C	0.945574	0.309113	-0.633100
C164	C	1.278907	0.642447	-0.299767
C165	C	1.612240	0.975780	0.033567
C166	C	0.905478	0.356471	-0.665805
C167	C	1.238812	0.689805	-0.332472
C168	C	1.572145	1.023138	0.000861
C169	C	0.865370	0.403851	-0.633070
C170	C	1.198703	0.737184	-0.299736
C171	C	1.532036	1.070518	0.033597
C172	C	0.865367	0.403876	-0.567636
C173	C	1.198701	0.737210	-0.234302
C174	C	1.532034	1.070543	0.099031
C175	C	0.900496	0.423154	-0.769472
C176	C	1.233829	0.756487	-0.436139
C177	C	1.567163	1.089821	-0.102805
C178	C	0.900503	0.423130	-0.834905
C179	C	1.233836	0.756463	-0.501572
C180	C	1.567169	1.089797	-0.168238
C181	C	0.905482	0.356393	-0.867626
C182	C	1.238816	0.689726	-0.534293
C183	C	1.572149	1.023060	-0.200960
C184	C	0.910468	0.289678	-0.834907
C185	C	1.243802	0.623011	-0.501573
C186	C	1.577135	0.956344	-0.168240
C187	C	0.910466	0.289703	-0.769472
C188	C	1.243799	0.623036	-0.436139
C189	C	1.577132	0.956370	-0.102806
C190	C	0.905476	0.356449	-0.736758
C191	C	1.238810	0.689782	-0.403424
C192	C	1.572143	1.023115	-0.070091
C193	C	0.945584	0.308978	-0.971307
C194	C	1.278918	0.642311	-0.637973
C195	C	1.612251	0.975645	-0.304640
C196	C	0.945579	0.308945	-1.036743
C197	C	1.278913	0.642278	-0.703410
C198	C	1.612246	0.975612	-0.370076
C199	C	0.865379	0.403689	-1.036712
C200	C	1.198712	0.737022	-0.703378
C201	C	1.532045	1.070356	-0.370045
C202	C	0.865381	0.403716	-0.971276
C203	C	1.198714	0.737049	-0.637943
C204	C	1.532047	1.070382	-0.304610
C205	C	0.905487	0.356361	-0.938578
C206	C	1.238820	0.689694	-0.605244
C207	C	1.572153	1.023028	-0.271911
C208	C	0.905384	0.356505	-0.139085
C209	C	1.238717	0.689838	0.194249
C210	C	1.572050	1.023171	0.527582
C211	C	0.905483	0.356302	-0.069444
C212	C	1.238816	0.689636	0.263889
C213	C	1.572150	1.022969	0.597223
H214	H	0.808136	0.920086	-0.339369
H215	H	1.141469	1.253419	-0.006036
H216	H	1.474802	1.586753	0.327297
H217	H	0.144425	0.442295	-0.229071
H218	H	0.477758	0.775628	0.104262
H219	H	0.811092	1.108962	0.437596
Br220	Br	0.809385	0.777743	-0.208619
Br221	Br	1.142719	1.111076	0.124714
Br222	Br	1.476052	1.444409	0.458048
H223	H	0.978227	0.270530	-0.659752
H224	H	1.311561	0.603863	-0.326419
H225	H	1.644894	0.937196	0.006914
Br226	Br	0.328754	0.199277	-0.313773
Br227	Br	0.662088	0.532610	0.019560
Br228	Br	0.995421	0.865943	0.352893
Br229	Br	0.875925	0.933070	-0.432320
Br230	Br	1.209258	1.266403	-0.098987
Br231	Br	1.542592	1.599736	0.234346
Br232	Br	0.328452	0.513803	-0.290016
Br233	Br	0.661785	0.847137	0.043317
Br234	Br	0.995119	1.180470	0.376651
H235	H	0.838297	0.919660	-0.222599
H236	H	1.171630	1.252993	0.110734
H237	H	1.504964	1.586326	0.444067
H238	H	0.465190	0.235528	-0.311030
H239	H	0.798523	0.568861	0.022304
H240	H	1.131857	0.902195	0.355637
Br241	Br	0.280865	0.467988	-0.207259
Br242	Br	0.614198	0.801322	0.126074
Br243	Br	0.947532	1.134655	0.459408
H244	H	0.914524	0.235334	-0.861547
H245	H	1.247857	0.568667	-0.528213
H246	H	1.581191	0.902001	-0.194880
Br247	Br	0.875527	0.777436	-0.431632
Br248	Br	1.208861	1.110770	-0.098299
Br249	Br	1.542194	1.444103	0.235034
H250	H	0.832709	0.442455	-0.540989
H251	H	1.166043	0.775788	-0.207656
H252	H	1.499376	1.109121	0.125678
H253	H	0.832726	0.442241	-1.063340
H254	H	1.166059	0.775575	-0.730006
H255	H	1.499393	1.108908	-0.396673
Br256	Br	1.033306	0.932997	-0.262757
Br257	Br	1.366640	1.266330	0.070576
Br258	Br	1.699973	1.599664	0.403910
Br259	Br	0.893756	0.513736	-0.725071
Br260	Br	1.227089	0.847070	-0.391738
Br261	Br	1.560423	1.180403	-0.058404
Br262	Br	0.126933	0.245014	-0.396517
Br263	Br	0.460266	0.578348	-0.063184
Br264	Br	0.793599	0.911681	0.270150
Br265	Br	0.810950	0.468118	-0.677454
Br266	Br	1.144283	0.801451	-0.344120
Br267	Br	1.477617	1.134784	-0.010787
H268	H	0.914524	0.235381	-0.742835
H269	H	1.247857	0.568714	-0.409501
H270	H	1.581190	0.902048	-0.076168
H271	H	0.978231	0.270585	-0.541045
H272	H	1.311565	0.603918	-0.207712
H273	H	1.644898	0.937251	0.125621
Br274	Br	0.684505	0.468078	-0.207226
Br275	Br	1.017839	0.801411	0.126107
Br276	Br	1.351172	1.134744	0.459440
Br277	Br	0.775017	0.779173	-0.331981
Br278	Br	1.108351	1.112506	0.001352
Br279	Br	1.441684	1.445839	0.334685
Br280	Br	1.000011	0.244711	-0.926926
Br281	Br	1.333344	0.578044	-0.593593
Br282	Br	1.666677	0.911377	-0.260259
H283	H	0.464955	0.477615	-0.292732
H284	H	0.798288	0.810948	0.040601
H285	H	1.131622	1.144282	0.373935
H286	H	0.985593	0.793491	-0.368442
H287	H	1.318926	1.126824	-0.035109
H288	H	1.652259	1.460158	0.298224
Br289	Br	0.684803	0.245152	-0.396491
Br290	Br	1.018136	0.578486	-0.063157
Br291	Br	1.351469	0.911819	0.270176
Br292	Br	1.033380	0.778886	-0.263816
Br293	Br	1.366714	1.112219	0.069518
Br294	Br	1.700047	1.445552	0.402851
Br295	Br	0.530268	0.468049	-0.207246
Br296	Br	0.863601	0.801383	0.126087
Br297	Br	1.196935	1.134716	0.459420
H298	H	0.986172	0.920561	-0.367582
H299	H	1.319506	1.253894	-0.034249
H300	H	1.652839	1.587228	0.299084
Br301	Br	1.000016	0.244654	-1.081161
Br302	Br	1.333350	0.577987	-0.747828
Br303	Br	1.666683	0.911320	-0.414494
H304	H	0.919614	0.920622	-0.198042
H305	H	1.252947	1.253955	0.135292
H306	H	1.586280	1.587289	0.468625
H307	H	0.923607	0.793292	-0.199584
H308	H	1.256941	1.126625	0.133749
H309	H	1.590274	1.459959	0.467082
Br310	Br	0.530567	0.245112	-0.396492
Br311	Br	0.863900	0.578445	-0.063159
Br312	Br	1.197234	0.911779	0.270174
H313	H	0.263369	0.270724	-0.374722
H314	H	0.596702	0.604057	-0.041389
H315	H	0.930036	0.937390	0.291944
H316	H	0.832730	0.442299	-0.944629
H317	H	1.166063	0.775632	-0.611296
H318	H	1.499396	1.108966	-0.277962
Br319	Br	0.893745	0.513671	-0.879304
Br320	Br	1.227078	0.847005	-0.545970
Br321	Br	1.560412	1.180338	-0.212637
