data_functionalizedCrystal
_audit_creation_method	'MofGen! by Chris Wilmer'
_symmetry_space_group_name_H-M	'P1'
_symmetry_Int_Tables_number	1
_symmetry_cell_setting	triclinic
loop_
_symmetry_equiv_pos_as_xyz
  x,y,z
_cell_length_a	15.944493
_cell_length_b	15.944551
_cell_length_c	14.586319
_cell_angle_alpha	89.995256
_cell_angle_beta	89.997059
_cell_angle_gamma	83.486891
loop_
_atom_site_label
_atom_site_type_symbol
_atom_site_fract_x
_atom_site_fract_y
_atom_site_fract_z
O1	O	1.114553	0.108099	-0.076230
O2	O	0.869997	0.121506	-0.076235
O3	O	0.998954	-0.007474	-0.076224
O4	O	0.985597	0.237079	-0.076241
O5	O	0.998945	-0.007475	0.076257
O6	O	0.869988	0.121504	0.076246
O7	O	1.114544	0.108097	0.076251
Cu8	Cu	0.992265	0.114801	0.090171
Cu9	Cu	0.992276	0.114803	-0.090155
O10	O	0.985588	0.237077	0.076240
C11	C	0.838698	0.120957	0.000005
C12	C	0.745449	0.119314	0.000003
C13	C	0.998395	-0.038768	0.000016
C14	C	0.996732	-0.132014	0.000017
C15	C	0.509689	0.195235	-0.000002
C16	C	0.459127	0.154293	0.075185
C17	C	0.574728	0.116270	0.000005
C18	C	0.459140	0.154276	-0.075149
C19	C	0.409819	0.113336	0.000003
C20	C	0.525394	0.075350	0.075255
C21	C	0.525410	0.075345	-0.075146
C22	C	0.474880	0.034345	0.000060
C23	C	0.669728	0.117963	0.000007
C24	C	0.314821	0.111637	0.000008
C25	C	0.912826	-0.346853	0.000003
C26	C	0.951785	-0.407880	0.075186
C27	C	0.993725	-0.302739	0.000010
C28	C	0.951813	-0.407861	-0.075148
C29	C	0.990814	-0.467651	-0.000001
C30	C	1.032706	-0.362537	0.075255
C31	C	1.032723	-0.362513	-0.075147
C32	C	1.071741	-0.423521	0.000055
C33	C	0.995399	-0.207737	0.000017
C34	C	0.989146	-0.562652	-0.000002
C35	C	1.145844	0.108646	0.000009
C36	C	1.239092	0.110289	0.000004
C37	C	0.986147	0.268372	-0.000003
C38	C	0.987809	0.361617	-0.000009
N39	N	0.992264	0.114798	0.217003
N40	N	0.992284	0.114798	-0.216987
C41	C	1.049385	0.057705	0.452014
C42	C	1.049387	0.057703	0.547995
C43	C	0.935157	0.171894	0.547995
C44	C	0.935151	0.171891	0.452016
C45	C	0.992270	0.114798	0.404027
C46	C	0.992278	0.114799	0.595988
C47	C	0.992280	0.114797	0.700055
C48	C	0.992267	0.114798	0.299954
H49	H	0.430185	0.187640	0.138745
O50	O	1.104779	0.002110	0.405459
C51	C	1.091111	-0.081031	0.428973
H52	H	1.023856	-0.081442	0.455352
H53	H	1.100771	-0.123209	0.365877
H54	H	1.137652	-0.105673	0.484702
H55	H	1.066891	-0.342555	0.138886
H56	H	1.095894	0.011212	0.587063
H57	H	0.459415	-0.033726	0.000108
O58	O	1.151931	-0.463067	0.000265
C59	C	1.194259	-0.439945	0.079624
H60	H	1.146031	-0.418031	0.134775
H61	H	1.237600	-0.496645	0.105865
H62	H	1.233371	-0.386466	0.062405
O63	O	1.073391	-0.338520	-0.151068
C64	C	1.030535	-0.361365	-0.230183
H65	H	0.962051	-0.368116	-0.212171
H66	H	1.032591	-0.310438	-0.284739
H67	H	1.062307	-0.424011	-0.257612
O68	O	0.879646	0.227240	0.594716
C69	C	0.827817	0.182237	0.650232
H70	H	0.861268	0.116521	0.664613
H71	H	0.814538	0.217293	0.717723
H72	H	0.765734	0.176505	0.613254
O73	O	0.528302	0.276389	0.000238
C74	C	0.494363	0.317727	0.079644
H75	H	0.485060	0.268952	0.134776
H76	H	0.539613	0.362741	0.105876
H77	H	0.430976	0.354914	0.062491
O78	O	0.559905	0.035654	0.151141
C79	C	0.648071	0.037721	0.150232
H80	H	0.664054	0.092462	0.105672
H81	H	0.671335	0.046524	0.223124
H82	H	0.680117	-0.024150	0.121168
O83	O	0.559911	0.035721	-0.151067
C84	C	0.525974	0.077577	-0.230182
H85	H	0.501365	0.145502	-0.212172
H86	H	0.577199	0.077339	-0.284739
H87	H	0.471916	0.043737	-0.257612
O88	O	0.879635	0.227437	0.405538
C89	C	0.829213	0.277820	0.468472
H90	H	0.863652	0.278789	0.536886
H91	H	0.816399	0.344894	0.440729
H92	H	0.766817	0.250520	0.478691
H93	H	0.430205	0.187641	-0.138705
H94	H	0.917564	-0.427982	0.138746
O95	O	0.832704	-0.307132	0.000247
C96	C	0.790352	-0.330123	0.079654
H97	H	0.838569	-0.352124	0.134783
H98	H	0.747143	-0.273329	0.105890
H99	H	0.751097	-0.383504	0.062499
H100	H	0.917589	-0.427930	-0.138714
