data_functionalizedCrystal
_audit_creation_method	'MofGen! by Chris Wilmer'
_symmetry_space_group_name_H-M	'P1'
_symmetry_Int_Tables_number	1
_symmetry_cell_setting	triclinic
loop_
_symmetry_equiv_pos_as_xyz
  x,y,z
_cell_length_a	14.519709
_cell_length_b	13.596369
_cell_length_c	14.519709
_cell_angle_alpha	90.006965
_cell_angle_beta	96.319855
_cell_angle_gamma	90.005176
loop_
_atom_site_label
_atom_site_type_symbol
_atom_site_fract_x
_atom_site_fract_y
_atom_site_fract_z
O1	O	-1.223863	0.081653	0.120893
O2	O	-0.955386	0.081686	0.135130
O3	O	-1.096742	0.081660	-0.006227
O4	O	-1.082506	0.081680	0.262250
O5	O	-1.096740	-0.081923	-0.006236
O6	O	-0.955383	-0.081896	0.135121
O7	O	-1.223860	-0.081929	0.120885
Zn8	Zn	-1.089621	-0.107885	0.128001
Zn9	Zn	-1.089624	0.107642	0.128013
O10	O	-1.082504	-0.081903	0.262241
C11	C	-0.921025	-0.000101	0.134462
C12	C	-0.818643	-0.000089	0.132474
C13	C	-1.096078	-0.000131	-0.040591
C14	C	-1.094090	-0.000132	-0.142972
C15	C	-0.443748	-0.000130	0.125154
C16	C	-0.548056	-0.000118	0.127187
C17	C	-0.631192	-0.000108	0.128814
C18	C	-0.735507	-0.000098	0.130847
C19	C	-0.258221	-0.000137	0.121553
C20	C	-0.360602	-0.000136	0.123541
N21	N	-1.089627	0.254734	0.128014
N22	N	-1.089626	-0.254977	0.127993
C23	C	-1.089622	0.656025	0.128004
C24	C	-1.089620	0.544374	0.128010
C25	C	-1.089624	0.455383	0.128009
C26	C	-1.089624	0.343725	0.128015
C27	C	-1.086770	-0.000105	-0.517868
C28	C	-1.088803	-0.000113	-0.413560
C29	C	-1.090430	-0.000119	-0.330423
C30	C	-1.092463	-0.000125	-0.226109
C31	C	-1.083168	-0.000109	0.296605
C32	C	-1.085156	-0.000103	0.398987
