data_functionalizedCrystal
_audit_creation_method	'MofGen! by Chris Wilmer'
_symmetry_space_group_name_H-M	'P1'
_symmetry_Int_Tables_number	1
_symmetry_cell_setting	triclinic
loop_
_symmetry_equiv_pos_as_xyz
  x,y,z
_cell_length_a	8.634740
_cell_length_b	7.681481
_cell_length_c	8.559649
_cell_angle_alpha	94.930900
_cell_angle_beta	85.174486
_cell_angle_gamma	83.381330
loop_
_atom_site_label
_atom_site_type_symbol
_atom_site_fract_x
_atom_site_fract_y
_atom_site_fract_z
O1	O	1.969394	0.146417	0.524282
O2	O	1.525522	0.146421	0.481380
O3	O	1.786564	0.146417	0.276249
O4	O	1.708352	0.146421	0.729412
O5	O	1.818701	-0.146441	0.250934
O6	O	1.557660	-0.146438	0.456064
O7	O	2.001532	-0.146441	0.498966
Zn8	Zn	1.784698	-0.192937	0.473496
Zn9	Zn	1.742355	0.192917	0.506850
O10	O	1.740490	-0.146437	0.704097
C11	C	1.485292	-0.000008	0.459003
C12	C	1.317540	-0.000007	0.430025
N13	N	1.813608	-0.456271	0.450734
C14	C	2.041762	-0.000008	0.521343
C15	C	2.209512	0.000002	0.550322
C16	C	1.808559	-0.000009	0.204974
C17	C	1.826201	0.000001	0.030311
N18	N	1.713460	0.456251	0.529602
C19	C	1.718494	-0.000007	0.775372
C20	C	1.700851	-0.000006	0.950036
H21	H	1.245362	-0.000013	0.675481
Br22	Br	1.984029	-0.581609	0.316577
Br23	Br	1.257797	-0.000019	0.221397
H24	H	1.947025	-0.000014	-0.034595
H25	H	1.611230	-0.468551	0.610101
H26	H	1.580037	-0.000010	0.014933
