data_functionalizedCrystal
_audit_creation_method	'MofGen! by Chris Wilmer'
_symmetry_space_group_name_H-M	'P1'
_symmetry_Int_Tables_number	1
_symmetry_cell_setting	triclinic
loop_
_symmetry_equiv_pos_as_xyz
  x,y,z
_cell_length_a	12.827892
_cell_length_b	12.827893
_cell_length_c	12.827885
_cell_angle_alpha	89.978811
_cell_angle_beta	90.029976
_cell_angle_gamma	89.986589
loop_
_atom_site_label
_atom_site_type_symbol
_atom_site_fract_x
_atom_site_fract_y
_atom_site_fract_z
Zn1	Zn	-0.416032	-1.597671	0.590901
Zn2	Zn	0.083968	-1.097671	1.090901
Zn3	Zn	-0.590810	-1.597566	0.416160
Zn4	Zn	-0.090810	-1.097566	0.916160
Zn5	Zn	-0.416078	-1.422912	0.416169
Zn6	Zn	0.083922	-0.922912	0.916169
Zn7	Zn	-0.590727	-1.422898	0.590855
Zn8	Zn	-0.090727	-0.922898	1.090855
O9	O	-0.503412	-1.510262	0.503521
O10	O	-0.003412	-1.010262	1.003521
O11	O	-0.439233	-1.743893	0.567737
O12	O	0.060767	-1.243893	1.067737
O13	O	-0.567685	-1.574359	0.269925
O14	O	-0.067685	-1.074359	0.769925
O15	O	-0.269836	-1.446144	0.439370
O16	O	0.230164	-0.946144	0.939370
O17	O	-0.567641	-1.743816	0.439356
O18	O	-0.067641	-1.243816	0.939356
O19	O	-0.269802	-1.574539	0.567745
O20	O	0.230198	-1.074539	1.067745
O21	O	-0.439310	-1.446042	0.269931
O22	O	0.060690	-0.946042	0.769931
O23	O	-0.439230	-1.276674	0.439325
O24	O	0.060770	-0.776674	0.939325
O25	O	-0.567499	-1.446120	0.737097
O26	O	-0.067499	-0.946120	1.237097
O27	O	-0.567543	-1.276664	0.567666
O28	O	-0.067543	-0.776664	1.067666
O29	O	-0.439152	-1.574525	0.737131
O30	O	0.060848	-1.074525	1.237131
O31	O	-0.737035	-1.574346	0.439311
O32	O	-0.237035	-1.074346	0.939311
O33	O	-0.736974	-1.446018	0.567658
O34	O	-0.236974	-0.946018	1.067658
C35	C	-0.503383	-1.238752	0.503492
C36	C	-0.003383	-0.738752	1.003492
C37	C	-0.503396	-1.122599	0.503504
C38	C	-0.003396	-0.622599	1.003504
C39	C	-0.439967	-1.070852	0.567129
C40	C	0.060033	-0.570852	1.067129
C41	C	-0.439979	-0.950802	0.567143
C42	C	0.060021	-0.450802	1.067143
C43	C	-0.774922	-1.510197	0.503502
C44	C	-0.274922	-1.010197	1.003502
C45	C	-0.891075	-1.510265	0.503528
C46	C	-0.391075	-1.010265	1.003528
C47	C	-0.942864	-1.446750	0.566992
C48	C	-0.442864	-0.946750	1.066992
C49	C	-1.062914	-1.446819	0.567021
C50	C	-0.562914	-0.946819	1.067021
C51	C	-0.230841	-1.510355	0.503563
C52	C	0.269159	-1.010355	1.003563
C53	C	-0.114688	-1.510395	0.503581
C54	C	0.385312	-1.010395	1.003581
C55	C	-0.503311	-1.510333	0.776091
C56	C	-0.003311	-1.010333	1.276091
C57	C	-0.503269	-1.510363	0.892245
C58	C	-0.003269	-1.010363	1.392245
C59	C	-0.503432	-0.782832	0.503542
C60	C	-0.003432	-0.282832	1.003542
C61	C	-0.503419	-0.898985	0.503530
C62	C	-0.003419	-0.398985	1.003530
C63	C	-0.503436	-1.510251	0.232011
C64	C	-0.003436	-1.010251	0.732011
C65	C	-0.503185	-1.510423	0.115859
C66	C	-0.003185	-1.010423	0.615859
C67	C	-0.439746	-1.573909	0.944046
C68	C	0.060254	-1.073909	1.444046
C69	C	-0.439700	-1.573942	1.064097
C70	C	0.060300	-1.073942	1.564097
H71	H	-0.557732	-0.943479	0.449062
H72	H	-0.057732	-0.443479	0.949062
H73	H	-0.385678	-0.906301	0.621617
H74	H	0.114322	-0.406301	1.121617
O75	O	-0.950068	-1.582380	0.431601
O76	O	-0.450068	-1.082380	0.931601
H77	H	-0.999889	-1.535630	0.378452
H78	H	-0.499889	-1.035630	0.878452
H79	H	-0.385650	-1.115427	0.621585
H80	H	0.114350	-0.615427	1.121585
H81	H	-0.557575	-1.456020	1.071317
H82	H	-0.057575	-0.956020	1.571317
O83	O	-0.575261	-1.438318	0.951212
O84	O	-0.075261	-0.938318	1.451212
H85	H	-0.628377	-1.485126	1.000934
H86	H	-0.128377	-0.985126	1.500934
H87	H	-0.898328	-1.392316	0.621301
H88	H	-0.398328	-0.892316	1.121301
H89	H	-0.557707	-1.078024	0.449042
H90	H	-0.057707	-0.578024	0.949042
O91	O	-1.121895	-1.374774	0.638990
O92	O	-0.621895	-0.874774	1.138990
H93	H	-1.206931	-1.386124	0.627710
H94	H	-0.706931	-0.886124	1.127710
H95	H	-1.070159	-1.564780	0.449249
H96	H	-0.570159	-1.064780	0.949249
H97	H	-0.385392	-1.628285	0.899519
H98	H	0.114608	-1.128285	1.399519
O99	O	-0.367637	-1.645994	1.123092
O100	O	0.132363	-1.145994	1.623092
H101	H	-0.378895	-1.634699	1.208125
H102	H	0.121105	-1.134699	1.708125
