data_functionalizedCrystal
_audit_creation_method	'MofGen! by Chris Wilmer'
_symmetry_space_group_name_H-M	'P1'
_symmetry_Int_Tables_number	1
_symmetry_cell_setting	triclinic
loop_
_symmetry_equiv_pos_as_xyz
  x,y,z
_cell_length_a	20.875556
_cell_length_b	14.560438
_cell_length_c	14.560438
_cell_angle_alpha	60.005730
_cell_angle_beta	61.749153
_cell_angle_gamma	92.977570
loop_
_atom_site_label
_atom_site_type_symbol
_atom_site_fract_x
_atom_site_fract_y
_atom_site_fract_z
Zr1	Zr	-0.084149	0.878507	1.005313
O2	O	-0.186566	0.915849	1.005302
O3	O	-0.052755	0.734199	1.005307
O4	O	-0.186567	0.724260	1.196886
O5	O	0.052802	1.084762	0.662613
O6	O	-0.186565	0.724265	1.348021
O7	O	-0.052754	0.925788	0.813723
O8	O	0.052800	0.742043	1.005322
O9	O	-0.186564	1.066984	1.005313
O10	O	-0.039362	0.833176	1.118107
O11	O	0.039412	0.951812	0.892544
O12	O	-0.118135	0.940111	1.118104
O13	O	-0.039361	1.058748	0.892541
Zr14	Zr	0.084203	1.132060	1.005355
Zr15	Zr	-0.084146	0.878516	1.246357
Zr16	Zr	0.084200	1.132052	0.764310
Zr17	Zr	-0.084145	1.119549	1.005330
Zr18	Zr	0.084199	0.891019	1.005337
O19	O	0.052809	1.276369	1.005361
O20	O	-0.186563	0.915861	1.348035
O21	O	0.052805	1.276358	0.662627
O22	O	0.186620	1.094718	1.005366
O23	O	-0.052751	0.734210	1.348040
O24	O	0.186616	1.094707	0.662632
O25	O	-0.052748	0.925806	1.348054
O26	O	0.186621	1.286308	0.813782
O27	O	0.186619	1.286303	0.662646
O28	O	0.052808	1.084780	1.196945
O29	O	-0.186562	1.066990	1.196911
O30	O	0.186616	0.943578	0.813757
O31	O	0.186618	0.943584	1.005355
O32	O	0.052802	0.742050	1.196920
O33	O	-0.052749	1.268518	0.813748
O34	O	-0.052747	1.268525	1.005346
O35	O	0.118188	1.070457	0.892564
O36	O	0.039415	0.951820	1.118126
O37	O	-0.039358	1.058755	1.118123
O38	O	0.039416	1.177392	0.892561
C39	C	0.000022	0.703778	1.005312
C40	C	0.000021	0.601449	1.005304
C41	C	-0.210551	0.989634	1.005304
C42	C	-0.282019	0.984322	1.005293
C43	C	0.058184	0.461547	1.005353
C44	C	0.058176	0.557711	1.005328
C45	C	-0.058136	0.549011	1.005319
C46	C	-0.058131	0.452845	1.005353
C47	C	0.125338	0.466574	1.005353
C48	C	0.125330	0.562737	1.005328
C49	C	-0.315590	1.065090	1.005302
C50	C	-0.382752	1.060093	1.005321
C51	C	-0.416339	0.974331	1.005322
C52	C	-0.382766	0.893555	1.005318
C53	C	-0.315608	0.898549	1.005308
C54	C	-0.617196	0.950463	1.005360
C55	C	-0.684357	0.945477	1.005365
C56	C	-0.684339	1.112015	1.005371
C57	C	-0.617177	1.117005	1.005354
C58	C	-0.583612	1.036225	1.005356
N59	N	-0.484988	0.969223	1.005338
N60	N	-0.514968	1.041330	1.005350
C61	C	0.210605	1.020934	1.005364
C62	C	0.282073	1.026245	1.005374
C63	C	0.000023	1.005274	0.703824
C64	C	0.000022	1.005270	0.601495
C65	C	0.000032	1.306790	1.005356
C66	C	0.000033	1.409119	1.005363
C67	C	0.041141	0.949453	0.553418
C68	C	0.041148	0.949470	0.457253
C69	C	-0.041088	1.061122	0.457253
C70	C	-0.041090	1.061111	0.553410
C71	C	0.088616	0.884987	0.553421
C72	C	0.088624	0.885004	0.457256
C73	C	0.000030	1.005294	1.306843
C74	C	0.000031	1.005298	1.409173
C75	C	-0.210553	0.688138	1.306791
C76	C	-0.282021	0.580501	1.409103
C77	C	0.000026	0.703788	1.306821
C78	C	0.000025	0.601463	1.409143
C79	C	0.210602	1.020924	0.703854
C80	C	0.282069	1.026232	0.601535
C81	C	0.000028	1.306780	0.703846
C82	C	0.000029	1.409105	0.601524
C83	C	0.210606	1.322430	0.703876
C84	C	0.282075	1.430066	0.601564
C85	C	-0.210548	0.989644	1.306813
C86	C	-0.282015	0.984336	1.409133
C87	C	-0.356709	0.585773	1.457159
C88	C	-0.423868	0.484646	1.553305
C89	C	-0.416337	0.378248	1.601388
C90	C	-0.341641	0.372980	1.553329
C91	C	-0.274484	0.474106	1.457190
C92	C	0.356758	1.090666	0.553485
C93	C	0.423915	1.095677	0.457331
C94	C	0.416382	1.036245	0.409236
C95	C	0.341685	0.971809	0.457291
C96	C	0.274529	0.966805	0.553436
C97	C	0.274519	1.536443	0.553506
C98	C	0.341665	1.637587	0.457359
C99	C	0.416366	1.632353	0.409280
C100	C	0.423921	1.525965	0.457342
C101	C	0.356776	1.424823	0.553480
C102	C	-0.274456	1.043775	1.457203
C103	C	-0.341601	1.038784	1.553355
C104	C	-0.416303	0.974361	1.601430
C105	C	-0.423860	0.914915	1.553355
C106	C	-0.356717	0.919900	1.457211
C107	C	-0.041093	0.491459	1.457204
C108	C	-0.041096	0.395318	1.553354
C109	C	0.041144	0.519198	1.553371
C110	C	0.041142	0.615336	1.457229
C111	C	-0.088571	0.419938	1.457191
C112	C	-0.088574	0.323796	1.553341
H113	H	-0.105488	0.410152	1.005377
Cl114	Cl	-0.366198	0.719516	1.396745
H115	H	0.471071	1.040329	0.330949
H116	H	0.074619	0.530479	1.592534
Cl117	Cl	0.213864	0.679392	0.865755
H118	H	-0.213636	1.096240	1.418071
Cl119	Cl	-0.726541	1.213557	1.005374
Cl120	Cl	0.517810	1.176683	0.396945
Cl121	Cl	-0.500773	0.251127	1.722247
Cl122	Cl	-0.517778	0.833943	1.613793
Cl123	Cl	-0.092771	1.131305	0.613828
Cl124	Cl	0.180636	0.885787	0.613838
Cl125	Cl	-0.040196	0.437012	1.309323
H126	H	-0.151447	0.415249	1.495011
H127	H	-0.105491	0.584624	1.005311
Cl128	Cl	-0.726582	0.837652	1.005372
H129	H	0.335562	0.923423	0.418117
H130	H	-0.074561	1.106585	0.418092
Cl131	Cl	-0.575002	0.848920	1.005345
H132	H	-0.335432	1.087198	1.592480
Cl133	Cl	0.366289	1.291097	0.613892
H134	H	-0.149371	0.268366	1.649106
Cl135	Cl	0.180616	1.543053	0.613928
H136	H	0.484752	1.521721	0.418181
H137	H	-0.484682	0.488958	1.592419
H138	H	0.057282	0.795612	0.649182
H139	H	-0.062161	0.273558	1.515517
Cl140	Cl	0.092824	0.753626	1.396829
H141	H	-0.288271	0.832787	1.005286
H142	H	-0.470970	0.970312	1.679716
Cl143	Cl	-0.332187	0.239213	1.613780
H144	H	-0.589837	1.186838	1.005358
Cl145	Cl	-0.424992	0.785737	1.005324
Cl146	Cl	0.107213	0.535496	1.149308
H147	H	-0.213672	0.469798	1.418066
Cl148	Cl	0.332149	1.771317	0.396957
H149	H	0.362907	1.139067	0.592629
Cl150	Cl	-0.366233	0.845180	1.396779
H151	H	0.178745	0.487336	0.912102
Cl152	Cl	0.116395	0.355874	1.144937
Cl153	Cl	-0.273369	1.172915	1.005293
H154	H	0.471034	1.714718	0.330997
H155	H	-0.410082	1.125861	1.005331
Cl156	Cl	0.185687	0.950575	0.495055
H157	H	0.149424	0.934377	0.361496
H158	H	0.062205	0.793021	0.495065
