data_functionalizedCrystal
_audit_creation_method	'MofGen! by Chris Wilmer'
_symmetry_space_group_name_H-M	'P1'
_symmetry_Int_Tables_number	1
_symmetry_cell_setting	triclinic
loop_
_symmetry_equiv_pos_as_xyz
  x,y,z
_cell_length_a	14.853566
_cell_length_b	14.853559
_cell_length_c	16.176319
_cell_angle_alpha	89.995393
_cell_angle_beta	89.995436
_cell_angle_gamma	83.632934
loop_
_atom_site_label
_atom_site_type_symbol
_atom_site_fract_x
_atom_site_fract_y
_atom_site_fract_z
O1	O	1.196365	0.117702	-0.068688
O2	O	1.696365	0.617702	0.431312
O3	O	0.933905	0.131724	-0.068701
O4	O	1.433905	0.631724	0.431299
O5	O	1.072150	-0.006517	-0.068693
O6	O	1.572150	0.493483	0.431307
O7	O	1.058121	0.255943	-0.068696
O8	O	1.558121	0.755943	0.431304
O9	O	1.072131	-0.006526	0.068800
O10	O	1.572131	0.493474	0.568800
O11	O	0.933886	0.131715	0.068792
O12	O	1.433886	0.631715	0.568792
O13	O	1.196346	0.117693	0.068805
O14	O	1.696346	0.617693	0.568805
Cu15	Cu	1.065115	0.124703	0.081353
Cu16	Cu	1.565115	0.624703	0.581353
Cu17	Cu	1.065137	0.124714	-0.081249
Cu18	Cu	1.565137	0.624714	0.418751
O19	O	1.058102	0.255934	0.068798
O20	O	1.558102	0.755934	0.568798
C21	C	0.900307	0.131085	0.000044
C22	C	1.400307	0.631085	0.500044
C23	C	0.800223	0.129181	0.000039
C24	C	1.300223	0.629181	0.500039
C25	C	0.377049	0.121135	-0.074894
C26	C	0.877049	0.621135	0.425106
C27	C	0.377050	0.121126	0.075006
C28	C	0.877050	0.621126	0.575006
C29	C	0.471084	0.122914	0.075004
C30	C	0.971084	0.622914	0.575004
C31	C	0.518105	0.123813	0.000051
C32	C	1.018105	0.623813	0.500051
C33	C	0.471092	0.122926	-0.074899
C34	C	0.971092	0.622926	0.425101
C35	C	0.518103	0.123811	0.149952
C36	C	1.018103	0.623811	0.649952
C37	C	0.612142	0.125599	0.149953
C38	C	1.112142	0.625599	0.649953
C39	C	0.659166	0.126492	0.074999
C40	C	1.159166	0.626492	0.574999
C41	C	0.612147	0.125604	0.000046
C42	C	1.112147	0.625604	0.500046
C43	C	0.659168	0.126503	-0.074906
C44	C	1.159168	0.626503	0.425094
C45	C	0.612152	0.125608	-0.149860
C46	C	1.112152	0.625608	0.350140
C47	C	0.518115	0.123819	-0.149853
C48	C	1.018115	0.623819	0.350147
C49	C	0.753203	0.128281	0.074991
C50	C	1.253203	0.628281	0.574991
C51	C	0.753210	0.128293	-0.074911
C52	C	1.253210	0.628293	0.425089
C53	C	1.071506	-0.040111	0.000052
C54	C	1.571506	0.459889	0.500052
C55	C	1.069605	-0.140195	0.000047
C56	C	1.569605	0.359805	0.500047
C57	C	1.061552	-0.563365	-0.074901
C58	C	1.561552	-0.063365	0.425099
C59	C	1.061531	-0.563369	0.074999
C60	C	1.561531	-0.063369	0.574999
C61	C	1.063325	-0.469336	0.075000
C62	C	1.563325	0.030664	0.575000
C63	C	1.064230	-0.422313	0.000049
C64	C	1.564230	0.077687	0.500049
C65	C	1.063343	-0.469323	-0.074902
C66	C	1.563343	0.030677	0.425098
C67	C	1.064203	-0.422318	0.149951
C68	C	1.564203	0.077682	0.649951
C69	C	1.065996	-0.328279	0.149954
C70	C	1.565996	0.171721	0.649954
C71	C	1.066908	-0.281255	0.075003
C72	C	1.566908	0.218745	0.575003
C73	C	1.066021	-0.328270	0.000048
C74	C	1.566021	0.171730	0.500048
C75	C	1.066927	-0.281247	-0.074903
C76	C	1.566927	0.218753	0.425097
C77	C	1.066047	-0.328262	-0.149859
C78	C	1.566047	0.171738	0.350141
C79	C	1.064255	-0.422299	-0.149854
C80	C	1.564255	0.077701	0.350146
C81	C	1.068700	-0.187218	0.074998
C82	C	1.568700	0.312782	0.574998
C83	C	1.068718	-0.187205	-0.074905
C84	C	1.568718	0.312795	0.425095
C85	C	1.229945	0.118332	0.000059
C86	C	1.729945	0.618332	0.500059
C87	C	1.330028	0.120236	0.000058
C88	C	1.830028	0.620236	0.500058
C89	C	1.058745	0.289528	0.000051
C90	C	1.558745	0.789528	0.500051
C91	C	1.060646	0.389612	0.000050
C92	C	1.560646	0.889612	0.500050
N93	N	1.065105	0.124695	0.195718
N94	N	1.565105	0.624695	0.695718
N95	N	1.065154	0.124714	-0.195614
N96	N	1.565154	0.624714	0.304386
C97	C	1.126339	0.063507	0.238986
C98	C	1.626339	0.563507	0.738986
C99	C	1.126343	0.063506	0.325533
C100	C	1.626343	0.563506	0.825533
C101	C	1.065118	0.124698	0.368811
C102	C	1.565118	0.624698	0.868811
C103	C	1.003878	0.185890	0.325537
C104	C	1.503878	0.685890	0.825537
C105	C	1.003870	0.185885	0.238992
C106	C	1.503870	0.685885	0.738992
C107	C	1.003909	0.185907	0.674565
C108	C	1.503909	0.685907	1.174565
C109	C	1.003924	0.185908	0.761117
C110	C	1.503924	0.685908	1.261117
C111	C	1.126382	0.063527	0.761107
C112	C	1.626382	0.563527	1.261107
C113	C	1.126374	0.063523	0.674561
C114	C	1.626374	0.563523	1.174561
C115	C	1.065131	0.124711	0.631295
C116	C	1.565131	0.624711	1.131295
C117	C	1.065126	0.124710	0.537451
C118	C	1.565126	0.624710	1.037451
C119	C	1.065127	0.124704	0.462653
C120	C	1.565127	0.624704	0.962653
H121	H	0.791478	0.129019	0.136018
H122	H	1.291478	0.629019	0.636018
Br123	Br	1.069889	-0.123415	0.176714
Br124	Br	1.569889	0.376585	0.676714
H125	H	1.066778	-0.289963	-0.210884
H126	H	1.566778	0.210037	0.289116
H127	H	0.954064	0.235740	0.796352
H128	H	1.454064	0.735740	1.296352
H129	H	1.063538	-0.460586	-0.210879
H130	H	1.563538	0.039414	0.289121
Br131	Br	1.209472	-0.019521	0.615829
Br132	Br	1.709472	0.480479	1.115829
Br133	Br	1.062948	-0.486135	0.251663
Br134	Br	1.562948	0.013865	0.751663
Br135	Br	1.069958	-0.123396	-0.176629
Br136	Br	1.569958	0.376604	0.323371
Br137	Br	0.920778	0.268932	0.384268
Br138	Br	1.420778	0.768932	0.884268
Br139	Br	1.060371	-0.627168	-0.176622
Br140	Br	1.560371	-0.127168	0.323378
Br141	Br	1.209441	-0.019538	0.180261
Br142	Br	1.709441	0.480462	0.680261
Br143	Br	0.313250	0.119888	-0.176613
Br144	Br	0.813250	0.619888	0.323387
H145	H	1.176203	0.013681	0.360761
H146	H	1.676203	0.513681	0.860761
Br147	Br	0.454284	0.122605	0.251667
Br148	Br	0.954284	0.622605	0.751667
Br149	Br	0.817019	0.129504	-0.176638
Br150	Br	1.317019	0.629504	0.323362
H151	H	1.176247	0.013702	0.796343
H152	H	1.676247	0.513702	1.296343
H153	H	0.650415	0.126326	0.210985
H154	H	1.150415	0.626326	0.710985
H155	H	1.060788	-0.601661	0.136021
H156	H	1.560788	-0.101661	0.636021
H157	H	1.066716	-0.290008	0.210988
H158	H	1.566716	0.209992	0.710988
H159	H	0.954045	0.235729	0.639345
H160	H	1.454045	0.735729	1.139345
H161	H	0.650448	0.126347	-0.210887
H162	H	1.150448	0.626347	0.289113
Br163	Br	0.454308	0.122562	-0.251566
Br164	Br	0.954308	0.622562	0.248434
Br165	Br	0.920758	0.268925	0.180271
Br166	Br	1.420758	0.768925	0.680271
Br167	Br	0.313234	0.119919	0.176723
Br168	Br	0.813234	0.619919	0.676723
