data_functionalizedCrystal
_audit_creation_method	'MofGen! by Chris Wilmer'
_symmetry_space_group_name_H-M	'P1'
_symmetry_Int_Tables_number	1
_symmetry_cell_setting	triclinic
loop_
_symmetry_equiv_pos_as_xyz
  x,y,z
_cell_length_a	27.732048
_cell_length_b	17.038272
_cell_length_c	16.098524
_cell_angle_alpha	87.129416
_cell_angle_beta	93.089673
_cell_angle_gamma	93.122894
loop_
_atom_site_label
_atom_site_type_symbol
_atom_site_fract_x
_atom_site_fract_y
_atom_site_fract_z
O1	O	0.106966	-1.039236	0.069169
O2	O	0.606966	-0.539236	0.569169
O3	O	0.105301	-0.811626	0.069193
O4	O	0.605301	-0.311626	0.569193
O5	O	0.036060	-0.932499	0.069164
O6	O	0.536060	-0.432499	0.569164
O7	O	0.176207	-0.918362	0.069197
O8	O	0.676207	-0.418362	0.569197
O9	O	0.031944	-0.926297	-0.069350
O10	O	0.531944	-0.426297	0.430650
O11	O	0.101185	-0.805423	-0.069321
O12	O	0.601185	-0.305423	0.430679
O13	O	0.102850	-1.033033	-0.069345
O14	O	0.602850	-0.533033	0.430655
Zn15	Zn	0.101364	-0.918243	-0.091325
Zn16	Zn	0.601364	-0.418243	0.408675
Zn17	Zn	0.106787	-0.926416	0.091173
Zn18	Zn	0.606787	-0.426416	0.591173
O19	O	0.172091	-0.912160	-0.069316
O20	O	0.672091	-0.412160	0.430684
C21	C	0.101728	-0.779414	-0.000061
C22	C	0.601728	-0.279414	0.499939
C23	C	0.097208	-0.692674	-0.000053
C24	C	0.597208	-0.192674	0.499947
C25	C	0.015981	-0.929101	-0.000095
C26	C	0.515981	-0.429101	0.499905
C27	C	-0.037715	-0.928207	-0.000102
C28	C	0.462285	-0.428207	0.499898
N29	N	0.097663	-0.912672	-0.215875
N30	N	0.597663	-0.412672	0.284125
C31	C	-0.373519	-0.994012	-0.000066
C32	C	0.126481	-0.494012	0.499934
C33	C	-0.575330	-0.990697	-0.000054
C34	C	-0.075330	-0.490697	0.499946
O35	O	-0.603832	-1.050870	-0.000024
O36	O	-0.103832	-0.550870	0.499976
N37	N	-0.597732	-0.919023	-0.000047
N38	N	-0.097732	-0.419023	0.499953
C39	C	-0.569678	-0.848174	-0.000038
C40	C	-0.069678	-0.348174	0.499962
O41	O	-0.593362	-0.787135	-0.000023
O42	O	-0.093362	-0.287135	0.499977
C43	C	-0.367868	-0.851490	-0.000044
C44	C	0.132132	-0.351490	0.499956
C45	C	-0.345469	-0.923168	-0.000059
C46	C	0.154531	-0.423168	0.499941
C47	C	-0.351120	-1.065684	-0.000080
C48	C	0.148880	-0.565684	0.499920
C49	C	-0.300670	-1.066511	-0.000088
C50	C	0.199330	-0.566511	0.499912
C51	C	-0.272620	-0.995667	-0.000081
C52	C	0.227380	-0.495667	0.499919
C53	C	-0.295019	-0.923995	-0.000067
C54	C	0.204981	-0.423995	0.499933
C55	C	-0.339814	-0.780642	-0.000029
C56	C	0.160186	-0.280642	0.499971
C57	C	-0.289359	-0.781477	-0.000028
C58	C	0.210641	-0.281477	0.499972
C59	C	-0.266960	-0.853155	-0.000043
C60	C	0.233040	-0.353155	0.499957
C61	C	-0.216519	-0.853979	-0.000067
C62	C	0.283481	-0.353979	0.499933
N63	N	-0.194117	-0.925653	-0.000074
N64	N	0.305883	-0.425653	0.499926
C65	C	-0.222167	-0.996497	-0.000081
C66	C	0.277833	-0.496497	0.499919
C67	C	-0.675631	-0.846438	-0.000036
C68	C	-0.175631	-0.346438	0.499964
C69	C	-0.726084	-0.845608	-0.000036
C70	C	-0.226084	-0.345608	0.499964
C71	C	-0.731732	-0.988132	-0.000051
C72	C	-0.231732	-0.488132	0.499949
C73	C	-0.681279	-0.988960	-0.000057
C74	C	-0.181279	-0.488960	0.499943
C75	C	-0.653229	-0.918111	-0.000043
C76	C	-0.153229	-0.418111	0.499957
C77	C	-0.116219	-0.998230	-0.000098
C78	C	0.383781	-0.498230	0.499902
C79	C	-0.065765	-0.999051	-0.000109
C80	C	0.434235	-0.499051	0.499891
C81	C	-0.060121	-0.856529	-0.000090
C82	C	0.439879	-0.356529	0.499910
C83	C	-0.110571	-0.855706	-0.000083
C84	C	0.389429	-0.355706	0.499917
C85	C	-0.138619	-0.926564	-0.000084
C86	C	0.361381	-0.426564	0.499916
O87	O	-0.187987	-0.793838	-0.000088
O88	O	0.312013	-0.293838	0.499912
O89	O	-0.198473	-1.057527	-0.000077
O90	O	0.301527	-0.557527	0.499923
C91	C	-0.423969	-0.993184	-0.000059
C92	C	0.076031	-0.493184	0.499941
C93	C	-0.446368	-0.921512	-0.000044
C94	C	0.053632	-0.421512	0.499956
C95	C	-0.418318	-0.850668	-0.000037
C96	C	0.081682	-0.350668	0.499963
C97	C	-0.496820	-0.920683	-0.000044
C98	C	0.003180	-0.420683	0.499956
C99	C	-0.524871	-0.991527	-0.000051
C100	C	-0.024871	-0.491527	0.499949
C101	C	-0.502468	-1.063200	-0.000058
C102	C	-0.002468	-0.563200	0.499942
C103	C	-0.452019	-1.064028	-0.000065
C104	C	0.047981	-0.564028	0.499935
C105	C	-0.440720	-0.778994	-0.000030
C106	C	0.059280	-0.278994	0.499970
C107	C	-0.491169	-0.778172	-0.000024
C108	C	0.008831	-0.278172	0.499976
C109	C	-0.519220	-0.849016	-0.000031
C110	C	-0.019220	-0.349016	0.499969
C111	C	0.192170	-0.915558	-0.000055
C112	C	0.692170	-0.415558	0.499945
C113	C	0.245866	-0.916452	-0.000043
C114	C	0.745866	-0.416452	0.499957
C115	C	0.106423	-1.065245	-0.000089
C116	C	0.606423	-0.565245	0.499911
C117	C	0.110944	-1.151985	-0.000092
C118	C	0.610944	-0.651985	0.499908
C119	C	0.138711	-0.642077	-0.000043
C120	C	0.638711	-0.142077	0.499957
C121	C	0.134460	-0.560575	-0.000056
C122	C	0.634460	-0.060575	0.499944
C123	C	0.088706	-0.529673	-0.000072
C124	C	0.588706	-0.029673	0.499928
C125	C	0.047200	-0.580277	-0.000083
C126	C	0.547200	-0.080277	0.499917
C127	C	0.051451	-0.661777	-0.000077
C128	C	0.551451	-0.161777	0.499923
C129	C	0.073688	-0.284089	-0.000098
C130	C	0.573688	0.215911	0.499902
C131	C	0.069440	-0.202583	-0.000102
C132	C	0.569440	0.297417	0.499898
C133	C	0.156701	-0.182887	-0.000076
C134	C	0.656701	0.317113	0.499924
C135	C	0.160948	-0.264389	-0.000064
C136	C	0.660948	0.235611	0.499936
C137	C	0.119442	-0.314985	-0.000080
C138	C	0.619442	0.185015	0.499920
C139	C	0.084360	-0.446366	-0.000082
C140	C	0.584360	0.053634	0.499918
C141	C	0.123788	-0.398291	-0.000076
C142	C	0.623788	0.101709	0.499924
C143	C	0.127637	-0.957762	-0.259455
C144	C	0.627637	-0.457762	0.240545
C145	C	0.125046	-0.953875	-0.346644
C146	C	0.625046	-0.453875	0.153356
C147	C	0.092482	-0.904893	-0.390252
C148	C	0.592482	-0.404893	0.109748
C149	C	0.062504	-0.859802	-0.346666
C150	C	0.562504	-0.359802	0.153334
C151	C	0.065094	-0.863693	-0.259479
C152	C	0.565094	-0.363693	0.240521
C153	C	0.083096	-0.890794	-0.653504
C154	C	0.583096	-0.390794	-0.153504
C155	C	0.080510	-0.886904	-0.740698
C156	C	0.580510	-0.386904	-0.240698
C157	C	0.143051	-0.980978	-0.740669
C158	C	0.643051	-0.480978	-0.240669
C159	C	0.145640	-0.984862	-0.653480
C160	C	0.645640	-0.484862	-0.153480
C161	C	0.115661	-0.939774	-0.609902
C162	C	0.615661	-0.439774	-0.109902
C163	C	0.089833	-0.900917	-0.479374
C164	C	0.589833	-0.400917	0.020626
C165	C	0.118307	-0.943754	-0.520782
C166	C	0.618307	-0.443754	-0.020782
N167	N	0.110484	-0.931993	0.215723
N168	N	0.610484	-0.431993	0.715723
H169	H	-0.047531	-1.057422	-0.000123
H170	H	0.452469	-0.557422	0.499877
H171	H	-0.744317	-0.787240	-0.000038
H172	H	-0.244317	-0.287240	0.499962
H173	H	0.149453	-0.990593	-0.382123
H174	H	0.649453	-0.490593	0.117877
H175	H	0.168256	-0.519381	-0.000048
H176	H	0.668256	-0.019381	0.499952
H177	H	0.053993	-0.847013	-0.776201
H178	H	0.553993	-0.347013	-0.276201
H179	H	0.058685	-0.854080	-0.618033
H180	H	0.558685	-0.354080	-0.118033
H181	H	-0.663045	-1.047326	-0.000069
H182	H	-0.163045	-0.547326	0.499931
H183	H	-0.417886	-0.721303	-0.000023
H184	H	0.082114	-0.221303	0.499977
H185	H	0.035988	-0.819924	-0.382179
H186	H	0.535988	-0.319924	0.117821
H187	H	-0.266523	-0.723782	-0.000016
H188	H	0.233477	-0.223782	0.499984
H189	H	-0.282437	-1.124879	-0.000097
H190	H	0.217563	-0.624879	0.499903
H191	H	0.175968	-0.667230	-0.000030
H192	H	0.675968	-0.167230	0.499970
H193	H	-0.525316	-1.120884	-0.000067
H194	H	-0.025316	-0.620884	0.499933
H195	H	-0.373953	-1.123377	-0.000083
H196	H	0.126047	-0.623377	0.499917
H197	H	0.032180	-0.177426	-0.000114
H198	H	0.532180	0.322574	0.499886
H199	H	0.040686	-0.826976	-0.223997
H200	H	0.540686	-0.326976	0.276003
H201	H	0.144819	-0.983638	-0.485272
H202	H	0.644819	-0.483638	0.014728
H203	H	-0.754579	-1.045815	-0.000057
H204	H	-0.254579	-0.545815	0.499943
H205	H	0.063320	-0.861036	-0.514889
H206	H	0.563320	-0.361036	-0.014889
H207	H	-0.139050	-1.055929	-0.000095
H208	H	0.360950	-0.555929	0.499905
H209	H	0.009946	-0.555110	-0.000108
H210	H	0.509946	-0.055110	0.499892
H211	H	-0.652797	-0.788741	-0.000025
H212	H	-0.152797	-0.288741	0.499975
H213	H	0.198206	-0.289543	-0.000042
H214	H	0.698206	0.210457	0.499958
H215	H	-0.358042	-0.722274	-0.000011
H216	H	0.141958	-0.222274	0.499989
H217	H	0.190493	-0.141682	-0.000064
H218	H	0.690493	0.358318	0.499936
H219	H	-0.128810	-0.797340	-0.000094
H220	H	0.371190	-0.297340	0.499906
H221	H	-0.037273	-0.798849	-0.000087
H222	H	0.462727	-0.298849	0.499913
H223	H	0.154157	-0.997643	-0.223955
H224	H	0.654157	-0.497643	0.276045
H225	H	0.039891	-0.325275	-0.000111
H226	H	0.539891	0.174725	0.499889
H227	H	0.047106	-0.421195	-0.000118
H228	H	0.547106	0.078805	0.499882
H229	H	-0.433786	-1.122395	-0.000078
H230	H	0.066214	-0.622395	0.499922
H231	H	-0.509402	-0.719799	-0.000019
H232	H	-0.009402	-0.219799	0.499981
H233	H	0.017654	-0.702973	-0.000084
H234	H	0.517654	-0.202973	0.499916
H235	H	0.161040	-0.423455	-0.000068
H236	H	0.661040	0.076545	0.499932
H237	H	0.172155	-1.024750	-0.617980
H238	H	0.672155	-0.524750	-0.117980
H239	H	0.167458	-1.017687	-0.776160
H240	H	0.667458	-0.517687	-0.276160
