data_functionalizedCrystal
_audit_creation_method	'MofGen! by Chris Wilmer'
_symmetry_space_group_name_H-M	'P1'
_symmetry_Int_Tables_number	1
_symmetry_cell_setting	triclinic
loop_
_symmetry_equiv_pos_as_xyz
  x,y,z
_cell_length_a	14.519709
_cell_length_b	15.021413
_cell_length_c	14.519709
_cell_angle_alpha	90.003076
_cell_angle_beta	96.319855
_cell_angle_gamma	90.001715
loop_
_atom_site_label
_atom_site_type_symbol
_atom_site_fract_x
_atom_site_fract_y
_atom_site_fract_z
O1	O	1.223873	0.073918	-0.120879
O2	O	0.955396	0.073946	-0.135115
O3	O	1.096752	0.073923	0.006241
O4	O	1.082516	0.073941	-0.262236
O5	O	1.096730	-0.074141	0.006221
O6	O	0.955373	-0.074119	-0.135136
O7	O	1.223850	-0.074146	-0.120899
Zn8	Zn	1.089608	-0.097641	-0.128021
Zn9	Zn	1.089638	0.097440	-0.127994
O10	O	1.082493	-0.074124	-0.262256
C11	C	0.921025	-0.000083	-0.134462
C12	C	0.818643	-0.000073	-0.132474
N13	N	1.089595	-0.230778	-0.128038
C14	C	0.443748	-0.000114	-0.125154
C15	C	0.548056	-0.000102	-0.127187
C16	C	0.631192	-0.000093	-0.128814
C17	C	0.735507	-0.000083	-0.130847
C18	C	1.024221	-0.470451	-0.193371
C19	C	1.107584	-0.529793	-0.211408
C20	C	1.089618	-0.412385	-0.128015
C21	C	1.006278	-0.529785	-0.109999
C22	C	1.089633	-0.587809	-0.127995
C23	C	1.173023	-0.470421	-0.146094
C24	C	1.071663	-0.470408	-0.044649
C25	C	1.155085	-0.529723	-0.062650
C26	C	1.089608	-0.311328	-0.128029
C27	C	1.089653	-0.688865	-0.127980
C28	C	1.258221	-0.000116	-0.121553
C29	C	1.360602	-0.000120	-0.123541
C30	C	1.096078	-0.000109	0.040591
C31	C	1.094090	-0.000109	0.142972
N32	N	1.089659	0.230578	-0.127969
C33	C	1.083168	-0.000090	-0.296606
C34	C	1.085156	-0.000083	-0.398987
C35	C	1.086770	-0.000086	0.517868
C36	C	1.088803	-0.000092	0.413560
C37	C	1.090430	-0.000098	0.330423
C38	C	1.092463	-0.000104	0.226109
H39	H	1.122784	-0.555877	-0.281900
H40	H	1.056436	-0.444303	0.025821
O41	O	1.221207	-0.560433	0.003313
C42	C	1.267842	-0.487808	0.048897
H43	H	1.260391	-0.426749	0.002047
H44	H	1.236468	-0.473164	0.115892
C45	C	1.380384	-0.585733	0.129020
C46	C	1.371239	-0.510740	0.071474
H47	H	1.444164	-0.599879	0.142951
H48	H	1.348964	-0.634663	0.098312
H49	H	1.354233	-0.573519	0.184842
H50	H	1.397380	-0.522958	0.015649
H51	H	1.402666	-0.461813	0.102173
O52	O	0.922116	-0.560786	-0.091932
C53	C	0.853379	-0.530603	-0.161033
H54	H	0.878894	-0.468120	-0.194864
H55	H	0.838251	-0.584673	-0.215709
C56	C	0.732927	-0.585740	-0.075407
C57	C	0.764262	-0.508993	-0.116953
H58	H	0.677954	-0.572413	-0.048218
H59	H	0.779236	-0.606078	-0.028853
H60	H	0.720328	-0.630791	-0.120977
H61	H	0.776872	-0.463947	-0.071381
H62	H	0.717953	-0.488646	-0.163498
H63	H	0.968973	-0.444427	-0.248685
H64	H	1.243524	-0.444454	-0.161407
