data_functionalizedCrystal
_audit_creation_method	'MofGen! by Chris Wilmer'
_symmetry_space_group_name_H-M	'P1'
_symmetry_Int_Tables_number	1
_symmetry_cell_setting	triclinic
loop_
_symmetry_equiv_pos_as_xyz
  x,y,z
_cell_length_a	16.974885
_cell_length_b	11.026607
_cell_length_c	16.053811
_cell_angle_alpha	93.134322
_cell_angle_beta	91.068968
_cell_angle_gamma	95.963696
loop_
_atom_site_label
_atom_site_type_symbol
_atom_site_fract_x
_atom_site_fract_y
_atom_site_fract_z
O1	O	1.071029	0.154796	0.002873
O2	O	0.844206	0.173374	-0.012440
O3	O	0.938818	-0.012629	-0.006050
O4	O	0.976417	0.340799	-0.003517
O5	O	0.933604	-0.002432	0.132457
O6	O	0.838991	0.183570	0.126067
O7	O	1.065815	0.164993	0.141380
Zn8	Zn	0.951575	0.175901	0.155714
Zn9	Zn	0.958445	0.162466	-0.026774
O10	O	0.971202	0.350996	0.134989
C11	C	0.812109	0.177577	0.054822
C12	C	0.724237	0.174897	0.048890
C13	C	0.229915	0.159170	0.007335
C14	C	0.312480	0.161689	0.012920
C15	C	0.350913	0.168516	0.091214
C16	C	0.306775	0.172812	0.163927
C17	C	0.224211	0.170284	0.158340
C18	C	0.597535	0.176665	0.116017
C19	C	0.680105	0.179196	0.121597
C20	C	0.685805	0.168071	-0.029410
C21	C	0.603239	0.165551	-0.034989
C22	C	0.559109	0.169841	0.037724
N23	N	0.435307	0.171095	0.096925
N24	N	0.474715	0.167253	0.032012
C25	C	0.929275	-0.052764	0.062734
C26	C	0.908598	-0.187546	0.061336
C27	C	0.965691	-0.261166	0.065189
C28	C	0.944322	-0.400470	0.063743
C29	C	1.097912	0.160789	0.074115
C30	C	1.185784	0.163469	0.080042
C31	C	0.980745	0.391131	0.066203
C32	C	1.001422	0.525912	0.067597
N33	N	0.946892	0.185069	0.280258
C34	C	0.987172	0.105953	0.326673
C35	C	0.983905	0.112378	0.413859
C36	C	0.940362	0.197925	0.454629
C37	C	0.900077	0.277044	0.408208
C38	C	0.903340	0.270613	0.321023
C39	C	0.926105	0.225983	0.715076
C40	C	0.922848	0.232411	0.802267
C41	C	1.006675	0.067742	0.807912
C42	C	1.009938	0.061323	0.720725
C43	C	0.969649	0.140438	0.674312
N44	N	0.937024	0.204497	0.543747
N45	N	0.972984	0.133860	0.585195
N46	N	0.963128	0.153295	0.848681
H47	H	0.198630	0.153619	-0.056420
H48	H	1.045395	-0.008336	0.687532
H49	H	0.879619	-0.440567	0.059369
H50	H	1.016704	0.047955	0.451649
O51	O	1.029480	0.022744	0.287202
C52	C	1.064346	-0.045688	0.346870
H53	H	1.029494	-0.042606	0.406830
H54	H	1.063566	-0.144454	0.321572
H55	H	1.128170	-0.005340	0.360458
H56	H	1.030390	-0.221063	0.069562
O57	O	1.078591	-0.426134	0.072696
C58	C	1.096654	-0.359016	0.001989
H59	H	1.039848	-0.329558	-0.025822
H60	H	1.139179	-0.274729	0.021035
H61	H	1.125542	-0.418484	-0.046419
O62	O	0.355232	0.157555	-0.057790
C63	C	0.303605	0.150961	-0.128091
H64	H	0.246102	0.189201	-0.109792
H65	H	0.332806	0.206684	-0.179062
H66	H	0.290161	0.051671	-0.152267
O67	O	0.554797	0.180908	0.186730
C68	C	0.606425	0.187453	0.257028
H69	H	0.668298	0.226023	0.239014
H70	H	0.583928	0.249507	0.308442
H71	H	0.608797	0.092124	0.280472
H72	H	1.039476	0.003329	0.845709
H73	H	0.887388	0.302079	0.835458
H74	H	0.721744	0.164578	-0.088608
H75	H	0.338073	0.178363	0.227675
H76	H	0.893302	0.290404	0.677292
O77	O	0.831444	-0.235526	0.056013
C78	C	0.818787	-0.313197	-0.016771
H79	H	0.877396	-0.346167	-0.036791
H80	H	0.775050	-0.395114	-0.003553
H81	H	0.793680	-0.261119	-0.068823
H82	H	0.864618	0.346695	0.441408
H83	H	0.188281	0.173797	0.217547
H84	H	0.870538	0.335036	0.283233
H85	H	0.571954	0.159991	-0.098744
H86	H	0.711395	0.184764	0.185357
