data_functionalizedCrystal
_audit_creation_method	'MofGen! by Chris Wilmer'
_symmetry_space_group_name_H-M	'P1'
_symmetry_Int_Tables_number	1
_symmetry_cell_setting	triclinic
loop_
_symmetry_equiv_pos_as_xyz
  x,y,z
_cell_length_a	14.971486
_cell_length_b	11.295483
_cell_length_c	14.971486
_cell_angle_alpha	85.900200
_cell_angle_beta	83.614129
_cell_angle_gamma	94.105328
loop_
_atom_site_label
_atom_site_type_symbol
_atom_site_fract_x
_atom_site_fract_y
_atom_site_fract_z
O1	O	1.192955	0.098888	0.110554
O2	O	0.932557	0.098920	0.124511
O3	O	1.069735	0.098895	-0.012667
O4	O	1.055777	0.098913	0.247732
O5	O	1.057686	-0.099154	-0.000637
O6	O	0.920508	-0.099128	0.136541
O7	O	1.180906	-0.099161	0.122584
Cu8	Cu	1.049607	-0.117228	0.130661
Cu9	Cu	1.063856	0.116987	0.116434
O10	O	1.043728	-0.099135	0.259762
C11	C	0.893208	-0.000100	0.129901
C12	C	0.793911	-0.000088	0.128030
N13	N	1.039592	-0.281962	0.140667
C14	C	0.736686	-0.000084	0.208619
C15	C	0.643386	-0.000101	0.206857
C16	C	0.607313	-0.000115	0.124504
C17	C	0.664545	-0.000123	0.043909
C18	C	0.757843	-0.000113	0.045673
C19	C	0.470081	-0.000139	0.040239
C20	C	0.376777	-0.000146	0.038475
C21	C	0.355624	-0.000127	0.201423
C22	C	0.448922	-0.000118	0.203187
C23	C	0.506148	-0.000124	0.122591
C24	C	1.145975	-0.531272	0.034343
C25	C	1.138412	-0.655934	0.041911
C26	C	1.016901	-0.655951	0.163365
C27	C	1.024463	-0.531289	0.155798
C28	C	1.089003	-0.468954	0.091285
C29	C	1.096569	-0.344289	0.083722
C30	C	0.975054	-0.344309	0.205172
C31	C	0.967491	-0.468971	0.212740
C32	C	1.220255	-0.000138	0.117193
C33	C	1.319552	-0.000142	0.119064
C34	C	1.063086	-0.000129	-0.039977
C35	C	1.061215	-0.000128	-0.139274
N36	N	1.073878	0.281722	0.106421
C37	C	1.141804	-0.000139	-0.196499
C38	C	1.140042	-0.000127	-0.289799
C39	C	1.057689	-0.000112	-0.325872
C40	C	0.977095	-0.000097	-0.268640
C41	C	0.978858	-0.000101	-0.175343
C42	C	0.973424	-0.000093	-0.463103
C43	C	0.971659	-0.000091	-0.556407
C44	C	1.134607	-0.000118	-0.577560
C45	C	1.136371	-0.000122	-0.484262
C46	C	1.055776	-0.000109	-0.427036
C47	C	1.050377	-0.000109	0.287071
C48	C	1.052248	-0.000102	0.386368
H49	H	0.766049	-0.000072	0.275679
C50	C	1.216966	-0.462694	-0.036610
H51	H	1.213314	-0.379524	-0.032957
H52	H	1.205957	-0.483126	-0.095084
H53	H	1.275433	-0.483112	-0.025549
C54	C	0.890211	-0.000092	-0.112395
H55	H	0.840911	-0.000093	-0.147239
H56	H	0.891715	0.068971	-0.079752
H57	H	0.883309	-0.069165	-0.071369
H58	H	0.964348	-0.706721	0.215884
H59	H	0.914942	-0.519739	0.265263
H60	H	0.928666	-0.293555	0.251541
H61	H	1.208864	-0.000158	-0.167135
H62	H	0.309026	-0.000128	0.267047
C63	C	1.228688	-0.000151	-0.352742
H64	H	1.277985	-0.000177	-0.317894
H65	H	1.235598	0.068913	-0.393770
H66	H	1.227178	-0.069224	-0.385383
C67	C	0.580442	-0.000093	0.295504
H68	H	0.615289	-0.000069	0.344801
H69	H	0.539414	-0.069161	0.302404
H70	H	0.547800	0.068975	0.294004
H71	H	1.203429	-0.000142	-0.454894
C72	C	0.884771	-0.000081	-0.400157
H73	H	0.835471	-0.000084	-0.435001
H74	H	0.886271	0.068980	-0.367511
H75	H	0.877873	-0.069156	-0.359133
H76	H	0.910042	-0.000078	-0.298019
H77	H	0.516673	-0.000145	-0.025390
H78	H	0.347410	-0.000159	-0.028583
C79	C	1.223261	-0.000110	-0.640505
H80	H	1.210420	-0.000087	-0.701237
H81	H	1.252829	-0.069177	-0.625377
H82	H	1.261222	0.068959	-0.633745
C83	C	0.820795	-0.000116	-0.042972
H84	H	0.881525	-0.000121	-0.030128
H85	H	0.814047	0.068941	-0.080936
H86	H	0.805655	-0.069196	-0.072536
C87	C	1.167562	-0.275716	0.012768
H88	H	1.163916	-0.192545	0.016422
H89	H	1.156550	-0.296146	-0.045705
H90	H	1.226027	-0.296141	0.023828
C91	C	0.624871	-0.000136	-0.046679
H92	H	0.672317	-0.000147	-0.094422
H93	H	0.593110	0.068925	-0.054950
H94	H	0.584722	-0.069212	-0.046558
C95	C	0.881077	-0.000070	-0.596092
H96	H	0.891572	-0.000085	-0.659851
H97	H	0.852094	0.069001	-0.580652
H98	H	0.843686	-0.069136	-0.572263
C99	C	1.201079	-0.724486	-0.020723
H100	H	1.187329	-0.807659	-0.006983
H101	H	1.262023	-0.704045	-0.012158
H102	H	1.192532	-0.704058	-0.081677
H103	H	0.478290	-0.000096	0.270244
