data_functionalizedCrystal
_audit_creation_method	'MofGen! by Chris Wilmer'
_symmetry_space_group_name_H-M	'P1'
_symmetry_Int_Tables_number	1
_symmetry_cell_setting	triclinic
loop_
_symmetry_equiv_pos_as_xyz
  x,y,z
_cell_length_a	20.919309
_cell_length_b	23.196402
_cell_length_c	20.919309
_cell_angle_alpha	62.594186
_cell_angle_beta	90.173912
_cell_angle_gamma	57.441790
loop_
_atom_site_label
_atom_site_type_symbol
_atom_site_fract_x
_atom_site_fract_y
_atom_site_fract_z
Zr1	Zr	0.644080	0.581815	-0.056689
O2	O	0.541855	0.702080	-0.158907
O3	O	0.675415	0.461549	-0.025358
O4	O	0.680620	0.572441	-0.153711
O5	O	0.532547	0.598583	0.070697
O6	O	0.790084	0.565046	-0.149607
O7	O	0.536650	0.591189	-0.030554
O8	O	0.780772	0.366681	0.079993
O9	O	0.541858	0.796948	-0.158903
O10	O	0.770473	0.505497	-0.008928
O11	O	0.685720	0.516534	0.063573
O12	O	0.691848	0.647095	-0.087547
O13	O	0.607095	0.658131	-0.015046
Zr14	Zr	0.812117	0.581814	0.111341
Zr15	Zr	0.818661	0.570021	-0.050144
Zr16	Zr	0.637536	0.593608	0.104796
Zr17	Zr	0.644085	0.733117	-0.056682
Zr18	Zr	0.812112	0.430511	0.111334
O19	O	0.780782	0.702080	0.080009
O20	O	0.790087	0.685311	-0.149601
O21	O	0.532550	0.718848	0.070703
O22	O	0.914342	0.461548	0.213559
O23	O	0.923647	0.444780	-0.016051
O24	O	0.666110	0.478317	0.204253
O25	O	0.923650	0.565046	-0.016046
O26	O	0.775577	0.591188	0.208362
O27	O	0.666114	0.598583	0.204258
O28	O	0.919547	0.572440	0.085206
O29	O	0.680627	0.787573	-0.153700
O30	O	0.775570	0.376055	0.208352
O31	O	0.914339	0.366681	0.213555
O32	O	0.919541	0.357307	0.085196
O33	O	0.536656	0.806322	-0.030544
O34	O	0.675425	0.796947	-0.025342
O35	O	0.764349	0.516534	0.142198
O36	O	0.849102	0.505497	0.069698
O37	O	0.770477	0.647094	-0.008921
O38	O	0.685724	0.658131	0.063579
C39	C	0.728093	0.392558	0.027317
C40	C	0.728091	0.328326	0.027314
C41	C	0.772326	0.292395	-0.010533
C42	C	0.772333	0.232033	-0.010527
C43	C	0.728091	0.207618	0.027316
C44	C	0.683854	0.243554	0.065172
C45	C	0.683854	0.303908	0.065171
C46	C	0.656893	0.150003	0.019009
C47	C	0.656890	0.089653	0.019004
C48	C	0.728091	0.021464	0.027323
C49	C	0.799295	0.013638	0.035632
C50	C	0.799295	0.073992	0.035631
C51	C	0.728086	0.142174	0.027322
C52	C	0.772339	-0.079919	-0.010519
C53	C	0.772348	-0.140285	-0.010507
C54	C	0.683861	-0.128757	0.065187
C55	C	0.683859	-0.068399	0.065180
C56	C	0.728096	-0.043981	0.027323
C57	C	0.509724	0.596566	0.019139
C58	C	0.435610	0.601573	0.016360
C59	C	0.441830	0.530014	0.056089
C60	C	0.372189	0.534724	0.053477
C61	C	0.296329	0.610992	0.011130
C62	C	0.290111	0.682556	-0.028600
C63	C	0.359751	0.677846	-0.025982
C64	C	0.084008	0.628910	0.001179
C65	C	0.014367	0.633614	-0.001438
C66	C	0.096451	0.485782	0.080640
C67	C	0.166088	0.481078	0.083250
C68	C	0.159864	0.552642	0.043523
C69	C	0.225144	0.615807	0.008457
C70	C	0.231048	0.547827	0.046202
C71	C	0.946473	0.567062	0.035513
C72	C	1.020587	0.562056	0.038291
C73	C	0.736284	0.567063	-0.174667
C74	C	0.739063	0.562057	-0.243221
C75	C	0.728104	0.771071	0.027335
C76	C	0.728106	0.835303	0.027338
C77	C	0.699328	0.633615	-0.316466
C78	C	0.701949	0.628905	-0.380878
C79	C	0.744300	0.552637	-0.372042
C80	C	0.784040	0.481073	-0.298789
C81	C	0.781423	0.485783	-0.234379
C82	C	0.754258	0.534718	-0.564464
C83	C	0.756869	0.530014	-0.628882
C84	C	0.674779	0.677846	-0.710966
C85	C	0.672163	0.682550	-0.646552
C86	C	0.711906	0.610986	-0.573304
C87	C	0.746978	0.547822	-0.437880
C88	C	0.709232	0.615802	-0.507468
C89	C	0.719913	0.596566	0.229318
C90	C	0.717135	0.601572	0.297873
C91	C	0.946467	0.377806	0.035504
C92	C	1.020579	0.308567	0.038279
C93	C	0.719907	0.407309	0.229309
C94	C	0.717127	0.348084	0.297861
C95	C	0.938281	0.392557	0.237496
C96	C	1.009615	0.328325	0.308826
C97	C	0.517916	0.771071	-0.182845
C98	C	0.446582	0.835304	-0.254175
C99	C	0.509730	0.785823	0.019148
C100	C	0.435618	0.855061	0.016372
C101	C	0.736290	0.756319	-0.174658
C102	C	0.739070	0.815545	-0.243209
C103	C	1.014340	0.276052	-0.001466
C104	C	1.083970	0.211002	0.001127
C105	C	1.159839	0.178466	0.043469
C106	C	1.166077	0.210988	0.083216
C107	C	1.096447	0.276040	0.080618
C108	C	0.756865	0.320271	0.371102
C109	C	0.754249	0.264632	0.435519
C110	C	0.711900	0.236801	0.426694
C111	C	0.672158	0.264619	0.353445
C112	C	0.674769	0.320262	0.289030
C113	C	1.087362	0.292399	0.304480
C114	C	1.154395	0.232054	0.371496
C115	C	1.143680	0.207631	0.442858
C116	C	1.065925	0.243563	0.447203
C117	C	0.998893	0.303912	0.380188
C118	C	0.368835	0.871237	-0.249828
C119	C	0.301802	0.931601	-0.316844
C120	C	0.312518	0.956027	-0.388206
C121	C	0.390273	0.920091	-0.392551
C122	C	0.457304	0.859732	-0.325536
C123	C	0.441857	0.887583	0.056110
C124	C	0.372228	0.952647	0.053500
C125	C	0.296359	0.985186	0.011155
C126	C	0.290121	0.952661	-0.028588
C127	C	0.359750	0.887602	-0.025981
C128	C	0.781426	0.843357	-0.234360
C129	C	0.784054	0.898997	-0.298764
C130	C	0.744321	0.926828	-0.372018
C131	C	0.701963	0.899010	-0.380866
C132	C	0.699340	0.843367	-0.316462
H133	H	0.808349	0.312272	-0.041357
Br134	Br	0.814349	0.358024	0.383100
Br135	Br	0.747887	1.002347	-0.459417
H136	H	0.228340	0.979164	-0.063064
Br137	Br	-0.088590	0.737127	-0.058923
Br138	Br	0.221537	1.037945	-0.479150
H139	H	1.078876	0.184531	-0.031239
H140	H	1.096103	0.312275	0.246379
H141	H	0.377261	0.476453	0.085829
H142	H	0.808374	-0.169545	-0.041323
H143	H	0.786616	0.241988	0.495155
H144	H	1.198268	0.158491	0.497420
H145	H	0.674753	0.677899	-0.514659
Br146	Br	0.354270	0.838099	-0.152988
Br147	Br	1.104929	0.320156	0.134569
Br148	Br	0.562816	0.810968	-0.331449
Br149	Br	0.404802	0.953248	-0.489407
H150	H	1.217701	0.202803	0.367944
H151	H	0.818527	0.418974	-0.291600
Br152	Br	0.620845	0.774963	-0.810373
H153	H	0.101509	0.427518	0.112984
H154	H	0.238497	0.960850	-0.313292
H155	H	0.818545	0.921642	-0.291545
Br156	Br	0.911385	0.320196	-0.058939
H157	H	0.786620	0.476446	-0.504832
H158	H	0.503627	0.861095	0.090597
Br159	Br	0.351268	0.843470	-0.079914
H160	H	0.813779	0.427513	-0.174740
Br161	Br	0.832382	0.183250	-0.061884
H162	H	0.598912	0.096034	0.012235
Br163	Br	0.708364	0.161285	0.514125
H164	H	0.669613	0.921679	-0.440518
Br165	Br	1.051395	0.210409	0.544058
H166	H	0.935590	0.333155	0.383737
Br167	Br	1.269048	0.166820	0.140680
Br168	Br	0.380712	0.996772	0.107444
H169	H	0.239669	1.038161	0.009039
Br170	Br	0.835357	0.805600	-0.134952
H171	H	0.857271	0.067615	0.042398
Br172	Br	0.641844	0.805635	-0.328486
Br173	Br	0.895931	-0.078897	0.046916
Br174	Br	0.832378	-0.046782	-0.061889
H175	H	0.647838	-0.148636	0.096000
Br176	Br	0.560254	0.242543	0.007719
Br177	Br	0.623822	-0.019632	0.116548
H178	H	0.647832	0.223670	0.095985
H179	H	0.503595	0.467909	0.090575
Br180	Br	0.623818	0.352674	0.116541
H181	H	0.078930	0.687182	-0.031183
Br182	Br	0.269039	0.377568	0.140720
H183	H	1.216529	0.125496	0.045579
H184	H	0.228339	0.744655	-0.063075
H185	H	0.354681	0.736117	-0.058325
H186	H	0.163371	0.677905	-0.026021
Br187	Br	0.333999	0.444324	0.103679
H188	H	0.664835	0.695721	-0.323670
H189	H	0.669594	0.687176	-0.440515
Br190	Br	0.614639	0.786064	-0.658551
H191	H	0.791356	0.467904	-0.621679
Br192	Br	0.614688	0.226841	0.341482
Br193	Br	0.620837	0.357998	0.189633
Br194	Br	0.804447	0.444318	-0.425896
