data_functionalizedCrystal
_audit_creation_method	'MofGen! by Chris Wilmer'
_symmetry_space_group_name_H-M	'P1'
_symmetry_Int_Tables_number	1
_symmetry_cell_setting	triclinic
loop_
_symmetry_equiv_pos_as_xyz
  x,y,z
_cell_length_a	16.098557
_cell_length_b	17.019352
_cell_length_c	10.489741
_cell_angle_alpha	96.036277
_cell_angle_beta	92.764338
_cell_angle_gamma	88.851737
loop_
_atom_site_label
_atom_site_type_symbol
_atom_site_fract_x
_atom_site_fract_y
_atom_site_fract_z
O1	O	0.005772	-1.047300	0.162915
O2	O	0.505772	-0.547300	0.662915
O3	O	-0.010615	-0.818580	0.182294
O4	O	0.489385	-0.318580	0.682294
O5	O	-0.002044	-0.938144	-0.013050
O6	O	0.497956	-0.438144	0.486950
O7	O	-0.002799	-0.927735	0.358258
O8	O	0.497201	-0.427735	0.858258
O9	O	0.135970	-0.931187	-0.001639
O10	O	0.635970	-0.431187	0.498361
O11	O	0.127399	-0.811623	0.193704
O12	O	0.627399	-0.311623	0.693704
O13	O	0.143786	-1.040343	0.174326
O14	O	0.643786	-0.540343	0.674326
Zn15	Zn	0.157505	-0.924878	0.185827
Zn16	Zn	0.657505	-0.424878	0.685827
Zn17	Zn	-0.024334	-0.934044	0.170793
Zn18	Zn	0.475666	-0.434044	0.670793
O19	O	0.135215	-0.920779	0.369669
O20	O	0.635215	-0.420779	0.869669
C21	C	0.056294	-0.785814	0.187041
C22	C	0.556294	-0.285814	0.687041
C23	C	0.050041	-0.698546	0.184173
C24	C	0.550041	-0.198546	0.684173
N25	N	0.281606	-0.918628	0.196087
N26	N	0.781606	-0.418628	0.696087
C27	C	0.010850	-0.205172	0.167589
C28	C	0.510850	0.294828	0.667589
C29	C	0.016736	-0.287169	0.170285
C30	C	0.516736	0.212831	0.670285
C31	C	0.094911	-0.324367	0.177863
C32	C	0.594911	0.175633	0.677863
C33	C	0.167205	-0.279564	0.182731
C34	C	0.667205	0.220436	0.682731
C35	C	0.161318	-0.197569	0.180026
C36	C	0.661318	0.302431	0.680026
C37	C	0.116449	-0.571748	0.186335
C38	C	0.616449	-0.071748	0.686335
C39	C	0.122330	-0.653749	0.189045
C40	C	0.622330	-0.153749	0.689045
C41	C	-0.028140	-0.661348	0.176596
C42	C	0.471860	-0.161348	0.676596
C43	C	-0.034020	-0.579351	0.173898
C44	C	0.465980	-0.079351	0.673898
C45	C	0.038274	-0.534556	0.178760
C46	C	0.538274	-0.034556	0.678760
C47	C	0.100929	-0.408180	0.180623
C48	C	0.600929	0.091820	0.680623
C49	C	0.032255	-0.450745	0.175991
C50	C	0.532255	0.049255	0.675991
C51	C	0.804340	-0.889543	0.243438
C52	C	1.304340	-0.389543	0.743438
C53	C	0.717466	-0.893932	0.236286
C54	C	1.217466	-0.393932	0.736286
C55	C	0.677819	-0.949086	0.146248
C56	C	1.177819	-0.449086	0.646248
C57	C	0.725050	-0.999848	0.063349
C58	C	1.225050	-0.499848	0.563349
C59	C	0.811923	-0.995455	0.070496
C60	C	1.311923	-0.495455	0.570496
C61	C	0.415710	-0.964997	0.120335
C62	C	0.915710	-0.464997	0.620335
C63	C	0.328832	-0.969389	0.113196
C64	C	0.828832	-0.469389	0.613196
C65	C	0.321253	-0.863471	0.286133
C66	C	0.821253	-0.363471	0.786133
C67	C	0.408128	-0.859085	0.293277
C68	C	0.908128	-0.359085	0.793277
C69	C	0.455351	-0.909845	0.210374
C70	C	0.955351	-0.409845	0.710374
C71	C	0.589020	-0.953575	0.138937
C72	C	1.089020	-0.453575	0.638937
C73	C	0.544149	-0.905351	0.217679
C74	C	1.044149	-0.405351	0.717679
N75	N	0.851566	-0.940303	0.160548
N76	N	1.351566	-0.440303	0.660548
C77	C	0.076880	-0.073108	0.169582
C78	C	0.576880	0.426892	0.669582
C79	C	0.083139	-0.160375	0.172461
C80	C	0.583139	0.339625	0.672461
C81	C	0.066907	-0.933879	-0.054867
C82	C	0.566907	-0.433879	0.445133
C83	C	0.066737	-0.931527	-0.196471
C84	C	0.566737	-0.431527	0.303529
C85	C	0.061280	-0.855452	-0.263785
C86	C	0.561280	-0.355452	0.236215
C87	C	0.131903	-0.887959	-0.350672
C88	C	0.631903	-0.387959	0.149328
C89	C	-0.004167	-0.894836	-0.361897
C90	C	0.495833	-0.394836	0.138103
C91	C	0.137418	-0.964063	-0.281489
C92	C	0.637418	-0.464063	0.218511
C93	C	0.001286	-0.970932	-0.292709
C94	C	0.501286	-0.470932	0.207291
C95	C	0.071930	-1.003494	-0.379568
C96	C	0.571930	-0.503494	0.120432
C97	C	0.066263	-0.925043	0.411487
C98	C	0.566263	-0.425043	0.911487
C99	C	0.066427	-0.927395	0.553090
C100	C	0.566427	-0.427395	1.053090
H101	H	-0.052809	-0.174892	0.161427
H102	H	0.447191	0.325108	0.661427
O103	O	-0.061231	-0.335489	0.165037
O104	O	0.438769	0.164511	0.665037
H105	H	-0.116580	-0.295846	0.159331
H106	H	0.383420	0.204154	0.659331
O107	O	0.205059	-0.841490	-0.384989
O108	O	0.705059	-0.341490	0.115011
H109	H	0.200521	-0.780057	-0.338187
H110	H	0.700521	-0.280057	0.161813
H111	H	0.197316	-0.993321	-0.246244
H112	H	0.697316	-0.493321	0.253756
H113	H	0.556732	-0.998484	0.065628
H114	H	1.056732	-0.498484	0.565628
O115	O	0.077915	-1.086413	-0.445955
O116	O	0.577915	-0.586413	0.054045
H117	H	0.136704	-1.114942	-0.413590
H118	H	0.636704	-0.614942	0.086410
H119	H	-0.064009	-0.865538	-0.397268
H120	H	0.435991	-0.365538	0.102732
H121	H	0.220183	-0.161095	0.184006
H122	H	0.720183	0.338905	0.684006
O123	O	-0.118349	-0.539256	0.165700
O124	O	0.381651	-0.039256	0.665700
H125	H	-0.125125	-0.495568	0.251021
H126	H	0.374875	0.004432	0.751021
O127	O	0.055430	-0.772603	-0.197081
O128	O	0.555430	-0.272603	0.302919
H129	H	0.052976	-0.729577	-0.269738
H130	H	0.552976	-0.229577	0.230262
H131	H	-0.053942	-1.005994	-0.266771
H132	H	0.446058	-0.505994	0.233229
H133	H	0.164580	-0.438476	0.186796
H134	H	0.664580	0.061524	0.686796
H135	H	0.836615	-0.844634	0.316762
H136	H	1.336615	-0.344634	0.816762
H137	H	-0.086997	-0.697829	0.172636
H138	H	0.413003	-0.197829	0.672636
H139	H	0.185993	-0.684031	0.195224
H140	H	0.685993	-0.184031	0.695224
H141	H	0.576432	-0.860442	0.290984
H142	H	1.076432	-0.360442	0.790984
O143	O	0.666533	-0.839187	0.325701
O144	O	1.166533	-0.339187	0.825701
H145	H	0.624185	-0.802680	0.268562
H146	H	1.124185	-0.302680	0.768562
H147	H	-0.031394	-0.420455	0.169816
H148	H	0.468606	0.079545	0.669816
H149	H	0.440406	-0.814175	0.366593
H150	H	0.940406	-0.314175	0.866593
H151	H	0.282796	-0.822144	0.353627
H152	H	0.782796	-0.322144	0.853627
H153	H	0.296556	-1.014305	0.039873
H154	H	0.796556	-0.514305	0.539873
H155	H	0.454153	-1.006330	0.052834
H156	H	0.954153	-0.506330	0.552834
O157	O	0.682293	-1.059316	-0.033804
O158	O	1.182293	-0.559316	0.466196
H159	H	0.613951	-1.053842	-0.024854
H160	H	1.113951	-0.553842	0.475146
H161	H	0.230857	-0.309857	0.188893
H162	H	0.730857	0.190143	0.688893
O163	O	0.194418	-0.523436	0.191600
O164	O	0.694418	-0.023436	0.691600
H165	H	0.249765	-0.563078	0.197343
H166	H	0.749765	-0.063078	0.697343
O167	O	0.862866	-1.050209	-0.018894
O168	O	1.362866	-0.550209	0.481106
H169	H	0.820704	-1.089307	-0.082694
H170	H	1.320704	-0.589307	0.417306
