data_functionalizedCrystal
_audit_creation_method	'MofGen! by Chris Wilmer'
_symmetry_space_group_name_H-M	'P1'
_symmetry_Int_Tables_number	1
_symmetry_cell_setting	triclinic
loop_
_symmetry_equiv_pos_as_xyz
  x,y,z
_cell_length_a	18.101398
_cell_length_b	18.101165
_cell_length_c	18.101389
_cell_angle_alpha	89.809924
_cell_angle_beta	90.014375
_cell_angle_gamma	90.187455
loop_
_atom_site_label
_atom_site_type_symbol
_atom_site_fract_x
_atom_site_fract_y
_atom_site_fract_z
Zn1	Zn	-1.133238	-0.294942	-0.417759
Zn2	Zn	-1.133603	-0.418771	-0.293546
Zn3	Zn	-1.009397	-0.294942	-0.293941
Zn4	Zn	-1.009817	-0.418746	-0.417357
O5	O	-1.071514	-0.356850	-0.355651
O6	O	-1.236920	-0.311379	-0.401285
O7	O	-1.117104	-0.402355	-0.189966
O8	O	-1.025497	-0.191307	-0.310700
O9	O	-1.237188	-0.402355	-0.310026
O10	O	-1.116482	-0.191307	-0.401668
O11	O	-1.025851	-0.311378	-0.190256
O12	O	-0.905820	-0.311354	-0.310310
O13	O	-1.026212	-0.402313	-0.521043
O14	O	-0.906129	-0.402313	-0.400982
O15	O	-1.116889	-0.311355	-0.521338
O16	O	-1.117511	-0.522403	-0.309636
O17	O	-1.026566	-0.522385	-0.400599
C18	C	-0.879104	-0.356831	-0.355646
C19	C	-0.796789	-0.356841	-0.355661
C20	C	-0.646081	-0.356856	-0.355660
C21	C	-0.614947	-0.414173	-0.412619
C22	C	-0.529329	-0.414406	-0.412449
C23	C	-0.497699	-0.356871	-0.355660
C24	C	-0.528830	-0.377684	-0.277455
C25	C	-0.614477	-0.378092	-0.277785
C26	C	-0.614263	-0.278584	-0.376222
C27	C	-0.528615	-0.279014	-0.377942
C28	C	-0.413839	-0.356878	-0.355655
C29	C	-0.729941	-0.356851	-0.355659
C30	C	-1.072144	-0.549265	-0.355047
C31	C	-1.072481	-0.631581	-0.354814
C32	C	-1.071557	-0.356832	-0.548813
C33	C	-1.071575	-0.356824	-0.631127
C34	C	-0.264676	-0.356872	-0.355656
C35	C	-0.346990	-0.356886	-0.355658
C36	C	-1.070902	-0.163684	-0.356273
C37	C	-1.070641	-0.081368	-0.356538
C38	C	-1.071258	0.069336	-0.355960
C39	C	-1.014140	0.100689	-0.298609
C40	C	-1.014659	0.186302	-0.298056
C41	C	-1.071864	0.217714	-0.355392
C42	C	-1.149837	0.185910	-0.334584
C43	C	-1.149156	0.100267	-0.334496
C44	C	-1.051215	0.101603	-0.434142
C45	C	-1.049844	0.187260	-0.433394
C46	C	-1.072212	0.301571	-0.355071
C47	C	-1.070916	-0.014521	-0.356278
C48	C	-1.071618	-0.356685	-0.930219
C49	C	-1.014368	-0.413731	-0.898708
C50	C	-1.014525	-0.413996	-0.813089
C51	C	-1.071596	-0.356754	-0.781836
C52	C	-1.149702	-0.377940	-0.812864
C53	C	-1.149383	-0.378315	-0.898508
C54	C	-1.051439	-0.278325	-0.898881
C55	C	-1.049705	-0.278778	-0.813229
C56	C	-1.071588	-0.356791	-0.697976
C57	C	-1.071630	-0.356649	-1.014078
C58	C	-1.071514	-0.356816	-0.163240
C59	C	-1.071639	-0.356615	-0.080927
H60	H	-0.508330	-0.337217	-0.233840
H61	H	-0.956286	-0.400609	-0.919343
C62	C	-0.641439	-0.220894	-0.320196
H63	H	-0.622027	-0.173712	-0.332907
H64	H	-0.693877	-0.219170	-0.321037
H65	H	-0.625166	-0.234209	-0.272076
H66	H	-1.093134	-0.235822	-0.919277
C67	C	-1.208647	0.072200	-0.388475
H68	H	-1.233127	0.113142	-0.410355
H69	H	-1.186029	0.043469	-0.425959
H70	H	-1.243499	0.042686	-0.362399
H71	H	-0.995459	-0.259023	-0.920534
H72	H	-1.027263	0.078668	-0.241000
C73	C	-1.209147	0.213361	-0.389056
H74	H	-1.186830	0.244540	-0.425056
H75	H	-1.231493	0.172242	-0.412799
H76	H	-1.245704	0.240251	-0.362915
C77	C	-0.642294	-0.324117	-0.218462
H78	H	-0.601249	-0.302044	-0.194263
H79	H	-0.671334	-0.286777	-0.241162
H80	H	-0.671449	-0.350239	-0.183354
C81	C	-1.032588	-0.492450	-0.785171
H82	H	-1.032739	-0.492881	-0.732688
H83	H	-1.079839	-0.506966	-0.802886
H84	H	-0.996319	-0.525904	-0.802710
H85	H	-0.635518	-0.401342	-0.470769
H86	H	-0.992449	0.208107	-0.449100
H87	H	-0.507565	-0.434266	-0.259813
C88	C	-1.032831	0.213303	-0.219573
H89	H	-1.033202	0.265780	-0.218964
H90	H	-1.080005	0.195105	-0.205277
H91	H	-0.996483	0.195692	-0.186055
H92	H	-0.992225	-0.262801	-0.792955
C93	C	-0.643345	-0.252907	-0.451996
H94	H	-0.675170	-0.289687	-0.471800
H95	H	-0.669873	-0.208086	-0.446350
H96	H	-0.602921	-0.245131	-0.484598
C97	C	-1.172093	0.072563	-0.257287
H98	H	-1.181735	0.113652	-0.226269
H99	H	-1.215384	0.043041	-0.261296
H100	H	-1.133298	0.043914	-0.236655
H101	H	-1.167287	0.206832	-0.277900
H102	H	-0.995144	0.080548	-0.453320
H103	H	-0.507064	-0.234056	-0.339532
H104	H	-1.088568	0.208683	-0.478216
H105	H	-1.027582	-0.471460	-0.920058
H106	H	-0.956615	-0.400738	-0.792106
C107	C	-0.500896	-0.396868	-0.490760
H108	H	-0.541689	-0.389540	-0.522964
H109	H	-0.471497	-0.353321	-0.489554
H110	H	-0.471973	-0.436935	-0.508081
C111	C	-1.172437	-0.455697	-0.925273
H112	H	-1.181905	-0.486610	-0.883805
H113	H	-1.215852	-0.451938	-0.954518
H114	H	-1.133764	-0.476291	-0.953996
H115	H	-1.092825	0.081332	-0.476857
C116	C	-0.501113	-0.257792	-0.455687
H117	H	-0.470912	-0.296213	-0.474493
H118	H	-0.542254	-0.250721	-0.487493
H119	H	-0.473186	-0.213353	-0.453034
H120	H	-1.088337	-0.234018	-0.791972
C121	C	-1.208896	-0.323581	-0.785535
H122	H	-1.255686	-0.337410	-0.804950
H123	H	-1.210728	-0.324744	-0.733098
H124	H	-1.196797	-0.275049	-0.801711
C125	C	-0.936550	0.215396	-0.315587
H126	H	-0.904214	0.174878	-0.323109
H127	H	-0.938084	0.244951	-0.359020
H128	H	-0.919155	0.244298	-0.275431
H129	H	-1.193500	-0.338568	-0.919360
H130	H	-0.955970	0.080612	-0.311601
C131	C	-1.173158	-0.454502	-0.783676
H132	H	-1.220498	-0.466832	-0.802761
H133	H	-1.138257	-0.490401	-0.799008
H134	H	-1.175202	-0.453503	-0.731247
C135	C	-0.644270	-0.492083	-0.394399
H136	H	-0.625199	-0.526372	-0.429078
H137	H	-0.629014	-0.505760	-0.346050
H138	H	-0.696696	-0.492182	-0.396841
C139	C	-0.501897	-0.492760	-0.393987
H140	H	-0.543096	-0.524572	-0.386554
H141	H	-0.472824	-0.510707	-0.433710
H142	H	-0.472855	-0.491344	-0.350289
H143	H	-0.634636	-0.435297	-0.260432
