data_functionalizedCrystal
_audit_creation_method	'MofGen! by Chris Wilmer'
_symmetry_space_group_name_H-M	'P1'
_symmetry_Int_Tables_number	1
_symmetry_cell_setting	triclinic
loop_
_symmetry_equiv_pos_as_xyz
  x,y,z
_cell_length_a	23.096457
_cell_length_b	14.628931
_cell_length_c	14.628931
_cell_angle_alpha	59.999807
_cell_angle_beta	89.998385
_cell_angle_gamma	59.999721
loop_
_atom_site_label
_atom_site_type_symbol
_atom_site_fract_x
_atom_site_fract_y
_atom_site_fract_z
Zr1	Zr	0.557765	1.000594	-0.119995
O2	O	0.465317	1.191297	-0.265951
O3	O	0.586106	0.809889	-0.075251
O4	O	0.586106	1.000595	-0.265957
O5	O	0.465317	1.000591	0.075188
O6	O	0.681386	1.000597	-0.265963
O7	O	0.465317	1.000591	-0.075244
O8	O	0.681386	0.659459	0.075176
O9	O	0.465317	1.341729	-0.265951
O10	O	0.669299	0.888331	-0.056173
O11	O	0.598193	0.888329	0.056097
O12	O	0.598193	1.112861	-0.168435
O13	O	0.527086	1.112858	-0.056165
Zr14	Zr	0.709727	1.000597	0.119918
Zr15	Zr	0.709727	1.000598	-0.120003
Zr16	Zr	0.557766	1.000593	0.119927
Zr17	Zr	0.557766	1.240515	-0.119995
Zr18	Zr	0.709727	0.760675	0.119919
O19	O	0.681387	1.191302	0.075175
O20	O	0.681386	1.191303	-0.265963
O21	O	0.465317	1.191296	0.075187
O22	O	0.802175	0.809893	0.265874
O23	O	0.802175	0.809894	-0.075264
O24	O	0.586106	0.809888	0.265887
O25	O	0.802175	1.000600	-0.075264
O26	O	0.681387	1.000596	0.265881
O27	O	0.586106	1.000593	0.265887
O28	O	0.802175	1.000600	0.075168
O29	O	0.586106	1.341732	-0.265958
O30	O	0.681386	0.659458	0.265882
O31	O	0.802175	0.659462	0.265875
O32	O	0.802175	0.659462	0.075169
O33	O	0.465317	1.341729	-0.075245
O34	O	0.586106	1.341732	-0.075252
O35	O	0.669300	0.888330	0.168359
O36	O	0.740406	0.888332	0.056089
O37	O	0.669300	1.112862	-0.056173
O38	O	0.598193	1.112860	0.056097
C39	C	0.633746	0.700490	-0.000038
C40	C	0.633746	0.598637	-0.000038
C41	C	0.669019	0.553229	-0.055731
C42	C	0.669020	0.447959	-0.055732
C43	C	0.443666	1.000590	-0.000027
C44	C	0.379154	1.000589	-0.000023
C45	C	0.385965	0.883390	0.058566
C46	C	0.325350	0.883388	0.058570
C47	C	0.257924	1.000592	-0.000036
C48	C	0.251115	1.117806	-0.058627
C49	C	0.311730	1.117804	-0.058621
N50	N	0.135128	1.087833	-0.095414
N51	N	0.077549	1.087826	-0.095417
C52	C	0.075291	1.000603	-0.000055
N53	N	0.132794	0.913367	0.095309
N54	N	0.190380	0.913370	0.095310
C55	C	0.192192	1.000606	-0.000048
C56	C	0.016379	0.883394	0.058544
C57	C	-0.044240	0.883397	0.058552
C58	C	-0.118474	1.117818	-0.058656
C59	C	-0.057856	1.117812	-0.058653
C60	C	0.009568	1.000596	-0.000056
C61	C	0.823826	1.000600	-0.000049
C62	C	0.888338	1.000602	-0.000053
C63	C	0.633746	1.000596	-0.300144
C64	C	0.633746	1.000596	-0.401997
C65	C	0.633746	1.300701	-0.000039
C66	C	0.633747	1.402554	-0.000039
C67	C	0.669019	0.889215	-0.391717
C68	C	0.669020	0.889212	-0.496986
C69	C	0.633746	1.000594	0.300068
C70	C	0.633747	1.000594	0.401921
C71	C	0.823826	0.700495	-0.000049
C72	C	0.888338	0.598644	-0.000052
C73	C	0.633746	0.700489	0.300068
C74	C	0.633746	0.598636	0.401921
C75	C	0.823826	0.700494	0.300057
C76	C	0.888338	0.598643	0.401907
C77	C	0.443666	1.300696	-0.300133
C78	C	0.379154	1.402548	-0.401983
C79	C	0.443666	1.300696	-0.000028
C80	C	0.379155	1.402547	-0.000024
C81	C	0.633746	1.300701	-0.300144
C82	C	0.633746	1.402555	-0.401997
C83	C	0.881516	0.550813	-0.058663
C84	C	0.942125	0.455126	-0.058689
C85	C	1.009556	0.407265	-0.000097
C86	C	1.016376	0.455106	0.058516
C87	C	0.955768	0.550798	0.058535
C88	C	0.955757	0.550813	0.391132
C89	C	1.016378	0.455126	0.486822
C90	C	1.009579	0.407264	0.593284
C91	C	0.942153	0.455103	0.604056
C92	C	0.881534	0.550795	0.508368
C93	C	0.311736	1.450389	-0.391209
C94	C	0.251115	1.546106	-0.486898
C95	C	0.257913	1.593973	-0.593360
C96	C	0.325339	1.546128	-0.604132
C97	C	0.385959	1.450420	-0.508444
C98	C	0.385976	1.450388	0.058577
C99	C	0.325367	1.546101	0.058577
C100	C	0.257936	1.593965	-0.000019
C101	C	0.251116	1.546120	-0.058628
C102	C	0.311725	1.450415	-0.058633
C103	C	0.669020	0.553227	0.503020
C104	C	0.669021	0.447957	0.608292
H105	H	0.603549	0.559575	0.047645
H106	H	0.196212	1.213234	-0.106344
H107	H	-0.038687	0.787956	0.106270
O108	O	0.304989	1.231772	-0.115641
C109	C	0.232480	1.335224	-0.167341
H110	H	0.200152	1.300869	-0.178947
H111	H	0.214621	1.371261	-0.112419
C112	C	0.260779	1.488154	-0.268073
C113	C	0.221073	1.445961	-0.282337
H114	H	0.253741	1.556465	-0.339006
H115	H	0.309629	1.418458	-0.233239
H116	H	0.245892	1.518176	-0.222301
H117	H	0.235966	1.415925	-0.328097
H118	H	0.172224	1.515655	-0.317182
O119	O	0.331811	1.592728	-0.707637
C120	C	0.263845	1.687476	-0.789770
H121	H	0.223676	1.671751	-0.752447
H122	H	0.248404	1.787573	-0.819706
C123	C	0.314057	1.696313	-0.935308
C124	C	0.264722	1.676993	-0.889470
H125	H	0.314598	1.689853	-0.996811
H126	H	0.359848	1.632483	-0.879975
H127	H	0.301185	1.779727	-0.960246
H128	H	0.277600	1.593576	-0.864520
H129	H	0.218933	1.740809	-0.944802
H130	H	0.699222	0.592281	-0.103407
H131	H	1.058902	0.329346	-0.000120
H132	H	0.699216	0.408915	-0.103419
O133	O	0.198991	1.686978	-0.000170
C134	C	0.138007	1.718954	-0.064431
H135	H	0.151905	1.692588	-0.126403
H136	H	0.117590	1.663012	-0.006729
C137	C	0.063125	1.897451	-0.052743
C138	C	0.080194	1.865078	-0.128865
H139	H	0.027462	1.987585	-0.092485
H140	H	0.104210	1.875905	-0.009445
H141	H	0.046115	1.850822	-0.004663
H142	H	0.097211	1.911693	-0.176933
H143	H	0.039110	1.886634	-0.172173
H144	H	0.196206	1.585105	-0.106335
O145	O	0.597664	0.449349	0.056686
C146	C	0.545588	0.583446	-0.018600
H147	H	0.561196	0.623944	-0.095748
H148	H	0.492328	0.601749	-0.044781
C149	C	0.520396	0.600755	0.133494
C150	C	0.539569	0.650497	0.038744
H151	H	0.516681	0.642116	0.168867
H152	H	0.555479	0.510411	0.184217
H153	H	0.476014	0.616011	0.111663
H154	H	0.583954	0.635226	0.060578
H155	H	0.504494	0.740840	-0.011974
O156	O	0.305219	1.403829	-0.115527
C157	C	0.373167	1.309061	-0.102949
H158	H	0.413358	1.324762	-0.081388
H159	H	0.388603	1.208973	-0.032777
C160	C	0.322885	1.300254	-0.239605
C161	C	0.372247	1.319544	-0.213133
H162	H	0.322318	1.306714	-0.307569
H163	H	0.277107	1.364097	-0.248077
H164	H	0.335754	1.216847	-0.181119
H165	H	0.359373	1.402955	-0.271611
H166	H	0.418024	1.255715	-0.204673
O167	O	0.451395	1.404042	-0.519118
C168	C	0.444387	1.466843	-0.633606
H169	H	0.390288	1.506289	-0.684623
H170	H	0.449360	1.549954	-0.661802
C171	C	0.569538	1.321440	-0.589002
C172	C	0.503095	1.369879	-0.651661
H173	H	0.605753	1.261632	-0.600140
H174	H	0.574260	1.279132	-0.511868
H175	H	0.573672	1.390710	-0.612505
H176	H	0.498959	1.300612	-0.628147
H177	H	0.498374	1.412173	-0.728791
H178	H	0.961306	0.589769	0.304454
H179	H	1.058945	0.329345	0.671190
H180	H	0.440876	1.411425	0.106301
O181	O	0.815965	0.597399	-0.115492
C182	C	0.763923	0.692144	-0.102945
H183	H	0.787540	0.676424	-0.023790
H184	H	0.744965	0.792243	-0.178655
C185	C	0.671772	0.700966	-0.191112
C186	C	0.700777	0.681651	-0.093887
H187	H	0.632819	0.694498	-0.185529
H188	H	0.706833	0.637138	-0.199569
H189	H	0.655979	0.784381	-0.254194
H190	H	0.716577	0.598231	-0.030810
H191	H	0.665717	0.745464	-0.085419
H192	H	0.330934	1.585041	0.106307
O193	O	0.081823	0.769422	0.115575
C194	C	0.074835	0.665975	0.167280
H195	H	0.020742	0.700340	0.178877
H196	H	0.079807	0.629927	0.112366
C197	C	0.199991	0.513040	0.268031
C198	C	0.133556	0.555245	0.282283
H199	H	0.236215	0.444734	0.338967
H200	H	0.204701	0.582733	0.233193
H201	H	0.204125	0.483009	0.222265
H202	H	0.129420	0.585290	0.328036
H203	H	0.128848	0.485554	0.317131
H204	H	-0.173373	1.213248	-0.106375
H205	H	0.196220	1.585045	-0.478105
H206	H	0.699215	0.592291	0.511638
H207	H	1.071273	0.416186	0.478031
O208	O	0.935364	0.408758	-0.115637
C209	C	0.862850	0.471537	-0.167352
H210	H	0.830539	0.510960	-0.121369
H211	H	0.844979	0.554662	-0.258312
C212	C	0.891113	0.326150	-0.219565
C213	C	0.851429	0.374561	-0.163082
H214	H	0.884067	0.266334	-0.216936
H215	H	0.939968	0.283857	-0.184728
H216	H	0.876216	0.395432	-0.295360
H217	H	0.866332	0.305281	-0.087286
H218	H	0.802577	0.416840	-0.197907
O219	O	0.451442	0.769495	0.115674
C220	C	0.459196	0.698179	0.230058
H221	H	0.420814	0.766759	0.250803
H222	H	0.447151	0.625105	0.248785
C223	C	0.582927	0.542115	0.276203
C224	C	0.535789	0.626348	0.301685
H225	H	0.630173	0.497801	0.320387
H226	H	0.577703	0.590159	0.199140
H227	H	0.572881	0.481232	0.291810
H228	H	0.545829	0.687239	0.286065
H229	H	0.541016	0.578312	0.378747
H230	H	1.071286	0.416124	0.106220
H231	H	0.330896	0.787948	0.106281
O232	O	0.704988	0.775559	-0.486880
C233	C	0.696924	0.800855	-0.594234
H234	H	0.646759	0.901583	-0.657549
H235	H	0.744832	0.795409	-0.618748
C236	C	0.752780	0.576063	-0.515093
C237	C	0.691162	0.699774	-0.592856
H238	H	0.749229	0.513709	-0.514243
H239	H	0.758215	0.559018	-0.442766
H240	H	0.792697	0.571543	-0.535531
H241	H	0.651248	0.704297	-0.572409
H242	H	0.685720	0.716817	-0.665180
O243	O	0.704987	0.401278	0.711838
C244	C	0.696991	0.306548	0.793894
H245	H	0.646853	0.322347	0.756501
H246	H	0.744934	0.206447	0.823809
C247	C	0.752798	0.297543	0.939558
C248	C	0.691215	0.316955	0.893633
H249	H	0.749239	0.303957	1.001085
H250	H	0.758189	0.361361	0.884276
H251	H	0.792745	0.214126	0.964478
H252	H	0.651271	0.400376	0.868702
H253	H	0.685818	0.253151	0.948914
O254	O	0.935681	0.408414	0.707561
C255	C	1.003648	0.313717	0.789694
H256	H	1.043816	0.271897	0.752370
H257	H	1.019089	0.359496	0.819633
C258	C	0.953434	0.256292	0.935231
C259	C	1.002769	0.204920	0.889391
H260	H	0.952893	0.189183	0.996732
H261	H	0.907644	0.320095	0.879898
H262	H	0.966309	0.294441	0.960171
H263	H	0.989889	0.166787	0.864440
H264	H	1.048558	0.141108	0.944723
H265	H	0.208547	1.671905	-0.671267
H266	H	-0.063406	1.213248	-0.106371
H267	H	0.699215	0.793858	-0.304982
H268	H	0.603548	1.095957	-0.606715
H269	H	0.603543	1.095953	-0.488732
H270	H	0.961332	0.589730	0.106270
H271	H	0.826641	0.589725	0.517156
H272	H	0.306186	1.411420	-0.304530
H273	H	0.603550	0.441590	0.511282
H274	H	0.603545	0.559582	0.393303
