data_functionalizedCrystal
_audit_creation_method	'MofGen! by Chris Wilmer'
_symmetry_space_group_name_H-M	'P1'
_symmetry_Int_Tables_number	1
_symmetry_cell_setting	triclinic
loop_
_symmetry_equiv_pos_as_xyz
  x,y,z
_cell_length_a	23.532407
_cell_length_b	14.044190
_cell_length_c	13.101039
_cell_angle_alpha	93.663707
_cell_angle_beta	86.668910
_cell_angle_gamma	88.020228
loop_
_atom_site_label
_atom_site_type_symbol
_atom_site_fract_x
_atom_site_fract_y
_atom_site_fract_z
O1	O	0.764357	0.109758	-0.085096
O2	O	0.599397	0.126397	-0.085128
O3	O	0.679398	-0.019883	-0.085092
O4	O	0.684355	0.256038	-0.085131
O5	O	0.673659	-0.009370	0.085335
O6	O	0.593657	0.136910	0.085300
O7	O	0.758617	0.120271	0.085331
Zn8	Zn	0.675226	0.130260	0.112375
Zn9	Zn	0.682788	0.116409	-0.112171
O10	O	0.678616	0.266551	0.085296
C11	C	0.575288	0.131230	0.000082
C12	C	0.512002	0.129955	0.000071
C13	C	0.674360	-0.049920	0.000124
C14	C	0.667892	-0.155085	0.000132
C15	C	0.701938	-0.405694	0.000098
C16	C	0.656078	-0.347633	0.000097
C17	C	0.662653	-0.240489	0.000116
C18	C	0.695365	-0.512847	0.000079
C19	C	0.117158	0.208532	0.000106
C20	C	0.057694	0.207349	0.000113
O21	O	0.024897	0.280191	0.000140
N22	N	0.030352	0.120385	0.000123
C23	C	0.062478	0.034600	0.000138
O24	O	0.033762	-0.039478	0.000149
C25	C	0.121941	0.035784	0.000139
C26	C	0.149280	0.122753	0.000118
C27	C	0.144497	0.295494	0.000086
C28	C	0.203957	0.296677	0.000078
C29	C	0.236079	0.210898	0.000090
C30	C	0.208741	0.123936	0.000110
C31	C	0.154066	-0.050000	0.000161
C32	C	0.213533	-0.048808	0.000163
C33	C	0.240872	0.038161	0.000142
C34	C	0.300323	0.039339	0.000113
N35	N	0.327664	0.126303	0.000102
C36	C	0.295543	0.212082	0.000091
C37	C	-0.062399	0.032119	0.000138
C38	C	-0.121861	0.030933	0.000130
C39	C	-0.126641	0.203683	0.000106
C40	C	-0.067178	0.204867	0.000107
C41	C	-0.035057	0.119083	0.000127
C42	C	0.420414	0.214559	0.000072
C43	C	0.479880	0.215734	0.000060
C44	C	0.484656	0.042985	0.000088
C45	C	0.425195	0.041809	0.000096
C46	C	0.393075	0.127604	0.000091
O47	O	0.333156	-0.033464	0.000090
O48	O	0.324266	0.286149	0.000093
C49	C	0.782726	0.115438	0.000119
C50	C	0.846012	0.116713	0.000124
C51	C	0.683654	0.296588	0.000077
C52	C	0.690122	0.401752	0.000063
N53	N	0.670070	0.139712	0.265621
N54	N	0.687948	0.106949	-0.265417
C55	C	0.663055	0.152581	0.474660
C56	C	0.694962	0.094083	0.525550
C57	C	0.691058	0.101244	0.641867
C58	C	0.666957	0.145421	0.358333
H59	H	0.611879	-0.378393	0.000082
F60	F	0.623522	0.225067	0.531890
H61	H	0.510820	-0.026854	0.000094
H62	H	-0.044923	0.275685	0.000096
H63	H	0.502137	0.286558	0.000042
F64	F	0.759707	-0.365490	0.000122
F65	F	0.386238	0.305872	0.000068
F66	F	-0.150949	-0.061633	0.000129
H67	H	0.226211	0.367496	0.000060
H68	H	0.725210	0.038625	0.481761
F69	F	0.110319	0.386801	0.000074
H70	H	-0.152806	0.273529	0.000102
H71	H	-0.036249	-0.037743	0.000145
F72	F	0.124984	-0.142566	0.000169
H73	H	0.239683	-0.118666	0.000180
F74	F	0.396098	-0.050752	0.000119
