data_functionalizedCrystal
_audit_creation_method	'MofGen! by Chris Wilmer'
_symmetry_space_group_name_H-M	'P1'
_symmetry_Int_Tables_number	1
_symmetry_cell_setting	triclinic
loop_
_symmetry_equiv_pos_as_xyz
  x,y,z
_cell_length_a	14.971486
_cell_length_b	17.699083
_cell_length_c	13.448316
_cell_angle_alpha	89.992503
_cell_angle_beta	89.998199
_cell_angle_gamma	83.448572
loop_
_atom_site_label
_atom_site_type_symbol
_atom_site_fract_x
_atom_site_fract_y
_atom_site_fract_z
O1	O	1.186608	0.098633	-0.082580
O2	O	0.926168	0.110445	-0.082607
O3	O	1.063746	-0.005632	-0.082584
O4	O	1.049030	0.214710	-0.082603
O5	O	1.063729	-0.005639	0.082800
O6	O	0.926150	0.110438	0.082777
O7	O	1.186591	0.098626	0.082804
Cu8	Cu	1.056369	0.104531	0.097891
Cu9	Cu	1.056390	0.104540	-0.097694
O10	O	1.049013	0.214703	0.082781
C11	C	0.892836	0.109913	0.000082
C12	C	0.793544	0.108330	0.000071
C13	C	1.063210	-0.033834	0.000108
C14	C	1.061628	-0.117856	0.000109
C15	C	0.736085	0.176522	0.000067
C16	C	0.642790	0.175030	0.000082
C17	C	0.606958	0.105346	0.000094
C18	C	0.664425	0.037148	0.000102
C19	C	0.757717	0.038641	0.000094
C20	C	0.469973	0.034042	0.000116
C21	C	0.376674	0.032549	0.000122
C22	C	0.355046	0.170431	0.000104
C23	C	0.448339	0.171924	0.000096
C24	C	0.505799	0.103726	0.000102
C25	C	1.142384	-0.166278	0.000118
C26	C	1.140892	-0.245225	0.000110
C27	C	1.058644	-0.275748	0.000098
C28	C	0.977882	-0.227320	0.000085
C29	C	0.979375	-0.148374	0.000087
C30	C	0.971860	-0.545698	0.000076
C31	C	0.970374	-0.624649	0.000077
C32	C	1.133378	-0.642548	0.000099
C33	C	1.134871	-0.563603	0.000101
C34	C	1.054109	-0.515181	0.000083
C35	C	1.055728	-0.429578	0.000090
C36	C	1.057024	-0.361350	0.000097
C37	C	1.219923	0.099158	0.000114
C38	C	1.319214	0.100741	0.000117
C39	C	1.049549	0.242905	0.000087
C40	C	1.051131	0.326927	0.000080
N41	N	1.056361	0.104525	0.235456
N42	N	1.056404	0.104540	-0.235258
C43	C	1.117300	0.053147	0.287506
C44	C	1.117306	0.053147	0.391610
C45	C	1.056376	0.104528	0.443660
C46	C	0.995431	0.155908	0.391602
C47	C	0.995422	0.155904	0.287501
C48	C	0.995456	0.155913	0.608582
C49	C	0.995466	0.155918	0.712691
C50	C	1.117339	0.053155	0.712691
C51	C	1.117330	0.053152	0.608590
C52	C	1.056386	0.104533	0.556539
H53	H	0.765252	0.233267	0.000056
C54	C	0.928382	0.212405	0.448851
H55	H	0.892074	0.242992	0.402939
H56	H	0.960461	0.243968	0.489464
H57	H	0.891223	0.185100	0.489456
H58	H	1.166919	0.011310	0.245134
C59	C	1.232858	-0.132709	0.000131
H60	H	1.280739	-0.172858	0.000127
H61	H	1.236826	-0.102290	0.057804
H62	H	1.236834	-0.102281	-0.057549
C63	C	1.222218	-0.695811	0.000108
H64	H	1.271414	-0.666324	0.000126
H65	H	1.225036	-0.726974	-0.057566
H66	H	1.225016	-0.726985	0.057787
C67	C	0.879899	-0.658227	0.000056
H68	H	0.890580	-0.712179	0.000069
H69	H	0.846664	-0.641610	-0.057624
H70	H	0.846644	-0.641617	0.057729
H71	H	0.635242	-0.019590	0.000126
C72	C	0.820923	-0.036370	0.000089
H73	H	0.786222	-0.078086	0.000087
H74	H	0.857771	-0.038659	0.057757
H75	H	0.857760	-0.038648	-0.057596
H76	H	0.906099	-0.506282	0.000062
H77	H	0.910914	-0.252178	0.000069
H78	H	0.516756	-0.021492	0.000122
H79	H	0.596010	0.230559	0.000077
H80	H	1.206652	-0.284648	0.000120
C81	C	0.337259	-0.044102	0.000141
H82	H	0.384840	-0.084504	0.000157
H83	H	0.301314	-0.047550	-0.057529
H84	H	0.301316	-0.047545	0.057824
H85	H	0.945799	0.197740	0.245122
H86	H	1.166962	0.011319	0.755077
C87	C	1.184346	-0.003362	0.448861
H88	H	1.220641	-0.033955	0.402952
H89	H	1.152256	-0.034918	0.489486
H90	H	1.221519	0.023930	0.489456
C91	C	0.487754	0.248575	0.000085
H92	H	0.440172	0.288977	0.000093
H93	H	0.523698	0.252025	-0.057590
H94	H	0.523698	0.252016	0.057764
H95	H	1.201846	-0.538756	0.000115
C96	C	0.928389	0.212387	0.769945
H97	H	0.892067	0.242967	0.724038
H98	H	0.960439	0.243961	0.810575
H99	H	0.891248	0.185054	0.810536
H100	H	0.913615	-0.108949	0.000079
H101	H	1.166948	0.011317	0.566210
H102	H	0.308257	0.225960	0.000104
H103	H	0.945826	0.197751	0.566206
