data_functionalizedCrystal
_audit_creation_method	'MofGen! by Chris Wilmer'
_symmetry_space_group_name_H-M	'P1'
_symmetry_Int_Tables_number	1
_symmetry_cell_setting	triclinic
loop_
_symmetry_equiv_pos_as_xyz
  x,y,z
_cell_length_a	31.640172
_cell_length_b	31.640172
_cell_length_c	16.704494
_cell_angle_alpha	63.425370
_cell_angle_beta	90.004933
_cell_angle_gamma	60.004780
loop_
_atom_site_label
_atom_site_type_symbol
_atom_site_fract_x
_atom_site_fract_y
_atom_site_fract_z
Zr1	Zr	0.409956	0.457111	-0.100069
O2	O	0.345781	0.538678	-0.221972
O3	O	0.429621	0.370967	-0.062701
O4	O	0.433948	0.450502	-0.221953
O5	O	0.338052	0.465953	0.062902
O6	O	0.503504	0.450494	-0.221936
O7	O	0.341455	0.459144	-0.062720
O8	O	0.495765	0.308221	0.062937
O9	O	0.345791	0.608226	-0.221971
O10	O	0.489927	0.408088	-0.046749
O11	O	0.435478	0.413176	0.046989
O12	O	0.440572	0.506817	-0.140510
O13	O	0.386123	0.511905	-0.046772
Zr14	Zr	0.515463	0.467958	0.100311
Zr15	Zr	0.520891	0.457098	-0.100043
Zr16	Zr	0.404529	0.467971	0.100284
Zr17	Zr	0.409972	0.568031	-0.100067
Zr18	Zr	0.515448	0.357038	0.100308
O19	O	0.495799	0.554102	0.062942
O20	O	0.503516	0.538661	-0.221934
O21	O	0.338064	0.554120	0.062904
O22	O	0.579638	0.386390	0.222214
O23	O	0.587356	0.370949	-0.062663
O24	O	0.421903	0.386408	0.222176
O25	O	0.587368	0.459116	-0.062661
O26	O	0.491472	0.474567	0.222194
O27	O	0.421916	0.474575	0.222178
O28	O	0.583965	0.465925	0.062962
O29	O	0.433969	0.608216	-0.221950
O30	O	0.491451	0.316853	0.222191
O31	O	0.579629	0.316843	0.222213
O32	O	0.583943	0.308211	0.062958
O33	O	0.341477	0.616858	-0.062717
O34	O	0.429655	0.616848	-0.062696
O35	O	0.484848	0.418251	0.140752
O36	O	0.539297	0.413164	0.047014
O37	O	0.489942	0.511893	-0.046747
O38	O	0.435492	0.516981	0.046991
C39	C	0.462691	0.323790	0.000118
C40	C	0.462685	0.276701	0.000117
C41	C	0.491142	-0.017996	-0.048801
C42	C	0.491153	-0.194991	-0.048800
O43	O	0.515342	-0.220153	-0.090380
N44	N	0.462730	-0.214465	0.000128
C45	C	0.434306	-0.189689	0.049065
O46	O	0.410135	-0.210318	0.090689
C47	C	0.434298	-0.012697	0.049069
C48	C	0.462718	0.006778	0.000130
C49	C	0.519560	0.001479	-0.097736
C50	C	0.519555	0.045728	-0.097739
C51	C	0.491132	0.070501	-0.048809
C52	C	0.462713	0.051026	0.000126
C53	C	0.405877	0.012075	0.098011
C54	C	0.405879	0.056325	0.098010
C55	C	0.434299	0.075800	0.049070
C56	C	0.434285	0.120048	0.049053
N57	N	0.462707	0.139522	0.000125
C58	C	0.491131	0.114748	-0.048806
C59	C	0.434311	-0.282612	0.049058
C60	C	0.434312	-0.326859	0.049055
C61	C	0.491160	-0.332159	-0.048809
C62	C	0.491155	-0.287908	-0.048811
C63	C	0.462733	-0.263138	0.000129
C64	C	0.491117	0.207674	-0.048811
C65	C	0.491108	0.251928	-0.048814
C66	C	0.434263	0.257222	0.049054
C67	C	0.434270	0.212974	0.049053
C68	C	0.462701	0.188199	0.000119
O69	O	0.410112	0.145232	0.090620
O70	O	0.515307	0.135377	-0.090408
C71	C	0.491147	-0.062244	-0.048797
C72	C	0.462729	-0.081719	0.000137
C73	C	0.434305	-0.056945	0.049068
C74	C	0.462730	-0.125966	0.000135
C75	C	0.491153	-0.150739	-0.048796
C76	C	0.519576	-0.131266	-0.097724
C77	C	0.519571	-0.087017	-0.097728
C78	C	0.405883	-0.076419	0.097997
C79	C	0.405890	-0.120667	0.097996
C80	C	0.434313	-0.145440	0.049065
C81	C	0.323948	0.462550	0.000087
C82	C	0.276853	0.462555	0.000076
C83	C	0.010608	0.410994	0.049082
C84	C	-0.166378	0.410985	0.049100
O85	O	-0.167354	0.367157	0.090758
N86	N	-0.214270	0.462520	0.000157
C87	C	-0.217916	0.514061	-0.048790
O88	O	-0.262713	0.557896	-0.090411
C89	C	-0.040931	0.514071	-0.048802
C90	C	0.006961	0.462532	0.000137
C91	C	0.058498	0.359459	0.098018
C92	C	0.102742	0.359462	0.098008
C93	C	0.099095	0.410999	0.049063
C94	C	0.051205	0.462534	0.000128
C95	C	-0.044577	0.565612	-0.097743
C96	C	-0.000326	0.565610	-0.097740
C97	C	0.047567	0.514071	-0.048801
C98	C	0.091802	0.514074	-0.048827
N99	N	0.139695	0.462539	0.000117
C100	C	0.143341	0.411002	0.049062
C101	C	-0.310833	0.514053	-0.048781
C102	C	-0.355080	0.514051	-0.048780
C103	C	-0.303538	0.410974	0.049112
C104	C	-0.259292	0.410976	0.049104
C105	C	-0.262941	0.462518	0.000162
C106	C	0.236254	0.411011	0.049038
C107	C	0.280499	0.411018	0.049021
C108	C	0.228954	0.514095	-0.048866
C109	C	0.184713	0.514088	-0.048854
C110	C	0.188366	0.462541	0.000105
O111	O	0.092817	0.557879	-0.090454
O112	O	0.188142	0.367175	0.090694
C113	C	-0.033636	0.410991	0.049091
C114	C	-0.081526	0.462526	0.000155
C115	C	-0.085172	0.514064	-0.048790
C116	C	-0.125772	0.462524	0.000157
C117	C	-0.122125	0.410987	0.049102
C118	C	-0.074233	0.359451	0.098046
C119	C	-0.029989	0.359454	0.098036
C120	C	-0.133065	0.565599	-0.097733
C121	C	-0.177306	0.565592	-0.097721
C122	C	-0.173660	0.514055	-0.048776
C123	C	0.601472	0.462519	0.000154
C124	C	0.648567	0.462513	0.000165
C125	C	0.469499	0.448950	-0.250491
C126	C	0.471804	0.444340	-0.335546
C127	C	0.462729	0.601279	0.000124
C128	C	0.462735	0.648367	0.000125
C129	C	0.424610	0.538759	-0.593270
C130	C	0.426774	0.534430	-0.673190
C131	C	0.478298	0.431353	-0.575306
C132	C	0.476134	0.435682	-0.495387
C133	C	0.449289	0.489387	-0.504374
C134	C	0.447122	0.493716	-0.424452
C135	C	0.498649	0.390639	-0.326571
C136	C	0.500813	0.386310	-0.406490
C137	C	0.455920	0.476119	0.250732
C138	C	0.453616	0.480729	0.335787
C139	C	0.601453	0.323774	0.000151
C140	C	0.648542	0.276680	0.000162
C141	C	0.455902	0.337374	0.250729
C142	C	0.453591	0.294896	0.335784
C143	C	0.594664	0.337358	0.250763
C144	C	0.639448	0.294875	0.335828
C145	C	0.330756	0.587710	-0.250521
C146	C	0.285972	0.630194	-0.335587
C147	C	0.323966	0.601295	0.000090
C148	C	0.276878	0.648388	0.000080
C149	C	0.469518	0.587695	-0.250488
C150	C	0.471829	0.630173	-0.335542
C151	C	0.644885	0.251915	-0.048785
C152	C	0.689125	0.207670	-0.048794
C153	C	0.737022	0.188189	0.000150
C154	C	0.740678	0.212959	0.049098
C155	C	0.696438	0.257206	0.049101
C156	C	0.478276	0.277598	0.424678
C157	C	0.476102	0.237691	0.504603
C158	C	0.449247	0.215081	0.495632
C159	C	0.424559	0.232383	0.406728
C160	C	0.426729	0.272292	0.326805
C161	C	0.688905	0.272268	0.326846
C162	C	0.730989	0.232356	0.406766
C163	C	0.723614	0.215048	0.495668
C164	C	0.674152	0.237659	0.504649
C165	C	0.632069	0.277573	0.424730
C166	C	0.236514	0.652806	-0.326604
C167	C	0.194431	0.692732	-0.406525
C168	C	0.201806	0.710042	-0.495427
C169	C	0.251268	0.687428	-0.504408
C170	C	0.293351	0.647506	-0.424488
C171	C	0.280535	0.673158	0.049018
C172	C	0.236295	0.717414	0.049005
C173	C	0.188398	0.736896	0.000059
C174	C	0.184742	0.712124	-0.048886
C175	C	0.228982	0.667872	-0.048878
C176	C	0.498689	0.652771	-0.326541
C177	C	0.500870	0.692678	-0.406451
C178	C	0.476188	0.709990	-0.495361
C179	C	0.449327	0.687388	-0.504360
C180	C	0.447149	0.647478	-0.424451
H181	H	0.514298	-0.272055	-0.088661
H182	H	0.542713	-0.071165	-0.137579
H183	H	-0.300576	0.369010	0.088960
H184	H	0.518789	0.638682	-0.254153
Cl185	Cl	0.555306	-0.162417	-0.159239
H186	H	0.699423	0.277365	0.088965
H187	H	0.145739	0.727993	-0.088737
H188	H	0.757885	0.182547	0.560737
Cl189	Cl	0.413373	0.619080	-0.435783
H190	H	0.333621	0.629096	-0.431813
H191	H	0.668154	0.223561	0.577044
Cl192	Cl	0.398534	0.188497	0.110564
H193	H	0.230500	0.638714	-0.254223
H194	H	0.591800	0.295975	0.432057
Cl195	Cl	0.529672	0.328568	-0.214806
Cl196	Cl	0.340706	0.346221	0.110547
Cl197	Cl	0.240903	0.748545	0.110545
Cl198	Cl	0.555288	0.070201	-0.159262
H199	H	0.406629	0.286370	0.254427
H200	H	0.382738	-0.056253	0.137845
H201	H	-0.220299	0.369009	0.088963
Cl202	Cl	0.148896	0.760230	-0.595890
Cl203	Cl	0.584677	0.276397	-0.110327
Cl204	Cl	0.340743	0.648679	0.110554
Cl205	Cl	0.224375	0.636734	-0.110400
H206	H	0.477965	0.742488	-0.560420
H207	H	0.382732	0.076491	0.137862
H208	H	0.154160	0.711137	-0.399194
Cl209	Cl	0.418295	0.709163	-0.616140
H210	H	0.686139	0.187507	-0.088654
H211	H	0.522742	0.711077	-0.399105
Cl212	Cl	0.260531	0.709194	-0.616178
Cl213	Cl	0.132787	0.792527	0.000060
Cl214	Cl	0.792634	0.132563	0.000139
H215	H	0.514251	0.267784	-0.088669
H216	H	0.514269	0.187506	-0.088657
H217	H	0.514302	-0.352336	-0.088652
Cl218	Cl	0.555294	-0.029654	-0.159264
Cl219	Cl	0.398574	-0.351329	0.110567
Cl220	Cl	0.370155	-0.145142	0.159522
Cl221	Cl	0.398576	-0.251478	0.110589
H222	H	0.411119	0.277402	0.088889
Cl223	Cl	0.370148	-0.012398	0.159543
H224	H	-0.313813	0.556026	-0.088642
Cl225	Cl	0.240854	0.346209	0.110584
H226	H	0.500144	0.296003	0.432000
Cl227	Cl	0.162944	0.294667	0.159543
H228	H	-0.216301	0.607564	-0.137582
H229	H	0.061476	0.317489	0.137880
Cl230	Cl	0.800896	0.188460	0.110628
Cl231	Cl	-0.415282	0.578845	-0.110319
H232	H	-0.083566	0.607580	-0.137593
H233	H	0.406678	0.574634	-0.745571
Cl234	Cl	0.124505	0.578879	-0.110396
H235	H	0.009004	0.317486	0.137890
Cl236	Cl	-0.004918	0.630409	-0.159269
H237	H	0.496209	0.223609	0.576984
H238	H	0.225994	0.556055	-0.088719
H239	H	-0.071270	0.317487	0.137893
H240	H	0.522671	0.342585	-0.399186
Cl241	Cl	-0.137659	0.630396	-0.159272
H242	H	0.425261	0.537445	-0.431773
H243	H	0.402746	0.582488	-0.600589
H244	H	0.500160	0.387629	-0.568007
H245	H	0.447483	0.182585	0.560718
Cl246	Cl	0.390801	0.203952	0.395466
Cl247	Cl	0.698190	0.294022	0.215092
H248	H	0.771260	0.213950	0.399437
