data_functionalizedCrystal
_audit_creation_method	'MofGen! by Chris Wilmer'
_symmetry_space_group_name_H-M	'P1'
_symmetry_Int_Tables_number	1
_symmetry_cell_setting	triclinic
loop_
_symmetry_equiv_pos_as_xyz
  x,y,z
_cell_length_a	18.050591
_cell_length_b	21.295417
_cell_length_c	18.050582
_cell_angle_alpha	89.973245
_cell_angle_beta	89.979078
_cell_angle_gamma	90.026512
loop_
_atom_site_label
_atom_site_type_symbol
_atom_site_fract_x
_atom_site_fract_y
_atom_site_fract_z
Zn1	Zn	1.135281	-0.250716	-0.420010
Zn2	Zn	1.468614	0.082617	-0.086676
Zn3	Zn	1.801947	0.415950	0.246657
Zn4	Zn	1.135186	-0.355977	-0.295811
Zn5	Zn	1.468520	-0.022644	0.037523
Zn6	Zn	1.801853	0.310689	0.370856
Zn7	Zn	1.011100	-0.250719	-0.295821
Zn8	Zn	1.344433	0.082615	0.037512
Zn9	Zn	1.677767	0.415948	0.370846
Zn10	Zn	1.011043	-0.355944	-0.419946
Zn11	Zn	1.344376	-0.022611	-0.086613
Zn12	Zn	1.677710	0.310722	0.246720
O13	O	1.073153	-0.303339	-0.357897
O14	O	1.406486	0.029994	-0.024564
O15	O	1.739819	0.363327	0.308770
O16	O	1.239193	-0.264692	-0.403557
O17	O	1.572526	0.068641	-0.070224
O18	O	1.905859	0.401974	0.263110
O19	O	1.118710	-0.342030	-0.191887
O20	O	1.452044	-0.008696	0.141446
O21	O	1.785377	0.324637	0.474779
O22	O	1.027636	-0.162629	-0.312326
O23	O	1.360969	0.170704	0.021008
O24	O	1.694303	0.504038	0.354341
O25	O	1.239124	-0.342027	-0.312308
O26	O	1.572457	-0.008694	0.021025
O27	O	1.905790	0.324639	0.354358
O28	O	1.118871	-0.162627	-0.403567
O29	O	1.452204	0.170706	-0.070233
O30	O	1.785538	0.504039	0.263100
O31	O	1.027545	-0.264697	-0.191895
O32	O	1.360878	0.068637	0.141438
O33	O	1.694211	0.401970	0.474772
O34	O	0.907168	-0.264664	-0.312264
O35	O	1.240501	0.068669	0.021069
O36	O	1.573834	0.402002	0.354403
O37	O	1.027539	-0.341971	-0.523879
O38	O	1.360872	-0.008637	-0.190546
O39	O	1.694206	0.324696	0.142787
O40	O	0.907126	-0.341973	-0.403458
O41	O	1.240459	-0.008640	-0.070125
O42	O	1.573793	0.324694	0.263208
O43	O	1.118816	-0.264660	-0.523926
O44	O	1.452149	0.068673	-0.190593
O45	O	1.785483	0.402007	0.142741
O46	O	1.118655	-0.444062	-0.312247
O47	O	1.451989	-0.110729	0.021087
O48	O	1.785322	0.222604	0.354420
O49	O	1.027448	-0.444038	-0.403449
O50	O	1.360781	-0.110705	-0.070115
O51	O	1.694114	0.222629	0.263218
C52	C	0.880200	-0.303316	-0.357856
C53	C	1.213534	0.030018	-0.024523
C54	C	1.546867	0.363351	0.308811
C55	C	0.797655	-0.303321	-0.357856
C56	C	1.130988	0.030012	-0.024523
C57	C	1.464321	0.363346	0.308811
C58	C	0.598205	-0.261232	-0.308379
C59	C	0.931539	0.072102	0.024955
C60	C	1.264872	0.405435	0.358288
C61	C	0.548783	-0.318646	-0.290098
C62	C	0.882116	0.014687	0.043236
C63	C	1.215449	0.348020	0.376569
C64	C	0.646524	-0.303340	-0.357889
C65	C	0.979858	0.029993	-0.024556
C66	C	1.313191	0.363327	0.308777
C67	C	0.548865	-0.245945	-0.376169
C68	C	0.882198	0.087388	-0.042835
C69	C	1.215532	0.420722	0.290498
C70	C	0.500539	-0.303353	-0.357920
C71	C	0.833872	0.029980	-0.024587
C72	C	1.167206	0.363313	0.308746
C73	C	0.598189	-0.360785	-0.339573
C74	C	0.931522	-0.027452	-0.006240
C75	C	1.264856	0.305882	0.327094
C76	C	0.598276	-0.288045	-0.425676
C77	C	0.931609	0.045289	-0.092342
C78	C	1.264942	0.378622	0.240991
C79	C	0.548875	-0.345499	-0.407420
C80	C	0.882209	-0.012166	-0.074087
C81	C	1.215542	0.321167	0.259246
C82	C	0.730623	-0.303331	-0.357870
C83	C	1.063956	0.030002	-0.024536
C84	C	1.397289	0.363335	0.308797
C85	C	0.416443	-0.303368	-0.357940
C86	C	0.749776	0.029965	-0.024607
C87	C	1.083109	0.363298	0.308726
C88	C	1.073055	-0.466891	-0.357856
C89	C	1.406388	-0.133557	-0.024522
C90	C	1.739722	0.199776	0.308811
C91	C	1.073081	-0.536859	-0.357863
C92	C	1.406415	-0.203526	-0.024530
C93	C	1.739748	0.129808	0.308804
C94	C	1.120615	-0.569717	-0.310423
C95	C	1.453949	-0.236384	0.022910
C96	C	1.787282	0.096949	0.356244
C97	C	1.120650	-0.635460	-0.310440
C98	C	1.453984	-0.302127	0.022894
C99	C	1.787317	0.031207	0.356227
C100	C	1.073138	-0.668341	-0.357889
C101	C	1.406471	-0.335008	-0.024555
C102	C	1.739804	-0.001675	0.308778
C103	C	1.025600	-0.635475	-0.405338
C104	C	1.358934	-0.302142	-0.072005
C105	C	1.692267	0.031192	0.261329
C106	C	1.025572	-0.569734	-0.405325
C107	C	1.358906	-0.236400	-0.071992
C108	C	1.692239	0.096933	0.261341
N109	N	1.008171	-0.771604	-0.363536
N110	N	1.341504	-0.438270	-0.030203
N111	N	1.674837	-0.104937	0.303130
N112	N	1.008200	-0.834055	-0.363544
N113	N	1.341533	-0.500722	-0.030211
N114	N	1.674866	-0.167389	0.303122
C115	C	1.073221	-0.866416	-0.357931
C116	C	1.406554	-0.533083	-0.024598
C117	C	1.739888	-0.199749	0.308735
N118	N	1.138214	-0.833966	-0.352296
N119	N	1.471547	-0.500633	-0.018962
N120	N	1.804880	-0.167300	0.314371
N121	N	1.138184	-0.771509	-0.352284
N122	N	1.471517	-0.438176	-0.018951
N123	N	1.804851	-0.104842	0.314383
C124	C	1.073163	-0.739627	-0.357908
C125	C	1.406497	-0.406293	-0.024575
C126	C	1.739830	-0.072960	0.308759
C127	C	1.120797	-0.970560	-0.310507
C128	C	1.454130	-0.637227	0.022827
C129	C	1.787463	-0.303893	0.356160
C130	C	1.120833	-1.036304	-0.310529
C131	C	1.454166	-0.702970	0.022805
C132	C	1.787499	-0.369637	0.356138
C133	C	1.025776	-1.036318	-0.405423
C134	C	1.359110	-0.702984	-0.072090
C135	C	1.692443	-0.369651	0.261244
C136	C	1.025747	-0.970575	-0.405405
C137	C	1.359080	-0.637242	-0.072072
C138	C	1.692414	-0.303909	0.261262
C139	C	1.073256	-0.937700	-0.357943
C140	C	1.406589	-0.604367	-0.024610
C141	C	1.739923	-0.271034	0.308724
C142	C	1.266858	-0.303363	-0.357939
C143	C	1.600191	0.029970	-0.024605
C144	C	1.933525	0.363304	0.308728
C145	C	1.349404	-0.303373	-0.357956
C146	C	1.682737	0.029960	-0.024623
C147	C	2.016071	0.363293	0.308710
C148	C	1.073182	-0.303311	-0.551603
C149	C	1.406515	0.030022	-0.218269
C150	C	1.739848	0.363355	0.115064
C151	C	1.073194	-0.303299	-0.634148
C152	C	1.406527	0.030034	-0.300815
C153	C	1.739861	0.363367	0.032518
C154	C	1.073270	-0.139149	-0.357954
C155	C	1.406604	0.194184	-0.024621
C156	C	1.739937	0.527518	0.308712
C157	C	1.073321	-0.069181	-0.357979
C158	C	1.406654	0.264153	-0.024646
C159	C	1.739987	0.597486	0.308688
C160	C	1.023596	-0.345283	-0.833574
C161	C	1.356929	-0.011950	-0.500240
C162	C	1.690262	0.321383	-0.166907
C163	C	1.091350	-0.360675	-0.882971
C164	C	1.424683	-0.027341	-0.549638
C165	C	1.758017	0.305992	-0.216304
C166	C	1.073231	-0.303251	-0.785279
C167	C	1.406564	0.030082	-0.451946
C168	C	1.739897	0.363415	-0.118612
C169	C	1.005513	-0.287842	-0.882964
C170	C	1.338847	0.045491	-0.549630
C171	C	1.672180	0.378824	-0.216297
C172	C	1.073260	-0.303206	-0.931264
C173	C	1.406593	0.030127	-0.597931
C174	C	1.739927	0.363461	-0.264597
C175	C	1.141021	-0.318673	-0.833589
C176	C	1.474354	0.014661	-0.500255
C177	C	1.807687	0.347994	-0.166922
C178	C	1.055138	-0.245814	-0.833577
C179	C	1.388472	0.087520	-0.500244
C180	C	1.721805	0.420853	-0.166910
C181	C	1.122940	-0.261183	-0.882952
C182	C	1.456273	0.072150	-0.549619
C183	C	1.789606	0.405483	-0.216285
C184	C	1.073213	-0.303279	-0.701181
C185	C	1.406546	0.030054	-0.367847
C186	C	1.739879	0.363388	-0.034514
C187	C	1.073286	-0.303178	-1.015361
C188	C	1.406619	0.030155	-0.682027
C189	C	1.739952	0.363488	-0.348694
C190	C	1.073166	-0.303322	-0.164945
C191	C	1.406500	0.030012	0.168389
C192	C	1.739833	0.363345	0.501722
C193	C	1.073298	-0.303156	-0.082399
C194	C	1.406631	0.030177	0.250934
C195	C	1.739964	0.363511	0.584267
H196	H	0.619765	-0.409343	-0.324062
H197	H	0.953099	-0.076010	0.009271
H198	H	1.286432	0.257324	0.342605
Cl199	Cl	0.515218	-0.338636	-0.201614
Cl200	Cl	0.848551	-0.005303	0.131719
Cl201	Cl	1.181884	0.328031	0.465053
H202	H	1.106671	-0.409229	-0.904667
H203	H	1.440004	-0.075896	-0.571334
H204	H	1.773337	0.257437	-0.238001
H205	H	0.620032	-0.275080	-0.482970
H206	H	0.953365	0.058253	-0.149637
H207	H	1.286698	0.391586	0.183696
H208	H	1.159302	-0.542953	-0.271778
H209	H	1.492635	-0.209619	0.061555
H210	H	1.825969	0.123714	0.394888
H211	H	0.981660	-0.380875	-0.811894
H212	H	1.314994	-0.047542	-0.478561
H213	H	1.648327	0.285792	-0.145227
H214	H	1.198317	-0.331742	-0.811991
H215	H	1.531651	0.001591	-0.478658
H216	H	1.864984	0.334925	-0.145324
Cl217	Cl	1.187837	-0.206275	-0.916220
Cl218	Cl	1.521170	0.127058	-0.582887
Cl219	Cl	1.854503	0.460391	-0.249554
H220	H	1.039798	-0.197273	-0.811864
H221	H	1.373131	0.136060	-0.478531
H222	H	1.706465	0.469393	-0.145198
H223	H	0.948233	-0.274828	-0.904653
H224	H	1.281567	0.058505	-0.571319
H225	H	1.614900	0.391838	-0.237986
H226	H	0.527159	-0.197408	-0.391591
H227	H	0.860493	0.135926	-0.058257
H228	H	1.193826	0.469259	0.275076
Cl229	Cl	0.631650	-0.206312	-0.243669
Cl230	Cl	0.964983	0.127021	0.089664
Cl231	Cl	1.298316	0.460355	0.422998
Cl232	Cl	1.180411	-0.676776	-0.250795
Cl233	Cl	1.513744	-0.343443	0.082539
Cl234	Cl	1.847077	-0.010110	0.415872
H235	H	0.527352	-0.381156	-0.449303
H236	H	0.860686	-0.047822	-0.115970
H237	H	1.194019	0.285511	0.217364
Cl238	Cl	0.965874	-0.676811	-0.464992
Cl239	Cl	1.299207	-0.343477	-0.131658
Cl240	Cl	1.632540	-0.010144	0.201675
Cl241	Cl	0.965809	-0.528424	-0.464969
Cl242	Cl	1.299143	-0.195090	-0.131635
Cl243	Cl	1.632476	0.138243	0.201698
H244	H	1.159484	-0.943792	-0.271862
H245	H	1.492817	-0.610459	0.061471
H246	H	1.826151	-0.277126	0.394804
H247	H	0.987094	-1.063089	-0.444060
H248	H	1.320427	-0.729756	-0.110727
H249	H	1.653761	-0.396422	0.222606
Cl250	Cl	1.180601	-1.077612	-0.250889
Cl251	Cl	1.513934	-0.744279	0.082444
Cl252	Cl	1.847268	-0.410946	0.415777
Cl253	Cl	0.965983	-0.929265	-0.465044
Cl254	Cl	1.299316	-0.595932	-0.131711
Cl255	Cl	1.632649	-0.262598	0.201622
