data_functionalizedCrystal
_audit_creation_method	'MofGen! by Chris Wilmer'
_symmetry_space_group_name_H-M	'P1'
_symmetry_Int_Tables_number	1
_symmetry_cell_setting	triclinic
loop_
_symmetry_equiv_pos_as_xyz
  x,y,z
_cell_length_a	18.050591
_cell_length_b	12.594516
_cell_length_c	18.050591
_cell_angle_alpha	89.983230
_cell_angle_beta	90.011897
_cell_angle_gamma	89.987941
loop_
_atom_site_label
_atom_site_type_symbol
_atom_site_fract_x
_atom_site_fract_y
_atom_site_fract_z
Zn1	Zn	1.135289	0.423922	0.420061
Zn2	Zn	1.135246	0.601903	0.295884
Zn3	Zn	1.011128	0.423927	0.295873
Zn4	Zn	1.011083	0.601847	0.420020
O5	O	1.073186	0.512900	0.357960
O6	O	1.239208	0.447554	0.403611
O7	O	1.118782	0.578320	0.191958
O8	O	1.027635	0.274981	0.312359
O9	O	1.239176	0.578316	0.312379
O10	O	1.118856	0.274977	0.403600
O11	O	1.027593	0.447561	0.191950
O12	O	0.907197	0.447507	0.312319
O13	O	1.027558	0.578219	0.523950
O14	O	0.907164	0.578224	0.403529
O15	O	1.118812	0.447499	0.523981
O16	O	1.118738	0.750842	0.312338
O17	O	1.027516	0.750800	0.403540
C18	C	0.880234	0.512860	0.357918
C19	C	0.797689	0.512869	0.357919
C20	C	1.073138	0.789441	0.357952
C21	C	1.073185	0.907746	0.357974
C22	C	1.073185	0.512852	0.551665
C23	C	1.073184	0.512832	0.634211
C24	C	0.598234	0.441703	0.308433
C25	C	0.548832	0.538782	0.290163
C26	C	0.646558	0.512901	0.357952
C27	C	0.548879	0.415855	0.376219
C28	C	0.500573	0.512924	0.357983
C29	C	0.598243	0.610032	0.339648
C30	C	0.598294	0.487039	0.425735
C31	C	0.548914	0.584186	0.407492
C32	C	0.730656	0.512887	0.357932
C33	C	0.416477	0.512949	0.358003
C34	C	1.266892	0.512941	0.358001
C35	C	1.349438	0.512958	0.358019
C36	C	1.073256	0.235279	0.357983
C37	C	1.073285	0.116974	0.357993
C38	C	1.023564	0.977016	0.407544
C39	C	1.005488	1.047863	0.339776
C40	C	1.091329	1.047698	0.425753
C41	C	1.055072	0.977036	0.290170
C42	C	1.140945	0.976864	0.376194
C43	C	1.122894	1.047680	0.308379
C44	C	1.122823	0.441780	0.833678
C45	C	1.055077	0.415740	0.883064
C46	C	1.073187	0.512865	0.785341
C47	C	1.140935	0.538889	0.883037
C48	C	1.073196	0.512896	0.931326
C49	C	1.005405	0.486775	0.833640
C50	C	1.091310	0.609968	0.833609
C51	C	1.023517	0.583965	0.882972
C52	C	1.073183	0.512845	0.701243
C53	C	1.073193	0.512916	1.015423
C54	C	1.073186	0.512956	1.165007
C55	C	1.073198	0.512932	1.082462
H56	H	0.619890	0.381557	0.266510
C57	C	0.519475	0.568354	0.212748
H58	H	0.536357	0.517691	0.177608
H59	H	0.537103	0.636813	0.199440
H60	H	0.466851	0.568777	0.213433
H61	H	1.164900	1.078512	0.266419
H62	H	0.620038	0.465119	0.483027
H63	H	0.619836	0.692137	0.324147
H64	H	1.106635	1.078737	0.483066
H65	H	0.948100	0.464682	0.812033
C66	C	1.218275	0.934695	0.397029
H67	H	1.237292	0.893204	0.357410
H68	H	1.214678	0.892101	0.440318
H69	H	1.250570	0.992773	0.406206
C70	C	1.179454	0.360500	0.804438
H71	H	1.166458	0.291550	0.821376
H72	H	1.227452	0.378306	0.822082
H73	H	1.179377	0.361488	0.751813
C74	C	0.519587	0.304978	0.397083
H75	H	0.490647	0.309884	0.440904
H76	H	0.560161	0.258411	0.405356
H77	H	0.489871	0.278241	0.357858
C78	C	1.034298	0.935287	0.212726
H79	H	1.034362	0.859858	0.213199
H80	H	1.069357	0.960045	0.177491
H81	H	0.986344	0.960189	0.199719
H82	H	1.039748	0.333635	0.904788
C83	C	0.966784	0.935090	0.464093
H84	H	0.991520	0.893534	0.500408
H85	H	0.931043	0.892609	0.439334
H86	H	0.942766	0.993271	0.487433
H87	H	0.981497	0.644093	0.904480
H88	H	0.948230	1.079073	0.324381
H89	H	0.527395	0.644476	0.449382
H90	H	1.106658	0.692050	0.811870
H91	H	1.198224	0.560884	0.904738
