data_functionalizedCrystal
_audit_creation_method	'MofGen! by Chris Wilmer'
_symmetry_space_group_name_H-M	'P1'
_symmetry_Int_Tables_number	1
_symmetry_cell_setting	triclinic
loop_
_symmetry_equiv_pos_as_xyz
  x,y,z
_cell_length_a	10.723024
_cell_length_b	27.732048
_cell_length_c	9.798715
_cell_angle_alpha	89.991917
_cell_angle_beta	89.996609
_cell_angle_gamma	83.555262
loop_
_atom_site_label
_atom_site_type_symbol
_atom_site_fract_x
_atom_site_fract_y
_atom_site_fract_z
O1	O	1.654382	0.067789	-0.113499
O2	O	2.154382	0.567789	0.386501
O3	O	1.290961	0.074278	-0.113505
O4	O	1.790961	0.574278	0.386495
O5	O	1.483959	0.000707	-0.113476
O6	O	1.983959	0.500707	0.386524
O7	O	1.461384	0.141360	-0.113528
O8	O	1.961384	0.641360	0.386472
O9	O	1.483944	0.000707	0.113507
O10	O	1.983944	0.500707	0.613507
O11	O	1.290947	0.074278	0.113477
O12	O	1.790947	0.574278	0.613477
O13	O	1.654368	0.067789	0.113483
O14	O	2.154368	0.567789	0.613483
Zn15	Zn	1.472655	0.071033	0.149519
Zn16	Zn	1.972655	0.571033	0.649519
Zn17	Zn	1.472674	0.071033	-0.149540
Zn18	Zn	1.972674	0.571033	0.350460
O19	O	1.461370	0.141360	0.113454
O20	O	1.961370	0.641360	0.613454
C21	C	1.244474	0.073806	-0.000014
C22	C	1.744474	0.573806	0.499986
C23	C	1.105978	0.072393	-0.000016
C24	C	1.605978	0.572393	0.499984
C25	C	1.483478	-0.017303	0.000019
C26	C	1.983478	0.482697	0.500019
C27	C	1.482051	-0.070967	0.000030
C28	C	1.982051	0.429033	0.500030
C29	C	1.029292	0.113559	-0.000032
C30	C	1.529292	0.613559	0.499968
C31	C	0.886149	0.112100	-0.000033
C32	C	1.386149	0.612100	0.499967
C33	C	1.587117	-0.409130	-0.000038
C34	C	2.087117	0.090870	0.499962
C35	C	1.581823	-0.610822	-0.000057
C36	C	2.081823	-0.110822	0.499943
O37	O	1.677898	-0.641481	-0.000115
O38	O	2.177898	-0.141481	0.499885
N39	N	1.467383	-0.630656	-0.000058
N40	N	1.967383	-0.130656	0.499942
C41	C	1.354259	-0.600064	-0.000063
C42	C	1.854259	-0.100064	0.499937
O43	O	1.256800	-0.621562	-0.000078
O44	O	1.756800	-0.121562	0.499922
C45	C	1.359554	-0.398373	-0.000053
C46	C	1.859554	0.101627	0.499947
C47	C	1.474001	-0.378541	-0.000039
C48	C	1.974001	0.121459	0.499961
C49	C	1.701554	-0.389298	-0.000025
C50	C	2.201554	0.110702	0.499975
C51	C	1.702877	-0.338877	-0.000013
C52	C	2.202877	0.161123	0.499987
C53	C	1.589761	-0.308289	-0.000013
C54	C	2.089761	0.191711	0.499987
C55	C	1.475324	-0.328121	-0.000026
C56	C	1.975324	0.171879	0.499974
C57	C	1.246432	-0.367781	-0.000068
C58	C	1.746432	0.132219	0.499932
C59	C	1.247766	-0.317356	-0.000069
C60	C	1.747766	0.182644	0.499931
C61	C	1.362213	-0.297524	-0.000054
C62	C	1.862213	0.202476	0.499946
C63	C	1.363531	-0.247113	-0.000015
C64	C	1.863531	0.252887	0.499985
N65	N	1.477970	-0.227278	-0.000014
N66	N	1.977970	0.272722	0.499986
C67	C	1.591085	-0.257867	-0.000014
C68	C	2.091085	0.242133	0.499986
C69	C	1.351487	-0.705956	-0.000065
C70	C	1.851487	-0.205956	0.499935
C71	C	1.350163	-0.756378	-0.000065
C72	C	1.850163	-0.256378	0.499935
C73	C	1.577727	-0.767133	-0.000062
C74	C	2.077727	-0.267133	0.499938
C75	C	1.579050	-0.716709	-0.000052
C76	C	2.079050	-0.216709	0.499948
C77	C	1.465926	-0.686121	-0.000064
C78	C	1.965926	-0.186121	0.499936
C79	C	1.593854	-0.151980	0.000013
C80	C	2.093854	0.348020	0.500013
C81	C	1.595166	-0.101555	0.000031
C82	C	2.095166	0.398445	0.500031
C83	C	1.367603	-0.090805	0.000021
C84	C	1.867603	0.409195	0.500021
C85	C	1.366290	-0.141226	0.000010
C86	C	1.866290	0.358774	0.500010
C87	C	1.479425	-0.171813	0.000002
C88	C	1.979425	0.328187	0.500002
O89	O	1.267507	-0.216425	0.000028
O90	O	1.767507	0.283575	0.500028
O91	O	1.688531	-0.236359	-0.000029
O92	O	2.188531	0.263641	0.499971
C93	C	1.585794	-0.459550	-0.000050
C94	C	2.085794	0.040450	0.499950
C95	C	1.471357	-0.479382	-0.000063
C96	C	1.971357	0.020618	0.499937
C97	C	1.358241	-0.448793	-0.000064
C98	C	1.858241	0.051207	0.499936
C99	C	1.470033	-0.529804	-0.000063
C100	C	1.970033	-0.029804	0.499937
C101	C	1.583148	-0.560392	-0.000062
C102	C	2.083148	-0.060392	0.499938
C103	C	1.697587	-0.540558	-0.000062
C104	C	2.197587	-0.040558	0.499938
C105	C	1.698910	-0.490138	-0.000049
C106	C	2.198910	0.009862	0.499951
C107	C	1.243802	-0.468628	-0.000065
C108	C	1.743802	0.031372	0.499935
C109	C	1.242489	-0.519048	-0.000075
C110	C	1.742489	-0.019048	0.499925
C111	C	1.355604	-0.549637	-0.000074
C112	C	1.855604	-0.049637	0.499926
C113	C	1.700855	0.068261	-0.000010
C114	C	2.200855	0.568261	0.499990
C115	C	1.839351	0.069674	-0.000018
C116	C	2.339351	0.569674	0.499982
C117	C	1.461851	0.159370	-0.000044
C118	C	1.961851	0.659370	0.499956
C119	C	1.463278	0.213034	-0.000064
C120	C	1.963278	0.713034	0.499936
N121	N	1.472651	0.071033	0.353618
N122	N	1.972651	0.571033	0.853618
N123	N	1.472687	0.071030	-0.353640
N124	N	1.972687	0.571030	0.146360
C125	C	1.553691	0.040006	0.421408
C126	C	2.053691	0.540006	0.921408
C127	C	1.553711	0.040005	0.578570
C128	C	2.053711	0.540005	1.078570
H129	H	1.069611	0.149884	-0.000037
H130	H	1.569611	0.649884	0.499963
H131	H	1.623098	0.013443	0.636866
H132	H	2.123098	0.513443	1.136866
H133	H	1.672242	-0.700566	-0.000041
H134	H	2.172242	-0.200566	0.499959
H135	H	0.820258	0.147342	-0.000052
H136	H	1.320258	0.647342	0.499948
H137	H	1.403306	0.097596	0.588073
H138	H	1.903306	0.597596	1.088073
H139	H	1.065659	0.036068	-0.000037
H140	H	1.565659	0.536068	0.499963
H141	H	1.688366	-0.085411	0.000047
H142	H	2.188366	0.414589	0.500047
H143	H	1.403280	0.097593	0.411932
H144	H	1.903280	0.597593	0.911932
H145	H	0.905234	0.034430	-0.000013
H146	H	1.405234	0.534430	0.499987
H147	H	1.796071	-0.322736	-0.000006
H148	H	2.296071	0.177264	0.499994
H149	H	1.685980	-0.176879	0.000001
H150	H	2.185980	0.323121	0.500001
H151	H	1.793672	-0.414198	-0.000029
H152	H	2.293672	0.085802	0.499971
H153	H	1.789690	-0.565472	-0.000055
H154	H	2.289690	-0.065472	0.499945
H155	H	1.669830	-0.792046	-0.000060
H156	H	2.169830	-0.292046	0.499940
H157	H	1.256969	-0.772520	-0.000053
H158	H	1.756969	-0.272520	0.499947
H159	H	1.275507	-0.065891	0.000025
H160	H	1.775507	0.434109	0.500025
H161	H	1.259363	-0.681055	-0.000074
H162	H	1.759363	-0.181055	0.499926
H163	H	1.153237	-0.383919	-0.000088
H164	H	1.653237	0.116081	0.499912
H165	H	1.155645	-0.292453	-0.000081
H166	H	1.655645	0.207547	0.499919
H167	H	1.273098	-0.157373	0.000036
H168	H	1.773098	0.342627	0.500036
H169	H	1.792104	-0.473996	-0.000038
H170	H	2.292104	0.026004	0.499962
H171	H	1.149285	-0.535190	-0.000075
H172	H	1.649285	-0.035190	0.499925
H173	H	1.151687	-0.443727	-0.000068
H174	H	1.651687	0.056273	0.499932
H175	H	1.623054	0.013442	0.363096
H176	H	2.123054	0.513442	0.863096
