data_functionalizedCrystal
_audit_creation_method	'MofGen! by Chris Wilmer'
_symmetry_space_group_name_H-M	'P1'
_symmetry_Int_Tables_number	1
_symmetry_cell_setting	triclinic
loop_
_symmetry_equiv_pos_as_xyz
  x,y,z
_cell_length_a	10.654550
_cell_length_b	10.654559
_cell_length_c	9.730223
_cell_angle_alpha	90.001240
_cell_angle_beta	89.996251
_cell_angle_gamma	84.486794
loop_
_atom_site_label
_atom_site_type_symbol
_atom_site_fract_x
_atom_site_fract_y
_atom_site_fract_z
O1	O	1.667840	0.176392	-0.114394
O2	O	1.302362	0.193199	-0.114372
O3	O	1.493498	0.002057	-0.114383
O4	O	1.476704	0.367534	-0.114383
O5	O	1.493496	0.002062	0.114197
O6	O	1.302360	0.193203	0.114208
O7	O	1.667838	0.176397	0.114186
Zn8	Zn	1.485098	0.184801	0.150489
Zn9	Zn	1.485101	0.184795	-0.150675
O10	O	1.476702	0.367539	0.114197
C11	C	1.255563	0.191967	-0.000079
C12	C	1.116119	0.188275	-0.000070
C13	C	1.036637	0.300816	-0.000090
C14	C	0.905616	0.297340	-0.000114
C15	C	0.933572	0.068771	-0.000104
C16	C	1.064591	0.072249	-0.000070
C17	C	1.020496	0.432779	-0.000102
C18	C	0.889475	0.429302	-0.000126
C19	C	1.492261	-0.044738	-0.000096
C20	C	1.488565	-0.184181	-0.000105
C21	C	1.714637	0.177629	-0.000110
C22	C	1.854080	0.181321	-0.000128
C23	C	1.372552	-0.235721	-0.000101
C24	C	1.369087	-0.366743	-0.000090
C25	C	1.597656	-0.394675	-0.000093
C26	C	1.601120	-0.263655	-0.000094
C27	C	1.240590	-0.219595	-0.000105
C28	C	1.237124	-0.350618	-0.000095
C29	C	1.477938	0.414334	-0.000093
C30	C	1.481635	0.553777	-0.000093
N31	N	1.485105	0.184805	0.356025
N32	N	1.485104	0.184781	-0.356211
C33	C	1.569762	0.100196	0.427946
C34	C	1.569759	0.100181	0.571829
C35	C	1.400438	0.269394	0.571858
C36	C	1.400436	0.269402	0.427977
C37	C	1.667523	0.002506	0.427931
C38	C	1.667519	0.002491	0.571814
H39	H	1.056154	0.474795	-0.098789
C40	C	1.626912	-0.119276	0.631056
C41	C	1.599991	-0.199922	0.523640
C42	C	1.562614	-0.312113	0.578164
H43	H	1.553740	-0.101027	0.686006
H44	H	1.693008	-0.158938	0.685943
H45	H	1.533900	-0.160267	0.468776
H46	H	1.673145	-0.218206	0.468681
H47	H	1.628710	-0.351776	0.633051
H48	H	1.489445	-0.293852	0.633113
H49	H	1.544355	-0.366850	0.505291
C50	C	1.180824	-0.398025	0.131414
C51	C	1.057199	-0.342158	0.146583
C52	C	1.005293	-0.385810	0.267701
H53	H	1.230003	-0.376522	0.207779
H54	H	1.180274	-0.487044	0.126905
H55	H	1.057756	-0.253158	0.151103
H56	H	1.007987	-0.363655	0.070248
H57	H	1.004744	-0.474830	0.263192
H58	H	1.054482	-0.364304	0.344056
H59	H	0.921405	-0.347920	0.278002
H60	H	0.843804	0.469185	0.098559
H61	H	0.847745	0.479021	-0.095793
C62	C	1.308457	0.361041	0.650159
C63	C	1.231023	0.293411	0.732781
C64	C	1.146286	0.377796	0.804942
H65	H	1.257915	0.411469	0.586875
H66	H	1.354052	0.413720	0.706372
H67	H	1.185432	0.240754	0.676572
H68	H	1.281529	0.242988	0.796090
H69	H	1.191880	0.430476	0.861155
H70	H	1.095753	0.428220	0.741648
H71	H	1.093744	0.331922	0.861019
C72	C	1.788965	0.043573	0.368356
C73	C	1.761292	0.151391	0.287511
C74	C	1.873128	0.189293	0.232636
H75	H	1.828754	-0.022309	0.313292
H76	H	1.843806	0.062053	0.441047
H77	H	1.706471	0.132905	0.214831
H78	H	1.721520	0.217298	0.342544
H79	H	1.927969	0.207774	0.305327
H80	H	1.912908	0.123403	0.177579
H81	H	1.854368	0.262457	0.177787
C82	C	1.796320	0.030997	0.623705
C83	C	1.888249	-0.061259	0.575513
C84	C	2.006909	-0.035035	0.623274
H85	H	1.796499	0.030953	0.721327
H86	H	1.814285	0.111412	0.591145
H87	H	1.870289	-0.141654	0.608080
H88	H	1.888110	-0.061230	0.477896
H89	H	2.024874	0.045381	0.590715
H90	H	2.007075	-0.035078	0.720896
H91	H	2.069299	-0.097619	0.590573
H92	H	1.646076	-0.094026	0.388878
H93	H	1.331491	0.338286	0.369421
H94	H	1.695588	-0.221698	-0.000079
C95	C	1.174492	-0.163765	0.127489
C96	C	1.259603	-0.101157	0.205539
C97	C	1.198758	-0.049697	0.323075
H98	H	1.144512	-0.229353	0.180795
H99	H	1.105470	-0.105715	0.100962
H100	H	1.328602	-0.159202	0.232069
H101	H	1.289588	-0.035551	0.152274
H102	H	1.129736	0.008353	0.296548
H103	H	1.168780	-0.115293	0.376370
H104	H	1.256492	-0.007202	0.376040
C105	C	0.877694	-0.057232	0.000168
C106	C	0.917943	-0.125316	0.117792
C107	C	0.866484	-0.241391	0.118096
H108	H	0.904894	-0.103773	-0.079444
H109	H	0.788275	-0.043241	0.000222
H110	H	1.007343	-0.139312	0.117726
H111	H	0.890745	-0.078814	0.197424
H112	H	0.777065	-0.227400	0.118150
H113	H	0.893687	-0.287921	0.038479
H114	H	0.893776	-0.287596	0.197908
H115	H	1.129301	-0.019393	-0.000034
H116	H	1.689294	-0.459399	-0.000083
C117	C	1.187322	-0.158955	-0.131765
C118	C	1.148514	-0.252339	-0.218993
C119	C	1.099425	-0.196522	-0.340283
H120	H	1.250416	-0.116485	-0.176231
H121	H	1.117231	-0.100227	-0.110403
H122	H	1.218596	-0.311045	-0.240357
H123	H	1.085407	-0.294816	-0.174571
H124	H	1.029334	-0.137794	-0.318921
H125	H	1.162526	-0.154053	-0.384736
H126	H	1.073077	-0.259872	-0.399477
H127	H	1.185514	-0.379988	-0.095746
H128	H	1.049828	0.484391	0.095564
