data_functionalizedCrystal
_audit_creation_method	'MofGen! by Chris Wilmer'
_symmetry_space_group_name_H-M	'P1'
_symmetry_Int_Tables_number	1
_symmetry_cell_setting	triclinic
loop_
_symmetry_equiv_pos_as_xyz
  x,y,z
_cell_length_a	19.288840
_cell_length_b	17.038272
_cell_length_c	17.766277
_cell_angle_alpha	89.993732
_cell_angle_beta	89.983415
_cell_angle_gamma	87.118786
loop_
_atom_site_label
_atom_site_type_symbol
_atom_site_fract_x
_atom_site_fract_y
_atom_site_fract_z
O1	O	0.927392	0.097420	-0.062722
O2	O	1.177392	0.347420	0.187278
O3	O	1.427392	0.597420	0.437278
O4	O	1.677392	0.847420	0.687278
O5	O	0.725944	0.110595	-0.062696
O6	O	0.975944	0.360595	0.187304
O7	O	1.225944	0.610595	0.437304
O8	O	1.475944	0.860595	0.687304
O9	O	0.825470	-0.009804	-0.062703
O10	O	1.075470	0.240196	0.187297
O11	O	1.325470	0.490196	0.437297
O12	O	1.575470	0.740196	0.687297
O13	O	0.827865	0.217819	-0.062715
O14	O	1.077865	0.467819	0.187285
O15	O	1.327865	0.717819	0.437285
O16	O	1.577865	0.967819	0.687285
O17	O	0.825451	-0.009810	0.062486
O18	O	1.075451	0.240190	0.312486
O19	O	1.325451	0.490190	0.562486
O20	O	1.575451	0.740190	0.812486
O21	O	0.725925	0.110589	0.062493
O22	O	0.975925	0.360589	0.312493
O23	O	1.225925	0.610589	0.562493
O24	O	1.475925	0.860589	0.812493
O25	O	0.927373	0.097414	0.062467
O26	O	1.177373	0.347414	0.312467
O27	O	1.427373	0.597414	0.562467
O28	O	1.677373	0.847414	0.812467
Cu29	Cu	0.826647	0.104001	0.073911
Cu30	Cu	1.076647	0.354001	0.323911
Cu31	Cu	1.326647	0.604001	0.573911
Cu32	Cu	1.576647	0.854001	0.823911
Cu33	Cu	0.826669	0.104008	-0.074139
Cu34	Cu	1.076669	0.354008	0.175861
Cu35	Cu	1.326669	0.604008	0.425861
Cu36	Cu	1.576669	0.854008	0.675861
O37	O	0.827846	0.217813	0.062474
O38	O	1.077846	0.467813	0.312474
O39	O	1.327846	0.717813	0.562474
O40	O	1.577846	0.967813	0.812474
C41	C	0.700031	0.110171	-0.000098
C42	C	0.950031	0.360171	0.249902
C43	C	1.200031	0.610171	0.499902
C44	C	1.450031	0.860171	0.749902
C45	C	0.622849	0.108909	-0.000088
C46	C	0.872849	0.358909	0.249912
C47	C	1.122849	0.608909	0.499912
C48	C	1.372849	0.858909	0.749912
C49	C	0.586618	0.108305	-0.068330
C50	C	0.836618	0.358305	0.181670
C51	C	1.086618	0.608305	0.431670
C52	C	1.336618	0.858305	0.681670
C53	C	0.514097	0.107110	-0.068339
C54	C	0.764097	0.357110	0.181661
C55	C	1.014097	0.607110	0.431661
C56	C	1.264097	0.857110	0.681661
C57	C	0.477811	0.106502	-0.000102
C58	C	0.727811	0.356502	0.249898
C59	C	0.977811	0.606502	0.499898
C60	C	1.227811	0.856502	0.749898
C61	C	0.514050	0.107110	0.068149
C62	C	0.764050	0.357110	0.318149
C63	C	1.014050	0.607110	0.568149
C64	C	1.264050	0.857110	0.818149
C65	C	0.586569	0.108313	0.068156
C66	C	0.836569	0.358313	0.318156
C67	C	1.086569	0.608313	0.568156
C68	C	1.336569	0.858313	0.818156
C69	C	0.365524	0.058808	0.052169
C70	C	0.615524	0.308808	0.302169
C71	C	0.865524	0.558808	0.552169
C72	C	1.115524	0.808808	0.802169
C73	C	0.293007	0.057601	0.052159
C74	C	0.543007	0.307601	0.302159
C75	C	0.793007	0.557601	0.552159
C76	C	1.043007	0.807601	0.802159
C77	C	0.254138	0.102795	-0.000122
C78	C	0.504138	0.352795	0.249878
C79	C	0.754138	0.602795	0.499878
C80	C	1.004138	0.852795	0.749878
C81	C	0.287795	0.149188	-0.052405
C82	C	0.537795	0.399188	0.197595
C83	C	0.787795	0.649188	0.447595
C84	C	1.037795	0.899188	0.697595
C85	C	0.360314	0.150391	-0.052398
C86	C	0.610314	0.400391	0.197602
C87	C	0.860314	0.650391	0.447602
C88	C	1.110314	0.900391	0.697602
C89	C	0.399176	0.105198	-0.000103
C90	C	0.649176	0.355198	0.249897
C91	C	0.899176	0.605198	0.499897
C92	C	1.149176	0.855198	0.749897
C93	C	0.139272	0.100897	-0.068379
C94	C	0.389272	0.350897	0.181621
C95	C	0.639272	0.600897	0.431621
C96	C	0.889272	0.850897	0.681621
C97	C	0.066749	0.099707	-0.068385
C98	C	0.316749	0.349707	0.181615
C99	C	0.566749	0.599707	0.431615
C100	C	0.816749	0.849707	0.681615
C101	C	0.066704	0.099699	0.068105
C102	C	0.316704	0.349699	0.318105
C103	C	0.566704	0.599699	0.568105
C104	C	0.816704	0.849699	0.818105
C105	C	0.139224	0.100897	0.068109
C106	C	0.389224	0.350897	0.318109
C107	C	0.639224	0.600897	0.568109
C108	C	0.889224	0.850897	0.818109
C109	C	0.175504	0.101493	-0.000135
C110	C	0.425504	0.351493	0.249865
C111	C	0.675504	0.601493	0.499865
C112	C	0.925504	0.851493	0.749865
C113	C	0.823283	-0.038928	-0.000108
C114	C	1.073283	0.211072	0.249892
C115	C	1.323283	0.461072	0.499892
C116	C	1.573283	0.711072	0.749892
C117	C	0.816785	-0.125699	-0.000107
C118	C	1.066785	0.124301	0.249893
C119	C	1.316785	0.374301	0.499893
C120	C	1.566785	0.624301	0.749893
C121	C	0.876442	-0.176012	-0.000114
C122	C	1.126442	0.073988	0.249886
C123	C	1.376442	0.323988	0.499886
C124	C	1.626442	0.573988	0.749886
C125	C	0.870332	-0.257542	-0.000121
C126	C	1.120332	-0.007542	0.249879
C127	C	1.370332	0.242458	0.499879
C128	C	1.620332	0.492458	0.749879
C129	C	0.804566	-0.288758	-0.000115
C130	C	1.054566	-0.038758	0.249885
C131	C	1.304566	0.211242	0.499885
C132	C	1.554566	0.461242	0.749885
C133	C	0.744905	-0.238439	-0.000110
C134	C	0.994905	0.011561	0.249890
C135	C	1.244905	0.261561	0.499890
C136	C	1.494905	0.511561	0.749890
C137	C	0.751015	-0.156910	-0.000109
C138	C	1.001015	0.093090	0.249891
C139	C	1.251015	0.343090	0.499891
C140	C	1.501015	0.593090	0.749891
C141	C	0.782980	-0.534444	-0.000122
C142	C	1.032980	-0.284444	0.249878
C143	C	1.282980	-0.034444	0.499878
C144	C	1.532980	0.215556	0.749878
C145	C	0.776875	-0.615979	-0.000121
C146	C	1.026875	-0.365979	0.249879
C147	C	1.276875	-0.115979	0.499879
C148	C	1.526875	0.134021	0.749879
C149	C	0.902303	-0.635077	-0.000133
C150	C	1.152303	-0.385077	0.249867
C151	C	1.402303	-0.135077	0.499867
C152	C	1.652303	0.114923	0.749867
C153	C	0.908407	-0.553546	-0.000127
C154	C	1.158407	-0.303546	0.249873
C155	C	1.408407	-0.053546	0.499873
C156	C	1.658407	0.196454	0.749873
C157	C	0.848746	-0.503234	-0.000127
C158	C	1.098746	-0.253234	0.249873
C159	C	1.348746	-0.003234	0.499873
C160	C	1.598746	0.246766	0.749873
C161	C	0.798320	-0.372095	-0.000119
C162	C	1.048320	-0.122095	0.249881
C163	C	1.298320	0.127905	0.499881
C164	C	1.548320	0.377905	0.749881
C165	C	0.854993	-0.419899	-0.000128
C166	C	1.104993	-0.169899	0.249872
C167	C	1.354993	0.080101	0.499872
C168	C	1.604993	0.330101	0.749872
C169	C	0.953285	0.097838	-0.000132
C170	C	1.203285	0.347838	0.249868
C171	C	1.453285	0.597838	0.499868
C172	C	1.703285	0.847838	0.749868
C173	C	1.030468	0.099101	-0.000147
C174	C	1.280468	0.349101	0.249853
C175	C	1.530468	0.599101	0.499853
C176	C	1.780468	0.849101	0.749853
C177	C	0.830033	0.246937	-0.000122
C178	C	1.080033	0.496937	0.249878
C179	C	1.330033	0.746937	0.499878
C180	C	1.580033	0.996937	0.749878
C181	C	0.836531	0.333708	-0.000128
C182	C	1.086531	0.583708	0.249872
C183	C	1.336531	0.833708	0.499872
C184	C	1.586531	1.083708	0.749872
N185	N	0.826636	0.103995	0.178041
N186	N	1.076636	0.353995	0.428041
N187	N	1.326636	0.603995	0.678041
N188	N	1.576636	0.853995	0.928041
N189	N	0.826685	0.104007	-0.178270
N190	N	1.076685	0.354007	0.071730
N191	N	1.326685	0.604007	0.321730
N192	N	1.576685	0.854007	0.571730
C193	C	0.870723	0.050709	0.217425
C194	C	1.120723	0.300709	0.467425
C195	C	1.370723	0.550709	0.717425
C196	C	1.620723	0.800709	0.967425
C197	C	0.870727	0.050705	0.296227
C198	C	1.120727	0.300705	0.546227
C199	C	1.370727	0.550705	0.796227
C200	C	1.620727	0.800705	1.046227
C201	C	0.826651	0.104002	0.335641
C202	C	1.076651	0.354002	0.585641
C203	C	1.326651	0.604002	0.835641
C204	C	1.576651	0.854002	1.085641
C205	C	0.782555	0.157292	0.296248
C206	C	1.032555	0.407292	0.546248
C207	C	1.282555	0.657292	0.796248
C208	C	1.532555	0.907292	1.046248
C209	C	0.782548	0.157289	0.217448
C210	C	1.032548	0.407289	0.467448
C211	C	1.282548	0.657289	0.717448
C212	C	1.532548	0.907289	0.967448
C213	C	0.821759	0.175226	0.460476
C214	C	1.071759	0.425226	0.710476
C215	C	1.321759	0.675226	0.960476
C216	C	1.571759	0.925226	1.210476
C217	C	0.821771	0.175230	0.539275
C218	C	1.071771	0.425230	0.789275
C219	C	1.321771	0.675230	1.039275
C220	C	1.571771	0.925230	1.289275
C221	C	0.826670	0.104011	0.578688
C222	C	1.076670	0.354011	0.828688
C223	C	1.326670	0.604011	1.078688
C224	C	1.576670	0.854011	1.328688
C225	C	0.831571	0.032785	0.539292
C226	C	1.081571	0.282785	0.789292
C227	C	1.331571	0.532785	1.039292
C228	C	1.581571	0.782785	1.289292
C229	C	0.831564	0.032782	0.460492
C230	C	1.081564	0.282782	0.710492
C231	C	1.331564	0.532782	0.960492
C232	C	1.581564	0.782782	1.210492
C233	C	0.826654	0.104011	0.421087
C234	C	1.076654	0.354011	0.671087
C235	C	1.326654	0.604011	0.921087
C236	C	1.576654	0.854011	1.171087
C237	C	0.870764	0.050716	0.703518
C238	C	1.120764	0.300716	0.953518
C239	C	1.370764	0.550716	1.203518
C240	C	1.620764	0.800716	1.453518
C241	C	0.870763	0.050711	0.782321
C242	C	1.120763	0.300711	1.032321
C243	C	1.370763	0.550711	1.282321
C244	C	1.620763	0.800711	1.532321
C245	C	0.782595	0.157305	0.782341
C246	C	1.032595	0.407305	1.032341
C247	C	1.282595	0.657305	1.282341
C248	C	1.532595	0.907305	1.532341
C249	C	0.782592	0.157303	0.703539
C250	C	1.032592	0.407303	0.953539
C251	C	1.282592	0.657303	1.203539
C252	C	1.532592	0.907303	1.453539
C253	C	0.826680	0.104009	0.664132
C254	C	1.076680	0.354009	0.914132
C255	C	1.326680	0.604009	1.164132
C256	C	1.576680	0.854009	1.414132
H257	H	0.616067	0.108805	0.123729
H258	H	0.866067	0.358805	0.373729
H259	H	1.116067	0.608805	0.623729
H260	H	1.366067	0.858805	0.873729
H261	H	0.265609	0.019821	0.094727
H262	H	0.515609	0.269821	0.344727
H263	H	0.765609	0.519821	0.594727
H264	H	1.015609	0.769821	0.844727
H265	H	0.397166	0.022003	0.094745
H266	H	0.647166	0.272003	0.344745
H267	H	0.897166	0.522003	0.594745
H268	H	1.147166	0.772003	0.844745
Cl269	Cl	0.815615	0.264770	0.588793
Cl270	Cl	1.065615	0.514770	0.838793
Cl271	Cl	1.315615	0.764770	1.088793
Cl272	Cl	1.565615	1.014770	1.338793
H273	H	0.723317	-0.641391	-0.000104
H274	H	0.973317	-0.391391	0.249896
H275	H	1.223317	-0.141391	0.499896
H276	H	1.473317	0.108609	0.749896
H277	H	0.744772	-0.397520	-0.000112
H278	H	0.994772	-0.147520	0.249888
H279	H	1.244772	0.102480	0.499888
H280	H	1.494772	0.352480	0.749888
Cl281	Cl	0.021093	0.098943	0.153890
Cl282	Cl	0.271093	0.348943	0.403890
Cl283	Cl	0.521093	0.598943	0.653890
Cl284	Cl	0.771093	0.848943	0.903890
Cl285	Cl	0.184774	0.101651	0.153905
Cl286	Cl	0.434774	0.351651	0.403905
Cl287	Cl	0.684774	0.601651	0.653905
Cl288	Cl	0.934774	0.851651	0.903905
Cl289	Cl	0.238939	0.206012	-0.118131
Cl290	Cl	0.488939	0.456012	0.131869
Cl291	Cl	0.738939	0.706012	0.381869
Cl292	Cl	0.988939	0.956012	0.631869
Cl293	Cl	0.184883	0.101653	-0.154169
Cl294	Cl	0.434883	0.351653	0.095831
Cl295	Cl	0.684883	0.601653	0.345831
Cl296	Cl	0.934883	0.851653	0.595831
H297	H	0.484501	0.106617	0.123708
H298	H	0.734501	0.356617	0.373708
H299	H	0.984501	0.606617	0.623708
H300	H	1.234501	0.856617	0.873708
Cl301	Cl	0.727179	0.224301	0.831885
Cl302	Cl	0.977179	0.474301	1.081885
Cl303	Cl	1.227179	0.724301	1.331885
Cl304	Cl	1.477179	0.974301	1.581885
H305	H	0.929996	-0.150603	-0.000115
H306	H	1.179996	0.099397	0.249885
H307	H	1.429996	0.349397	0.499885
H308	H	1.679996	0.599397	0.749885
H309	H	0.906661	0.007319	0.671431
H310	H	1.156661	0.257319	0.921431
H311	H	1.406661	0.507319	1.171431
H312	H	1.656661	0.757319	1.421431
Cl313	Cl	0.945333	-0.320790	-0.000127
Cl314	Cl	1.195333	-0.070790	0.249873
Cl315	Cl	1.445333	0.179210	0.499873
Cl316	Cl	1.695333	0.429210	0.749873
Cl317	Cl	0.727169	0.224299	0.654023
Cl318	Cl	0.977169	0.474299	0.904023
Cl319	Cl	1.227169	0.724299	1.154023
Cl320	Cl	1.477169	0.974299	1.404023
H321	H	0.961961	-0.528136	-0.000132
H322	H	1.211961	-0.278136	0.249868
H323	H	1.461961	-0.028136	0.499868
H324	H	1.711961	0.221864	0.749868
Cl325	Cl	0.937668	-0.380654	-0.000139
Cl326	Cl	1.187668	-0.130654	0.249861
Cl327	Cl	1.437668	0.119346	0.499861
Cl328	Cl	1.687668	0.369346	0.749861
Cl329	Cl	0.977300	-0.698330	-0.000136
Cl330	Cl	1.227300	-0.448330	0.249864
Cl331	Cl	1.477300	-0.198330	0.499864
Cl332	Cl	1.727300	0.051670	0.749864
Cl333	Cl	0.632223	0.109057	-0.154122
Cl334	Cl	0.882223	0.359057	0.095878
Cl335	Cl	1.132223	0.609057	0.345878
Cl336	Cl	1.382223	0.859057	0.595878
H337	H	0.734400	-0.493489	-0.000122
H338	H	0.984400	-0.243489	0.249878
H339	H	1.234400	0.006511	0.499878
H340	H	1.484400	0.256511	0.749878
H341	H	0.691357	-0.263861	-0.000110
H342	H	0.941357	-0.013861	0.249890
H343	H	1.191357	0.236139	0.499890
H344	H	1.441357	0.486139	0.749890
H345	H	0.746667	0.200686	0.328344
H346	H	0.996667	0.450686	0.578344
H347	H	1.246667	0.700686	0.828344
H348	H	1.496667	0.950686	1.078344
Cl349	Cl	0.926187	-0.016287	0.831835
Cl350	Cl	1.176187	0.233713	1.081835
Cl351	Cl	1.426187	0.483713	1.331835
Cl352	Cl	1.676187	0.733713	1.581835
H353	H	0.746646	0.200682	0.185381
H354	H	0.996646	0.450682	0.435381
H355	H	1.246646	0.700682	0.685381
H356	H	1.496646	0.950682	0.935381
Cl357	Cl	0.676015	-0.093659	-0.000103
Cl358	Cl	0.926015	0.156341	0.249897
Cl359	Cl	1.176015	0.406341	0.499897
Cl360	Cl	1.426015	0.656341	0.749897
Cl361	Cl	0.926144	-0.016291	0.167885
Cl362	Cl	1.176144	0.233709	0.417885
Cl363	Cl	1.426144	0.483709	0.667885
Cl364	Cl	1.676144	0.733709	0.917885
H365	H	0.906629	0.007311	0.328299
H366	H	1.156629	0.257311	0.578299
H367	H	1.406629	0.507311	0.828299
H368	H	1.656629	0.757311	1.078299
H369	H	0.037251	0.099220	-0.123958
H370	H	0.287251	0.349220	0.126042
H371	H	0.537251	0.599220	0.376042
H372	H	0.787251	0.849220	0.626042
Cl373	Cl	0.837717	-0.056755	0.410968
Cl374	Cl	1.087717	0.193245	0.660968
Cl375	Cl	1.337717	0.443245	0.910968
Cl376	Cl	1.587717	0.693245	1.160968
H377	H	0.835560	-0.025208	0.571380
H378	H	1.085560	0.224792	0.821380
H379	H	1.335560	0.474792	1.071380
H380	H	1.585560	0.724792	1.321380
H381	H	0.484592	0.106620	-0.123912
H382	H	0.734592	0.356620	0.126088
H383	H	0.984592	0.606620	0.376088
H384	H	1.234592	0.856620	0.626088
Cl385	Cl	0.402625	0.208714	-0.118118
Cl386	Cl	0.652625	0.458714	0.131882
Cl387	Cl	0.902625	0.708714	0.381882
Cl388	Cl	1.152625	0.958714	0.631882
H389	H	0.817758	0.233224	0.428393
H390	H	1.067758	0.483224	0.678393
H391	H	1.317758	0.733224	0.928393
H392	H	1.567758	0.983224	1.178393
