data_functionalizedCrystal
_audit_creation_method	'MofGen! by Chris Wilmer'
_symmetry_space_group_name_H-M	'P1'
_symmetry_Int_Tables_number	1
_symmetry_cell_setting	triclinic
loop_
_symmetry_equiv_pos_as_xyz
  x,y,z
_cell_length_a	17.699083
_cell_length_b	11.026607
_cell_length_c	16.776229
_cell_angle_alpha	89.996140
_cell_angle_beta	89.998886
_cell_angle_gamma	95.934516
loop_
_atom_site_label
_atom_site_type_symbol
_atom_site_fract_x
_atom_site_fract_y
_atom_site_fract_z
O1	O	1.025155	0.153399	-0.066172
O2	O	0.807518	0.173356	-0.066197
O3	O	0.898299	-0.013222	-0.066184
O4	O	0.934374	0.339978	-0.066186
O5	O	0.898282	-0.013234	0.066393
O6	O	0.807501	0.173345	0.066379
O7	O	1.025138	0.153387	0.066405
Zn8	Zn	0.916317	0.163364	0.087441
Zn9	Zn	0.916339	0.163379	-0.087234
O10	O	0.934357	0.339966	0.066391
C11	C	0.779214	0.172636	0.000087
C12	C	0.694902	0.170490	0.000078
C13	C	0.661328	0.280008	0.000077
C14	C	0.582106	0.277985	0.000088
C15	C	0.536460	0.166443	0.000092
C16	C	0.570039	0.056917	0.000095
C17	C	0.649259	0.058941	0.000090
C18	C	0.250554	0.048751	0.000115
C19	C	0.171329	0.046735	0.000117
C20	C	0.183402	0.267794	0.000112
C21	C	0.262621	0.269819	0.000107
C22	C	0.296194	0.160293	0.000114
C23	C	0.382094	0.162488	0.000104
C24	C	0.450561	0.164247	0.000096
C25	C	0.891635	-0.058419	0.000103
C26	C	0.871796	-0.193075	0.000097
C27	C	0.926576	-0.267042	0.000103
C28	C	0.906072	-0.406216	0.000097
C29	C	1.053441	0.154108	0.000118
C30	C	1.137754	0.156254	0.000123
C31	C	0.941021	0.385163	0.000103
C32	C	0.960860	0.519819	0.000103
N33	N	0.916307	0.163353	0.206652
N34	N	0.916354	0.163381	-0.206445
C35	C	0.956525	0.080770	0.248375
C36	C	0.956529	0.080769	0.331828
C37	C	0.916319	0.163358	0.373555
C38	C	0.876096	0.245945	0.331826
C39	C	0.876088	0.245939	0.248376
C40	C	0.876127	0.245969	0.668374
C41	C	0.876140	0.245971	0.751830
C42	C	0.956568	0.080799	0.751826
C43	C	0.956560	0.080793	0.668375
C44	C	0.916334	0.163375	0.626653
C45	C	0.916329	0.163374	0.536165
C46	C	0.916328	0.163366	0.464042
H47	H	0.698488	0.370838	0.000073
H48	H	0.843375	0.313212	0.634410
H49	H	0.843990	-0.445918	0.000085
H50	H	1.022943	-0.440480	0.000050
H51	H	0.156058	0.356975	0.000111
C52	C	0.831856	0.336783	0.377730
N53	N	0.798533	0.405203	0.412303
C54	C	1.010443	-0.213404	0.000118
N55	N	1.073614	-0.173006	0.000133
H56	H	0.277879	-0.040432	0.000121
C57	C	0.787928	-0.246712	0.000089
N58	N	0.724758	-0.287110	0.000084
H59	H	0.843337	0.313186	0.214405
C60	C	0.312828	0.392523	0.000107
N61	N	0.350643	0.484947	0.000112
H62	H	0.989272	0.013522	0.214406
H63	H	0.554775	0.367165	0.000086
C64	C	0.519826	-0.065781	0.000102
N65	N	0.482006	-0.158200	0.000104
H66	H	0.989277	0.013523	0.365798
C67	C	1.000791	-0.010064	0.622479
N68	N	1.034105	-0.078504	0.587912
H69	H	0.843393	0.313227	0.785803
C70	C	0.686190	-0.061537	0.000088
N71	N	0.714004	-0.152285	0.000089
C72	C	1.000809	-0.010055	0.797727
N73	N	1.034132	-0.078483	0.832298
H74	H	0.134166	-0.044102	0.000122
