data_functionalizedCrystal
_audit_creation_method	'MofGen! by Chris Wilmer'
_symmetry_space_group_name_H-M	'P1'
_symmetry_Int_Tables_number	1
_symmetry_cell_setting	triclinic
loop_
_symmetry_equiv_pos_as_xyz
  x,y,z
_cell_length_a	17.699083
_cell_length_b	19.288840
_cell_length_c	16.176319
_cell_angle_alpha	89.989074
_cell_angle_beta	90.005533
_cell_angle_gamma	83.204515
loop_
_atom_site_label
_atom_site_type_symbol
_atom_site_fract_x
_atom_site_fract_y
_atom_site_fract_z
O1	O	0.094313	0.921472	-0.068886
O2	O	0.594313	1.421472	0.431114
O3	O	0.107070	0.719224	-0.068858
O4	O	0.607070	1.219224	0.431142
O5	O	-0.009506	0.826062	-0.068866
O6	O	0.490494	1.326062	0.431134
O7	O	0.210890	0.814634	-0.068879
O8	O	0.710890	1.314634	0.431121
O9	O	-0.009485	0.826051	0.068628
O10	O	0.490515	1.326051	0.568628
O11	O	0.107091	0.719213	0.068635
O12	O	0.607091	1.219213	0.568635
O13	O	0.094335	0.921461	0.068607
O14	O	0.594335	1.421461	0.568607
Cu15	Cu	0.100715	0.820336	0.081175
Cu16	Cu	0.600715	1.320336	0.581175
Cu17	Cu	0.100690	0.820349	-0.081426
Cu18	Cu	0.600690	1.320349	0.418574
O19	O	0.210911	0.814623	0.068615
O20	O	0.710911	1.314623	0.568615
C21	C	0.106673	0.693341	-0.000108
C22	C	0.606673	1.193341	0.499892
C23	C	0.105451	0.616235	-0.000096
C24	C	0.605451	1.116235	0.499904
C25	C	0.104852	0.580037	-0.075046
C26	C	0.604852	1.080037	0.424954
C27	C	0.103695	0.507588	-0.075056
C28	C	0.603695	1.007588	0.424944
C29	C	0.103121	0.471343	-0.000112
C30	C	0.603121	0.971343	0.499888
C31	C	0.103724	0.507550	0.074847
C32	C	0.603724	1.007550	0.574847
C33	C	0.104889	0.579996	0.074855
C34	C	0.604889	1.079996	0.574855
C35	C	0.056952	0.361957	0.057296
C36	C	0.556952	0.861957	0.557296
C37	C	0.055783	0.289513	0.057285
C38	C	0.555783	0.789513	0.557285
C39	C	0.099531	0.247895	-0.000134
C40	C	0.599531	0.747895	0.499866
C41	C	0.144440	0.278732	-0.057555
C42	C	0.644440	0.778732	0.442445
C43	C	0.145605	0.351178	-0.057548
C44	C	0.645605	0.851178	0.442452
C45	C	0.101858	0.392788	-0.000113
C46	C	0.601858	0.892788	0.499887
C47	C	0.097679	0.133140	-0.075099
C48	C	0.597679	0.633140	0.424901
C49	C	0.096526	0.060690	-0.075106
C50	C	0.596526	0.560690	0.424894
C51	C	0.096548	0.060654	0.074799
C52	C	0.596548	0.560654	0.574799
C53	C	0.097708	0.133102	0.074804
C54	C	0.597708	0.633102	0.574804
C55	C	0.098270	0.169341	-0.000148
C56	C	0.598270	0.669341	0.499852
C57	C	-0.037692	0.825647	-0.000119
C58	C	0.462308	1.325647	0.499881
C59	C	-0.121708	0.824418	-0.000118
C60	C	0.378292	1.324418	0.499882
C61	C	-0.170423	0.887130	-0.000126
C62	C	0.329577	1.387130	0.499874
C63	C	-0.249365	0.885972	-0.000133
C64	C	0.250635	1.385972	0.499867
C65	C	-0.279590	0.822101	-0.000127
C66	C	0.220410	1.322101	0.499873
C67	C	-0.230868	0.759384	-0.000121
C68	C	0.269132	1.259384	0.499879
C69	C	-0.151928	0.760544	-0.000120
C70	C	0.348072	1.260544	0.499880
C71	C	-0.549224	0.754708	-0.000128
C72	C	-0.049224	1.254708	0.499872
C73	C	-0.628171	0.753554	-0.000126
C74	C	-0.128171	1.253554	0.499874
C75	C	-0.646661	0.880136	-0.000140
C76	C	-0.146661	1.380136	0.499860
C77	C	-0.567721	0.881296	-0.000139
C78	C	-0.067721	1.381296	0.499861
C79	C	-0.519006	0.818580	-0.000138
C80	C	-0.019006	1.318580	0.499862
C81	C	-0.433409	0.819836	-0.000132
C82	C	0.066591	1.319836	0.499868
C83	C	-0.365185	0.820843	-0.000127
C84	C	0.134815	1.320843	0.499873
C85	C	0.239096	0.815038	-0.000134
C86	C	0.739096	1.315038	0.499866
C87	C	0.323113	0.816266	-0.000140
C88	C	0.823113	1.316266	0.499860
C89	C	0.094731	0.947344	-0.000145
C90	C	0.594731	1.447344	0.499855
C91	C	0.095954	1.024450	-0.000162
C92	C	0.595954	1.524450	0.499838
N93	N	0.100732	0.820333	0.195541
N94	N	0.600732	1.320333	0.695541
N95	N	0.100667	0.820357	-0.195791
N96	N	0.600667	1.320357	0.304209
C97	C	0.054889	0.778309	0.760940
C98	C	0.554889	1.278309	1.260940
C99	C	0.054895	0.778308	0.674393
C100	C	0.554895	1.278308	1.174393
C101	C	0.100683	0.820351	0.631116
C102	C	0.600683	1.320351	1.131116
C103	C	0.146463	0.862405	0.674391
C104	C	0.646463	1.362405	1.174391
C105	C	0.146452	0.862409	0.760936
C106	C	0.646452	1.362409	1.260936
C107	C	0.146505	0.862387	0.325363
C108	C	0.646505	1.362387	0.825363
C109	C	0.146514	0.862378	0.238811
C110	C	0.646514	1.362378	0.738811
C111	C	0.054948	0.778286	0.238819
C112	C	0.554948	1.278286	0.738819
C113	C	0.054938	0.778291	0.325364
C114	C	0.554938	1.278291	0.825364
C115	C	0.100714	0.820346	0.368632
C116	C	0.600714	1.320346	0.868632
C117	C	0.100706	0.820348	0.462476
C118	C	0.600706	1.320348	0.962476
C119	C	0.100696	0.820346	0.537273
C120	C	0.600696	1.320346	1.037273
H121	H	0.180067	0.244848	-0.104309
H122	H	0.680067	0.744848	0.395691
H123	H	0.017673	0.744044	0.203580
H124	H	0.517673	1.244044	0.703580
Cl125	Cl	-0.666166	0.673253	-0.000120
Cl126	Cl	-0.166166	1.173253	0.499880
H127	H	-0.509570	0.703641	-0.000127
H128	H	-0.009570	1.203641	0.499873
H129	H	0.103259	0.478035	0.135867
H130	H	0.603259	0.978035	0.635867
Cl131	Cl	0.204059	0.915252	0.379745
Cl132	Cl	0.704059	1.415252	0.879745
H133	H	0.098144	0.162646	-0.136129
H134	H	0.598144	0.662646	0.363871
Cl135	Cl	0.102941	0.462072	-0.169286
Cl136	Cl	0.602941	0.962072	0.330714
H137	H	0.183741	0.896641	0.639148
H138	H	0.683741	1.396641	1.139148
Cl139	Cl	0.204081	0.915237	0.184407
Cl140	Cl	0.704081	1.415237	0.684407
Cl141	Cl	0.204000	0.915275	0.815332
Cl142	Cl	0.704000	1.415275	1.315332
Cl143	Cl	0.095780	0.015181	-0.169338
Cl144	Cl	0.595780	0.515181	0.330662
Cl145	Cl	0.095835	0.015095	0.169016
Cl146	Cl	0.595835	0.515095	0.669016
H147	H	0.105309	0.609538	-0.136078
H148	H	0.605309	1.109538	0.363922
Cl149	Cl	-0.002673	0.725448	0.815336
Cl150	Cl	0.497327	1.225448	1.315336
H151	H	0.098191	0.162576	0.135836
H152	H	0.598191	0.662576	0.635836
Cl153	Cl	-0.310604	0.964813	-0.000140
Cl154	Cl	0.189396	1.464813	0.499860
Cl155	Cl	-0.000654	0.250751	0.129488
Cl156	Cl	0.499346	0.750751	0.629488
Cl157	Cl	0.202062	0.389942	-0.129728
Cl158	Cl	0.702062	0.889942	0.370272
H159	H	0.021325	0.395836	0.104058
H160	H	0.521325	0.895836	0.604058
H161	H	-0.145821	0.939141	-0.000126
H162	H	0.354179	1.439141	0.499874
H163	H	0.105377	0.609469	0.135890
H164	H	0.605377	1.109469	0.635890
H165	H	0.017655	0.744052	0.360596
H166	H	0.517655	1.244052	0.860596
H167	H	-0.543117	0.933306	-0.000140
H168	H	-0.043117	1.433306	0.499860
Cl169	Cl	-0.707907	0.958981	-0.000145
Cl170	Cl	-0.207907	1.458981	0.499855
H171	H	-0.255483	0.707380	-0.000121
H172	H	0.244517	1.207380	0.499879
H173	H	-0.112264	0.709477	-0.000114
H174	H	0.387736	1.209477	0.499886
Cl175	Cl	-0.002633	0.725422	0.620001
Cl176	Cl	0.497367	1.225422	1.120001
