data_functionalizedCrystal
_audit_creation_method	'MofGen! by Chris Wilmer'
_symmetry_space_group_name_H-M	'P1'
_symmetry_Int_Tables_number	1
_symmetry_cell_setting	triclinic
loop_
_symmetry_equiv_pos_as_xyz
  x,y,z
_cell_length_a	14.853567
_cell_length_b	10.540539
_cell_length_c	13.330367
_cell_angle_alpha	89.997527
_cell_angle_beta	89.995418
_cell_angle_gamma	84.080211
loop_
_atom_site_label
_atom_site_type_symbol
_atom_site_fract_x
_atom_site_fract_y
_atom_site_fract_z
O1	O	1.197288	0.165727	-0.083349
O2	O	0.934938	0.185470	-0.083366
O3	O	1.072099	-0.009174	-0.083356
O4	O	1.060128	0.360371	-0.083359
O5	O	1.072079	-0.009178	0.083491
O6	O	0.934918	0.185465	0.083481
O7	O	1.197268	0.165723	0.083498
Cu8	Cu	1.066092	0.175594	0.098724
Cu9	Cu	1.066115	0.175599	-0.098592
O10	O	1.060108	0.360367	0.083488
C11	C	0.901335	0.184573	0.000055
C12	C	0.801236	0.181892	0.000049
C13	C	0.387998	0.054938	0.000072
C14	C	0.368000	0.286179	0.000069
C15	C	0.462048	0.288700	0.000066
C16	C	0.519075	0.174338	0.000065
C17	C	0.482055	0.057455	0.000066
C18	C	0.499075	0.405580	0.000054
C19	C	0.593129	0.408105	0.000050
C20	C	0.650158	0.293742	0.000056
C21	C	0.613132	0.176855	0.000058
C22	C	0.670159	0.062493	0.000057
C23	C	0.633135	-0.054396	0.000067
C24	C	0.539084	-0.056908	0.000072
C25	C	0.744209	0.296254	0.000050
C26	C	0.764216	0.065010	0.000050
C27	C	1.071191	-0.056469	0.000066
C28	C	1.068505	-0.197388	0.000060
C29	C	0.965588	-0.379682	-0.000321
C30	C	0.968311	-0.233094	0.000055
C31	C	1.116712	-0.259578	0.095341
C32	C	1.113292	-0.406085	0.095421
C33	C	1.115353	-0.406621	-0.094315
C34	C	1.116276	-0.259649	-0.095575
C35	C	1.230872	0.166620	0.000074
C36	C	1.330971	0.169300	0.000074
C37	C	1.061016	0.407662	0.000064
C38	C	1.063702	0.548580	0.000063
N39	N	1.066081	0.175589	0.237505
N40	N	1.066133	0.175593	-0.237374
C41	C	1.005378	0.261753	0.710124
C42	C	1.126877	0.089435	0.710101
C43	C	1.126867	0.089431	0.605082
C44	C	1.066112	0.175591	0.552580
C45	C	1.005368	0.261754	0.605096
C46	C	1.187616	0.003277	0.552559
C47	C	1.187609	0.003271	0.447534
C48	C	1.126849	0.089426	0.395029
C49	C	1.066102	0.175592	0.447552
C50	C	1.005347	0.261752	0.395049
C51	C	0.944594	0.347913	0.447570
C52	C	0.944608	0.347909	0.552591
C53	C	1.126836	0.089430	0.290008
C54	C	1.005337	0.261753	0.290021
H55	H	0.926017	-0.407845	-0.068649
H56	H	0.930378	-0.190072	-0.068247
H57	H	0.357849	-0.040229	0.000084
O58	O	0.688628	-0.165399	-0.000071
C59	C	0.806391	-0.296775	-0.086555
C60	C	0.743608	-0.171009	-0.086511
H61	H	0.850845	-0.301363	-0.156444
H62	H	0.850990	-0.301385	-0.016784
H63	H	0.763762	-0.380732	-0.086496
H64	H	0.786166	-0.086982	-0.086604
H65	H	0.699005	-0.166510	-0.156275
O66	O	1.070906	-0.439363	0.180445
C67	C	1.082040	-0.562380	0.333123
C68	C	1.130162	-0.524785	0.236886
H69	H	1.129921	-0.631469	0.378773
H70	H	1.061312	-0.473352	0.379602
H71	H	1.019227	-0.610219	0.312200
H72	H	1.193007	-0.476974	0.257719
H73	H	1.150823	-0.613855	0.190433
H74	H	1.237086	-0.066866	0.595309
O75	O	1.246649	-0.080551	0.396676
C76	C	1.367195	-0.251423	0.407746
C77	C	1.300371	-0.156581	0.465468
H78	H	1.410660	-0.312900	0.463339
H79	H	1.327906	-0.315028	0.358620
H80	H	1.412536	-0.196483	0.358532
H81	H	1.255014	-0.211417	0.514736
H82	H	1.339716	-0.092977	0.514530
O83	O	1.185877	0.005623	0.239145
C84	C	1.306437	-0.165231	0.250211
C85	C	1.239604	-0.070402	0.307936
H86	H	1.349905	-0.226704	0.305803
H87	H	1.267154	-0.228841	0.201083
H88	H	1.351773	-0.110279	0.201001
H89	H	1.194252	-0.125250	0.357201
H90	H	1.278943	-0.006793	0.357001
O91	O	0.918603	-0.415417	0.080700
C92	C	0.859565	-0.588316	0.169044
C93	C	0.912802	-0.548023	0.077254
H94	H	0.854842	-0.695525	0.166278
H95	H	0.895833	-0.563499	0.240680
H96	H	0.788546	-0.535722	0.168092
H97	H	0.983826	-0.600594	0.078110
H98	H	0.876464	-0.572813	0.005659
O99	O	0.502969	-0.170333	0.000031
C100	C	0.366937	-0.276685	0.000092
C101	C	0.407721	-0.148146	0.000118
H102	H	0.289924	-0.258791	0.000184
H103	H	0.390298	-0.333224	-0.069750
H104	H	0.390408	-0.333209	0.069901
H105	H	0.384268	-0.091518	-0.069643
H106	H	0.384364	-0.091703	0.070006
H107	H	0.930096	-0.190919	0.068465
O108	O	1.076741	-0.208551	0.180001
C109	C	0.997336	-0.247740	0.332725
C110	C	1.042599	-0.305695	0.236904
H111	H	0.969703	-0.326249	0.378748
H112	H	1.049285	-0.200872	0.379060
H113	H	0.939451	-0.173162	0.311263
H114	H	1.100477	-0.380323	0.258276
H115	H	0.990594	-0.352481	0.190594
H116	H	0.321563	0.379287	0.000062
O117	O	0.885671	0.431784	0.396609
C118	C	0.834219	0.652368	0.364512
C119	C	0.901012	0.557528	0.422273
H120	H	0.846587	0.754052	0.385256
H121	H	0.844656	0.637677	0.280418
H122	H	0.761915	0.635571	0.385153
H123	H	0.973343	0.574267	0.401716
H124	H	0.890496	0.572242	0.506353
H125	H	1.189326	-0.236231	-0.101324
H126	H	1.082934	-0.437815	-0.166532
H127	H	1.185351	-0.454847	0.099748
H128	H	0.452638	0.498687	0.000045
O129	O	0.946240	0.345317	0.761092
C130	C	0.789961	0.419331	0.793200
C131	C	0.856835	0.324606	0.735432
H132	H	0.717664	0.402637	0.772460
H133	H	0.800320	0.404530	0.877293
H134	H	0.802401	0.521025	0.772561
H135	H	0.844436	0.222875	0.755987
H136	H	0.846461	0.339518	0.651354
O137	O	1.201674	-0.463962	-0.095264
C138	C	1.313949	-0.601857	-0.184432
C139	C	1.216183	-0.536965	-0.183505
H140	H	1.325705	-0.660917	-0.255757
H141	H	1.363354	-0.526013	-0.181985
H142	H	1.325148	-0.666755	-0.116190
H143	H	1.204897	-0.472075	-0.251737
H144	H	1.166828	-0.612876	-0.185901
H145	H	1.176346	0.019292	0.752851
O146	O	0.628977	0.521728	-0.000089
C147	C	0.640689	0.720114	-0.086563
C148	C	0.600016	0.591492	-0.086521
H149	H	0.617305	0.776544	-0.156446
H150	H	0.617230	0.776719	-0.016786
H151	H	0.717704	0.702255	-0.086515
H152	H	0.522999	0.609235	-0.086604
H153	H	0.623547	0.534929	-0.156292
H154	H	0.774350	0.391423	0.000044
H155	H	0.810642	-0.028119	0.000053
O156	O	1.074409	-0.210314	-0.179744
C157	C	1.089232	-0.094944	-0.333927
C158	C	1.136764	-0.150795	-0.238665
H159	H	1.139621	-0.046786	-0.381580
H160	H	1.062177	-0.174821	-0.378902
H161	H	1.030682	-0.021796	-0.311780
H162	H	1.195350	-0.223927	-0.260723
H163	H	1.163755	-0.070849	-0.193714
H164	H	0.895146	0.418060	0.595360
H165	H	1.190292	-0.238034	0.098888
H166	H	0.955860	0.331911	0.247280
