data_functionalizedCrystal
_audit_creation_method	'MofGen! by Chris Wilmer'
_symmetry_space_group_name_H-M	'P1'
_symmetry_Int_Tables_number	1
_symmetry_cell_setting	triclinic
loop_
_symmetry_equiv_pos_as_xyz
  x,y,z
_cell_length_a	23.532407
_cell_length_b	15.944551
_cell_length_c	15.021413
_cell_angle_alpha	89.996935
_cell_angle_beta	90.001925
_cell_angle_gamma	83.173708
loop_
_atom_site_label
_atom_site_type_symbol
_atom_site_fract_x
_atom_site_fract_y
_atom_site_fract_z
O1	O	-0.755658	-0.101953	-0.073923
O2	O	-0.589851	-0.116707	-0.073949
O3	O	-0.677282	0.012983	-0.073927
O4	O	-0.668227	-0.231643	-0.073945
O5	O	-0.677268	0.012965	0.074137
O6	O	-0.589838	-0.116725	0.074115
O7	O	-0.755644	-0.101972	0.074141
Zn8	Zn	-0.672738	-0.109351	0.097636
Zn9	Zn	-0.672757	-0.109327	-0.097444
O10	O	-0.668213	-0.231661	0.074119
C11	C	-0.676899	0.044265	0.000105
C12	C	-0.675772	0.137501	0.000105
C13	C	-0.568627	-0.116340	0.000080
C14	C	-0.505406	-0.115211	0.000070
C15	C	-0.776868	-0.102338	0.000111
C16	C	-0.840090	-0.103468	0.000115
C17	C	-0.106572	-0.184874	0.000105
C18	C	-0.047168	-0.183824	0.000111
O19	O	-0.010674	-0.248403	0.000138
N20	N	-0.024243	-0.106724	0.000115
C21	C	-0.060726	-0.030668	0.000122
O22	O	-0.035772	0.035009	0.000127
C23	C	-0.120129	-0.031718	0.000123
C24	C	-0.143051	-0.108823	0.000110
C25	C	-0.129494	-0.261973	0.000093
C26	C	-0.188894	-0.263022	0.000086
C27	C	-0.225373	-0.186971	0.000091
C28	C	-0.202451	-0.109872	0.000103
C29	C	-0.156611	0.044337	0.000137
C30	C	-0.216018	0.043281	0.000138
C31	C	-0.238939	-0.033825	0.000125
C32	C	-0.298329	-0.034871	0.000100
N33	N	-0.321254	-0.111971	0.000096
C34	C	-0.284776	-0.188022	0.000092
C35	C	0.064025	-0.028468	0.000122
C36	C	0.123427	-0.027417	0.000115
C37	C	0.136981	-0.180574	0.000105
C38	C	0.077578	-0.181624	0.000106
C39	C	0.041100	-0.105569	0.000118
C40	C	-0.409521	-0.190219	0.000076
C41	C	-0.468927	-0.191261	0.000065
C42	C	-0.482476	-0.038104	0.000079
C43	C	-0.423075	-0.037062	0.000086
C44	C	-0.386599	-0.113126	0.000087
O45	O	-0.334859	0.029673	0.000076
O46	O	-0.309738	-0.253687	0.000098
C47	C	-0.668596	-0.262943	0.000085
C48	C	-0.669723	-0.356179	0.000079
N49	N	-0.672730	-0.109367	0.230774
C50	C	-0.618885	0.351879	0.000084
C51	C	-0.645295	0.413109	0.073093
C52	C	-0.673733	0.308210	0.000098
C53	C	-0.645321	0.413111	-0.072887
C54	C	-0.671760	0.473106	0.000087
C55	C	-0.700158	0.368212	0.073167
C56	C	-0.700177	0.368208	-0.072878
C57	C	-0.726627	0.429421	0.000148
C58	C	-0.674869	0.213217	0.000105
C59	C	-0.670629	0.568097	0.000087
N60	N	-0.672770	-0.109304	-0.230582
C61	C	-0.632296	-0.169308	0.470447
C62	C	-0.683757	-0.185181	0.529789
C63	C	-0.672745	-0.109346	0.412381
C64	C	-0.621298	-0.093492	0.529781
C65	C	-0.672754	-0.109328	0.587805
C66	C	-0.724232	-0.125257	0.470416
C67	C	-0.661739	-0.033535	0.470403
C68	C	-0.713237	-0.049376	0.529718
C69	C	-0.672738	-0.109359	0.311324
C70	C	-0.672766	-0.109314	0.688860
H71	H	-0.487586	-0.254052	0.000054
Br72	Br	-0.125519	0.148987	0.000135
Br73	Br	-0.770315	0.035160	0.572829
H74	H	-0.652405	0.030548	0.444298
H75	H	-0.723332	0.348410	0.134958
H76	H	-0.577786	-0.080090	0.555861
Br77	Br	-0.543004	0.295725	0.000184
H78	H	-0.207551	-0.325809	0.000075
H79	H	-0.379828	-0.252157	0.000079
H80	H	-0.622090	0.433014	0.134809
H81	H	-0.512187	0.023814	0.000080
Br82	Br	-0.079998	-0.365199	0.000086
Br83	Br	-0.606649	0.446287	-0.175754
Br84	Br	-0.802574	0.485331	0.000223
Br85	Br	0.046477	-0.286270	0.000088
H86	H	-0.723362	0.348281	-0.134597
Br87	Br	-0.575340	-0.253886	0.427066
Br88	Br	-0.699289	-0.292024	0.573264
H89	H	-0.767753	-0.138736	0.444449
H90	H	0.142084	0.035370	0.000111
Br91	Br	0.186499	-0.283786	0.000100
Br92	Br	-0.391966	0.067582	0.000106
Br93	Br	0.014524	0.074761	0.000131
H94	H	-0.245716	0.105216	0.000149
