data_functionalizedCrystal
_audit_creation_method	'MofGen! by Chris Wilmer'
_symmetry_space_group_name_H-M	'P1'
_symmetry_Int_Tables_number	1
_symmetry_cell_setting	triclinic
loop_
_symmetry_equiv_pos_as_xyz
  x,y,z
_cell_length_a	10.723023
_cell_length_b	14.853559
_cell_length_c	9.798715
_cell_angle_alpha	89.999043
_cell_angle_beta	89.996770
_cell_angle_gamma	84.049501
loop_
_atom_site_label
_atom_site_type_symbol
_atom_site_fract_x
_atom_site_fract_y
_atom_site_fract_z
O1	O	1.655903	0.126442	-0.113470
O2	O	2.155903	0.626442	0.386530
O3	O	1.292628	0.138546	-0.113475
O4	O	1.792628	0.638546	0.386525
O5	O	1.483975	0.001315	-0.113471
O6	O	1.983975	0.501315	0.386529
O7	O	1.464557	0.263673	-0.113474
O8	O	1.964557	0.763673	0.386526
O9	O	1.483961	0.001315	0.113511
O10	O	1.983961	0.501315	0.613511
O11	O	1.292614	0.138546	0.113507
O12	O	1.792614	0.638546	0.613507
O13	O	1.655889	0.126442	0.113512
O14	O	2.155889	0.626442	0.613512
Zn15	Zn	1.474249	0.132494	0.149548
Zn16	Zn	1.974249	0.632494	0.649548
Zn17	Zn	1.474268	0.132494	-0.149511
Zn18	Zn	1.974268	0.632494	0.350489
O19	O	1.464542	0.263673	0.113508
O20	O	1.964542	0.763673	0.613508
C21	C	1.246130	0.137666	0.000015
C22	C	1.746130	0.637666	0.500015
C23	C	1.107603	0.135031	0.000013
C24	C	1.607603	0.635031	0.500013
C25	C	1.045835	0.133856	0.117596
C26	C	1.545835	0.633856	0.617596
C27	C	0.902660	0.131132	0.117596
C28	C	1.402660	0.631132	0.617596
C29	C	1.483090	-0.032278	0.000018
C30	C	1.983090	0.467722	0.500018
C31	C	1.480459	-0.132376	0.000010
C32	C	1.980459	0.367624	0.500010
C33	C	1.469305	-0.555610	-0.123718
C34	C	1.969305	-0.055610	0.376282
C35	C	1.469290	-0.555605	0.123746
C36	C	1.969290	-0.055605	0.623746
C37	C	1.471772	-0.461559	0.123748
C38	C	1.971772	0.038441	0.623748
C39	C	1.473019	-0.414533	0.000014
C40	C	1.973019	0.085467	0.500014
C41	C	1.471784	-0.461555	-0.123721
C42	C	1.971784	0.038445	0.376279
C43	C	1.472995	-0.414529	0.247480
C44	C	1.972995	0.085471	0.747480
C45	C	1.475476	-0.320477	0.247486
C46	C	1.975476	0.179523	0.747486
C47	C	1.476732	-0.273451	0.123751
C48	C	1.976732	0.226549	0.623751
C49	C	1.475498	-0.320478	0.000011
C50	C	1.975498	0.179522	0.500011
C51	C	1.476745	-0.273453	-0.123722
C52	C	1.976745	0.226547	0.376278
C53	C	1.475520	-0.320479	-0.247464
C54	C	1.975520	0.179521	0.252536
C55	C	1.473040	-0.414528	-0.247456
C56	C	1.973040	0.085472	0.252544
C57	C	1.479212	-0.179401	0.123744
C58	C	1.979212	0.320599	0.623744
C59	C	1.479224	-0.179397	-0.123725
C60	C	1.979224	0.320603	0.376275
C61	C	1.702387	0.127323	0.000019
C62	C	2.202387	0.627323	0.500019
C63	C	1.840915	0.129958	0.000012
C64	C	2.340915	0.629958	0.500012
C65	C	1.465427	0.297267	0.000017
C66	C	1.965427	0.797267	0.500017
C67	C	1.468058	0.397365	0.000015
C68	C	1.968058	0.897365	0.500015
N69	N	1.474246	0.132493	0.353648
N70	N	1.974246	0.632493	0.853648
N71	N	1.474282	0.132488	-0.353610
N72	N	1.974282	0.632488	0.146390
C73	C	1.554589	0.074620	0.421426
C74	C	2.054589	0.574620	0.921426
C75	C	1.554610	0.074617	0.578589
C76	C	2.054610	0.574617	1.078589
H77	H	1.480245	-0.141117	-0.224485
H78	H	1.980245	0.358883	0.275515
F79	F	1.476850	-0.270421	-0.379145
F80	F	1.976850	0.229579	0.120855
F81	F	1.471643	-0.464579	0.379157
F82	F	1.971643	0.035421	0.879157
F83	F	1.644526	0.009856	0.654771
F84	F	2.144526	0.509856	1.154771
H85	H	1.623357	0.025070	0.363105
H86	H	2.123357	0.525070	0.863105
H87	H	1.472042	-0.452825	-0.348200
H88	H	1.972042	0.047175	0.151800
H89	H	1.476478	-0.282197	0.348244
H90	H	1.976478	0.217803	0.848244
H91	H	1.468266	-0.593898	0.224485
H92	H	1.968266	-0.093898	0.724485
H93	H	1.468313	-0.593903	-0.224465
H94	H	1.968313	-0.093903	0.275535
H95	H	1.405497	0.182042	0.588112
H96	H	1.905497	0.682042	1.088112
H97	H	1.405470	0.182035	0.411971
H98	H	1.905470	0.682035	0.911971
H99	H	1.480181	-0.141115	0.224492
H100	H	1.980181	0.358885	0.724492
H101	H	1.098952	0.134861	0.218262
H102	H	1.598952	0.634861	0.718262
H103	H	0.849540	0.130127	0.218263
H104	H	1.349540	0.630127	0.718263
H105	H	1.054488	0.134018	-0.100653
H106	H	1.554488	0.634018	0.399347
F107	F	0.910331	0.131285	-0.131577
F108	F	1.410331	0.631285	0.368423
