data_functionalizedCrystal
_audit_creation_method	'MofGen! by Chris Wilmer'
_symmetry_space_group_name_H-M	'P1'
_symmetry_Int_Tables_number	1
_symmetry_cell_setting	triclinic
loop_
_symmetry_equiv_pos_as_xyz
  x,y,z
_cell_length_a	11.792241
_cell_length_b	13.596369
_cell_length_c	11.792254
_cell_angle_alpha	90.000552
_cell_angle_beta	84.196007
_cell_angle_gamma	90.001745
loop_
_atom_site_label
_atom_site_type_symbol
_atom_site_fract_x
_atom_site_fract_y
_atom_site_fract_z
O1	O	1.506919	0.081696	0.155559
O2	O	1.840252	0.415030	0.488893
O3	O	2.173586	0.748363	0.822226
O4	O	1.176579	0.081719	0.171592
O5	O	1.509912	0.415053	0.504926
O6	O	1.843245	0.748386	0.838259
O7	O	1.349758	0.081700	-0.001594
O8	O	1.683091	0.415034	0.331740
O9	O	2.016424	0.748367	0.665073
O10	O	1.333740	0.081715	0.328745
O11	O	1.667073	0.415049	0.662079
O12	O	2.000407	0.748382	0.995412
O13	O	1.349736	-0.081883	-0.001584
O14	O	1.683070	0.251451	0.331749
O15	O	2.016403	0.584784	0.665082
O16	O	1.176557	-0.081864	0.171602
O17	O	1.509891	0.251470	0.504935
O18	O	1.843224	0.584803	0.838268
O19	O	1.506898	-0.081887	0.155569
O20	O	1.840231	0.251447	0.488902
O21	O	2.173564	0.584780	0.822236
Zn22	Zn	1.341724	-0.107847	0.163587
Zn23	Zn	1.675057	0.225486	0.496920
Zn24	Zn	2.008391	0.558819	0.830254
Zn25	Zn	1.341752	0.107680	0.163574
Zn26	Zn	1.675086	0.441013	0.496908
Zn27	Zn	2.008419	0.774347	0.830241
O28	O	1.333718	-0.081868	0.328755
O29	O	1.667052	0.251466	0.662088
O30	O	2.000385	0.584799	0.995422
C31	C	1.134277	-0.000069	0.170590
C32	C	1.467610	0.333264	0.503923
C33	C	1.800944	0.666597	0.837257
C34	C	1.008263	-0.000061	0.167576
C35	C	1.341596	0.333273	0.500909
C36	C	1.674930	0.666606	0.834242
N37	N	1.341713	-0.254939	0.163595
N38	N	1.675046	0.078394	0.496928
N39	N	2.008380	0.411727	0.830261
C40	C	0.777551	-0.000089	0.162033
C41	C	1.110884	0.333244	0.495366
C42	C	1.444217	0.666577	0.828699
C43	C	0.905936	-0.000074	0.165112
C44	C	1.239269	0.333260	0.498446
C45	C	1.572603	0.666593	0.831779
C46	C	1.341719	-0.343937	0.163597
C47	C	1.675052	-0.010604	0.496931
C48	C	2.008385	0.322730	0.830264
C49	C	1.341730	-0.455588	0.163590
C50	C	1.675063	-0.122255	0.496923
C51	C	2.008396	0.211078	0.830256
C52	C	1.341745	-0.544579	0.163577
C53	C	1.675078	-0.211246	0.496910
C54	C	2.008411	0.122088	0.830244
C55	C	1.341757	-0.656237	0.163570
C56	C	1.675091	-0.322904	0.496904
C57	C	2.008424	0.010429	0.830237
C58	C	1.549199	-0.000096	0.156571
C59	C	1.882533	0.333238	0.489905
C60	C	2.215866	0.666571	0.823238
C61	C	1.675213	-0.000098	0.159586
C62	C	2.008546	0.333235	0.492919
C63	C	2.341880	0.666569	0.826252
C64	C	1.348738	-0.000091	-0.043880
C65	C	1.682071	0.333243	0.289454
C66	C	2.015405	0.666576	0.622787
C67	C	1.345718	-0.000090	-0.169893
C68	C	1.679051	0.333244	0.163441
C69	C	2.012385	0.666577	0.496774
N70	N	1.341772	0.254772	0.163557
N71	N	1.675105	0.588105	0.496891
N72	N	2.008439	0.921439	0.830224
C73	C	1.343264	-0.000086	-0.272229
C74	C	1.676597	0.333247	0.061104
C75	C	2.009931	0.666581	0.394437
C76	C	1.340196	-0.000077	-0.400616
C77	C	1.673529	0.333257	-0.067283
C78	C	2.006862	0.666590	0.266051
C79	C	1.334738	-0.000074	0.371041
C80	C	1.668071	0.333259	0.704374
C81	C	2.001405	0.666592	1.037708
C82	C	1.337758	-0.000069	0.497054
C83	C	1.671092	0.333264	0.830387
C84	C	2.004425	0.666598	1.163721
