data_functionalizedCrystal
_audit_creation_method	'MofGen! by Chris Wilmer'
_symmetry_space_group_name_H-M	'P1'
_symmetry_Int_Tables_number	1
_symmetry_cell_setting	triclinic
loop_
_symmetry_equiv_pos_as_xyz
  x,y,z
_cell_length_a	12.594516
_cell_length_b	16.120542
_cell_length_c	12.594517
_cell_angle_alpha	87.101056
_cell_angle_beta	90.001327
_cell_angle_gamma	92.892305
loop_
_atom_site_label
_atom_site_type_symbol
_atom_site_fract_x
_atom_site_fract_y
_atom_site_fract_z
Zn1	Zn	-0.506735	-1.274435	0.684313
Zn2	Zn	-0.684666	-1.274397	0.506338
Zn3	Zn	-0.497653	-1.135063	0.497326
Zn4	Zn	-0.675617	-1.135002	0.675251
O5	O	-0.591168	-1.204724	0.590807
O6	O	-0.537926	-1.391095	0.668268
O7	O	-0.659844	-1.255923	0.356197
O8	O	-0.349915	-1.153592	0.522151
O9	O	-0.668651	-1.391067	0.537511
O10	O	-0.356588	-1.255989	0.659529
O11	O	-0.522447	-1.153555	0.349576
O12	O	-0.513673	-1.018389	0.513364
O13	O	-0.653229	-1.153489	0.825398
O14	O	-0.644422	-1.018345	0.644085
O15	O	-0.529152	-1.255930	0.832056
O16	O	-0.832409	-1.255864	0.528724
O17	O	-0.825761	-1.153451	0.652824
C18	C	-0.577081	-0.988117	0.576764
C19	C	-0.571080	-0.895452	0.570782
C20	C	-0.622265	-0.684503	0.621781
C21	C	-0.560133	-0.725796	0.559858
C22	C	-0.566226	-0.820201	0.565938
C23	C	-0.616174	-0.590090	0.615702
C24	C	-0.867705	-1.204670	0.590793
C25	C	-0.986014	-1.204722	0.590828
C26	C	-1.051690	-1.149015	0.658275
C27	C	-1.121195	-1.128727	0.559840
C28	C	-1.127312	-1.225086	0.689284
C29	C	-1.053959	-1.184395	0.492338
C30	C	-1.060072	-1.280789	0.621851
C31	C	-1.129548	-1.260530	0.523350
C32	C	-0.313552	-1.204802	0.590846
C33	C	-0.195249	-1.204835	0.590862
C34	C	-0.591194	-1.204707	0.868427
C35	C	-0.591205	-1.204700	0.986732
C36	C	-0.605305	-0.422177	0.604890
C37	C	-0.611315	-0.514842	0.610854
C38	C	-0.658680	-1.148981	1.052364
C39	C	-0.689656	-1.225034	1.128075
C40	C	-0.560257	-1.128650	1.121820
C41	C	-0.622234	-1.280793	1.060887
C42	C	-0.492786	-1.184357	1.054623
C43	C	-0.523729	-1.260463	1.130305
C44	C	-0.591173	-1.204723	1.314266
C45	C	-0.591185	-1.204695	1.195959
H46	H	-0.680029	-0.720049	0.679355
H47	H	-0.409586	-1.167126	1.022377
H48	H	-0.502365	-0.690248	0.502279
H49	H	-1.017616	-1.101820	0.715220
O50	O	-0.529153	-1.051866	1.153818
C51	C	-0.600546	-0.993332	1.114016
H52	H	-0.642701	-1.018022	1.041087
H53	H	-0.554846	-0.932228	1.090983
H54	H	-0.661820	-0.982412	1.177789
H55	H	-0.648496	-1.345124	1.034090
H56	H	-1.159487	-1.242264	0.772535
H57	H	-1.021907	-1.167143	0.409061
O58	O	-1.153372	-1.051994	0.528715
C59	C	-1.113574	-0.993386	0.600000
H60	H	-1.095807	-1.026475	0.679680
H61	H	-1.175277	-0.945283	0.611761
H62	H	-1.037457	-0.961006	0.566203
O63	O	-1.169914	-1.316696	0.455094
C64	C	-1.132258	-1.294988	0.351465
H65	H	-1.108088	-1.225810	0.344881
H66	H	-1.197752	-1.309058	0.291553
H67	H	-1.060485	-1.332543	0.334160
H68	H	-1.033039	-1.345049	0.648110
O69	O	-0.455512	-1.316617	1.170801
C70	C	-0.375691	-1.275285	1.229735
H71	H	-0.368062	-1.206956	1.201383
H72	H	-0.296691	-1.305124	1.217786
H73	H	-0.397771	-1.280351	1.317691
O74	O	-0.726968	-1.092934	1.011730
C75	C	-0.830633	-1.114685	1.049249
H76	H	-0.837138	-1.183837	1.073581
H77	H	-0.890455	-1.100762	0.983614
H78	H	-0.848134	-1.077044	1.120887
H79	H	-0.772879	-1.242244	1.160295
