data_functionalizedCrystal
_audit_creation_method	'MofGen! by Chris Wilmer'
_symmetry_space_group_name_H-M	'P1'
_symmetry_Int_Tables_number	1
_symmetry_cell_setting	triclinic
loop_
_symmetry_equiv_pos_as_xyz
  x,y,z
_cell_length_a	14.519731
_cell_length_b	14.519709
_cell_length_c	9.730223
_cell_angle_alpha	89.997715
_cell_angle_beta	89.999699
_cell_angle_gamma	83.684499
loop_
_atom_site_label
_atom_site_type_symbol
_atom_site_fract_x
_atom_site_fract_y
_atom_site_fract_z
O1	O	1.223850	0.120981	-0.114296
O2	O	1.473850	0.370981	0.135704
O3	O	1.723850	0.620981	0.385704
O4	O	1.973850	0.870981	0.635704
O5	O	0.955376	0.135197	-0.114298
O6	O	1.205376	0.385197	0.135702
O7	O	1.455376	0.635197	0.385702
O8	O	1.705376	0.885197	0.635702
O9	O	1.096731	-0.006149	-0.114285
O10	O	1.346731	0.243851	0.135715
O11	O	1.596731	0.493851	0.385715
O12	O	1.846731	0.743851	0.635715
O13	O	1.082495	0.262327	-0.114310
O14	O	1.332495	0.512327	0.135690
O15	O	1.582495	0.762327	0.385690
O16	O	1.832495	1.012327	0.635690
O17	O	1.096730	-0.006146	0.114295
O18	O	1.346730	0.243854	0.364295
O19	O	1.596730	0.493854	0.614295
O20	O	1.846730	0.743854	0.864295
O21	O	0.955374	0.135200	0.114282
O22	O	1.205374	0.385200	0.364282
O23	O	1.455374	0.635200	0.614282
O24	O	1.705374	0.885200	0.864282
O25	O	1.223848	0.120984	0.114284
O26	O	1.473848	0.370984	0.364284
O27	O	1.723848	0.620984	0.614284
O28	O	1.973848	0.870984	0.864284
Zn29	Zn	1.089611	0.128093	0.150575
Zn30	Zn	1.339611	0.378093	0.400575
Zn31	Zn	1.589611	0.628093	0.650575
Zn32	Zn	1.839611	0.878093	0.900575
Zn33	Zn	1.089613	0.128088	-0.150589
Zn34	Zn	1.339613	0.378088	0.099411
Zn35	Zn	1.589613	0.628088	0.349411
Zn36	Zn	1.839613	0.878088	0.599411
O37	O	1.082493	0.262330	0.114270
O38	O	1.332493	0.512330	0.364270
O39	O	1.582493	0.762330	0.614270
O40	O	1.832493	1.012330	0.864270
C41	C	0.921016	0.134532	-0.000009
C42	C	1.171016	0.384532	0.249991
C43	C	1.421016	0.634532	0.499991
C44	C	1.671016	0.884532	0.749991
C45	C	0.818635	0.132536	-0.000009
C46	C	1.068635	0.382536	0.249991
C47	C	1.318635	0.632536	0.499991
C48	C	1.568635	0.882536	0.749991
C49	C	1.096067	-0.040507	0.000006
C50	C	1.346067	0.209493	0.250006
C51	C	1.596067	0.459493	0.500006
C52	C	1.846067	0.709493	0.750006
C53	C	1.094079	-0.142889	0.000006
C54	C	1.344079	0.107111	0.250006
C55	C	1.594079	0.357111	0.500006
C56	C	1.844079	0.607111	0.750006
C57	C	0.735491	0.130915	-0.000015
C58	C	0.985491	0.380915	0.249985
C59	C	1.235491	0.630915	0.499985
C60	C	1.485491	0.880915	0.749985
C61	C	0.631182	0.128888	-0.000015
C62	C	0.881182	0.378888	0.249985
C63	C	1.131182	0.628888	0.499985
C64	C	1.381182	0.878888	0.749985
C65	C	0.548043	0.127280	-0.000015
C66	C	0.798043	0.377280	0.249985
C67	C	1.048043	0.627280	0.499985
C68	C	1.298043	0.877280	0.749985
C69	C	0.443728	0.125253	-0.000017
C70	C	0.693728	0.375253	0.249983
C71	C	0.943728	0.625253	0.499983
C72	C	1.193728	0.875253	0.749983
C73	C	1.086759	-0.517785	-0.000029
C74	C	1.336759	-0.267785	0.249971
C75	C	1.586759	-0.017785	0.499971
C76	C	1.836759	0.232215	0.749971
C77	C	1.088792	-0.413477	-0.000019
C78	C	1.338792	-0.163477	0.249981
C79	C	1.588792	0.086523	0.499981
C80	C	1.838792	0.336523	0.749981
C81	C	1.090419	-0.330340	-0.000010
C82	C	1.340419	-0.080340	0.249990
C83	C	1.590419	0.169660	0.499990
C84	C	1.840419	0.419660	0.749990
C85	C	1.092452	-0.226025	-0.000002
C86	C	1.342452	0.023975	0.249998
C87	C	1.592452	0.273975	0.499998
C88	C	1.842452	0.523975	0.749998
C89	C	1.258209	0.121649	-0.000009
C90	C	1.508209	0.371649	0.249991
C91	C	1.758209	0.621649	0.499991
C92	C	2.008209	0.871649	0.749991
C93	C	1.360589	0.123645	-0.000017
C94	C	1.610589	0.373645	0.249983
C95	C	1.860589	0.623645	0.499983
C96	C	2.110589	0.873645	0.749983
C97	C	1.083157	0.296688	-0.000023
C98	C	1.333157	0.546688	0.249977
C99	C	1.583157	0.796688	0.499977
C100	C	1.833157	1.046688	0.749977
C101	C	1.085146	0.399070	-0.000033
C102	C	1.335146	0.649070	0.249967
C103	C	1.585146	0.899070	0.499967
C104	C	1.835146	1.149070	0.749967
N105	N	1.089616	0.128096	0.356111
N106	N	1.339616	0.378096	0.606111
N107	N	1.589616	0.628096	0.856111
N108	N	1.839616	0.878096	1.106111
N109	N	1.089615	0.128078	-0.356125
N110	N	1.339615	0.378078	-0.106125
N111	N	1.589615	0.628078	0.143875
N112	N	1.839615	0.878078	0.393875
C113	C	1.152224	0.065529	0.428043
C114	C	1.402224	0.315529	0.678043
C115	C	1.652224	0.565529	0.928043
C116	C	1.902224	0.815529	1.178043
C117	C	1.152222	0.065518	0.571926
C118	C	1.402222	0.315518	0.821926
C119	C	1.652222	0.565518	1.071926
C120	C	1.902222	0.815518	1.321926
C121	C	1.027000	0.190648	0.571932
C122	C	1.277000	0.440648	0.821932
C123	C	1.527000	0.690648	1.071932
C124	C	1.777000	0.940648	1.321932
C125	C	1.026999	0.190654	0.428052
C126	C	1.276999	0.440654	0.678052
C127	C	1.526999	0.690654	0.928052
C128	C	1.776999	0.940654	1.178052
C129	C	1.224523	-0.006712	0.428041
C130	C	1.474523	0.243288	0.678041
C131	C	1.724523	0.493288	0.928041
C132	C	1.974523	0.743288	1.178041
C133	C	1.224521	-0.006723	0.571924
C134	C	1.474521	0.243277	0.821924
C135	C	1.724521	0.493277	1.071924
C136	C	1.974521	0.743277	1.321924
H137	H	0.976019	0.241581	0.630522
H138	H	1.226019	0.491581	0.880522
H139	H	1.476019	0.741581	1.130522
H140	H	1.726019	0.991581	1.380522
H141	H	1.209277	-0.077491	0.388993
H142	H	1.459277	0.172509	0.638993
H143	H	1.709277	0.422509	0.888993
H144	H	1.959277	0.672509	1.138993
H145	H	1.291325	0.015283	0.383413
H146	H	1.541325	0.265283	0.633413
H147	H	1.791325	0.515283	0.883413
H148	H	2.041325	0.765283	1.133413
H149	H	1.202586	-0.073556	0.616545
H150	H	1.452586	0.176444	0.866545
H151	H	1.702586	0.426444	1.116545
H152	H	1.952586	0.676444	1.366545
H153	H	1.295282	0.008584	0.610974
H154	H	1.545282	0.258584	0.860974
H155	H	1.795282	0.508584	1.110974
H156	H	2.045282	0.758584	1.360974
H157	H	0.976011	0.241593	0.369486
H158	H	1.226011	0.491593	0.619486
H159	H	1.476011	0.741593	0.869486
H160	H	1.726011	0.991593	1.119486
