data_functionalizedCrystal
_audit_creation_method	'MofGen! by Chris Wilmer'
_symmetry_space_group_name_H-M	'P1'
_symmetry_Int_Tables_number	1
_symmetry_cell_setting	triclinic
loop_
_symmetry_equiv_pos_as_xyz
  x,y,z
_cell_length_a	19.077312
_cell_length_b	14.909042
_cell_length_c	19.076919
_cell_angle_alpha	90.890210
_cell_angle_beta	85.331053
_cell_angle_gamma	84.564347
loop_
_atom_site_label
_atom_site_type_symbol
_atom_site_fract_x
_atom_site_fract_y
_atom_site_fract_z
Zn1	Zn	1.081956	-0.432047	0.335033
Zn2	Zn	1.331956	-0.182047	0.585033
Zn3	Zn	1.581956	0.067953	0.835033
Zn4	Zn	1.831956	0.317953	1.085033
Zn5	Zn	1.093427	-0.577079	0.210359
Zn6	Zn	1.343427	-0.327079	0.460359
Zn7	Zn	1.593427	-0.077079	0.710359
Zn8	Zn	1.843427	0.172921	0.960359
Zn9	Zn	0.968268	-0.420430	0.222445
Zn10	Zn	1.218268	-0.170430	0.472445
Zn11	Zn	1.468268	0.079570	0.722445
Zn12	Zn	1.718268	0.329570	0.972445
Zn13	Zn	0.970857	-0.577041	0.332943
Zn14	Zn	1.220857	-0.327041	0.582943
Zn15	Zn	1.470857	-0.077041	0.832943
Zn16	Zn	1.720857	0.172959	1.082943
O17	O	1.028627	-0.501649	0.275195
O18	O	1.278627	-0.251649	0.525195
O19	O	1.528627	-0.001649	0.775195
O20	O	1.778627	0.248351	1.025195
O21	O	1.182353	-0.456163	0.314311
O22	O	1.432353	-0.206163	0.564311
O23	O	1.682353	0.043837	0.814311
O24	O	1.932353	0.293837	1.064311
O25	O	1.080542	-0.551452	0.113541
O26	O	1.330542	-0.301452	0.363541
O27	O	1.580542	-0.051452	0.613541
O28	O	1.830542	0.198548	0.863541
O29	O	0.977465	-0.295732	0.243312
O30	O	1.227465	-0.045732	0.493312
O31	O	1.477465	0.204268	0.743312
O32	O	1.727465	0.454268	0.993312
O33	O	1.190781	-0.562717	0.222714
O34	O	1.440781	-0.312717	0.472714
O35	O	1.690781	-0.062717	0.722714
O36	O	1.940781	0.187283	0.972714
O37	O	1.060991	-0.304267	0.326030
O38	O	1.310991	-0.054267	0.576030
O39	O	1.560991	0.195733	0.826030
O40	O	1.810991	0.445733	1.076030
O41	O	0.988588	-0.436363	0.122421
O42	O	1.238588	-0.186363	0.372421
O43	O	1.488588	0.063637	0.622421
O44	O	1.738588	0.313637	0.872421
O45	O	0.869736	-0.436327	0.241286
O46	O	1.119736	-0.186327	0.491286
O47	O	1.369736	0.063673	0.741286
O48	O	1.619736	0.313673	0.991286
O49	O	0.981877	-0.562654	0.431641
O50	O	1.231877	-0.312654	0.681641
O51	O	1.481877	-0.062654	0.931641
O52	O	1.731877	0.187346	1.181641
O53	O	0.871638	-0.551389	0.322469
O54	O	1.121638	-0.301389	0.572469
O55	O	1.371638	-0.051389	0.822469
O56	O	1.621638	0.198611	1.072469
O57	O	1.063502	-0.456127	0.433176
O58	O	1.313502	-0.206127	0.683176
O59	O	1.563502	0.043873	0.933176
O60	O	1.813502	0.293873	1.183176
O61	O	1.083052	-0.703313	0.220688
O62	O	1.333052	-0.453313	0.470688
O63	O	1.583052	-0.203313	0.720688
O64	O	1.833052	0.046687	0.970688
O65	O	0.993000	-0.703285	0.310750
O66	O	1.243000	-0.453285	0.560750
O67	O	1.493000	-0.203285	0.810750
O68	O	1.743000	0.046715	1.060750
C69	C	0.845050	-0.492594	0.282963
C70	C	1.095050	-0.242594	0.532963
C71	C	1.345050	0.007406	0.782963
C72	C	1.595050	0.257406	1.032963
C73	C	0.766515	-0.488743	0.286301
C74	C	1.016515	-0.238743	0.536301
C75	C	1.266515	0.011257	0.786301
C76	C	1.516515	0.261257	1.036301
C77	C	0.323974	-0.461049	0.310258
C78	C	0.573974	-0.211049	0.560258
C79	C	0.823974	0.038951	0.810258
C80	C	1.073974	0.288951	1.060258
C81	C	0.397766	-0.464684	0.307116
C82	C	0.647766	-0.214684	0.557116
C83	C	0.897766	0.035316	0.807116
C84	C	1.147766	0.285316	1.057116
C85	C	0.439040	-0.521880	0.257787
C86	C	0.689040	-0.271880	0.507787
C87	C	0.939040	-0.021880	0.757787
C88	C	1.189040	0.228120	1.007787
C89	C	0.406517	-0.575452	0.211601
C90	C	0.656517	-0.325452	0.461601
C91	C	0.906517	-0.075452	0.711601
C92	C	1.156517	0.174548	0.961601
C93	C	0.332726	-0.571820	0.214747
C94	C	0.582726	-0.321820	0.464747
C95	C	0.832726	-0.071820	0.714747
C96	C	1.082726	0.178180	0.964747
C97	C	0.660202	-0.538683	0.243261
C98	C	0.910202	-0.288683	0.493261
C99	C	1.160202	-0.038683	0.743261
C100	C	1.410202	0.211317	0.993261
C101	C	0.733998	-0.542308	0.240118
C102	C	0.983998	-0.292308	0.490118
C103	C	1.233998	-0.042308	0.740118
C104	C	1.483998	0.207692	0.990118
C105	C	0.725242	-0.431541	0.335634
C106	C	0.975242	-0.181541	0.585634
C107	C	1.225242	0.068459	0.835634
C108	C	1.475242	0.318459	1.085634
C109	C	0.651449	-0.427911	0.338772
C110	C	0.901449	-0.177911	0.588772
C111	C	1.151449	0.072089	0.838772
C112	C	1.401449	0.322089	1.088772
C113	C	0.618933	-0.481486	0.292589
C114	C	0.868933	-0.231486	0.542589
C115	C	1.118933	0.018514	0.792589
C116	C	1.368933	0.268514	1.042589
N117	N	0.514468	-0.525595	0.254573
N118	N	0.764468	-0.275595	0.504573
N119	N	1.014468	-0.025595	0.754573
N120	N	1.264468	0.224405	1.004573
N121	N	0.543507	-0.477775	0.295807
N122	N	0.793507	-0.227775	0.545807
N123	N	1.043507	0.022225	0.795807
N124	N	1.293507	0.272225	1.045807
C125	C	1.039571	-0.736033	0.264195
C126	C	1.289571	-0.486033	0.514195
C127	C	1.539571	-0.236033	0.764195
C128	C	1.789571	0.013967	1.014195
C129	C	1.044316	-0.836308	0.259510
C130	C	1.294316	-0.586308	0.509510
C131	C	1.544316	-0.336308	0.759510
C132	C	1.794316	-0.086308	1.009510
C133	C	0.959378	-1.024763	0.344414
C134	C	1.209378	-0.774763	0.594414
C135	C	1.459378	-0.524763	0.844414
C136	C	1.709378	-0.274763	1.094414
C137	C	0.963835	-1.118980	0.340015
C138	C	1.213835	-0.868980	0.590015
C139	C	1.463835	-0.618980	0.840015
C140	C	1.713835	-0.368980	1.090015
C141	C	1.057682	-1.118960	0.246309
C142	C	1.307682	-0.868960	0.496309
C143	C	1.557682	-0.618960	0.746309
C144	C	1.807682	-0.368960	0.996309
C145	C	1.053225	-1.024743	0.250708
C146	C	1.303225	-0.774743	0.500708
C147	C	1.553225	-0.524743	0.750708
C148	C	1.803225	-0.274743	1.000708
C149	C	1.004073	-0.977648	0.299763
C150	C	1.254073	-0.727648	0.549763
C151	C	1.504073	-0.477648	0.799763
C152	C	1.754073	-0.227648	1.049763
C153	C	0.999620	-0.883429	0.304166
C154	C	1.249620	-0.633429	0.554166
C155	C	1.499620	-0.383429	0.804166
C156	C	1.749620	-0.133429	1.054166
C157	C	1.093463	-0.883411	0.210457
C158	C	1.343463	-0.633411	0.460457
C159	C	1.593463	-0.383411	0.710457
C160	C	1.843463	-0.133411	0.960457
C161	C	1.097919	-0.977628	0.206057
C162	C	1.347919	-0.727628	0.456057
C163	C	1.597919	-0.477628	0.706057
C164	C	1.847919	-0.227628	0.956057
C165	C	1.212921	-0.510740	0.267397
C166	C	1.462921	-0.260740	0.517397
C167	C	1.712921	-0.010740	0.767397
C168	C	1.962921	0.239260	1.017397
C169	C	1.291456	-0.514614	0.264074
C170	C	1.541456	-0.264614	0.514074
C171	C	1.791456	-0.014614	0.764074
C172	C	2.041456	0.235386	1.014074
C173	C	1.021699	-0.510682	0.458642
C174	C	1.271699	-0.260682	0.708642
C175	C	1.521699	-0.010682	0.958642
C176	C	1.771699	0.239318	1.208642
C177	C	1.018746	-0.514531	0.536816
C178	C	1.268746	-0.264531	0.786816
C179	C	1.518746	-0.014531	1.036816
C180	C	1.768746	0.235469	1.286816
C181	C	1.017659	-0.266352	0.286252
C182	C	1.267659	-0.016352	0.536252
C183	C	1.517659	0.233648	0.786252
C184	C	1.767659	0.483648	1.036252
C185	C	1.012986	-0.166082	0.290964
C186	C	1.262986	0.083918	0.540964
C187	C	1.512986	0.333918	0.790964
C188	C	1.762986	0.583918	1.040964
C189	C	1.035566	-0.492588	0.092463
C190	C	1.285566	-0.242588	0.342463
C191	C	1.535566	0.007412	0.592463
C192	C	1.785566	0.257412	0.842463
C193	C	1.038643	-0.488491	0.014296
C194	C	1.288643	-0.238491	0.264296
C195	C	1.538643	0.011509	0.514296
C196	C	1.788643	0.261509	0.764296
C197	C	1.059854	-0.460879	0.574343
C198	C	1.309854	-0.210879	0.824343
C199	C	1.559854	0.039121	1.074343
C200	C	1.809854	0.289121	1.324343
C201	C	1.057071	-0.464492	0.647796
C202	C	1.307071	-0.214492	0.897796
C203	C	1.557071	0.035508	1.147796
C204	C	1.807071	0.285508	1.397796
C205	C	1.013184	-0.521763	0.683721
C206	C	1.263184	-0.271763	0.933721
C207	C	1.513184	-0.021763	1.183721
C208	C	1.763184	0.228237	1.433721
C209	C	0.972071	-0.575417	0.646189
C210	C	1.222071	-0.325417	0.896189
C211	C	1.472071	-0.075417	1.146189
C212	C	1.722071	0.174583	1.396189
C213	C	0.974851	-0.571798	0.572737
C214	C	1.224851	-0.321798	0.822737
C215	C	1.474851	-0.071798	1.072737
C216	C	1.724851	0.178202	1.322737
C217	C	1.000310	-0.538527	0.903312
C218	C	1.250310	-0.288527	1.153312
C219	C	1.500310	-0.038527	1.403312
C220	C	1.750310	0.211473	1.653312
C221	C	0.997535	-0.542143	0.976769
C222	C	1.247535	-0.292143	1.226769
C223	C	1.497535	-0.042143	1.476769
C224	C	1.747535	0.207857	1.726769
C225	C	1.082535	-0.431217	0.978371
C226	C	1.332535	-0.181217	1.228371
C227	C	1.582535	0.068783	1.478371
C228	C	1.832535	0.318783	1.728371
C229	C	1.085314	-0.427608	0.904917
C230	C	1.335314	-0.177608	1.154917
C231	C	1.585314	0.072392	1.404917
C232	C	1.835314	0.322392	1.654917
C233	C	1.044198	-0.481259	0.867392
C234	C	1.294198	-0.231259	1.117392
C235	C	1.544198	0.018741	1.367392
C236	C	1.794198	0.268741	1.617392
N237	N	1.010340	-0.525459	0.758802
N238	N	1.260340	-0.275459	1.008802
N239	N	1.510340	-0.025459	1.258802
N240	N	1.760340	0.224541	1.508802
N241	N	1.047039	-0.477557	0.792313
N242	N	1.297039	-0.227557	1.042313
N243	N	1.547039	0.022443	1.292313
N244	N	1.797039	0.272443	1.542313
H245	H	0.633736	-0.582305	0.205654
H246	H	0.883736	-0.332305	0.455654
H247	H	1.133736	-0.082305	0.705654
H248	H	1.383736	0.167695	0.955654
H249	H	0.919361	-0.986417	0.384361
H250	H	1.169361	-0.736417	0.634361
H251	H	1.419361	-0.486417	0.884361
H252	H	1.669361	-0.236417	1.134361
H253	H	1.129858	-0.845040	0.174101
H254	H	1.379858	-0.595040	0.424101
H255	H	1.629858	-0.345040	0.674101
H256	H	1.879858	-0.095040	0.924101
H257	H	1.121054	-0.380975	0.875672
H258	H	1.371054	-0.130975	1.125672
H259	H	1.621054	0.119025	1.375672
H260	H	1.871054	0.369025	1.625672
H261	H	1.095595	-0.414247	0.545098
H262	H	1.345595	-0.164247	0.795098
H263	H	1.595595	0.085753	1.045098
H264	H	1.845595	0.335753	1.295098
H265	H	0.927442	-1.157337	0.376376
H266	H	1.177442	-0.907337	0.626376
H267	H	1.427442	-0.657337	0.876376
H268	H	1.677442	-0.407337	1.126376
H269	H	0.424239	-0.421069	0.344726
H270	H	0.674239	-0.171069	0.594726
H271	H	0.924239	0.078931	0.844726
H272	H	1.174239	0.328931	1.094726
H273	H	0.290374	-0.414468	0.350423
H274	H	0.540374	-0.164468	0.600423
H275	H	0.790374	0.085532	0.850423
H276	H	1.040374	0.335532	1.100423
H277	H	1.137936	-1.015986	0.166116
H278	H	1.387936	-0.765986	0.416116
H279	H	1.637936	-0.515986	0.666116
H280	H	1.887936	-0.265986	0.916116
H281	H	1.090548	-0.420806	0.678347
H282	H	1.340548	-0.170806	0.928347
H283	H	1.590548	0.079194	1.178347
H284	H	1.840548	0.329194	1.428347
H285	H	0.941368	-0.615478	0.542185
H286	H	1.191368	-0.365478	0.792185
H287	H	1.441368	-0.115478	1.042185
H288	H	1.691368	0.134522	1.292185
H289	H	1.097693	-1.157321	0.206364
H290	H	1.347693	-0.907321	0.456364
H291	H	1.597693	-0.657321	0.706364
H292	H	1.847693	-0.407321	0.956364
H293	H	0.959599	-0.845085	0.344110
H294	H	1.209599	-0.595085	0.594110
H295	H	1.459599	-0.345085	0.844110
H296	H	1.709599	-0.095085	1.094110
H297	H	1.116008	-0.387537	1.008932
H298	H	1.366008	-0.137537	1.258932
H299	H	1.616008	0.112463	1.508932
H300	H	1.866008	0.362463	1.758932
H301	H	0.961795	-0.588782	1.006017
H302	H	1.211795	-0.338782	1.256017
H303	H	1.461795	-0.088782	1.506017
H304	H	1.711795	0.161218	1.756017
H305	H	0.966842	-0.582227	0.872767
H306	H	1.216842	-0.332227	1.122767
H307	H	1.466842	-0.082227	1.372767
H308	H	1.716842	0.167773	1.622767
H309	H	0.751724	-0.387925	0.373234
H310	H	1.001724	-0.137925	0.623234
H311	H	1.251724	0.112075	0.873234
H312	H	1.501724	0.362075	1.123234
H313	H	0.936334	-0.622044	0.675445
H314	H	1.186334	-0.372044	0.925445
H315	H	1.436334	-0.122044	1.175445
H316	H	1.686334	0.127956	1.425445
H317	H	0.306251	-0.615441	0.177141
H318	H	0.556251	-0.365441	0.427141
H319	H	0.806251	-0.115441	0.677141
H320	H	1.056251	0.134559	0.927141
H321	H	0.617849	-0.381340	0.378944
H322	H	0.867849	-0.131340	0.628944
H323	H	1.117849	0.118660	0.878944
H324	H	1.367849	0.368660	1.128944
H325	H	0.440128	-0.622026	0.171439
H326	H	0.690128	-0.372026	0.421439
H327	H	0.940128	-0.122026	0.671439
H328	H	1.190128	0.127974	0.921439
H329	H	0.767601	-0.588887	0.199946
H330	H	1.017601	-0.338887	0.449946
H331	H	1.267601	-0.088887	0.699946
H332	H	1.517601	0.161113	0.949946
