data_functionalizedCrystal
_audit_creation_method	'MofGen! by Chris Wilmer'
_symmetry_space_group_name_H-M	'P1'
_symmetry_Int_Tables_number	1
_symmetry_cell_setting	triclinic
loop_
_symmetry_equiv_pos_as_xyz
  x,y,z
_cell_length_a	12.827893
_cell_length_b	16.120444
_cell_length_c	12.827885
_cell_angle_alpha	92.864671
_cell_angle_beta	89.980728
_cell_angle_gamma	92.926656
loop_
_atom_site_label
_atom_site_type_symbol
_atom_site_fract_x
_atom_site_fract_y
_atom_site_fract_z
Zn1	Zn	1.576496	-0.331863	-0.611900
Zn2	Zn	1.826496	-0.081863	-0.361900
Zn3	Zn	2.076496	0.168137	-0.111900
Zn4	Zn	2.326496	0.418137	0.138100
Zn5	Zn	1.567494	-0.471299	-0.446006
Zn6	Zn	1.817494	-0.221299	-0.196006
Zn7	Zn	2.067494	0.028701	0.053994
Zn8	Zn	2.317494	0.278701	0.303994
Zn9	Zn	1.401735	-0.331905	-0.437177
Zn10	Zn	1.651735	-0.081905	-0.187177
Zn11	Zn	1.901735	0.168095	0.062823
Zn12	Zn	2.151735	0.418095	0.312823
Zn13	Zn	1.392831	-0.471238	-0.620702
Zn14	Zn	1.642831	-0.221238	-0.370702
Zn15	Zn	1.892831	0.028762	-0.120702
Zn16	Zn	2.142831	0.278762	0.129298
O17	O	1.484639	-0.401576	-0.528946
O18	O	1.734639	-0.151576	-0.278946
O19	O	1.984639	0.098424	-0.028946
O20	O	2.234639	0.348424	0.221054
O21	O	1.721538	-0.350369	-0.589906
O22	O	1.971538	-0.100369	-0.339906
O23	O	2.221538	0.149631	-0.089906
O24	O	2.471538	0.399631	0.160094
O25	O	1.545465	-0.452851	-0.298601
O26	O	1.795465	-0.202851	-0.048601
O27	O	2.045465	0.047149	0.201399
O28	O	2.295465	0.297149	0.451399
O29	O	1.432411	-0.215233	-0.452976
O30	O	1.682411	0.034767	-0.202976
O31	O	1.932411	0.284767	0.047024
O32	O	2.182411	0.534767	0.297024
O33	O	1.714924	-0.452811	-0.468024
O34	O	1.964924	-0.202811	-0.218024
O35	O	2.214924	0.047189	0.031976
O36	O	2.464924	0.297189	0.281976
O37	O	1.560808	-0.215203	-0.581344
O38	O	1.810808	0.034797	-0.331344
O39	O	2.060808	0.284797	-0.081344
O40	O	2.310808	0.534797	0.168656
O41	O	1.423683	-0.350438	-0.292114
O42	O	1.673683	-0.100438	-0.042114
O43	O	1.923683	0.149562	0.207886
O44	O	2.173683	0.399562	0.457886
O45	O	1.254319	-0.350379	-0.461510
O46	O	1.504319	-0.100379	-0.211510
O47	O	1.754319	0.149621	0.038490
O48	O	2.004319	0.399621	0.288490
O49	O	1.417235	-0.452706	-0.765768
O50	O	1.667235	-0.202706	-0.515768
O51	O	1.917235	0.047294	-0.265768
O52	O	2.167235	0.297294	-0.015768
O53	O	1.247777	-0.452746	-0.596345
O54	O	1.497777	-0.202746	-0.346345
O55	O	1.747777	0.047254	-0.096345
O56	O	1.997777	0.297254	0.153655
O57	O	1.552174	-0.350309	-0.759301
O58	O	1.802174	-0.100309	-0.509301
O59	O	2.052174	0.149691	-0.259301
O60	O	2.302174	0.399691	-0.009301
O61	O	1.536831	-0.587957	-0.476558
O62	O	1.786831	-0.337957	-0.226558
O63	O	2.036831	-0.087957	0.023442
O64	O	2.286831	0.162043	0.273442
O65	O	1.408506	-0.587912	-0.604907
O66	O	1.658506	-0.337912	-0.354907
O67	O	1.908506	-0.087912	-0.104907
O68	O	2.158506	0.162088	0.145093
C69	C	1.213130	-0.401561	-0.528925
C70	C	1.463130	-0.151561	-0.278925
C71	C	1.713130	0.098439	-0.028925
C72	C	1.963130	0.348439	0.221075
C73	C	1.096976	-0.401574	-0.528942
C74	C	1.346976	-0.151574	-0.278942
C75	C	1.596976	0.098426	-0.028942
C76	C	1.846976	0.348426	0.221058
C77	C	1.048458	-0.350972	-0.589358
C78	C	1.298458	-0.100972	-0.339358
C79	C	1.548458	0.149028	-0.089358
C80	C	1.798458	0.399028	0.160642
C81	C	0.928407	-0.350985	-0.589377
C82	C	1.178407	-0.100985	-0.339377
C83	C	1.428407	0.149015	-0.089377
C84	C	1.678407	0.399015	0.160623
C85	C	1.470754	-0.618184	-0.542668
C86	C	1.720754	-0.368184	-0.292668
C87	C	1.970754	-0.118184	-0.042668
C88	C	2.220754	0.131816	0.207332
C89	C	1.464909	-0.710850	-0.548574
C90	C	1.714909	-0.460850	-0.298574
C91	C	1.964909	-0.210850	-0.048574
C92	C	2.214909	0.039150	0.201426
C93	C	1.515214	-0.921795	-0.498537
C94	C	1.765214	-0.671795	-0.248537
C95	C	2.015214	-0.421795	0.001463
C96	C	2.265214	-0.171795	0.251463
C97	C	1.454258	-0.880507	-0.559366
C98	C	1.704258	-0.630507	-0.309366
C99	C	1.954258	-0.380507	-0.059366
C100	C	2.204258	-0.130507	0.190634
C101	C	1.460186	-0.786101	-0.553359
C102	C	1.710186	-0.536101	-0.303359
C103	C	1.960186	-0.286101	-0.053359
C104	C	2.210186	-0.036101	0.196641
C105	C	1.509287	-1.016209	-0.504542
C106	C	1.759287	-0.766209	-0.254542
C107	C	2.009287	-0.516209	-0.004542
C108	C	2.259287	-0.266209	0.245458
C109	C	1.757208	-0.401592	-0.528968
C110	C	2.007208	-0.151592	-0.278968
C111	C	2.257208	0.098408	-0.028968
C112	C	2.507208	0.348408	0.221032
C113	C	1.873361	-0.401599	-0.528977
C114	C	2.123361	-0.151599	-0.278977
C115	C	2.373361	0.098401	-0.028977
C116	C	2.623361	0.348401	0.221023
C117	C	1.484715	-0.401496	-0.801511
C118	C	1.734715	-0.151496	-0.551511
C119	C	1.984715	0.098504	-0.301511
C120	C	2.234715	0.348504	-0.051511
C121	C	1.484748	-0.401462	-0.917663
C122	C	1.734748	-0.151462	-0.667663
C123	C	1.984748	0.098538	-0.417663
C124	C	2.234748	0.348538	-0.167663
C125	C	1.498607	-0.184122	-0.515193
C126	C	1.748607	0.065878	-0.265193
C127	C	1.998607	0.315878	-0.015193
C128	C	2.248607	0.565878	0.234807
C129	C	1.504559	-0.091456	-0.509333
C130	C	1.754559	0.158544	-0.259333
C131	C	2.004559	0.408544	-0.009333
C132	C	2.254559	0.658544	0.240667
C133	C	1.551527	-0.350783	-0.966247
C134	C	1.801527	-0.100783	-0.716247
C135	C	2.051527	0.149217	-0.466247
C136	C	2.301527	0.399217	-0.216247
C137	C	1.551562	-0.350746	-1.086295
C138	C	1.801562	-0.100746	-0.836295
C139	C	2.051562	0.149254	-0.586295
C140	C	2.301562	0.399254	-0.336295
C141	C	1.484627	-0.401596	-0.257438
C142	C	1.734627	-0.151596	-0.007438
C143	C	1.984627	0.098404	0.242562
C144	C	2.234627	0.348404	0.492562
C145	C	1.484812	-0.401395	-0.141272
C146	C	1.734812	-0.151395	0.108728
C147	C	1.984812	0.098605	0.358728
C148	C	2.234812	0.348605	0.608728
H149	H	0.886670	-0.307666	-0.641105
H150	H	1.136670	-0.057666	-0.391105
H151	H	1.386670	0.192334	-0.141105
H152	H	1.636670	0.442334	0.108895
H153	H	1.427641	-0.444789	-1.099486
H154	H	1.677641	-0.194789	-0.849486
H155	H	1.927641	0.055211	-0.599486
H156	H	2.177641	0.305211	-0.349486
F157	F	1.380225	-0.926975	-0.633330
F158	F	1.630225	-0.676975	-0.383330
F159	F	1.880225	-0.426975	-0.133330
F160	F	2.130225	-0.176975	0.116670
H161	H	1.571847	-0.886246	-0.441951
H162	H	1.821847	-0.636246	-0.191951
H163	H	2.071847	-0.386246	0.058049
H164	H	2.321847	-0.136246	0.308049
H165	H	1.608670	-0.307418	-0.918966
H166	H	1.858670	-0.057418	-0.668966
H167	H	2.108670	0.192582	-0.418966
H168	H	2.358670	0.442582	-0.168966
F169	F	1.110329	-0.294330	-0.656946
F170	F	1.360329	-0.044330	-0.406946
F171	F	1.610329	0.205670	-0.156946
F172	F	1.860329	0.455670	0.093054
H173	H	1.427595	-0.444818	-0.964942
H174	H	1.677595	-0.194818	-0.714942
H175	H	1.927595	0.055182	-0.464942
H176	H	2.177595	0.305182	-0.214942
H177	H	1.608738	-0.307360	-1.128089
H178	H	1.858738	-0.057360	-0.878089
H179	H	2.108738	0.192640	-0.628089
H180	H	2.358738	0.442640	-0.378089
H181	H	1.049637	-0.444904	-0.477230
H182	H	1.299637	-0.194904	-0.227230
H183	H	1.549637	0.055096	0.022770
H184	H	1.799637	0.305096	0.272770
F185	F	0.927903	-0.458233	-0.461370
F186	F	1.177903	-0.208233	-0.211370
F187	F	1.427903	0.041767	0.038630
F188	F	1.677903	0.291767	0.288630
