data_functionalizedCrystal
_audit_creation_method	'MofGen! by Chris Wilmer'
_symmetry_space_group_name_H-M	'P1'
_symmetry_Int_Tables_number	1
_symmetry_cell_setting	triclinic
loop_
_symmetry_equiv_pos_as_xyz
  x,y,z
_cell_length_a	17.640280
_cell_length_b	19.805407
_cell_length_c	19.805399
_cell_angle_alpha	89.980427
_cell_angle_beta	101.223110
_cell_angle_gamma	101.199888
loop_
_atom_site_label
_atom_site_type_symbol
_atom_site_fract_x
_atom_site_fract_y
_atom_site_fract_z
Zn1	Zn	-0.314680	-1.089281	0.328317
Zn2	Zn	0.185320	-0.589281	0.828317
Zn3	Zn	-0.446853	-1.112106	0.192279
Zn4	Zn	0.053147	-0.612106	0.692279
Zn5	Zn	-0.314701	-0.976099	0.215138
Zn6	Zn	0.185299	-0.476099	0.715138
Zn7	Zn	-0.446811	-0.998962	0.305433
Zn8	Zn	0.053189	-0.498962	0.805433
O9	O	-0.380761	-1.044112	0.260292
O10	O	0.119239	-0.544112	0.760292
O11	O	-0.332221	-1.187026	0.310282
O12	O	0.167779	-0.687026	0.810282
O13	O	-0.429350	-1.094048	0.100590
O14	O	0.070650	-0.594048	0.600590
O15	O	-0.204095	-0.971992	0.249296
O16	O	0.295905	-0.471992	0.749296
O17	O	-0.429329	-1.203796	0.210335
O18	O	0.070671	-0.703796	0.710335
O19	O	-0.204079	-1.055146	0.332448
O20	O	0.295921	-0.555146	0.832448
O21	O	-0.332258	-0.994125	0.117385
O22	O	0.167742	-0.494125	0.617385
O23	O	-0.332218	-0.884414	0.227105
O24	O	0.167782	-0.384414	0.727105
O25	O	-0.429257	-1.010958	0.403190
O26	O	0.070743	-0.510958	0.903190
O27	O	-0.429278	-0.901211	0.293444
O28	O	0.070722	-0.401211	0.793444
O29	O	-0.332180	-1.077315	0.420003
O30	O	0.167820	-0.577315	0.920003
O31	O	-0.557452	-1.116217	0.188145
O32	O	-0.057452	-0.616217	0.688145
O33	O	-0.557421	-1.033091	0.271278
O34	O	-0.057421	-0.533091	0.771278
C35	C	-0.380746	-0.868253	0.260272
C36	C	0.119254	-0.368253	0.760272
C37	C	-0.380759	-0.793023	0.260277
C38	C	0.119241	-0.293023	0.760277
C39	C	-0.586114	-1.079630	0.224762
C40	C	-0.086114	-0.579630	0.724762
C41	C	-0.673965	-1.094887	0.209586
C42	C	-0.173965	-0.594887	0.709586
C43	C	-0.380712	-1.044141	0.436843
C44	C	0.119288	-0.544141	0.936843
C45	C	-0.380690	-1.044154	0.512079
C46	C	0.119310	-0.544154	1.012079
C47	C	-0.962953	-0.928484	0.375835
C48	C	-0.462953	-0.428484	0.875835
C49	C	-1.045502	-0.942822	0.361553
C50	C	-0.545502	-0.442822	0.861553
C51	C	-1.045469	-1.029435	0.275073
C52	C	-0.545469	-0.529435	0.775073
C53	C	-0.962918	-1.015107	0.289351
C54	C	-0.462918	-0.515107	0.789351
C55	C	-0.921667	-0.964630	0.339732
C56	C	-0.421667	-0.464630	0.839732
C57	C	-0.921632	-1.051253	0.253247
C58	C	-0.421632	-0.551253	0.753247
C59	C	-0.839088	-1.036924	0.267522
C60	C	-0.339088	-0.536924	0.767522
C61	C	-0.797831	-0.986448	0.317899
C62	C	-0.297831	-0.486448	0.817899
C63	C	-0.839123	-0.950301	0.354006
C64	C	-0.339123	-0.450301	0.854006
C65	C	-0.962885	-1.101726	0.202863
C66	C	-0.462885	-0.601726	0.702863
C67	C	-0.921598	-1.137872	0.166760
C68	C	-0.421598	-0.637872	0.666760
C69	C	-0.839053	-1.123546	0.181037
C70	C	-0.339053	-0.623546	0.681037
C71	C	-0.797796	-1.073071	0.231415
C72	C	-0.297796	-0.573071	0.731415
C73	C	-0.797761	-1.159693	0.144930
C74	C	-0.297761	-0.659693	0.644930
C75	C	-0.715217	-1.145364	0.159204
C76	C	-0.215217	-0.645364	0.659204
C77	C	-0.715252	-1.058741	0.245689
C78	C	-0.215252	-0.558741	0.745689
C79	C	-0.174606	-1.008473	0.295974
C80	C	0.325394	-0.508473	0.795974
C81	C	-0.086756	-0.993286	0.311180
C82	C	0.413244	-0.493286	0.811180
C83	C	-0.380777	-1.220657	0.260311
C84	C	0.119223	-0.720657	0.760311
C85	C	-0.380784	-1.295890	0.260320
C86	C	0.119216	-0.795890	0.760320
C87	C	-0.431374	-0.766456	0.294736
C88	C	0.068626	-0.266456	0.794736
C89	C	-0.431376	-0.695768	0.294746
C90	C	0.068624	-0.195768	0.794746
C91	C	-0.380765	-0.651649	0.260291
C92	C	0.119235	-0.151649	0.760291
C93	C	-0.330144	-0.678220	0.225831
C94	C	0.169856	-0.178220	0.725831
C95	C	-0.330139	-0.748906	0.225826
C96	C	0.169861	-0.248906	0.725826
C97	C	-0.330161	-0.393149	0.225850
C98	C	0.169839	0.106851	0.725850
C99	C	-0.330172	-0.322459	0.225856
C100	C	0.169828	0.177541	0.725856
C101	C	-0.431398	-0.340012	0.294770
C102	C	0.068602	0.159988	0.794770
C103	C	-0.431393	-0.410698	0.294765
C104	C	0.068607	0.089302	0.794765
C105	C	-0.380770	-0.437262	0.260308
C106	C	0.119230	0.062738	0.760308
C107	C	-0.380768	-0.513910	0.260299
C108	C	0.119232	-0.013910	0.760299
C109	C	-0.380770	-0.575003	0.260295
C110	C	0.119230	-0.075003	0.760295
C111	C	-0.380754	-1.044112	0.084437
C112	C	0.119246	-0.544112	0.584437
C113	C	-0.380553	-1.044192	0.009240
C114	C	0.119447	-0.544192	0.509240
C115	C	-0.330140	-1.078706	0.556179
C116	C	0.169860	-0.578706	1.056179
C117	C	-0.330117	-1.078709	0.626872
C118	C	0.169883	-0.578709	1.126872
C119	C	-0.380649	-1.044163	0.653462
C120	C	0.119351	-0.544163	1.153462
C121	C	-0.431202	-1.009606	0.609356
C122	C	0.068798	-0.509606	1.109356
C123	C	-0.431220	-1.009600	0.538666
C124	C	0.068780	-0.509600	1.038666
C125	C	-0.431128	-1.009632	0.894442
C126	C	0.068872	-0.509632	1.394442
C127	C	-0.431107	-1.009643	0.965138
C128	C	0.068893	-0.509643	1.465138
C129	C	-0.330025	-1.078741	0.982648
C130	C	0.169975	-0.578741	1.482648
C131	C	-0.330043	-1.078735	0.911958
C132	C	0.169957	-0.578735	1.411958
C133	C	-0.380593	-1.044175	0.867859
C134	C	0.119407	-0.544175	1.367859
C135	C	-0.380616	-1.044171	0.791206
C136	C	0.119384	-0.544171	1.291206
C137	C	-0.380631	-1.044171	0.730112
C138	C	0.119369	-0.544171	1.230112
H139	H	-0.681663	-1.017643	0.286719
H140	H	-0.181663	-0.517643	0.786719
F141	F	-0.709979	-0.971319	0.333213
F142	F	-0.209979	-0.471319	0.833213
H143	H	-0.472593	-0.674141	0.322805
H144	H	0.027407	-0.174141	0.822805
H145	H	-0.831360	-1.200787	0.103905
H146	H	-0.331360	-0.700787	0.603905
H147	H	-0.288863	-1.106879	1.018563
H148	H	0.211137	-0.606879	1.518563
F149	F	-0.671274	-1.183830	0.120774
F150	F	-0.171274	-0.683830	0.620774
F151	F	-0.276342	-1.115513	0.673799
F152	F	0.223658	-0.615513	1.173799
H153	H	-0.472343	-0.981475	0.631011
H154	H	0.027657	-0.481475	1.131011
H155	H	-0.472615	-0.318374	0.322830
H156	H	0.027385	0.181626	0.822830
F157	F	-0.276281	-0.421412	0.189180
F158	F	0.223719	0.078588	0.689180
F159	F	-0.276275	-0.631262	0.189166
F160	F	0.223725	-0.131262	0.689166
F161	F	-0.485246	-0.813407	0.331405
F162	F	0.014754	-0.313407	0.831405
H163	H	-0.929364	-0.887386	0.416866
H164	H	-0.429364	-0.387386	0.916866
F165	F	-0.485263	-0.457650	0.331433
F166	F	0.014737	0.042350	0.831433
F167	F	-1.089440	-0.904339	0.399977
F168	F	-0.589440	-0.404339	0.899977
H169	H	-0.288918	-0.770534	0.197770
H170	H	0.211082	-0.270534	0.697770
F171	F	-1.089380	-1.083155	0.221456
F172	F	-0.589380	-0.583155	0.721456
H173	H	-1.030097	-1.113393	0.191244
H174	H	-0.530097	-0.613393	0.691244
F175	F	-0.965509	-1.191592	0.113143
F176	F	-0.465509	-0.691592	0.613143
F177	F	-0.276301	-0.275504	0.189183
F178	F	0.223699	0.224496	0.689183
H179	H	-0.288993	-1.106840	0.534535
H180	H	0.211007	-0.606840	1.034535
H181	H	-0.288898	-1.106868	0.890312
H182	H	0.211102	-0.606868	1.390312
H183	H	-0.472258	-0.981509	0.986784
H184	H	0.027742	-0.481509	1.486784
F185	F	-0.484927	-0.972850	0.847518
F186	F	0.015073	-0.472850	1.347518
F187	F	-0.485021	-0.972822	0.491731
F188	F	0.014979	-0.472822	0.991731
H189	H	-0.805534	-0.909202	0.395037
H190	H	-0.305534	-0.409202	0.895037
