data_functionalizedCrystal
_audit_creation_method	'MofGen! by Chris Wilmer'
_symmetry_space_group_name_H-M	'P1'
_symmetry_Int_Tables_number	1
_symmetry_cell_setting	triclinic
loop_
_symmetry_equiv_pos_as_xyz
  x,y,z
_cell_length_a	18.101398
_cell_length_b	25.639239
_cell_length_c	18.101390
_cell_angle_alpha	89.965145
_cell_angle_beta	89.977223
_cell_angle_gamma	90.033952
loop_
_atom_site_label
_atom_site_type_symbol
_atom_site_fract_x
_atom_site_fract_y
_atom_site_fract_z
Zn1	Zn	1.132071	-0.208197	-0.418828
Zn2	Zn	1.131954	-0.295641	-0.294982
Zn3	Zn	1.008233	-0.208214	-0.294989
Zn4	Zn	1.008164	-0.295596	-0.418771
O5	O	1.070105	-0.251912	-0.356893
O6	O	1.235688	-0.219808	-0.402421
O7	O	1.115522	-0.284069	-0.191350
O8	O	1.024738	-0.135046	-0.311444
O9	O	1.235602	-0.284053	-0.311432
O10	O	1.115721	-0.135034	-0.402428
O11	O	1.024625	-0.219837	-0.191356
O12	O	0.904591	-0.219794	-0.311388
O13	O	1.024621	-0.283977	-0.522411
O14	O	0.904540	-0.283993	-0.402330
O15	O	1.115654	-0.219765	-0.522454
O16	O	1.115455	-0.368800	-0.311376
O17	O	1.024507	-0.368767	-0.402323
C18	C	0.877695	-0.251891	-0.356854
C19	C	0.795381	-0.251894	-0.356855
C20	C	0.496290	-0.251927	-0.356917
C21	C	0.527622	-0.211332	-0.299978
C22	C	0.613240	-0.211441	-0.299735
C23	C	0.644672	-0.251910	-0.356886
C24	C	0.613544	-0.306988	-0.335559
C25	C	0.527899	-0.306762	-0.335163
C26	C	0.527905	-0.237923	-0.435317
C27	C	0.613556	-0.236696	-0.434890
C28	C	0.728532	-0.251904	-0.356870
C29	C	0.412430	-0.251937	-0.356932
C30	C	1.069981	-0.387755	-0.356859
C31	C	1.069995	-0.445869	-0.356869
C32	C	1.117585	-0.806236	-0.309617
C33	C	1.117614	-0.860840	-0.309627
O34	O	1.157948	-0.889081	-0.269415
N35	N	1.070235	-0.888151	-0.356942
C36	C	1.022830	-0.860855	-0.404255
O37	O	0.982534	-0.889098	-0.444501
C38	C	1.022806	-0.806251	-0.404248
C39	C	1.070182	-0.778943	-0.356925
C40	C	1.164958	-0.778928	-0.262299
C41	C	1.164928	-0.724328	-0.262288
C42	C	1.117526	-0.697035	-0.309596
C43	C	1.070152	-0.724343	-0.356914
C44	C	0.975405	-0.778956	-0.451564
C45	C	0.975385	-0.724349	-0.451554
C46	C	1.022762	-0.697041	-0.404231
C47	C	1.022720	-0.642450	-0.404212
N48	N	1.070098	-0.615139	-0.356897
C49	C	1.117501	-0.642432	-0.309589
C50	C	1.022886	-0.975525	-0.404266
C51	C	1.022906	-1.030128	-0.404270
C52	C	1.117691	-1.030110	-0.309643
C53	C	1.117667	-0.975506	-0.309636
C54	C	1.070265	-0.948215	-0.356952
C55	C	1.117434	-0.527767	-0.309570
C56	C	1.117398	-0.473161	-0.309561
C57	C	1.022616	-0.473184	-0.404190
C58	C	1.022650	-0.527785	-0.404197
C59	C	1.070065	-0.555075	-0.356884
O60	O	0.982409	-0.614175	-0.444406
O61	O	1.157797	-0.614181	-0.269357
C62	C	1.263267	-0.251934	-0.356932
C63	C	1.345581	-0.251943	-0.356949
C64	C	1.070143	-0.251865	-0.550055
C65	C	1.070159	-0.251844	-0.632369
C66	C	1.070250	-0.115539	-0.356943
C67	C	1.070312	-0.057425	-0.356964
C68	C	1.070185	-0.251828	-0.783077
C69	C	1.127463	-0.211424	-0.814458
C70	C	1.127703	-0.211533	-0.900076
C71	C	1.070212	-0.251811	-0.931460
C72	C	1.091077	-0.306959	-0.900349
C73	C	1.091477	-0.306735	-0.814704
C74	C	0.991903	-0.237562	-0.814628
C75	C	0.992338	-0.236337	-0.900280
C76	C	1.070225	-0.251805	-1.015320
C77	C	1.070174	-0.251838	-0.699218
C78	C	1.070110	-0.251922	-0.164482
C79	C	1.070238	-0.251795	-0.082169
H80	H	0.507059	-0.170365	-0.313200
H81	H	0.633907	-0.196165	-0.450971
F82	F	0.971761	-0.183290	-0.926862
H83	H	0.947411	-0.263599	-0.921640
H84	H	0.507642	-0.267490	-0.477742
H85	H	1.203508	-0.702097	-0.223756
H86	H	0.507170	-0.338033	-0.374826
F87	F	1.167898	-0.556803	-0.259214
H88	H	1.155978	-0.450929	-0.271023
H89	H	1.114586	-0.170413	-0.793886
F90	F	1.166261	-0.322507	-0.788605
H91	H	1.185141	-0.220767	-0.792948
F92	F	1.203528	-0.223899	-0.926876
H93	H	0.936786	-0.702131	-0.490086
F94	F	1.110469	-0.158125	-0.927576
H95	H	0.949231	-0.266988	-0.794330
H96	H	0.506073	-0.220486	-0.242223
H97	H	0.634958	-0.319070	-0.278864
H98	H	0.633694	-0.220700	-0.241642
F99	F	0.641521	-0.272527	-0.493314
F100	F	0.972474	-1.059185	-0.454629
H101	H	0.936823	-0.801181	-0.490096
F102	F	0.640754	-0.158057	-0.317208
F103	F	1.215417	-0.807967	-0.211944
F104	F	1.039300	-0.347437	-0.787564
H105	H	0.984019	-0.450954	-0.442706
H106	H	1.050643	-0.337881	-0.920673
F107	F	1.168091	-0.946448	-0.259270
F108	F	1.168141	-1.059166	-0.259292
F109	F	1.165048	-0.322999	-0.928396
H110	H	0.984280	-0.953307	-0.442794
F111	F	0.972213	-0.556849	-0.454549
F112	F	0.501739	-0.322284	-0.260249
F113	F	0.640145	-0.347582	-0.388072
F114	F	0.499720	-0.186340	-0.460662
F115	F	0.966990	-0.185898	-0.786417
