data_functionalizedCrystal
_audit_creation_method	'MofGen! by Chris Wilmer'
_symmetry_space_group_name_H-M	'P1'
_symmetry_Int_Tables_number	1
_symmetry_cell_setting	triclinic
loop_
_symmetry_equiv_pos_as_xyz
  x,y,z
_cell_length_a	10.654550
_cell_length_b	15.944551
_cell_length_c	9.730223
_cell_angle_alpha	89.994648
_cell_angle_beta	89.999957
_cell_angle_gamma	83.991834
loop_
_atom_site_label
_atom_site_type_symbol
_atom_site_fract_x
_atom_site_fract_y
_atom_site_fract_z
O1	O	1.666313	0.117976	-0.114191
O2	O	1.300689	0.129216	-0.114216
O3	O	1.493485	0.001379	-0.114190
O4	O	1.473516	0.245813	-0.114216
O5	O	1.493473	0.001376	0.114390
O6	O	1.300676	0.129213	0.114364
O7	O	1.666300	0.117973	0.114389
Zn8	Zn	1.483486	0.123592	0.150669
Zn9	Zn	1.483503	0.123597	-0.150495
O10	O	1.473504	0.245810	0.114363
C11	C	1.253895	0.128389	0.000071
C12	C	1.114484	0.125920	0.000061
C13	C	1.034024	0.201189	0.000057
C14	C	0.903034	0.198863	0.000081
C15	C	0.932975	0.045995	0.000108
C16	C	1.063963	0.048321	0.000094
C17	C	1.492650	-0.029921	0.000100
C18	C	1.490165	-0.123182	0.000100
C19	C	1.364720	-0.338764	0.000073
C20	C	1.422966	-0.399446	0.112781
C21	C	1.485668	-0.293933	0.000090
C22	C	1.423007	-0.399426	-0.112581
C23	C	1.481317	-0.458871	0.000073
C24	C	1.543948	-0.353387	0.112890
C25	C	1.543972	-0.353360	-0.112573
C26	C	1.602306	-0.414024	0.000163
C27	C	1.488172	-0.198917	0.000100
C28	C	1.478822	-0.553887	0.000072
C29	C	1.713094	0.118800	0.000099
C30	C	1.852505	0.121269	0.000100
C31	C	1.474339	0.277110	0.000070
C32	C	1.476824	0.370371	0.000061
N33	N	1.483484	0.123589	0.356205
N34	N	1.483514	0.123594	-0.356032
C35	C	1.568883	0.067007	0.428142
C36	C	1.568896	0.067007	0.572025
C37	C	1.398106	0.180179	0.572021
C38	C	1.398089	0.180174	0.428140
H39	H	1.075154	0.264375	0.000041
H40	H	1.595089	-0.332933	-0.207856
H41	H	1.371840	-0.419798	-0.207874
H42	H	1.129477	-0.012976	0.000101
H43	H	1.638434	0.020932	0.630593
C44	C	0.815615	0.280557	0.000350
C45	C	0.739574	0.283705	0.117976
C46	C	0.659041	0.358956	0.118280
H47	H	0.763767	0.282904	-0.079261
H48	H	0.864423	0.327127	0.000402
H49	H	0.690771	0.237148	0.117911
H50	H	0.791388	0.281372	0.197606
H51	H	0.707848	0.405526	0.118332
H52	H	0.607201	0.361296	0.038664
H53	H	0.607446	0.361105	0.198093
C54	C	1.736270	-0.457488	-0.000063
C55	C	1.755214	-0.507304	-0.118233
C56	C	1.878615	-0.547335	-0.118502
H57	H	1.748998	-0.492138	0.079174
H58	H	1.794405	-0.416193	0.000653
H59	H	1.697096	-0.548593	-0.118936
H60	H	1.742513	-0.472673	-0.197488
H61	H	1.936751	-0.506040	-0.117787
H62	H	1.891332	-0.581981	-0.039261
H63	H	1.891488	-0.581134	-0.198685
H64	H	1.328581	0.226250	0.630605
C65	C	1.230767	-0.295279	0.000279
C66	C	1.145139	-0.356164	0.001607
C67	C	1.021736	-0.316137	0.001824
H68	H	1.217588	-0.261423	-0.079799
H69	H	1.218314	-0.260690	0.079626
H70	H	1.157587	-0.390739	-0.077732
H71	H	1.158277	-0.390024	0.081680
H72	H	1.009283	-0.281548	0.081171
H73	H	1.008570	-0.282282	-0.078256
H74	H	0.963623	-0.357442	0.002738
C75	C	0.877876	-0.038168	0.000060
C76	C	0.745941	-0.024098	0.000032
C77	C	0.695145	-0.101610	-0.000035
H78	H	0.905360	-0.069258	0.079751
H79	H	0.905419	-0.069200	-0.079681
H80	H	0.718410	0.006920	0.079764
H81	H	0.718422	0.006979	-0.079654
H82	H	0.722687	-0.132642	-0.079776
H83	H	0.722638	-0.132694	0.079658
H84	H	0.605622	-0.092074	-0.000067
C85	C	1.354849	-0.426836	0.239770
C86	C	1.354462	-0.514618	0.238709
C87	C	1.291730	-0.539876	0.355671
H88	H	1.270417	-0.400911	0.239765
H89	H	1.397012	-0.410359	0.319844
H90	H	1.312297	-0.531086	0.158656
H91	H	1.438877	-0.540564	0.238735
H92	H	1.333893	-0.523400	0.435745
H93	H	1.207302	-0.513946	0.355656
H94	H	1.291469	-0.599439	0.354973
C95	C	1.611997	-0.326175	0.240038
C96	C	1.613451	-0.238475	0.238609
C97	C	1.676105	-0.213374	0.355724
H98	H	1.696184	-0.352533	0.240492
H99	H	1.569304	-0.342271	0.320006
H100	H	1.656145	-0.222387	0.158663
H101	H	1.529281	-0.212096	0.238176
H102	H	1.633413	-0.229470	0.435691
H103	H	1.760288	-0.239737	0.356167
H104	H	1.677090	-0.153867	0.354776
C105	C	1.661642	0.005473	0.350288
C106	C	1.736409	-0.044094	0.444091
C107	C	1.821860	-0.100799	0.372427
H108	H	1.714031	0.035913	0.294138
H109	H	1.616493	-0.029822	0.294206
H110	H	1.781555	-0.008803	0.500149
H111	H	1.684055	-0.074553	0.500243
H112	H	1.776711	-0.136094	0.316346
H113	H	1.874240	-0.070351	0.316280
H114	H	1.872592	-0.134442	0.436061
H115	H	1.328541	0.226250	0.369565
