data_functionalizedCrystal
_audit_creation_method	'MofGen! by Chris Wilmer'
_symmetry_space_group_name_H-M	'P1'
_symmetry_Int_Tables_number	1
_symmetry_cell_setting	triclinic
loop_
_symmetry_equiv_pos_as_xyz
  x,y,z
_cell_length_a	21.295417
_cell_length_b	15.298068
_cell_length_c	15.296720
_cell_angle_alpha	88.354818
_cell_angle_beta	99.638166
_cell_angle_gamma	99.689184
loop_
_atom_site_label
_atom_site_type_symbol
_atom_site_fract_x
_atom_site_fract_y
_atom_site_fract_z
Zn1	Zn	-0.187264	1.253346	-0.727332
Zn2	Zn	-0.271807	1.278593	-0.580848
Zn3	Zn	-0.181147	1.132227	-0.555499
Zn4	Zn	-0.307096	1.106816	-0.701865
O5	O	-0.236829	1.192745	-0.641386
O6	O	-0.186270	1.379273	-0.729166
O7	O	-0.242452	1.280378	-0.454927
O8	O	-0.093867	1.148362	-0.578343
O9	O	-0.248383	1.397822	-0.621545
O10	O	-0.098361	1.237347	-0.704587
O11	O	-0.175845	1.172843	-0.436303
O12	O	-0.210064	1.006278	-0.553649
O13	O	-0.308529	1.105053	-0.827802
O14	O	-0.302598	0.987609	-0.661183
O15	O	-0.220489	1.212708	-0.846512
O16	O	-0.364580	1.255738	-0.596852
O17	O	-0.390507	1.129534	-0.685763
C18	C	-0.259497	0.965160	-0.601902
C19	C	-0.269213	0.867795	-0.585032
C20	C	-0.167546	0.554648	-0.761963
C21	C	-0.158420	0.646127	-0.777819
C22	C	-0.186117	0.701549	-0.729623
C23	C	-0.222943	0.665482	-0.665570
C24	C	-0.232074	0.573993	-0.649718
C25	C	-0.250645	0.720894	-0.617378
C26	C	-0.287470	0.684827	-0.553324
C27	C	-0.296599	0.593347	-0.537474
C28	C	-0.268902	0.537926	-0.585670
C29	C	-0.241514	0.812382	-0.633230
C30	C	-0.306041	0.831727	-0.520984
C31	C	-0.315167	0.740248	-0.505129
C32	C	-0.400385	1.192639	-0.641318
C33	C	-0.470351	1.192669	-0.641331
C34	C	-0.489700	1.258423	-0.595102
C35	C	-0.555441	1.258460	-0.595128
C36	C	-0.601831	1.192730	-0.641373
C37	C	-0.582477	1.126970	-0.687613
C38	C	-0.516736	1.126939	-0.687592
N39	N	-0.713679	1.114946	-0.634756
N40	N	-0.776128	1.114978	-0.634771
C41	C	-0.799903	1.192819	-0.641440
N42	N	-0.758867	1.270631	-0.648077
N43	N	-0.696411	1.270598	-0.648058
C44	C	-0.673117	1.192756	-0.641401
C45	C	-0.890535	1.258619	-0.595237
C46	C	-0.956278	1.258657	-0.595271
C47	C	-0.983313	1.127160	-0.687750
C48	C	-0.917571	1.127129	-0.687722
C49	C	-0.871185	1.192858	-0.641461
C50	C	-0.072634	1.192873	-0.641478
C51	C	-0.002664	1.192927	-0.641517
C52	C	-0.269128	1.153230	-0.869824
C53	C	-0.282892	1.136390	-0.967170
C54	C	-0.214072	1.421219	-0.681024
C55	C	-0.204375	1.518581	-0.697916
C56	C	-0.138342	1.313131	-1.280540
C57	C	-0.125411	1.328958	-1.189079
C58	C	-0.164779	1.280817	-1.133598
C59	C	-0.217082	1.216847	-1.169586
C60	C	-0.230018	1.201024	-1.261056
C61	C	-0.256456	1.168710	-1.114114
C62	C	-0.308759	1.104740	-1.150102
C63	C	-0.321692	1.088919	-1.241564
C64	C	-0.282323	1.137060	-1.297045
C65	C	-0.243520	1.184534	-1.022643
C66	C	-0.335196	1.072426	-1.003159
C67	C	-0.348128	1.056600	-1.094620
C68	C	-0.204605	1.232158	-0.413846
C69	C	-0.190647	1.249167	-0.316529
H70	H	-0.211529	0.841739	-0.685382
H71	H	-0.451934	1.311945	-0.557436
H72	H	-0.276335	0.463435	-0.572769
C73	C	-0.576730	1.330794	-0.544264
N74	N	-0.592762	1.385274	-0.505951
C75	C	-0.896288	1.054808	-0.738600
N76	N	-0.880259	1.000340	-0.776936
C77	C	-0.137075	0.493682	-0.814959
N78	N	-0.114117	0.447762	-0.854875
C79	C	-0.337108	0.553677	-0.467013
N80	N	-0.367617	0.523800	-0.413939
H81	H	-0.345151	0.710870	-0.452976
H82	H	-0.972029	1.312208	-0.557627
H83	H	-0.390713	1.004514	-1.123934
C84	C	-0.378504	1.019466	-0.942132
N85	N	-0.411121	0.979581	-0.896162
H86	H	-0.328598	0.876851	-0.481744
H87	H	-0.106297	1.352325	-1.325722
H88	H	-0.620252	1.073453	-0.725268
H89	H	-0.500984	1.073393	-0.725239
H90	H	-0.128440	0.675485	-0.829974
H91	H	-0.292849	1.124177	-1.371521
C92	C	-0.185984	1.254893	-0.983066
N93	N	-0.142643	1.307890	-0.953258
C94	C	-0.839509	1.330933	-0.544365
N95	N	-0.801078	1.385403	-0.506051
C96	C	-1.034339	1.054857	-0.738622
N97	N	-1.072775	1.000397	-0.776942
C98	C	-0.067874	1.399315	-1.149498
N99	N	-0.024533	1.452308	-1.119685
C100	C	-0.379229	1.018554	-1.281148
N101	N	-0.422565	0.965553	-1.310961
H102	H	-0.178682	0.776035	-0.742534
H103	H	-0.154248	1.293707	-1.059127
