data_functionalizedCrystal
_audit_creation_method	'MofGen! by Chris Wilmer'
_symmetry_space_group_name_H-M	'P1'
_symmetry_Int_Tables_number	1
_symmetry_cell_setting	triclinic
loop_
_symmetry_equiv_pos_as_xyz
  x,y,z
_cell_length_a	14.519709
_cell_length_b	10.489741
_cell_length_c	13.596369
_cell_angle_alpha	90.005694
_cell_angle_beta	89.999709
_cell_angle_gamma	84.109659
loop_
_atom_site_label
_atom_site_type_symbol
_atom_site_fract_x
_atom_site_fract_y
_atom_site_fract_z
O1	O	-1.224779	-0.167203	-0.081663
O2	O	-0.891446	0.166130	0.251671
O3	O	-0.558113	0.499463	0.585004
O4	O	-0.956410	-0.186894	-0.081693
O5	O	-0.623077	0.146440	0.251641
O6	O	-0.289743	0.479773	0.584974
O7	O	-1.096701	0.008613	-0.081671
O8	O	-0.763368	0.341946	0.251662
O9	O	-0.430035	0.675280	0.584996
O10	O	-1.084488	-0.362710	-0.081684
O11	O	-0.751155	-0.029377	0.251649
O12	O	-0.417821	0.303957	0.584982
O13	O	-1.096687	0.008623	0.081912
O14	O	-0.763354	0.341957	0.415245
O15	O	-0.430021	0.675290	0.748578
O16	O	-0.956396	-0.186883	0.081890
O17	O	-0.623062	0.146450	0.415224
O18	O	-0.289729	0.479783	0.748557
O19	O	-1.224765	-0.167193	0.081920
O20	O	-0.891432	0.166140	0.415254
O21	O	-0.558099	0.499474	0.748587
Zn22	Zn	-1.090578	-0.177037	0.107878
Zn23	Zn	-0.757245	0.156297	0.441211
Zn24	Zn	-0.423912	0.489630	0.774544
Zn25	Zn	-1.090597	-0.177050	-0.107650
Zn26	Zn	-0.757264	0.156283	0.225683
Zn27	Zn	-0.423930	0.489616	0.559017
O28	O	-1.084474	-0.362700	0.081899
O29	O	-0.751141	-0.029366	0.415232
O30	O	-0.417807	0.303967	0.748565
C31	C	-0.922038	-0.185971	0.000095
C32	C	-0.588705	0.147363	0.333428
C33	C	-0.255371	0.480696	0.666762
C34	C	-0.819642	-0.183221	0.000084
C35	C	-0.486308	0.150112	0.333417
C36	C	-0.152975	0.483446	0.666750
C37	C	-1.095772	0.056140	0.000120
C38	C	-0.762438	0.389474	0.333453
C39	C	-0.429105	0.722807	0.666786
C40	C	-1.093012	0.197741	0.000118
C41	C	-0.759679	0.531074	0.333451
C42	C	-0.426345	0.864408	0.666784
C43	C	-1.259137	-0.168116	0.000130
C44	C	-0.925804	0.165217	0.333464
C45	C	-0.592471	0.498551	0.666797
C46	C	-1.361533	-0.170866	0.000135
C47	C	-1.028200	0.162468	0.333469
C48	C	-0.694867	0.495801	0.666802
C49	C	-1.085403	-0.410227	0.000106
C50	C	-0.752070	-0.076894	0.333439
C51	C	-0.418737	0.256440	0.666772
C52	C	-1.088163	-0.551828	0.000101
C53	C	-0.754830	-0.218494	0.333435
C54	C	-0.421497	0.114839	0.666768
C55	C	-0.444691	-0.173098	0.000129
C56	C	-0.111357	0.160236	0.333462
C57	C	0.221976	0.493569	0.666795
C58	C	-0.549014	-0.175909	0.000116
C59	C	-0.215681	0.157425	0.333449
C60	C	0.117653	0.490758	0.666783
C61	C	-0.632163	-0.178159	0.000105
C62	C	-0.298830	0.155174	0.333439
C63	C	0.034504	0.488508	0.666772
C64	C	-0.736493	-0.180971	0.000094
C65	C	-0.403160	0.152363	0.333428
C66	C	-0.069826	0.485696	0.666761
C67	C	-1.003749	0.264951	0.000100
C68	C	-0.670415	0.598284	0.333434
C69	C	-0.337082	0.931617	0.666767
C70	C	-1.045909	0.357518	0.080760
C71	C	-0.712576	0.690851	0.414093
C72	C	-0.379242	1.024184	0.747427
C73	C	-1.045944	0.357482	-0.080520
C74	C	-0.712611	0.690816	0.252813
C75	C	-0.379277	1.024149	0.586147
C76	C	-1.135209	0.288443	0.080844
C77	C	-0.801876	0.621776	0.414177
C78	C	-0.468542	0.955110	0.747510
C79	C	-1.135232	0.288398	-0.080509
C80	C	-0.801898	0.621731	0.252825
C81	C	-0.468565	0.955065	0.586158
C82	C	-1.177457	0.380938	0.000171
C83	C	-0.844123	0.714272	0.333504
C84	C	-0.510790	1.047605	0.666837
N85	N	-1.090572	-0.177026	0.254969
N86	N	-0.757239	0.156307	0.588303
N87	N	-0.423906	0.489640	0.921636
N88	N	-1.090610	-0.177050	-0.254742
N89	N	-0.757277	0.156283	0.078592
N90	N	-0.423944	0.489616	0.411925
C91	C	-1.090596	-0.177052	0.656260
C92	C	-0.757262	0.156282	0.989594
C93	C	-0.423929	0.489615	1.322927
C94	C	-1.090586	-0.177049	0.544609
C95	C	-0.757253	0.156285	0.877942
C96	C	-0.423920	0.489618	1.211276
C97	C	-1.090584	-0.177040	0.455618
C98	C	-0.757251	0.156293	0.788952
C99	C	-0.423918	0.489627	1.122285
C100	C	-1.090574	-0.177035	0.343960
C101	C	-0.757241	0.156298	0.677293
C102	C	-0.423908	0.489631	1.010627
H103	H	-1.008134	0.388140	0.148944
H104	H	-0.674800	0.721473	0.482277
H105	H	-0.341467	1.054807	0.815610
N106	N	-1.185171	0.248157	0.171290
N107	N	-0.851837	0.581490	0.504624
N108	N	-0.518504	0.914824	0.837957
H109	H	-1.250589	0.291471	0.171586
H110	H	-0.917256	0.624804	0.504920
H111	H	-0.583922	0.958137	0.838253
H112	H	-1.186634	0.152108	0.170713
H113	H	-0.853300	0.485441	0.504046
H114	H	-0.519967	0.818775	0.837379
H115	H	-1.172975	0.257742	-0.148696
H116	H	-0.839641	0.591076	0.184637
H117	H	-0.506308	0.924409	0.517971
H118	H	-1.250914	0.431128	0.000224
H119	H	-0.917581	0.764461	0.333557
H120	H	-0.584248	1.097795	0.666890
H121	H	-1.008169	0.388048	-0.148718
H122	H	-0.674836	0.721381	0.184615
H123	H	-0.341503	1.054715	0.517949
H124	H	-0.930357	0.214534	0.000173
H125	H	-0.597024	0.547868	0.333507
H126	H	-0.263690	0.881201	0.666840
