data_functionalizedCrystal
_audit_creation_method	'MofGen! by Chris Wilmer'
_symmetry_space_group_name_H-M	'P1'
_symmetry_Int_Tables_number	1
_symmetry_cell_setting	triclinic
loop_
_symmetry_equiv_pos_as_xyz
  x,y,z
_cell_length_a	19.077236
_cell_length_b	29.839131
_cell_length_c	19.076919
_cell_angle_alpha	87.739939
_cell_angle_beta	90.112677
_cell_angle_gamma	92.327558
loop_
_atom_site_label
_atom_site_type_symbol
_atom_site_fract_x
_atom_site_fract_y
_atom_site_fract_z
Zn1	Zn	1.058245	-0.163079	0.440490
Zn2	Zn	1.062865	-0.235075	0.322961
Zn3	Zn	0.945461	-0.162844	0.318271
Zn4	Zn	0.940683	-0.241068	0.435697
O5	O	1.001814	-0.200517	0.379355
O6	O	1.157193	-0.170220	0.428869
O7	O	1.051224	-0.222886	0.224009
O8	O	0.960488	-0.100007	0.334526
O9	O	1.160587	-0.223115	0.342521
O10	O	1.043351	-0.100180	0.424321
O11	O	0.964968	-0.169819	0.220563
O12	O	0.846493	-0.175630	0.329879
O13	O	0.952345	-0.233330	0.534663
O14	O	0.842982	-0.233102	0.416152
O15	O	1.038717	-0.176032	0.538185
O16	O	1.046591	-0.298738	0.337873
O17	O	0.956824	-0.303141	0.420700
C18	C	0.819240	-0.204991	0.371986
C19	C	0.741134	-0.206916	0.368851
C20	C	0.702670	-0.180329	0.412403
C21	C	0.629282	-0.182136	0.409451
C22	C	0.594358	-0.210533	0.362949
C23	C	0.632827	-0.237121	0.319392
C24	C	0.706214	-0.235312	0.322341
C25	C	0.375062	-0.218890	0.349297
C26	C	0.301669	-0.220699	0.346353
C27	C	0.298129	-0.165712	0.436411
C28	C	0.371518	-0.163907	0.439359
C29	C	0.409981	-0.190494	0.395799
N30	N	0.519342	-0.212381	0.359932
N31	N	0.484995	-0.188643	0.398814
C32	C	1.001709	-0.317240	0.379291
C33	C	1.001727	-0.367174	0.379290
C34	C	1.044948	-0.676874	0.426174
C35	C	1.045022	-0.864546	0.426220
O36	O	1.081666	-0.888861	0.466034
N37	N	1.001930	-0.887958	0.379438
C38	C	0.958812	-0.864448	0.332644
O39	O	0.922156	-0.888668	0.292859
C40	C	0.958735	-0.676777	0.332603
C41	C	1.001835	-0.653368	0.379383
C42	C	1.088044	-0.653465	0.472952
C43	C	1.088028	-0.606550	0.472937
C44	C	1.044915	-0.583043	0.426146
C45	C	1.001819	-0.606453	0.379369
C46	C	0.915614	-0.653269	0.285813
C47	C	0.915597	-0.606348	0.285808
C48	C	0.958697	-0.582939	0.332588
C49	C	0.958690	-0.536031	0.332563
N50	N	1.001782	-0.512620	0.379345
C51	C	1.044895	-0.536126	0.426136
C52	C	0.958857	-0.962978	0.332668
C53	C	0.958877	-1.009896	0.332677
C54	C	1.045086	-1.009991	0.426254
C55	C	1.045069	-0.963072	0.426241
C56	C	1.001950	-0.939567	0.379450
C57	C	1.044858	-0.437600	0.426102
C58	C	1.044840	-0.390680	0.426082
C59	C	0.958628	-0.390590	0.332508
C60	C	0.958649	-0.437505	0.332525
C61	C	1.001766	-0.461009	0.379328
O62	O	0.922059	-0.511688	0.292775
O63	O	1.081534	-0.511899	0.465926
C64	C	1.044964	-0.723790	0.426189
C65	C	1.001867	-0.747199	0.379412
C66	C	0.958755	-0.723693	0.332620
C67	C	1.001888	-0.794116	0.379421
C68	C	1.045000	-0.817623	0.426213
C69	C	1.088093	-0.794211	0.472995
C70	C	1.088076	-0.747296	0.472980
C71	C	0.915663	-0.747104	0.285838
C72	C	0.915683	-0.794019	0.285856
C73	C	0.958796	-0.817526	0.332647
C74	C	1.185100	-0.196025	0.386753
C75	C	1.263205	-0.194111	0.389905
C76	C	0.994483	-0.205376	0.562633
C77	C	0.991359	-0.207446	0.640735
C78	C	1.001937	-0.083337	0.379435
C79	C	1.001990	-0.033402	0.379469
C80	C	1.009156	-0.195643	0.196792
C81	C	1.012417	-0.193443	0.118696
C82	C	1.034858	-0.178588	0.679262
C83	C	1.031914	-0.180532	0.752647
C84	C	0.985474	-0.211337	0.787503
C85	C	0.941969	-0.240196	0.748971
C86	C	0.944910	-0.238250	0.675587
C87	C	0.971853	-0.220355	1.006780
C88	C	0.968917	-0.222301	1.080169
C89	C	1.058861	-0.162636	1.083839
C90	C	1.061801	-0.160694	1.010454
C91	C	1.018294	-0.189552	0.971928
N92	N	0.982465	-0.213326	0.862514
N93	N	1.021300	-0.187560	0.896918
H94	H	0.273236	-0.243825	0.308485
N95	N	0.912123	-0.365235	0.282045
H96	H	0.925082	-0.371809	0.232289
H97	H	0.918671	-0.331970	0.289199
H98	H	0.399948	-0.140785	0.477228
H99	H	1.080165	-0.944015	0.464334
H100	H	1.123173	-0.728239	0.511073
N101	N	0.869190	-0.819261	0.235394
H102	H	0.835467	-0.840289	0.262615
H103	H	0.899123	-0.837134	0.204019
N104	N	0.416541	-0.247563	0.302315
H105	H	0.383279	-0.265827	0.272412
H106	H	0.445842	-0.268389	0.332072
H107	H	1.094281	-0.139141	1.115215
N108	N	0.912351	-0.937629	0.282194
H109	H	0.885061	-0.959584	0.252561
H110	H	0.942274	-0.916595	0.250850
H111	H	1.067338	-0.157034	0.784012
H112	H	0.737531	-0.256962	0.286876
N113	N	0.256645	-0.137037	0.483389
H114	H	0.204855	-0.142491	0.474467
H115	H	0.269929	-0.104337	0.473066
H116	H	0.936437	-0.243860	0.975421
H117	H	1.099620	-0.135611	0.982079
H118	H	0.931097	-0.247387	1.108547
H119	H	0.604386	-0.260240	0.281526
N120	N	0.891863	-0.273412	0.786561
H121	H	0.896597	-0.270265	0.838896
H122	H	0.903266	-0.304892	0.774159
N123	N	0.587807	-0.153450	0.456421
H124	H	0.598573	-0.161491	0.507120
H125	H	0.536030	-0.158908	0.447440
N126	N	1.134597	-0.819569	0.523461
H127	H	1.128063	-0.852842	0.516365
H128	H	1.121608	-0.812958	0.573191
N129	N	1.091329	-0.365432	0.476539
H130	H	1.118640	-0.387445	0.506183
H131	H	1.061393	-0.347533	0.507873
N132	N	1.091573	-1.035342	0.476746
H133	H	1.142226	-1.025636	0.467918
H134	H	1.084985	-1.068610	0.469637
N135	N	1.091353	-0.462947	0.476588
H136	H	1.118647	-0.440993	0.506217
H137	H	1.125050	-0.480852	0.449340
N138	N	1.134509	-0.581305	0.523398
H139	H	1.161817	-0.603321	0.553041
H140	H	1.104569	-0.563410	0.554734
N141	N	0.897987	-0.269371	0.634029
H142	H	0.868119	-0.289180	0.667245
H143	H	0.927782	-0.288654	0.604719
N144	N	1.134529	-0.678815	0.523441
H145	H	1.161816	-0.656859	0.553073
H146	H	1.168232	-0.696720	0.496201
N147	N	0.912402	-1.035141	0.282211
H148	H	0.885089	-1.013127	0.252571
H149	H	0.878722	-1.056173	0.309475
H150	H	0.880517	-0.672320	0.247719
N151	N	0.740336	-0.149703	0.462564
H152	H	0.704830	-0.133134	0.489704
H153	H	0.771937	-0.127377	0.435250
N154	N	0.869086	-0.580996	0.235341
H155	H	0.841789	-0.602948	0.205711
H156	H	0.899007	-0.559962	0.203993
N157	N	0.869163	-0.721754	0.235365
H158	H	0.841871	-0.743708	0.205734
H159	H	0.899089	-0.700722	0.204020
N160	N	0.912173	-0.462757	0.282063
H161	H	0.884861	-0.440744	0.252417
H162	H	0.878491	-0.483784	0.309333
H163	H	1.072677	-0.153505	0.650887
