data_functionalizedCrystal
_audit_creation_method	'MofGen! by Chris Wilmer'
_symmetry_space_group_name_H-M	'P1'
_symmetry_Int_Tables_number	1
_symmetry_cell_setting	triclinic
loop_
_symmetry_equiv_pos_as_xyz
  x,y,z
_cell_length_a	9.065218
_cell_length_b	11.892095
_cell_length_c	9.065218
_cell_angle_alpha	86.051171
_cell_angle_beta	94.984081
_cell_angle_gamma	86.041002
loop_
_atom_site_label
_atom_site_type_symbol
_atom_site_fract_x
_atom_site_fract_y
_atom_site_fract_z
O1	O	-1.969715	0.094057	0.207045
O2	O	-1.540429	0.094046	0.224793
O3	O	-1.763945	0.094049	0.001277
O4	O	-1.746199	0.094053	0.430561
O5	O	-1.745309	-0.093959	0.019884
O6	O	-1.521793	-0.093962	0.243400
O7	O	-1.951078	-0.093951	0.225653
Zn8	Zn	-1.733477	-0.123807	0.237481
Zn9	Zn	-1.758031	0.123902	0.212965
O10	O	-1.727562	-0.093954	0.449169
C11	C	-1.476124	0.000041	0.232391
C12	C	-1.312281	0.000037	0.227292
N13	N	-1.716729	-0.292861	0.254211
C14	C	-1.891323	-0.529506	0.079719
C15	C	-1.879628	-0.647848	0.091424
C16	C	-1.681637	-0.647889	0.289320
C17	C	-1.693333	-0.529547	0.277614
C18	C	-1.798180	-0.470360	0.172812
C19	C	-1.809882	-0.352016	0.161114
C20	C	-1.611885	-0.352059	0.359002
C21	C	-1.600190	-0.470401	0.370707
C22	C	-1.015383	0.000050	0.218055
C23	C	-1.179225	0.000040	0.223155
C24	C	-1.752922	0.000047	-0.044406
C25	C	-1.747822	0.000052	-0.208250
N26	N	-1.774790	0.292956	0.196223
C27	C	-1.738586	0.000050	0.494852
C28	C	-1.743686	0.000052	0.658694
H29	H	-1.976704	-0.481315	-0.005606
H30	H	-1.596263	-0.696095	0.374637
H31	H	-1.955472	-0.696002	0.015617
O32	O	-1.498273	-0.528028	0.472316
C33	C	-1.399396	-0.596475	0.398799
H34	H	-1.454863	-0.614187	0.285899
H35	H	-1.294716	-0.550889	0.382760
C36	C	-1.289743	-0.687144	0.631335
C37	C	-1.357873	-0.708906	0.492675
H38	H	-1.264123	-0.756495	0.689243
H39	H	-1.356354	-0.641027	0.680867
H40	H	-1.202518	-0.649152	0.617949
H41	H	-1.445106	-0.746884	0.506062
H42	H	-1.291276	-0.755033	0.443147
O43	O	-1.521617	-0.294483	0.449500
C44	C	-1.608630	-0.226046	0.534887
H45	H	-1.725052	-0.208291	0.475956
H46	H	-1.615614	-0.271664	0.648584
C47	C	-1.393982	-0.135458	0.626558
C48	C	-1.536971	-0.113643	0.554172
H49	H	-1.349778	-0.066124	0.638461
H50	H	-1.335358	-0.181568	0.569036
H51	H	-1.399822	-0.173475	0.721298
H52	H	-1.531128	-0.075639	0.459428
H53	H	-1.595593	-0.067524	0.611679
O54	O	-1.911566	-0.294594	0.059085
C55	C	-1.882742	-0.323575	-0.084425
H56	H	-1.761370	-0.356113	-0.083523
H57	H	-1.957125	-0.392276	-0.119818
C58	C	-2.063797	-0.178512	-0.195707
C59	C	-1.914724	-0.218466	-0.194601
H60	H	-2.083531	-0.113679	-0.263671
H61	H	-2.083222	-0.158989	-0.099021
H62	H	-2.125766	-0.235773	-0.225196
H63	H	-1.852758	-0.161211	-0.165093
H64	H	-1.895289	-0.237977	-0.291284
