data_functionalizedCrystal
_audit_creation_method	'MofGen! by Chris Wilmer'
_symmetry_space_group_name_H-M	'P1'
_symmetry_Int_Tables_number	1
_symmetry_cell_setting	triclinic
loop_
_symmetry_equiv_pos_as_xyz
  x,y,z
_cell_length_a	19.288864
_cell_length_b	15.995350
_cell_length_c	18.366186
_cell_angle_alpha	89.995992
_cell_angle_beta	89.977106
_cell_angle_gamma	83.314311
loop_
_atom_site_label
_atom_site_type_symbol
_atom_site_fract_x
_atom_site_fract_y
_atom_site_fract_z
O1	O	0.921624	0.104451	-0.060780
O2	O	0.719400	0.118542	-0.060729
O3	O	0.826040	-0.010412	-0.060755
O4	O	0.814984	0.233405	-0.060754
O5	O	0.826022	-0.010418	0.060344
O6	O	0.719382	0.118535	0.060370
O7	O	0.921606	0.104445	0.060320
Zn8	Zn	0.820491	0.111489	0.079572
Zn9	Zn	0.820515	0.111498	-0.079982
O10	O	0.814966	0.233399	0.060346
C11	C	0.693513	0.118085	-0.000173
C12	C	0.616406	0.116724	-0.000154
C13	C	0.825574	-0.041608	-0.000207
C14	C	0.824203	-0.134553	-0.000211
C15	C	0.571906	0.192388	-0.000165
C16	C	0.499456	0.191110	-0.000173
C17	C	0.471508	0.114163	-0.000185
C18	C	0.516018	0.038489	-0.000170
C19	C	0.588467	0.039769	-0.000155
C20	C	0.363096	0.053676	-0.042636
C21	C	0.290648	0.052398	-0.042656
C22	C	0.248053	0.110209	-0.000229
C23	C	0.277912	0.169312	0.042208
C24	C	0.350361	0.170593	0.042224
C25	C	0.392951	0.112765	-0.000201
C26	C	0.124993	0.184492	-0.000248
C27	C	0.052542	0.183210	-0.000251
C28	C	0.069106	0.030587	-0.000255
C29	C	0.141556	0.031871	-0.000244
C30	C	0.169495	0.108826	-0.000244
C31	C	0.819282	-0.472282	-0.000207
C32	C	0.743335	-0.424562	-0.000460
C33	C	0.744706	-0.327877	-0.000187
C34	C	0.821723	-0.304731	-0.000209
C35	C	0.859173	-0.345953	0.068934
C36	C	0.857265	-0.442582	0.068992
C37	C	0.858854	-0.442939	-0.068721
C38	C	0.858836	-0.345993	-0.069635
C39	C	0.823107	-0.210039	-0.000208
C40	C	0.817901	-0.566975	-0.000203
C41	C	0.947492	0.104902	-0.000238
C42	C	1.024600	0.106263	-0.000262
C43	C	0.815432	0.264595	-0.000204
C44	C	0.816802	0.357540	-0.000206
N45	N	0.820480	0.111483	0.188463
N46	N	0.820531	0.111497	-0.188873
C47	C	0.867715	0.054410	0.226552
C48	C	0.867720	0.054407	0.302780
C49	C	0.820495	0.111490	0.340916
C50	C	0.773250	0.168567	0.302818
C51	C	0.773243	0.168564	0.226591
C52	C	0.811395	0.187781	0.461678
C53	C	0.811407	0.187785	0.537903
C54	C	0.820515	0.111500	0.576023
C55	C	0.829624	0.035208	0.537909
C56	C	0.829617	0.035204	0.461683
C57	C	0.820498	0.111500	0.423571
C58	C	0.867758	0.054419	0.696767
C59	C	0.867757	0.054414	0.772996
C60	C	0.773292	0.168582	0.773033
C61	C	0.773289	0.168579	0.696805
C62	C	0.820525	0.111499	0.658677
H63	H	0.594649	0.255051	-0.000166
F64	F	0.839322	-0.045987	0.578474
F65	F	0.917997	-0.006341	0.343324
F66	F	0.703723	-0.450308	0.063830
H67	H	0.829941	-0.460783	0.120694
F68	F	0.408423	-0.007859	-0.087796
H69	H	0.803994	0.249907	0.568929
F70	F	0.932248	-0.326187	-0.075118
F71	F	0.918030	-0.006338	0.813535
H72	H	0.913024	-0.475040	0.072114
H73	H	0.734828	0.215057	0.665791
H74	H	0.734838	0.215057	0.804083
F75	F	0.932044	-0.484729	-0.069351
H76	H	0.906219	0.007938	0.665722
H77	H	0.016310	0.244828	-0.000256
F78	F	0.917986	-0.006342	0.185975
H79	H	0.803966	0.249905	0.430647
H80	H	0.837032	-0.026916	0.430654
F81	F	0.258875	-0.010496	-0.087828
F82	F	0.232585	0.230844	0.087366
H83	H	0.624700	-0.021848	-0.000146
F84	F	0.039367	-0.051306	-0.000261
F85	F	0.382138	0.233490	0.087390
H86	H	0.177789	-0.029743	-0.000239
H87	H	0.493259	-0.024162	-0.000189
F88	F	0.823324	-0.309851	-0.136502
H89	H	0.734798	0.215044	0.333872
F90	F	0.722966	0.229311	0.186053
H91	H	0.463217	0.252727	-0.000180
H92	H	0.715267	-0.299341	-0.049751
F93	F	0.703666	-0.448629	-0.065269
F94	F	0.154731	0.266393	-0.000242
F95	F	0.705947	-0.291308	0.064725
H96	H	0.915755	-0.332041	0.071489
F97	F	0.826404	-0.469650	-0.137222
F98	F	0.825157	-0.308735	0.136210
