data_functionalizedCrystal
_audit_creation_method	'MofGen! by Chris Wilmer'
_symmetry_space_group_name_H-M	'P1'
_symmetry_Int_Tables_number	1
_symmetry_cell_setting	triclinic
loop_
_symmetry_equiv_pos_as_xyz
  x,y,z
_cell_length_a	21.295417
_cell_length_b	19.121141
_cell_length_c	19.121175
_cell_angle_alpha	94.788888
_cell_angle_beta	92.410242
_cell_angle_gamma	92.416218
loop_
_atom_site_label
_atom_site_type_symbol
_atom_site_fract_x
_atom_site_fract_y
_atom_site_fract_z
Zn1	Zn	-0.309440	-1.092590	-0.443682
Zn2	Zn	-0.410016	-1.087480	-0.326007
Zn3	Zn	-0.300069	-0.969916	-0.321016
Zn4	Zn	-0.409972	-0.974880	-0.438615
O5	O	-0.357374	-1.031216	-0.382330
O6	O	-0.326722	-1.190375	-0.432281
O7	O	-0.391527	-1.067669	-0.226882
O8	O	-0.213227	-0.986250	-0.337320
O9	O	-0.400614	-1.186621	-0.345826
O10	O	-0.220111	-1.076378	-0.427442
O11	O	-0.310750	-0.981295	-0.223216
O12	O	-0.310708	-0.872111	-0.332407
O13	O	-0.400540	-0.994710	-0.537750
O14	O	-0.391454	-0.875758	-0.418807
O15	O	-0.326680	-1.081192	-0.541473
O16	O	-0.498096	-1.072482	-0.340913
O17	O	-0.498064	-0.989755	-0.423646
C18	C	-0.350060	-0.848404	-0.374516
C19	C	-0.346947	-0.770197	-0.371190
C20	C	-0.520921	-1.031122	-0.382287
C21	C	-0.590890	-1.031148	-0.382295
C22	C	-0.387582	-0.735369	-0.414540
C23	C	-0.384648	-0.661885	-0.411418
C24	C	-0.341082	-0.623230	-0.364942
C25	C	-0.300443	-0.658063	-0.321590
C26	C	-0.303374	-0.731546	-0.324716
C27	C	-0.330124	-0.401265	-0.353259
C28	C	-0.327198	-0.327777	-0.350135
C29	C	-0.411402	-0.331604	-0.439965
C30	C	-0.414332	-0.405088	-0.443084
C31	C	-0.373690	-0.439914	-0.399734
C32	C	-0.338084	-0.548118	-0.361748
C33	C	-0.376686	-0.515026	-0.402932
C34	C	-0.623756	-1.074265	-0.339264
C35	C	-0.689500	-1.074299	-0.339281
C36	C	-0.722376	-1.031202	-0.382322
C37	C	-0.689502	-0.988081	-0.425362
C38	C	-0.623760	-0.988054	-0.425348
N39	N	-0.823397	-0.969878	-0.385055
N40	N	-0.885850	-0.969906	-0.385063
C41	C	-0.920455	-1.031283	-0.382366
N42	N	-0.890248	-1.092632	-0.379645
N43	N	-0.827790	-1.092603	-0.379633
C44	C	-0.793663	-1.031227	-0.382341
C45	C	-1.024609	-1.074441	-0.339351
C46	C	-1.090354	-1.074476	-0.339373
C47	C	-1.090355	-0.988252	-0.425449
C48	C	-1.024611	-0.988223	-0.425431
C49	C	-0.991741	-1.031316	-0.382378
C50	C	-0.193191	-1.031330	-0.382390
C51	C	-0.123225	-1.031379	-0.382415
C52	C	-0.364651	-1.039075	-0.565856
C53	C	-0.367751	-1.042423	-0.644064
C54	C	-0.364714	-0.214742	-0.390167
C55	C	-0.367833	-0.292949	-0.393485
C56	C	-0.327153	-0.999028	-0.678896
C57	C	-0.330071	-1.002172	-0.752381
C58	C	-0.373586	-1.048715	-0.791031
C59	C	-0.414189	-1.092112	-0.756193
C60	C	-0.411273	-1.088964	-0.682710
C61	C	-0.384497	-1.060466	-1.012998
C62	C	-0.387409	-1.063612	-1.086486
C63	C	-0.303292	-0.973671	-1.082668
C64	C	-0.300377	-0.970530	-1.009184
C65	C	-0.340982	-1.013924	-0.974353
C66	C	-0.376569	-1.051931	-0.866144
C67	C	-0.338002	-1.010704	-0.899241
C68	C	-0.350083	-1.023429	-0.199520
C69	C	-0.346810	-1.020217	-0.121319
H70	H	-0.423060	-0.766837	-0.452384
H71	H	-0.444328	-1.124306	-0.654351
H72	H	-0.291714	-0.296306	-0.312293
O73	O	-1.122356	-0.946487	-0.467301
C74	C	-1.163721	-0.988477	-0.514510
H75	H	-1.174686	-1.040762	-0.492018
H76	H	-1.140727	-0.998389	-0.566981
C77	C	-1.211684	-0.886106	-0.553207
C78	C	-1.225157	-0.950322	-0.525580
H79	H	-1.249580	-0.862570	-0.560039
H80	H	-1.183814	-0.857816	-0.521404
H81	H	-1.192522	-0.894376	-0.596930
H82	H	-1.244311	-0.942051	-0.481854
H83	H	-1.253031	-0.978610	-0.557376
H84	H	-0.716274	-0.952993	-0.460407
O85	O	-0.591926	-0.946100	-0.467168
C86	C	-0.635038	-0.908083	-0.505179
H87	H	-0.680678	-0.904455	-0.476266
H88	H	-0.645131	-0.936100	-0.559739
C89	C	-0.550788	-0.838065	-0.547565
C90	C	-0.606843	-0.833604	-0.512051
H91	H	-0.533396	-0.792123	-0.551807
H92	H	-0.521743	-0.863679	-0.521958
H93	H	-0.559207	-0.861415	-0.593028
H94	H	-0.598422	-0.810262	-0.466585
H95	H	-0.635887	-0.807984	-0.537649
H96	H	-0.422844	-1.101516	-1.117954
O97	O	-0.295816	-0.965456	-0.861620
C98	C	-0.328150	-0.918154	-0.817171
H99	H	-0.376412	-0.942462	-0.807212
H100	H	-0.334097	-0.867216	-0.843257
C101	C	-0.230967	-0.872602	-0.759067
C102	C	-0.290241	-0.902460	-0.746830
H103	H	-0.207582	-0.862917	-0.715678
H104	H	-0.209182	-0.904468	-0.789014
H105	H	-0.235931	-0.830156	-0.780807
H106	H	-0.285277	-0.944908	-0.725099
H107	H	-0.312024	-0.870600	-0.716877
O108	O	-0.992774	-1.116367	-0.297515
C109	C	-1.035883	-1.154424	-0.259527
H110	H	-1.083971	-1.158096	-0.288466
H111	H	-1.039776	-1.126413	-0.204971
C112	C	-0.953695	-1.224364	-0.217095
C113	C	-1.012755	-1.228879	-0.252641
H114	H	-0.939428	-1.270291	-0.212844
H115	H	-0.924650	-1.198723	-0.242685
H116	H	-0.956947	-1.201019	-0.171635
H117	H	-1.009501	-1.252216	-0.298103
H118	H	-1.041799	-1.254526	-0.227058
H119	H	-0.264968	-0.626585	-0.283751
O120	O	-0.290618	-0.960116	-0.786304
C121	C	-0.253243	-1.002018	-0.830535
H122	H	-0.278009	-1.055800	-0.843809
H123	H	-0.205775	-1.008561	-0.802575
C124	C	-0.212667	-0.900242	-0.882385
C125	C	-0.243088	-0.966297	-0.898694
H126	H	-0.206399	-0.878207	-0.924427
H127	H	-0.237845	-0.872011	-0.852584
H128	H	-0.173113	-0.905705	-0.859084
H129	H	-0.282643	-0.960833	-0.921986
H130	H	-0.217916	-0.994526	-0.928500
O131	O	-0.423959	-1.102697	-0.979281
C132	C	-0.462995	-1.144443	-1.029155
H133	H	-0.439387	-1.149132	-1.081650
H134	H	-0.510085	-1.118985	-1.035849
C135	C	-0.502913	-1.212340	-0.939204
C136	C	-0.473915	-1.218104	-1.003678
H137	H	-0.509652	-1.257777	-0.923488
H138	H	-0.476616	-1.184214	-0.905602
H139	H	-0.542151	-1.191122	-0.944791
H140	H	-0.434674	-1.239313	-0.998088
H141	H	-0.500206	-1.246235	-1.037278
O142	O	-0.263943	-0.931442	-1.116532
C143	C	-0.299650	-0.887804	-1.157094
H144	H	-0.348175	-0.882478	-1.134744
H145	H	-0.304897	-0.911942	-1.213715
C146	C	-0.206420	-0.821267	-1.182556
C147	C	-0.266017	-0.814721	-1.155102
H148	H	-0.185672	-0.776187	-1.181331
H149	H	-0.182362	-0.850668	-1.155231
H150	H	-0.210800	-0.841384	-1.229738
H151	H	-0.261635	-0.794613	-1.107919
H152	H	-0.290073	-0.785315	-1.182420
H153	H	-0.411999	-1.089826	-0.897621
O154	O	-0.456515	-1.137342	-0.793628
C155	C	-0.491713	-1.174981	-0.747124
H156	H	-0.490662	-1.143914	-0.693511
H157	H	-0.470489	-1.228101	-0.741599
C158	C	-0.561540	-1.224464	-0.842059
C159	C	-0.560254	-1.186304	-0.776213
H160	H	-0.603819	-1.231452	-0.860003
H161	H	-0.537825	-1.199108	-0.873391
H162	H	-0.543850	-1.268726	-0.837446
H163	H	-0.577936	-1.142040	-0.780828
H164	H	-0.583973	-1.211653	-0.744883
O165	O	-0.419087	-0.552492	-0.448040
C166	C	-0.480475	-0.533854	-0.431753
H167	H	-0.478544	-0.479335	-0.402436
H168	H	-0.501833	-0.573641	-0.397289
C169	C	-0.523657	-0.600357	-0.536130
C170	C	-0.521287	-0.533392	-0.500127
H171	H	-0.548833	-0.600075	-0.578306
H172	H	-0.482300	-0.612916	-0.547102
H173	H	-0.541454	-0.633506	-0.507402
H174	H	-0.503482	-0.500247	-0.528852
H175	H	-0.562642	-0.520828	-0.489162
H176	H	-0.297035	-0.429611	-0.317956
O177	O	-0.295799	-0.510635	-0.316507
C178	C	-0.307400	-0.525538	-0.247108
H179	H	-0.333657	-0.578817	-0.247857
H180	H	-0.337144	-0.483142	-0.221591
C181	C	-0.212174	-0.461681	-0.203838
C182	C	-0.244419	-0.527121	-0.204757
H183	H	-0.173325	-0.462654	-0.177712
H184	H	-0.204359	-0.451638	-0.250592
H185	H	-0.236967	-0.426357	-0.182575
H186	H	-0.219629	-0.562442	-0.226027
H187	H	-0.252228	-0.537170	-0.158004
O188	O	-0.591762	-1.116168	-0.297549
C189	C	-0.557099	-1.163295	-0.339580
H190	H	-0.548369	-1.140715	-0.391819
H191	H	-0.584782	-1.215775	-0.349585
C192	C	-0.504352	-1.202117	-0.237251
C193	C	-0.493626	-1.174381	-0.301410
H194	H	-0.465200	-1.208958	-0.213706
H195	H	-0.527707	-1.170368	-0.208933
H196	H	-0.527423	-1.245847	-0.245598
H197	H	-0.470562	-1.130647	-0.293062
H198	H	-0.470265	-1.206122	-0.329726
H199	H	-0.417738	-0.633532	-0.446718
H200	H	-0.449809	-0.436556	-0.480928
H201	H	-0.270281	-0.759902	-0.289419
O202	O	-0.450811	-0.297663	-0.482049
C203	C	-0.438895	-0.224516	-0.469314
H204	H	-0.388975	-0.213517	-0.445943
H205	H	-0.473862	-0.202028	-0.430881
C206	C	-0.507392	-0.203362	-0.567598
C207	C	-0.446077	-0.189851	-0.538898
H208	H	-0.511825	-0.181977	-0.610519
H209	H	-0.515422	-0.252642	-0.576176
H210	H	-0.536524	-0.184621	-0.535563
H211	H	-0.416947	-0.208600	-0.570928
H212	H	-0.438043	-0.140573	-0.530326
O213	O	-0.721378	-1.116275	-0.297514
C214	C	-0.708690	-1.187053	-0.315935
H215	H	-0.662072	-1.189649	-0.343031
H216	H	-0.748040	-1.212286	-0.353147
C217	C	-0.761906	-1.223589	-0.215907
C218	C	-0.704647	-1.226777	-0.249182
H219	H	-0.759415	-1.248094	-0.174732
H220	H	-0.770456	-1.175905	-0.203498
H221	H	-0.794692	-1.244615	-0.246925
H222	H	-0.671864	-1.205744	-0.218168
H223	H	-0.696091	-1.274460	-0.261585
O224	O	-1.122292	-1.116501	-0.297709
C225	C	-1.163641	-1.163640	-0.339801
H226	H	-1.146166	-1.170221	-0.395404
H227	H	-1.212732	-1.142064	-0.341264
C228	C	-1.187564	-1.227305	-0.240404
C229	C	-1.166098	-1.235392	-0.308695
H230	H	-1.189082	-1.271565	-0.221215
H231	H	-1.159708	-1.195545	-0.212044
H232	H	-1.228471	-1.209323	-0.241632
H233	H	-1.125189	-1.253366	-0.307465
H234	H	-1.193947	-1.267157	-0.337054
H235	H	-0.997849	-0.953109	-0.460468
H236	H	-0.291715	-0.961132	-0.647432
H237	H	-0.264944	-0.932628	-0.977720
