data_functionalizedCrystal
_audit_creation_method	'MofGen! by Chris Wilmer'
_symmetry_space_group_name_H-M	'P1'
_symmetry_Int_Tables_number	1
_symmetry_cell_setting	triclinic
loop_
_symmetry_equiv_pos_as_xyz
  x,y,z
_cell_length_a	14.519709
_cell_length_b	16.098538
_cell_length_c	14.519709
_cell_angle_alpha	87.273050
_cell_angle_beta	83.680145
_cell_angle_gamma	92.738106
loop_
_atom_site_label
_atom_site_type_symbol
_atom_site_fract_x
_atom_site_fract_y
_atom_site_fract_z
O1	O	1.227984	0.069149	0.116783
O2	O	1.477984	0.319149	0.366783
O3	O	1.727984	0.569149	0.616783
O4	O	1.977984	0.819149	0.866783
O5	O	0.959508	0.069175	0.131018
O6	O	1.209508	0.319175	0.381018
O7	O	1.459508	0.569175	0.631018
O8	O	1.709508	0.819175	0.881018
O9	O	1.100864	0.069154	-0.010338
O10	O	1.350864	0.319154	0.239662
O11	O	1.600864	0.569154	0.489662
O12	O	1.850864	0.819154	0.739662
O13	O	1.086628	0.069170	0.258138
O14	O	1.336628	0.319170	0.508138
O15	O	1.586628	0.569170	0.758138
O16	O	1.836628	0.819170	1.008138
O17	O	1.092606	-0.069358	-0.002113
O18	O	1.342606	0.180642	0.247887
O19	O	1.592606	0.430642	0.497887
O20	O	1.842606	0.680642	0.747887
O21	O	0.951251	-0.069337	0.139243
O22	O	1.201251	0.180663	0.389243
O23	O	1.451251	0.430663	0.639243
O24	O	1.701251	0.680663	0.889243
O25	O	1.219726	-0.069363	0.125008
O26	O	1.469726	0.180637	0.375008
O27	O	1.719726	0.430637	0.625008
O28	O	1.969726	0.680637	0.875008
Zn29	Zn	1.084178	-0.091341	0.133431
Zn30	Zn	1.334178	0.158659	0.383431
Zn31	Zn	1.584178	0.408659	0.633431
Zn32	Zn	1.834178	0.658659	0.883431
Zn33	Zn	1.095057	0.091154	0.122595
Zn34	Zn	1.345057	0.341154	0.372595
Zn35	Zn	1.595057	0.591154	0.622595
Zn36	Zn	1.845057	0.841154	0.872595
O37	O	1.078371	-0.069342	0.266363
O38	O	1.328371	0.180658	0.516363
O39	O	1.578371	0.430658	0.766363
O40	O	1.828371	0.680658	1.016363
C41	C	0.921020	-0.000078	0.134467
C42	C	1.171020	0.249922	0.384467
C43	C	1.421020	0.499922	0.634467
C44	C	1.671020	0.749922	0.884467
C45	C	0.818639	-0.000068	0.132478
C46	C	1.068639	0.249932	0.382478
C47	C	1.318639	0.499932	0.632478
C48	C	1.568639	0.749932	0.882478
C49	C	0.443741	-0.000107	0.125161
C50	C	0.693741	0.249893	0.375161
C51	C	0.943741	0.499893	0.625161
C52	C	1.193741	0.749893	0.875161
C53	C	0.548050	-0.000096	0.127193
C54	C	0.798050	0.249904	0.377193
C55	C	1.048050	0.499904	0.627193
C56	C	1.298050	0.749904	0.877193
C57	C	0.631187	-0.000087	0.128819
C58	C	0.881187	0.249913	0.378819
C59	C	1.131187	0.499913	0.628819
C60	C	1.381187	0.749913	0.878819
C61	C	0.735502	-0.000077	0.130852
C62	C	0.985502	0.249923	0.380852
C63	C	1.235502	0.499923	0.630852
C64	C	1.485502	0.749923	0.880852
N65	N	1.076759	-0.215889	0.140826
N66	N	1.326759	0.034111	0.390826
N67	N	1.576759	0.284111	0.640826
N68	N	1.826759	0.534111	0.890826
C69	C	1.136778	-0.259483	0.080851
C70	C	1.386778	-0.009483	0.330851
C71	C	1.636778	0.240517	0.580851
C72	C	1.886778	0.490517	0.830851
C73	C	1.131598	-0.346672	0.086033
C74	C	1.381598	-0.096672	0.336033
C75	C	1.631598	0.153328	0.586033
C76	C	1.881598	0.403328	0.836033
C77	C	1.066402	-0.390264	0.151195
C78	C	1.316402	-0.140264	0.401195
C79	C	1.566402	0.109736	0.651195
C80	C	1.816402	0.359736	0.901195
C81	C	1.006376	-0.346664	0.211174
C82	C	1.256376	-0.096664	0.461174
C83	C	1.506376	0.153336	0.711174
C84	C	1.756376	0.403336	0.961174
C85	C	1.011553	-0.259478	0.205987
C86	C	1.261553	-0.009478	0.455987
C87	C	1.511553	0.240522	0.705987
C88	C	1.761553	0.490522	0.955987
C89	C	1.047634	-0.653512	0.169983
C90	C	1.297634	-0.403512	0.419983
C91	C	1.547634	-0.153512	0.669983
C92	C	1.797634	0.096488	0.919983
C93	C	1.042464	-0.740704	0.175168
C94	C	1.292464	-0.490704	0.425168
C95	C	1.542464	-0.240704	0.675168
C96	C	1.792464	0.009296	0.925168
C97	C	1.167684	-0.740706	0.050025
C98	C	1.417684	-0.490706	0.300025
C99	C	1.667684	-0.240706	0.550025
C100	C	1.917684	0.009294	0.800025
C101	C	1.172859	-0.653517	0.044847
C102	C	1.422859	-0.403517	0.294847
C103	C	1.672859	-0.153517	0.544847
C104	C	1.922859	0.096483	0.794847
C105	C	1.112831	-0.609925	0.104822
C106	C	1.362831	-0.359925	0.354822
C107	C	1.612831	-0.109925	0.604822
C108	C	1.862831	0.140075	0.854822
C109	C	1.061106	-0.479385	0.156496
C110	C	1.311106	-0.229385	0.406496
C111	C	1.561106	0.020615	0.656496
C112	C	1.811106	0.270615	0.906496
C113	C	1.118122	-0.520806	0.099517
C114	C	1.368122	-0.270806	0.349517
C115	C	1.618122	-0.020806	0.599517
C116	C	1.868122	0.229194	0.849517
C117	C	1.258215	-0.000108	0.121559
C118	C	1.508215	0.249892	0.371559
C119	C	1.758215	0.499892	0.621559
C120	C	2.008215	0.749892	0.871559
C121	C	1.360596	-0.000112	0.123547
C122	C	1.610596	0.249888	0.373547
C123	C	1.860596	0.499888	0.623547
C124	C	2.110596	0.749888	0.873547
C125	C	1.096072	-0.000102	-0.040585
C126	C	1.346072	0.249898	0.209415
C127	C	1.596072	0.499898	0.459415
C128	C	1.846072	0.749898	0.709415
C129	C	1.094083	-0.000102	-0.142966
C130	C	1.344083	0.249898	0.107034
C131	C	1.594083	0.499898	0.357034
C132	C	1.844083	0.749898	0.607034
N133	N	1.102483	0.215702	0.115192
N134	N	1.352483	0.465702	0.365192
N135	N	1.602483	0.715702	0.615192
N136	N	1.852483	0.965702	0.865192
C137	C	1.086765	-0.000080	-0.517863
C138	C	1.336765	0.249920	-0.267863
C139	C	1.586765	0.499920	-0.017863
C140	C	1.836765	0.749920	0.232137
C141	C	1.088797	-0.000087	-0.413555
C142	C	1.338797	0.249913	-0.163555
C143	C	1.588797	0.499913	0.086445
C144	C	1.838797	0.749913	0.336445
C145	C	1.090424	-0.000092	-0.330418
C146	C	1.340424	0.249908	-0.080418
C147	C	1.590424	0.499908	0.169582
C148	C	1.840424	0.749908	0.419582
C149	C	1.092457	-0.000097	-0.226103
C150	C	1.342457	0.249903	0.023897
C151	C	1.592457	0.499903	0.273897
C152	C	1.842457	0.749903	0.523897
C153	C	1.083163	-0.000084	0.296610
C154	C	1.333163	0.249916	0.546610
C155	C	1.583163	0.499916	0.796610
C156	C	1.833163	0.749916	1.046610
C157	C	1.085152	-0.000078	0.398991
C158	C	1.335152	0.249922	0.648991
C159	C	1.585152	0.499922	0.898991
C160	C	1.835152	0.749922	1.148991
H161	H	1.189872	-0.223996	0.027792
H162	H	1.439872	0.026004	0.277792
H163	H	1.689872	0.276004	0.527792
H164	H	1.939872	0.526004	0.777792
F165	F	0.983751	-0.607124	0.233815
F166	F	1.233751	-0.357124	0.483815
F167	F	1.483751	-0.107124	0.733815
F168	F	1.733751	0.142876	0.983815
F169	F	0.936984	-0.393059	0.280521
F170	F	1.186984	-0.143059	0.530521
F171	F	1.436984	0.106941	0.780521
F172	F	1.686984	0.356941	1.030521
F173	F	0.947670	-0.213083	0.269819
F174	F	1.197670	0.036917	0.519819
F175	F	1.447670	0.286917	0.769819
F176	F	1.697670	0.536917	1.019819
F177	F	1.187503	-0.474411	0.030165
F178	F	1.437503	-0.224411	0.280165
F179	F	1.687503	0.025589	0.530165
F180	F	1.937503	0.275589	0.780165
H181	H	1.216556	-0.776207	0.001195
H182	H	1.466556	-0.526207	0.251195
H183	H	1.716556	-0.276207	0.501195
H184	H	1.966556	-0.026207	0.751195
F185	F	1.195475	-0.393068	0.022199
F186	F	1.445475	-0.143068	0.272199
F187	F	1.695475	0.106932	0.522199
F188	F	1.945475	0.356932	0.772199
F189	F	1.242249	-0.607124	-0.024505
F190	F	1.492249	-0.357124	0.225495
F191	F	1.742249	-0.107124	0.475495
F192	F	1.992249	0.142876	0.725495
F193	F	0.973070	-0.787093	0.244529
F194	F	1.223070	-0.537093	0.494529
F195	F	1.473070	-0.287093	0.744529
F196	F	1.723070	-0.037093	0.994529
H197	H	1.008024	-0.514885	0.209554
H198	H	1.258024	-0.264885	0.459554
H199	H	1.508024	-0.014885	0.709554
H200	H	1.758024	0.235115	0.959554
