data_functionalizedCrystal
_audit_creation_method	'MofGen! by Chris Wilmer'
_symmetry_space_group_name_H-M	'P1'
_symmetry_Int_Tables_number	1
_symmetry_cell_setting	triclinic
loop_
_symmetry_equiv_pos_as_xyz
  x,y,z
_cell_length_a	14.971486
_cell_length_b	14.971486
_cell_length_c	14.048226
_cell_angle_alpha	89.993360
_cell_angle_beta	89.998499
_cell_angle_gamma	83.614129
loop_
_atom_site_label
_atom_site_type_symbol
_atom_site_fract_x
_atom_site_fract_y
_atom_site_fract_z
O1	O	1.186947	0.116565	-0.079052
O2	O	0.926547	0.130523	-0.079078
O3	O	1.063726	-0.006656	-0.079057
O4	O	1.049768	0.253744	-0.079072
O5	O	1.063710	-0.006664	0.079264
O6	O	0.926530	0.130515	0.079244
O7	O	1.186930	0.116556	0.079270
Zn8	Zn	1.056728	0.123535	0.104394
Zn9	Zn	1.056750	0.123545	-0.104202
O10	O	1.049751	0.253736	0.079249
C11	C	0.893214	0.129895	0.000080
C12	C	0.793917	0.128024	0.000070
C13	C	0.736692	0.208614	0.000067
C14	C	0.643392	0.206850	0.000081
C15	C	0.607320	0.124497	0.000092
C16	C	0.664552	0.043902	0.000098
C17	C	0.757850	0.045666	0.000090
C18	C	0.470090	0.040231	0.000111
C19	C	0.376786	0.038466	0.000117
C20	C	0.355632	0.201415	0.000102
C21	C	0.448930	0.203179	0.000094
C22	C	0.506156	0.122584	0.000099
C23	C	1.063094	-0.039985	0.000103
C24	C	1.061223	-0.139282	0.000102
C25	C	1.141812	-0.196507	0.000111
C26	C	1.140049	-0.289807	0.000101
C27	C	1.057696	-0.325879	0.000089
C28	C	0.977101	-0.268646	0.000078
C29	C	0.978865	-0.175349	0.000081
C30	C	0.973430	-0.463109	0.000074
C31	C	0.971665	-0.556413	0.000073
C32	C	1.134614	-0.577567	0.000094
C33	C	1.136378	-0.484269	0.000097
C34	C	1.055782	-0.427043	0.000088
C35	C	1.220263	0.117185	0.000110
C36	C	1.319561	0.119056	0.000114
C37	C	1.050384	0.287065	0.000087
C38	C	1.052254	0.386362	0.000082
N39	N	1.056719	0.123527	0.246754
N40	N	1.056765	0.123546	-0.246562
C41	C	1.117482	0.062809	0.296581
C42	C	1.117488	0.062808	0.396239
C43	C	1.056735	0.123531	0.446068
C44	C	0.995966	0.184252	0.396234
C45	C	0.995957	0.184247	0.296578
C46	C	0.995992	0.184258	0.603948
C47	C	0.996003	0.184264	0.703611
C48	C	1.117523	0.062819	0.703609
C49	C	1.117514	0.062815	0.603953
C50	C	1.056746	0.123537	0.554126
H51	H	0.766054	0.275675	0.000057
H52	H	1.166987	0.013375	0.563383
O53	O	1.176518	0.003708	0.751898
C54	C	1.161882	-0.084864	0.727578
H55	H	1.127396	-0.084814	0.655228
H56	H	1.229072	-0.128795	0.724161
H57	H	1.117346	-0.112606	0.783678
H58	H	0.347419	-0.028593	0.000127
O59	O	0.483859	0.283235	-0.000049
C60	C	0.454635	0.332356	-0.082061
H61	H	0.389903	0.307906	-0.109387
H62	H	0.441762	0.406829	-0.063629
H63	H	0.508607	0.322057	-0.139482
O64	O	0.900522	-0.119847	-0.000053
C65	C	0.850548	-0.136186	-0.082069
H66	H	0.872436	-0.206932	-0.109401
H67	H	0.775952	-0.129699	-0.063639
H68	H	0.862845	-0.085139	-0.139484
O69	O	0.891689	-0.591494	0.000222
C70	C	0.885784	-0.644853	0.082205
H71	H	0.932535	-0.622745	0.139527
H72	H	0.813699	-0.636558	0.109710
H73	H	0.906341	-0.718403	0.063672
O74	O	0.936890	0.243269	0.751869
C75	C	0.883257	0.296869	0.686523
H76	H	0.882214	0.260197	0.615487
H77	H	0.811845	0.310372	0.715326
H78	H	0.912343	0.363376	0.675916
O79	O	0.937087	0.243281	0.555439
C80	C	0.985040	0.298553	0.497795
H81	H	1.054990	0.263041	0.482864
H82	H	0.947718	0.312639	0.427719
H83	H	0.991188	0.364673	0.536188
O84	O	0.813569	-0.032536	0.000132
C85	C	0.903651	-0.013321	0.000101
H86	H	0.907301	0.056938	0.030068
H87	H	0.945867	-0.064684	0.046069
H88	H	0.930626	-0.016680	-0.075855
H89	H	0.516682	-0.025399	0.000116
H90	H	0.635175	-0.023152	0.000120
H91	H	1.166964	0.013367	0.436808
H92	H	1.200238	-0.624165	0.000099
H93	H	0.946496	0.233690	0.436810
O94	O	0.300136	0.279766	0.000230
C95	C	0.316488	0.329753	0.082228
H96	H	0.387239	0.307870	0.109559
H97	H	0.309998	0.404346	0.063776
H98	H	0.265450	0.317466	0.139653
H99	H	0.907800	-0.416517	0.000064
H100	H	0.596802	0.272474	0.000077
H101	H	0.910047	-0.298024	0.000062
H102	H	1.208874	-0.167145	0.000126
H103	H	1.205673	-0.336396	0.000110
O104	O	1.216398	-0.449271	-0.000057
C105	C	1.265553	-0.478511	-0.082036
H106	H	1.217406	-0.497963	-0.139354
H107	H	1.303669	-0.421947	-0.109551
H108	H	1.315330	-0.539263	-0.063493
H109	H	0.946477	0.233689	0.256010
H110	H	1.166957	0.013365	0.256017
