data_functionalizedCrystal
_audit_creation_method	'MofGen! by Chris Wilmer'
_symmetry_space_group_name_H-M	'P1'
_symmetry_Int_Tables_number	1
_symmetry_cell_setting	triclinic
loop_
_symmetry_equiv_pos_as_xyz
  x,y,z
_cell_length_a	19.077105
_cell_length_b	12.759400
_cell_length_c	19.076919
_cell_angle_alpha	92.274856
_cell_angle_beta	90.076224
_cell_angle_gamma	87.711168
loop_
_atom_site_label
_atom_site_type_symbol
_atom_site_fract_x
_atom_site_fract_y
_atom_site_fract_z
Zn1	Zn	1.058328	-0.508276	-0.440436
Zn2	Zn	1.062987	-0.677203	-0.322935
Zn3	Zn	0.945544	-0.494202	-0.318229
Zn4	Zn	0.940808	-0.676569	-0.435688
O5	O	1.001917	-0.589062	-0.379322
O6	O	1.157278	-0.536840	-0.428806
O7	O	1.051339	-0.647302	-0.223980
O8	O	0.960537	-0.349051	-0.334457
O9	O	1.160701	-0.660950	-0.342479
O10	O	1.043399	-0.359391	-0.424243
O11	O	0.965055	-0.512852	-0.220522
O12	O	0.846583	-0.512238	-0.329853
O13	O	0.952466	-0.659870	-0.534649
O14	O	0.843104	-0.646223	-0.416150
O15	O	1.038807	-0.536225	-0.538138
O16	O	1.046747	-0.824137	-0.337875
O17	O	0.956983	-0.823671	-0.420714
C18	C	0.819347	-0.577635	-0.371976
C19	C	0.741242	-0.572772	-0.368850
C20	C	1.001876	-0.862026	-0.379306
C21	C	1.001921	-0.978807	-0.379325
C22	C	0.702758	-0.640344	-0.412241
C23	C	0.629371	-0.635761	-0.409307
C24	C	0.594468	-0.563612	-0.362979
C25	C	0.632957	-0.496033	-0.319586
C26	C	0.706344	-0.500611	-0.322524
C27	C	0.375179	-0.542424	-0.349385
C28	C	0.301787	-0.537853	-0.346449
C29	C	0.298205	-0.677581	-0.436172
C30	C	0.371593	-0.682157	-0.439102
C31	C	0.410076	-0.614574	-0.395712
N32	N	0.519454	-0.558928	-0.359977
N33	N	0.485088	-0.619253	-0.398718
C34	C	1.048709	-1.033882	-0.336242
C35	C	1.048751	-1.143610	-0.336266
C36	C	0.955212	-1.143177	-0.422456
C37	C	0.955173	-1.033452	-0.422436
C38	C	1.095457	-0.979237	-0.293132
C39	C	1.142248	-1.034313	-0.250045
C40	C	1.142290	-1.144041	-0.250068
C41	C	1.095542	-1.198693	-0.293178
C42	C	1.185199	-0.600535	-0.386697
C43	C	1.263303	-0.605424	-0.389840
C44	C	0.994588	-0.599547	-0.562603
C45	C	0.991465	-0.604015	-0.640706
C46	C	1.001976	-0.315035	-0.379355
C47	C	1.002002	-0.198260	-0.379368
C48	C	1.034949	-0.541742	-0.679216
C49	C	1.032006	-0.545935	-0.752602
C50	C	0.985583	-0.612408	-0.787477
C51	C	0.942094	-0.674683	-0.748961
C52	C	0.945034	-0.670484	-0.675576
C53	C	0.971967	-0.631866	-1.006758
C54	C	0.969032	-0.636063	-1.080148
C55	C	1.058943	-0.507313	-1.083785
C56	C	1.061882	-0.503124	-1.010398
C57	C	1.018391	-0.565395	-0.971889
N58	N	0.982575	-0.616698	-0.862489
N59	N	1.021396	-0.561099	-0.896878
C60	C	1.009257	-0.578545	-0.196756
C61	C	1.012516	-0.573790	-0.118659
H62	H	0.731171	-0.699099	-0.449965
C63	C	1.110575	-0.826920	-0.360674
C64	C	1.095404	-0.858623	-0.293105
H65	H	1.110535	-0.752458	-0.360656
H66	H	1.155434	-0.855192	-0.374679
H67	H	1.076038	-0.851596	-0.392509
H68	H	1.129945	-0.833954	-0.261272
H69	H	1.050540	-0.830339	-0.279091
C70	C	0.515284	-0.690780	-0.444648
C71	C	0.587068	-0.710038	-0.457003
H72	H	0.489170	-0.736634	-0.474100
H73	H	0.505135	-0.702594	-0.396942
H74	H	0.502863	-0.620055	-0.454537
H75	H	0.599490	-0.780762	-0.447110
H76	H	0.597222	-0.698234	-0.504720
H77	H	1.180314	-0.989810	-0.214950
H78	H	1.095585	-1.288042	-0.293200
C79	C	0.936543	-0.682600	-0.892657
C80	C	0.924168	-0.700321	-0.964434
H81	H	0.907029	-0.724861	-0.866527
H82	H	0.984228	-0.700243	-0.882532
H83	H	0.926752	-0.610677	-0.880231
H84	H	0.933963	-0.772243	-0.976861
H85	H	0.876471	-0.682684	-0.974563
C86	C	0.450359	-0.707518	-0.536914
C87	C	0.409953	-0.761458	-0.490035
H88	H	0.474042	-0.756479	-0.568355
H89	H	0.420663	-0.661568	-0.562693
H90	H	0.483782	-0.667938	-0.511483
H91	H	0.376526	-0.801033	-0.515465
H92	H	0.439652	-0.807427	-0.464253
C93	C	0.184119	-0.732601	-0.471514
C94	C	0.255903	-0.751854	-0.483871
H95	H	0.158005	-0.778451	-0.500968
H96	H	0.173971	-0.744422	-0.423808
H97	H	0.171697	-0.661874	-0.481397
H98	H	0.268327	-0.822579	-0.473982
H99	H	0.266056	-0.740041	-0.531587
H100	H	1.180395	-1.188881	-0.214990
H101	H	0.917151	-1.187684	-0.457553
C102	C	0.909616	-0.721208	-0.561465
C103	C	0.897236	-0.738936	-0.633242
H104	H	0.880101	-0.763462	-0.535332
H105	H	0.957301	-0.738856	-0.551343
H106	H	0.899829	-0.649283	-0.549043
H107	H	0.907028	-0.810860	-0.645666
H108	H	0.849540	-0.721295	-0.643369
H109	H	0.273372	-0.479088	-0.308727
C110	C	0.862720	-1.044037	-0.507636
C111	C	0.903747	-0.972905	-0.469796
H112	H	0.830972	-1.006655	-0.536875
H113	H	0.892255	-1.090234	-0.535772
H114	H	0.837099	-1.083451	-0.475922
H115	H	0.929372	-0.933497	-0.501510
H116	H	0.874209	-0.926689	-0.441659
C117	C	1.123520	-0.414892	-0.690189
C118	C	1.085978	-0.468669	-0.640886
H119	H	1.155019	-0.369773	-0.666525
H120	H	1.149242	-0.463985	-0.719887
H121	H	1.091757	-0.374431	-0.717584
H122	H	1.117741	-0.509136	-0.613494
H123	H	1.060255	-0.419569	-0.611176
C124	C	0.955920	-0.781489	-1.162270
C125	C	0.917994	-0.709123	-1.118487
H126	H	0.924412	-0.826591	-1.185936
H127	H	0.981398	-0.745002	-1.195700
H128	H	0.987663	-0.821963	-1.134862
H129	H	0.886254	-0.668644	-1.145896
H130	H	0.892505	-0.745614	-1.085053
H131	H	1.067417	-0.495228	-0.783954
C132	C	0.371337	-0.403851	-0.260406
C133	C	0.417472	-0.468139	-0.301690
H134	H	0.397451	-0.357993	-0.230958
H135	H	0.341498	-0.363714	-0.289924
H136	H	0.343781	-0.446250	-0.232328
H137	H	0.445025	-0.425741	-0.329772
H138	H	0.447324	-0.508280	-0.272169
C139	C	0.792641	-0.485541	-0.231329
C140	C	0.748652	-0.426340	-0.274827
H141	H	0.818762	-0.439684	-0.201887
H142	H	0.765077	-0.527914	-0.203251
H143	H	0.823923	-0.529163	-0.259350
H144	H	0.717366	-0.382724	-0.246805
H145	H	0.776218	-0.383950	-0.302908
C146	C	0.522053	-0.426972	-0.275244
C147	C	0.594594	-0.416720	-0.268663
H148	H	0.498372	-0.378010	-0.243802
H149	H	0.508154	-0.413660	-0.321989
H150	H	0.510437	-0.496197	-0.264393
H151	H	0.606212	-0.347497	-0.279519
H152	H	0.608498	-0.430024	-0.221908
C153	C	1.150454	-0.376270	-1.021367
C154	C	1.112909	-0.430049	-0.972067
H155	H	1.181953	-0.331154	-0.997700
H156	H	1.176175	-0.425363	-1.051065
H157	H	1.118693	-0.335806	-1.048762
H158	H	1.144669	-0.470519	-0.944675
H159	H	1.087185	-0.380949	-0.942356
H160	H	1.094350	-0.456614	-1.115147
H161	H	0.904293	-0.728803	-0.777361
