data_functionalizedCrystal
_audit_creation_method	'MofGen! by Chris Wilmer'
_symmetry_space_group_name_H-M	'P1'
_symmetry_Int_Tables_number	1
_symmetry_cell_setting	triclinic
loop_
_symmetry_equiv_pos_as_xyz
  x,y,z
_cell_length_a	21.395362
_cell_length_b	18.101397
_cell_length_c	21.395355
_cell_angle_alpha	90.019934
_cell_angle_beta	90.043940
_cell_angle_gamma	90.036343
loop_
_atom_site_label
_atom_site_type_symbol
_atom_site_fract_x
_atom_site_fract_y
_atom_site_fract_z
Zn1	Zn	0.957904	-0.294601	0.354579
Zn2	Zn	1.207904	-0.044601	0.604579
Zn3	Zn	1.457904	0.205399	0.854579
Zn4	Zn	1.707904	0.455399	1.104579
Zn5	Zn	0.957825	-0.418425	0.249799
Zn6	Zn	1.207825	-0.168425	0.499799
Zn7	Zn	1.457825	0.081575	0.749799
Zn8	Zn	1.707825	0.331575	0.999799
Zn9	Zn	0.853119	-0.294636	0.249781
Zn10	Zn	1.103119	-0.044636	0.499781
Zn11	Zn	1.353119	0.205364	0.749781
Zn12	Zn	1.603119	0.455364	0.999781
Zn13	Zn	0.853107	-0.418440	0.354504
Zn14	Zn	1.103107	-0.168440	0.604504
Zn15	Zn	1.353107	0.081560	0.854504
Zn16	Zn	1.603107	0.331560	1.104504
O17	O	0.905489	-0.356526	0.302166
O18	O	1.155489	-0.106526	0.552166
O19	O	1.405489	0.143474	0.802166
O20	O	1.655489	0.393474	1.052166
O21	O	1.045572	-0.311006	0.340720
O22	O	1.295572	-0.061006	0.590720
O23	O	1.545572	0.188994	0.840720
O24	O	1.795572	0.438994	1.090720
O25	O	0.943908	-0.402012	0.162119
O26	O	1.193908	-0.152012	0.412119
O27	O	1.443908	0.097988	0.662119
O28	O	1.693908	0.347988	0.912119
O29	O	0.867057	-0.190998	0.263706
O30	O	1.117057	0.059002	0.513706
O31	O	1.367057	0.309002	0.763706
O32	O	1.617057	0.559002	1.013706
O33	O	1.045514	-0.401979	0.263738
O34	O	1.295514	-0.151979	0.513738
O35	O	1.545514	0.098021	0.763738
O36	O	1.795514	0.348021	1.013738
O37	O	0.944042	-0.190973	0.340701
O38	O	1.194042	0.059027	0.590701
O39	O	1.444042	0.309027	0.840701
O40	O	1.694042	0.559027	1.090701
O41	O	0.866981	-0.311065	0.162105
O42	O	1.116981	-0.061065	0.412105
O43	O	1.366981	0.188935	0.662105
O44	O	1.616981	0.438935	0.912105
O45	O	0.765439	-0.311080	0.263633
O46	O	1.015439	-0.061080	0.513633
O47	O	1.265439	0.188920	0.763633
O48	O	1.515439	0.438920	1.013633
O49	O	0.867036	-0.402005	0.442192
O50	O	1.117036	-0.152005	0.692192
O51	O	1.367036	0.097995	0.942192
O52	O	1.617036	0.347995	1.192192
O53	O	0.765431	-0.402038	0.340573
O54	O	1.015431	-0.152038	0.590573
O55	O	1.265431	0.097962	0.840573
O56	O	1.515431	0.347962	1.090573
O57	O	0.944030	-0.311021	0.442247
O58	O	1.194030	-0.061021	0.692247
O59	O	1.444030	0.188979	0.942247
O60	O	1.694030	0.438979	1.192247
O61	O	0.943896	-0.522060	0.263665
O62	O	1.193896	-0.272060	0.513665
O63	O	1.443896	-0.022060	0.763665
O64	O	1.693896	0.227940	1.013665
O65	O	0.866960	-0.522071	0.340591
O66	O	1.116960	-0.272071	0.590591
O67	O	1.366960	-0.022071	0.840591
O68	O	1.616960	0.227929	1.090591
C69	C	0.742701	-0.356565	0.302093
C70	C	0.992701	-0.106565	0.552093
C71	C	1.242701	0.143435	0.802093
C72	C	1.492701	0.393435	1.052093
C73	C	0.673060	-0.356599	0.302077
C74	C	0.923060	-0.106599	0.552077
C75	C	1.173060	0.143401	0.802077
C76	C	1.423060	0.393401	1.052077
C77	C	0.640359	-0.404024	0.342080
C78	C	0.890359	-0.154024	0.592080
C79	C	1.140359	0.095976	0.842080
C80	C	1.390359	0.345976	1.092080
C81	C	0.574923	-0.404006	0.342107
C82	C	0.824923	-0.154006	0.592107
C83	C	1.074923	0.095994	0.842107
C84	C	1.324923	0.345994	1.092107
C85	C	0.542192	-0.356571	0.302122
C86	C	0.792192	-0.106571	0.552122
C87	C	1.042192	0.143429	0.802122
C88	C	1.292192	0.393429	1.052122
C89	C	0.574901	-0.309137	0.262116
C90	C	0.824901	-0.059137	0.512116
C91	C	1.074901	0.190863	0.762116
C92	C	1.324901	0.440863	1.012116
C93	C	0.640335	-0.309151	0.262094
C94	C	0.890335	-0.059151	0.512094
C95	C	1.140335	0.190849	0.762094
C96	C	1.390335	0.440849	1.012094
C97	C	0.438466	-0.350605	0.245717
C98	C	0.688466	-0.100605	0.495717
C99	C	0.938466	0.149395	0.745717
C100	C	1.188466	0.399395	0.995717
C101	C	0.373033	-0.350596	0.245738
C102	C	0.623033	-0.100596	0.495738
C103	C	0.873033	0.149404	0.745738
C104	C	1.123033	0.399404	0.995738
C105	C	0.340371	-0.356522	0.302191
C106	C	0.590371	-0.106522	0.552191
C107	C	0.840371	0.143478	0.802191
C108	C	1.090371	0.393478	1.052191
C109	C	0.373150	-0.362474	0.358624
C110	C	0.623150	-0.112474	0.608624
C111	C	0.873150	0.137526	0.858624
C112	C	1.123150	0.387526	1.108624
C113	C	0.438584	-0.362488	0.358602
C114	C	0.688584	-0.112488	0.608602
C115	C	0.938584	0.137512	0.858602
C116	C	1.188584	0.387512	1.108602
C117	C	0.471239	-0.356550	0.302142
C118	C	0.721239	-0.106550	0.552142
C119	C	0.971239	0.143450	0.802142
C120	C	1.221239	0.393450	1.052142
C121	C	0.236717	-0.403930	0.342227
C122	C	0.486717	-0.153930	0.592227
C123	C	0.736717	0.096070	0.842227
C124	C	0.986717	0.346070	1.092227
C125	C	0.171280	-0.403907	0.342256
C126	C	0.421280	-0.153907	0.592256
C127	C	0.671280	0.096093	0.842256
C128	C	0.921280	0.346093	1.092256
C129	C	0.171259	-0.309042	0.262259
C130	C	0.421259	-0.059042	0.512259
C131	C	0.671259	0.190958	0.762259
C132	C	0.921259	0.440958	1.012259
C133	C	0.236695	-0.309061	0.262236
C134	C	0.486695	-0.059061	0.512236
C135	C	0.736695	0.190939	0.762236
C136	C	0.986695	0.440939	1.012236
C137	C	0.269420	-0.356509	0.302219
C138	C	0.519420	-0.106509	0.552219
C139	C	0.769420	0.143491	0.802219
C140	C	1.019420	0.393491	1.052219
C141	C	0.905435	-0.548936	0.302136
C142	C	1.155435	-0.298936	0.552136
C143	C	1.405435	-0.048936	0.802136
C144	C	1.655435	0.201064	1.052136
C145	C	0.905470	-0.631250	0.302144
C146	C	1.155470	-0.381250	0.552144
C147	C	1.405470	-0.131250	0.802144
C148	C	1.655470	0.118750	1.052144
C149	C	0.905550	-0.930341	0.302201
C150	C	1.155550	-0.680341	0.552201
C151	C	1.405550	-0.430341	0.802201
C152	C	1.655550	-0.180341	1.052201
C153	C	0.953821	-0.898978	0.253671
C154	C	1.203821	-0.648978	0.503671
C155	C	1.453821	-0.398978	0.753671
C156	C	1.703821	-0.148978	1.003671
C157	C	0.953988	-0.813359	0.253797
C158	C	1.203988	-0.563359	0.503797
C159	C	1.453988	-0.313359	0.753797
C160	C	1.703988	-0.063359	1.003797
C161	C	0.905510	-0.781959	0.302172
C162	C	1.155510	-0.531959	0.552172
C163	C	1.405510	-0.281959	0.802172
C164	C	1.655510	-0.031959	1.052172
C165	C	0.923415	-0.812974	0.368221
C166	C	1.173415	-0.562974	0.618221
C167	C	1.423415	-0.312974	0.868221
C168	C	1.673415	-0.062974	1.118221
C169	C	0.923789	-0.898619	0.367956
C170	C	1.173789	-0.648619	0.617956
C171	C	1.423789	-0.398619	0.867956
C172	C	1.673789	-0.148619	1.117956
C173	C	0.839245	-0.898868	0.285253
C174	C	1.089245	-0.648868	0.535253
C175	C	1.339245	-0.398868	0.785253
C176	C	1.589245	-0.148868	1.035253
C177	C	0.839572	-0.813218	0.283779
C178	C	1.089572	-0.563218	0.533779
C179	C	1.339572	-0.313218	0.783779
C180	C	1.589572	-0.063218	1.033779
C181	C	0.905486	-0.698099	0.302159
C182	C	1.155486	-0.448099	0.552159
C183	C	1.405486	-0.198099	0.802159
C184	C	1.655486	0.051901	1.052159
C185	C	0.905575	-1.014201	0.302217
C186	C	1.155575	-0.764201	0.552217
C187	C	1.405575	-0.514201	0.802217
C188	C	1.655575	-0.264201	1.052217
C189	C	1.068912	-0.356487	0.302239
C190	C	1.318912	-0.106487	0.552239
C191	C	1.568912	0.143513	0.802239
C192	C	1.818912	0.393513	1.052239
C193	C	1.138553	-0.356470	0.302271
C194	C	1.388553	-0.106470	0.552271
C195	C	1.638553	0.143530	0.802271
C196	C	1.888553	0.393530	1.052271
C197	C	0.905541	-0.356511	0.465589
C198	C	1.155541	-0.106511	0.715589
C199	C	1.405541	0.143489	0.965589
C200	C	1.655541	0.393489	1.215589
C201	C	0.905563	-0.356504	0.535231
C202	C	1.155563	-0.106504	0.785231
C203	C	1.405563	0.143496	1.035231
C204	C	1.655563	0.393496	1.285231
C205	C	0.905560	-0.163364	0.302210
C206	C	1.155560	0.086636	0.552210
C207	C	1.405560	0.336636	0.802210
C208	C	1.655560	0.586636	1.052210
C209	C	0.905590	-0.081050	0.302229
C210	C	1.155590	0.168950	0.552229
C211	C	1.405590	0.418950	0.802229
C212	C	1.655590	0.668950	1.052229
C213	C	0.905473	-0.356487	0.139378
C214	C	1.155473	-0.106487	0.389378
C215	C	1.405473	0.143513	0.639378
C216	C	1.655473	0.393513	0.889378
C217	C	0.905572	-0.356285	0.069737
C218	C	1.155572	-0.106285	0.319737
C219	C	1.405572	0.143715	0.569737
C220	C	1.655572	0.393715	0.819737
C221	C	0.945652	-0.309127	0.567974
C222	C	1.195652	-0.059127	0.817974
C223	C	1.445652	0.190873	1.067974
C224	C	1.695652	0.440873	1.317974
C225	C	0.945651	-0.309095	0.633409
C226	C	1.195651	-0.059095	0.883409
C227	C	1.445651	0.190905	1.133409
C228	C	1.695651	0.440905	1.383409
C229	C	0.905568	-0.356454	0.666099
C230	C	1.155568	-0.106454	0.916099
C231	C	1.405568	0.143546	1.166099
C232	C	1.655568	0.393546	1.416099
C233	C	0.865471	-0.403834	0.633348
C234	C	1.115471	-0.153834	0.883348
C235	C	1.365471	0.096166	1.133348
C236	C	1.615471	0.346166	1.383348
C237	C	0.865469	-0.403859	0.567914
C238	C	1.115469	-0.153859	0.817914
C239	C	1.365469	0.096141	1.067914
C240	C	1.615469	0.346141	1.317914
C241	C	0.900602	-0.423137	0.769761
C242	C	1.150602	-0.173137	1.019761
C243	C	1.400602	0.076863	1.269761
C244	C	1.650602	0.326863	1.519761
C245	C	0.900609	-0.423113	0.835194
C246	C	1.150609	-0.173113	1.085194
C247	C	1.400609	0.076887	1.335194
C248	C	1.650609	0.326887	1.585194
C249	C	0.905572	-0.356375	0.867920
C250	C	1.155572	-0.106375	1.117920
C251	C	1.405572	0.143625	1.367920
C252	C	1.655572	0.393625	1.617920
C253	C	0.910541	-0.289660	0.835204
C254	C	1.160541	-0.039660	1.085204
C255	C	1.410541	0.210340	1.335204
C256	C	1.660541	0.460340	1.585204
C257	C	0.910539	-0.289685	0.769770
C258	C	1.160539	-0.039685	1.019770
C259	C	1.410539	0.210315	1.269770
C260	C	1.660539	0.460315	1.519770
C261	C	0.905566	-0.356431	0.737051
C262	C	1.155566	-0.106431	0.987051
C263	C	1.405566	0.143569	1.237051
C264	C	1.655566	0.393569	1.487051
C265	C	0.945662	-0.308960	0.971615
C266	C	1.195662	-0.058960	1.221615
C267	C	1.445662	0.191040	1.471615
C268	C	1.695662	0.441040	1.721615
C269	C	0.945657	-0.308927	1.037052
C270	C	1.195657	-0.058927	1.287052
C271	C	1.445657	0.191073	1.537052
C272	C	1.695657	0.441073	1.787052
C273	C	0.865480	-0.403672	1.036990
C274	C	1.115480	-0.153672	1.286990
C275	C	1.365480	0.096328	1.536990
C276	C	1.615480	0.346328	1.786990
C277	C	0.865482	-0.403699	0.971555
C278	C	1.115482	-0.153699	1.221555
C279	C	1.365482	0.096301	1.471555
C280	C	1.615482	0.346301	1.721555
C281	C	0.905576	-0.356344	0.938871
C282	C	1.155576	-0.106344	1.188871
C283	C	1.405576	0.143656	1.438871
C284	C	1.655576	0.393656	1.688871
H285	H	0.144610	-0.270415	0.229705
H286	H	0.394610	-0.020415	0.479705
H287	H	0.644610	0.229585	0.729705
H288	H	0.894610	0.479585	0.979705
H289	H	0.972255	-0.918525	0.382310
H290	H	1.222255	-0.668525	0.632310
H291	H	1.472255	-0.418525	0.882310
H292	H	1.722255	-0.168525	1.132310
Cl293	Cl	0.277860	-0.463573	0.392494
Cl294	Cl	0.527860	-0.213573	0.642494
Cl295	Cl	0.777860	0.036427	0.892494
Cl296	Cl	1.027860	0.286427	1.142494
H297	H	0.832833	-0.442392	0.659968
H298	H	1.082833	-0.192392	0.909968
H299	H	1.332833	0.057608	1.159968
H300	H	1.582833	0.307608	1.409968
Cl301	Cl	0.815084	-0.463265	0.930390
Cl302	Cl	1.065084	-0.213265	1.180390
Cl303	Cl	1.315084	0.036735	1.430390
Cl304	Cl	1.565084	0.286735	1.680390
Cl305	Cl	0.815067	-0.463425	0.526749
Cl306	Cl	1.065067	-0.213425	0.776749
Cl307	Cl	1.315067	0.036575	1.026749
Cl308	Cl	1.565067	0.286575	1.276749
H309	H	0.889332	-0.792635	0.405352
H310	H	1.139332	-0.542635	0.655352
H311	H	1.389332	-0.292635	0.905352
H312	H	1.639332	-0.042635	1.155352
H313	H	0.803279	-0.919153	0.320599
H314	H	1.053279	-0.669153	0.570599
H315	H	1.303279	-0.419153	0.820599
H316	H	1.553279	-0.169153	1.070599
H317	H	0.978301	-0.270342	1.063710
H318	H	1.228301	-0.020342	1.313710
H319	H	1.478301	0.229658	1.563710
H320	H	1.728301	0.479658	1.813710
Cl321	Cl	0.479520	-0.343156	0.174740
Cl322	Cl	0.729520	-0.093156	0.424740
Cl323	Cl	0.979520	0.156844	0.674740
Cl324	Cl	1.229520	0.406844	0.924740
Cl325	Cl	0.894381	-0.507045	0.728628
Cl326	Cl	1.144381	-0.257045	0.978628
Cl327	Cl	1.394381	-0.007045	1.228628
Cl328	Cl	1.644381	0.242955	1.478628
H329	H	0.666960	-0.270530	0.229519
H330	H	0.916960	-0.020530	0.479519
H331	H	1.166960	0.229470	0.729519
H332	H	1.416960	0.479470	0.979519
Cl333	Cl	0.331832	-0.343113	0.174794
Cl334	Cl	0.581832	-0.093113	0.424794
Cl335	Cl	0.831832	0.156887	0.674794
Cl336	Cl	1.081832	0.406887	0.924794
H337	H	0.548247	-0.270513	0.229561
H338	H	0.798247	-0.020513	0.479561
H339	H	1.048247	0.229487	0.729561
H340	H	1.298247	0.479487	0.979561
Cl341	Cl	0.916783	-0.205756	0.876337
Cl342	Cl	1.166783	0.044244	1.126337
Cl343	Cl	1.416783	0.294244	1.376337
Cl344	Cl	1.666783	0.544244	1.626337
H345	H	0.890171	-0.919365	0.405362
H346	H	1.140171	-0.669365	0.655362
H347	H	1.390171	-0.419365	0.905362
H348	H	1.640171	-0.169365	1.155362
Cl349	Cl	0.894368	-0.506983	0.876316
Cl350	Cl	1.144368	-0.256983	1.126316
Cl351	Cl	1.394368	-0.006983	1.376316
Cl352	Cl	1.644368	0.243017	1.626316
Cl353	Cl	0.781053	-0.780234	0.334352
Cl354	Cl	1.031053	-0.530234	0.584352
Cl355	Cl	1.281053	-0.280234	0.834352
Cl356	Cl	1.531053	-0.030234	1.084352
Cl357	Cl	0.277807	-0.249440	0.211942
Cl358	Cl	0.527807	0.000560	0.461942
Cl359	Cl	0.777807	0.250560	0.711942
Cl360	Cl	1.027807	0.500560	0.961942
H361	H	0.971339	-0.791454	0.382816
H362	H	1.221339	-0.541454	0.632816
H363	H	1.471339	-0.291454	0.882816
H364	H	1.721339	-0.041454	1.132816
H365	H	0.822957	-0.920524	0.237924
H366	H	1.072957	-0.670524	0.487924
H367	H	1.322957	-0.420524	0.737924
H368	H	1.572957	-0.170524	0.987924
Cl369	Cl	0.818722	-0.781926	0.208736
Cl370	Cl	1.068722	-0.531926	0.458736
Cl371	Cl	1.318722	-0.281926	0.708736
Cl372	Cl	1.568722	-0.031926	0.958736
Cl373	Cl	0.996053	-0.249590	0.526889
Cl374	Cl	1.246053	0.000410	0.776889
Cl375	Cl	1.496053	0.250410	1.026889
Cl376	Cl	1.746053	0.500410	1.276889
H377	H	0.346558	-0.367299	0.404594
H378	H	0.596558	-0.117299	0.654594
H379	H	0.846558	0.132701	0.904594
H380	H	1.096558	0.382701	1.154594
H381	H	0.548292	-0.442624	0.374685
H382	H	0.798292	-0.192624	0.624685
H383	H	1.048292	0.057376	0.874685
H384	H	1.298292	0.307376	1.124685
H385	H	0.942785	-0.792391	0.204823
H386	H	1.192785	-0.542391	0.454823
H387	H	1.442785	-0.292391	0.704823
H388	H	1.692785	-0.042391	0.954823
H389	H	0.666999	-0.442659	0.374638
H390	H	0.916999	-0.192659	0.624638
H391	H	1.166999	0.057341	0.874638
H392	H	1.416999	0.307341	1.124638
H393	H	0.465270	-0.367332	0.404552
H394	H	0.715270	-0.117332	0.654552
H395	H	0.965270	0.132668	0.904552
H396	H	1.215270	0.382668	1.154552
Cl397	Cl	0.936739	-0.930843	0.177831
Cl398	Cl	1.186739	-0.680843	0.427831
Cl399	Cl	1.436739	-0.430843	0.677831
Cl400	Cl	1.686739	-0.180843	0.927831
Cl401	Cl	0.916780	-0.205819	0.728644
Cl402	Cl	1.166780	0.044181	0.978644
Cl403	Cl	1.416780	0.294181	1.228644
Cl404	Cl	1.666780	0.544181	1.478644
H405	H	0.144656	-0.442524	0.374835
H406	H	0.394656	-0.192524	0.624835
H407	H	0.644656	0.057476	0.874835
H408	H	0.894656	0.307476	1.124835
Cl409	Cl	0.996040	-0.249516	0.674580
Cl410	Cl	1.246040	0.000484	0.924580
Cl411	Cl	1.496040	0.250484	1.174580
Cl412	Cl	1.746040	0.500484	1.424580
H413	H	0.978306	-0.270396	0.945003
H414	H	1.228306	-0.020396	1.195003
H415	H	1.478306	0.229604	1.445003
H416	H	1.728306	0.479604	1.695003
H417	H	1.002667	-0.920433	0.264757
H418	H	1.252667	-0.670433	0.514757
H419	H	1.502667	-0.420433	0.764757
H420	H	1.752667	-0.170433	1.014757
H421	H	1.003103	-0.792802	0.265012
H422	H	1.253103	-0.542802	0.515012
H423	H	1.503103	-0.292802	0.765012
H424	H	1.753103	-0.042802	1.015012
H425	H	0.832837	-0.442225	1.063605
H426	H	1.082837	-0.192225	1.313605
H427	H	1.332837	0.057775	1.563605
H428	H	1.582837	0.307775	1.813605
