data_functionalizedCrystal
_audit_creation_method	'MofGen! by Chris Wilmer'
_symmetry_space_group_name_H-M	'P1'
_symmetry_Int_Tables_number	1
_symmetry_cell_setting	triclinic
loop_
_symmetry_equiv_pos_as_xyz
  x,y,z
_cell_length_a	16.959455
_cell_length_b	13.897448
_cell_length_c	16.959447
_cell_angle_alpha	89.970632
_cell_angle_beta	89.985678
_cell_angle_gamma	90.014639
loop_
_atom_site_label
_atom_site_type_symbol
_atom_site_fract_x
_atom_site_fract_y
_atom_site_fract_z
Zn1	Zn	1.208397	-0.384074	-0.446914
Zn2	Zn	1.208325	-0.545393	-0.314738
Zn3	Zn	1.076225	-0.384105	-0.314751
Zn4	Zn	1.076195	-0.545321	-0.446876
O5	O	1.142286	-0.464723	-0.380820
O6	O	1.318998	-0.405491	-0.429390
O7	O	1.190784	-0.524040	-0.204128
O8	O	1.093801	-0.249119	-0.332305
O9	O	1.318945	-0.524011	-0.332281
O10	O	1.190907	-0.249097	-0.429404
O11	O	1.093731	-0.405543	-0.204139
O12	O	0.965610	-0.405473	-0.332268
O13	O	1.093750	-0.523888	-0.557492
O14	O	0.965589	-0.523917	-0.429340
O15	O	1.190878	-0.405421	-0.557520
O16	O	1.190755	-0.680365	-0.332244
O17	O	1.093680	-0.680312	-0.429326
C18	C	0.936919	-0.464691	-0.380802
C19	C	0.849063	-0.464701	-0.380813
C20	C	0.477574	-0.402998	-0.330380
C21	C	0.477600	-0.526527	-0.431305
C22	C	0.560146	-0.526513	-0.431300
C23	C	0.601410	-0.464742	-0.380834
C24	C	0.560128	-0.402985	-0.330372
C25	C	0.601434	-0.588276	-0.481754
C26	C	0.683985	-0.588266	-0.481751
C27	C	0.725251	-0.526489	-0.431288
C28	C	0.683963	-0.464728	-0.380825
C29	C	0.725227	-0.402957	-0.330359
C30	C	0.683941	-0.341191	-0.279900
C31	C	0.601393	-0.341208	-0.279909
C32	C	0.807799	-0.526472	-0.431279
C33	C	0.807781	-0.402944	-0.330351
C34	C	1.142228	-0.715337	-0.380797
C35	C	1.142276	-0.822551	-0.380814
C36	C	1.142359	-1.018846	-0.380863
C37	C	1.142310	-0.909614	-0.380838
C38	C	1.348454	-0.464756	-0.380838
C39	C	1.436310	-0.464770	-0.380846
C40	C	1.142319	-0.464643	-0.586988
C41	C	1.142333	-0.464609	-0.674845
C42	C	1.142365	-0.213130	-0.380860
C43	C	1.142399	-0.105916	-0.380877
C44	C	1.091857	-0.526188	-1.046309
C45	C	1.192997	-0.402827	-1.046333
C46	C	1.192976	-0.402848	-0.963787
C47	C	1.142395	-0.464540	-0.922498
C48	C	1.091836	-0.526212	-0.963755
C49	C	1.243540	-0.341184	-0.922523
C50	C	1.243522	-0.341203	-0.839972
C51	C	1.192937	-0.402891	-0.798682
C52	C	1.142375	-0.464564	-0.839944
C53	C	1.091794	-0.526257	-0.798655
C54	C	1.041227	-0.587926	-0.839916
C55	C	1.041251	-0.587900	-0.922465
C56	C	1.192913	-0.402917	-0.716134
C57	C	1.091773	-0.526281	-0.716102
C58	C	1.142298	-0.464733	-0.175454
C59	C	1.142437	-0.464495	-0.087597
H60	H	0.443956	-0.352707	-0.289300
C61	C	0.985592	-0.655783	-0.794493
H62	H	0.992824	-0.646959	-0.739422
H63	H	0.997137	-0.720593	-0.808007
H64	H	0.932487	-0.641645	-0.808018
H65	H	0.841372	-0.352635	-0.289260
C66	C	0.853210	-0.594405	-0.486777
H67	H	0.816812	-0.631194	-0.516835
H68	H	0.885401	-0.636378	-0.456477
H69	H	0.885424	-0.557548	-0.521273
H70	H	0.443998	-0.576824	-0.472387
H71	H	1.000085	-0.638111	-0.956067
C72	C	0.729337	-0.273246	-0.224391
H73	H	0.784412	-0.282087	-0.231619
H74	H	0.715789	-0.287277	-0.171262
H75	H	0.715826	-0.208451	-0.236061
H76	H	1.234086	-0.352709	-0.682543
H77	H	1.050577	-0.576511	-0.682490
H78	H	0.567771	-0.290922	-0.238827
H79	H	0.717593	-0.638559	-0.522839
H80	H	0.567831	-0.638574	-0.522836
H81	H	1.050685	-0.576395	-1.079907
H82	H	1.234182	-0.352606	-1.079955
H83	H	1.284725	-0.290963	-0.956147
C84	C	1.299135	-0.273362	-0.794593
H85	H	1.329257	-0.236614	-0.831007
H86	H	1.333555	-0.310269	-0.762377
H87	H	1.268895	-0.231334	-0.762405
