data_functionalizedCrystal
_audit_creation_method	'MofGen! by Chris Wilmer'
_symmetry_space_group_name_H-M	'P1'
_symmetry_Int_Tables_number	1
_symmetry_cell_setting	triclinic
loop_
_symmetry_equiv_pos_as_xyz
  x,y,z
_cell_length_a	18.101395
_cell_length_b	15.298206
_cell_length_c	15.298259
_cell_angle_alpha	72.647385
_cell_angle_beta	99.713753
_cell_angle_gamma	80.369303
loop_
_atom_site_label
_atom_site_type_symbol
_atom_site_fract_x
_atom_site_fract_y
_atom_site_fract_z
Zn1	Zn	-0.443935	1.330586	0.279395
Zn2	Zn	-0.593682	1.357352	0.123894
Zn3	Zn	-0.443981	1.201981	0.150848
Zn4	Zn	-0.541838	1.175033	0.306321
O5	O	-0.505859	1.266238	0.215114
O6	O	-0.485476	1.464259	0.236218
O7	O	-0.595540	1.359222	-0.002674
O8	O	-0.340351	1.219117	0.167911
O9	O	-0.595496	1.483925	0.121973
O10	O	-0.340317	1.313602	0.262354
O11	O	-0.485555	1.245071	0.017128
O12	O	-0.435284	1.068283	0.194020
O13	O	-0.507135	1.173187	0.432893
O14	O	-0.507180	1.048484	0.308246
O15	O	-0.435206	1.287472	0.413110
O16	O	-0.690429	1.333091	0.148081
O17	O	-0.652339	1.199142	0.282110
C18	C	-0.465612	1.024644	0.256980
C19	C	-0.448408	0.921286	0.274912
C20	C	-0.698253	1.266118	0.215108
C21	C	-0.780570	1.266147	0.215122
C22	C	-0.383101	0.862479	0.342916
C23	C	-0.366930	0.765368	0.359767
C24	C	-0.416067	0.727053	0.308621
C25	C	-0.481377	0.785860	0.240620
C26	C	-0.497547	0.882981	0.223763
C27	C	-0.530512	0.747556	0.189467
C28	C	-0.595823	0.806362	0.121467
C29	C	-0.611990	0.903473	0.104613
C30	C	-0.562853	0.941788	0.155759
C31	C	-0.514343	0.650434	0.206325
C32	C	-0.628788	0.670936	0.087172
C33	C	-0.644960	0.768047	0.070321
C34	C	-1.079686	1.266342	0.215137
C35	C	-1.024425	1.182201	0.299613
C36	C	-0.938788	1.181899	0.299447
C37	C	-0.931291	1.266245	0.215131
C38	C	-0.974360	1.256666	0.121711
C39	C	-1.059857	1.256130	0.122223
C40	C	-1.060228	1.360368	0.223190
C41	C	-0.974122	1.359418	0.225440
C42	C	-0.847425	1.266193	0.215121
C43	C	-1.163552	1.266393	0.215141
C44	C	-0.312714	1.266380	0.215136
C45	C	-0.230407	1.266440	0.215145
C46	C	-0.465382	1.224338	0.457690
C47	C	-0.448133	1.206482	0.561061
C48	C	-0.546264	1.508775	0.173085
C49	C	-0.563482	1.612130	0.155175
C50	C	-0.546134	1.308029	-0.026527
C51	C	-0.563204	1.326064	-0.129929
C52	C	-0.628573	1.393883	0.811198
C53	C	-0.644783	1.410655	0.714076
C54	C	-0.595622	1.359613	0.675818
C55	C	-0.530248	1.291797	0.734690
C56	C	-0.514040	1.275019	0.831822
C57	C	-0.481089	1.240749	0.696442
C58	C	-0.415715	1.172933	0.755314
C59	C	-0.399509	1.156159	0.852437
C60	C	-0.448671	1.207200	0.890695
C61	C	-0.497297	1.257527	0.599310
C62	C	-0.382764	1.138663	0.619934
C63	C	-0.366554	1.121892	0.717056
H64	H	-0.402894	0.647981	0.322342
H65	H	-0.435475	1.193551	0.969779
H66	H	-0.698016	1.465862	0.666151
H67	H	-0.608825	1.373272	0.596736
H68	H	-0.313326	1.066675	0.765003
H69	H	-0.971603	1.316770	0.057799
H70	H	-0.342733	1.097100	0.588785
C71	C	-0.287922	1.040356	0.863064
C72	C	-0.327652	1.081612	0.917152
H73	H	-0.243558	0.994339	0.903017
H74	H	-0.320578	1.011305	0.831345
H75	H	-0.272673	1.087447	0.818159
H76	H	-0.342906	1.034523	0.962052
H77	H	-0.294990	1.110663	0.948886
H78	H	-0.343099	0.893685	0.384547
H79	H	-0.944735	1.189265	0.112396
H80	H	-1.036679	1.112571	0.295756
C81	C	-0.447217	0.593389	0.369061
C82	C	-0.442562	0.585798	0.281074
H83	H	-0.402902	0.553480	0.415212
H84	H	-0.449813	0.656705	0.366334
H85	H	-0.492089	0.575115	0.385315
H86	H	-0.397692	0.604079	0.264818
H87	H	-0.439958	0.522469	0.283800
C88	C	-1.011760	1.380852	0.370089
C89	C	-1.078941	1.376626	0.312372
H90	H	-1.023315	1.390887	0.425146
H91	H	-0.974510	1.323295	0.387374
H92	H	-0.991900	1.431251	0.336891
H93	H	-1.098798	1.326223	0.345568
H94	H	-1.116204	1.434190	0.295088
H95	H	-0.313755	0.717494	0.415134
C96	C	-0.654577	1.420924	0.950938
C97	C	-0.682609	1.449977	0.853255
H98	H	-0.687938	1.455560	0.976899
H99	H	-0.652348	1.355696	0.977667
H100	H	-0.604436	1.431829	0.964493
H101	H	-0.732748	1.439065	0.839700
H102	H	-0.684846	1.515221	0.826516
H103	H	-0.576024	1.020861	0.142055
C104	C	-0.723493	0.913982	-0.011470
C105	C	-0.683776	0.968116	0.029862
H106	H	-0.767812	0.953890	-0.057614
H107	H	-0.690802	0.882245	-0.040397
H108	H	-0.738811	0.869108	0.035572
H109	H	-0.668453	1.012985	-0.017179
H110	H	-0.716474	0.999869	0.058789
C111	C	-0.685968	0.668181	-0.065190
C112	C	-0.682805	0.628829	0.030948
H113	H	-0.719308	0.642175	-0.099895
H114	H	-0.704946	0.734426	-0.084957
H115	H	-0.635794	0.654613	-0.075916
H116	H	-0.732978	0.642402	0.041676
H117	H	-0.663830	0.562569	0.050722
H118	H	-1.035557	1.186024	0.369680
C119	C	-1.002616	1.442380	0.059092
C120	C	-0.968811	1.446691	0.146599
H121	H	-0.999341	1.496261	0.010416
H122	H	-0.976266	1.387168	0.051115
H123	H	-1.055173	1.440803	0.056397
H124	H	-0.916252	1.448262	0.149298
H125	H	-0.995160	1.501918	0.154579
C126	C	-0.950217	1.190866	0.450801
C127	C	-0.897721	1.187315	0.393685
H128	H	-0.924862	1.194197	0.508986
H129	H	-0.991286	1.244918	0.419993
H130	H	-0.970095	1.135881	0.462172
H131	H	-0.877847	1.242304	0.382308
H132	H	-0.856637	1.133258	0.424499
H133	H	-0.908993	1.111862	0.295458
H134	H	-1.098118	1.422849	0.161455
H135	H	-0.945068	1.366949	0.294107
H136	H	-1.071469	1.187901	0.113421
C137	C	-1.095402	1.323128	-0.046462
C138	C	-1.111565	1.336501	0.035601
H139	H	-1.127330	1.372739	-0.099935
H140	H	-1.042863	1.322926	-0.046195
H141	H	-1.105063	1.264653	-0.048916
H142	H	-1.101898	1.394973	0.038058
H143	H	-1.164116	1.336712	0.035334
H144	H	-0.698136	0.815941	0.014955
H145	H	-0.550522	1.312749	0.551384
