data_functionalizedCrystal
_audit_creation_method	'MofGen! by Chris Wilmer'
_symmetry_space_group_name_H-M	'P1'
_symmetry_Int_Tables_number	1
_symmetry_cell_setting	triclinic
loop_
_symmetry_equiv_pos_as_xyz
  x,y,z
_cell_length_a	16.625546
_cell_length_b	12.759401
_cell_length_c	12.759393
_cell_angle_alpha	89.980678
_cell_angle_beta	90.036194
_cell_angle_gamma	89.979618
loop_
_atom_site_label
_atom_site_type_symbol
_atom_site_fract_x
_atom_site_fract_y
_atom_site_fract_z
Zn1	Zn	-0.320999	-1.606199	0.593971
Zn2	Zn	-0.455856	-1.606069	0.418277
Zn3	Zn	-0.321036	-1.430501	0.418308
Zn4	Zn	-0.455788	-1.430465	0.593916
O5	O	-0.388420	-1.518308	0.506118
O6	O	-0.338901	-1.753202	0.570675
O7	O	-0.438015	-1.582740	0.271260
O8	O	-0.208199	-1.453876	0.441646
O9	O	-0.437979	-1.753107	0.441593
O10	O	-0.208171	-1.582961	0.570705
O11	O	-0.338964	-1.453751	0.271282
O12	O	-0.338898	-1.283475	0.441592
O13	O	-0.437865	-1.453816	0.740944
O14	O	-0.437900	-1.283449	0.570611
O15	O	-0.338835	-1.582927	0.740984
O16	O	-0.568679	-1.582706	0.441539
O17	O	-0.568630	-1.453691	0.570581
C18	C	-0.388397	-1.245341	0.506099
C19	C	-0.388406	-1.128564	0.506117
C20	C	-0.440037	-1.073716	0.573184
C21	C	-0.440044	-0.963992	0.573194
C22	C	-0.336787	-0.963974	0.439059
C23	C	-0.336776	-1.073696	0.439055
C24	C	-0.491668	-1.128585	0.640246
C25	C	-0.543304	-1.073737	0.707318
C26	C	-0.543311	-0.964013	0.707328
C27	C	-0.491681	-0.909137	0.640265
C28	C	-0.597911	-1.518209	0.506074
C29	C	-0.687532	-1.518263	0.506090
C30	C	-1.015707	-1.518446	0.506199
C31	C	-0.924399	-1.518392	0.506172
C32	C	-0.851622	-1.518353	0.506144
C33	C	-0.760308	-1.518301	0.506118
C34	C	-0.178111	-1.518437	0.506185
C35	C	-0.088490	-1.518492	0.506213
C36	C	-0.388338	-1.518382	0.780151
C37	C	-0.388304	-1.518413	0.896928
C38	C	-0.388436	-0.792342	0.506133
C39	C	-0.388423	-0.909118	0.506130
C40	C	-0.388443	-1.518296	0.233150
C41	C	-0.388250	-1.518468	0.116374
C42	C	-0.336734	-1.585650	0.951813
C43	C	-0.336705	-1.585675	1.061537
C44	C	-0.439822	-1.451223	1.061482
C45	C	-0.439846	-1.451194	0.951759
C46	C	-0.285192	-1.652870	0.896981
C47	C	-0.233619	-1.720113	0.951866
C48	C	-0.233590	-1.720138	1.061590
C49	C	-0.285133	-1.652920	1.116429
H50	H	-0.491669	-1.217928	0.640243
H51	H	-0.585333	-1.118424	0.761925
H52	H	-0.491684	-0.819792	0.640288
Br53	Br	-0.163601	-1.811396	1.136075
Br54	Br	-0.613378	-0.889578	0.798364
Br55	Br	-0.285233	-1.652846	0.748070
H56	H	-0.294753	-0.919285	0.384459
H57	H	-0.294727	-1.118354	0.384451
H58	H	-0.191649	-1.774833	0.907209
Br59	Br	-0.285079	-1.652937	1.265342
H60	H	-0.481786	-1.396497	1.106140
H61	H	-0.481826	-1.396427	0.907071
