data_functionalizedCrystal
_audit_creation_method	'MofGen! by Chris Wilmer'
_symmetry_space_group_name_H-M	'P1'
_symmetry_Int_Tables_number	1
_symmetry_cell_setting	triclinic
loop_
_symmetry_equiv_pos_as_xyz
  x,y,z
_cell_length_a	13.635800
_cell_length_b	13.248448
_cell_length_c	9.582880
_cell_angle_alpha	96.375985
_cell_angle_beta	68.792966
_cell_angle_gamma	140.315483
loop_
_atom_site_label
_atom_site_type_symbol
_atom_site_fract_x
_atom_site_fract_y
_atom_site_fract_z
V1	V	-2.201060	-0.224628	0.495453
O2	O	-2.043884	0.011501	0.456242
O3	O	-2.317260	-0.446079	0.520706
O4	O	-2.194054	-0.220862	0.698471
O5	O	-2.167943	-0.215275	0.277247
V6	V	-2.422453	-0.196421	0.465875
O7	O	-2.376368	-0.286502	0.560337
O8	O	-2.472244	-0.134546	0.400992
O9	O	-2.194650	0.025031	0.440622
O10	O	-2.638327	-0.432550	0.505086
O11	O	-2.514269	-0.205774	0.684081
O12	O	-2.317856	-0.200186	0.262858
V13	V	-1.701060	-0.224628	0.495453
O14	O	-1.543884	0.011501	0.456242
O15	O	-1.817260	-0.446079	0.520706
O16	O	-1.694054	-0.220862	0.698471
O17	O	-1.667943	-0.215275	0.277247
V18	V	-1.922453	-0.196421	0.465875
O19	O	-1.876368	-0.286502	0.560337
O20	O	-1.972244	-0.134546	0.400992
O21	O	-1.694650	0.025031	0.440622
O22	O	-2.138327	-0.432550	0.505086
O23	O	-2.014269	-0.205774	0.684081
O24	O	-1.817856	-0.200186	0.262858
C25	C	-1.773359	-0.500074	0.520281
C26	C	-1.909124	-0.681111	0.542281
C27	C	-2.273359	-0.500074	0.520281
C28	C	-2.409124	-0.681111	0.542281
C29	C	-2.116196	-0.212785	0.747035
C30	C	-2.152039	-0.211172	0.913191
C31	C	-2.070227	0.079017	0.441044
C32	C	-1.924083	0.260053	0.419054
C33	C	-2.227388	-0.208268	0.214286
C34	C	-2.181159	-0.209873	0.048128
C35	C	-1.616196	-0.212785	0.747035
C36	C	-1.652039	-0.211172	0.913191
C37	C	-1.570227	0.079017	0.441044
C38	C	-1.424083	0.260053	0.419054
C39	C	-1.727388	-0.208268	0.214286
C40	C	-1.681159	-0.209873	0.048128
C41	C	-2.569937	-0.774421	0.561155
C42	C	-2.697525	-0.944530	0.581851
C43	C	-2.664293	-1.021324	0.583661
C44	C	-2.503465	-0.928002	0.564789
C45	C	-2.375884	-0.757898	0.544105
C46	C	-1.435765	0.353361	0.400184
C47	C	-1.298450	0.523469	0.379496
C48	C	-1.149459	0.600263	0.377690
C49	C	-1.137779	0.506942	0.396557
C50	C	-1.275088	0.336840	0.417233
H51	H	-1.833043	-0.651818	0.296691
C52	C	-0.973873	0.591442	0.394565
N53	N	-0.850417	0.655093	0.393070
C54	C	-1.311360	0.626080	0.358810
N55	N	-1.321098	0.703357	0.343251
C56	C	-2.032125	-0.800178	0.707602
N57	N	-2.124767	-0.889860	0.832120
C58	C	-2.606536	-0.689982	0.559180
N59	N	-2.634119	-0.626396	0.557705
H60	H	-2.828466	-1.020488	0.597210
H61	H	-1.037666	0.738772	0.360852
H62	H	-2.768193	-1.159834	0.600504
H63	H	-2.476430	-0.990554	0.566266
C64	C	-2.198981	-0.655271	0.523320
N65	N	-2.065737	-0.577980	0.507662
H66	H	-1.557068	0.290859	0.401653
C67	C	-1.262220	0.234214	0.438010
N68	N	-1.252517	0.156924	0.453661
