data_functionalizedCrystal
_audit_creation_method	'MofGen! by Chris Wilmer'
_symmetry_space_group_name_H-M	'P1'
_symmetry_Int_Tables_number	1
_symmetry_cell_setting	triclinic
loop_
_symmetry_equiv_pos_as_xyz
  x,y,z
_cell_length_a	10.654550
_cell_length_b	14.048226
_cell_length_c	10.654551
_cell_angle_alpha	89.995355
_cell_angle_beta	95.514820
_cell_angle_gamma	90.003199
loop_
_atom_site_label
_atom_site_type_symbol
_atom_site_fract_x
_atom_site_fract_y
_atom_site_fract_z
O1	O	1.667845	0.079086	-0.176402
O2	O	2.167845	0.579086	0.323598
O3	O	1.302367	0.079103	-0.193208
O4	O	1.802367	0.579103	0.306792
O5	O	1.493508	0.079092	-0.002066
O6	O	1.993508	0.579092	0.497934
O7	O	1.476704	0.079097	-0.367544
O8	O	1.976704	0.579097	0.132456
O9	O	1.493485	-0.079230	-0.002054
O10	O	1.993485	0.420770	0.497946
O11	O	1.302344	-0.079219	-0.193196
O12	O	1.802344	0.420781	0.306804
O13	O	1.667822	-0.079236	-0.176390
O14	O	2.167822	0.420764	0.323610
Zn15	Zn	1.485079	-0.104364	-0.184791
Zn16	Zn	1.985079	0.395636	0.315209
Zn17	Zn	1.485110	0.104231	-0.184807
Zn18	Zn	1.985110	0.604231	0.315193
O19	O	1.476681	-0.079225	-0.367532
O20	O	1.976681	0.420775	0.132468
C21	C	1.255557	-0.000056	-0.191968
C22	C	1.755557	0.499944	0.308032
C23	C	1.116114	-0.000049	-0.188276
C24	C	1.616114	0.499951	0.311724
N25	N	1.485067	-0.246725	-0.184780
N26	N	1.985067	0.253275	0.315220
C27	C	1.036629	-0.000050	-0.300818
C28	C	1.536629	0.499950	0.199182
C29	C	0.905608	-0.000067	-0.297341
C30	C	1.405608	0.499933	0.202659
C31	C	0.933570	-0.000077	-0.068772
C32	C	1.433570	0.499923	0.431228
C33	C	1.064589	-0.000067	-0.072249
C34	C	1.564589	0.499933	0.427751
C35	C	1.569732	-0.296548	-0.100178
C36	C	2.069732	0.203452	0.399822
C37	C	1.569740	-0.396205	-0.100177
C38	C	2.069740	0.103795	0.399823
C39	C	1.485089	-0.446038	-0.184786
C40	C	1.985089	0.053962	0.315214
C41	C	1.400416	-0.396208	-0.269392
C42	C	1.900416	0.103792	0.230608
C43	C	1.400402	-0.296553	-0.269386
C44	C	1.900402	0.203447	0.230614
C45	C	1.400452	-0.603923	-0.269402
C46	C	1.900452	-0.103923	0.230598
C47	C	1.400467	-0.703585	-0.269410
C48	C	1.900467	-0.203585	0.230590
C49	C	1.569790	-0.703576	-0.100193
C50	C	2.069790	-0.203576	0.399807
C51	C	1.569777	-0.603920	-0.100187
C52	C	2.069777	-0.103920	0.399813
C53	C	1.485104	-0.554097	-0.184795
C54	C	1.985104	-0.054097	0.315205
C55	C	1.714632	-0.000075	-0.177630
C56	C	2.214632	0.499925	0.322370
C57	C	1.854075	-0.000076	-0.181322
C58	C	2.354075	0.499924	0.318678
C59	C	1.492262	-0.000068	0.044738
C60	C	1.992262	0.499932	0.544738
C61	C	1.488570	-0.000063	0.184181
C62	C	1.988570	0.499937	0.684181
N63	N	1.485131	0.246592	-0.184808
N64	N	1.985131	0.746592	0.315192
C65	C	1.477926	-0.000064	-0.414336
C66	C	1.977926	0.499936	0.085664
C67	C	1.481619	-0.000062	-0.553779
C68	C	1.981619	0.499938	-0.053779
C69	C	1.486850	0.086239	0.249679
C70	C	1.986850	0.586239	0.749679
C71	C	1.483370	0.086240	0.380699
C72	C	1.983370	0.586240	0.880699
C73	C	1.483336	-0.086371	0.380714
C74	C	1.983336	0.413629	0.880714
C75	C	1.486807	-0.086371	0.249695
C76	C	1.986807	0.413629	0.749695
H77	H	1.078576	-0.000043	-0.395294
H78	H	1.578576	0.499957	0.104706
F79	F	1.488626	-0.178230	0.179982
F80	F	1.988626	0.321770	0.679982
H81	H	1.129309	-0.000069	0.019401
H82	H	1.629309	0.499931	0.519401
F83	F	1.481458	-0.178220	0.450448
F84	F	1.981458	0.321780	0.950448
H85	H	0.840896	-0.000070	-0.388984
H86	H	1.340896	0.499930	0.111016
F87	F	0.878721	-0.000093	0.054705
F88	F	1.378721	0.499907	0.554705
H89	H	1.331499	-0.563360	-0.338295
H90	H	1.831499	-0.063360	0.161705
H91	H	1.638670	-0.255980	-0.031285
H92	H	2.138670	0.244020	0.468715
H93	H	1.638680	-0.436771	-0.031287
H94	H	2.138680	0.063229	0.468713
F95	F	1.659877	-0.550883	-0.010145
F96	F	2.159877	-0.050883	0.489855
H97	H	1.331485	-0.436788	-0.338278
H98	H	1.831485	0.063212	0.161722
F99	F	1.310367	-0.756614	-0.359461
F100	F	1.810367	-0.256614	0.140539
F101	F	1.659905	-0.756605	-0.010149
F102	F	2.159905	-0.256605	0.489851
H103	H	1.488282	0.156516	0.196341
H104	H	1.988282	0.656516	0.696341
F105	F	1.310286	-0.243529	-0.359428
F106	F	1.810286	0.256471	0.140572
F107	F	1.481536	0.178095	0.450401
F108	F	1.981536	0.678095	0.950401
