data_functionalizedCrystal
_audit_creation_method	'MofGen! by Chris Wilmer'
_symmetry_space_group_name_H-M	'P1'
_symmetry_Int_Tables_number	1
_symmetry_cell_setting	triclinic
loop_
_symmetry_equiv_pos_as_xyz
  x,y,z
_cell_length_a	12.645331
_cell_length_b	11.169416
_cell_length_c	11.169409
_cell_angle_alpha	90.030874
_cell_angle_beta	90.023363
_cell_angle_gamma	90.009319
loop_
_atom_site_label
_atom_site_type_symbol
_atom_site_fract_x
_atom_site_fract_y
_atom_site_fract_z
Zn1	Zn	1.620793	-0.477743	0.678668
Zn2	Zn	1.620695	-0.678483	0.477990
Zn3	Zn	1.443505	-0.477809	0.477990
Zn4	Zn	1.443512	-0.678379	0.678623
O5	O	1.532126	-0.578103	0.578318
O6	O	1.769127	-0.504387	0.652067
O7	O	1.597147	-0.651935	0.310040
O8	O	1.467061	-0.309851	0.504630
O9	O	1.769055	-0.651870	0.504630
O10	O	1.597313	-0.309802	0.652067
O11	O	1.466966	-0.504500	0.310040
O12	O	1.295159	-0.504399	0.504586
O13	O	1.467072	-0.651692	0.846579
O14	O	1.295164	-0.651757	0.651989
O15	O	1.597320	-0.504286	0.846612
O16	O	1.597153	-0.846419	0.504586
O17	O	1.466977	-0.846342	0.651989
C18	C	1.532084	-0.889928	0.578309
C19	C	1.532163	-1.023328	0.578345
C20	C	1.256696	-0.578075	0.578283
C21	C	1.138866	-0.578092	0.578297
C22	C	0.971264	-0.484962	0.486077
C23	C	1.093824	-0.485203	0.485670
C24	C	1.094360	-0.704527	0.543753
C25	C	0.971761	-0.704018	0.543124
C26	C	0.971715	-0.545989	0.705417
C27	C	1.094320	-0.543165	0.704711
C28	C	1.808631	-0.578133	0.578353
C29	C	1.926461	-0.578145	0.578369
C30	C	1.532207	-0.577970	0.891360
C31	C	1.532242	-0.577913	1.024761
C32	C	1.532197	-0.265061	0.578353
C33	C	1.532227	-0.131661	0.578368
C34	C	1.532106	-0.578150	0.266493
C35	C	1.532277	-0.577868	0.133094
H36	H	1.123914	-0.391447	0.507322
H37	H	1.123414	-0.450123	0.730759
Cl38	Cl	0.926001	-0.814845	0.642371
Cl39	Cl	1.141656	-0.640311	0.816560
Cl40	Cl	0.924004	-0.406125	0.753920
H41	H	0.941789	-0.390924	0.507496
H42	H	0.940417	-0.505982	0.392482
Cl43	Cl	1.139037	-0.518014	0.340311
H44	H	0.942744	-0.613860	0.774183
Cl45	Cl	0.927533	-0.746112	0.399725
H46	H	1.123538	-0.775811	0.608864
H47	H	1.125017	-0.732262	0.451871
