data_functionalizedCrystal
_audit_creation_method	'MofGen! by Chris Wilmer'
_symmetry_space_group_name_H-M	'P1'
_symmetry_Int_Tables_number	1
_symmetry_cell_setting	triclinic
loop_
_symmetry_equiv_pos_as_xyz
  x,y,z
_cell_length_a	13.101039
_cell_length_b	14.044220
_cell_length_c	14.044220
_cell_angle_alpha	93.188878
_cell_angle_beta	93.667477
_cell_angle_gamma	86.340132
loop_
_atom_site_label
_atom_site_type_symbol
_atom_site_fract_x
_atom_site_fract_y
_atom_site_fract_z
O1	O	0.085109	-1.281968	-0.225348
O2	O	0.585109	-0.781968	0.274652
O3	O	0.085135	-1.005298	-0.217041
O4	O	0.585135	-0.505298	0.282959
O5	O	0.085112	-1.139480	-0.082860
O6	O	0.585112	-0.639480	0.417140
O7	O	0.085132	-1.147787	-0.359530
O8	O	0.585132	-0.647787	0.140470
O9	O	-0.085316	-1.129854	-0.092504
O10	O	0.414684	-0.629854	0.407496
O11	O	-0.085293	-0.995673	-0.226686
O12	O	0.414707	-0.495673	0.273314
O13	O	-0.085319	-1.272343	-0.234993
O14	O	0.414681	-0.772343	0.265007
Zn15	Zn	-0.112365	-1.132479	-0.232371
Zn16	Zn	0.387635	-0.632479	0.267629
Zn17	Zn	0.112181	-1.145162	-0.219663
Zn18	Zn	0.612181	-0.645162	0.280337
O19	O	-0.085296	-1.138161	-0.369175
O20	O	0.414704	-0.638161	0.130825
C21	C	-0.000076	-0.964864	-0.218228
C22	C	0.499924	-0.464864	0.281772
C23	C	-0.000066	-0.858722	-0.207383
C24	C	0.499934	-0.358722	0.292617
C25	C	-0.000102	-1.131031	-0.052060
C26	C	0.499898	-0.631031	0.447940
C27	C	-0.000102	-1.120187	0.054083
C28	C	0.499898	-0.620187	0.554083
N29	N	-0.265612	-1.123831	-0.241043
N30	N	0.234388	-0.623831	0.258957
C31	C	-0.474653	-1.112065	-0.252851
C32	C	0.025347	-0.612065	0.247149
C33	C	-0.525538	-1.165580	-0.199179
C34	C	-0.025538	-0.665580	0.300821
C35	C	-0.641855	-1.159034	-0.205749
C36	C	-0.141855	-0.659034	0.294251
C37	C	-0.358325	-1.118610	-0.246282
C38	C	0.141675	-0.618610	0.253718
N39	N	0.265428	-1.153817	-0.210984
N40	N	0.765428	-0.653817	0.289016
C41	C	-0.000106	-1.312777	-0.233806
C42	C	0.499894	-0.812777	0.266194
C43	C	-0.000109	-1.418920	-0.244651
C44	C	0.499891	-0.918920	0.255349
C45	C	-0.000088	-0.664383	-0.187558
C46	C	0.499912	-0.164383	0.312442
C47	C	-0.000087	-0.613253	-0.264472
C48	C	0.499913	-0.113253	0.235528
C49	C	-0.000099	-0.505116	-0.253441
C50	C	0.499901	-0.005116	0.246559
C51	C	-0.000076	-0.772529	-0.198587
C52	C	0.499924	-0.272529	0.301413
C53	C	-0.000080	-1.146610	-0.399974
C54	C	0.499920	-0.646610	0.100026
C55	C	-0.000073	-1.157455	-0.506116
C56	C	0.499927	-0.657455	-0.006116
C57	C	-0.000086	-1.100362	0.248421
C58	C	0.499914	-0.600362	0.748421
C59	C	-0.000090	-1.177276	0.299551
C60	C	0.499910	-0.677276	0.799551
C61	C	-0.000080	-1.166245	0.407688
C62	C	0.499920	-0.666245	0.907688
C63	C	-0.000095	-1.111391	0.140275
C64	C	0.499905	-0.611391	0.640275
H65	H	-0.481744	-1.216314	-0.148295
H66	H	0.018256	-0.716314	0.351705
C67	C	-0.000057	-0.663825	-0.364618
C68	C	0.499943	-0.163825	0.135382
H69	H	-0.000038	-0.730926	-0.358993
H70	H	0.499962	-0.230926	0.141007
H71	H	-0.059481	-0.642539	-0.401697
H72	H	0.440519	-0.142539	0.098303
H73	H	0.059391	-0.649224	-0.394941
H74	H	0.559391	-0.149224	0.105059
H75	H	-0.000099	-0.626945	-0.113431
H76	H	0.499901	-0.126945	0.386569
C77	C	-0.533802	-1.043511	-0.321568
C78	C	-0.033802	-0.543511	0.178432
H79	H	-0.486582	-1.010781	-0.354372
H80	H	0.013418	-0.510781	0.145628
H81	H	-0.575668	-1.078945	-0.366503
H82	H	-0.075668	-0.578945	0.133497
H83	H	-0.575645	-0.998493	-0.286208
H84	H	-0.075645	-0.498493	0.213792
H85	H	-0.000028	-1.251413	0.262115
H86	H	0.499972	-0.751413	0.762115
C87	C	-0.000075	-1.000219	0.298988
C88	C	0.499925	-0.500219	0.798988
H89	H	-0.000067	-0.953407	0.252690
H90	H	0.499933	-0.453407	0.752690
H91	H	-0.059502	-0.989376	0.334380
H92	H	0.440498	-0.489376	0.834380
H93	H	0.059370	-0.996089	0.341088
H94	H	0.559370	-0.496089	0.841088
