data_functionalizedCrystal
_audit_creation_method	'MofGen! by Chris Wilmer'
_symmetry_space_group_name_H-M	'P1'
_symmetry_Int_Tables_number	1
_symmetry_cell_setting	triclinic
loop_
_symmetry_equiv_pos_as_xyz
  x,y,z
_cell_length_a	13.897449
_cell_length_b	13.897447
_cell_length_c	13.897441
_cell_angle_alpha	89.973472
_cell_angle_beta	90.020733
_cell_angle_gamma	89.977525
loop_
_atom_site_label
_atom_site_type_symbol
_atom_site_fract_x
_atom_site_fract_y
_atom_site_fract_z
Zn1	Zn	1.474679	0.383951	0.545408
Zn2	Zn	1.474563	0.545273	0.384121
Zn3	Zn	1.313368	0.383997	0.384127
Zn4	Zn	1.313340	0.545210	0.545374
O5	O	1.393988	0.464608	0.464758
O6	O	1.609645	0.405358	0.524026
O7	O	1.453144	0.523925	0.249140
O8	O	1.334827	0.249009	0.405538
O9	O	1.609560	0.523881	0.405529
O10	O	1.453341	0.248976	0.524031
O11	O	1.334714	0.405436	0.249144
O12	O	1.178383	0.405375	0.405504
O13	O	1.334779	0.523773	0.680360
O14	O	1.178362	0.523817	0.523972
O15	O	1.453314	0.405297	0.680386
O16	O	1.453116	0.680246	0.405495
O17	O	1.334666	0.680200	0.523967
C18	C	1.143373	0.464595	0.464736
C19	C	1.036159	0.464613	0.464749
C20	C	0.839864	0.464616	0.464774
C21	C	0.949097	0.464611	0.464758
C22	C	1.393902	0.715222	0.464748
C23	C	1.393954	0.822436	0.464775
C24	C	1.393998	0.909506	0.464802
C25	C	1.394062	1.018738	0.464832
C26	C	1.645581	0.464621	0.464780
C27	C	1.752795	0.464627	0.464790
C28	C	1.394056	0.464522	0.716351
C29	C	1.394085	0.464486	0.823565
C30	C	1.394093	1.213015	0.464801
C31	C	1.394119	1.105801	0.464851
C32	C	1.393975	0.464623	0.214143
C33	C	1.394133	0.464388	0.106930
C34	C	1.394111	0.464421	1.019860
C35	C	1.394094	0.464460	0.910627
