data_functionalizedCrystal
_audit_creation_method	'MofGen! by Chris Wilmer'
_symmetry_space_group_name_H-M	'P1'
_symmetry_Int_Tables_number	1
_symmetry_cell_setting	triclinic
loop_
_symmetry_equiv_pos_as_xyz
  x,y,z
_cell_length_a	17.038272
_cell_length_b	10.654550
_cell_length_c	9.730223
_cell_angle_alpha	90.004253
_cell_angle_beta	89.997612
_cell_angle_gamma	87.798243
loop_
_atom_site_label
_atom_site_type_symbol
_atom_site_fract_x
_atom_site_fract_y
_atom_site_fract_z
O1	O	-1.038890	-0.272864	-0.114118
O2	O	-0.811235	-0.268532	-0.114158
O3	O	-0.930296	-0.088445	-0.114128
O4	O	-0.919828	-0.452951	-0.114147
O5	O	-0.930289	-0.088439	0.114452
O6	O	-0.811227	-0.268526	0.114422
O7	O	-1.038882	-0.272858	0.114462
Zn8	Zn	-0.925053	-0.270691	0.150734
Zn9	Zn	-0.925063	-0.270699	-0.150430
O10	O	-0.919820	-0.452945	0.114433
C11	C	-0.782081	-0.264588	0.000127
C12	C	-0.695222	-0.252831	0.000112
C13	C	-1.068036	-0.276802	0.000174
C14	C	-1.154895	-0.288559	0.000181
C15	C	-0.929524	-0.041572	0.000161
C16	C	-0.927224	0.098084	0.000158
C17	C	-0.645711	-0.360775	0.000107
C18	C	-0.564098	-0.349720	0.000127
C19	C	-0.531999	-0.230720	0.000141
C20	C	-0.581517	-0.122768	0.000150
C21	C	-0.663127	-0.133824	0.000140
C22	C	-0.286023	-0.191663	0.000180
C23	C	-0.204406	-0.180615	0.000185
C24	C	-0.186993	-0.407568	0.000165
C25	C	-0.268606	-0.418614	0.000147
C26	C	-0.318117	-0.310661	0.000163
C27	C	-0.448578	-0.219418	0.000157
C28	C	-0.401536	-0.321965	0.000157
C29	C	-0.920593	-0.499817	0.000140
C30	C	-0.922892	-0.639474	0.000134
N31	N	-0.925052	-0.270685	0.356271
C32	C	-0.997326	0.171061	0.000170
C33	C	-0.995160	0.302283	0.000153
C34	C	-0.852785	0.287540	0.000118
C35	C	-0.854952	0.156320	0.000125
N36	N	-0.925071	-0.270695	-0.355966
C37	C	-0.977791	-0.190981	0.428210
C38	C	-0.977798	-0.190982	0.572093
C39	C	-0.872326	-0.350403	0.572085
C40	C	-0.872315	-0.350395	0.428204
H41	H	-0.671839	-0.457677	0.000094
C42	C	-0.814324	-0.438092	0.651213
C43	C	-0.814377	-0.438188	0.809475
C44	C	-0.756375	-0.525883	0.888598
C45	C	-0.698319	-0.613480	0.809458
C46	C	-0.698264	-0.613387	0.651187
C47	C	-0.756266	-0.525692	0.572064
H48	H	-0.857355	-0.373340	0.868067
H49	H	-0.756416	-0.525951	1.005762
H50	H	-0.655382	-0.678397	0.868030
H51	H	-0.655286	-0.678235	0.592595
H52	H	-0.756225	-0.525624	0.454900
H53	H	-1.020742	-0.126078	0.630662
C54	C	-1.035793	-0.103292	0.349082
C55	C	-1.093801	-0.015613	0.428222
C56	C	-1.151803	0.072081	0.349099
C57	C	-1.151798	0.072096	0.190836
C58	C	-1.093788	-0.015586	0.111687
C59	C	-1.035786	-0.103280	0.190810
H60	H	-1.093807	-0.015622	0.545385
H61	H	-1.194746	0.136989	0.407691
H62	H	-1.194735	0.137013	0.132265
H63	H	-1.093782	-0.015577	-0.005476
H64	H	-0.992843	-0.168188	0.132218
H65	H	-0.829366	-0.415300	0.369628
H66	H	-0.294735	-0.515516	0.000119
C67	C	-0.509639	-0.468465	0.000113
C68	C	-0.451130	-0.492074	-0.118576
C69	C	-0.396673	-0.610827	-0.118588
C70	C	-0.400725	-0.705971	0.000089
C71	C	-0.459236	-0.682365	0.118787
C72	C	-0.513693	-0.563612	0.118799
H73	H	-0.448129	-0.421640	-0.206435
H74	H	-0.353359	-0.628301	-0.206457
H75	H	-0.360412	-0.793879	0.000080
H76	H	-0.462237	-0.752799	0.206646
H77	H	-0.557008	-0.546139	0.206667
C78	C	-0.340474	-0.072913	0.000178
C79	C	-0.336435	0.022231	0.118871
C80	C	-0.390889	0.140988	0.118864
C81	C	-0.449381	0.164601	0.000164
C82	C	-0.453422	0.069454	-0.118539
C83	C	-0.398969	-0.049303	-0.118532
H84	H	-0.293133	0.004754	0.206749
H85	H	-0.387897	0.211422	0.206737
H86	H	-0.489691	0.252512	0.000159
H87	H	-0.496724	0.086931	-0.206416
H88	H	-0.401961	-0.119737	-0.206404
H89	H	-0.146674	-0.495456	0.000155
H90	H	-1.056175	0.123650	0.000194
H91	H	-1.052244	0.361695	0.000160
H92	H	-0.797863	0.096900	0.000111
H93	H	-0.178274	-0.083706	0.000195
H94	H	-0.555375	-0.025876	0.000181
H95	H	-0.793943	0.334971	0.000094
H96	H	-0.703439	-0.045924	0.000143
H97	H	-0.427675	-0.418854	0.000153
H98	H	-0.422434	-0.122528	0.000207
