data_functionalizedCrystal
_audit_creation_method	'MofGen! by Chris Wilmer'
_symmetry_space_group_name_H-M	'P1'
_symmetry_Int_Tables_number	1
_symmetry_cell_setting	triclinic
loop_
_symmetry_equiv_pos_as_xyz
  x,y,z
_cell_length_a	14.044220
_cell_length_b	23.532357
_cell_length_c	12.503572
_cell_angle_alpha	93.494896
_cell_angle_beta	86.164750
_cell_angle_gamma	88.008585
loop_
_atom_site_label
_atom_site_type_symbol
_atom_site_fract_x
_atom_site_fract_y
_atom_site_fract_z
O1	O	1.261863	0.134223	-0.089231
O2	O	1.595197	0.467556	0.244103
O3	O	1.928530	0.800889	0.577436
O4	O	0.985944	0.129270	-0.089257
O5	O	1.319277	0.462603	0.244076
O6	O	1.652611	0.795936	0.577410
O7	O	1.132247	0.049266	-0.089221
O8	O	1.465581	0.382599	0.244112
O9	O	1.798914	0.715932	0.577446
O10	O	1.115560	0.214227	-0.089267
O11	O	1.448893	0.547560	0.244067
O12	O	1.782227	0.880893	0.577400
O13	O	1.121244	0.055293	0.089418
O14	O	1.454578	0.388627	0.422752
O15	O	1.787911	0.721960	0.756085
O16	O	0.974941	0.135297	0.089382
O17	O	1.308274	0.468631	0.422716
O18	O	1.641608	0.801964	0.756049
O19	O	1.250860	0.140250	0.089409
O20	O	1.584194	0.473584	0.422742
O21	O	1.917527	0.806917	0.756075
Cu22	Cu	1.111896	0.138324	0.105707
Cu23	Cu	1.445229	0.471658	0.439040
Cu24	Cu	1.778563	0.804991	0.772373
Cu25	Cu	1.124908	0.131196	-0.105555
Cu26	Cu	1.458242	0.464529	0.227778
Cu27	Cu	1.791575	0.797862	0.561112
O28	O	1.104557	0.220254	0.089373
O29	O	1.437890	0.553588	0.422706
O30	O	1.771224	0.886921	0.756039
C31	C	0.945149	0.130116	0.000060
C32	C	1.278482	0.463449	0.333393
C33	C	1.611816	0.796782	0.666726
C34	C	0.839987	0.123649	0.000051
C35	C	1.173320	0.456983	0.333384
C36	C	1.506653	0.790316	0.666717
C37	C	0.647439	0.111829	0.000075
C38	C	0.980772	0.445162	0.333409
C39	C	1.314105	0.778496	0.666742
C40	C	0.589361	0.157688	0.000067
C41	C	0.922694	0.491022	0.333400
C42	C	1.256027	0.824355	0.666734
C43	C	0.482220	0.151111	0.000081
C44	C	0.815553	0.484445	0.333414
C45	C	1.148887	0.817778	0.666747
C46	C	0.754589	0.118405	0.000062
C47	C	1.087922	0.451738	0.333395
C48	C	1.421256	0.785072	0.666728
C49	C	1.126328	0.031040	0.000102
C50	C	1.459661	0.364374	0.333435
C51	C	1.792995	0.697707	0.666769
C52	C	1.125072	-0.032246	0.000112
C53	C	1.458406	0.301087	0.333445
C54	C	1.791739	0.634421	0.666779
C55	C	1.123194	-0.427972	-0.097323
C56	C	1.456527	-0.094639	0.236010
C57	C	1.789861	0.238695	0.569344
C58	C	1.122001	-0.487436	-0.097329
C59	C	1.455335	-0.154103	0.236004
C60	C	1.788668	0.179230	0.569337
O61	O	1.126453	-0.520982	-0.180144
O62	O	1.459786	-0.187649	0.153189
O63	O	1.793120	0.145684	0.486523
N64	N	1.115412	-0.513894	0.000046
N65	N	1.448745	-0.180561	0.333379
N66	N	1.782079	0.152773	0.666712
C67	C	1.110005	-0.480884	0.097433
C68	C	1.443339	-0.147550	0.430766
C69	C	1.776672	0.185783	0.764100
O70	O	1.104290	-0.508848	0.180257
O71	O	1.437624	-0.175515	0.513591
O72	O	1.770957	0.157818	0.846924
C73	C	1.111191	-0.421420	0.097438
C74	C	1.444525	-0.088087	0.430772
C75	C	1.777858	0.245246	0.764105
C76	C	1.117791	-0.394966	0.000057
C77	C	1.451124	-0.061633	0.333390
C78	C	1.784457	0.271700	0.666724
C79	C	1.129792	-0.401518	-0.194696
C80	C	1.463125	-0.068184	0.138637
C81	C	1.796458	0.265149	0.471970
C82	C	1.130986	-0.342057	-0.194690
C83	C	1.464320	-0.008724	0.138644
C84	C	1.797653	0.324609	0.471977
C85	C	1.125583	-0.309052	-0.097310
C86	C	1.458916	0.024282	0.236024
C87	C	1.792250	0.357615	0.569357
C88	C	1.118985	-0.335506	0.000064
C89	C	1.452318	-0.002173	0.333397
C90	C	1.785652	0.331161	0.666730
C91	C	1.105778	-0.388411	0.194825
C92	C	1.439111	-0.055078	0.528158
C93	C	1.772445	0.278256	0.861491
C94	C	1.106964	-0.328944	0.194821
C95	C	1.440297	0.004390	0.528155
C96	C	1.773631	0.337723	0.861488
C97	C	1.113563	-0.302490	0.097440
C98	C	1.446897	0.030844	0.430773
C99	C	1.780230	0.364177	0.764107
C100	C	1.114776	-0.243040	0.097450
C101	C	1.448110	0.090293	0.430784
C102	C	1.781443	0.423627	0.764117
N103	N	1.121366	-0.216582	0.000075
N104	N	1.454699	0.116751	0.333409
N105	N	1.788032	0.450084	0.666742
C106	C	1.126769	-0.249588	-0.097305
C107	C	1.460102	0.083745	0.236029
C108	C	1.793436	0.417078	0.569362
C109	C	1.107513	-0.605761	0.097415
C110	C	1.440847	-0.272428	0.430748
C111	C	1.774180	0.060906	0.764082
C112	C	1.106334	-0.665223	0.097411
C113	C	1.439668	-0.331890	0.430744
C114	C	1.773001	0.001443	0.764078
C115	C	1.118328	-0.671772	-0.097352
C116	C	1.451662	-0.338439	0.235982
C117	C	1.784995	-0.005105	0.569315
C118	C	1.119514	-0.612309	-0.097347
C119	C	1.452848	-0.278975	0.235987
C120	C	1.786181	0.054358	0.569320
C121	C	1.114103	-0.579303	0.000040
C122	C	1.447436	-0.245970	0.333373
C123	C	1.780769	0.087363	0.666707
C124	C	1.129278	-0.124717	-0.097283
C125	C	1.462611	0.208616	0.236050
C126	C	1.795944	0.541949	0.569383
C127	C	1.130476	-0.065252	-0.097268
C128	C	1.463809	0.268082	0.236065
C129	C	1.797142	0.601415	0.569399
C130	C	1.118476	-0.058708	0.097494
C131	C	1.451810	0.274625	0.430827
C132	C	1.785143	0.607958	0.764161
C133	C	1.117283	-0.118169	0.097479
C134	C	1.450617	0.215164	0.430813
C135	C	1.783950	0.548498	0.764146
C136	C	1.122681	-0.151172	0.000082
C137	C	1.456015	0.182161	0.333415
C138	C	1.789348	0.515495	0.666749
O139	O	1.110324	-0.209458	0.180223
O140	O	1.443657	0.123876	0.513556
O141	O	1.776991	0.457209	0.846889
O142	O	1.132471	-0.221616	-0.180115
O143	O	1.465804	0.111718	0.153218
O144	O	1.799137	0.445051	0.486552
C145	C	1.291655	0.139404	0.000090
C146	C	1.624988	0.472738	0.333423
C147	C	1.958322	0.806071	0.666756
C148	C	1.396818	0.145870	0.000092
C149	C	1.730151	0.479204	0.333425
C150	C	2.063485	0.812537	0.666758
C151	C	1.110476	0.238480	0.000047
C152	C	1.443810	0.571813	0.333381
C153	C	1.777143	0.905146	0.666714
C154	C	1.111732	0.301766	0.000030
C155	C	1.445066	0.635099	0.333364
C156	C	1.778399	0.968432	0.666697
N157	N	1.102751	0.143338	0.254297
N158	N	1.436084	0.476671	0.587630
N159	N	1.769417	0.810005	0.920963
N160	N	1.134061	0.126178	-0.254145
N161	N	1.467394	0.459511	0.079188
N162	N	1.800728	0.792845	0.412522
C163	C	1.089298	0.150718	0.473409
C164	C	1.422631	0.484052	0.806742
C165	C	1.755964	0.817385	1.140075
C166	C	1.147511	0.118799	0.526750
C167	C	1.480844	0.452133	0.860083
C168	C	1.814178	0.785466	1.193417
C169	C	1.140026	0.122906	0.648671
C170	C	1.473359	0.456239	0.982005
C171	C	1.806692	0.789573	1.315338
C172	C	1.096782	0.146612	0.351476
C173	C	1.430115	0.479946	0.684810
C174	C	1.763449	0.813279	1.018143
H175	H	0.620103	0.201889	0.000050
H176	H	0.953437	0.535222	0.333383
H177	H	1.286770	0.868556	0.666716
F178	F	1.112728	-0.023571	0.201127
F179	F	1.446061	0.309762	0.534461
F180	F	1.779395	0.643096	0.867794
F181	F	1.220284	0.079236	0.466761
F182	F	1.553617	0.412569	0.800094
F183	F	1.886950	0.745902	1.133427
F184	F	1.101761	-0.570639	0.201074
F185	F	1.435094	-0.237306	0.534408
F186	F	1.768427	0.096027	0.867741
H187	H	0.616698	0.067632	0.000093
H188	H	0.950031	0.400965	0.333427
H189	H	1.283364	0.734298	0.666760
H190	H	1.100406	-0.409939	0.274123
H191	H	1.433739	-0.076606	0.607456
H192	H	1.767072	0.256727	0.940790
F193	F	1.016813	0.190466	0.533396
F194	F	1.350146	0.523799	0.866729
F195	F	1.683480	0.857133	1.200063
H196	H	1.135852	-0.043716	-0.176571
H197	H	1.469185	0.289617	0.156762
H198	H	1.802519	0.622951	0.490096
H199	H	1.133669	-0.151582	-0.176593
H200	H	1.467002	0.181752	0.156740
H201	H	1.800335	0.515085	0.490073
F202	F	1.126536	-0.584160	-0.200992
F203	F	1.459870	-0.250826	0.132341
F204	F	1.793203	0.082507	0.465675
F205	F	1.138004	-0.313910	-0.298337
F206	F	1.471337	0.019423	0.034996
F207	F	1.804670	0.352756	0.368330
H208	H	1.134189	-0.428385	-0.273999
H209	H	1.467522	-0.095052	0.059334
H210	H	1.800855	0.238282	0.392668
F211	F	1.124073	-0.706910	-0.200993
F212	F	1.457406	-0.373576	0.132340
F213	F	1.790740	-0.040243	0.465674
H214	H	1.100975	-0.686757	0.176709
H215	H	1.434308	-0.353424	0.510042
H216	H	1.767641	-0.020091	0.843375
H217	H	1.102543	-0.302073	0.274127
H218	H	1.435876	0.031260	0.607461
H219	H	1.769209	0.364593	0.940794
F220	F	1.110277	-0.146325	0.201123
F221	F	1.443610	0.187009	0.534456
F222	F	1.776944	0.520342	0.867789
