data_functionalizedCrystal
_audit_creation_method	'MofGen! by Chris Wilmer'
_symmetry_space_group_name_H-M	'P1'
_symmetry_Int_Tables_number	1
_symmetry_cell_setting	triclinic
loop_
_symmetry_equiv_pos_as_xyz
  x,y,z
_cell_length_a	19.077236
_cell_length_b	29.839131
_cell_length_c	19.076919
_cell_angle_alpha	92.267459
_cell_angle_beta	89.887323
_cell_angle_gamma	92.334053
loop_
_atom_site_label
_atom_site_type_symbol
_atom_site_fract_x
_atom_site_fract_y
_atom_site_fract_z
Zn1	Zn	1.058216	-0.163081	-0.440523
Zn2	Zn	1.391550	0.170252	-0.107190
Zn3	Zn	1.724883	0.503586	0.226143
Zn4	Zn	1.062823	-0.235077	-0.323009
Zn5	Zn	1.396157	0.098256	0.010325
Zn6	Zn	1.729490	0.431589	0.343658
Zn7	Zn	0.945432	-0.162845	-0.318303
Zn8	Zn	1.278765	0.170488	0.015030
Zn9	Zn	1.612099	0.503821	0.348363
Zn10	Zn	0.940640	-0.241071	-0.435746
Zn11	Zn	1.273973	0.092263	-0.102413
Zn12	Zn	1.607307	0.425596	0.230921
O13	O	1.001778	-0.200519	-0.379395
O14	O	1.335111	0.132815	-0.046062
O15	O	1.668445	0.466148	0.287271
O16	O	1.157162	-0.170222	-0.428903
O17	O	1.490496	0.163112	-0.095570
O18	O	1.823829	0.496445	0.237763
O19	O	1.051185	-0.222889	-0.224054
O20	O	1.384518	0.110445	0.109279
O21	O	1.717851	0.443778	0.442613
O22	O	0.960471	-0.100008	-0.334546
O23	O	1.293804	0.233325	-0.001213
O24	O	1.627137	0.566658	0.332120
O25	O	1.160547	-0.223117	-0.342566
O26	O	1.493880	0.110216	-0.009232
O27	O	1.827214	0.443550	0.324101
O28	O	1.043333	-0.100181	-0.424341
O29	O	1.376666	0.233152	-0.091008
O30	O	1.710000	0.566485	0.242326
O31	O	0.964938	-0.169820	-0.220597
O32	O	1.298271	0.163513	0.112736
O33	O	1.631605	0.496847	0.446070
O34	O	0.846462	-0.175632	-0.329914
O35	O	1.179795	0.157701	0.003419
O36	O	1.513128	0.491035	0.336753
O37	O	0.952303	-0.233332	-0.534710
O38	O	1.285636	0.100001	-0.201377
O39	O	1.618970	0.433334	0.131956
O40	O	0.842941	-0.233104	-0.416199
O41	O	1.176274	0.100230	-0.082865
O42	O	1.509607	0.433563	0.250468
O43	O	1.038686	-0.176033	-0.538220
O44	O	1.372019	0.157300	-0.204887
O45	O	1.705353	0.490633	0.128446
O46	O	1.046538	-0.298741	-0.337933
O47	O	1.379871	0.034593	-0.004600
O48	O	1.713205	0.367926	0.328733
O49	O	0.956770	-0.303144	-0.420761
O50	O	1.290104	0.030189	-0.087428
O51	O	1.623437	0.363523	0.245906
C52	C	0.819204	-0.204993	-0.372028
C53	C	1.152537	0.128340	-0.038694
C54	C	1.485871	0.461674	0.294639
C55	C	0.741097	-0.206918	-0.368893
C56	C	1.074431	0.126415	-0.035559
C57	C	1.407764	0.459748	0.297774
C58	C	0.702638	-0.180331	-0.412440
C59	C	1.035972	0.153003	-0.079106
C60	C	1.369305	0.486336	0.254227
C61	C	0.629249	-0.182137	-0.409488
C62	C	0.962583	0.151196	-0.076154
C63	C	1.295916	0.484529	0.257179
C64	C	0.594320	-0.210535	-0.362992
C65	C	0.927654	0.122799	-0.029658
C66	C	1.260987	0.456132	0.303675
C67	C	0.632785	-0.237124	-0.319440
C68	C	0.966118	0.096210	0.013893
C69	C	1.299451	0.429543	0.347227
C70	C	0.706173	-0.235314	-0.322389
C71	C	1.039506	0.098019	0.010944
C72	C	1.372839	0.431353	0.344278
C73	C	0.375023	-0.218892	-0.349341
C74	C	0.708356	0.114441	-0.016008
C75	C	1.041690	0.447774	0.317325
C76	C	0.301630	-0.220701	-0.346397
C77	C	0.634963	0.112633	-0.013064
C78	C	0.968296	0.445966	0.320269
C79	C	0.298099	-0.165714	-0.436444
C80	C	0.631433	0.167619	-0.103111
C81	C	0.964766	0.500953	0.230222
C82	C	0.371489	-0.163909	-0.439392
C83	C	0.704822	0.169424	-0.106059
C84	C	1.038156	0.502758	0.227275
C85	C	0.409947	-0.190496	-0.395838
C86	C	0.743280	0.142837	-0.062504
C87	C	1.076614	0.476171	0.270829
N88	N	0.519305	-0.212383	-0.359975
N89	N	0.852638	0.120950	-0.026641
N90	N	1.185971	0.454283	0.306692
N91	N	0.484961	-0.188645	-0.398852
N92	N	0.818295	0.144689	-0.065518
N93	N	1.151628	0.478022	0.267815
C94	C	1.001652	-0.317243	-0.379355
C95	C	1.334986	0.016090	-0.046022
C96	C	1.668319	0.349423	0.287311
C97	C	1.001662	-0.367178	-0.379364
C98	C	1.334995	-0.033844	-0.046031
C99	C	1.668329	0.299489	0.287302
C100	C	1.048599	-0.674513	-0.336336
C101	C	1.381932	-0.341180	-0.003003
C102	C	1.715266	-0.007847	0.330331
C103	C	1.048685	-0.862185	-0.336367
C104	C	1.382018	-0.528851	-0.003033
C105	C	1.715351	-0.195518	0.330300
O106	O	1.088493	-0.884489	-0.299751
O107	O	1.421826	-0.551156	0.033582
O108	O	1.755159	-0.217822	0.366915
N109	N	1.001922	-0.887958	-0.379454
N110	N	1.335255	-0.554625	-0.046121
N111	N	1.668588	-0.221292	0.287212
C112	C	0.955137	-0.866811	-0.422541
C113	C	1.288470	-0.533478	-0.089207
C114	C	1.621803	-0.200145	0.244126
O115	O	0.915369	-0.893040	-0.459195
O116	O	1.248702	-0.559706	-0.125862
O117	O	1.582035	-0.226373	0.207471
C118	C	0.955055	-0.679141	-0.422513
C119	C	1.288388	-0.345807	-0.089180
C120	C	1.621722	-0.012474	0.244154
C121	C	1.001816	-0.653369	-0.379417
C122	C	1.335150	-0.320036	-0.046084
C123	C	1.668483	0.013297	0.287249
C124	C	1.095357	-0.648742	-0.293244
C125	C	1.428691	-0.315409	0.040089
C126	C	1.762024	0.017925	0.373422
C127	C	1.095333	-0.601827	-0.293234
C128	C	1.428666	-0.268494	0.040099
C129	C	1.761999	0.064840	0.373432
C130	C	1.048550	-0.580683	-0.336316
C131	C	1.381883	-0.247350	-0.002982
C132	C	1.715217	0.085984	0.330351
C133	C	1.001792	-0.606454	-0.379407
C134	C	1.335125	-0.273121	-0.046074
C135	C	1.668459	0.060212	0.287259
C136	C	0.908274	-0.657995	-0.465603
C137	C	1.241608	-0.324661	-0.132269
C138	C	1.574941	0.008672	0.201064
C139	C	0.908259	-0.611074	-0.465593
C140	C	1.241593	-0.277740	-0.132260
C141	C	1.574926	0.055593	0.201074
C142	C	0.955021	-0.585302	-0.422497
C143	C	1.288354	-0.251969	-0.089164
C144	C	1.621687	0.081364	0.244169
C145	C	0.954985	-0.538395	-0.422479
C146	C	1.288318	-0.205062	-0.089145
C147	C	1.621652	0.128271	0.244188
N148	N	1.001748	-0.512622	-0.379391
N149	N	1.335081	-0.179288	-0.046058
N150	N	1.668415	0.154045	0.287276
C151	C	1.048531	-0.533766	-0.336310
C152	C	1.381864	-0.200432	-0.002976
C153	C	1.715197	0.132901	0.330357
C154	C	0.955182	-0.965341	-0.422551
C155	C	1.288515	-0.632008	-0.089218
C156	C	1.621849	-0.298675	0.244116
C157	C	0.955201	-1.012259	-0.422557
C158	C	1.288535	-0.678925	-0.089224
C159	C	1.621868	-0.345592	0.244110
C160	C	1.048750	-1.007629	-0.336384
C161	C	1.382084	-0.674295	-0.003051
C162	C	1.715417	-0.340962	0.330283
C163	C	1.048727	-0.960710	-0.336375
C164	C	1.382060	-0.627377	-0.003041
C165	C	1.715394	-0.294044	0.330292
C166	C	1.001945	-0.939568	-0.379463
C167	C	1.335279	-0.606234	-0.046130
C168	C	1.668612	-0.272901	0.287203
C169	C	1.048475	-0.435241	-0.336291
C170	C	1.381809	-0.101907	-0.002958
C171	C	1.715142	0.231426	0.330375
C172	C	1.048445	-0.388322	-0.336283
C173	C	1.381778	-0.054988	-0.002950
C174	C	1.715111	0.278345	0.330384
C175	C	0.954899	-0.392956	-0.422458
C176	C	1.288232	-0.059622	-0.089125
C177	C	1.621565	0.273711	0.244208
C178	C	0.954926	-0.439871	-0.422464
C179	C	1.288260	-0.106537	-0.089131
C180	C	1.621593	0.226796	0.244202
C181	C	1.001721	-0.461012	-0.379379
C182	C	1.335054	-0.127678	-0.046045
C183	C	1.668387	0.205655	0.287288
O184	O	0.915203	-0.516061	-0.459081
O185	O	1.248537	-0.182728	-0.125747
O186	O	1.581870	0.150606	0.207586
O187	O	1.088303	-0.507529	-0.299672
O188	O	1.421637	-0.174196	0.033661
O189	O	1.754970	0.159137	0.366995
C190	C	1.048624	-0.721428	-0.336346
C191	C	1.381957	-0.388095	-0.003013
C192	C	1.715290	-0.054762	0.330321
C193	C	1.001865	-0.747199	-0.379438
C194	C	1.335199	-0.413866	-0.046104
C195	C	1.668532	-0.080533	0.287229
C196	C	0.955083	-0.726056	-0.422519
C197	C	1.288416	-0.392722	-0.089186
C198	C	1.621750	-0.059389	0.244148
C199	C	1.001885	-0.794117	-0.379444
C200	C	1.335218	-0.460784	-0.046110
C201	C	1.668552	-0.127450	0.287223
C202	C	1.048667	-0.815261	-0.336362
C203	C	1.382001	-0.481927	-0.003029
C204	C	1.715334	-0.148594	0.330304
C205	C	1.095431	-0.789487	-0.293275
C206	C	1.428764	-0.456154	0.040059
C207	C	1.762097	-0.122821	0.373392
C208	C	1.095406	-0.742572	-0.293265
C209	C	1.428739	-0.409239	0.040069
C210	C	1.762073	-0.075905	0.373402
C211	C	0.908320	-0.751829	-0.465607
C212	C	1.241653	-0.418496	-0.132273
C213	C	1.574986	-0.085163	0.201060
C214	C	0.908347	-0.798744	-0.465612
C215	C	1.241681	-0.465411	-0.132279
C216	C	1.575014	-0.132078	0.201054
C217	C	0.955130	-0.819888	-0.422531
C218	C	1.288463	-0.486555	-0.089198
C219	C	1.621797	-0.153221	0.244136
C220	C	1.185065	-0.196027	-0.386792
C221	C	1.518398	0.137306	-0.053459
C222	C	1.851731	0.470640	0.279874
C223	C	1.263171	-0.194113	-0.389944
C224	C	1.596504	0.139220	-0.056611
C225	C	1.929837	0.472554	0.276722
C226	C	0.994446	-0.205378	-0.562674
C227	C	1.327779	0.127956	-0.229341
C228	C	1.661113	0.461289	0.103993
C229	C	0.991322	-0.207448	-0.640777
C230	C	1.324655	0.125885	-0.307443
C231	C	1.657988	0.459218	0.025890
C232	C	1.001922	-0.083338	-0.379452
C233	C	1.335256	0.249995	-0.046118
C234	C	1.668589	0.583329	0.287215
C235	C	1.001984	-0.033403	-0.379476
C236	C	1.335317	0.299931	-0.046142
C237	C	1.668651	0.633264	0.287191
C238	C	1.034827	-0.178590	-0.679298
C239	C	1.368160	0.154743	-0.345964
C240	C	1.701493	0.488077	-0.012631
C241	C	1.031882	-0.180534	-0.752683
C242	C	1.365216	0.152799	-0.419350
C243	C	1.698549	0.486133	-0.086016
C244	C	0.985436	-0.211339	-0.787546
C245	C	1.318770	0.121994	-0.454213
C246	C	1.652103	0.455328	-0.120879
C247	C	0.941927	-0.240198	-0.749019
C248	C	1.275260	0.093135	-0.415686
C249	C	1.608593	0.426468	-0.082353
C250	C	0.944868	-0.238252	-0.675635
C251	C	1.278201	0.095081	-0.342302
C252	C	1.611535	0.428415	-0.008969
C253	C	0.971814	-0.220357	-1.006824
C254	C	1.305147	0.112976	-0.673491
C255	C	1.638481	0.446309	-0.340158
C256	C	0.968877	-0.222303	-1.080214
C257	C	1.302211	0.111031	-0.746880
C258	C	1.635544	0.444364	-0.413547
C259	C	1.058833	-0.162638	-1.083872
C260	C	1.392166	0.170696	-0.750539
C261	C	1.725499	0.504029	-0.417205
C262	C	1.061773	-0.160696	-1.010487
C263	C	1.395106	0.172638	-0.677153
C264	C	1.728439	0.505971	-0.343820
C265	C	1.018260	-0.189553	-0.971966
C266	C	1.351594	0.143780	-0.638633
C267	C	1.684927	0.477113	-0.305300
N268	N	0.982427	-0.213328	-0.862557
N269	N	1.315761	0.120006	-0.529224
N270	N	1.649094	0.453339	-0.195891
N271	N	1.021266	-0.187562	-0.896956
N272	N	1.354600	0.145771	-0.563623
N273	N	1.687933	0.479105	-0.230290
C274	C	1.009122	-0.195645	-0.196831
C275	C	1.342455	0.137688	0.136502
C276	C	1.675788	0.471022	0.469835
C277	C	1.012382	-0.193445	-0.118735
C278	C	1.345716	0.139889	0.214599
C279	C	1.679049	0.473222	0.547932
H280	H	0.399923	-0.140787	-0.477257
H281	H	0.733256	0.192547	-0.143923
H282	H	1.066590	0.525880	0.189410
H283	H	0.870224	-0.734618	-0.500690
H284	H	1.203558	-0.401284	-0.167356
H285	H	1.536891	-0.067951	0.165977
C286	C	1.100208	-1.030893	-0.288993
C287	C	1.433542	-0.697559	0.044340
C288	C	1.766875	-0.364226	0.377673
H289	H	1.093521	-1.062525	-0.295176
H290	H	1.426854	-0.729192	0.038158
H291	H	1.760187	-0.395859	0.371491
H292	H	1.091853	-1.022222	-0.241357
H293	H	1.425186	-0.688889	0.091976
H294	H	1.758520	-0.355555	0.425310
H295	H	1.147002	-1.022289	-0.301225
H296	H	1.480335	-0.688956	0.032108
H297	H	1.813668	-0.355623	0.365441
C298	C	1.112857	-0.126808	-0.972139
C299	C	1.446191	0.206525	-0.638806
C300	C	1.779524	0.539859	-0.305472
H301	H	1.108382	-0.129785	-0.922917
H302	H	1.441715	0.203549	-0.589584
H303	H	1.775048	0.536882	-0.256251
H304	H	1.102128	-0.097194	-0.983765
H305	H	1.435462	0.236140	-0.650432
H306	H	1.768795	0.569473	-0.317098
H307	H	1.159585	-0.132547	-0.986070
H308	H	1.492918	0.200786	-0.652736
H309	H	1.826252	0.534120	-0.319403
H310	H	0.936394	-0.243862	-0.975470
H311	H	1.269727	0.089471	-0.642137
H312	H	1.603060	0.422805	-0.308804
H313	H	0.931053	-0.247389	-1.108597
H314	H	1.264387	0.085944	-0.775263
H315	H	1.597720	0.419278	-0.441930
H316	H	0.904107	-0.265279	-0.777410
H317	H	1.237440	0.068054	-0.444077
H318	H	1.570773	0.401388	-0.110744
H319	H	1.086581	-0.452448	-0.301209
H320	H	1.419914	-0.119115	0.032125
H321	H	1.753248	0.214219	0.365458
C322	C	0.856798	-0.587819	-0.512992
C323	C	1.190131	-0.254486	-0.179659
C324	C	1.523465	0.078847	0.153674
H325	H	0.828953	-0.609890	-0.538653
H326	H	1.162286	-0.276557	-0.205320
H327	H	1.495619	0.056777	0.128013
H328	H	0.882420	-0.569644	-0.544710
H329	H	1.215754	-0.236311	-0.211377
H330	H	1.549087	0.097023	0.121957
H331	H	0.827263	-0.569582	-0.484850
H332	H	1.160596	-0.236249	-0.151516
H333	H	1.493929	0.097084	0.181817
C334	C	0.897030	-0.270007	-0.633263
C335	C	1.230363	0.063327	-0.299929
C336	C	1.563697	0.396660	0.033404
H337	H	0.868956	-0.288637	-0.664535
H338	H	1.202289	0.044696	-0.331202
H339	H	1.535623	0.378029	0.002132
H340	H	0.867577	-0.252821	-0.603398
H341	H	1.200910	0.080512	-0.270065
H342	H	1.534243	0.413846	0.063269
H343	H	0.925052	-0.288162	-0.605722
H344	H	1.258385	0.045172	-0.272389
H345	H	1.591719	0.378505	0.060945
H346	H	0.731072	-0.157208	-0.450304
H347	H	1.064405	0.176126	-0.116970
H348	H	1.397739	0.509459	0.216363
C349	C	0.586947	-0.152892	-0.457391
C350	C	0.920280	0.180442	-0.124058
C351	C	1.253614	0.513775	0.209276
H352	H	0.618260	-0.135725	-0.485510
H353	H	0.951593	0.197609	-0.152177
H354	H	1.284927	0.530942	0.181156
H355	H	0.559406	-0.133283	-0.429420
H356	H	0.892739	0.200050	-0.096086
H357	H	1.226072	0.533383	0.237247
H358	H	0.557085	-0.171627	-0.486808
H359	H	0.890418	0.161706	-0.153475
H360	H	1.223752	0.495040	0.179858
H361	H	0.917085	-0.948130	-0.457640
H362	H	1.250418	-0.614797	-0.124307
H363	H	1.583751	-0.281463	0.209027
C364	C	0.903760	-1.040602	-0.469958
C365	C	1.237093	-0.707269	-0.136624
C366	C	1.570427	-0.373935	0.196709
H367	H	0.875903	-1.021286	-0.495617
H368	H	1.209236	-0.687952	-0.162284
H369	H	1.542569	-0.354619	0.171049
H370	H	0.874245	-1.058970	-0.441827
H371	H	1.207578	-0.725636	-0.108493
H372	H	1.540912	-0.392303	0.224840
H373	H	0.929403	-1.059031	-0.501687
H374	H	1.262736	-0.725698	-0.168354
H375	H	1.596069	-0.392365	0.164980
C376	C	1.079754	-0.148802	-0.795057
C377	C	1.413087	0.184532	-0.461724
C378	C	1.746421	0.517865	-0.128391
H379	H	1.071351	-0.154371	-0.843755
H380	H	1.404684	0.178962	-0.510422
H381	H	1.738017	0.512296	-0.177088
H382	H	1.127436	-0.153912	-0.784929
H383	H	1.460770	0.179422	-0.451596
H384	H	1.794103	0.512755	-0.118262
H385	H	1.070002	-0.118544	-0.782636
H386	H	1.403335	0.214789	-0.449303
H387	H	1.736669	0.548123	-0.115970
C388	C	0.903447	-0.369693	-0.469853
C389	C	1.236781	-0.036360	-0.136520
C390	C	1.570114	0.296973	0.196814
H391	H	0.875598	-0.391759	-0.495520
H392	H	1.208931	-0.058426	-0.162187
H393	H	1.542264	0.274908	0.171147
H394	H	0.929080	-0.351520	-0.501565
H395	H	1.262413	-0.018187	-0.168231
H396	H	1.595747	0.315147	0.165102
H397	H	0.873915	-0.351454	-0.441712
H398	H	1.207248	-0.018120	-0.108379
H399	H	1.540581	0.315213	0.224955
C400	C	0.856841	-0.686333	-0.513014
C401	C	1.190174	-0.353000	-0.179680
C402	C	1.523507	-0.019666	0.153653
H403	H	0.828987	-0.667014	-0.538673
H404	H	1.162321	-0.333681	-0.205340
H405	H	1.495654	-0.000348	0.127993
H406	H	0.827322	-0.704702	-0.484889
H407	H	1.160655	-0.371369	-0.151556
H408	H	1.493988	-0.038035	0.181777
H409	H	0.882486	-0.704760	-0.544743
H410	H	1.215819	-0.371427	-0.211410
H411	H	1.549153	-0.038094	0.121923
H412	H	0.266779	-0.144068	-0.471903
H413	H	0.600113	0.189266	-0.138570
H414	H	0.933446	0.522599	0.194764
H415	H	0.273193	-0.243828	-0.308534
H416	H	0.606526	0.089506	0.024799
H417	H	0.939859	0.422839	0.358132
C418	C	0.903490	-0.468220	-0.469867
C419	C	1.236823	-0.134887	-0.136534
C420	C	1.570156	0.198447	0.196800
H421	H	0.875627	-0.448906	-0.495525
H422	H	1.208960	-0.115573	-0.162192
H423	H	1.542294	0.217761	0.171141
H424	H	0.873979	-0.486592	-0.441739
H425	H	1.207313	-0.153259	-0.108405
H426	H	1.540646	0.180075	0.224928
H427	H	0.929138	-0.486645	-0.501597
H428	H	1.262472	-0.153311	-0.168264
H429	H	1.595805	0.180022	0.165069
C430	C	0.594368	-0.268361	-0.268295
C431	C	0.927701	0.064972	0.065039
C432	C	1.261035	0.398306	0.398372
H433	H	0.627786	-0.283934	-0.242778
H434	H	0.961119	0.049400	0.090556
H435	H	1.294453	0.382733	0.423889
H436	H	0.564654	-0.289379	-0.293967
H437	H	0.897988	0.043954	0.039366
H438	H	1.231321	0.377287	0.372699
H439	H	0.566972	-0.251038	-0.236575
H440	H	0.900305	0.082295	0.096758
H441	H	1.233639	0.415629	0.430092
H442	H	1.094257	-0.139143	-1.115243
H443	H	1.427590	0.194191	-0.781910
H444	H	1.760923	0.527524	-0.448576
H445	H	1.133484	-0.721592	-0.258172
H446	H	1.466817	-0.388259	0.075161
H447	H	1.800150	-0.054926	0.408494
H448	H	1.133521	-0.806711	-0.258194
H449	H	1.466854	-0.473377	0.075139
H450	H	1.800187	-0.140044	0.408473
H451	H	0.737485	-0.256964	-0.286928
H452	H	1.070819	0.076369	0.046406
H453	H	1.404152	0.409702	0.379739
H454	H	1.133457	-0.665952	-0.258162
H455	H	1.466790	-0.332619	0.075171
H456	H	1.800124	0.000715	0.408504
C457	C	0.417318	-0.248139	-0.301436
C458	C	0.750651	0.085195	0.031897
C459	C	1.083984	0.418528	0.365231
H460	H	0.386002	-0.265312	-0.273329
H461	H	0.719335	0.068021	0.060005
H462	H	1.052669	0.401354	0.393338
H463	H	0.447177	-0.229406	-0.272018
H464	H	0.780511	0.103927	0.061315
H465	H	1.113844	0.437260	0.394649
H466	H	0.444861	-0.267748	-0.329410
H467	H	0.778195	0.065585	0.003923
H468	H	1.111528	0.398919	0.337257
H469	H	1.086523	-0.367340	-0.301187
H470	H	1.419857	-0.034006	0.032146
H471	H	1.753190	0.299327	0.365480
C472	C	0.856908	-0.827088	-0.513022
C473	C	1.190241	-0.493754	-0.179689
C474	C	1.523574	-0.160421	0.153644
H475	H	0.829050	-0.807771	-0.538682
H476	H	1.162383	-0.474438	-0.205348
H477	H	1.495716	-0.141105	0.127985
H478	H	0.827393	-0.845459	-0.484897
H479	H	1.160726	-0.512125	-0.151563
H480	H	1.494059	-0.178792	0.181770
H481	H	0.882555	-0.845514	-0.544752
H482	H	1.215889	-0.512180	-0.211419
H483	H	1.549222	-0.178847	0.121914
H484	H	1.133412	-0.580846	-0.258144
H485	H	1.466745	-0.247513	0.075189
H486	H	1.800078	0.085820	0.408522
H487	H	1.086805	-0.939730	-0.301283
H488	H	1.420138	-0.606397	0.032050
H489	H	1.753471	-0.273063	0.365384
C490	C	1.085914	-0.144702	-0.640955
C491	C	1.419248	0.188631	-0.307621
C492	C	1.752581	0.521964	0.025712
H493	H	1.111396	-0.127791	-0.674410
H494	H	1.444730	0.205543	-0.341076
H495	H	1.778063	0.538876	-0.007743
H496	H	1.117660	-0.160375	-0.613555
H497	H	1.450994	0.172958	-0.280221
H498	H	1.784327	0.506292	0.053112
H499	H	1.060197	-0.125026	-0.611254
H500	H	1.393531	0.208308	-0.277920
H501	H	1.726864	0.541641	0.055413
