data_functionalizedCrystal
_audit_creation_method	'MofGen! by Chris Wilmer'
_symmetry_space_group_name_H-M	'P1'
_symmetry_Int_Tables_number	1
_symmetry_cell_setting	triclinic
loop_
_symmetry_equiv_pos_as_xyz
  x,y,z
_cell_length_a	12.759401
_cell_length_b	29.839131
_cell_length_c	12.759393
_cell_angle_alpha	89.962110
_cell_angle_beta	89.981504
_cell_angle_gamma	90.041581
loop_
_atom_site_label
_atom_site_type_symbol
_atom_site_fract_x
_atom_site_fract_y
_atom_site_fract_z
Zn1	Zn	1.606060	-0.178825	-0.593935
Zn2	Zn	1.605873	-0.253963	-0.418236
Zn3	Zn	1.430362	-0.178848	-0.418275
Zn4	Zn	1.430269	-0.253929	-0.593877
O5	O	1.518141	-0.216391	-0.506081
O6	O	1.753056	-0.188797	-0.570636
O7	O	1.582551	-0.244024	-0.271220
O8	O	1.453787	-0.115978	-0.441617
O9	O	1.752919	-0.244001	-0.441551
O10	O	1.582871	-0.115961	-0.570674
O11	O	1.453605	-0.188837	-0.271248
O12	O	1.283329	-0.188803	-0.441561
O13	O	1.453628	-0.243942	-0.740906
O14	O	1.283260	-0.243965	-0.570575
O15	O	1.582781	-0.188763	-0.740949
O16	O	1.582461	-0.316826	-0.441495
O17	O	1.453446	-0.316801	-0.570538
C18	C	1.245174	-0.216383	-0.506066
C19	C	1.128397	-0.216390	-0.506085
C20	C	1.073527	-0.245159	-0.573152
C21	C	0.963803	-0.245165	-0.573163
C22	C	0.963829	-0.187632	-0.439032
C23	C	1.073551	-0.187624	-0.439027
C24	C	1.128373	-0.273925	-0.640210
C25	C	1.073503	-0.302696	-0.707282
C26	C	0.963779	-0.302702	-0.707293
C27	C	0.908925	-0.273936	-0.640233
C28	C	1.517951	-0.333114	-0.506029
C29	C	1.517966	-0.383048	-0.506041
C30	C	1.585441	-0.692692	-0.438986
C31	C	1.585571	-0.880365	-0.439027
O32	O	1.642790	-0.904631	-0.381974
N33	N	1.518359	-0.903833	-0.506160
C34	C	1.451114	-0.880380	-0.573292
O35	O	1.393957	-0.904648	-0.630402
C36	C	1.450991	-0.692708	-0.573256
C37	C	1.518200	-0.669243	-0.506111
C38	C	1.652646	-0.669227	-0.371848
C39	C	1.652609	-0.622311	-0.371834
C40	C	1.585367	-0.598861	-0.438959
C41	C	1.518163	-0.622327	-0.506098
C42	C	1.383752	-0.669256	-0.640393
C43	C	1.383729	-0.622335	-0.640380
C44	C	1.450938	-0.598869	-0.573235
C45	C	1.450884	-0.551962	-0.573209
N46	N	1.518096	-0.528494	-0.506076
C47	C	1.585338	-0.551944	-0.438951
C48	C	1.451183	-0.978911	-0.573305
C49	C	1.451212	-1.025829	-0.573313
C50	C	1.585670	-1.025811	-0.439049
C51	C	1.585635	-0.978892	-0.439036
C52	C	1.518395	-0.955443	-0.506172
C53	C	1.585254	-0.453418	-0.438927
C54	C	1.585208	-0.406498	-0.438916
C55	C	1.450754	-0.406521	-0.573184
C56	C	1.450796	-0.453436	-0.573191
C57	C	1.518054	-0.476884	-0.506059
O58	O	1.393703	-0.527668	-0.630240
O59	O	1.642503	-0.527668	-0.381867
C60	C	1.585479	-0.739608	-0.439000
C61	C	1.518274	-0.763073	-0.506138
C62	C	1.451033	-0.739624	-0.573263
C63	C	1.518304	-0.809991	-0.506146
C64	C	1.585545	-0.833441	-0.439021
C65	C	1.652757	-0.809973	-0.371888
C66	C	1.652720	-0.763058	-0.371875
C67	C	1.383820	-0.763092	-0.640396
C68	C	1.383862	-0.810007	-0.640404
C69	C	1.451104	-0.833457	-0.573279
C70	C	1.792174	-0.216400	-0.506096
C71	C	1.908951	-0.216404	-0.506102
C72	C	1.518215	-0.216346	-0.780114
C73	C	1.518246	-0.216327	-0.896891
C74	C	1.518360	-0.099213	-0.506156
C75	C	1.518454	-0.049279	-0.506188
C76	C	1.585505	-0.187593	-0.951777
C77	C	1.585530	-0.187576	-1.061501
C78	C	1.451034	-0.245032	-1.061444
C79	C	1.451004	-0.245046	-0.951722
C80	C	1.652747	-0.158873	-0.896946
C81	C	1.720013	-0.130137	-0.951832
C82	C	1.720038	-0.130121	-1.061556
C83	C	1.652797	-0.158841	-1.116394
C84	C	1.518128	-0.216404	-0.233113
C85	C	1.518301	-0.216297	-0.116337
H86	H	0.819580	-0.273939	-0.640257
O87	O	1.132655	-0.333718	-0.779617
H88	H	1.111638	-0.326049	-0.862105
O89	O	0.904591	-0.333778	-0.779517
H90	H	0.961166	-0.353798	-0.826096
H91	H	1.396474	-1.044931	-0.627979
O92	O	1.311290	-0.737800	-0.712793
H93	H	1.257855	-0.716463	-0.665710
O94	O	0.904673	-0.156620	-0.366677
H95	H	0.819158	-0.161465	-0.377933
O96	O	1.246717	-0.273920	-0.640199
H97	H	1.275595	-0.282958	-0.560912
H98	H	1.329018	-0.688354	-0.695065
O99	O	1.132745	-0.156601	-0.366684
H100	H	1.076176	-0.136605	-0.320041
O101	O	1.725225	-0.737751	-0.299469
H102	H	1.707269	-0.746794	-0.216998
O103	O	1.378307	-0.478750	-0.645606
H104	H	1.331547	-0.454559	-0.692283
O105	O	1.658143	-0.953588	-0.366628
H106	H	1.711555	-0.932177	-0.413701
H107	H	1.652737	-0.158884	-0.807603
H108	H	1.639938	-0.387394	-0.384235
O109	O	1.657786	-0.478705	-0.366514
H110	H	1.704497	-0.454499	-0.319824
H111	H	1.774751	-0.106752	-0.907176
O112	O	1.378457	-0.276035	-0.892513
H113	H	1.396413	-0.311294	-0.913529
O114	O	1.725114	-0.597004	-0.299429
H115	H	1.771881	-0.621199	-0.252772
O116	O	1.311192	-0.597048	-0.712790
H117	H	1.358165	-0.575636	-0.766289
H118	H	1.707408	-0.688315	-0.317186
O119	O	1.378226	-0.381224	-0.645577
H120	H	1.396204	-0.390195	-0.728052
H121	H	1.640422	-1.044911	-0.384393
O122	O	1.792566	-0.099123	-1.120763
H123	H	1.845984	-0.119223	-1.170754
H124	H	1.707505	-0.829074	-0.317230
H125	H	1.396425	-0.959822	-0.627977
O126	O	1.652818	-0.158825	-1.234741
H127	H	1.710887	-0.134020	-1.263697
O128	O	1.311369	-0.835315	-0.712830
H129	H	1.264618	-0.811122	-0.759507
O130	O	1.378516	-0.276009	-1.120583
H131	H	1.389842	-0.271175	-1.206101
