data_functionalizedCrystal
_audit_creation_method	'MofGen! by Chris Wilmer'
_symmetry_space_group_name_H-M	'P1'
_symmetry_Int_Tables_number	1
_symmetry_cell_setting	triclinic
loop_
_symmetry_equiv_pos_as_xyz
  x,y,z
_cell_length_a	18.215407
_cell_length_b	12.645330
_cell_length_c	18.215399
_cell_angle_alpha	89.976970
_cell_angle_beta	89.980167
_cell_angle_gamma	90.018140
loop_
_atom_site_label
_atom_site_type_symbol
_atom_site_fract_x
_atom_site_fract_y
_atom_site_fract_z
Zn1	Zn	1.125109	-0.422038	-0.416141
Zn2	Zn	1.125033	-0.599320	-0.293085
Zn3	Zn	1.002041	-0.422072	-0.293088
Zn4	Zn	1.002023	-0.599261	-0.416110
O5	O	1.063551	-0.510673	-0.354606
O6	O	1.228083	-0.445565	-0.399829
O7	O	1.108693	-0.575847	-0.190101
O8	O	1.018406	-0.273720	-0.309426
O9	O	1.228027	-0.575813	-0.309421
O10	O	1.108823	-0.273695	-0.399832
O11	O	1.018332	-0.445624	-0.190104
O12	O	0.899055	-0.445566	-0.309396
O13	O	1.018374	-0.575713	-0.519099
O14	O	0.899041	-0.575746	-0.399780
O15	O	1.108805	-0.445507	-0.519121
O16	O	1.108675	-0.747659	-0.309391
O17	O	1.018300	-0.747616	-0.399777
C18	C	0.872345	-0.510654	-0.354585
C19	C	0.790546	-0.510672	-0.354594
C20	C	1.063498	-0.786102	-0.354596
C21	C	1.063542	-0.903932	-0.354616
C22	C	0.602364	-0.578563	-0.401597
C23	C	0.525506	-0.578567	-0.401606
C24	C	0.525490	-0.442801	-0.307631
C25	C	0.602348	-0.442793	-0.307626
C26	C	0.640783	-0.510680	-0.354608
C27	C	0.487067	-0.510692	-0.354622
C28	C	0.403733	-0.510695	-0.354632
C29	C	0.724122	-0.510676	-0.354600
C30	C	1.006922	-1.071513	-0.411653
C31	C	1.006632	-0.948954	-0.411470
C32	C	1.042549	-0.948523	-0.277058
C33	C	1.042203	-1.071122	-0.277404
C34	C	1.141502	-1.071022	-0.374509
C35	C	1.141024	-0.948415	-0.376205
C36	C	1.255504	-0.510692	-0.354628
C37	C	1.337303	-0.510700	-0.354637
C38	C	1.063596	-0.510600	-0.546559
C39	C	1.063615	-0.510568	-0.628358
C40	C	1.063625	-0.234167	-0.354633
C41	C	1.063657	-0.116337	-0.354644
C42	C	1.110720	-0.442707	-0.816565
C43	C	1.110728	-0.442676	-0.893424
C44	C	1.016563	-0.578266	-0.893389
C45	C	1.016551	-0.578290	-0.816532
C46	C	1.063634	-0.510513	-0.778122
C47	C	1.063654	-0.510457	-0.931838
C48	C	1.063663	-0.510424	-1.015172
C49	C	1.063624	-0.510544	-0.694783
C50	C	1.063549	-0.510669	-0.163400
C51	C	1.063672	-0.510401	-0.081602
H52	H	0.633656	-0.633839	-0.439855
H53	H	1.183771	-1.100007	-0.332986
C54	C	1.201140	-0.907014	-0.324200
H55	H	1.247326	-0.935140	-0.338534
H56	H	1.190389	-0.928348	-0.275356
H57	H	1.202799	-0.832005	-0.326635
H58	H	0.978203	-0.633505	-0.785230
H59	H	1.149069	-0.387460	-0.924721
C60	C	0.483248	-0.653236	-0.453296
H61	H	0.517149	-0.693666	-0.481271
H62	H	0.453290	-0.612742	-0.485411
H63	H	0.453245	-0.699382	-0.425092
C64	C	0.483210	-0.368143	-0.255948
H65	H	0.431933	-0.377878	-0.262673
H66	H	0.495819	-0.296932	-0.266794
H67	H	0.495785	-0.383580	-0.206481
H68	H	0.949572	-1.102414	-0.398661
H69	H	0.978232	-0.633450	-0.924672
C70	C	0.644611	-0.368120	-0.255935
H71	H	0.610714	-0.327700	-0.227948
H72	H	0.674613	-0.321980	-0.284139
H73	H	0.674572	-0.408619	-0.223820
H74	H	1.019935	-1.100928	-0.469351
C75	C	1.024370	-0.908210	-0.489157
H76	H	1.024218	-0.833081	-0.489148
H77	H	0.988418	-0.933395	-0.522631
H78	H	1.071426	-0.933011	-0.503617
C79	C	0.928674	-0.909452	-0.393681
H80	H	0.897060	-0.968333	-0.386532
H81	H	0.910990	-0.867728	-0.433279
H82	H	0.929877	-0.867938	-0.350242
C83	C	0.965330	-1.109887	-0.254678
H84	H	0.934605	-1.050708	-0.245326
H85	H	0.969102	-1.151760	-0.211537
H86	H	0.944850	-1.151092	-0.293165
C87	C	1.095590	-1.111189	-0.218057
H88	H	1.117389	-1.052536	-0.193839
H89	H	1.132815	-1.152861	-0.240337
H90	H	1.069490	-1.152873	-0.183368
H91	H	1.082562	-0.919362	-0.233421
C92	C	0.966473	-0.907190	-0.253915
H93	H	0.947402	-0.862771	-0.291408
H94	H	0.970867	-0.868062	-0.209627
H95	H	0.934207	-0.965247	-0.246449
C96	C	1.162498	-0.368142	-0.774316
H97	H	1.190536	-0.327747	-0.808223
H98	H	1.194552	-0.408696	-0.744333
H99	H	1.134344	-0.321959	-0.744338
H100	H	1.160652	-1.101868	-0.430103
C101	C	1.162421	-0.909026	-0.453306
H102	H	1.124301	-0.865648	-0.472266
H103	H	1.169609	-0.967906	-0.484868
H104	H	1.206550	-0.869198	-0.450347
