data_functionalizedCrystal
_audit_creation_method	'MofGen! by Chris Wilmer'
_symmetry_space_group_name_H-M	'P1'
_symmetry_Int_Tables_number	1
_symmetry_cell_setting	triclinic
loop_
_symmetry_equiv_pos_as_xyz
  x,y,z
_cell_length_a	10.686220
_cell_length_b	21.395362
_cell_length_c	21.395355
_cell_angle_alpha	90.021787
_cell_angle_beta	94.345449
_cell_angle_gamma	85.582175
loop_
_atom_site_label
_atom_site_type_symbol
_atom_site_fract_x
_atom_site_fract_y
_atom_site_fract_z
Zn1	Zn	1.929018	0.175919	-0.280862
Zn2	Zn	2.262352	0.509252	0.052471
Zn3	Zn	2.595685	0.842586	0.385804
Zn4	Zn	1.928804	0.280687	-0.176087
Zn5	Zn	2.262137	0.614020	0.157246
Zn6	Zn	2.595470	0.947354	0.490580
Zn7	Zn	1.717989	0.183970	-0.184127
Zn8	Zn	2.051322	0.517303	0.149206
Zn9	Zn	2.384655	0.850637	0.482539
Zn10	Zn	1.717908	0.288717	-0.288850
Zn11	Zn	2.051242	0.622050	0.044483
Zn12	Zn	2.384575	0.955383	0.377816
O13	O	1.823430	0.232323	-0.232482
O14	O	2.156763	0.565656	0.100852
O15	O	2.490096	0.898990	0.434185
O16	O	2.105567	0.183087	-0.260256
O17	O	2.438900	0.516420	0.073077
O18	O	2.772234	0.849754	0.406411
O19	O	1.900782	0.267866	-0.089478
O20	O	2.234116	0.601200	0.243855
O21	O	2.567449	0.934533	0.577189
O22	O	1.746105	0.095219	-0.196981
O23	O	2.079439	0.428553	0.136352
O24	O	2.412772	0.761886	0.469685
O25	O	2.105409	0.260060	-0.183278
O26	O	2.438743	0.593393	0.150055
O27	O	2.772076	0.926726	0.483389
O28	O	1.901148	0.089304	-0.268052
O29	O	2.234481	0.422638	0.065281
O30	O	2.567815	0.755971	0.398615
O31	O	1.745897	0.196809	-0.095385
O32	O	2.079231	0.530142	0.237948
O33	O	2.412564	0.863475	0.571282
O34	O	1.541401	0.204595	-0.204727
O35	O	1.874734	0.537928	0.128607
O36	O	2.208067	0.871261	0.461940
O37	O	1.745969	0.273745	-0.375466
O38	O	2.079302	0.607078	-0.042133
O39	O	2.412635	0.940411	0.291200
O40	O	1.541342	0.281551	-0.281666
O41	O	1.874675	0.614885	0.051667
O42	O	2.208008	0.948218	0.385000
O43	O	1.901070	0.190873	-0.369598
O44	O	2.234404	0.524206	-0.036264
O45	O	2.567737	0.857540	0.297069
O46	O	1.900705	0.369435	-0.191023
O47	O	2.234038	0.702768	0.142310
O48	O	2.567371	1.036101	0.475643
O49	O	1.745761	0.375334	-0.273870
O50	O	2.079094	0.708667	0.059463
O51	O	2.412427	1.042001	0.392797
C52	C	1.495587	0.244818	-0.244936
C53	C	1.828920	0.578152	0.088397
C54	C	2.162253	0.911485	0.421731
C55	C	1.355334	0.250179	-0.250279
C56	C	1.688667	0.583512	0.083054
C57	C	2.022001	0.916846	0.416388
C58	C	1.823235	0.395118	-0.232453
C59	C	2.156568	0.728452	0.100880
C60	C	2.489902	1.061785	0.434213
C61	C	1.823267	0.464758	-0.232458
C62	C	2.156600	0.798092	0.100875
C63	C	2.489934	1.131425	0.434209
C64	C	1.903945	0.494337	-0.269494
C65	C	2.237278	0.827670	0.063839
C66	C	2.570611	1.161003	0.397172
C67	C	1.903976	0.559771	-0.269507
C68	C	2.237309	0.893104	0.063826
C69	C	2.570642	1.226437	0.397160
C70	C	1.823342	0.595624	-0.232472
C71	C	2.156675	0.928957	0.100862
C72	C	2.490009	1.262290	0.434195
C73	C	1.742649	0.566038	-0.195433
C74	C	2.075982	0.899371	0.137900
C75	C	2.409315	1.232705	0.471234
C76	C	1.742611	0.500605	-0.195426
C77	C	2.075944	0.833939	0.137907
C78	C	2.409278	1.167272	0.471241
C79	C	1.813499	0.699700	-0.176405
C80	C	2.146832	1.033033	0.156928
C81	C	2.480165	1.366366	0.490261
C82	C	1.813545	0.765131	-0.176411
C83	C	2.146878	1.098464	0.156923
C84	C	2.480212	1.431797	0.490256
C85	C	1.823450	0.797440	-0.232493
C86	C	2.156784	1.130774	0.100840
C87	C	2.490117	1.464107	0.434173
C88	C	1.833336	0.764310	-0.288572
C89	C	2.166669	1.097643	0.044762
C90	C	2.500003	1.430976	0.378095
C91	C	1.833298	0.698877	-0.288565
C92	C	2.166632	1.032210	0.044769
C93	C	2.499965	1.365544	0.378102
C94	C	1.823373	0.666575	-0.232475
C95	C	2.156707	0.999908	0.100858
C96	C	2.490040	1.333242	0.434191
C97	C	1.904166	0.897970	-0.269547
C98	C	2.237499	1.231303	0.063786
C99	C	2.570833	1.564636	0.397120
C100	C	1.904188	0.963405	-0.269561
C101	C	2.237521	1.296739	0.063772
C102	C	2.570855	1.630072	0.397106
C103	C	1.742868	0.969671	-0.195481
C104	C	2.076201	1.303005	0.137852
C105	C	2.409534	1.636338	0.471186
C106	C	1.742839	0.904237	-0.195473
C107	C	2.076172	1.237570	0.137861
C108	C	2.409506	1.570904	0.471194
C109	C	1.823495	0.868390	-0.232505
C110	C	2.156828	1.201723	0.100829
C111	C	2.490162	1.535057	0.434162
C112	C	2.152553	0.219780	-0.219979
C113	C	2.485886	0.553113	0.113354
C114	C	2.819219	0.886446	0.446688
C115	C	2.292805	0.214434	-0.214651
C116	C	2.626139	0.547768	0.118682
C117	C	2.959472	0.881101	0.452015
C118	C	1.823534	0.232306	-0.395901
C119	C	2.156868	0.565640	-0.062568
C120	C	2.490201	0.898973	0.270766
C121	C	1.823579	0.232299	-0.465541
C122	C	2.156912	0.565633	-0.132207
C123	C	2.490246	0.898966	0.201126
C124	C	1.823608	1.068893	-0.232519
C125	C	2.156941	1.402226	0.100814
C126	C	2.490275	1.735560	0.434148
C127	C	1.823552	0.999254	-0.232526
C128	C	2.156885	1.332587	0.100807
C129	C	2.490219	1.665921	0.434141
C130	C	1.904337	0.189146	-0.495199
C131	C	2.237670	0.522480	-0.161866
C132	C	2.571004	0.855813	0.171468
C133	C	1.904335	0.189120	-0.560635
C134	C	2.237669	0.522453	-0.227301
C135	C	2.571002	0.855786	0.106032
C136	C	1.823589	0.232256	-0.596409
C137	C	2.156922	0.565590	-0.263075
C138	C	2.490256	0.898923	0.070258
C139	C	1.742815	0.275413	-0.566743
C140	C	2.076149	0.608746	-0.233410
C141	C	2.409482	0.942079	0.099924
C142	C	1.742810	0.275434	-0.501309
C143	C	2.076144	0.608767	-0.167976
C144	C	2.409477	0.942101	0.165358
C145	C	1.813558	0.289054	-0.700453
C146	C	2.146891	0.622388	-0.367119
C147	C	2.480225	0.955721	-0.033786
C148	C	1.813572	0.289033	-0.765885
C149	C	2.146905	0.622367	-0.432552
C150	C	2.480238	0.955700	-0.099218
C151	C	1.823597	0.232190	-0.798229
C152	C	2.156930	0.565523	-0.464896
C153	C	2.490263	0.898856	-0.131563
C154	C	1.833635	0.175364	-0.765132
C155	C	2.166968	0.508697	-0.431799
C156	C	2.500301	0.842031	-0.098465
C157	C	1.833630	0.175386	-0.699698
C158	C	2.166963	0.508719	-0.366365
C159	C	2.500296	0.842052	-0.033031
C160	C	1.823585	0.232237	-0.667361
C161	C	2.156918	0.565571	-0.334028
C162	C	2.490251	0.898904	-0.000695
C163	C	1.904357	0.189004	-0.898840
C164	C	2.237690	0.522337	-0.565507
C165	C	2.571024	0.855671	-0.232174
C166	C	1.904347	0.188977	-0.964277
C167	C	2.237680	0.522310	-0.630944
C168	C	2.571013	0.855643	-0.297611
C169	C	1.742833	0.275275	-0.970384
C170	C	2.076167	0.608608	-0.637051
C171	C	2.409500	0.941942	-0.303717
C172	C	1.742837	0.275297	-0.904948
C173	C	2.076171	0.608631	-0.571615
C174	C	2.409504	0.941964	-0.238282
C175	C	1.823606	0.232162	-0.869180
C176	C	2.156939	0.565496	-0.535847
C177	C	2.490273	0.898829	-0.202514
C178	C	1.823398	0.232292	-0.069695
C179	C	2.156731	0.565625	0.263638
C180	C	2.490065	0.898958	0.596971
C181	C	1.823598	0.232113	-0.000047
C182	C	2.156931	0.565446	0.333286
C183	C	2.490265	0.898780	0.666620
H184	H	1.969616	0.465152	-0.299650
H185	H	2.302950	0.798485	0.033684
H186	H	2.636283	1.131818	0.367017
H187	H	1.301564	0.284888	-0.284868
H188	H	1.634897	0.618222	0.048465
H189	H	1.968230	0.951555	0.381799
F190	F	1.989853	0.591257	-0.308925
F191	F	2.323186	0.924590	0.024408
F192	F	2.656520	1.257923	0.357742
H193	H	1.677075	0.310392	-0.999511
H194	H	2.010408	0.643725	-0.666178
H195	H	2.343742	0.977059	-0.332844
F196	F	1.363076	0.169074	-0.169437
F197	F	1.696409	0.502407	0.163896
F198	F	2.029743	0.835741	0.497229
F199	F	1.803034	0.800384	-0.116727
F200	F	2.136367	1.133718	0.216606
F201	F	2.469701	1.467051	0.549939
F202	F	1.657047	1.007824	-0.156067
F203	F	1.990380	1.341158	0.177267
F204	F	2.323714	1.674491	0.510600
F205	F	1.656853	0.321365	-0.469744
F206	F	1.990186	0.654699	-0.136410
F207	F	2.323519	0.988032	0.196923
H208	H	1.841344	0.671904	-0.334225
H209	H	2.174677	1.005237	-0.000892
H210	H	2.508011	1.338570	0.332442
F211	F	1.802900	0.349511	-0.801103
F212	F	2.136233	0.682845	-0.467770
F213	F	2.469566	1.016178	-0.134437
H214	H	1.841800	0.129077	-0.791465
H215	H	2.175133	0.462410	-0.458132
H216	H	2.508467	0.795743	-0.124798
F217	F	1.656827	0.604196	-0.156021
F218	F	1.990160	0.937530	0.177313
F219	F	2.323493	1.270863	0.510646
H220	H	1.841404	0.790614	-0.334239
H221	H	2.174737	1.123948	-0.000906
H222	H	2.508071	1.457281	0.332427
H223	H	1.970095	0.153976	-0.584787
H224	H	2.303429	0.487309	-0.251454
H225	H	2.636762	0.820643	0.081879
F226	F	1.990048	0.994885	-0.308990
F227	F	2.323381	1.328218	0.024344
F228	F	2.656715	1.661552	0.357677
H229	H	1.676912	0.476523	-0.165266
H230	H	2.010246	0.809856	0.168067
H231	H	2.343579	1.143189	0.501401
F232	F	1.990001	0.859816	-0.308961
F233	F	2.323335	1.193150	0.024372
F234	F	2.656668	1.526483	0.357706
H235	H	1.677149	0.880153	-0.165311
H236	H	2.010482	1.213486	0.168022
H237	H	2.343816	1.546819	0.501355
F238	F	1.803084	0.665315	-0.116700
F239	F	2.136417	0.998648	0.216634
F240	F	2.469751	1.331981	0.549967
F241	F	1.802916	0.349559	-0.666035
F242	F	2.136250	0.682893	-0.332701
F243	F	2.469583	1.016226	0.000632
H244	H	1.677083	0.310441	-0.880800
H245	H	2.010416	0.643774	-0.547467
H246	H	2.343749	0.977107	-0.214134
H247	H	1.970107	0.153833	-0.988424
H248	H	2.303441	0.487166	-0.655090
H249	H	2.636774	0.820499	-0.321757
H250	H	1.970104	0.154022	-0.466080
H251	H	2.303437	0.487355	-0.132747
H252	H	2.636770	0.820689	0.200586
F253	F	1.844306	0.114910	-0.664476
F254	F	2.177639	0.448243	-0.331143
F255	F	2.510973	0.781576	0.002191
H256	H	1.970117	0.153878	-0.869716
H257	H	2.303450	0.487211	-0.536383
H258	H	2.636783	0.820545	-0.203050
H259	H	1.677067	0.310533	-0.595875
H260	H	2.010400	0.643866	-0.262541
H261	H	2.343734	0.977200	0.070792
