data_functionalizedCrystal
_audit_creation_method	'MofGen! by Chris Wilmer'
_symmetry_space_group_name_H-M	'P1'
_symmetry_Int_Tables_number	1
_symmetry_cell_setting	triclinic
loop_
_symmetry_equiv_pos_as_xyz
  x,y,z
_cell_length_a	14.971482
_cell_length_b	10.654550
_cell_length_c	14.048226
_cell_angle_alpha	89.994756
_cell_angle_beta	89.994098
_cell_angle_gamma	84.048756
loop_
_atom_site_label
_atom_site_type_symbol
_atom_site_fract_x
_atom_site_fract_y
_atom_site_fract_z
O1	O	1.187840	0.163637	-0.079146
O2	O	1.687840	0.663637	0.420854
O3	O	0.927546	0.183240	-0.079150
O4	O	1.427546	0.683240	0.420850
O5	O	1.063677	-0.009365	-0.079144
O6	O	1.563677	0.490635	0.420856
O7	O	1.051708	0.356242	-0.079152
O8	O	1.551708	0.856242	0.420848
O9	O	1.063661	-0.009377	0.079177
O10	O	1.563661	0.490623	0.579177
O11	O	0.927529	0.183229	0.079171
O12	O	1.427529	0.683229	0.579171
O13	O	1.187823	0.163625	0.079176
O14	O	1.687823	0.663625	0.579176
Zn15	Zn	1.057673	0.173425	0.104310
Zn16	Zn	1.557673	0.673425	0.604310
Zn17	Zn	1.057695	0.173440	-0.104285
Zn18	Zn	1.557695	0.673440	0.395715
O19	O	1.051691	0.356231	0.079170
O20	O	1.551691	0.856231	0.579170
C21	C	0.894208	0.182359	0.000010
C22	C	1.394208	0.682359	0.500010
C23	C	0.794896	0.179734	0.000008
C24	C	1.294896	0.679734	0.500008
C25	C	0.748236	0.178491	0.086310
C26	C	1.248236	0.678491	0.586310
C27	C	0.654924	0.176005	0.086311
C28	C	1.154924	0.676005	0.586311
C29	C	0.608273	0.174770	0.000009
C30	C	1.108273	0.674770	0.500009
C31	C	0.654940	0.176009	-0.086299
C32	C	1.154940	0.676009	0.413701
C33	C	0.748251	0.178486	-0.086299
C34	C	1.248251	0.678486	0.413701
C35	C	0.460450	0.170849	-0.086293
C36	C	0.960450	0.670849	0.413707
C37	C	0.367133	0.168374	-0.086293
C38	C	0.867133	0.668374	0.413707
C39	C	0.367123	0.168368	0.086318
C40	C	0.867123	0.668368	0.586318
C41	C	0.460434	0.170845	0.086318
C42	C	0.960434	0.670845	0.586318
C43	C	0.507094	0.172086	0.000009
C44	C	1.007094	0.672086	0.500009
C45	C	1.062790	-0.056159	0.000015
C46	C	1.562790	0.443841	0.500015
C47	C	1.060161	-0.195574	0.000012
C48	C	1.560161	0.304426	0.500012
C49	C	1.140313	-0.275921	0.000016
C50	C	1.640313	0.224079	0.500016
C51	C	1.137837	-0.406916	0.000009
C52	C	1.637837	0.093084	0.500009
C53	C	0.975050	-0.377203	-0.000002
C54	C	1.475050	0.122797	0.499998
C55	C	0.977526	-0.246211	-0.000002
C56	C	1.477526	0.253789	0.499998
C57	C	1.234297	-0.293077	0.000027
C58	C	1.734297	0.206923	0.500027
C59	C	1.231821	-0.424071	0.000020
C60	C	1.731821	0.075929	0.500020
C61	C	1.221161	0.164507	0.000013
C62	C	1.721161	0.664507	0.500013
C63	C	1.320472	0.167132	0.000009
C64	C	1.820472	0.667132	0.500009
C65	C	1.052578	0.403025	0.000008
C66	C	1.552578	0.903025	0.500008
C67	C	1.055208	0.542440	0.000005
C68	C	1.555208	1.042440	0.500005
N69	N	1.057665	0.173414	0.246671
N70	N	1.557665	0.673414	0.746671
N71	N	1.057711	0.173441	-0.246646
N72	N	1.557711	0.673441	0.253354
C73	C	1.117963	0.088164	0.296492
C74	C	1.617963	0.588164	0.796492
C75	C	1.117969	0.088163	0.396149
C76	C	1.617969	0.588163	0.896149
C77	C	1.057681	0.173420	0.445984
C78	C	1.557681	0.673420	0.945984
C79	C	0.997376	0.258674	0.396157
C80	C	1.497376	0.758674	0.896157
C81	C	0.997366	0.258668	0.296501
C82	C	1.497366	0.758668	0.796501
C83	C	0.997402	0.258683	0.603871
C84	C	1.497402	0.758683	1.103871
C85	C	0.997412	0.258692	0.703534
C86	C	1.497412	0.758692	1.203534
C87	C	1.118005	0.088179	0.703519
C88	C	1.618005	0.588179	1.203519
C89	C	1.117995	0.088172	0.603863
C90	C	1.617995	0.588172	1.103863
C91	C	1.057691	0.173429	0.554043
C92	C	1.557691	0.673429	1.054043
H93	H	0.786211	0.179507	0.156588
H94	H	1.286211	0.679507	0.656588
H95	H	1.167061	0.018743	0.255922
H96	H	1.667061	0.518743	0.755922
O97	O	0.798574	0.179822	-0.179388
O98	O	1.298574	0.679822	0.320612
H99	H	0.848522	0.095410	-0.183515
H100	H	1.348522	0.595410	0.316485
O101	O	0.932314	0.350601	0.242766
O102	O	1.432314	0.850601	0.742766
H103	H	0.942423	0.336258	0.165097
H104	H	1.442423	0.836258	0.665097
H105	H	0.616951	0.174995	-0.156568
H106	H	1.116951	0.674995	0.343432
H107	H	1.260231	-0.470015	-0.068338
H108	H	1.760231	0.029985	0.431662
H109	H	0.912259	-0.180796	-0.000019
H110	H	1.412259	0.319204	0.499981
H111	H	1.167068	0.018745	0.436713
H112	H	1.667068	0.518745	0.936713
O113	O	0.885924	-0.431816	-0.000002
O114	O	1.385924	0.068184	0.499998
H115	H	0.897666	-0.536402	0.000006
H116	H	1.397666	-0.036402	0.500006
O117	O	1.183016	-0.003784	0.550106
O118	O	1.683016	0.496216	1.050106
H119	H	1.224944	-0.063077	0.601490
H120	H	1.724944	0.436923	1.101490
H121	H	0.498414	0.171858	0.156592
H122	H	0.998414	0.671858	0.656592
O123	O	1.282986	-0.254684	-0.087733
O124	O	1.782986	0.245316	0.412267
H125	H	1.304851	-0.339772	-0.130705
H126	H	1.804851	0.160228	0.369295
H127	H	1.264218	-0.257777	0.068387
H128	H	1.764218	0.242223	0.568387
H129	H	0.329152	0.167369	-0.156568
H130	H	0.829152	0.667369	0.343432
O131	O	1.278703	-0.479914	0.087786
O132	O	1.778703	0.020086	0.587786
H133	H	1.303610	-0.403366	0.130764
H134	H	1.803610	0.096634	0.630764
H135	H	1.167106	0.018760	0.744089
H136	H	1.667106	0.518760	1.244089
O137	O	0.932371	0.350618	0.757291
O138	O	1.432371	0.850618	1.257291
H139	H	0.890421	0.409881	0.705908
H140	H	1.390421	0.909881	1.205908
H141	H	0.948293	0.328104	0.563310
H142	H	1.448293	0.828104	1.063310
H143	H	0.616939	0.174973	0.156587
H144	H	1.116939	0.674973	0.656587
H145	H	0.948283	0.328088	0.436738
H146	H	1.448283	0.828088	0.936738
H147	H	0.329127	0.167358	0.156594
H148	H	0.829127	0.667358	0.656594
H149	H	0.498439	0.171860	-0.156575
H150	H	0.998439	0.671860	0.343425
