data_functionalizedCrystal
_audit_creation_method	'MofGen! by Chris Wilmer'
_symmetry_space_group_name_H-M	'P1'
_symmetry_Int_Tables_number	1
_symmetry_cell_setting	triclinic
loop_
_symmetry_equiv_pos_as_xyz
  x,y,z
_cell_length_a	14.044220
_cell_length_b	16.992695
_cell_length_c	16.053802
_cell_angle_alpha	87.258926
_cell_angle_beta	87.189254
_cell_angle_gamma	88.071450
loop_
_atom_site_label
_atom_site_type_symbol
_atom_site_fract_x
_atom_site_fract_y
_atom_site_fract_z
O1	O	1.275866	-0.187009	-0.069341
O2	O	1.775866	0.312991	0.430659
O3	O	0.999379	-0.180151	-0.069362
O4	O	1.499379	0.319849	0.430638
O5	O	1.136514	-0.069360	-0.069345
O6	O	1.636514	0.430640	0.430655
O7	O	1.138731	-0.297800	-0.069358
O8	O	1.638731	0.202200	0.430642
O9	O	1.128964	-0.075431	0.069513
O10	O	1.628964	0.424569	0.569513
O11	O	0.991829	-0.186221	0.069496
O12	O	1.491829	0.313779	0.569496
O13	O	1.268316	-0.193080	0.069517
O14	O	1.768316	0.306920	0.569517
Zn15	Zn	1.128874	-0.190615	0.091553
Zn16	Zn	1.628874	0.309385	0.591553
Zn17	Zn	1.138822	-0.182616	-0.091398
Zn18	Zn	1.638822	0.317384	0.408602
O19	O	1.131181	-0.303871	0.069500
O20	O	1.631181	0.196129	0.569500
C21	C	0.960062	-0.180184	0.000064
C22	C	1.460062	0.319816	0.500064
C23	C	0.854158	-0.171230	0.000056
C24	C	1.354158	0.328770	0.500056
C25	C	0.660256	-0.154860	0.000074
C26	C	1.160256	0.345140	0.500074
C27	C	0.607434	-0.218367	0.000074
C28	C	1.107434	0.281633	0.500074
C29	C	0.499540	-0.209259	0.000083
C30	C	0.999540	0.290741	0.500083
C31	C	0.768160	-0.163967	0.000064
C32	C	1.268160	0.336033	0.500064
C33	C	1.129887	-0.042984	0.000084
C34	C	1.629887	0.457016	0.500084
C35	C	1.121378	0.044656	0.000083
C36	C	1.621378	0.544656	0.500083
C37	C	1.307633	-0.193047	0.000089
C38	C	1.807633	0.306953	0.500089
C39	C	1.413537	-0.202001	0.000091
C40	C	1.913537	0.297999	0.500091
C41	C	1.137808	-0.330247	0.000069
C42	C	1.637808	0.169753	0.500069
C43	C	1.146317	-0.417886	0.000065
C44	C	1.646317	0.082114	0.500065
N45	N	1.122091	-0.196073	0.216412
N46	N	1.622091	0.303927	0.716412
C47	C	1.203475	0.089154	0.000090
C48	C	1.703475	0.589154	0.500090
C49	C	1.195475	0.171500	0.000081
C50	C	1.695475	0.671500	0.500081
C51	C	1.105377	0.209347	0.000072
C52	C	1.605377	0.709347	0.500072
C53	C	1.023275	0.164843	0.000062
C54	C	1.523275	0.664843	0.500062
C55	C	1.031276	0.082498	0.000065
C56	C	1.531276	0.582498	0.500065
C57	C	1.072216	0.455265	0.000058
C58	C	1.572216	0.955265	0.500058
C59	C	1.064221	0.537616	0.000058
C60	C	1.564221	1.037616	0.500058
C61	C	1.236421	0.544267	0.000075
C62	C	1.736421	1.044267	0.500075
C63	C	1.244414	0.461920	0.000083
C64	C	1.744414	0.961920	0.500083
C65	C	1.162312	0.417424	0.000069
C66	C	1.662312	0.917424	0.500069
N67	N	1.097198	0.293518	0.000066
N68	N	1.597198	0.793518	0.500066
N69	N	1.170493	0.333254	0.000069
N70	N	1.670493	0.833254	0.500069
N71	N	1.145611	-0.177152	-0.216258
N72	N	1.645611	0.322848	0.283742
C73	C	1.180467	-0.148952	0.260114
C74	C	1.680467	0.351048	0.760114
C75	C	1.175732	-0.152778	0.347520
C76	C	1.675732	0.347222	0.847520
C77	C	1.112626	-0.203731	0.391223
C78	C	1.612626	0.296269	0.891223
C79	C	1.054244	-0.250855	0.347516
C80	C	1.554244	0.249145	0.847516
C81	C	1.058975	-0.247023	0.260111
C82	C	1.558975	0.252977	0.760111
C83	C	1.091960	-0.220444	0.652630
C84	C	1.591960	0.279556	1.152630
C85	C	1.087236	-0.224273	0.740041
C86	C	1.587236	0.275727	1.240041
C87	C	1.208722	-0.126196	0.740039
C88	C	1.708722	0.373804	1.240039
C89	C	1.213452	-0.122372	0.652633
C90	C	1.713452	0.377628	1.152633
C91	C	1.155066	-0.169493	0.608933
C92	C	1.655066	0.330507	1.108933
N93	N	1.107787	-0.207646	0.480566
N94	N	1.607787	0.292354	0.980566
N95	N	1.159901	-0.165574	0.519591
N96	N	1.659901	0.334426	1.019591
H97	H	0.643242	-0.279576	0.000066
H98	H	1.143242	0.220424	0.500066
C99	C	1.343522	0.420295	0.000083
C100	C	1.843522	0.920295	0.500083
H101	H	1.391272	0.458591	0.000077
H102	H	1.891272	0.958591	0.500077
H103	H	1.347594	0.386194	0.048504
H104	H	1.847594	0.886194	0.548504
H105	H	1.352850	0.390428	-0.048348
H106	H	1.852850	0.890428	0.451652
H107	H	1.035845	-0.265768	0.775620
H108	H	1.535845	0.234232	1.275620
H109	H	1.005362	0.419046	0.000046
H110	H	1.505362	0.919046	0.500046
H111	H	0.624450	-0.093656	0.000082
H112	H	1.124450	0.406344	0.500082
H113	H	1.276842	0.058345	0.000103
H114	H	1.776842	0.558345	0.500103
H115	H	1.011438	-0.285394	0.224531
H116	H	1.511438	0.214606	0.724531
C117	C	1.282862	-0.066319	0.604565
C118	C	1.782862	0.433681	1.104565
H119	H	1.316945	-0.038797	0.643111
H120	H	1.816945	0.461203	1.143111
H121	H	1.326521	-0.095973	0.570456
H122	H	1.826521	0.404027	1.070456
H123	H	1.247936	-0.029595	0.570481
H124	H	1.747936	0.470405	1.070481
H125	H	1.262327	0.207727	0.000089
H126	H	1.762327	0.707727	0.500089
H127	H	0.990848	0.568427	0.000063
H128	H	1.490848	1.068427	0.500063
C129	C	1.326726	0.593215	0.000079
C130	C	1.826726	1.093215	0.500079
H131	H	1.309061	0.647677	0.000068
H132	H	1.809061	1.147677	0.500068
H133	H	1.360785	0.578975	0.048502
H134	H	1.860785	1.078975	0.548502
H135	H	1.366040	0.583198	-0.048350
H136	H	1.866040	1.083198	0.451650
H137	H	0.949916	0.195665	0.000049
H138	H	1.449916	0.695665	0.500049
C139	C	0.940970	0.033550	0.000059
C140	C	1.440970	0.533550	0.500059
H141	H	0.886165	0.067882	0.000060
H142	H	1.386165	0.567882	0.500060
H143	H	0.943147	0.003403	-0.048364
H144	H	1.443147	0.503403	0.451636
H145	H	0.937878	-0.000824	0.048488
H146	H	1.437878	0.499176	0.548488
C147	C	1.249882	-0.092902	0.212047
C148	C	1.749882	0.407098	0.712047
H149	H	1.283963	-0.065381	0.250596
H150	H	1.783963	0.434619	0.750596
H151	H	1.293543	-0.122554	0.177939
H152	H	1.793543	0.377446	0.677939
H153	H	1.214957	-0.056176	0.177964
H154	H	1.714957	0.443824	0.677964
C155	C	1.027747	-0.272282	0.604571
C156	C	1.527747	0.227718	1.104571
H157	H	0.989496	-0.303181	0.643120
H158	H	1.489496	0.196819	1.143120
H159	H	0.987775	-0.239641	0.570485
H160	H	1.487775	0.260359	1.070485
H161	H	1.066361	-0.306019	0.570466
H162	H	1.566361	0.193981	1.070466
C163	C	1.239954	-0.100953	0.395588
C164	C	1.739954	0.399047	0.895588
H165	H	1.278225	-0.070068	0.357041
H166	H	1.778225	0.429932	0.857041
H167	H	1.201356	-0.067214	0.429697
H168	H	1.701356	0.432786	0.929697
H169	H	1.279922	-0.133608	0.429671
H170	H	1.779922	0.366392	0.929671
H171	H	1.256256	-0.087831	0.775627
H172	H	1.756256	0.412169	1.275627
H173	H	1.002857	-0.292339	0.383104
H174	H	1.502857	0.207661	0.883104
