data_functionalizedCrystal
_audit_creation_method	'MofGen! by Chris Wilmer'
_symmetry_space_group_name_H-M	'P1'
_symmetry_Int_Tables_number	1
_symmetry_cell_setting	triclinic
loop_
_symmetry_equiv_pos_as_xyz
  x,y,z
_cell_length_a	15.995350
_cell_length_b	17.699083
_cell_length_c	16.776229
_cell_angle_alpha	89.992455
_cell_angle_beta	89.996506
_cell_angle_gamma	83.387695
loop_
_atom_site_label
_atom_site_type_symbol
_atom_site_fract_x
_atom_site_fract_y
_atom_site_fract_z
O1	O	1.110790	0.097560	-0.066222
O2	O	1.610790	0.597560	0.433778
O3	O	0.866990	0.109607	-0.066239
O4	O	1.366990	0.609607	0.433761
O5	O	0.995778	-0.006594	-0.066223
O6	O	1.495778	0.493406	0.433777
O7	O	0.982002	0.213761	-0.066238
O8	O	1.482002	0.713761	0.433762
O9	O	0.995761	-0.006602	0.066353
O10	O	1.495761	0.493398	0.566353
O11	O	0.866973	0.109600	0.066338
O12	O	1.366973	0.609600	0.566338
O13	O	1.110773	0.097553	0.066354
O14	O	1.610773	0.597553	0.566354
Zn15	Zn	0.988870	0.103575	0.087395
Zn16	Zn	1.488870	0.603575	0.587395
Zn17	Zn	0.988893	0.103584	-0.087280
Zn18	Zn	1.488893	0.603584	0.412720
O19	O	0.981985	0.213754	0.066338
O20	O	1.481985	0.713754	0.566338
C21	C	0.995276	-0.034796	0.000065
C22	C	1.495276	0.465204	0.500065
C23	C	0.993795	-0.118816	0.000065
C24	C	1.493795	0.381184	0.500065
C25	C	0.835788	0.109105	0.000047
C26	C	1.335788	0.609105	0.500047
C27	C	0.742841	0.107612	0.000041
C28	C	1.242841	0.607612	0.500041
C29	C	1.069391	-0.167312	0.000072
C30	C	1.569391	0.332688	0.500072
C31	C	1.067994	-0.246257	0.000065
C32	C	1.567994	0.253743	0.500065
C33	C	0.991001	-0.276706	0.000057
C34	C	1.491001	0.223294	0.500057
C35	C	0.915400	-0.228205	0.000048
C36	C	1.415400	0.271795	0.500048
C37	C	0.916797	-0.149261	0.000050
C38	C	1.416797	0.350739	0.500050
C39	C	0.909763	-0.546577	0.000041
C40	C	1.409763	-0.046577	0.500041
C41	C	0.908372	-0.625527	0.000042
C42	C	1.408372	-0.125527	0.500042
C43	C	1.060960	-0.643574	0.000056
C44	C	1.560960	-0.143574	0.500056
C45	C	1.062358	-0.564630	0.000058
C46	C	1.562358	-0.064630	0.500058
C47	C	0.986757	-0.516135	0.000045
C48	C	1.486757	-0.016135	0.500045
C49	C	0.988272	-0.430533	0.000051
C50	C	1.488272	0.069467	0.500051
C51	C	0.989485	-0.362306	0.000056
C52	C	1.489485	0.137694	0.500056
C53	C	0.405104	0.102250	0.000058
C54	C	0.905104	0.602250	0.500058
C55	C	0.452706	0.019493	0.000360
C56	C	0.952706	0.519493	0.500360
C57	C	0.549394	0.020987	0.000055
C58	C	1.049394	0.520987	0.500055
C59	C	0.572659	0.104910	0.000050
C60	C	1.072659	0.604910	0.500050
C61	C	0.531499	0.145732	-0.075657
C62	C	1.031499	0.645732	0.424343
C63	C	0.434867	0.143653	-0.075715
C64	C	0.934867	0.643653	0.424285
C65	C	0.434505	0.145355	0.075049
C66	C	0.934505	0.645355	0.575049
C67	C	0.531451	0.145335	0.076044
C68	C	1.031451	0.645335	0.576044
C69	C	0.667354	0.106417	0.000043
C70	C	1.167354	0.606417	0.500043
C71	C	0.310409	0.100745	0.000060
C72	C	0.810409	0.600745	0.500060
C73	C	1.141975	0.098054	0.000066
C74	C	1.641975	0.598054	0.500066
C75	C	1.234923	0.099547	0.000067
C76	C	1.734923	0.599547	0.500067
C77	C	0.982487	0.241955	0.000048
C78	C	1.482487	0.741955	0.500048
C79	C	0.983968	0.325976	0.000043
C80	C	1.483968	0.825976	0.500043
N81	N	0.988861	0.103568	0.206607
N82	N	1.488861	0.603568	0.706607
N83	N	0.988909	0.103585	-0.206491
N84	N	1.488909	0.603585	0.293509
C85	C	1.045906	0.052135	0.248331
C86	C	1.545906	0.552135	0.748331
C87	C	1.045910	0.052135	0.331783
C88	C	1.545910	0.552135	0.831783
C89	C	0.988874	0.103571	0.373509
C90	C	1.488874	0.603571	0.873509
C91	C	0.931823	0.155006	0.331779
C92	C	1.431823	0.655006	0.831779
C93	C	0.931815	0.155003	0.248329
C94	C	1.431815	0.655003	0.748329
C95	C	0.931853	0.155021	0.668327
C96	C	1.431853	0.655021	1.168327
C97	C	0.931867	0.155022	0.751783
C98	C	1.431867	0.655022	1.251783
C99	C	1.045949	0.052153	0.751781
C100	C	1.545949	0.552153	1.251781
C101	C	1.045941	0.052150	0.668330
C102	C	1.545941	0.552150	1.168330
C103	C	0.988887	0.103582	0.626607
C104	C	1.488887	0.603582	1.126607
C105	C	0.988882	0.103581	0.536119
C106	C	1.488882	0.603581	1.036119
C107	C	0.988883	0.103576	0.463996
C108	C	1.488883	0.603576	0.963996
H109	H	1.132087	-0.142527	0.000083
H110	H	1.632087	0.357473	0.500083
C111	C	0.503725	0.077695	0.195466
C112	C	1.003725	0.577695	0.695466
C113	C	0.568389	0.105099	0.151654
C114	C	1.068389	0.605099	0.651654
H115	H	0.526537	0.052850	0.242139
H116	H	1.026537	0.552850	0.742139
H117	H	0.463362	0.118964	0.210115
H118	H	0.963362	0.618964	0.710115
H119	H	0.477431	0.042675	0.163858
H120	H	0.977431	0.542675	0.663858
H121	H	0.594680	0.140124	0.183260
H122	H	1.094680	0.640124	0.683260
H123	H	0.608767	0.063825	0.137007
H124	H	1.108767	0.563825	0.637007
C125	C	0.602331	0.244158	0.017527
C126	C	1.102331	0.744158	0.517527
C127	C	0.552009	0.227957	0.082211
C128	C	1.052009	0.727957	0.582211
H129	H	0.615015	0.295170	0.021328
H130	H	1.115015	0.795170	0.521328
H131	H	0.653105	0.210558	0.018170
H132	H	1.153105	0.710558	0.518170
H133	H	0.572991	0.237747	-0.030787
H134	H	1.072991	0.737747	0.469213
H135	H	0.581352	0.234363	0.130525
H136	H	1.081352	0.734363	0.630525
H137	H	0.501226	0.261568	0.081576
H138	H	1.001226	0.761568	0.581576
C139	C	1.218965	-0.256166	0.000098
C140	C	1.718965	0.243834	0.500098
C141	C	1.151092	-0.299564	0.000081
C142	C	1.651092	0.200436	0.500081
H143	H	1.270268	-0.289077	0.000113
H144	H	1.770268	0.210923	0.500113
H145	H	1.216349	-0.224997	-0.046131
H146	H	1.716349	0.275003	0.453869
H147	H	1.216317	-0.225003	0.046334
H148	H	1.716317	0.274997	0.546334
H149	H	1.153737	-0.330723	-0.046158
H150	H	1.653737	0.169277	0.453842
H151	H	1.153710	-0.330746	0.046315
H152	H	1.653710	0.169254	0.546315
H153	H	0.402620	0.206370	0.075558
H154	H	0.902620	0.706370	0.575558
H155	H	0.577881	-0.011101	0.054326
H156	H	1.077881	0.488899	0.554326
H157	H	1.125053	-0.539843	0.000068
H158	H	1.625053	-0.039843	0.500068
C159	C	0.817902	0.171378	0.845657
C160	C	1.317902	0.671378	1.345657
C161	C	0.869164	0.211560	0.797654
C162	C	1.369164	0.711560	1.297654
H163	H	0.779199	0.206281	0.873979
H164	H	1.279199	0.706281	1.373979
H165	H	0.787851	0.139861	0.813113
H166	H	1.287851	0.639861	1.313113
H167	H	0.851894	0.140751	0.882443
H168	H	1.351894	0.640751	1.382443
H169	H	0.835173	0.242183	0.760864
H170	H	1.335173	0.742183	1.260864
H171	H	0.899217	0.243090	0.830201
H172	H	1.399217	0.743090	1.330201
C173	C	1.126586	-0.772605	0.000048
C174	C	1.626586	-0.272605	0.500048
C175	C	1.144065	-0.696882	0.000058
C176	C	1.644065	-0.196882	0.500058
H177	H	1.177891	-0.805512	0.000045
H178	H	1.677891	-0.305512	0.500045
H179	H	1.095009	-0.781840	0.046273
H180	H	1.595009	-0.281840	0.546273
H181	H	1.095016	-0.781819	-0.046192
H182	H	1.595016	-0.281819	0.453808
H183	H	1.175631	-0.687666	0.046300
H184	H	1.675631	-0.187666	0.546300
H185	H	1.175656	-0.687643	-0.046173
H186	H	1.675656	-0.187643	0.453827
C187	C	1.158668	-0.049555	0.256719
C188	C	1.658668	0.450445	0.756719
C189	C	1.108602	-0.004408	0.202469
C190	C	1.608602	0.495592	0.702469
H191	H	1.197370	-0.084467	0.228406
H192	H	1.697370	0.415533	0.728406
H193	H	1.188722	-0.018032	0.289254
H194	H	1.688722	0.481968	0.789254
H195	H	1.123866	-0.076793	0.289281
H196	H	1.623866	0.423207	0.789281
H197	H	1.143403	0.022835	0.169911
H198	H	1.643403	0.522835	0.669911
H199	H	1.078546	-0.035934	0.169920
H200	H	1.578546	0.464066	0.669920
C201	C	0.765824	-0.139346	0.000041
C202	C	1.265824	0.360654	0.500041
C203	C	0.833700	-0.095951	0.000045
C204	C	1.333700	0.404049	0.500045
H205	H	0.714523	-0.106434	0.000040
H206	H	1.214523	0.393566	0.500040
H207	H	0.768461	-0.170506	-0.046188
H208	H	1.268461	0.329494	0.453812
H209	H	0.768451	-0.170519	0.046277
H210	H	1.268451	0.329481	0.546277
H211	H	0.831077	-0.064782	-0.046195
H212	H	1.331077	0.435218	0.453805
H213	H	0.831062	-0.064778	0.046278
H214	H	1.331062	0.435222	0.546278
H215	H	0.416627	0.113890	-0.132304
H216	H	0.916627	0.613890	0.367696
H217	H	1.092402	0.010272	0.785760
H218	H	1.592402	0.510272	1.285760
H219	H	1.092360	0.010254	0.365754
H220	H	1.592360	0.510254	0.865754
C221	C	0.757671	-0.599762	0.000006
C222	C	1.257671	-0.099762	0.500006
C223	C	0.823734	-0.658998	0.000023
C224	C	1.323734	-0.158998	0.500023
H225	H	0.705424	-0.620428	-0.000010
H226	H	1.205424	-0.120428	0.499990
H227	H	0.761372	-0.569352	0.046237
H228	H	1.261372	-0.069352	0.546237
H229	H	0.761406	-0.569341	-0.046228
H230	H	1.261406	-0.069341	0.453772
H231	H	0.820002	-0.689416	0.046262
H232	H	1.320002	-0.189416	0.546262
H233	H	0.820031	-0.689420	-0.046212
H234	H	1.320031	-0.189420	0.453788
H235	H	0.848204	-0.507102	0.000031
H236	H	1.348204	-0.007102	0.500031
H237	H	0.852711	-0.253002	0.000037
H238	H	1.352711	0.246998	0.500037
C239	C	0.369310	0.021122	0.119477
C240	C	0.869310	0.521122	0.619477
C241	C	0.427779	-0.025172	0.073650
C242	C	0.927779	0.474828	0.573650
H243	H	0.353914	-0.006456	0.164722
H244	H	0.853914	0.493544	0.664722
H245	H	0.393652	0.064870	0.136493
H246	H	0.893652	0.564870	0.636493
H247	H	0.320703	0.036336	0.088297
H248	H	0.820703	0.536336	0.588297
H249	H	0.476388	-0.040381	0.104828
H250	H	0.976388	0.459619	0.604828
H251	H	0.403437	-0.068934	0.056635
H252	H	0.903437	0.431066	0.556635
H253	H	0.885379	0.196884	0.365758
H254	H	1.385379	0.696884	0.865758
H255	H	0.885363	0.196884	0.214358
H256	H	1.385363	0.696884	0.714358
H257	H	0.433187	-0.013431	-0.053630
H258	H	0.933187	0.486569	0.446370
H259	H	0.885400	0.196900	0.634363
H260	H	1.385400	0.696900	1.134363
H261	H	1.092388	0.010268	0.634359
H262	H	1.592388	0.510268	1.134359
H263	H	0.402496	0.204412	-0.079154
H264	H	0.902496	0.704412	0.420846
C265	C	0.522589	-0.050171	-0.117201
C266	C	1.022589	0.449829	0.382799
C267	C	0.587106	-0.022608	-0.073333
C268	C	1.087106	0.477392	0.426667
H269	H	0.545873	-0.077080	-0.162513
H270	H	1.045873	0.422920	0.337487
H271	H	0.494608	-0.083376	-0.084772
H272	H	0.994608	0.416624	0.415228
H273	H	0.483540	-0.008744	-0.134080
H274	H	0.983540	0.491256	0.365920
H275	H	0.626152	-0.064035	-0.056450
H276	H	1.126152	0.435965	0.443550
H277	H	0.615101	0.010600	-0.105768
H278	H	1.115101	0.510600	0.394232
H279	H	0.545499	0.207388	-0.078476
H280	H	1.045499	0.707388	0.421524
H281	H	0.559938	0.117384	-0.131997
H282	H	1.059938	0.617384	0.368003
H283	H	0.414018	0.118297	0.132434
H284	H	0.914018	0.618297	0.632434
