data_functionalizedCrystal
_audit_creation_method	'MofGen! by Chris Wilmer'
_symmetry_space_group_name_H-M	'P1'
_symmetry_Int_Tables_number	1
_symmetry_cell_setting	triclinic
loop_
_symmetry_equiv_pos_as_xyz
  x,y,z
_cell_length_a	10.654549
_cell_length_b	15.500215
_cell_length_c	10.654550
_cell_angle_alpha	93.157993
_cell_angle_beta	84.484854
_cell_angle_gamma	93.157316
loop_
_atom_site_label
_atom_site_type_symbol
_atom_site_fract_x
_atom_site_fract_y
_atom_site_fract_z
O1	O	1.673094	0.071924	0.181648
O2	O	1.307615	0.071931	0.198455
O3	O	1.498757	0.071922	0.007312
O4	O	1.481952	0.071933	0.372791
O5	O	1.488233	-0.071967	-0.003200
O6	O	1.297092	-0.071959	0.187944
O7	O	1.662570	-0.071965	0.171137
Cu8	Cu	1.478870	-0.085100	0.178580
Cu9	Cu	1.491315	0.085066	0.191011
O10	O	1.471428	-0.071956	0.362280
C11	C	1.255556	-0.000013	0.191965
C12	C	1.116113	-0.000011	0.188274
N13	N	1.470125	-0.204786	0.169836
C14	C	0.905598	-0.000011	0.297337
C15	C	1.036619	-0.000006	0.300816
C16	C	1.064580	-0.000013	0.072246
C17	C	0.933562	-0.000012	0.068769
C18	C	1.543649	-0.250058	0.243413
C19	C	1.537053	-0.340631	0.236792
C20	C	1.456925	-0.385930	0.156601
C21	C	1.383398	-0.340652	0.083016
C22	C	1.390002	-0.250081	0.089631
C23	C	1.433147	-0.659399	0.132776
C24	C	1.426546	-0.749977	0.126169
C25	C	1.580203	-0.749949	0.279944
C26	C	1.586794	-0.659376	0.286557
C27	C	1.513273	-0.614105	0.212968
C28	C	1.450177	-0.478511	0.149834
C29	C	1.520028	-0.521527	0.219728
C30	C	1.714630	-0.000019	0.177626
C31	C	1.854073	-0.000016	0.181318
C32	C	1.492261	-0.000022	-0.044742
C33	C	1.488569	-0.000021	-0.184185
N34	N	1.500070	0.204751	0.199745
C35	C	1.601111	-0.000022	-0.263671
C36	C	1.597635	-0.000012	-0.394691
C37	C	1.369066	-0.000002	-0.366727
C38	C	1.372544	-0.000006	-0.235709
C39	C	1.477924	-0.000010	0.414334
C40	C	1.481616	-0.000006	0.553777
H41	H	1.078563	-0.000002	0.395290
H42	H	1.585272	-0.484640	0.285015
H43	H	1.689278	-0.000011	-0.459404
O44	O	0.877982	-0.000027	-0.056376
H45	H	0.914126	0.058612	-0.106236
O46	O	1.150310	-0.000027	-0.049145
H47	H	1.250072	-0.000039	-0.027240
O48	O	1.353829	-0.610585	0.053421
H49	H	1.289869	-0.569323	0.116025
O50	O	1.659507	-0.798785	0.359291
H51	H	1.634315	-0.781408	0.460692
H52	H	1.280893	-0.000002	-0.170987
H53	H	1.330131	-0.213221	0.029718
O54	O	0.819859	-0.000005	0.418723
H55	H	0.877705	0.000008	0.499982
O56	O	1.630073	-0.201199	0.329905
H57	H	1.680098	-0.247900	0.379946
O58	O	1.340123	-0.798842	0.039670
H59	H	1.290115	-0.752147	-0.010400
O60	O	1.243926	-0.000004	-0.422298
H61	H	1.260411	-0.000014	-0.526758
H62	H	1.384936	-0.515404	0.084543
H63	H	1.596926	-0.377487	0.296703
O64	O	1.673210	-0.610516	0.373056
H65	H	1.723233	-0.657214	0.423105
H66	H	1.318162	-0.377542	0.017716
H67	H	1.695586	-0.000033	-0.221725
