data_functionalizedCrystal
_audit_creation_method	'MofGen! by Chris Wilmer'
_symmetry_space_group_name_H-M	'P1'
_symmetry_Int_Tables_number	1
_symmetry_cell_setting	triclinic
loop_
_symmetry_equiv_pos_as_xyz
  x,y,z
_cell_length_a	16.959454
_cell_length_b	12.759395
_cell_length_c	12.759387
_cell_angle_alpha	90.018981
_cell_angle_beta	89.968763
_cell_angle_gamma	89.982448
loop_
_atom_site_label
_atom_site_type_symbol
_atom_site_fract_x
_atom_site_fract_y
_atom_site_fract_z
Zn1	Zn	-0.314684	-1.606212	-0.594015
Zn2	Zn	-0.446887	-1.606091	-0.418338
Zn3	Zn	-0.314720	-1.430515	-0.418351
Zn4	Zn	-0.446819	-1.430486	-0.593976
O5	O	-0.380778	-1.518326	-0.506170
O6	O	-0.332234	-1.753217	-0.570721
O7	O	-0.429399	-1.582762	-0.271318
O8	O	-0.204105	-1.453885	-0.441675
O9	O	-0.429363	-1.753128	-0.441652
O10	O	-0.204078	-1.582968	-0.570735
O11	O	-0.332296	-1.453768	-0.271328
O12	O	-0.332230	-1.283490	-0.441638
O13	O	-0.429247	-1.453835	-0.741002
O14	O	-0.429282	-1.283469	-0.570669
O15	O	-0.332168	-1.582940	-0.741031
O16	O	-0.557489	-1.582734	-0.441614
O17	O	-0.557439	-1.453718	-0.570655
C18	C	-0.380753	-1.245359	-0.506151
C19	C	-0.380762	-1.128582	-0.506168
C20	C	-0.586144	-1.518238	-0.506152
C21	C	-0.674000	-1.518297	-0.506180
C22	C	-0.279785	-1.128655	-0.640785
C23	C	-0.229305	-1.073831	-0.708101
C24	C	-0.229315	-0.964109	-0.708112
C25	C	-0.279810	-0.909209	-0.640797
C26	C	-0.330291	-0.964033	-0.573481
C27	C	-0.330276	-1.073758	-0.573480
C28	C	-0.431262	-0.963960	-0.438860
C29	C	-0.431257	-1.073682	-0.438853
C30	C	-0.481757	-0.909061	-0.371546
C31	C	-0.532243	-0.963885	-0.304234
C32	C	-0.532231	-1.073613	-0.304227
C33	C	-0.481737	-1.128506	-0.371538
C34	C	-1.045480	-1.451245	-0.573354
C35	C	-1.045472	-1.585700	-0.439093
C36	C	-0.962926	-1.585663	-0.439083
C37	C	-0.921653	-1.518415	-0.506209
C38	C	-0.962926	-1.451204	-0.573345
C39	C	-0.921647	-1.652866	-0.371941
C40	C	-0.839096	-1.652831	-0.371928
C41	C	-0.797822	-1.585588	-0.439060
C42	C	-0.839100	-1.518374	-0.506199
C43	C	-0.797827	-1.451126	-0.573325
C44	C	-0.839103	-1.383917	-0.640470
C45	C	-0.921652	-1.383960	-0.640477
C46	C	-0.715273	-1.585545	-0.439054
C47	C	-0.715273	-1.451085	-0.573315
C48	C	-0.174609	-1.518443	-0.506211
C49	C	-0.086753	-1.518493	-0.506228
C50	C	-0.380696	-1.518397	-0.780204
C51	C	-0.380661	-1.518428	-0.896980
C52	C	-0.380795	-0.792359	-0.506184
C53	C	-0.380782	-0.909136	-0.506176
C54	C	-0.279542	-1.384114	-0.897010
C55	C	-0.228967	-1.316977	-0.951885
C56	C	-0.228938	-1.317008	-1.061607
C57	C	-0.279492	-1.384182	-1.116456
C58	C	-0.330067	-1.451320	-1.061580
C59	C	-0.330089	-1.451283	-0.951856
C60	C	-0.431189	-1.585626	-1.061551
C61	C	-0.431215	-1.585602	-0.951829
C62	C	-0.481743	-1.652800	-1.116399
C63	C	-0.532316	-1.719945	-1.061524
C64	C	-0.532341	-1.719912	-0.951796
C65	C	-0.481790	-1.652739	-0.896954
C66	C	-0.380802	-1.518316	-0.233202
C67	C	-0.380614	-1.518489	-0.116426
H68	H	-0.188191	-1.118542	-0.762905
H69	H	-1.079091	-1.396528	-0.628025
C70	C	-0.632053	-0.974827	-0.171163
C71	C	-0.587742	-0.903540	-0.230247
H72	H	-0.666313	-0.937568	-0.125483
H73	H	-0.662327	-1.017626	-0.216865
H74	H	-0.597567	-1.017622	-0.131056
H75	H	-0.622227	-0.860750	-0.270359
H76	H	-0.557465	-0.860723	-0.184539
H77	H	-0.955257	-1.707608	-0.317283
H78	H	-0.573336	-1.118245	-0.249406
C79	C	-0.556936	-1.285682	-0.398133
C80	C	-0.481723	-1.249114	-0.371535
H81	H	-0.556921	-1.360141	-0.398137
H82	H	-0.594223	-1.260841	-0.348410
H83	H	-0.570665	-1.260876	-0.465900
H84	H	-0.467997	-1.273914	-0.303764
H85	H	-0.444424	-1.273965	-0.421260
H86	H	-0.481720	-1.652816	-1.205741
C87	C	-0.847389	-1.785751	-0.239222
C88	C	-0.793729	-1.726716	-0.298135
H89	H	-0.819379	-1.831370	-0.193674
H90	H	-0.879622	-1.740014	-0.198994
H91	H	-0.879550	-1.825919	-0.285049
H92	H	-0.761572	-1.686541	-0.252309
H93	H	-0.761482	-1.772459	-0.338367
C94	C	-0.259579	-0.752004	-0.540905
C95	C	-0.279817	-0.788601	-0.640801
H96	H	-0.259580	-0.677545	-0.540911
H97	H	-0.296873	-0.776794	-0.491198
H98	H	-0.208552	-0.776839	-0.522868
H99	H	-0.330847	-0.763772	-0.658835
H100	H	-0.242522	-0.763800	-0.690524
C101	C	-0.813614	-1.332636	-0.818328
C102	C	-0.793731	-1.310001	-0.714257
H103	H	-0.785603	-1.287001	-0.863877
H104	H	-0.800040	-1.403204	-0.833748
H105	H	-0.868684	-1.323035	-0.827939
H106	H	-0.738661	-1.319610	-0.704643
H107	H	-0.807299	-1.239416	-0.698832
H108	H	-0.955267	-1.329241	-0.695142
C109	C	-1.172010	-1.645391	-0.379429
C110	C	-1.090837	-1.659571	-0.365265
H111	H	-1.200016	-1.690991	-0.333839
H112	H	-1.185555	-1.574808	-0.364030
H113	H	-1.185507	-1.660777	-0.450023
H114	H	-1.077338	-1.644178	-0.294672
H115	H	-1.077286	-1.730170	-0.380656
C116	C	-0.622500	-1.600158	-0.297735
C117	C	-0.669901	-1.659409	-0.365253
H118	H	-0.594494	-1.645763	-0.252168
H119	H	-0.586110	-1.560117	-0.337717
H120	H	-0.654753	-1.554421	-0.257517
H121	H	-0.637647	-1.705141	-0.405476
H122	H	-0.706295	-1.699467	-0.325266
C123	C	-0.224520	-1.310946	-0.739848
C124	C	-0.279570	-1.384080	-0.776402
H125	H	-0.224542	-1.310921	-0.665390
H126	H	-0.173518	-1.329165	-0.764684
H127	H	-0.238176	-1.243148	-0.764669
H128	H	-0.265911	-1.451880	-0.751587
H129	H	-0.330583	-1.365868	-0.751556
C130	C	-0.502025	-0.751924	-0.471454
C131	C	-0.481773	-0.788453	-0.371556
H132	H	-0.502041	-0.677465	-0.471456
H133	H	-0.464729	-0.776768	-0.521163
H134	H	-0.553048	-0.776753	-0.489482
H135	H	-0.430747	-0.763630	-0.353531
H136	H	-0.519071	-0.763598	-0.321832
C137	C	-0.190444	-1.139089	-0.918100
C138	C	-0.173403	-1.243139	-0.891590
H139	H	-0.156146	-1.093506	-0.880872
H140	H	-0.183186	-1.129507	-0.991290
H141	H	-0.243557	-1.123687	-0.900098
H142	H	-0.120291	-1.258544	-0.909599
H143	H	-0.180655	-1.252726	-0.818384
C144	C	-0.689801	-1.399799	-0.751174
C145	C	-0.669909	-1.377164	-0.647106
H146	H	-0.661798	-1.354159	-0.796727
H147	H	-0.676222	-1.470365	-0.766598
H148	H	-0.744873	-1.390206	-0.760776
H149	H	-0.614838	-1.386765	-0.637502
H150	H	-0.683482	-1.306580	-0.631677
C151	C	-0.217907	-1.175733	-1.185003
C152	C	-0.173347	-1.243208	-1.121931
H153	H	-0.183587	-1.130169	-1.222239
H154	H	-0.248001	-1.215747	-1.233362
H155	H	-0.252346	-1.135511	-1.142176
H156	H	-0.138912	-1.283436	-1.164759
H157	H	-0.143240	-1.203190	-1.073567
C158	C	-0.259319	-1.484183	-1.273642
C159	C	-0.279461	-1.384215	-1.237063
H160	H	-0.259304	-1.484203	-1.348100
H161	H	-0.208324	-1.502365	-1.248837
H162	H	-0.296678	-1.533775	-1.248807
H163	H	-0.242099	-1.334623	-1.261892
H164	H	-0.330463	-1.366020	-1.261879
C165	C	-0.666162	-1.771037	-1.095268
C166	C	-0.587880	-1.793774	-1.121815
H167	H	-0.700464	-1.816614	-1.132498
H168	H	-0.673409	-1.780638	-1.022078
H169	H	-0.677705	-1.700439	-1.113242
H170	H	-0.576335	-1.864369	-1.103834
H171	H	-0.580630	-1.784181	-1.195021
H172	H	-0.573524	-1.774586	-0.907122
C173	C	-0.557018	-1.625855	-0.739757
C174	C	-0.481821	-1.652702	-0.776346
H175	H	-0.557036	-1.625836	-0.665298
H176	H	-0.570658	-1.558061	-0.764573
H177	H	-0.594355	-1.675475	-0.764573
H178	H	-0.444484	-1.603078	-0.751536
H179	H	-0.468171	-1.720506	-0.751519
H180	H	-0.279768	-1.217996	-0.640779
H181	H	-0.188205	-0.919471	-0.762920
