data_functionalizedCrystal
_audit_creation_method	'MofGen! by Chris Wilmer'
_symmetry_space_group_name_H-M	'P1'
_symmetry_Int_Tables_number	1
_symmetry_cell_setting	triclinic
loop_
_symmetry_equiv_pos_as_xyz
  x,y,z
_cell_length_a	16.109318
_cell_length_b	23.532407
_cell_length_c	14.586319
_cell_angle_alpha	89.987733
_cell_angle_beta	90.000075
_cell_angle_gamma	83.158655
loop_
_atom_site_label
_atom_site_type_symbol
_atom_site_fract_x
_atom_site_fract_y
_atom_site_fract_z
O1	O	1.102546	0.073249	-0.076182
O2	O	0.860414	0.082349	-0.076202
O3	O	0.988782	-0.005106	-0.076166
O4	O	0.974179	0.160703	-0.076218
O5	O	0.988773	-0.005107	0.076315
O6	O	0.860406	0.082347	0.076279
O7	O	1.102537	0.073248	0.076299
Cu8	Cu	0.981470	0.077797	0.090212
Cu9	Cu	0.981481	0.077799	-0.090115
O10	O	0.974170	0.160702	0.076263
C11	C	0.829438	0.081978	0.000036
C12	C	0.737152	0.080867	0.000029
C13	C	0.438112	0.077282	-0.083071
C14	C	0.524825	0.078321	-0.083077
C15	C	0.524834	0.078312	0.083166
C16	C	0.438123	0.077269	0.083171
C17	C	0.394764	0.076757	0.000050
C18	C	0.568188	0.078840	0.000039
C19	C	0.662206	0.079967	0.000033
C20	C	0.300740	0.075628	0.000055
C21	C	0.988405	-0.026324	0.000079
C22	C	0.987287	-0.089545	0.000093
C23	C	0.906712	-0.356013	0.000029
C24	C	0.907750	-0.296609	0.000036
O25	O	0.843830	-0.260103	0.000002
N26	N	0.984064	-0.273698	0.000053
C27	C	1.059345	-0.310195	0.000054
O28	O	1.124352	-0.285252	0.000068
C29	C	1.058305	-0.369598	0.000040
C30	C	0.981986	-0.392505	0.000033
C31	C	0.830398	-0.378921	0.000020
C32	C	0.829360	-0.438321	0.000015
C33	C	0.904635	-0.474813	0.000018
C34	C	0.980948	-0.451905	0.000027
C35	C	1.133585	-0.406093	0.000034
C36	C	1.132539	-0.465499	0.000020
C37	C	1.056220	-0.488407	0.000012
C38	C	1.055185	-0.547797	0.000025
N39	N	0.978870	-0.570708	0.000008
C40	C	0.903596	-0.534216	0.000005
C41	C	1.061522	-0.185444	0.000081
C42	C	1.062562	-0.126042	0.000101
C43	C	0.910967	-0.112461	0.000082
C44	C	0.909928	-0.171864	0.000068
C45	C	0.985208	-0.208355	0.000064
C46	C	0.901421	-0.658961	-0.000006
C47	C	0.900389	-0.718367	-0.000008
C48	C	1.051984	-0.731943	0.000007
C49	C	1.053016	-0.672543	0.000013
C50	C	0.977728	-0.636052	0.000004
O51	O	1.119071	-0.584338	0.000056
O52	O	0.838600	-0.559167	-0.000022
C53	C	1.133513	0.073619	0.000059
C54	C	1.225799	0.074729	0.000060
C55	C	0.974546	0.181920	0.000016
C56	C	0.975664	0.245141	-0.000004
N57	N	0.981469	0.077796	0.217043
N58	N	0.981489	0.077796	-0.216946
C59	C	1.038329	0.039084	0.452066
C60	C	1.038331	0.039083	0.548047
C61	C	0.924623	0.116509	0.548024
C62	C	0.924618	0.116508	0.452045
C63	C	0.981475	0.077796	0.404068
C64	C	0.981483	0.077796	0.596029
C65	C	0.981485	0.077795	0.700096
C66	C	0.981472	0.077796	0.299994
H67	H	0.560115	0.078749	-0.150762
H68	H	0.878332	0.148029	0.587096
Br69	Br	0.847447	0.169044	0.386897
H70	H	0.402811	0.076864	-0.150754
Br71	Br	0.799243	-0.609448	-0.000018
H72	H	1.084624	0.007562	0.413006
H73	H	0.838239	-0.737015	-0.000010
Br74	Br	0.583683	0.079012	0.195968
H75	H	1.122828	-0.215153	0.000084
H76	H	1.084626	0.007560	0.587125
Br77	Br	0.379289	0.076552	0.195986
H78	H	0.767213	-0.456967	0.000001
Br79	Br	0.728225	-0.329406	0.000012
Br80	Br	0.806349	-0.202946	0.000058
Br81	Br	0.808807	-0.062924	0.000080
H82	H	1.124709	-0.107397	0.000122
H83	H	1.195732	-0.387453	0.000040
Br84	Br	1.156593	-0.641452	0.000063
Br85	Br	1.234711	-0.515021	0.000008
H86	H	1.113271	-0.761665	0.000014
