data_functionalizedCrystal
_audit_creation_method	'MofGen! by Chris Wilmer'
_symmetry_space_group_name_H-M	'P1'
_symmetry_Int_Tables_number	1
_symmetry_cell_setting	triclinic
loop_
_symmetry_equiv_pos_as_xyz
  x,y,z
_cell_length_a	12.594517
_cell_length_b	12.594516
_cell_length_c	13.032268
_cell_angle_alpha	97.152436
_cell_angle_beta	97.161190
_cell_angle_gamma	90.015485
loop_
_atom_site_label
_atom_site_type_symbol
_atom_site_fract_x
_atom_site_fract_y
_atom_site_fract_z
Zn1	Zn	1.550787	-0.500156	-0.590929
Zn2	Zn	2.050787	-0.000156	-0.090929
Zn3	Zn	1.573291	-0.655567	-0.416201
Zn4	Zn	2.073291	-0.155567	0.083799
Zn5	Zn	1.395405	-0.477601	-0.416199
Zn6	Zn	1.895405	0.022399	0.083801
Zn7	Zn	1.372778	-0.678085	-0.590885
Zn8	Zn	1.872778	-0.178085	-0.090885
O9	O	1.473065	-0.577852	-0.503554
O10	O	1.973065	-0.077852	-0.003554
O11	O	1.702715	-0.520787	-0.567770
O12	O	2.202715	-0.020787	-0.067770
O13	O	1.568582	-0.613096	-0.269970
O14	O	2.068582	-0.113096	0.230030
O15	O	1.416067	-0.331649	-0.439395
O16	O	1.916067	0.168351	0.060605
O17	O	1.719249	-0.634967	-0.439398
O18	O	2.219249	-0.134967	0.060602
O19	O	1.530226	-0.348220	-0.567769
O20	O	2.030226	0.151780	-0.067769
O21	O	1.437889	-0.482345	-0.269968
O22	O	1.937889	0.017655	0.230032
O23	O	1.243460	-0.504180	-0.439352
O24	O	1.743460	-0.004180	0.060648
O25	O	1.377504	-0.673346	-0.737122
O26	O	1.877504	-0.173346	-0.237122
O27	O	1.226837	-0.651475	-0.567693
O28	O	1.726837	-0.151475	-0.067693
O29	O	1.508286	-0.542622	-0.737154
O30	O	2.008286	-0.042622	-0.237154
O31	O	1.546642	-0.807497	-0.439355
O32	O	2.046642	-0.307497	0.060645
O33	O	1.399326	-0.824041	-0.567695
O34	O	1.899326	-0.324041	-0.067695
C35	C	1.196529	-0.577825	-0.503519
C36	C	1.696529	-0.077825	-0.003519
C37	C	1.078222	-0.577842	-0.503528
C38	C	1.578222	-0.077842	-0.003528
C39	C	0.947195	-0.497670	-0.433883
C40	C	1.447195	0.002330	0.066117
C41	C	1.005713	-0.484070	-0.529238
C42	C	1.505713	0.015930	-0.029238
C43	C	1.021275	-0.591395	-0.408184
C44	C	1.521275	-0.091395	0.091816
C45	C	0.925938	-0.564249	-0.599010
C46	C	1.425938	-0.064249	-0.099010
C47	C	0.941502	-0.671611	-0.477892
C48	C	1.441502	-0.171611	0.022108
C49	C	0.999979	-0.658056	-0.573312
C50	C	1.499979	-0.158056	-0.073312
C51	C	1.472997	-0.854392	-0.503543
C52	C	1.972997	-0.354392	-0.003543
C53	C	1.473060	-0.972701	-0.503574
C54	C	1.973060	-0.472701	-0.003574
C55	C	1.392935	-1.050985	-0.573329
C56	C	1.892935	-0.550985	-0.073329
C57	C	1.379342	-1.109517	-0.477975
C58	C	1.879342	-0.609517	0.022025
C59	C	1.486748	-1.124970	-0.598943
C60	C	1.986748	-0.624970	-0.098943
C61	C	1.459423	-1.029669	-0.408170
C62	C	1.959423	-0.529669	0.091830
C63	C	1.566866	-1.045124	-0.529202
C64	C	2.066866	-0.545124	-0.029202
C65	C	1.553319	-1.103615	-0.433783
C66	C	2.053319	-0.603615	0.066217
C67	C	1.750681	-0.577881	-0.503589
C68	C	2.250681	-0.077881	-0.003589
C69	C	1.868985	-0.577893	-0.503604
C70	C	2.368985	-0.077893	-0.003604
C71	C	1.437861	-0.613011	-0.776114
C72	C	1.937861	-0.113011	-0.276114
C73	C	1.422859	-0.627994	-0.892263
C74	C	1.922859	-0.127994	-0.392263
C75	C	1.473160	-0.300236	-0.503587
C76	C	1.973160	0.199764	-0.003587
C77	C	1.473200	-0.181932	-0.503601
C78	C	1.973200	0.318068	-0.003601
C79	C	1.480878	-0.569994	-0.944062
C80	C	1.980878	-0.069994	-0.444062
C81	C	1.465375	-0.585478	-1.064108
C82	C	1.965375	-0.085478	-0.564108
C83	C	1.508194	-0.542753	-0.232053
C84	C	2.008194	-0.042753	0.267947
C85	C	1.523402	-0.527470	-0.115905
C86	C	2.023402	-0.027470	0.384095
H87	H	0.913171	-0.750860	-0.456141
H88	H	1.413171	-0.250860	0.043859
Br89	Br	1.320923	-0.729859	-0.966466
Br90	Br	1.820923	-0.229859	-0.466466
H91	H	1.404212	-0.646595	-1.108631
H92	H	1.904212	-0.146595	-0.608631
Br93	Br	1.247227	-1.156833	-0.441849
Br94	Br	1.747227	-0.656833	0.058151
Br95	Br	1.440072	-0.960793	-0.273721
Br96	Br	1.940072	-0.460793	0.226279
Br97	Br	1.666376	-1.142288	-0.335377
Br98	Br	2.166376	-0.642288	0.164623
H99	H	1.584552	-0.466341	-1.071383
H100	H	2.084552	0.033659	-0.571383
H101	H	0.923717	-0.429815	-0.375028
H102	H	1.423717	0.070185	0.124972
H103	H	1.034005	-0.404792	-0.550973
H104	H	1.534005	0.095208	-0.050973
Br105	Br	0.857037	-0.545022	-0.733496
Br106	Br	1.357037	-0.045022	-0.233496
Br107	Br	1.698941	-0.997769	-0.565370
Br108	Br	2.198941	-0.497769	-0.065370
H109	H	1.498269	-1.166424	-0.679586
H110	H	1.998269	-0.666424	-0.179586
Br111	Br	1.038760	-0.771114	-0.671636
Br112	Br	1.538760	-0.271114	-0.171636
H113	H	1.062748	-0.602838	-0.327520
H114	H	1.562748	-0.102838	0.172480
Br115	Br	1.279844	-1.011953	-0.671509
Br116	Br	1.779844	-0.511953	-0.171509
Br117	Br	1.582773	-0.468089	-0.869859
Br118	Br	2.082773	0.031911	-0.369859
