data_functionalizedCrystal
_audit_creation_method	'MofGen! by Chris Wilmer'
_symmetry_space_group_name_H-M	'P1'
_symmetry_Int_Tables_number	1
_symmetry_cell_setting	triclinic
loop_
_symmetry_equiv_pos_as_xyz
  x,y,z
_cell_length_a	14.044191
_cell_length_b	14.044190
_cell_length_c	15.186229
_cell_angle_alpha	89.991383
_cell_angle_beta	89.999039
_cell_angle_gamma	93.191777
loop_
_atom_site_label
_atom_site_type_symbol
_atom_site_fract_x
_atom_site_fract_y
_atom_site_fract_z
O1	O	1.277177	0.230199	-0.073204
O2	O	1.527177	0.480199	0.176796
O3	O	1.777177	0.730199	0.426796
O4	O	2.027177	0.980199	0.676796
O5	O	1.000504	0.221887	-0.073215
O6	O	1.250504	0.471887	0.176785
O7	O	1.500504	0.721887	0.426785
O8	O	1.750504	0.971887	0.676785
O9	O	1.134684	0.087707	-0.073192
O10	O	1.384684	0.337707	0.176808
O11	O	1.634684	0.587707	0.426808
O12	O	1.884684	0.837707	0.676808
O13	O	1.142997	0.364379	-0.073227
O14	O	1.392997	0.614379	0.176773
O15	O	1.642997	0.864379	0.426773
O16	O	1.892997	1.114379	0.676773
O17	O	1.134674	0.087704	0.073265
O18	O	1.384674	0.337704	0.323265
O19	O	1.634674	0.587704	0.573265
O20	O	1.884674	0.837704	0.823265
O21	O	1.000494	0.221884	0.073242
O22	O	1.250494	0.471884	0.323242
O23	O	1.500494	0.721884	0.573242
O24	O	1.750494	0.971884	0.823242
O25	O	1.277167	0.230196	0.073253
O26	O	1.527167	0.480196	0.323253
O27	O	1.777167	0.730196	0.573253
O28	O	2.027167	0.980196	0.823253
Zn29	Zn	1.138829	0.226040	0.096501
Zn30	Zn	1.388829	0.476040	0.346501
Zn31	Zn	1.638829	0.726040	0.596501
Zn32	Zn	1.888829	0.976040	0.846501
Zn33	Zn	1.138842	0.226043	-0.096463
Zn34	Zn	1.388842	0.476043	0.153537
Zn35	Zn	1.638842	0.726043	0.403537
Zn36	Zn	1.888842	0.976043	0.653537
O37	O	1.142987	0.364376	0.073231
O38	O	1.392987	0.614376	0.323231
O39	O	1.642987	0.864376	0.573231
O40	O	1.892987	1.114376	0.823231
C41	C	0.964877	0.218249	0.000013
C42	C	1.214877	0.468249	0.250013
C43	C	1.464877	0.718249	0.500013
C44	C	1.714877	0.968249	0.750013
C45	C	0.858734	0.207401	0.000010
C46	C	1.108734	0.457401	0.250010
C47	C	1.358734	0.707401	0.500010
C48	C	1.608734	0.957401	0.750010
C49	C	1.131043	0.052083	0.000039
C50	C	1.381043	0.302083	0.250039
C51	C	1.631043	0.552083	0.500039
C52	C	1.881043	0.802083	0.750039
C53	C	1.120195	-0.054060	0.000046
C54	C	1.370195	0.195940	0.250046
C55	C	1.620195	0.445940	0.500046
C56	C	1.870195	0.695940	0.750046
C57	C	0.613277	0.264502	0.000011
C58	C	0.863277	0.514502	0.250011
C59	C	1.113277	0.764502	0.500011
C60	C	1.363277	1.014502	0.750011
C61	C	0.664400	0.187585	0.000019
C62	C	0.914400	0.437585	0.250019
C63	C	1.164400	0.687585	0.500019
C64	C	1.414400	0.937585	0.750019
C65	C	0.772537	0.198614	0.000014
C66	C	1.022537	0.448614	0.250014
C67	C	1.272537	0.698614	0.500014
C68	C	1.522537	0.948614	0.750014
C69	C	0.505130	0.253475	0.000017
C70	C	0.755130	0.503475	0.250017
C71	C	1.005130	0.753475	0.500017
C72	C	1.255130	1.003475	0.750017
C73	C	1.177296	-0.299517	0.000014
C74	C	1.427296	-0.049517	0.250014
C75	C	1.677296	0.200483	0.500014
C76	C	1.927296	0.450483	0.750014
C77	C	1.100379	-0.248394	0.000017
C78	C	1.350379	0.001606	0.250017
C79	C	1.600379	0.251606	0.500017
C80	C	1.850379	0.501606	0.750017
C81	C	1.111408	-0.140257	0.000033
C82	C	1.361408	0.109743	0.250033
C83	C	1.611408	0.359743	0.500033
C84	C	1.861408	0.609743	0.750033
C85	C	1.166269	-0.407664	-0.000003
C86	C	1.416269	-0.157664	0.249997
C87	C	1.666269	0.092336	0.499997
C88	C	1.916269	0.342336	0.749997
C89	C	1.312794	0.233834	0.000023
C90	C	1.562794	0.483834	0.250023
C91	C	1.812794	0.733834	0.500023
C92	C	2.062794	0.983834	0.750023
C93	C	1.418937	0.244682	0.000021
C94	C	1.668937	0.494682	0.250021
C95	C	1.918937	0.744682	0.500021
C96	C	2.168937	0.994682	0.750021
C97	C	1.146628	0.400000	-0.000002
C98	C	1.396628	0.650000	0.249998
C99	C	1.646628	0.900000	0.499998
C100	C	1.896628	1.150000	0.749998
C101	C	1.157476	0.506143	-0.000015
C102	C	1.407476	0.756143	0.249985
C103	C	1.657476	1.006143	0.499985
C104	C	1.907476	1.256143	0.749985
N105	N	1.138827	0.226037	0.228194
N106	N	1.388827	0.476037	0.478194
N107	N	1.638827	0.726037	0.728194
N108	N	1.888827	0.976037	0.978194
N109	N	1.138851	0.226039	-0.228155
N110	N	1.388851	0.476039	0.021845
N111	N	1.638851	0.726039	0.271845
N112	N	1.888851	0.976039	0.521845
C113	C	1.198266	0.166646	0.453926
C114	C	1.448266	0.416646	0.703926
C115	C	1.698266	0.666646	0.953926
C116	C	1.948266	0.916646	1.203926
C117	C	1.198269	0.166644	0.546116
C118	C	1.448269	0.416644	0.796116
C119	C	1.698269	0.666644	1.046116
C120	C	1.948269	0.916644	1.296116
C121	C	1.079405	0.285433	0.546105
C122	C	1.329405	0.535433	0.796105
C123	C	1.579405	0.785433	1.046105
C124	C	1.829405	1.035433	1.296105
C125	C	1.079398	0.285429	0.453917
C126	C	1.329398	0.535429	0.703917
C127	C	1.579398	0.785429	0.953917
C128	C	1.829398	1.035429	1.203917
C129	C	1.138834	0.226037	0.407830
C130	C	1.388834	0.476037	0.657830
C131	C	1.638834	0.726037	0.907830
C132	C	1.888834	0.976037	1.157830
C133	C	1.138844	0.226039	0.592208
C134	C	1.388844	0.476039	0.842208
C135	C	1.638844	0.726039	1.092208
C136	C	1.888844	0.976039	1.342208
C137	C	1.138846	0.226037	0.692164
C138	C	1.388846	0.476037	0.942164
C139	C	1.638846	0.726037	1.192164
C140	C	1.888846	0.976037	1.442164
C141	C	1.138830	0.226037	0.307868
C142	C	1.388830	0.476037	0.557868
C143	C	1.638830	0.726037	0.807868
C144	C	1.888830	0.976037	1.057868
H145	H	0.626955	0.113453	-0.000034
H146	H	0.876955	0.363453	0.249966
H147	H	1.126955	0.613453	0.499966
H148	H	1.376955	0.863453	0.749966
Cl149	Cl	0.671086	0.378951	-0.000014
Cl150	Cl	0.921086	0.628951	0.249986
Cl151	Cl	1.171086	0.878951	0.499986
Cl152	Cl	1.421086	1.128951	0.749986
H153	H	1.026247	-0.285839	0.000009
H154	H	1.276247	-0.035839	0.250009
H155	H	1.526247	0.214161	0.500009
H156	H	1.776247	0.464161	0.750009
Cl157	Cl	1.291745	-0.241708	0.000032
Cl158	Cl	1.541745	0.008292	0.250032
Cl159	Cl	1.791745	0.258292	0.500032
Cl160	Cl	2.041745	0.508292	0.750032
Cl161	Cl	1.272981	0.091978	0.395992
Cl162	Cl	1.522981	0.341978	0.645992
Cl163	Cl	1.772981	0.591978	0.895992
Cl164	Cl	2.022981	0.841978	1.145992
H165	H	1.246662	0.118281	0.583645
H166	H	1.496662	0.368281	0.833645
H167	H	1.746662	0.618281	1.083645
H168	H	1.996662	0.868281	1.333645
H169	H	1.031016	0.333790	0.583639
H170	H	1.281016	0.583790	0.833639
H171	H	1.531016	0.833790	1.083639
H172	H	1.781016	1.083790	1.333639
Cl173	Cl	1.004674	0.360094	0.395962
Cl174	Cl	1.254674	0.610094	0.645962
Cl175	Cl	1.504674	0.860094	0.895962
Cl176	Cl	1.754674	1.110094	1.145962
