data_functionalizedCrystal
_audit_creation_method	'MofGen! by Chris Wilmer'
_symmetry_space_group_name_H-M	'P1'
_symmetry_Int_Tables_number	1
_symmetry_cell_setting	triclinic
loop_
_symmetry_equiv_pos_as_xyz
  x,y,z
_cell_length_a	11.792241
_cell_length_b	19.288864
_cell_length_c	10.868271
_cell_angle_alpha	89.981822
_cell_angle_beta	90.001559
_cell_angle_gamma	96.335169
loop_
_atom_site_label
_atom_site_type_symbol
_atom_site_fract_x
_atom_site_fract_y
_atom_site_fract_z
O1	O	0.141575	-0.922153	0.102718
O2	O	0.474908	-0.588819	0.436051
O3	O	0.808242	-0.255486	0.769384
O4	O	0.160674	-0.720001	0.102634
O5	O	0.494008	-0.386667	0.435967
O6	O	0.827341	-0.053334	0.769300
O7	O	-0.014120	-0.825982	0.102669
O8	O	0.319213	-0.492649	0.436002
O9	O	0.652546	-0.159316	0.769336
O10	O	0.316370	-0.816171	0.102682
O11	O	0.649703	-0.482838	0.436016
O12	O	0.983036	-0.149504	0.769349
O13	O	-0.014115	-0.825973	-0.101976
O14	O	0.319219	-0.492639	0.231358
O15	O	0.652552	-0.159306	0.564691
O16	O	0.160680	-0.719991	-0.102011
O17	O	0.494013	-0.386658	0.231322
O18	O	0.827347	-0.053324	0.564656
O19	O	0.141581	-0.922143	-0.101927
O20	O	0.474914	-0.588810	0.231406
O21	O	0.808247	-0.255476	0.564740
Zn22	Zn	0.151131	-0.821066	-0.134461
Zn23	Zn	0.484465	-0.487732	0.198873
Zn24	Zn	0.817798	-0.154399	0.532206
Zn25	Zn	0.151124	-0.821078	0.135167
Zn26	Zn	0.484457	-0.487745	0.468501
Zn27	Zn	0.817790	-0.154412	0.801834
O28	O	0.316375	-0.816161	-0.101962
O29	O	0.649709	-0.482828	0.231371
O30	O	0.983042	-0.149495	0.564704
C31	C	0.160063	-0.694116	0.000300
C32	C	0.493396	-0.360783	0.333634
C33	C	0.826729	-0.027449	0.666967
C34	C	0.158218	-0.617002	0.000268
C35	C	0.491551	-0.283668	0.333602
C36	C	0.824884	0.049665	0.666935
C37	C	-0.056399	-0.825361	0.000347
C38	C	0.276934	-0.492028	0.333680
C39	C	0.610268	-0.158695	0.667014
C40	C	-0.182385	-0.823517	0.000347
C41	C	0.150949	-0.490183	0.333681
C42	C	0.484282	-0.156850	0.667014
C43	C	0.142192	-0.948028	0.000409
C44	C	0.475526	-0.614695	0.333742
C45	C	0.808859	-0.281361	0.667076
C46	C	0.144037	-1.025142	0.000449
C47	C	0.477371	-0.691809	0.333783
C48	C	0.810704	-0.358475	0.667116
C49	C	-0.413046	-0.820125	0.000366
C50	C	-0.079712	-0.486791	0.333700
C51	C	0.253621	-0.153458	0.667033
C52	C	-0.284689	-0.822009	0.000356
C53	C	0.048644	-0.488676	0.333689
C54	C	0.381978	-0.155343	0.667023
C55	C	0.358654	-0.816782	0.000362
C56	C	0.691987	-0.483449	0.333696
C57	C	1.025321	-0.150116	0.667029
C58	C	0.484640	-0.818627	0.000370
C59	C	0.817973	-0.485294	0.333703
C60	C	1.151306	-0.151961	0.667037
N61	N	0.151136	-0.821062	-0.318475
N62	N	0.484469	-0.487729	0.014858
N63	N	0.817802	-0.154395	0.348192
C64	C	0.260779	-0.572888	0.000292
C65	C	0.594113	-0.239555	0.333625
C66	C	0.927446	0.093779	0.666958
C67	C	0.259046	-0.500431	0.000305
C68	C	0.592379	-0.167098	0.333638
C69	C	0.925713	0.166235	0.666972
C70	C	0.154746	-0.472091	0.000320
C71	C	0.488079	-0.138758	0.333653
C72	C	0.821412	0.194576	0.666987
C73	C	0.052171	-0.516215	0.000290
C74	C	0.385504	-0.182881	0.333623
C75	C	0.718837	0.150452	0.666956
C76	C	0.053907	-0.588670	0.000264
C77	C	0.387240	-0.255337	0.333597
C78	C	0.720573	0.077997	0.666930
C79	C	0.072752	-0.363367	0.072054
C80	C	0.406085	-0.030033	0.405387
C81	C	0.739419	0.303300	0.738721
C82	C	0.071020	-0.290912	0.072088
C83	C	0.404353	0.042421	0.405421
C84	C	0.737687	0.375754	0.738754
C85	C	0.149387	-0.248615	0.000394
C86	C	0.482720	0.084718	0.333728
C87	C	0.816053	0.418052	0.667061
C88	C	0.229504	-0.278780	-0.071317
C89	C	0.562838	0.054554	0.262017
C90	C	0.896171	0.387887	0.595350
C91	C	0.231241	-0.351235	-0.071343
C92	C	0.564574	-0.017902	0.261991
C93	C	0.897907	0.315432	0.595324
C94	C	0.152852	-0.393526	0.000347
C95	C	0.486185	-0.060193	0.333681
C96	C	0.819518	0.273140	0.667014
C97	C	0.250076	-0.125935	0.000431
C98	C	0.583409	0.207398	0.333764
C99	C	0.916743	0.540732	0.667097
C100	C	0.248339	-0.053477	0.000436
C101	C	0.581672	0.279856	0.333770
C102	C	0.915005	0.613190	0.667103
C103	C	0.041460	-0.069262	0.000433
C104	C	0.374794	0.264071	0.333767
C105	C	0.708127	0.597405	0.667100
C106	C	0.043201	-0.141718	0.000415
C107	C	0.376534	0.191615	0.333748
C108	C	0.709867	0.524948	0.667082
C109	C	0.147512	-0.170050	0.000419
C110	C	0.480845	0.163283	0.333753
C111	C	0.814178	0.496617	0.667086
C112	C	0.151136	-0.821067	-0.429813
C113	C	0.484469	-0.487734	-0.096479
C114	C	0.817803	-0.154401	0.236854
C115	C	0.151125	-0.821076	-0.569490
C116	C	0.484459	-0.487743	-0.236157
C117	C	0.817792	-0.154410	0.097177
N118	N	0.151110	-0.821087	0.319181
N119	N	0.484444	-0.487754	0.652515
N120	N	0.817777	-0.154421	0.985848
H121	H	0.345717	-0.595951	0.000298
H122	H	0.679051	-0.262618	0.333631
H123	H	1.012384	0.070716	0.666964
C124	C	-0.062560	-0.485039	0.000307
C125	C	0.270773	-0.151706	0.333640
C126	C	0.604106	0.181627	0.666974
N127	N	-0.148979	-0.461558	0.000317
N128	N	0.184354	-0.128225	0.333650
N129	N	0.517687	0.205109	0.666984
C130	C	-0.069627	-0.190246	0.000404
C131	C	0.263707	0.143088	0.333737
C132	C	0.597040	0.476421	0.667070
N133	N	-0.154614	-0.226796	0.000393
N134	N	0.178720	0.106537	0.333726
N135	N	0.512053	0.439870	0.667060
H136	H	0.342567	-0.464507	0.000321
H137	H	0.675900	-0.131174	0.333654
H138	H	1.009233	0.202160	0.666987
C139	C	0.361171	-0.004951	0.000444
C140	C	0.694504	0.328382	0.333778
C141	C	1.027837	0.661716	0.667111
N142	N	0.446158	0.031600	0.000447
N143	N	0.779492	0.364933	0.333780
N144	N	1.112825	0.698266	0.667113
H145	H	0.296472	-0.375792	-0.129736
H146	H	0.629805	-0.042459	0.203597
H147	H	0.963138	0.290875	0.536931
C148	C	0.364819	-0.157102	0.000420
C149	C	0.698152	0.176231	0.333753
C150	C	1.031486	0.509564	0.667087
N151	N	0.451245	-0.180576	0.000410
N152	N	0.784578	0.152758	0.333743
N153	N	1.117911	0.486091	0.667077
H154	H	0.293318	-0.244342	-0.129697
H155	H	0.626651	0.088991	0.203636
H156	H	0.959984	0.422324	0.536969
C157	C	-0.073272	-0.038092	0.000448
C158	C	0.260061	0.295241	0.333781
C159	C	0.593395	0.628574	0.667115
N160	N	-0.159692	-0.014612	0.000457
N161	N	0.173642	0.318721	0.333790
N162	N	0.506975	0.652055	0.667123
C163	C	-0.017117	-0.257739	0.150962
C164	C	0.316217	0.075594	0.484295
C165	C	0.649550	0.408928	0.817629
N166	N	-0.083508	-0.232755	0.210368
N167	N	0.249825	0.100578	0.543701
N168	N	0.583159	0.433912	0.877034
C169	C	-0.013459	-0.409887	0.150934
C170	C	0.319874	-0.076554	0.484267
C171	C	0.653208	0.256780	0.817600
N172	N	-0.078390	-0.444925	0.210346
N173	N	0.254944	-0.111592	0.543679
N174	N	0.588277	0.221742	0.877013
C175	C	-0.058924	-0.637197	0.000246
C176	C	0.274409	-0.303864	0.333579
C177	C	0.607743	0.029470	0.666913
N178	N	-0.143910	-0.673749	0.000237
N179	N	0.189423	-0.340416	0.333570
N180	N	0.522757	-0.007082	0.666904
