data_functionalizedCrystal
_audit_creation_method	'MofGen! by Chris Wilmer'
_symmetry_space_group_name_H-M	'P1'
_symmetry_Int_Tables_number	1
_symmetry_cell_setting	triclinic
loop_
_symmetry_equiv_pos_as_xyz
  x,y,z
_cell_length_a	10.654554
_cell_length_b	10.654551
_cell_length_c	9.730223
_cell_angle_alpha	89.998531
_cell_angle_beta	90.000354
_cell_angle_gamma	84.486053
loop_
_atom_site_label
_atom_site_type_symbol
_atom_site_fract_x
_atom_site_fract_y
_atom_site_fract_z
O1	O	1.667831	0.176420	0.114285
O2	O	1.302354	0.193220	0.114286
O3	O	1.493495	0.002081	0.114286
O4	O	1.476690	0.367559	0.114285
O5	O	1.493493	0.002086	-0.114293
O6	O	1.302351	0.193225	-0.114294
O7	O	1.667829	0.176425	-0.114295
Zn8	Zn	1.485090	0.184826	-0.150586
Zn9	Zn	1.485093	0.184819	0.150578
O10	O	1.476688	0.367564	-0.114295
C11	C	1.255555	0.191988	-0.000004
C12	C	1.116112	0.188294	-0.000003
C13	C	0.905604	0.297367	-0.000000
C14	C	1.036625	0.300839	-0.000000
C15	C	1.064571	0.072269	0.000008
C16	C	0.933552	0.068799	0.000018
C17	C	0.889470	0.429330	-0.000011
C18	C	1.020492	0.432802	-0.000011
C19	C	1.492260	-0.044714	-0.000000
C20	C	1.488567	-0.184158	0.000009
C21	C	1.486836	-0.249672	0.124605
C22	C	1.483356	-0.380693	0.124599
C23	C	1.483343	-0.380673	-0.124611
C24	C	1.486814	-0.249654	-0.124604
C25	C	1.486849	-0.249685	0.268485
C26	C	1.483369	-0.380706	0.268479
C27	C	1.714628	0.177657	-0.000002
C28	C	1.854071	0.181351	0.000007
C29	C	1.477923	0.414360	-0.000005
C30	C	1.481616	0.553803	-0.000005
N31	N	1.485097	0.184829	-0.356123
C32	C	1.569756	0.100222	-0.428048
C33	C	1.569753	0.100207	-0.571931
C34	C	1.400427	0.269417	-0.571950
C35	C	1.400425	0.269426	-0.428070
C36	C	1.667519	0.002533	-0.428039
C37	C	1.667516	0.002518	-0.571922
N38	N	1.485096	0.184806	0.356114
H39	H	1.056126	0.474825	0.098686
H40	H	1.391773	-0.410276	0.313136
H41	H	1.331479	0.338309	-0.369509
H42	H	1.764027	0.024037	-0.610973
H43	H	1.129300	-0.019366	0.000019
C44	C	1.600625	-0.443249	0.343092
N45	N	1.688941	-0.490356	0.399286
H46	H	0.891600	-0.025672	0.000041
C47	C	1.307292	0.362466	-0.651105
N48	N	1.237140	0.432553	-0.710723
H49	H	1.646076	-0.094000	-0.388984
H50	H	0.843819	0.469201	-0.098703
C51	C	0.833071	0.496496	0.129221
N52	N	0.790593	0.547082	0.226558
C53	C	1.790706	0.043850	-0.367745
N54	N	1.883492	0.074970	-0.322330
H55	H	1.488217	-0.196316	-0.226062
C56	C	1.481417	-0.452731	-0.261678
N57	N	1.479969	-0.507005	-0.364919
H58	H	1.637003	-0.088705	-0.616537
C59	C	1.369599	-0.187159	0.343114
N60	N	1.281286	-0.140065	0.399320
H61	H	1.049852	0.484393	-0.095683
H62	H	1.578448	-0.220119	0.313127
