data_functionalizedCrystal
_audit_creation_method	'MofGen! by Chris Wilmer'
_symmetry_space_group_name_H-M	'P1'
_symmetry_Int_Tables_number	1
_symmetry_cell_setting	triclinic
loop_
_symmetry_equiv_pos_as_xyz
  x,y,z
_cell_length_a	10.654546
_cell_length_b	10.654550
_cell_length_c	9.730223
_cell_angle_alpha	89.996763
_cell_angle_beta	89.995791
_cell_angle_gamma	84.484193
loop_
_atom_site_label
_atom_site_type_symbol
_atom_site_fract_x
_atom_site_fract_y
_atom_site_fract_z
O1	O	1.667842	0.176377	-0.114316
O2	O	1.302363	0.193188	-0.114312
O3	O	1.493505	0.002043	-0.114309
O4	O	1.476699	0.367522	-0.114319
O5	O	1.493493	0.002038	0.114271
O6	O	1.302350	0.193183	0.114268
O7	O	1.667829	0.176372	0.114264
Zn8	Zn	1.485088	0.184777	0.150558
Zn9	Zn	1.485104	0.184784	-0.150606
O10	O	1.476687	0.367517	0.114261
C11	C	1.255558	0.191952	-0.000022
C12	C	1.116115	0.188262	-0.000020
C13	C	1.050627	0.186519	-0.124625
C14	C	0.919606	0.183041	-0.124636
C15	C	0.919574	0.183046	0.124574
C16	C	1.050591	0.186532	0.124584
C17	C	1.116151	0.188249	-0.249229
C18	C	1.050663	0.186504	-0.373844
C19	C	0.919642	0.183026	-0.373855
C20	C	0.854109	0.181294	-0.249251
C21	C	1.492265	-0.044757	-0.000021
C22	C	1.488573	-0.184200	-0.000026
C23	C	1.601115	-0.263687	-0.000023
C24	C	1.597638	-0.394708	-0.000032
C25	C	1.369068	-0.366742	-0.000042
C26	C	1.372546	-0.235724	-0.000042
C27	C	1.717142	-0.212164	-0.000006
C28	C	1.829693	-0.291652	-0.000002
C29	C	1.826216	-0.422673	-0.000011
C30	C	1.710188	-0.474206	-0.000025
C31	C	1.714633	0.177608	-0.000030
C32	C	1.854077	0.181298	-0.000040
C33	C	1.477927	0.414317	-0.000031
C34	C	1.481619	0.553761	-0.000035
N35	N	1.485086	0.184771	0.356094
N36	N	1.485116	0.184779	-0.356143
C37	C	1.569753	0.100168	0.428021
C38	C	1.569765	0.100169	0.571904
C39	C	1.400440	0.269386	0.571920
C40	C	1.400422	0.269379	0.428040
H41	H	0.866324	0.181619	-0.475323
C42	C	1.307287	0.362420	0.651058
H43	H	1.256841	0.412787	0.587610
H44	H	1.352884	0.415140	0.707190
H45	H	1.254637	0.316713	0.707182
C46	C	1.706359	-0.618325	-0.000044
H47	H	1.621142	-0.637628	-0.000057
H48	H	1.747776	-0.653140	0.079662
H49	H	1.747782	-0.653115	-0.079770
C50	C	1.307287	0.362449	0.348914
H51	H	1.256879	0.412852	0.412367
H52	H	1.254615	0.316779	0.292804
H53	H	1.352919	0.415150	0.292771
C54	C	1.248757	-0.148278	-0.000041
H55	H	1.267449	-0.062870	-0.000054
H56	H	1.201219	-0.164003	0.079667
H57	H	1.201240	-0.164000	-0.079765
H58	H	1.104027	0.187925	-0.475292
C59	C	1.122639	0.188449	0.261642
H60	H	1.210050	0.190787	0.243799
H61	H	1.110115	0.114771	0.312849
H62	H	1.092210	0.260998	0.312829
C63	C	1.260268	0.192078	-0.249222
H64	H	1.289914	0.192867	-0.341275
H65	H	1.298847	0.119761	-0.203189
H66	H	1.280950	0.265987	-0.203214
C67	C	1.662867	0.007094	0.348885
H68	H	1.713284	-0.043300	0.412335
H69	H	1.715531	0.052750	0.292737
H70	H	1.617221	-0.045614	0.292779
C71	C	0.847481	0.181219	0.261625
H72	H	0.760071	0.178909	0.243772
H73	H	0.860024	0.254925	0.312761
H74	H	0.877861	0.108697	0.312887
H75	H	1.719985	-0.105482	0.000006
C76	C	1.950010	-0.510112	-0.000023
H77	H	1.931326	-0.595522	-0.000043
H78	H	1.997534	-0.494395	0.079688
H79	H	1.997537	-0.494373	-0.079744
H80	H	1.274604	-0.408711	-0.000051
H81	H	1.638707	0.031276	0.630464
H82	H	1.924158	-0.249686	-0.000025
C83	C	0.709983	0.177518	-0.249265
H84	H	0.680362	0.176737	-0.341322
H85	H	0.671422	0.249851	-0.203249
H86	H	0.689254	0.103622	-0.203249
