data_functionalizedCrystal
_audit_creation_method	'MofGen! by Chris Wilmer'
_symmetry_space_group_name_H-M	'P1'
_symmetry_Int_Tables_number	1
_symmetry_cell_setting	triclinic
loop_
_symmetry_equiv_pos_as_xyz
  x,y,z
_cell_length_a	19.902436
_cell_length_b	14.560438
_cell_length_c	14.560438
_cell_angle_alpha	60.000905
_cell_angle_beta	89.997627
_cell_angle_gamma	60.001752
loop_
_atom_site_label
_atom_site_type_symbol
_atom_site_fract_x
_atom_site_fract_y
_atom_site_fract_z
Zr1	Zr	0.647243	1.005381	-0.120611
O2	O	0.539961	1.196967	-0.267239
O3	O	0.680131	0.813785	-0.075664
O4	O	0.680128	1.005389	-0.267265
O5	O	0.539968	1.005360	0.075503
O6	O	0.790693	1.005407	-0.267283
O7	O	0.539965	1.005363	-0.075638
O8	O	0.790699	0.662662	0.075456
O9	O	0.539962	1.348105	-0.267236
O10	O	0.776671	0.892608	-0.056505
O11	O	0.694159	0.892593	0.056303
O12	O	0.694156	1.118182	-0.169282
O13	O	0.611644	1.118167	-0.056474
Zr14	Zr	0.823588	1.005405	0.120413
Zr15	Zr	0.823583	1.005409	-0.120639
Zr16	Zr	0.647248	1.005377	0.120441
Zr17	Zr	0.647244	1.246429	-0.120606
Zr18	Zr	0.823587	0.764358	0.120408
O19	O	0.790700	1.197002	0.075466
O20	O	0.790694	1.197007	-0.267279
O21	O	0.539968	1.196961	0.075506
O22	O	0.930870	0.813820	0.267041
O23	O	0.930863	0.813825	-0.075704
O24	O	0.680137	0.813779	0.267081
O25	O	0.930863	1.005426	-0.075701
O26	O	0.790703	1.005398	0.267067
O27	O	0.680138	1.005380	0.267084
O28	O	0.930866	1.005423	0.075440
O29	O	0.680128	1.348127	-0.267258
O30	O	0.790703	0.662659	0.267060
O31	O	0.930869	0.662682	0.267038
O32	O	0.930866	0.662685	0.075434
O33	O	0.539965	1.348102	-0.075632
O34	O	0.680132	1.348124	-0.075654
O35	O	0.776675	0.892604	0.169084
O36	O	0.859187	0.892620	0.056276
O37	O	0.776672	1.118193	-0.056501
O38	O	0.694160	1.118178	0.056307
C39	C	0.735415	0.703879	-0.000105
C40	C	0.735415	0.601548	-0.000107
C41	C	0.778484	0.553480	-0.058991
C42	C	0.778487	0.457321	-0.058981
C43	C	0.692346	0.457310	0.058801
C44	C	0.692348	0.553461	0.058796
C45	C	0.514841	1.005358	-0.000064
C46	C	0.439981	1.005346	-0.000052
C47	C	0.167932	1.005410	-0.000115
C48	C	0.248475	0.863113	0.070688
C49	C	0.326378	0.863024	0.071087
C50	C	0.302899	1.005377	-0.000084
C51	C	0.248780	1.076043	0.051810
C52	C	0.171218	1.075133	0.052328
C53	C	0.170076	1.078058	-0.122842
C54	C	0.248953	1.075384	-0.122648
C55	C	0.379174	1.005366	-0.000067
C56	C	0.091656	1.005425	-0.000127
C57	C	0.955989	1.005429	-0.000134
C58	C	1.030850	1.005441	-0.000146
C59	C	0.735410	1.005398	-0.301619
C60	C	0.735408	1.005400	-0.403951
C61	C	0.735416	1.306907	-0.000093
C62	C	0.735416	1.409238	-0.000091
C63	C	0.692336	1.123145	-0.510896
C64	C	0.692346	1.123139	-0.607045
C65	C	0.778500	0.887632	-0.489291
C66	C	0.778494	0.887640	-0.393144
C67	C	0.735421	1.005388	0.301420
C68	C	0.735423	1.005386	0.403753
C69	C	0.955989	0.703915	-0.000140
C70	C	1.030850	0.601596	-0.000154
C71	C	0.735421	0.703874	0.301415
C72	C	0.735422	0.601542	0.403746
C73	C	0.955995	0.703910	0.301379
C74	C	1.030857	0.601589	0.403698
C75	C	0.514836	1.306877	-0.301578
C76	C	0.439974	1.409197	-0.403897
C77	C	0.514842	1.306872	-0.000058
C78	C	0.439981	1.409190	-0.000044
C79	C	0.735410	1.306912	-0.301613
C80	C	0.735409	1.409245	-0.403944
C81	C	1.022933	0.553540	-0.059041
C82	C	1.093265	0.457414	-0.059077
C83	C	1.171515	0.409339	-0.000218
C84	C	1.179430	0.457404	0.058671
C85	C	1.109098	0.553535	0.058700
C86	C	1.109091	0.553546	0.392864
C87	C	1.179439	0.457419	0.488994
C88	C	1.171552	0.409329	0.595958
C89	C	1.093309	0.457381	0.606790
C90	C	1.022963	0.553514	0.510661
C91	C	0.361740	1.457252	-0.393062
C92	C	0.291392	1.553410	-0.489192
C93	C	0.299279	1.601504	-0.596156
C94	C	0.377522	1.553446	-0.606988
C95	C	0.447868	1.457296	-0.510859
C96	C	0.447898	1.457257	0.058833
C97	C	0.377566	1.553409	0.058842
C98	C	0.299316	1.601488	-0.000020
C99	C	0.291401	1.553418	-0.058905
C100	C	0.361733	1.457273	-0.058920
C101	C	0.778495	0.553469	0.510692
C102	C	0.778487	0.457326	0.606839
C103	C	0.692333	0.457331	0.489080
C104	C	0.692337	0.553480	0.392935
H105	H	0.365765	0.807600	0.036263
H106	H	0.813578	0.791756	-0.480505
H107	H	0.249225	0.807540	0.160676
H108	H	0.657258	0.592624	0.305849
H109	H	0.250170	0.807258	0.036063
H110	H	0.657276	0.592597	0.106752
H111	H	1.243150	0.418248	0.106592
H112	H	0.241992	1.679795	-0.674422
H113	H	1.115556	0.592650	0.106659
H114	H	0.229015	1.180710	0.002724
H115	H	1.243141	0.418304	0.480154
H116	H	0.657253	1.219033	-0.519702
H117	H	0.813575	0.592603	0.519500
H118	H	0.227690	1.592523	-0.480351
H119	H	0.365474	0.807071	0.161628
H120	H	0.167085	1.032521	-0.166190
H121	H	0.171415	1.024913	0.142639
H122	H	1.115529	0.592687	0.305777
H123	H	1.228839	0.331051	0.674224
H124	H	1.086899	0.418213	0.693893
H125	H	0.813560	0.418192	0.693916
H126	H	0.959264	0.592618	0.519498
H127	H	0.355302	1.418098	-0.305975
H128	H	0.813573	0.791752	-0.306059
H129	H	0.813553	0.592629	-0.106952
H130	H	0.230429	1.179239	-0.179840
H131	H	0.383934	1.592617	-0.694090
H132	H	0.242054	1.679775	0.000001
H133	H	0.511568	1.418171	-0.519694
H134	H	0.511607	1.418118	0.106774
H135	H	0.227681	1.592578	-0.106829
H136	H	0.813558	0.418185	-0.106928
H137	H	0.657282	0.418147	0.106756
H138	H	0.384027	1.592532	0.106797
H139	H	0.657256	0.418186	0.480292
H140	H	0.114182	1.179534	0.004091
H141	H	0.286236	1.026963	0.141264
H142	H	0.355275	1.418140	-0.106862
H143	H	0.286278	1.023860	-0.161415
H144	H	0.657274	1.219019	-0.694121
H145	H	0.959224	0.592682	-0.106985
H146	H	0.113304	1.182884	-0.175843
H147	H	1.086804	0.418290	-0.107031
H148	H	1.228777	0.331062	-0.000249
