data_functionalizedCrystal
_audit_creation_method	'MofGen! by Chris Wilmer'
_symmetry_space_group_name_H-M	'P1'
_symmetry_Int_Tables_number	1
_symmetry_cell_setting	triclinic
loop_
_symmetry_equiv_pos_as_xyz
  x,y,z
_cell_length_a	21.295420
_cell_length_b	21.295417
_cell_length_c	13.032268
_cell_angle_alpha	97.140648
_cell_angle_beta	97.162377
_cell_angle_gamma	90.028757
loop_
_atom_site_label
_atom_site_type_symbol
_atom_site_fract_x
_atom_site_fract_y
_atom_site_fract_z
Zn1	Zn	0.917099	-0.295812	-0.590815
Zn2	Zn	0.930388	-0.387723	-0.416060
Zn3	Zn	0.825206	-0.282471	-0.416092
Zn4	Zn	0.811797	-0.401038	-0.590744
O5	O	0.871122	-0.341761	-0.503428
O6	O	1.006950	-0.308015	-0.567650
O7	O	0.927608	-0.362606	-0.269836
O8	O	0.837446	-0.196155	-0.439313
O9	O	1.016713	-0.375542	-0.439258
O10	O	0.904959	-0.205956	-0.567681
O11	O	0.850331	-0.285277	-0.269860
O12	O	0.735339	-0.298189	-0.439243
O13	O	0.814592	-0.398236	-0.736981
O14	O	0.725488	-0.385300	-0.567559
O15	O	0.891957	-0.320926	-0.737034
O16	O	0.914606	-0.477576	-0.439188
O17	O	0.827478	-0.487358	-0.567528
C18	C	0.707573	-0.341742	-0.503398
C19	C	0.637604	-0.341751	-0.503409
C20	C	0.871044	-0.505308	-0.503370
C21	C	0.871066	-0.575277	-0.503380
C22	C	0.133036	-0.387189	-0.570177
C23	C	0.198780	-0.387188	-0.570166
C24	C	0.236761	-0.341778	-0.503460
C25	C	0.208995	-0.296375	-0.436742
C26	C	0.143253	-0.296381	-0.436748
N27	N	0.340603	-0.286061	-0.495604
N28	N	0.403055	-0.286058	-0.495605
C29	C	0.434837	-0.341759	-0.503438
N30	N	0.401807	-0.397466	-0.511291
N31	N	0.339350	-0.397469	-0.511295
C32	C	0.308047	-0.341767	-0.503447
C33	C	0.533882	-0.387161	-0.570135
C34	C	0.599628	-0.387161	-0.570117
C35	C	0.609841	-0.296342	-0.436699
C36	C	0.544097	-0.296347	-0.436711
C37	C	0.506122	-0.341756	-0.503435
C38	C	0.916464	-0.603034	-0.436622
C39	C	0.916491	-0.668779	-0.436646
C40	C	0.871111	-0.706763	-0.503416
C41	C	0.825709	-0.678998	-0.570187
C42	C	0.825686	-0.613256	-0.570169
N43	N	0.815434	-0.810635	-0.511372
N44	N	0.815458	-0.873087	-0.511383
C45	C	0.871177	-0.904842	-0.503476
N46	N	0.926874	-0.871783	-0.495537
N47	N	0.926850	-0.809325	-0.495520
C48	C	0.871130	-0.778050	-0.503443
C49	C	0.916608	-1.003886	-0.436740
C50	C	0.916637	-1.069632	-0.436771
C51	C	0.825849	-1.079850	-0.570306
C52	C	0.825826	-1.014106	-0.570281
C53	C	0.871205	-0.976127	-0.503492
C54	C	1.035310	-0.341781	-0.503458
C55	C	1.105277	-0.341790	-0.503471
C56	C	0.850297	-0.362554	-0.775983
C57	C	0.841422	-0.371415	-0.892130
C58	C	0.871216	-0.177577	-0.503509
C59	C	0.871256	-0.107612	-0.503543
C60	C	0.875744	-0.337114	-0.943938
C61	C	0.866573	-0.346271	-1.063981
C62	C	0.891903	-0.321004	-0.231933
C63	C	0.900900	-0.311966	-0.115787
H64	H	0.221386	-0.424158	-0.624489
H65	H	0.640764	-0.259370	-0.382382
C66	C	0.560797	-0.206574	-0.304847
C67	C	0.513579	-0.246436	-0.363398
H68	H	0.541955	-0.175758	-0.259589
H69	H	0.589481	-0.230906	-0.264791
H70	H	0.582970	-0.186017	-0.350457
H71	H	0.491409	-0.266996	-0.317788
H72	H	0.484884	-0.222101	-0.403457
C73	C	1.006209	-0.599544	-0.304637
C74	C	0.966352	-0.561291	-0.363223
H75	H	1.037011	-0.573771	-0.259332
H76	H	0.981868	-0.622163	-0.264629
H77	H	1.026786	-0.628634	-0.350222
H78	H	0.945771	-0.532204	-0.317639
H79	H	0.990696	-0.538661	-0.403235
C80	C	0.735950	-0.629961	-0.702164
C81	C	0.775778	-0.582741	-0.643548
H82	H	0.705136	-0.611120	-0.747460
H83	H	0.760309	-0.658617	-0.742185
H84	H	0.715386	-0.652163	-0.656598
H85	H	0.796345	-0.560541	-0.689114
H86	H	0.751415	-0.554074	-0.603525
H87	H	0.937073	-0.275814	-1.071275
C88	C	0.159953	-0.206610	-0.304872
C89	C	0.112736	-0.246470	-0.363427
H90	H	0.141110	-0.175794	-0.259613
H91	H	0.188635	-0.230943	-0.264814
H92	H	0.182128	-0.186052	-0.350478
H93	H	0.090563	-0.267031	-0.317821
H94	H	0.084043	-0.222134	-0.403487
H95	H	0.622227	-0.424135	-0.624433
H96	H	0.102121	-0.424167	-0.624505
H97	H	0.502961	-0.424136	-0.624464
C98	C	0.781545	-1.007340	-0.747165
C99	C	0.775915	-0.983592	-0.643654
H100	H	0.750727	-0.988505	-0.792464
H101	H	0.822649	-0.997691	-0.762516
H102	H	0.775065	-1.051929	-0.756718
H103	H	0.782399	-0.939003	-0.634099
H104	H	0.734801	-0.993237	-0.628298
C105	C	0.808134	-0.480560	-0.925874
C106	C	0.792586	-0.420214	-0.952210
H107	H	0.777981	-0.510686	-0.962959
H108	H	0.849064	-0.491123	-0.943720
H109	H	0.807891	-0.480799	-0.853082
H110	H	0.792833	-0.419974	-1.025001
H111	H	0.751645	-0.409648	-0.934371
C112	C	1.006351	-1.000387	-0.304751
C113	C	0.966491	-0.962136	-0.363335
H114	H	1.037148	-0.974612	-0.259438
H115	H	0.982011	-1.023014	-0.264750
H116	H	1.026934	-1.029471	-0.350336
H117	H	0.945904	-0.933055	-0.317749
H118	H	0.990835	-0.939499	-0.403338
C119	C	0.893862	-0.243142	-0.821101
C120	C	0.924582	-0.288320	-0.883847
H121	H	0.924016	-0.213022	-0.784001
H122	H	0.863229	-0.222284	-0.863686
H123	H	0.873517	-0.263483	-0.773050
H124	H	0.944923	-0.267980	-0.931904
H125	H	0.955226	-0.309180	-0.841259
H126	H	0.953462	-0.691383	-0.382284
H127	H	0.788760	-0.709929	-0.624554
C128	C	0.818108	-0.394703	-1.231353
C129	C	0.817738	-0.395075	-1.124063
H130	H	0.787963	-0.424836	-1.268443
H131	H	0.807561	-0.353765	-1.249202
H132	H	0.859048	-0.405267	-1.249178
H133	H	0.776799	-0.384506	-1.106237
H134	H	0.828281	-0.436022	-1.106207
C135	C	0.314307	-0.256036	-0.377507
C136	C	0.250741	-0.246457	-0.363421
H137	H	0.340077	-0.225215	-0.332242
H138	H	0.326238	-0.297134	-0.362085
H139	H	0.319716	-0.252243	-0.447748
H140	H	0.245330	-0.250254	-0.293182
H141	H	0.238806	-0.205348	-0.378836
H142	H	0.953609	-1.092231	-0.382410
C143	C	0.785573	-1.185162	-0.629628
C144	C	0.775966	-1.121595	-0.643706
H145	H	0.754775	-1.210934	-0.674943
H146	H	0.826686	-1.197062	-0.644989
H147	H	0.781761	-1.190602	-0.559405
H148	H	0.779782	-1.116154	-0.713927
H149	H	0.734842	-1.109692	-0.628352
