data_functionalizedCrystal
_audit_creation_method	'MofGen! by Chris Wilmer'
_symmetry_space_group_name_H-M	'P1'
_symmetry_Int_Tables_number	1
_symmetry_cell_setting	triclinic
loop_
_symmetry_equiv_pos_as_xyz
  x,y,z
_cell_length_a	15.995350
_cell_length_b	16.109301
_cell_length_c	15.186229
_cell_angle_alpha	90.005167
_cell_angle_beta	90.000289
_cell_angle_gamma	96.523072
loop_
_atom_site_label
_atom_site_type_symbol
_atom_site_fract_x
_atom_site_fract_y
_atom_site_fract_z
O1	O	1.110955	-0.107165	-0.073157
O2	O	1.610955	0.392835	0.426843
O3	O	0.867176	-0.120399	-0.073175
O4	O	1.367176	0.379601	0.426825
O5	O	0.995762	0.007247	-0.073157
O6	O	1.495762	0.507247	0.426843
O7	O	0.982369	-0.234811	-0.073176
O8	O	1.482369	0.265189	0.426824
O9	O	0.995754	0.007249	0.073301
O10	O	1.495754	0.507249	0.573301
O11	O	0.867168	-0.120397	0.073282
O12	O	1.367168	0.379603	0.573282
O13	O	1.110946	-0.107164	0.073300
O14	O	1.610946	0.392836	0.573300
Zn15	Zn	0.989056	-0.113780	0.096544
Zn16	Zn	1.489056	0.386220	0.596544
Zn17	Zn	0.989067	-0.113783	-0.096419
Zn18	Zn	1.489067	0.386217	0.403581
O19	O	0.982360	-0.234810	0.073282
O20	O	1.482360	0.265190	0.573282
C21	C	0.835977	-0.119851	0.000051
C22	C	1.335977	0.380149	0.500051
C23	C	0.743027	-0.118211	0.000044
C24	C	1.243027	0.381789	0.500044
C25	C	0.995216	0.038223	0.000072
C26	C	1.495216	0.538223	0.500072
C27	C	0.993589	0.130519	0.000074
C28	C	1.493589	0.630519	0.500074
N29	N	0.989054	-0.113778	0.228237
N30	N	1.489054	0.386222	0.728237
C31	C	0.405281	-0.112320	0.000063
C32	C	0.905281	0.387680	0.500063
C33	C	0.452740	-0.021413	0.000397
C34	C	0.952740	0.478587	0.500397
C35	C	0.549430	-0.023054	0.000061
C36	C	1.049430	0.476946	0.500061
C37	C	0.572841	-0.115242	0.000054
C38	C	1.072841	0.384758	0.500054
C39	C	0.531747	-0.160082	-0.083580
C40	C	1.031747	0.339918	0.416420
C41	C	0.435112	-0.157798	-0.083644
C42	C	0.935112	0.342202	0.416356
C43	C	0.434762	-0.159674	0.082906
C44	C	0.934762	0.340326	0.582906
C45	C	0.531708	-0.159653	0.084005
C46	C	1.031708	0.340347	0.584005
C47	C	0.667538	-0.116898	0.000046
C48	C	1.167538	0.383102	0.500046
C49	C	0.310584	-0.110667	0.000065
C50	C	0.810584	0.389333	0.500065
C51	C	1.142145	-0.107712	0.000072
C52	C	1.642145	0.392288	0.500072
C53	C	1.235095	-0.109352	0.000073
C54	C	1.735095	0.390648	0.500073
C55	C	0.982907	-0.265786	0.000051
C56	C	1.482907	0.234214	0.500051
C57	C	0.984534	-0.358081	0.000044
C58	C	1.484534	0.141919	0.500044
C59	C	1.066107	0.352771	0.000065
C60	C	1.566107	0.852771	0.500065
C61	C	1.064573	0.439492	0.000058
C62	C	1.564573	0.939492	0.500058
C63	C	0.912009	0.419659	0.000050
C64	C	1.412009	0.919659	0.500050
C65	C	0.913545	0.332940	0.000051
C66	C	1.413545	0.832940	0.500051
C67	C	0.990597	0.299499	0.000063
C68	C	1.490597	0.799499	0.500063
C69	C	0.987526	0.472939	0.000055
C70	C	1.487526	0.972939	0.500055
C71	C	0.985861	0.566965	0.000047
C72	C	1.485861	1.066965	0.500047
C73	C	0.992262	0.205466	0.000069
C74	C	1.492262	0.705466	0.500069
N75	N	0.989075	-0.113778	-0.228112
N76	N	1.489075	0.386222	0.271888
C77	C	1.046011	-0.057275	0.453968
C78	C	1.546011	0.442725	0.953968
C79	C	1.046014	-0.057273	0.546158
C80	C	1.546014	0.442727	1.046158
C81	C	0.932112	-0.170283	0.546150
C82	C	1.432112	0.329717	1.046150
C83	C	0.932106	-0.170281	0.453962
C84	C	1.432106	0.329719	0.953962
C85	C	0.989060	-0.113778	0.407874
C86	C	1.489060	0.386222	0.907874
C87	C	0.989069	-0.113778	0.592251
C88	C	1.489069	0.386222	1.092251
C89	C	0.989071	-0.113777	0.692208
C90	C	1.489071	0.386223	1.192208
C91	C	0.989057	-0.113778	0.307911
C92	C	1.489057	0.386222	0.807911
H93	H	0.577865	0.012192	0.060014
H94	H	1.077865	0.512192	0.560014
H95	H	1.126061	0.482864	0.000058
H96	H	1.626061	0.982864	0.500058
H97	H	1.128848	0.325547	0.000073
H98	H	1.628848	0.825547	0.500073
H99	H	0.402845	-0.224541	-0.087444
H100	H	0.902845	0.275459	0.412556
C101	C	0.568587	-0.115407	0.167593
C102	C	1.068587	0.384593	0.667593
N103	N	0.596362	-0.082075	0.230550
N104	N	1.096362	0.417925	0.730550
C105	C	0.869464	-0.232432	0.596857
C106	C	1.369464	0.267568	1.096857
N107	N	0.822275	-0.279243	0.635048
N108	N	1.322275	0.220757	1.135048
C109	C	1.108656	0.004886	0.403274
C110	C	1.608656	0.504886	0.903274
N111	N	1.155840	0.051711	0.365094
N112	N	1.655840	0.551711	0.865094
H113	H	0.849277	0.446898	0.000041
H114	H	1.349277	0.946898	0.500041
H115	H	0.434225	0.014925	0.060375
H116	H	0.934225	0.514925	0.560375
H117	H	0.545853	-0.227810	-0.086694
H118	H	1.045853	0.272190	0.413306
H119	H	0.414231	-0.129954	0.146298
H120	H	0.914231	0.370046	0.646298
C121	C	0.391826	-0.250221	0.083666
C122	C	0.891826	0.249779	0.583666
N123	N	0.359482	-0.318417	0.084233
N124	N	0.859482	0.181583	0.584233
C125	C	0.830473	0.274336	0.000044
C126	C	1.330473	0.774336	0.500044
N127	N	0.767905	0.230195	0.000036
N128	N	1.267905	0.730195	0.500036
C129	C	0.869490	-0.232479	0.403256
C130	C	1.369490	0.267521	0.903256
N131	N	0.822342	-0.279336	0.365063
N132	N	1.322342	0.220664	0.865063
C133	C	0.570088	-0.118006	-0.167662
C134	C	1.070088	0.381994	0.332338
N135	N	0.598965	-0.086310	-0.230992
N136	N	1.098965	0.413690	0.269008
H137	H	0.433160	0.014756	-0.059244
H138	H	0.933160	0.514756	0.440756
C139	C	0.587086	0.024878	-0.081070
C140	C	1.087086	0.524878	0.418930
N141	N	0.615447	0.060982	-0.142182
N142	N	1.115447	0.560982	0.357818
C143	C	0.410394	-0.113617	-0.168092
C144	C	0.910394	0.386383	0.331908
N145	N	0.391781	-0.080334	-0.231699
N146	N	0.891781	0.419666	0.268301
C147	C	1.108658	0.004890	0.596858
C148	C	1.608658	0.504890	1.096858
N149	N	1.155842	0.051718	0.635044
N150	N	1.655842	0.551718	1.135044
C151	C	0.552453	-0.250469	0.090834
C152	C	1.052453	0.249531	0.590834
N153	N	0.568084	-0.318874	0.095976
N154	N	1.068084	0.181126	0.595976
