data_functionalizedCrystal
_audit_creation_method	'MofGen! by Chris Wilmer'
_symmetry_space_group_name_H-M	'P1'
_symmetry_Int_Tables_number	1
_symmetry_cell_setting	triclinic
loop_
_symmetry_equiv_pos_as_xyz
  x,y,z
_cell_length_a	10.968094
_cell_length_b	9.482900
_cell_length_c	19.288865
_cell_angle_alpha	99.296723
_cell_angle_beta	96.058560
_cell_angle_gamma	87.451690
loop_
_atom_site_label
_atom_site_type_symbol
_atom_site_fract_x
_atom_site_fract_y
_atom_site_fract_z
O1	O	1.609526	-0.282267	-0.122569
O2	O	1.260309	-0.194786	-0.124096
O3	O	1.445004	-0.241082	-0.022498
O4	O	1.424831	-0.235971	-0.224166
O5	O	1.407488	-0.473471	-0.043222
O6	O	1.222793	-0.427174	-0.144820
O7	O	1.572010	-0.514656	-0.143292
Cu8	Cu	1.393976	-0.492134	-0.145948
Cu9	Cu	1.438343	-0.217308	-0.121440
O10	O	1.387315	-0.468360	-0.244890
C11	C	1.196874	-0.299788	-0.132782
C12	C	1.063749	-0.266440	-0.127779
N13	N	1.362779	-0.685434	-0.163186
C14	C	0.847367	-0.337482	-0.131106
C15	C	0.984955	-0.371962	-0.136283
C16	C	1.429133	-0.774266	-0.126520
C17	C	1.403186	-0.935179	-0.140868
C18	C	1.635446	-0.409650	-0.134606
C19	C	1.768572	-0.442989	-0.139608
C20	C	1.425596	-0.357118	-0.006965
C21	C	1.423645	-0.356642	0.070194
N22	N	1.469549	-0.024010	-0.104197
C23	C	1.406724	-0.352321	-0.260423
C24	C	1.408677	-0.352788	-0.337581
C25	C	1.532016	-0.383797	0.111737
C26	C	1.530189	-0.383316	0.184239
C27	C	1.419978	-0.355706	0.215193
C28	C	1.311593	-0.328540	0.173642
C29	C	1.313427	-0.329007	0.101143
C30	C	1.320199	-0.415403	0.318743
C31	C	1.318369	-0.414946	0.391240
C32	C	1.414321	-0.354257	0.438807
C33	C	1.512120	-0.294049	0.413865
C34	C	1.513953	-0.294516	0.341366
C35	C	1.417979	-0.355195	0.293807
C36	C	1.520719	-0.380890	0.558965
C37	C	1.518888	-0.380400	0.631469
C38	C	1.300287	-0.325637	0.620870
C39	C	1.302123	-0.326114	0.548368
C40	C	1.412341	-0.353748	0.517420
H41	H	0.812967	-0.221627	-0.119990
Cl42	Cl	1.038051	-0.550848	-0.153433
H43	H	1.029356	-0.150577	-0.116668
H44	H	1.505147	-0.731192	-0.084505
Cl45	Cl	1.245404	-0.751926	-0.228048
H46	H	0.802974	-0.558844	-0.150716
Cl47	Cl	1.285806	-1.001664	-0.205733
H48	H	1.210553	-0.303150	0.646073
Cl49	Cl	1.670582	-0.418498	0.072837
Cl50	Cl	1.666438	-0.417456	0.236474
H51	H	1.593583	-0.245490	0.321062
H52	H	1.590253	-0.244629	0.452593
H53	H	1.610466	-0.403386	0.533766
H54	H	1.213874	-0.304009	0.514543
H55	H	1.607142	-0.402506	0.665293
Cl56	Cl	1.587179	-0.957591	-0.039483
H57	H	1.238731	-0.463961	0.411542
Cl58	Cl	1.199563	-0.491711	0.258951
H59	H	1.221860	-0.306057	0.198850
H60	H	1.225174	-0.306894	0.067319
