data_functionalizedCrystal
_audit_creation_method	'MofGen! by Chris Wilmer'
_symmetry_space_group_name_H-M	'P1'
_symmetry_Int_Tables_number	1
_symmetry_cell_setting	triclinic
loop_
_symmetry_equiv_pos_as_xyz
  x,y,z
_cell_length_a	10.654550
_cell_length_b	16.109301
_cell_length_c	15.186229
_cell_angle_alpha	90.005167
_cell_angle_beta	89.997242
_cell_angle_gamma	96.026794
loop_
_atom_site_label
_atom_site_type_symbol
_atom_site_fract_x
_atom_site_fract_y
_atom_site_fract_z
O1	O	1.666255	-0.116773	-0.073220
O2	O	2.166255	0.383227	0.426780
O3	O	1.300626	-0.127898	-0.073225
O4	O	1.800626	0.372102	0.426775
O5	O	1.493485	-0.001364	-0.073213
O6	O	1.993485	0.498636	0.426787
O7	O	1.473396	-0.243307	-0.073231
O8	O	1.973396	0.256693	0.426769
O9	O	1.493472	-0.001363	0.073244
O10	O	1.993472	0.498637	0.573244
O11	O	1.300613	-0.127897	0.073233
O12	O	1.800613	0.372103	0.573233
O13	O	1.666242	-0.116771	0.073237
O14	O	2.166242	0.383229	0.573237
Zn15	Zn	1.483425	-0.122334	0.096488
Zn16	Zn	1.983425	0.377666	0.596488
Zn17	Zn	1.483442	-0.122336	-0.096475
Zn18	Zn	1.983442	0.377664	0.403525
O19	O	1.473383	-0.243305	0.073226
O20	O	1.973383	0.256695	0.573226
C21	C	1.253832	-0.127081	0.000004
C22	C	1.753832	0.372919	0.500004
C23	C	1.114422	-0.124637	0.000002
C24	C	1.614422	0.375363	0.500002
C25	C	1.492664	0.029616	0.000016
C26	C	1.992664	0.529616	0.500016
C27	C	1.490225	0.121926	0.000017
C28	C	1.990225	0.621926	0.500017
C29	C	1.713036	-0.117589	0.000007
C30	C	2.213036	0.382411	0.500007
C31	C	1.852446	-0.120033	0.000003
C32	C	2.352446	0.379967	0.500003
C33	C	1.932942	-0.045532	0.000005
C34	C	2.432942	0.454468	0.500005
C35	C	2.063932	-0.047833	0.000008
C36	C	2.563932	0.452167	0.500008
C37	C	2.033916	-0.199144	0.000002
C38	C	2.533916	0.300856	0.500002
C39	C	1.902929	-0.196841	0.000006
C40	C	2.402929	0.303159	0.500006
C41	C	2.260973	0.039912	0.051320
C42	C	2.760973	0.539912	0.551320
C43	C	2.341474	0.114417	0.051307
C44	C	2.841474	0.614417	0.551307
C45	C	2.312213	0.181958	-0.000009
C46	C	2.812213	0.681958	0.499991
C47	C	2.202452	0.174996	-0.051335
C48	C	2.702452	0.674996	0.448665
C49	C	2.121957	0.100490	-0.051330
C50	C	2.621957	0.600490	0.448670
C51	C	2.151217	0.032952	0.000007
C52	C	2.651217	0.532952	0.500007
C53	C	1.705886	-0.284581	-0.051313
C54	C	2.205886	0.215419	0.448687
C55	C	1.625389	-0.359088	-0.051315
C56	C	2.125389	0.140912	0.448685
C57	C	1.654646	-0.426636	-0.000003
C58	C	2.154646	0.073364	0.499997
C59	C	1.764409	-0.419683	0.051308
C60	C	2.264409	0.080317	0.551308
C61	C	1.844907	-0.345175	0.051310
C62	C	2.344907	0.154825	0.551310
C63	C	1.815640	-0.277627	0.000000
C64	C	2.315640	0.222373	0.500000
C65	C	1.474203	-0.274286	-0.000005
C66	C	1.974203	0.225714	0.499995
C67	C	1.476643	-0.366596	-0.000012
C68	C	1.976643	0.133404	0.499988
N69	N	1.483423	-0.122331	0.228181
N70	N	1.983423	0.377669	0.728181
C71	C	1.598991	0.343552	0.000005
C72	C	2.098991	0.843552	0.500005
C73	C	1.596689	0.430286	-0.000003
C74	C	2.096689	0.930286	0.499997
C75	C	1.367868	0.411772	-0.000002
C76	C	1.867868	0.911772	0.499998
C77	C	1.370172	0.325039	-0.000001
C78	C	1.870172	0.825039	0.499999
C79	C	1.485737	0.290932	0.000007
C80	C	1.985737	0.790932	0.500007
C81	C	1.481131	0.464398	-0.000002
C82	C	1.981131	0.964398	0.499998
C83	C	1.478634	0.558439	-0.000009
C84	C	1.978634	1.058439	0.499991
C85	C	1.488234	0.196885	0.000013
C86	C	1.988234	0.696885	0.500013
N87	N	1.483455	-0.122332	-0.228168
N88	N	1.983455	0.377668	0.271832
C89	C	1.568850	-0.066321	0.453909
C90	C	2.068850	0.433679	0.953909
C91	C	1.568854	-0.066319	0.546099
C92	C	2.068854	0.433681	1.046099
C93	C	1.398019	-0.178344	0.546097
C94	C	1.898019	0.321656	1.046097
C95	C	1.398010	-0.178342	0.453910
C96	C	1.898010	0.321658	0.953910
C97	C	1.483432	-0.122331	0.407818
C98	C	1.983432	0.377669	0.907818
C99	C	1.483445	-0.122332	0.592195
C100	C	1.983445	0.377668	1.092195
C101	C	1.483449	-0.122330	0.692151
C102	C	1.983449	0.377670	1.192151
C103	C	1.483428	-0.122332	0.307855
C104	C	1.983428	0.377668	0.807855
H105	H	1.891844	0.017010	0.000005
H106	H	2.391844	0.517010	0.500005
H107	H	1.328471	-0.223948	0.583635
H108	H	1.828471	0.276052	1.083635
F109	F	1.717230	0.486284	-0.000007
F110	F	2.217230	0.986284	0.499993
F111	F	1.307087	-0.237954	0.404852
F112	F	1.807087	0.262046	0.904852
F113	F	2.292122	-0.031969	0.105943
F114	F	2.792122	0.468031	0.605943
H115	H	2.032594	0.094821	-0.093119
H116	H	2.532594	0.594821	0.406881
H117	H	1.638407	-0.020710	0.583624
H118	H	2.138407	0.479290	1.083624
H119	H	2.377767	0.242621	-0.000019
H120	H	2.877767	0.742621	0.499981
F121	F	1.508571	-0.366488	-0.105931
F122	F	2.008571	0.133512	0.394069
F123	F	1.249624	0.269034	-0.000005
F124	F	1.749624	0.769034	0.499995
F125	F	2.171330	0.246880	-0.105964
F126	F	2.671330	0.746880	0.394036
H127	H	1.273779	0.439553	-0.000007
H128	H	1.773779	0.939553	0.499993
H129	H	2.430841	0.120079	0.093101
H130	H	2.930841	0.620079	0.593101
F131	F	2.087655	-0.280884	-0.000001
F132	F	2.587655	0.219116	0.499999
H133	H	1.934286	-0.339520	0.093090
H134	H	2.434286	0.160480	0.593090
H135	H	1.693091	0.315784	0.000009
H136	H	2.193091	0.815784	0.500009
H137	H	1.788233	-0.474686	0.093089
H138	H	2.288233	0.025314	0.593089
F139	F	1.568975	-0.505937	-0.000015
F140	F	2.068975	-0.005937	0.499985
F141	F	1.659762	-0.006708	0.404858
F142	F	2.159762	0.493292	0.904858
H143	H	1.681974	-0.229546	-0.093015
H144	H	2.181974	0.270454	0.406985
