data_functionalizedCrystal
_audit_creation_method	'MofGen! by Chris Wilmer'
_symmetry_space_group_name_H-M	'P1'
_symmetry_Int_Tables_number	1
_symmetry_cell_setting	triclinic
loop_
_symmetry_equiv_pos_as_xyz
  x,y,z
_cell_length_a	16.992694
_cell_length_b	14.044220
_cell_length_c	15.455313
_cell_angle_alpha	92.908275
_cell_angle_beta	87.142206
_cell_angle_gamma	91.928550
loop_
_atom_site_label
_atom_site_type_symbol
_atom_site_fract_x
_atom_site_fract_y
_atom_site_fract_z
O1	O	1.057683	0.198159	-0.072025
O2	O	0.829244	0.195941	-0.072050
O3	O	0.940034	0.058806	-0.072029
O4	O	0.946893	0.335294	-0.072046
O5	O	0.933696	0.066614	0.072232
O6	O	0.822906	0.203749	0.072211
O7	O	1.051345	0.205967	0.072236
Cu8	Cu	0.936547	0.205571	0.085396
Cu9	Cu	0.944042	0.196337	-0.085210
O10	O	0.940555	0.343102	0.072215
C11	C	0.796663	0.196993	0.000077
C12	C	0.709024	0.188484	0.000068
C13	C	0.664526	0.270581	0.000063
C14	C	0.582179	0.262581	0.000076
C15	C	0.544332	0.172483	0.000086
C16	C	0.588836	0.090381	0.000093
C17	C	0.671181	0.098382	0.000087
C18	C	0.298414	0.139322	0.000112
C19	C	0.216063	0.131327	0.000115
C20	C	0.209411	0.303528	0.000100
C21	C	0.291759	0.311521	0.000088
C22	C	0.336255	0.229419	0.000099
N23	N	0.460161	0.164304	0.000096
N24	N	0.420425	0.237599	0.000096
C25	C	0.933863	0.027168	0.000101
C26	C	0.924909	-0.078736	0.000101
C27	C	0.908540	-0.272638	0.000087
C28	C	0.972046	-0.325460	0.000092
C29	C	0.962938	-0.433354	0.000084
C30	C	0.917647	-0.164734	0.000095
C31	C	1.083926	0.204915	0.000107
C32	C	1.171565	0.213424	0.000111
C33	C	0.946726	0.374740	0.000083
C34	C	0.955680	0.480644	0.000077
N35	N	0.931281	0.212065	0.205390
N36	N	0.949314	0.189836	-0.205204
C37	C	0.978368	0.153829	0.250793
C38	C	0.974393	0.158750	0.341600
C39	C	0.923335	0.221911	0.387003
C40	C	0.876243	0.280149	0.341594
C41	C	0.880214	0.275223	0.250788
C42	C	0.906193	0.243148	0.658581
C43	C	0.902227	0.248072	0.749393
C44	C	1.000377	0.126671	0.749394
C45	C	1.004347	0.121754	0.658586
C46	C	0.957251	0.179989	0.613185
N47	N	0.919273	0.226945	0.479822
N48	N	0.961310	0.174950	0.520367
H49	H	0.322568	0.384887	0.000070
C50	C	0.868702	0.289520	0.519391
C51	C	0.854440	0.307175	0.608682
H52	H	0.836750	0.329050	0.488585
H53	H	0.922681	0.303076	0.504506
H54	H	0.856334	0.224461	0.504524
H55	H	0.866814	0.372232	0.623550
H56	H	0.800449	0.293626	0.623573
C57	C	0.080229	0.367729	0.000110
C58	C	0.160498	0.393772	0.000099
H59	H	0.050034	0.423446	0.000117
H60	H	0.070306	0.328329	-0.050192
H61	H	0.065907	0.333762	0.050422
H62	H	0.174822	0.427732	-0.050217
H63	H	0.170426	0.433188	0.050406
H64	H	1.012735	0.111329	0.378567
H65	H	0.847335	-0.308444	0.000078
H66	H	0.707411	0.031530	0.000090
C67	C	1.131704	0.082649	0.777339
C68	C	1.052133	0.062650	0.799299
H69	H	1.163654	0.043123	0.808152
H70	H	1.141369	0.070678	0.716768
H71	H	1.144055	0.147709	0.792220
H72	H	1.039780	-0.002408	0.784412
H73	H	1.042464	0.074614	0.859883
C74	C	0.230905	-0.038091	0.000139
C75	C	0.174460	0.032285	0.000128
H76	H	0.205219	-0.099230	0.000150
H77	H	0.265088	-0.034117	-0.050164
H78	H	0.260679	-0.028660	0.050450
H79	H	0.144690	0.022858	-0.050186
H80	H	0.140263	0.028308	0.050437
C81	C	0.805581	0.367557	0.740276
C82	C	0.846087	0.317490	0.799302
H83	H	0.770921	0.410403	0.771090
H84	H	0.842330	0.402434	0.704853
H85	H	0.776011	0.323785	0.704865
H86	H	0.875662	0.361261	0.834708
H87	H	0.809333	0.282610	0.834740
H88	H	1.033258	-0.289655	0.000040
C89	C	1.074978	0.034318	0.259924
C90	C	1.034492	0.084397	0.200891
H91	H	1.109622	-0.008553	0.229117
H92	H	1.104556	0.078073	0.295328
H93	H	1.038210	-0.000542	0.295354
H94	H	1.071259	0.119264	0.165465
H95	H	1.004911	0.040636	0.165473
H96	H	1.045922	0.070323	0.621622
C97	C	0.765948	0.298164	0.443733
C98	C	0.820119	0.349576	0.391502
H99	H	0.731304	0.341029	0.474547
H100	H	0.736369	0.254418	0.408321
H101	H	0.793434	0.264188	0.483765
H102	H	0.792633	0.383546	0.351466
H103	H	0.849700	0.393339	0.426918
H104	H	0.841869	0.322643	0.213822
H105	H	0.545952	0.329433	0.000072
C106	C	0.649671	0.439988	0.000058
C107	C	0.706123	0.369620	0.000054
H108	H	0.675351	0.501132	0.000060
H109	H	0.619897	0.430564	-0.050243
H110	H	0.615488	0.435999	0.050371
H111	H	0.740303	0.373604	-0.050262
H112	H	0.735910	0.379047	0.050361
H113	H	0.334634	0.072468	0.000121
H114	H	0.558015	0.017022	0.000114
