data_functionalizedCrystal
_audit_creation_method	'MofGen! by Chris Wilmer'
_symmetry_space_group_name_H-M	'P1'
_symmetry_Int_Tables_number	1
_symmetry_cell_setting	triclinic
loop_
_symmetry_equiv_pos_as_xyz
  x,y,z
_cell_length_a	15.995350
_cell_length_b	14.519709
_cell_length_c	13.596369
_cell_angle_alpha	90.006934
_cell_angle_beta	89.998321
_cell_angle_gamma	96.413740
loop_
_atom_site_label
_atom_site_type_symbol
_atom_site_fract_x
_atom_site_fract_y
_atom_site_fract_z
O1	O	1.111164	-0.118875	-0.081710
O2	O	1.361164	0.131125	0.168290
O3	O	1.611164	0.381125	0.418290
O4	O	1.861164	0.631125	0.668290
O5	O	0.867411	-0.133554	-0.081731
O6	O	1.117411	0.116446	0.168269
O7	O	1.367411	0.366446	0.418269
O8	O	1.617411	0.616446	0.668269
O9	O	0.995750	0.008036	-0.081711
O10	O	1.245750	0.258036	0.168289
O11	O	1.495750	0.508036	0.418289
O12	O	1.745750	0.758036	0.668289
O13	O	0.982825	-0.260464	-0.081730
O14	O	1.232825	-0.010464	0.168270
O15	O	1.482825	0.239536	0.418270
O16	O	1.732825	0.489536	0.668270
O17	O	0.995738	0.008043	0.081872
O18	O	1.245738	0.258043	0.331872
O19	O	1.495738	0.508043	0.581872
O20	O	1.745738	0.758043	0.831872
O21	O	0.867398	-0.133546	0.081852
O22	O	1.117398	0.116454	0.331852
O23	O	1.367398	0.366454	0.581852
O24	O	1.617398	0.616454	0.831852
O25	O	1.111152	-0.118867	0.081873
O26	O	1.361152	0.131133	0.331873
O27	O	1.611152	0.381133	0.581873
O28	O	1.861152	0.631133	0.831873
Zn29	Zn	0.989273	-0.126206	0.107835
Zn30	Zn	1.239273	0.123794	0.357835
Zn31	Zn	1.489273	0.373794	0.607835
Zn32	Zn	1.739273	0.623794	0.857835
Zn33	Zn	0.989290	-0.126215	-0.107693
Zn34	Zn	1.239290	0.123785	0.142307
Zn35	Zn	1.489290	0.373785	0.392307
Zn36	Zn	1.739290	0.623785	0.642307
O37	O	0.982812	-0.260457	0.081853
O38	O	1.232812	-0.010457	0.331853
O39	O	1.482812	0.239543	0.581853
O40	O	1.732812	0.489543	0.831853
C41	C	0.995142	0.042398	0.000081
C42	C	1.245142	0.292398	0.250081
C43	C	1.495142	0.542398	0.500081
C44	C	1.745142	0.792398	0.750081
C45	C	0.993337	0.144776	0.000081
C46	C	1.243337	0.394776	0.250081
C47	C	1.493337	0.644776	0.500081
C48	C	1.743337	0.894776	0.750081
C49	C	0.836209	-0.132943	0.000058
C50	C	1.086209	0.117057	0.250058
C51	C	1.336209	0.367057	0.500058
C52	C	1.586209	0.617057	0.750058
C53	C	0.743256	-0.131124	0.000051
C54	C	0.993256	0.118876	0.250051
C55	C	1.243256	0.368876	0.500051
C56	C	1.493256	0.618876	0.750051
C57	C	0.405499	-0.124590	0.000072
C58	C	0.655499	0.125410	0.250072
C59	C	0.905499	0.375410	0.500072
C60	C	1.155499	0.625410	0.750072
C61	C	0.452782	-0.023752	0.000444
C62	C	0.702782	0.226248	0.250444
C63	C	0.952782	0.476248	0.500444
C64	C	1.202782	0.726248	0.750444
C65	C	0.549475	-0.025572	0.000068
C66	C	0.799475	0.224428	0.250068
C67	C	1.049475	0.474428	0.500068
C68	C	1.299475	0.724428	0.750068
C69	C	0.573064	-0.127831	0.000062
C70	C	0.823064	0.122169	0.250062
C71	C	1.073064	0.372169	0.500062
C72	C	1.323064	0.622169	0.750062
C73	C	0.532059	-0.177572	-0.093352
C74	C	0.782059	0.072428	0.156648
C75	C	1.032059	0.322428	0.406648
C76	C	1.282059	0.572428	0.656648
C77	C	0.435419	-0.175039	-0.093423
C78	C	0.685419	0.074961	0.156577
C79	C	0.935419	0.324961	0.406577
C80	C	1.185419	0.574961	0.656577
C81	C	0.435069	-0.177114	0.092601
C82	C	0.685069	0.072886	0.342601
C83	C	0.935069	0.322886	0.592601
C84	C	1.185069	0.572886	0.842601
C85	C	0.532014	-0.177090	0.093829
C86	C	0.782014	0.072910	0.343829
C87	C	1.032014	0.322910	0.593829
C88	C	1.282014	0.572910	0.843829
C89	C	0.667764	-0.129668	0.000053
C90	C	0.917764	0.120332	0.250053
C91	C	1.167764	0.370332	0.500053
C92	C	1.417764	0.620332	0.750053
C93	C	0.310798	-0.122756	0.000074
C94	C	0.560798	0.127244	0.250074
C95	C	0.810798	0.377244	0.500074
C96	C	1.060798	0.627244	0.750074
C97	C	1.142354	-0.119478	0.000082
C98	C	1.392354	0.130522	0.250082
C99	C	1.642354	0.380522	0.500082
C100	C	1.892354	0.630522	0.750082
C101	C	1.235307	-0.121297	0.000083
C102	C	1.485307	0.128703	0.250083
C103	C	1.735307	0.378703	0.500083
C104	C	1.985307	0.628703	0.750083
C105	C	0.983421	-0.294819	0.000059
C106	C	1.233421	-0.044819	0.250059
C107	C	1.483421	0.205181	0.500059
C108	C	1.733421	0.455181	0.750059
C109	C	0.985226	-0.397197	0.000052
C110	C	1.235226	-0.147197	0.250052
C111	C	1.485226	0.102803	0.500052
C112	C	1.735226	0.352803	0.750052
N113	N	0.989267	-0.126198	0.254927
N114	N	1.239267	0.123802	0.504927
N115	N	1.489267	0.373802	0.754927
N116	N	1.739267	0.623802	1.004927
C117	C	0.986691	0.519660	0.000055
C118	C	1.236691	0.769660	0.250055
C119	C	1.486691	1.019660	0.500055
C120	C	1.736691	1.269660	0.750055
C121	C	0.988537	0.415355	0.000062
C122	C	1.238537	0.665355	0.250062
C123	C	1.488537	0.915355	0.500062
C124	C	1.738537	1.165355	0.750062
C125	C	0.990014	0.332221	0.000069
C126	C	1.240014	0.582221	0.250069
C127	C	1.490014	0.832221	0.500069
C128	C	1.740014	1.082221	0.750069
C129	C	0.991859	0.227910	0.000075
C130	C	1.241859	0.477910	0.250075
C131	C	1.491859	0.727910	0.500075
C132	C	1.741859	0.977910	0.750075
N133	N	0.989302	-0.126215	-0.254785
N134	N	1.239302	0.123785	-0.004785
N135	N	1.489302	0.373785	0.245215
N136	N	1.739302	0.623785	0.495215
C137	C	0.989289	-0.126216	0.656218
C138	C	1.239289	0.123784	0.906218
C139	C	1.489289	0.373784	1.156218
C140	C	1.739289	0.623784	1.406218
C141	C	0.989280	-0.126215	0.544566
C142	C	1.239280	0.123785	0.794566
C143	C	1.489280	0.373785	1.044566
C144	C	1.739280	0.623785	1.294566
C145	C	0.989278	-0.126208	0.455576
C146	C	1.239278	0.123792	0.705576
C147	C	1.489278	0.373792	0.955576
C148	C	1.739278	0.623792	1.205576
C149	C	0.989269	-0.126205	0.343917
C150	C	1.239269	0.123795	0.593917
C151	C	1.489269	0.373795	0.843917
C152	C	1.739269	0.623795	1.093917
H153	H	0.577840	0.013526	0.067031
H154	H	0.827840	0.263526	0.317031
H155	H	1.077840	0.513526	0.567031
H156	H	1.327840	0.763526	0.817031
H157	H	0.414478	-0.144144	0.163406
H158	H	0.664478	0.105856	0.413406
H159	H	0.914478	0.355856	0.663406
H160	H	1.164478	0.605856	0.913406
H161	H	0.403282	-0.249072	-0.097666
H162	H	0.653282	0.000928	0.152334
H163	H	0.903282	0.250928	0.402334
H164	H	1.153282	0.500928	0.652334
H165	H	0.434194	0.016558	0.067434
H166	H	0.684194	0.266558	0.317434
H167	H	0.934194	0.516558	0.567434
H168	H	1.184194	0.766558	0.817434
H169	H	0.403419	-0.251460	0.093229
H170	H	0.653419	-0.001460	0.343229
H171	H	0.903419	0.248540	0.593229
H172	H	1.153419	0.498540	0.843229
H173	H	0.547490	-0.251660	0.099467
H174	H	0.797490	-0.001660	0.349467
H175	H	1.047490	0.248340	0.599467
H176	H	1.297490	0.498340	0.849467
H177	H	0.560387	-0.143030	-0.162867
H178	H	0.810387	0.106970	0.087133
H179	H	1.060387	0.356970	0.337133
H180	H	1.310387	0.606970	0.587133
H181	H	0.559271	-0.140779	0.162936
H182	H	0.809271	0.109221	0.412936
H183	H	1.059271	0.359221	0.662936
H184	H	1.309271	0.609221	0.912936
H185	H	0.577279	0.013785	-0.067006
H186	H	0.827279	0.263785	0.182994
H187	H	1.077279	0.513785	0.432994
H188	H	1.327279	0.763785	0.682994
H189	H	0.433133	0.016366	-0.066172
H190	H	0.683133	0.266366	0.183828
H191	H	0.933133	0.516366	0.433828
H192	H	1.183133	0.766366	0.683828
H193	H	0.417062	-0.138772	-0.163247
H194	H	0.667062	0.111228	0.086753
H195	H	0.917062	0.361228	0.336753
H196	H	1.167062	0.611228	0.586753
H197	H	0.546296	-0.252699	-0.096830
H198	H	0.796296	-0.002699	0.153170
H199	H	1.046296	0.247301	0.403170
H200	H	1.296296	0.497301	0.653170
