data_functionalizedCrystal
_audit_creation_method	'MofGen! by Chris Wilmer'
_symmetry_space_group_name_H-M	'P1'
_symmetry_Int_Tables_number	1
_symmetry_cell_setting	triclinic
loop_
_symmetry_equiv_pos_as_xyz
  x,y,z
_cell_length_a	16.109302
_cell_length_b	23.532407
_cell_length_c	14.586319
_cell_angle_alpha	89.991566
_cell_angle_beta	89.994552
_cell_angle_gamma	83.155229
loop_
_atom_site_label
_atom_site_type_symbol
_atom_site_fract_x
_atom_site_fract_y
_atom_site_fract_z
O1	O	1.102555	0.073204	-0.076291
O2	O	0.860421	0.082313	-0.076285
O3	O	0.988790	-0.005146	-0.076271
O4	O	0.974187	0.160663	-0.076305
O5	O	0.988781	-0.005147	0.076209
O6	O	0.860412	0.082312	0.076196
O7	O	1.102546	0.073203	0.076190
Cu8	Cu	0.981478	0.077757	0.090116
Cu9	Cu	0.981489	0.077759	-0.090211
O10	O	0.974178	0.160662	0.076176
C11	C	0.829445	0.081944	-0.000044
C12	C	0.737158	0.080837	-0.000041
C13	C	0.524833	0.078278	0.083068
C14	C	0.438121	0.077232	0.083065
C15	C	0.438141	0.077236	-0.083178
C16	C	0.524852	0.078278	-0.083174
C17	C	0.568195	0.078802	-0.000048
C18	C	0.394772	0.076714	-0.000055
C19	C	0.300755	0.075580	-0.000059
C20	C	0.662218	0.079935	-0.000044
C21	C	0.988413	-0.026364	-0.000029
C22	C	0.987295	-0.089585	-0.000022
C23	C	1.056248	-0.488434	-0.000074
C24	C	1.055210	-0.547838	-0.000080
O25	O	1.119130	-0.584347	-0.000116
N26	N	0.978895	-0.570746	-0.000078
C27	C	0.903614	-0.534246	-0.000078
O28	O	0.838607	-0.559186	-0.000077
C29	C	0.904653	-0.474843	-0.000077
C30	C	0.980973	-0.451939	-0.000071
C31	C	1.132562	-0.465529	-0.000068
C32	C	1.133600	-0.406129	-0.000059
C33	C	1.058325	-0.369634	-0.000056
C34	C	0.982011	-0.392539	-0.000062
C35	C	0.829373	-0.438345	-0.000084
C36	C	0.830419	-0.378938	-0.000084
C37	C	0.906739	-0.356034	-0.000077
C38	C	0.907774	-0.296644	-0.000050
N39	N	0.984089	-0.273736	-0.000053
C40	C	1.059364	-0.310231	-0.000056
C41	C	0.901436	-0.658997	-0.000080
C42	C	0.900396	-0.718398	-0.000074
C43	C	1.051993	-0.731986	-0.000078
C44	C	1.053032	-0.672583	-0.000078
C45	C	0.977751	-0.636089	-0.000083
C46	C	1.061539	-0.185486	-0.000037
C47	C	1.062571	-0.126080	-0.000024
C48	C	0.910975	-0.112498	-0.000025
C49	C	0.909943	-0.171898	-0.000032
C50	C	0.985232	-0.208392	-0.000042
O51	O	0.843887	-0.260100	-0.000019
O52	O	1.124361	-0.285283	-0.000069
C53	C	1.133522	0.073572	-0.000054
C54	C	1.225809	0.074679	-0.000063
C55	C	0.974554	0.181880	-0.000069
C56	C	0.975672	0.245101	-0.000082
N57	N	0.981477	0.077756	0.216947
N58	N	0.981497	0.077756	-0.217042
C59	C	1.038337	0.039042	0.451960
C60	C	1.038340	0.039040	0.547941
C61	C	0.924631	0.116472	0.547938
C62	C	0.924625	0.116470	0.451959
C63	C	0.981483	0.077756	0.403972
C64	C	0.981491	0.077756	0.595933
C65	C	0.981493	0.077755	0.700000
C66	C	0.981480	0.077756	0.299898
H67	H	0.402840	0.076811	-0.150856
H68	H	0.560159	0.078703	-0.150861
C69	C	1.145462	-0.101246	-0.000211
C70	C	1.190929	-0.119775	-0.078675
C71	C	1.267284	-0.096905	-0.078886
H72	H	1.176533	-0.113767	0.052897
H73	H	1.135340	-0.060639	-0.000254
H74	H	1.201054	-0.160374	-0.078623
H75	H	1.159884	-0.107255	-0.131796
H76	H	1.257163	-0.056298	-0.078930
H77	H	1.298348	-0.109428	-0.025775
H78	H	1.298140	-0.109469	-0.132127
C79	C	1.135833	-0.647640	-0.000223
C80	C	1.140858	-0.613918	-0.078662
C81	C	1.217120	-0.590928	-0.078823
H82	H	1.180583	-0.677828	-0.000270
H83	H	1.139398	-0.624720	0.052921
H84	H	1.137301	-0.636836	-0.131792
H85	H	1.096125	-0.583721	-0.078631
H86	H	1.220685	-0.568009	-0.025679
H87	H	1.261864	-0.621120	-0.078868
H88	H	1.220536	-0.568041	-0.132038
C89	C	0.862810	0.158529	0.599875
C90	C	0.813001	0.192421	0.537303
C91	C	0.756035	0.231167	0.585110
H92	H	0.892422	0.182299	0.637309
H93	H	0.828330	0.138049	0.637308
H94	H	0.847477	0.212901	0.499885
H95	H	0.783372	0.168668	0.499867
H96	H	0.721555	0.210686	0.622543
H97	H	0.785653	0.254932	0.622542
H98	H	0.722228	0.254164	0.542662
H99	H	0.560120	0.078704	0.150754
H100	H	1.113286	-0.761712	-0.000084
C101	C	1.143255	-0.225129	-0.000230
C102	C	1.147116	-0.259611	-0.078692
C103	C	1.222384	-0.296131	-0.078901
H104	H	1.146080	-0.248645	0.052879
H105	H	1.188872	-0.202993	-0.000273
H106	H	1.101512	-0.281745	-0.078640
H107	H	1.144305	-0.236110	-0.131814
H108	H	1.268000	-0.273995	-0.078944
H109	H	1.225203	-0.319643	-0.025788
H110	H	1.225017	-0.319527	-0.132140
C111	C	1.216549	-0.381377	-0.000107
C112	C	1.282240	-0.426061	-0.000137
C113	C	1.358669	-0.403286	-0.000197
H114	H	1.220230	-0.358501	0.053052
H115	H	1.220157	-0.358498	-0.053302
H116	H	1.278634	-0.448930	0.053052
H117	H	1.278587	-0.448941	-0.053292
H118	H	1.362277	-0.380408	-0.053392
H119	H	1.362341	-0.380411	0.052963
H120	H	1.403249	-0.433601	-0.000226
H121	H	1.084633	0.007517	0.412891
H122	H	0.838249	-0.737041	-0.000064
C123	C	1.214235	-0.505214	0.000074
C124	C	1.218058	-0.539730	0.078512
C125	C	1.293282	-0.576297	0.078674
H126	H	1.259896	-0.483129	0.000123
H127	H	1.217000	-0.528700	-0.053071
H128	H	1.215301	-0.516247	0.131643
H129	H	1.172414	-0.561828	0.078479
H130	H	1.296047	-0.599783	0.025529
H131	H	1.338937	-0.554207	0.078721
H132	H	1.295883	-0.599724	0.131888
H133	H	0.849688	-0.082773	-0.000019
H134	H	0.840130	-0.629285	-0.000076
C135	C	0.746423	-0.463091	-0.000143
C136	C	0.680734	-0.418405	-0.000170
C137	C	0.604304	-0.441178	-0.000239
H138	H	0.742731	-0.485979	0.053012
H139	H	0.742824	-0.485957	-0.053341
H140	H	0.684331	-0.395549	0.053023
H141	H	0.684399	-0.395514	-0.053322
H142	H	0.600705	-0.464045	-0.053437
H143	H	0.600621	-0.464066	0.052917
H144	H	0.559725	-0.410863	-0.000266
C145	C	0.391185	0.076696	0.173403
C146	C	0.447703	0.077392	0.246196
C147	C	0.404496	0.076905	0.329432
H148	H	0.363971	0.043108	0.176995
H149	H	0.350757	0.109493	0.176901
H150	H	0.488117	0.044598	0.242700
H151	H	0.474920	0.110978	0.242634
H152	H	0.364068	0.109702	0.332930
H153	H	0.377284	0.043316	0.333015
H154	H	0.442836	0.077383	0.378832
C155	C	1.100163	-0.003017	0.599876
C156	C	1.149965	-0.036909	0.537304
C157	C	1.206935	-0.075656	0.585113
H158	H	1.070555	-0.026785	0.637331
H159	H	1.134648	0.017463	0.637288
H160	H	1.115485	-0.057388	0.499908
H161	H	1.179592	-0.013156	0.499847
H162	H	1.241420	-0.055176	0.622524
H163	H	1.177320	-0.099420	0.622566
H164	H	1.240738	-0.098653	0.542665
C165	C	0.863028	0.158535	0.399735
C166	C	0.907024	0.193394	0.344597
C167	C	0.850311	0.232143	0.296467
H168	H	0.829147	0.181650	0.441955
H169	H	0.828600	0.138056	0.362252
H170	H	0.941438	0.213872	0.382076
H171	H	0.940902	0.170295	0.302360
H172	H	0.815883	0.211664	0.258984
H173	H	0.816433	0.255254	0.338693
H174	H	0.880154	0.255796	0.259044
C175	C	0.748708	-0.339288	-0.000275
C176	C	0.744871	-0.304788	-0.078731
C177	C	0.669609	-0.268262	-0.078942
H178	H	0.745874	-0.315785	0.052838
H179	H	0.703087	-0.361421	-0.000329
H180	H	0.790480	-0.282658	-0.078669
H181	H	0.747691	-0.328275	-0.131857
H182	H	0.623988	-0.290395	-0.078996
H183	H	0.666781	-0.244763	-0.025825
H184	H	0.666992	-0.244853	-0.132177
C185	C	0.826997	-0.196659	-0.000084
C186	C	0.761297	-0.151981	-0.000101
C187	C	0.684875	-0.174764	-0.000173
H188	H	0.823313	-0.219553	0.053066
H189	H	0.823403	-0.219522	-0.053288
H190	H	0.764890	-0.129128	0.053098
H191	H	0.764954	-0.129084	-0.053247
H192	H	0.681281	-0.197626	-0.053377
H193	H	0.681200	-0.197657	0.052978
H194	H	0.640289	-0.144453	-0.000192
