data_functionalizedCrystal
_audit_creation_method	'MofGen! by Chris Wilmer'
_symmetry_space_group_name_H-M	'P1'
_symmetry_Int_Tables_number	1
_symmetry_cell_setting	triclinic
loop_
_symmetry_equiv_pos_as_xyz
  x,y,z
_cell_length_a	19.805405
_cell_length_b	18.101398
_cell_length_c	19.805399
_cell_angle_alpha	90.009370
_cell_angle_beta	90.029301
_cell_angle_gamma	90.021968
loop_
_atom_site_label
_atom_site_type_symbol
_atom_site_fract_x
_atom_site_fract_y
_atom_site_fract_z
Zn1	Zn	-0.269559	1.132142	0.382527
Zn2	Zn	0.063774	1.465476	0.715861
Zn3	Zn	0.397107	1.798809	1.049194
Zn4	Zn	-0.382748	1.132049	0.269336
Zn5	Zn	-0.049414	1.465382	0.602669
Zn6	Zn	0.283919	1.798716	0.936002
Zn7	Zn	-0.269569	1.008302	0.269372
Zn8	Zn	0.063764	1.341635	0.602705
Zn9	Zn	0.397098	1.674969	0.936039
Zn10	Zn	-0.382703	1.008262	0.382503
Zn11	Zn	-0.049369	1.341595	0.715836
Zn12	Zn	0.283964	1.674929	1.049169
O13	O	-0.326145	1.070189	0.325934
O14	O	0.007189	1.403522	0.659268
O15	O	0.340522	1.736856	0.992601
O16	O	-0.284588	1.235763	0.367507
O17	O	0.048745	1.569096	0.700841
O18	O	0.382078	1.902430	1.034174
O19	O	-0.367757	1.115612	0.174624
O20	O	-0.034424	1.448945	0.507957
O21	O	0.298910	1.782278	0.841291
O22	O	-0.174851	1.024785	0.284408
O23	O	0.158482	1.358119	0.617741
O24	O	0.491815	1.691452	0.951075
O25	O	-0.367747	1.235694	0.284346
O26	O	-0.034414	1.569028	0.617679
O27	O	0.298919	1.902361	0.951013
O28	O	-0.174844	1.115770	0.367543
O29	O	0.158489	1.449104	0.700876
O30	O	0.491823	1.782437	1.034209
O31	O	-0.284605	1.024695	0.174651
O32	O	0.048728	1.358028	0.507984
O33	O	0.382061	1.691362	0.841317
O34	O	-0.284562	0.904664	0.284384
O35	O	0.048771	1.237997	0.617717
O36	O	0.382105	1.571331	0.951051
O37	O	-0.367671	1.024717	0.477222
O38	O	-0.034338	1.358051	0.810556
O39	O	0.298995	1.691384	1.143889
O40	O	-0.367681	0.904635	0.367500
O41	O	-0.034347	1.237968	0.700834
O42	O	0.298986	1.571301	1.034167
O43	O	-0.284545	1.115732	0.477241
O44	O	0.048788	1.449065	0.810574
O45	O	0.382122	1.782398	1.143907
O46	O	-0.477458	1.115573	0.284322
O47	O	-0.144125	1.448906	0.617655
O48	O	0.189208	1.782240	0.950989
O49	O	-0.477425	1.024627	0.367465
O50	O	-0.144092	1.357960	0.700798
O51	O	0.189241	1.691294	1.034132
C52	C	-0.326118	0.877778	0.325944
C53	C	0.007215	1.211112	0.659277
C54	C	0.340549	1.544445	0.992610
C55	C	-0.326123	0.795464	0.325964
C56	C	0.007210	1.128798	0.659297
C57	C	0.340544	1.462131	0.992631
C58	C	-0.326163	0.496373	0.325936
C59	C	0.007171	0.829707	0.659269
C60	C	0.340504	1.163040	0.992602
C61	C	-0.378712	0.527705	0.377972
C62	C	-0.045378	0.861038	0.711305
C63	C	0.287955	1.194371	1.044639
C64	C	-0.378547	0.613323	0.378186
C65	C	-0.045214	0.946657	0.711519
C66	C	0.288119	1.279990	1.044853
C67	C	-0.326144	0.644756	0.325950
C68	C	0.007190	0.978089	0.659283
C69	C	0.340523	1.311423	0.992616
C70	C	-0.254853	0.613695	0.345446
C71	C	0.078480	0.947028	0.678779
C72	C	0.411814	1.280362	1.012112
C73	C	-0.255169	0.528050	0.345816
C74	C	0.078165	0.861383	0.679149
C75	C	0.411498	1.194717	1.012482
C76	C	-0.344276	0.527923	0.254278
C77	C	-0.010943	0.861256	0.587611
C78	C	0.322391	1.194590	0.920944
C79	C	-0.345840	0.613573	0.254660
C80	C	-0.012507	0.946906	0.587994
C81	C	0.320826	1.280240	0.921327
C82	C	-0.326128	0.728615	0.325956
C83	C	0.007205	1.061949	0.659290
C84	C	0.340538	1.395282	0.992623
C85	C	-0.326173	0.412514	0.325930
C86	C	0.007160	0.745847	0.659264
C87	C	0.340493	1.079181	0.992597
C88	C	-0.502001	1.070106	0.325902
C89	C	-0.168667	1.403439	0.659235
C90	C	0.164666	1.736772	0.992568
C91	C	-0.577233	1.070138	0.325910
C92	C	-0.243899	1.403471	0.659244
C93	C	0.089434	1.736804	0.992577
C94	C	-0.612571	1.117539	0.282663
C95	C	-0.279238	1.450873	0.615996
C96	C	0.054095	1.784206	0.949330
C97	C	-0.683260	1.117571	0.282678
C98	C	-0.349927	1.450904	0.616011
C99	C	-0.016593	1.784237	0.949345
C100	C	-0.718608	1.070196	0.325937
C101	C	-0.385275	1.403530	0.659271
C102	C	-0.051942	1.736863	0.992604
C103	C	-0.683264	1.022793	0.369189
C104	C	-0.349931	1.356126	0.702523
C105	C	-0.016598	1.689459	1.035856
C106	C	-0.612577	1.022766	0.369177
C107	C	-0.279244	1.356099	0.702511
C108	C	0.054089	1.689432	1.035844
C109	C	-0.968338	1.022902	0.369240
C110	C	-0.635004	1.356235	0.702573
C111	C	-0.301671	1.689569	1.035906
C112	C	-1.039030	1.022931	0.369247
C113	C	-0.705696	1.356265	0.702580
C114	C	-0.372363	1.689598	1.035913
C115	C	-1.039020	1.117707	0.282740
C116	C	-0.705687	1.451040	0.616073
C117	C	-0.372354	1.784374	0.949407
C118	C	-0.968333	1.117680	0.282728
C119	C	-0.635000	1.451013	0.616061
C120	C	-0.301666	1.784347	0.949395
C121	C	-0.932996	1.070279	0.325982
C122	C	-0.599662	1.403613	0.659316
C123	C	-0.266329	1.736946	0.992649
C124	C	-0.856347	1.070247	0.325966
C125	C	-0.523014	1.403580	0.659300
C126	C	-0.189680	1.736914	0.992633
C127	C	-0.795255	1.070225	0.325950
C128	C	-0.461922	1.403558	0.659283
C129	C	-0.128589	1.736891	0.992617
C130	C	-0.149602	1.070293	0.325982
C131	C	0.183731	1.403626	0.659315
C132	C	0.517065	1.736959	0.992649
C133	C	-0.074370	1.070337	0.326002
C134	C	0.258963	1.403670	0.659336
C135	C	0.592297	1.737004	0.992669
C136	C	-0.326102	1.070230	0.502477
C137	C	0.007231	1.403564	0.835810
C138	C	0.340565	1.736897	1.169144
C139	C	-0.326084	1.070248	0.577709
C140	C	0.007249	1.403582	0.911042
C141	C	0.340583	1.736915	1.244376
C142	C	-0.326172	1.263351	0.325925
C143	C	0.007161	1.596684	0.659259
C144	C	0.340495	1.930017	0.992592
C145	C	-0.326183	1.345665	0.325921
C146	C	0.007150	1.678998	0.659255
C147	C	0.340483	2.012332	0.992588
C148	C	-0.326138	1.070190	0.150078
C149	C	0.007195	1.403524	0.483412
C150	C	0.340528	1.736857	0.816745
C151	C	-0.325966	1.070316	0.074847
C152	C	0.007368	1.403649	0.408180
C153	C	0.340701	1.736983	0.741513
C154	C	-0.282798	1.117640	0.613064
C155	C	0.050535	1.450974	0.946397
C156	C	0.383869	1.784307	1.279731
C157	C	-0.282778	1.117648	0.683752
C158	C	0.050555	1.450981	1.017086
C159	C	0.383888	1.784315	1.350419
C160	C	-0.326049	1.070267	0.719085
C161	C	0.007285	1.403600	1.052418
C162	C	0.340618	1.736933	1.385751
C163	C	-0.369336	1.022869	0.683725
C164	C	-0.036003	1.356203	1.017058
C165	C	0.297330	1.689536	1.350392
C166	C	-0.369352	1.022858	0.613038
C167	C	-0.036019	1.356192	0.946371
C168	C	0.297315	1.689525	1.279705
C169	C	-0.369273	1.022911	0.968799
C170	C	-0.035940	1.356244	1.302132
C171	C	0.297393	1.689578	1.635465
C172	C	-0.369256	1.022927	1.039491
C173	C	-0.035922	1.356260	1.372824
C174	C	0.297411	1.689594	1.706157
C175	C	-0.282699	1.117701	1.039513
C176	C	0.050634	1.451034	1.372846
C177	C	0.383967	1.784367	1.706180
C178	C	-0.282715	1.117690	0.968826
C179	C	0.050618	1.451023	1.302159
C180	C	0.383951	1.784356	1.635492
C181	C	-0.326000	1.070290	0.933472
C182	C	0.007333	1.403623	1.266806
C183	C	0.340666	1.736957	1.600139
C184	C	-0.326020	1.070281	0.856824
C185	C	0.007313	1.403615	1.190157
C186	C	0.340647	1.736948	1.523491
C187	C	-0.326033	1.070278	0.795732
C188	C	0.007301	1.403612	1.129065
C189	C	0.340634	1.736945	1.462399
H190	H	-0.214639	0.634056	0.308727
H191	H	0.118694	0.967389	0.642061
H192	H	0.452028	1.300722	0.975394
H193	H	-0.247452	1.156293	1.068306
H194	H	0.085881	1.489627	1.401640
H195	H	0.419214	1.822960	1.734973
F196	F	-0.415341	0.972464	0.931182
F197	F	-0.082008	1.305797	1.264515
F198	F	0.251326	1.639131	1.597848
F199	F	-0.415312	0.972494	1.077093
F200	F	-0.081978	1.305828	1.410426
F201	F	0.251355	1.639161	1.743759
F202	F	-0.574957	1.167958	0.236615
F203	F	-0.241624	1.501291	0.569949
F204	F	0.091709	1.834624	0.903282
H205	H	-0.398300	0.633882	0.239957
H206	H	-0.064966	0.967215	0.573290
H207	H	0.268367	1.300549	0.906623
F208	F	-0.202259	0.500958	0.298439
F209	F	0.131074	0.834291	0.631772
F210	F	0.464408	1.167625	0.965105
F211	F	-0.294248	0.501438	0.203599
F212	F	0.039085	0.834772	0.536932
F213	F	0.372419	1.168105	0.870266
F214	F	-0.415385	0.972439	0.721330
F215	F	-0.082052	1.305773	1.054664
F216	F	0.251281	1.639106	1.387997
F217	F	-0.448038	0.500762	0.362184
F218	F	-0.114705	0.834095	0.695517
F219	F	0.218628	1.167428	1.028850
F220	F	-0.236664	1.168122	0.931226
F221	F	0.096670	1.501455	1.264559
F222	F	0.430003	1.834789	1.597893
H223	H	-0.431413	0.634323	0.365967
H224	H	-0.098080	0.967656	0.699300
H225	H	0.235253	1.300990	1.032633
F226	F	-0.363258	0.499575	0.446967
F227	F	-0.029925	0.832908	0.780300
F228	F	0.303409	1.166242	1.113634
F229	F	-0.720867	1.168024	0.236650
F230	F	-0.387534	1.501357	0.569983
F231	F	-0.054200	1.834691	0.903317
F232	F	-0.720887	0.972377	0.415233
F233	F	-0.387553	1.305711	0.748567
F234	F	-0.054220	1.639044	1.081900
F235	F	-0.574968	0.972316	0.415209
F236	F	-0.241634	1.305650	0.748542
F237	F	0.091699	1.638983	1.081876
F238	F	-0.236746	1.168075	0.575467
F239	F	0.096587	1.501408	0.908800
F240	F	0.429920	1.834741	1.242133
H241	H	-0.247532	1.156241	0.712535
H242	H	0.085801	1.489575	1.045868
H243	H	0.419134	1.822908	1.379202
F244	F	-0.415421	0.972415	0.575411
F245	F	-0.082088	1.305749	0.908745
F246	F	0.251245	1.639082	1.242078
F247	F	-0.234408	0.641746	0.413173
F248	F	0.098925	0.975079	0.746506
F249	F	0.432259	1.308413	1.079840
F250	F	-0.362882	0.640123	0.447583
F251	F	-0.029549	0.973456	0.780917
F252	F	0.303784	1.306790	1.114250
H253	H	-0.239805	0.508087	0.398201
H254	H	0.093528	0.841420	0.731534
H255	H	0.426861	1.174754	1.064868
H256	H	-0.395372	0.506314	0.236561
H257	H	-0.062038	0.839647	0.569894
H258	H	0.271295	1.172981	0.903228
F259	F	-0.930717	1.168101	0.236685
F260	F	-0.597383	1.501435	0.570018
F261	F	-0.264050	1.834768	0.903352
F262	F	-1.076635	1.168159	0.236707
F263	F	-0.743301	1.501492	0.570041
F264	F	-0.409968	1.834825	0.903374
F265	F	-0.299443	0.641536	0.201260
F266	F	0.033890	0.974869	0.534594
F267	F	0.367224	1.308202	0.867927
F268	F	-1.076649	0.972508	0.415293
F269	F	-0.743315	1.305841	0.748626
F270	F	-0.409982	1.639174	1.081959
F271	F	-0.930738	0.972453	0.415274
F272	F	-0.597404	1.305787	0.748607
F273	F	-0.264071	1.639120	1.081941
