data_functionalizedCrystal
_audit_creation_method	'MofGen! by Chris Wilmer'
_symmetry_space_group_name_H-M	'P1'
_symmetry_Int_Tables_number	1
_symmetry_cell_setting	triclinic
loop_
_symmetry_equiv_pos_as_xyz
  x,y,z
_cell_length_a	16.120530
_cell_length_b	16.120484
_cell_length_c	12.759393
_cell_angle_alpha	92.862829
_cell_angle_beta	87.081041
_cell_angle_gamma	90.167327
loop_
_atom_site_label
_atom_site_type_symbol
_atom_site_fract_x
_atom_site_fract_y
_atom_site_fract_z
Zn1	Zn	1.254495	-0.395546	-0.699366
Zn2	Zn	1.504495	-0.145546	-0.449366
Zn3	Zn	1.754495	0.104454	-0.199366
Zn4	Zn	2.004495	0.354454	0.050634
Zn5	Zn	1.247333	-0.534621	-0.532098
Zn6	Zn	1.497333	-0.284621	-0.282098
Zn7	Zn	1.747333	-0.034621	-0.032098
Zn8	Zn	1.997333	0.215379	0.217902
Zn9	Zn	1.115429	-0.388530	-0.514372
Zn10	Zn	1.365429	-0.138530	-0.264372
Zn11	Zn	1.615429	0.111470	-0.014372
Zn12	Zn	1.865429	0.361470	0.235628
Zn13	Zn	1.108347	-0.527500	-0.698405
Zn14	Zn	1.358347	-0.277500	-0.448405
Zn15	Zn	1.608347	-0.027500	-0.198405
Zn16	Zn	1.858347	0.222500	0.051595
O17	O	1.181401	-0.461549	-0.611060
O18	O	1.431401	-0.211549	-0.361060
O19	O	1.681401	0.038451	-0.111060
O20	O	1.931401	0.288451	0.138940
O21	O	1.369910	-0.419912	-0.684998
O22	O	1.619910	-0.169912	-0.434998
O23	O	1.869910	0.080088	-0.184998
O24	O	2.119910	0.330088	0.065002
O25	O	1.229802	-0.515285	-0.382726
O26	O	1.479802	-0.265285	-0.132726
O27	O	1.729802	-0.015285	0.117274
O28	O	1.979802	0.234715	0.367274
O29	O	1.139837	-0.273098	-0.531896
O30	O	1.389837	-0.023098	-0.281896
O31	O	1.639837	0.226902	-0.031896
O32	O	1.889837	0.476902	0.218104
O33	O	1.364648	-0.522089	-0.562107
O34	O	1.614648	-0.272089	-0.312107
O35	O	1.864648	-0.022089	-0.062107
O36	O	2.114648	0.227911	0.187893
O37	O	1.242008	-0.278253	-0.667810
O38	O	1.492008	-0.028253	-0.417810
O39	O	1.742008	0.221747	-0.167810
O40	O	1.992008	0.471747	0.082190
O41	O	1.132892	-0.407952	-0.369703
O42	O	1.382892	-0.157952	-0.119703
O43	O	1.632892	0.092048	0.130297
O44	O	1.882892	0.342048	0.380297
O45	O	0.998123	-0.401047	-0.530964
O46	O	1.248123	-0.151047	-0.280964
O47	O	1.498123	0.098953	-0.030964
O48	O	1.748123	0.348953	0.219036
O49	O	1.127767	-0.509952	-0.845553
O50	O	1.377767	-0.259952	-0.595553
O51	O	1.627767	-0.009952	-0.345553
O52	O	1.877767	0.240048	-0.095553
O53	O	0.992920	-0.503148	-0.666172
O54	O	1.242920	-0.253148	-0.416172
O55	O	1.492920	-0.003148	-0.166172
O56	O	1.742920	0.246852	0.083828
O57	O	1.235141	-0.413007	-0.846259
O58	O	1.485141	-0.163007	-0.596259
O59	O	1.735141	0.086993	-0.346259
O60	O	1.985141	0.336993	-0.096259
O61	O	1.222935	-0.650039	-0.561175
O62	O	1.472935	-0.400039	-0.311175
O63	O	1.722935	-0.150039	-0.061175
O64	O	1.972935	0.099961	0.188825
O65	O	1.120822	-0.644807	-0.683360
O66	O	1.370822	-0.394807	-0.433360
O67	O	1.620822	-0.144807	-0.183360
O68	O	1.870822	0.105193	0.066640
C69	C	0.965350	-0.450564	-0.596540
C70	C	1.215350	-0.200564	-0.346540
C71	C	1.465350	0.049436	-0.096540
C72	C	1.715350	0.299436	0.153460
C73	C	0.872921	-0.445885	-0.590355
C74	C	1.122921	-0.195885	-0.340355
C75	C	1.372921	0.054115	-0.090355
C76	C	1.622921	0.304115	0.159645
C77	C	1.170356	-0.677595	-0.624111
C78	C	1.420356	-0.427595	-0.374111
C79	C	1.670356	-0.177595	-0.124111
C80	C	1.920356	0.072405	0.125889
C81	C	1.165707	-0.770025	-0.629735
C82	C	1.415707	-0.520025	-0.379735
C83	C	1.665707	-0.270025	-0.129735
C84	C	1.915707	-0.020025	0.120265
C85	C	0.703693	-0.437322	-0.579070
C86	C	0.953693	-0.187322	-0.329070
C87	C	1.203693	0.062678	-0.079070
C88	C	1.453693	0.312678	0.170930
C89	C	0.659945	-0.485837	-0.643131
C90	C	0.909945	-0.235837	-0.393131
C91	C	1.159945	0.014163	-0.143131
C92	C	1.409945	0.264163	0.106869
C93	C	0.565781	-0.481073	-0.636852
C94	C	0.815781	-0.231073	-0.386852
C95	C	1.065781	0.018927	-0.136852
C96	C	1.315781	0.268927	0.113148
C97	C	0.797866	-0.442086	-0.585347
C98	C	1.047866	-0.192086	-0.335347
C99	C	1.297866	0.057914	-0.085347
C100	C	1.547866	0.307914	0.164653
C101	C	1.157224	-0.939255	-0.640024
C102	C	1.407224	-0.689255	-0.390024
C103	C	1.657224	-0.439255	-0.140024
C104	C	1.907224	-0.189255	0.109976
C105	C	1.205727	-0.983010	-0.582124
C106	C	1.455727	-0.733010	-0.332124
C107	C	1.705727	-0.483010	-0.082124
C108	C	1.955727	-0.233010	0.167876
C109	C	1.201007	-1.077176	-0.587849
C110	C	1.451007	-0.827176	-0.337849
C111	C	1.701007	-0.577176	-0.087849
C112	C	1.951007	-0.327176	0.162151
C113	C	1.161942	-0.845081	-0.634300
C114	C	1.411942	-0.595081	-0.384300
C115	C	1.661942	-0.345081	-0.134300
C116	C	1.911942	-0.095081	0.115700
C117	C	1.398295	-0.472577	-0.625637
C118	C	1.648295	-0.222577	-0.375637
C119	C	1.898295	0.027423	-0.125637
C120	C	2.148295	0.277423	0.124363
C121	C	1.490723	-0.477277	-0.631849
C122	C	1.740723	-0.227277	-0.381849
C123	C	1.990723	0.022723	-0.131849
C124	C	2.240723	0.272723	0.118151
C125	C	1.181463	-0.461468	-0.885092
C126	C	1.431463	-0.211468	-0.635092
C127	C	1.681463	0.038532	-0.385092
C128	C	1.931463	0.288532	-0.135092
C129	C	1.181490	-0.461433	-1.001869
C130	C	1.431490	-0.211433	-0.751869
C131	C	1.681490	0.038567	-0.501869
C132	C	1.931490	0.288567	-0.251869
C133	C	1.192511	-0.244660	-0.597983
C134	C	1.442511	0.005340	-0.347983
C135	C	1.692511	0.255340	-0.097983
C136	C	1.942511	0.505340	0.152017
C137	C	1.197246	-0.152235	-0.592410
C138	C	1.447246	0.097765	-0.342410
C139	C	1.697246	0.347765	-0.092410
C140	C	1.947246	0.597765	0.157590
C141	C	1.131048	-0.405537	-1.049950
C142	C	1.381048	-0.155537	-0.799950
C143	C	1.631048	0.094463	-0.549950
C144	C	1.881048	0.344463	-0.299950
C145	C	1.131069	-0.405512	-1.159674
C146	C	1.381069	-0.155512	-0.909674
C147	C	1.631069	0.094488	-0.659674
C148	C	1.881069	0.344488	-0.409674
C149	C	1.231979	-0.517284	-1.173226
C150	C	1.481979	-0.267284	-0.923226
C151	C	1.731979	-0.017284	-0.673226
C152	C	1.981979	0.232716	-0.423226
C153	C	1.231953	-0.517312	-1.063504
C154	C	1.481953	-0.267312	-0.813504
C155	C	1.731953	-0.017312	-0.563504
C156	C	1.981953	0.232688	-0.313504
C157	C	1.181389	-0.461572	-0.338094
C158	C	1.431389	-0.211572	-0.088094
C159	C	1.681389	0.038428	0.161906
C160	C	1.931389	0.288428	0.411906
C161	C	1.181536	-0.461381	-0.221315
C162	C	1.431536	-0.211381	0.028685
C163	C	1.681536	0.038619	0.278685
C164	C	1.931536	0.288619	0.528685
H165	H	0.693211	-0.530949	-0.702693
H166	H	0.943211	-0.280949	-0.452693
H167	H	1.193211	-0.030949	-0.202693
H168	H	1.443211	0.219051	0.047307
F169	F	0.660216	-0.378361	-0.501224
F170	F	0.910216	-0.128361	-0.251224
F171	F	1.160216	0.121639	-0.001224
F172	F	1.410216	0.371639	0.248776
F173	F	1.264635	-0.939539	-0.511710
F174	F	1.514635	-0.689539	-0.261710
F175	F	1.764635	-0.439539	-0.011710
F176	F	2.014635	-0.189539	0.238290
H177	H	1.112157	-0.972513	-0.693887
H178	H	1.362157	-0.722513	-0.443887
H179	H	1.612157	-0.472513	-0.193887
H180	H	1.862157	-0.222513	0.056113
F181	F	1.077338	-0.346068	-0.984356
F182	F	1.327338	-0.096068	-0.734356
F183	F	1.577338	0.153932	-0.484356
F184	F	1.827338	0.403932	-0.234356
H185	H	1.089994	-0.359996	-1.198815
H186	H	1.339994	-0.109996	-0.948815
H187	H	1.589994	0.140004	-0.698815
H188	H	1.839994	0.390004	-0.448815
H189	H	1.273066	-0.562777	-1.223423
H190	H	1.523066	-0.312777	-0.973423
H191	H	1.773066	-0.062777	-0.723423
H192	H	2.023066	0.187223	-0.473423
F193	F	1.285640	-0.576811	-1.012330
F194	F	1.535640	-0.326811	-0.762330
F195	F	1.785640	-0.076811	-0.512330
F196	F	2.035640	0.173189	-0.262330
