data_functionalizedCrystal
_audit_creation_method	'MofGen! by Chris Wilmer'
_symmetry_space_group_name_H-M	'P1'
_symmetry_Int_Tables_number	1
_symmetry_cell_setting	triclinic
loop_
_symmetry_equiv_pos_as_xyz
  x,y,z
_cell_length_a	14.560438
_cell_length_b	14.560438
_cell_length_c	14.560438
_cell_angle_alpha	90.001034
_cell_angle_beta	120.005379
_cell_angle_gamma	119.996635
loop_
_atom_site_label
_atom_site_type_symbol
_atom_site_fract_x
_atom_site_fract_y
_atom_site_fract_z
Zr1	Zr	-1.005342	0.884772	-0.120634
O2	O	-1.196952	0.738126	-0.267301
O3	O	-0.813732	0.929724	-0.075660
O4	O	-1.005345	0.929723	-0.267283
O5	O	-1.005336	0.738131	0.075463
O6	O	-1.005348	1.080861	-0.267284
O7	O	-1.005339	0.738127	-0.075678
O8	O	-0.662586	1.080862	0.075495
O9	O	-1.348098	0.738130	-0.267316
O10	O	-0.892546	1.061691	-0.056495
O11	O	-0.892542	0.948902	0.056300
O12	O	-1.118142	0.948901	-0.169312
O13	O	-1.118138	0.836111	-0.056517
Zr14	Zr	-1.005342	1.125826	0.120416
Zr15	Zr	-1.005346	1.125820	-0.120636
Zr16	Zr	-1.005338	0.884778	0.120418
Zr17	Zr	-1.246401	0.884777	-0.120659
Zr18	Zr	-0.764282	1.125821	0.120440
O19	O	-1.196952	1.080874	0.075441
O20	O	-1.196958	1.080866	-0.267304
O21	O	-1.196946	0.738135	0.075444
O22	O	-0.813732	1.272472	0.267083
O23	O	-0.813737	1.272463	-0.075662
O24	O	-0.813726	0.929732	0.267086
O25	O	-1.005348	1.272467	-0.075681
O26	O	-1.005339	1.080875	0.267065
O27	O	-1.005336	0.929737	0.267066
O28	O	-1.005345	1.272471	0.075459
O29	O	-1.348101	0.929731	-0.267318
O30	O	-0.662583	1.080867	0.267100
O31	O	-0.662586	1.272468	0.267098
O32	O	-0.662589	1.272464	0.075494
O33	O	-1.348094	0.738135	-0.075712
O34	O	-1.348098	0.929736	-0.075714
O35	O	-0.892542	1.061697	0.169094
O36	O	-0.892546	1.174487	0.056298
O37	O	-1.118142	1.061696	-0.056518
O38	O	-1.118138	0.948907	0.056277
C39	C	-0.703813	1.005292	-0.000079
C40	C	-0.601477	1.005290	-0.000068
C41	C	-0.636691	0.922023	-0.083351
C42	C	-0.540550	0.922027	-0.083377
C43	C	-0.373982	1.088569	0.083175
C44	C	-0.470122	1.088569	0.083194
C45	C	-1.005337	0.703785	-0.000107
C46	C	-1.005335	0.601453	-0.000106
C47	C	-0.306868	1.005302	-0.000130
C48	C	-0.409196	1.005293	-0.000113
C49	C	-0.887578	0.612251	0.058779
C50	C	-0.887584	0.516096	0.058779
C51	C	-1.123115	0.398350	-0.058999
C52	C	-1.123107	0.494504	-0.058992
C53	C	-1.005347	1.005291	-0.301629
C54	C	-1.005349	1.005289	-0.403961
C55	C	-1.005347	1.306813	-0.000111
C56	C	-1.005349	1.409145	-0.000112
C57	C	-1.123105	0.946414	-0.510927
C58	C	-1.123099	0.946428	-0.607076
C59	C	-0.887569	1.064191	-0.489280
C60	C	-0.887577	1.064184	-0.393134
C61	C	-1.005337	1.005307	0.301410
C62	C	-1.005335	1.005309	0.403743
C63	C	-0.703818	1.306807	-0.000081
C64	C	-0.601484	1.409136	-0.000071
C65	C	-0.703808	1.005300	0.301441
C66	C	-0.601470	1.005300	0.403784
C67	C	-0.703813	1.306814	0.301439
C68	C	-0.601477	1.409146	0.403781
C69	C	-1.306871	0.703784	-0.301657
C70	C	-1.409207	0.601452	-0.403999
C71	C	-1.306866	0.703791	-0.000137
C72	C	-1.409200	0.601462	-0.000147
C73	C	-1.306876	1.005298	-0.301659
C74	C	-1.409214	1.005298	-0.404002
C75	C	-0.553404	1.398335	-0.058941
C76	C	-0.457258	1.494488	-0.058936
C77	C	-0.457275	1.612239	0.058818
C78	C	-0.553426	1.516087	0.058806
C79	C	-0.553390	1.064178	0.510743
C80	C	-0.457241	1.064165	0.606901
C81	C	-0.457259	0.946396	0.489129
C82	C	-0.553412	0.946403	0.392973
C83	C	-0.553399	1.516097	0.392987
C84	C	-0.457252	1.612244	0.489152
C85	C	-0.457265	1.494476	0.606903
C86	C	-0.553417	1.398331	0.510739
H87	H	-0.441437	1.156381	0.151016
F88	F	-0.604552	1.284512	-0.121608
H89	H	-0.418111	1.699326	0.480356
F90	F	-0.406078	1.126827	0.720734
H91	H	-0.418116	0.898446	0.480341
F92	F	-0.604591	0.883729	0.279130
F93	F	-0.604551	1.527610	0.279157
H94	H	-0.791695	0.524897	0.106731
F95	F	-0.406095	1.482985	-0.121596
F96	F	-0.406107	1.482978	0.720740
F97	F	-0.234181	1.177191	0.171787
H98	H	-0.592577	1.524890	0.106745
F99	F	-1.248449	0.284522	-0.121668
H100	H	-0.791683	1.112140	-0.480478
H101	H	-0.791681	0.699330	0.106740
H102	H	-1.219003	0.898459	-0.519750
F103	F	-1.248447	0.483008	-0.121663
H104	H	-0.569235	0.854224	-0.151195
H105	H	-0.592520	1.112131	0.519552
F106	F	-0.604594	1.284496	0.522231
F107	F	-1.248433	0.883767	-0.720916
F108	F	-0.762237	1.126847	-0.279283
H109	H	-0.418134	1.699328	0.106755
H110	H	-0.743643	0.854206	-0.151143
