data_functionalizedCrystal
_audit_creation_method	'MofGen! by Chris Wilmer'
_symmetry_space_group_name_H-M	'P1'
_symmetry_Int_Tables_number	1
_symmetry_cell_setting	triclinic
loop_
_symmetry_equiv_pos_as_xyz
  x,y,z
_cell_length_a	26.809956
_cell_length_b	14.519709
_cell_length_c	14.519709
_cell_angle_alpha	83.680145
_cell_angle_beta	90.003406
_cell_angle_gamma	89.996771
loop_
_atom_site_label
_atom_site_type_symbol
_atom_site_fract_x
_atom_site_fract_y
_atom_site_fract_z
O1	O	0.041416	-1.223875	-0.120878
O2	O	0.374749	-0.890541	0.212455
O3	O	0.708082	-0.557208	0.545788
O4	O	0.041431	-0.955398	-0.135115
O5	O	0.374764	-0.622064	0.198219
O6	O	0.708098	-0.288731	0.531552
O7	O	0.041419	-1.096755	0.006242
O8	O	0.374752	-0.763421	0.339575
O9	O	0.708085	-0.430088	0.672909
O10	O	0.041428	-1.082518	-0.262235
O11	O	0.374762	-0.749185	0.071098
O12	O	0.708095	-0.415851	0.404432
O13	O	-0.041541	-1.096728	0.006220
O14	O	0.291793	-0.763395	0.339554
O15	O	0.625126	-0.430061	0.672887
O16	O	-0.041528	-0.955371	-0.135136
O17	O	0.291805	-0.622038	0.198197
O18	O	0.625139	-0.288704	0.531530
O19	O	-0.041544	-1.223848	-0.120900
O20	O	0.291790	-0.890515	0.212434
O21	O	0.625123	-0.557181	0.545767
Zn22	Zn	-0.054707	-1.089605	-0.128021
Zn23	Zn	0.278626	-0.756272	0.205312
Zn24	Zn	0.611959	-0.422939	0.538645
Zn25	Zn	0.054595	-1.089641	-0.127993
Zn26	Zn	0.387928	-0.756307	0.205340
Zn27	Zn	0.721262	-0.422974	0.538674
O28	O	-0.041531	-1.082491	-0.262257
O29	O	0.291802	-0.749158	0.071077
O30	O	0.625136	-0.415825	0.404410
C31	C	-0.000047	-0.921025	-0.134462
C32	C	0.333287	-0.587691	0.198871
C33	C	0.666620	-0.254358	0.532205
C34	C	-0.000041	-0.818643	-0.132474
C35	C	0.333292	-0.485310	0.200859
C36	C	0.666626	-0.151977	0.534193
C37	C	-0.000061	-1.096078	0.040591
C38	C	0.333272	-0.762744	0.373924
C39	C	0.666606	-0.429411	0.707258
C40	C	-0.000061	-1.094089	0.142972
C41	C	0.333272	-0.760756	0.476306
C42	C	0.666605	-0.427423	0.809639
N43	N	-0.129303	-1.089588	-0.128040
N44	N	0.204030	-0.756255	0.205293
N45	N	0.537363	-0.422921	0.538626
C46	C	-0.473935	-1.152225	-0.065416
C47	C	-0.140602	-0.818892	0.267918
C48	C	0.192732	-0.485559	0.601251
C49	C	-0.682813	-1.152247	-0.065402
C50	C	-0.349479	-0.818914	0.267932
C51	C	-0.016146	-0.485580	0.601265
O52	O	-0.709821	-1.205466	-0.012162
O53	O	-0.376488	-0.872133	0.321172
O54	O	-0.043155	-0.538799	0.654505
N55	N	-0.708930	-1.089645	-0.127973
N56	N	-0.375597	-0.756312	0.205361
N57	N	-0.042264	-0.422979	0.538694
C58	C	-0.682826	-1.027030	-0.190548
C59	C	-0.349492	-0.693697	0.142786
C60	C	-0.016159	-0.360363	0.476119
O61	O	-0.709833	-0.973777	-0.243761
O62	O	-0.376500	-0.640444	0.089572
O63	O	-0.043167	-0.307111	0.422905
C64	C	-0.473949	-1.027004	-0.190556
C65	C	-0.140616	-0.693671	0.142777
C66	C	0.192718	-0.360338	0.476110
C67	C	-0.447834	-1.089616	-0.127988
C68	C	-0.114500	-0.756283	0.205346
C69	C	0.218833	-0.422950	0.538679
C70	C	-0.447820	-1.214831	-0.002851
C71	C	-0.114487	-0.881498	0.330482
C72	C	0.218847	-0.548165	0.663815
C73	C	-0.395604	-1.214829	-0.002859
C74	C	-0.062270	-0.881495	0.330474
C75	C	0.271063	-0.548162	0.663808
C76	C	-0.369502	-1.152220	-0.065431
C77	C	-0.036169	-0.818887	0.267903
C78	C	0.297164	-0.485553	0.601236
C79	C	-0.395618	-1.089614	-0.127995
C80	C	-0.062284	-0.756280	0.205338
C81	C	0.271049	-0.422947	0.538671
C82	C	-0.447845	-0.964385	-0.253126
C83	C	-0.114512	-0.631052	0.080207
C84	C	0.218822	-0.297718	0.413540
C85	C	-0.395622	-0.964383	-0.253121
C86	C	-0.062289	-0.631049	0.080212
C87	C	0.271044	-0.297716	0.413545
C88	C	-0.369507	-1.026995	-0.190553
C89	C	-0.036174	-0.693661	0.142781
C90	C	0.297159	-0.360328	0.476114
C91	C	-0.317300	-1.027002	-0.190575
C92	C	0.016033	-0.693669	0.142759
C93	C	0.349367	-0.360335	0.476092
N94	N	-0.291182	-1.089604	-0.128004
N95	N	0.042151	-0.756270	0.205330
N96	N	0.375484	-0.422937	0.538663
C97	C	-0.317283	-1.152213	-0.065432
C98	C	0.016050	-0.818879	0.267902
C99	C	0.349383	-0.485546	0.601235
C100	C	-0.792489	-1.027049	-0.190540
C101	C	-0.459156	-0.693716	0.142794
C102	C	-0.125822	-0.360382	0.476127
C103	C	-0.844708	-1.027056	-0.190539
C104	C	-0.511375	-0.693723	0.142794
C105	C	-0.178041	-0.360390	0.476128
C106	C	-0.844691	-1.152273	-0.065392
C107	C	-0.511358	-0.818939	0.267942
C108	C	-0.178025	-0.485606	0.601275
C109	C	-0.792471	-1.152269	-0.065398
C110	C	-0.459138	-0.818936	0.267936
C111	C	-0.125805	-0.485602	0.601269
C112	C	-0.766371	-1.089651	-0.127969
C113	C	-0.433038	-0.756317	0.205364
C114	C	-0.099704	-0.422984	0.538698
C115	C	-0.207625	-1.152203	-0.065453
C116	C	0.125708	-0.818869	0.267881
C117	C	0.459041	-0.485536	0.601214
C118	C	-0.155405	-1.152197	-0.065468
C119	C	0.177929	-0.818864	0.267865
C120	C	0.511262	-0.485530	0.601198
C121	C	-0.155426	-1.026978	-0.190612
C122	C	0.177908	-0.693645	0.142721
C123	C	0.511241	-0.360311	0.476055
C124	C	-0.207642	-1.026986	-0.190600
C125	C	0.125691	-0.693653	0.142733
C126	C	0.459025	-0.360320	0.476067
C127	C	-0.233741	-1.089602	-0.128013
C128	C	0.099593	-0.756269	0.205321
C129	C	0.432926	-0.422936	0.538654
O130	O	-0.290259	-0.973804	-0.243780
O131	O	0.043074	-0.640471	0.089554
O132	O	0.376407	-0.307137	0.422887
O133	O	-0.290267	-1.205443	-0.012212
O134	O	0.043066	-0.872110	0.321121
O135	O	0.376400	-0.538777	0.654454
C136	C	-0.526151	-1.152228	-0.065408
C137	C	-0.192818	-0.818895	0.267925
C138	C	0.140515	-0.485561	0.601258
C139	C	-0.552266	-1.089622	-0.127973
C140	C	-0.218933	-0.756288	0.205361
C141	C	0.114400	-0.422955	0.538694
C142	C	-0.526165	-1.027013	-0.190545
C143	C	-0.192832	-0.693680	0.142789
C144	C	0.140501	-0.360346	0.476122
C145	C	-0.604485	-1.089629	-0.127972
C146	C	-0.271152	-0.756296	0.205362
C147	C	0.062181	-0.422962	0.538695
C148	C	-0.630587	-1.152238	-0.065400
C149	C	-0.297253	-0.818905	0.267933
C150	C	0.036080	-0.485571	0.601267
C151	C	-0.604469	-1.214840	-0.002829
C152	C	-0.271135	-0.881506	0.330504
C153	C	0.062198	-0.548173	0.663838
C154	C	-0.552252	-1.214837	-0.002836
C155	C	-0.218919	-0.881504	0.330497
C156	C	0.114414	-0.548170	0.663830
C157	C	-0.552283	-0.964411	-0.253116
C158	C	-0.218950	-0.631078	0.080218
C159	C	0.114384	-0.297745	0.413551
C160	C	-0.604499	-0.964420	-0.253104
C161	C	-0.271166	-0.631086	0.080230
C162	C	0.062167	-0.297753	0.413563
C163	C	-0.630601	-1.027029	-0.190532
C164	C	-0.297267	-0.693695	0.142802
C165	C	0.036066	-0.360362	0.476135
N166	N	0.129191	-1.089665	-0.127967
N167	N	0.462524	-0.756332	0.205366
N168	N	0.795858	-0.422998	0.538700
C169	C	-0.000065	-1.258221	-0.121553
C170	C	0.333269	-0.924888	0.211781
C171	C	0.666602	-0.591554	0.545114
C172	C	-0.000067	-1.360602	-0.123541
C173	C	0.333266	-1.027269	0.209793
C174	C	0.666599	-0.693936	0.543126
C175	C	-0.000064	-0.443748	-0.125154
C176	C	0.333270	-0.110414	0.208179
C177	C	0.666603	0.222919	0.541512
C178	C	-0.000057	-0.548056	-0.127187
C179	C	0.333276	-0.214722	0.206146
C180	C	0.666609	0.118611	0.539480
C181	C	-0.000052	-0.631192	-0.128814
C182	C	0.333281	-0.297859	0.204519
C183	C	0.666615	0.035474	0.537853
C184	C	-0.000046	-0.735507	-0.130847
C185	C	0.333287	-0.402173	0.202486
C186	C	0.666620	-0.068840	0.535820
C187	C	-0.000050	-1.083168	-0.296606
C188	C	0.333283	-0.749835	0.036728
C189	C	0.666617	-0.416501	0.370061
C190	C	-0.000047	-1.085156	-0.398987
C191	C	0.333287	-0.751823	-0.065653
C192	C	0.666620	-0.418490	0.267680
C193	C	-0.000048	-1.086770	0.517868
C194	C	0.333285	-0.753437	0.851201
C195	C	0.666619	-0.420103	1.184535
C196	C	-0.000052	-1.088803	0.413560
C197	C	0.333282	-0.755469	0.746893
C198	C	0.666615	-0.422136	1.080227
C199	C	-0.000055	-1.090430	0.330423
C200	C	0.333278	-0.757096	0.663757
C201	C	0.666612	-0.423763	0.997090
C202	C	-0.000058	-1.092463	0.226109
C203	C	0.333275	-0.759129	0.559442
C204	C	0.666609	-0.425796	0.892776
H205	H	-0.134143	-1.203186	-0.014517
H206	H	0.199190	-0.869853	0.318816
H207	H	0.532523	-0.536520	0.652149
H208	H	-0.469101	-0.913400	-0.304075
H209	H	-0.135767	-0.580067	0.029259
H210	H	0.197566	-0.246734	0.362592
Br211	Br	-0.757035	-1.237245	0.019520
Br212	Br	-0.423702	-0.903912	0.352853
Br213	Br	-0.090369	-0.570578	0.686187
H214	H	-0.374374	-0.913388	-0.304073
H215	H	-0.041041	-0.580055	0.029260
H216	H	0.292293	-0.246722	0.362593
Br217	Br	-0.119994	-0.942014	-0.275531
Br218	Br	0.213339	-0.608680	0.057803
Br219	Br	0.546672	-0.275347	0.391136
Br220	Br	-0.483234	-1.299810	0.082080
Br221	Br	-0.149901	-0.966477	0.415413
Br222	Br	0.183433	-0.633144	0.748747
Br223	Br	-0.880125	-1.237241	0.019526
Br224	Br	-0.546792	-0.903908	0.352860
Br225	Br	-0.213458	-0.570574	0.686193
H226	H	-0.865967	-0.976082	-0.241498
H227	H	-0.532634	-0.642748	0.091836
H228	H	-0.199300	-0.309415	0.425169
H229	H	-0.228905	-0.976011	-0.241558
H230	H	0.104428	-0.642678	0.091775
H231	H	0.437761	-0.309344	0.425109
H232	H	-0.771242	-0.976056	-0.241495
H233	H	-0.437908	-0.642723	0.091838
H234	H	-0.104575	-0.309389	0.425172
H235	H	-0.530993	-1.265821	0.048113
H236	H	-0.197660	-0.932488	0.381446
H237	H	0.135673	-0.599155	0.714780
H238	H	-0.625729	-1.265822	0.048117
H239	H	-0.292396	-0.932488	0.381450
H240	H	0.040938	-0.599155	0.714783
Br241	Br	-0.639936	-0.879444	-0.338032
Br242	Br	-0.306602	-0.546111	-0.004698
Br243	Br	0.026731	-0.212778	0.328635
H244	H	-0.228869	-1.203189	-0.014487
H245	H	0.104464	-0.869856	0.318846
H246	H	0.437798	-0.536522	0.652179
Br247	Br	-0.360167	-1.299800	0.082063
Br248	Br	-0.026834	-0.966467	0.415397
Br249	Br	0.306499	-0.633134	0.748730
Br250	Br	-0.516867	-0.879434	-0.338042
Br251	Br	-0.183533	-0.546100	-0.004708
Br252	Br	0.149800	-0.212767	0.328625
