data_functionalizedCrystal
_audit_creation_method	'MofGen! by Chris Wilmer'
_symmetry_space_group_name_H-M	'P1'
_symmetry_Int_Tables_number	1
_symmetry_cell_setting	triclinic
loop_
_symmetry_equiv_pos_as_xyz
  x,y,z
_cell_length_a	15.995350
_cell_length_b	17.666332
_cell_length_c	19.188924
_cell_angle_alpha	90.008552
_cell_angle_beta	83.317170
_cell_angle_gamma	90.005705
loop_
_atom_site_label
_atom_site_type_symbol
_atom_site_fract_x
_atom_site_fract_y
_atom_site_fract_z
O1	O	1.110659	0.062888	0.089998
O2	O	1.443992	0.396221	0.423331
O3	O	1.777326	0.729554	0.756664
O4	O	0.866843	0.062904	0.101111
O5	O	1.200176	0.396237	0.434444
O6	O	1.533509	0.729570	0.767778
O7	O	0.995790	0.062886	-0.006084
O8	O	1.329123	0.396220	0.327250
O9	O	1.662457	0.729553	0.660583
O10	O	0.981712	0.062905	0.197192
O11	O	1.315045	0.396238	0.530526
O12	O	1.648378	0.729572	0.863859
O13	O	0.995767	-0.063010	-0.006089
O14	O	1.329101	0.270323	0.327244
O15	O	1.662434	0.603656	0.660577
O16	O	0.866820	-0.062993	0.101105
O17	O	1.200153	0.270340	0.434439
O18	O	1.533487	0.603674	0.767772
O19	O	1.110636	-0.063009	0.089992
O20	O	1.443970	0.270324	0.423325
O21	O	1.777303	0.603658	0.756659
Cu22	Cu	0.988726	-0.074496	0.095548
Cu23	Cu	1.322060	0.258837	0.428881
Cu24	Cu	1.655393	0.592170	0.762215
Cu25	Cu	0.988753	0.074391	0.095555
Cu26	Cu	1.322086	0.407724	0.428888
Cu27	Cu	1.655420	0.741058	0.762221
O28	O	0.981689	-0.062992	0.197187
O29	O	1.315023	0.270342	0.530520
O30	O	1.648356	0.603675	0.863853
C31	C	0.835638	-0.000043	0.100649
C32	C	1.168972	0.333291	0.433982
C33	C	1.502305	0.666624	0.767315
C34	C	0.742693	-0.000037	0.099271
C35	C	1.076026	0.333296	0.432605
C36	C	1.409360	0.666630	0.765938
C37	C	0.404964	-0.000053	0.094325
C38	C	0.738297	0.333280	0.427658
C39	C	1.071630	0.666614	0.760991
C40	C	0.452680	-0.000341	0.017982
C41	C	0.786013	0.332992	0.351316
C42	C	1.119346	0.666326	0.684649
C43	C	0.549365	-0.000052	0.019360
C44	C	0.882698	0.333281	0.352694
C45	C	1.216032	0.666615	0.686027
C46	C	0.572515	-0.000046	0.096778
C47	C	0.905849	0.333288	0.430112
C48	C	1.239182	0.666621	0.763445
C49	C	0.531302	0.071848	0.134436
C50	C	0.864635	0.405181	0.467769
C51	C	1.197969	0.738515	0.801103
C52	C	0.434673	0.071903	0.132518
C53	C	0.768007	0.405236	0.465852
C54	C	1.101340	0.738570	0.799185
C55	C	0.434303	-0.071265	0.134089
C56	C	0.767636	0.262068	0.467422
C57	C	1.100970	0.595402	0.800756
C58	C	0.531248	-0.072210	0.134071
C59	C	0.864582	0.261123	0.467404
C60	C	1.197915	0.594457	0.800738
C61	C	0.667208	-0.000039	0.098169
C62	C	1.000541	0.333295	0.431502
C63	C	1.333874	0.666628	0.764836
C64	C	0.310271	-0.000055	0.092936
C65	C	0.643604	0.333278	0.426269
C66	C	0.976938	0.666612	0.759603
N67	N	0.988714	-0.179216	0.095543
N68	N	1.322047	0.154118	0.428876
N69	N	1.655380	0.487451	0.762210
C70	C	1.045830	-0.218833	0.048100
C71	C	1.379163	0.114500	0.381434
C72	C	1.712496	0.447833	0.714767
C73	C	1.045835	-0.298081	0.048097
C74	C	1.379168	0.035252	0.381430
C75	C	1.712501	0.368586	0.714764
C76	C	0.988731	-0.337708	0.095548
C77	C	1.322065	-0.004375	0.428881
C78	C	1.655398	0.328959	0.762215
C79	C	0.931604	-0.298081	0.142994
C80	C	1.264938	0.035252	0.476328
C81	C	1.598271	0.368586	0.809661
C82	C	0.931596	-0.218835	0.142992
C83	C	1.264929	0.114498	0.476325
C84	C	1.598262	0.447832	0.809658
N85	N	0.977845	-0.462120	0.157328
N86	N	1.311178	-0.128787	0.490661
N87	N	1.644512	0.204546	0.823995
N88	N	0.977858	-0.537401	0.157328
N89	N	1.311192	-0.204068	0.490662
N90	N	1.644525	0.129266	0.823995
C91	C	0.988753	-0.576472	0.095558
C92	C	1.322087	-0.243139	0.428891
C93	C	1.655420	0.090195	0.762225
N94	N	0.999651	-0.537419	0.033785
N95	N	1.332984	-0.204085	0.367119
N96	N	1.666317	0.129248	0.700452
N97	N	0.999642	-0.462131	0.033786
N98	N	1.332975	-0.128798	0.367119
N99	N	1.666308	0.204535	0.700452
C100	C	0.988734	-0.423637	0.095556
C101	C	1.322068	-0.090304	0.428889
C102	C	1.655401	0.243030	0.762223
C103	C	1.045878	-0.702019	0.048108
C104	C	1.379211	-0.368685	0.381441
C105	C	1.712545	-0.035352	0.714774
C106	C	1.045877	-0.781268	0.048104
C107	C	1.379210	-0.447934	0.381437
C108	C	1.712544	-0.114601	0.714770
C109	C	0.931651	-0.781266	0.143007
C110	C	1.264984	-0.447933	0.476340
C111	C	1.598317	-0.114600	0.809674
C112	C	0.931648	-0.702019	0.143005
C113	C	1.264981	-0.368686	0.476339
C114	C	1.598314	-0.035352	0.809672
C115	C	0.988766	-0.662400	0.095556
C116	C	1.322099	-0.329066	0.428890
C117	C	1.655432	0.004267	0.762223
C118	C	1.141841	-0.000061	0.090454
C119	C	1.475174	0.333272	0.423788
C120	C	1.808507	0.666606	0.757121
C121	C	1.234786	-0.000062	0.091832
C122	C	1.568119	0.333272	0.425165
C123	C	1.901453	0.666605	0.758498
C124	C	0.995324	-0.000063	-0.032099
C125	C	1.328657	0.333271	0.301234
C126	C	1.661990	0.666604	0.634568
C127	C	0.993958	-0.000065	-0.109607
C128	C	1.327291	0.333269	0.223726
C129	C	1.660625	0.666602	0.557060
N130	N	0.988772	0.179111	0.095554
N131	N	1.322106	0.512444	0.428888
N132	N	1.655439	0.845777	0.762221
C133	C	0.993333	0.068562	-0.146005
C134	C	1.326666	0.401895	0.187329
C135	C	1.660000	0.735229	0.520662
C136	C	0.992038	0.068568	-0.218831
C137	C	1.325371	0.401901	0.114503
C138	C	1.658705	0.735234	0.447836
C139	C	0.991385	-0.000057	-0.255258
C140	C	1.324718	0.333276	0.078075
C141	C	1.658051	0.666610	0.411408
C142	C	0.992005	-0.068692	-0.218851
C143	C	1.325339	0.264641	0.114482
C144	C	1.658672	0.597974	0.447815
C145	C	0.993292	-0.068696	-0.146026
C146	C	1.326625	0.264637	0.187307
C147	C	1.659959	0.597970	0.520641
N148	N	1.037003	-0.051136	-0.374808
N149	N	1.370337	0.282198	-0.041474
N150	N	1.703670	0.615531	0.291859
N151	N	1.035783	-0.051127	-0.443989
N152	N	1.369116	0.282206	-0.110656
N153	N	1.702450	0.615539	0.222678
C154	C	0.987506	-0.000049	-0.474677
C155	C	1.320840	0.333284	-0.141344
C156	C	1.654173	0.666617	0.191989
N157	N	0.940507	0.051031	-0.433572
N158	N	1.273840	0.384365	-0.100238
N159	N	1.607174	0.717698	0.233095
N160	N	0.941731	0.051025	-0.364384
N161	N	1.275065	0.384359	-0.031051
N162	N	1.608398	0.717692	0.302282
C163	C	0.989989	-0.000060	-0.334225
C164	C	1.323322	0.333273	-0.000892
C165	C	1.656656	0.666606	0.332441
C166	C	0.985476	0.068588	-0.590041
C167	C	1.318809	0.401922	-0.256707
C168	C	1.652143	0.735255	0.076626
C169	C	0.984176	0.068591	-0.662868
C170	C	1.317509	0.401925	-0.329534
C171	C	1.650842	0.735258	0.003799
C172	C	0.984151	-0.068671	-0.662888
C173	C	1.317485	0.264662	-0.329555
C174	C	1.650818	0.597996	0.003779
C175	C	0.985443	-0.068672	-0.590062
C176	C	1.318777	0.264661	-0.256728
C177	C	1.652110	0.597995	0.076605
C178	C	0.986109	-0.000040	-0.553643
C179	C	1.319443	0.333293	-0.220310
C180	C	1.652776	0.666626	0.113024
C181	C	0.982155	-0.000041	0.223202
C182	C	1.315489	0.333292	0.556535
C183	C	1.648822	0.666626	0.889868
C184	C	0.983521	-0.000034	0.300710
C185	C	1.316854	0.333299	0.634043
C186	C	1.650188	0.666633	0.967377
H187	H	0.545217	0.074526	0.191313
H188	H	0.878551	0.407859	0.524647
H189	H	1.211884	0.741193	0.857980
H190	H	0.985959	-0.124555	-0.560427
H191	H	1.319293	0.208778	-0.227094
H192	H	1.652626	0.542112	0.106239
H193	H	0.991471	-0.124567	-0.248515
H194	H	1.324804	0.208766	0.084818
H195	H	1.658138	0.542100	0.418151
H196	H	0.546404	-0.076548	0.190526
H197	H	0.879738	0.256786	0.523860
H198	H	1.213071	0.590119	0.857193
H199	H	0.577894	-0.051589	-0.010241
H200	H	0.911227	0.281745	0.323093
H201	H	1.244560	0.615078	0.656426
H202	H	0.434261	-0.051899	-0.012536
H203	H	0.767594	0.281434	0.320798
H204	H	1.100928	0.614768	0.654131
H205	H	0.983613	-0.124546	-0.692546
H206	H	1.316947	0.208787	-0.359213
H207	H	1.650280	0.542120	-0.025879
H208	H	0.433207	0.050927	-0.012391
H209	H	0.766541	0.384261	0.320943
H210	H	1.099874	0.717594	0.654276
H211	H	0.577342	0.051569	-0.010436
H212	H	0.910675	0.384902	0.322897
H213	H	1.244009	0.718236	0.656231
H214	H	0.416476	0.125641	0.105061
H215	H	0.749809	0.458974	0.438395
H216	H	1.083143	0.792307	0.771728
H217	H	0.402218	0.075170	0.188567
H218	H	0.735552	0.408503	0.521901
H219	H	1.068885	0.741837	0.855234
H220	H	0.559782	0.125348	0.108285
H221	H	0.893116	0.458682	0.441619
H222	H	1.226449	0.792015	0.774952
H223	H	0.413850	-0.125759	0.109129
H224	H	0.747183	0.207575	0.442462
H225	H	1.080517	0.540908	0.775795
H226	H	0.558657	-0.125397	0.106581
H227	H	0.891990	0.207937	0.439914
H228	H	1.225324	0.541270	0.773248
H229	H	1.092385	-0.669760	0.009470
H230	H	1.425718	-0.336426	0.342803
H231	H	1.759051	-0.003093	0.676137
H232	H	1.092337	-0.186578	0.009463
H233	H	1.425670	0.146756	0.342796
H234	H	1.759003	0.480089	0.676130
H235	H	0.402334	-0.071747	0.190376
H236	H	0.735667	0.261587	0.523709
H237	H	1.069000	0.594920	0.857042
H238	H	1.092347	-0.330343	0.009462
H239	H	1.425680	0.002990	0.342795
H240	H	1.759014	0.336323	0.676129
H241	H	1.092385	-0.813525	0.009466
H242	H	1.425719	-0.480192	0.342800
H243	H	1.759052	-0.146858	0.676133
H244	H	0.986013	0.124472	-0.560386
H245	H	1.319347	0.457806	-0.227053
H246	H	1.652680	0.791139	0.106280
H247	H	0.885109	-0.330349	0.181629
H248	H	1.218442	0.002984	0.514962
H249	H	1.551775	0.336317	0.848296
H250	H	0.993873	0.124447	-0.116357
H251	H	1.327206	0.457781	0.216977
H252	H	1.660540	0.791114	0.550310
H253	H	0.885153	-0.813530	0.181640
H254	H	1.218486	-0.480197	0.514973
H255	H	1.551820	-0.146864	0.848307
H256	H	0.885084	-0.186578	0.181626
H257	H	1.218417	0.146756	0.514959
H258	H	1.551750	0.480089	0.848292
H259	H	0.885142	-0.669760	0.181640
H260	H	1.218475	-0.336427	0.514974
H261	H	1.551808	-0.003093	0.848307
H262	H	0.991524	0.124453	-0.248471
H263	H	1.324857	0.457787	0.084863
H264	H	1.658190	0.791120	0.418196
H265	H	0.993797	-0.124582	-0.116391
H266	H	1.327131	0.208751	0.216942
H267	H	1.660464	0.542085	0.550275
H268	H	0.983662	0.124478	-0.692501
H269	H	1.316996	0.457811	-0.359167
H270	H	1.650329	0.791144	-0.025834
