data_functionalizedCrystal
_audit_creation_method	'MofGen! by Chris Wilmer'
_symmetry_space_group_name_H-M	'P1'
_symmetry_Int_Tables_number	1
_symmetry_cell_setting	triclinic
loop_
_symmetry_equiv_pos_as_xyz
  x,y,z
_cell_length_a	19.121424
_cell_length_b	19.120786
_cell_length_c	19.120915
_cell_angle_alpha	89.863545
_cell_angle_beta	94.749638
_cell_angle_gamma	95.008527
loop_
_atom_site_label
_atom_site_type_symbol
_atom_site_fract_x
_atom_site_fract_y
_atom_site_fract_z
Zn1	Zn	1.048453	-0.249444	-0.341889
Zn2	Zn	1.298453	0.000556	-0.091889
Zn3	Zn	1.548453	0.250556	0.158111
Zn4	Zn	1.798453	0.500556	0.408111
Zn5	Zn	1.048803	-0.361679	-0.219634
Zn6	Zn	1.298803	-0.111679	0.030366
Zn7	Zn	1.548803	0.138321	0.280366
Zn8	Zn	1.798803	0.388321	0.530366
Zn9	Zn	0.935818	-0.249473	-0.229242
Zn10	Zn	1.185818	0.000527	0.020758
Zn11	Zn	1.435818	0.250527	0.270758
Zn12	Zn	1.685818	0.500527	0.520758
Zn13	Zn	0.925740	-0.372103	-0.341829
Zn14	Zn	1.175740	-0.122103	-0.091829
Zn15	Zn	1.425740	0.127897	0.158171
Zn16	Zn	1.675740	0.377897	0.408171
O17	O	0.989704	-0.308175	-0.283148
O18	O	1.239704	-0.058175	-0.033148
O19	O	1.489704	0.191825	0.216852
O20	O	1.739704	0.441825	0.466852
O21	O	1.147140	-0.259958	-0.321676
O22	O	1.397140	-0.009958	-0.071676
O23	O	1.647140	0.240042	0.178324
O24	O	1.897140	0.490042	0.428324
O25	O	1.038180	-0.342444	-0.122626
O26	O	1.288180	-0.092444	0.127374
O27	O	1.538180	0.157556	0.377374
O28	O	1.788180	0.407556	0.627374
O29	O	0.954831	-0.151178	-0.248231
O30	O	1.204831	0.098822	0.001769
O31	O	1.454831	0.348822	0.251769
O32	O	1.704831	0.598822	0.501769
O33	O	1.147398	-0.342416	-0.231855
O34	O	1.397398	-0.092416	0.018145
O35	O	1.647398	0.157584	0.268145
O36	O	1.897398	0.407584	0.518145
O37	O	1.037583	-0.151157	-0.330992
O38	O	1.287583	0.098843	-0.080992
O39	O	1.537583	0.348843	0.169008
O40	O	1.787583	0.598843	0.419008
O41	O	0.955170	-0.260007	-0.129685
O42	O	1.205170	-0.010007	0.120315
O43	O	1.455170	0.239993	0.370315
O44	O	1.705170	0.489993	0.620315
O45	O	0.835841	-0.270115	-0.248173
O46	O	1.085841	-0.020115	0.001827
O47	O	1.335841	0.229885	0.251827
O48	O	1.585841	0.479885	0.501827
O49	O	0.937654	-0.360183	-0.440119
O50	O	1.187654	-0.110183	-0.190119
O51	O	1.437654	0.139817	0.059881
O52	O	1.687654	0.389817	0.309881
O53	O	0.828437	-0.360211	-0.330890
O54	O	1.078437	-0.110211	-0.080890
O55	O	1.328437	0.139789	0.169110
O56	O	1.578437	0.389789	0.419110
O57	O	1.027811	-0.270066	-0.440163
O58	O	1.277811	-0.020066	-0.190163
O59	O	1.527811	0.229934	0.059837
O60	O	1.777811	0.479934	0.309837
O61	O	1.028408	-0.461354	-0.231797
O62	O	1.278408	-0.211354	0.018203
O63	O	1.528408	0.038646	0.268203
O64	O	1.778408	0.288646	0.518203
O65	O	0.937994	-0.469012	-0.321573
O66	O	1.187994	-0.219012	-0.071573
O67	O	1.437994	0.030988	0.178427
O68	O	1.687994	0.280988	0.428427
C69	C	0.806562	-0.316298	-0.290568
C70	C	1.056562	-0.066298	-0.040568
C71	C	1.306562	0.183702	0.209432
C72	C	1.556562	0.433702	0.459432
C73	C	0.728212	-0.319791	-0.293758
C74	C	0.978212	-0.069791	-0.043758
C75	C	1.228212	0.180209	0.206242
C76	C	1.478212	0.430209	0.456242
C77	C	0.982164	-0.490669	-0.275650
C78	C	1.232164	-0.240669	-0.025650
C79	C	1.482164	0.009331	0.224350
C80	C	1.732164	0.259331	0.474350
C81	C	0.979001	-0.568738	-0.272464
C82	C	1.229001	-0.318738	-0.022464
C83	C	1.479001	-0.068738	0.227536
C84	C	1.729001	0.181262	0.477536
C85	C	0.284886	-0.341881	-0.314013
C86	C	0.534886	-0.091881	-0.064013
C87	C	0.784886	0.158119	0.185987
C88	C	1.034886	0.408119	0.435987
C89	C	0.358504	-0.338604	-0.311002
C90	C	0.608504	-0.088604	-0.061002
C91	C	0.858504	0.161396	0.188998
C92	C	1.108504	0.411396	0.438998
C93	C	0.399145	-0.289988	-0.266508
C94	C	0.649145	-0.039988	-0.016508
C95	C	0.899145	0.210012	0.233492
C96	C	1.149145	0.460012	0.483492
C97	C	0.366164	-0.244652	-0.225017
C98	C	0.616164	0.005348	0.024983
C99	C	0.866164	0.255348	0.274983
C100	C	1.116164	0.505348	0.524983
C101	C	0.292547	-0.247933	-0.228024
C102	C	0.542547	0.002067	0.021976
C103	C	0.792547	0.252067	0.271976
C104	C	1.042547	0.502067	0.521976
C105	C	0.621614	-0.277735	-0.255274
C106	C	0.871614	-0.027735	-0.005274
C107	C	1.121614	0.222265	0.244726
C108	C	1.371614	0.472265	0.494726
C109	C	0.695236	-0.274456	-0.252271
C110	C	0.945236	-0.024456	-0.002271
C111	C	1.195236	0.225544	0.247729
C112	C	1.445236	0.475544	0.497729
C113	C	0.687571	-0.368410	-0.338256
C114	C	0.937571	-0.118410	-0.088256
C115	C	1.187571	0.131590	0.161744
C116	C	1.437571	0.381590	0.411744
C117	C	0.613953	-0.371683	-0.341263
C118	C	0.863953	-0.121683	-0.091263
C119	C	1.113953	0.128317	0.158737
C120	C	1.363953	0.378317	0.408737
C121	C	0.580978	-0.326349	-0.299769
C122	C	0.830978	-0.076349	-0.049769
C123	C	1.080978	0.173651	0.200231
C124	C	1.330978	0.423651	0.450231
C125	C	0.474395	-0.286636	-0.263432
C126	C	0.724395	-0.036636	-0.013432
C127	C	0.974395	0.213364	0.236568
C128	C	1.224395	0.463364	0.486568
C129	C	0.505729	-0.329705	-0.302842
C130	C	0.755729	-0.079705	-0.052842
C131	C	1.005729	0.170295	0.197158
C132	C	1.255729	0.420295	0.447158
C133	C	1.020565	-0.605347	-0.314094
C134	C	1.270565	-0.355347	-0.064094
C135	C	1.520565	-0.105347	0.185906
C136	C	1.770565	0.144653	0.435906
C137	C	1.017591	-0.678702	-0.311101
C138	C	1.267591	-0.428702	-0.061101
C139	C	1.517591	-0.178702	0.188899
C140	C	1.767591	0.071298	0.438899
C141	C	0.973056	-0.715447	-0.266473
C142	C	1.223056	-0.465447	-0.016473
C143	C	1.473056	-0.215447	0.233527
C144	C	1.723056	0.034553	0.483527
C145	C	0.931487	-0.678833	-0.224842
C146	C	1.181487	-0.428833	0.025158
C147	C	1.431487	-0.178833	0.275158
C148	C	1.681487	0.071167	0.525158
C149	C	0.934458	-0.605479	-0.227839
C150	C	1.184458	-0.355479	0.022161
C151	C	1.434458	-0.105479	0.272161
C152	C	1.684458	0.144521	0.522161
C153	C	0.961928	-0.936930	-0.255270
C154	C	1.211928	-0.686930	-0.005270
C155	C	1.461928	-0.436930	0.244730
C156	C	1.711928	-0.186930	0.494730
C157	C	0.958962	-1.010288	-0.252274
C158	C	1.208962	-0.760288	-0.002274
C159	C	1.458962	-0.510288	0.247726
C160	C	1.708962	-0.260288	0.497726
C161	C	1.045065	-1.010153	-0.338534
C162	C	1.295065	-0.760153	-0.088534
C163	C	1.545065	-0.510153	0.161466
C164	C	1.795065	-0.260153	0.411466
C165	C	1.048035	-0.936798	-0.341524
C166	C	1.298035	-0.686798	-0.091524
C167	C	1.548035	-0.436798	0.158476
C168	C	1.798035	-0.186798	0.408476
C169	C	1.006464	-0.900190	-0.299895
C170	C	1.256464	-0.650190	-0.049895
C171	C	1.506464	-0.400190	0.200105
C172	C	1.756464	-0.150190	0.450105
C173	C	0.970016	-0.790427	-0.263411
C174	C	1.220016	-0.540427	-0.013411
C175	C	1.470016	-0.290427	0.236589
C176	C	1.720016	-0.040427	0.486589
C177	C	1.009500	-0.825212	-0.302962
C178	C	1.259500	-0.575212	-0.052962
C179	C	1.509500	-0.325212	0.197038
C180	C	1.759500	-0.075212	0.447038
C181	C	1.173560	-0.300021	-0.275700
C182	C	1.423560	-0.050021	-0.025700
C183	C	1.673560	0.199979	0.224300
C184	C	1.923560	0.449979	0.474300
C185	C	1.251909	-0.296546	-0.272526
C186	C	1.501909	-0.046546	-0.022526
C187	C	1.751909	0.203454	0.227474
C188	C	2.001909	0.453454	0.477474
C189	C	0.981570	-0.316284	-0.466337
C190	C	1.231570	-0.066284	-0.216337
C191	C	1.481570	0.183716	0.033663
C192	C	1.731570	0.433716	0.283663
C193	C	0.978103	-0.319739	-0.544401
C194	C	1.228103	-0.069739	-0.294401
C195	C	1.478103	0.180261	-0.044401
C196	C	1.728103	0.430261	0.205599
C197	C	0.997292	-0.124969	-0.290690
C198	C	1.247292	0.125031	-0.040690
C199	C	1.497292	0.375031	0.209310
C200	C	1.747292	0.625031	0.459310
C201	C	1.000526	-0.046897	-0.293904
C202	C	1.250526	0.203103	-0.043904
C203	C	1.500526	0.453103	0.206096
C204	C	1.750526	0.703103	0.456096
C205	C	0.956149	-0.341676	-0.985912
C206	C	1.206149	-0.091676	-0.735912
C207	C	1.456149	0.158324	-0.485912
C208	C	1.706149	0.408324	-0.235912
C209	C	0.959403	-0.338419	-0.912563
C210	C	1.209403	-0.088419	-0.662563
C211	C	1.459403	0.161581	-0.412563
C212	C	1.709403	0.411581	-0.162563
C213	C	1.007974	-0.289875	-0.875915
C214	C	1.257974	-0.039875	-0.625915
C215	C	1.507974	0.210125	-0.375915
C216	C	1.757974	0.460125	-0.125915
C217	C	1.053288	-0.244580	-0.912620
C218	C	1.303288	0.005420	-0.662620
C219	C	1.553288	0.255420	-0.412620
C220	C	1.803288	0.505420	-0.162620
C221	C	1.050029	-0.247834	-0.985968
C222	C	1.300029	0.002166	-0.735968
C223	C	1.550029	0.252166	-0.485968
C224	C	1.800029	0.502166	-0.235968
C225	C	1.020158	-0.277699	-0.654454
C226	C	1.270158	-0.027699	-0.404454
C227	C	1.520158	0.222301	-0.154454
C228	C	1.770158	0.472301	0.095546
C229	C	1.023415	-0.274450	-0.581100
C230	C	1.273415	-0.024450	-0.331100
C231	C	1.523415	0.225550	-0.081100
C232	C	1.773415	0.475550	0.168900
C233	C	0.929529	-0.368288	-0.581049
C234	C	1.179529	-0.118288	-0.331049
C235	C	1.429529	0.131712	-0.081049
C236	C	1.679529	0.381712	0.168951
C237	C	0.926278	-0.371540	-0.654398
C238	C	1.176278	-0.121540	-0.404398
C239	C	1.426278	0.128460	-0.154398
C240	C	1.676278	0.378460	0.095602
C241	C	0.971589	-0.326243	-0.691097
C242	C	1.221589	-0.076243	-0.441097
C243	C	1.471589	0.173757	-0.191097
C244	C	1.721589	0.423757	0.058903
C245	C	1.011303	-0.286546	-0.800941
C246	C	1.261303	-0.036546	-0.550941
C247	C	1.511303	0.213454	-0.300941
C248	C	1.761303	0.463454	-0.050941
C249	C	0.968256	-0.329569	-0.766070
C250	C	1.218256	-0.079569	-0.516070
C251	C	1.468256	0.170431	-0.266070
C252	C	1.718256	0.420431	-0.016070
C253	C	0.997849	-0.300045	-0.100673
C254	C	1.247849	-0.050045	0.149327
C255	C	1.497849	0.199955	0.399327
C256	C	1.747849	0.449955	0.649327
C257	C	1.001460	-0.296386	-0.022612
C258	C	1.251460	-0.046386	0.227388
C259	C	1.501460	0.203614	0.477388
C260	C	1.751460	0.453614	0.727388
H261	H	0.251800	-0.381465	-0.350249
H262	H	0.501800	-0.131465	-0.100249
H263	H	0.751800	0.118535	0.149751
H264	H	1.001800	0.368535	0.399751
O265	O	0.461925	-0.382161	-0.350829
O266	O	0.711925	-0.132161	-0.100829
O267	O	0.961925	0.117839	0.149171
O268	O	1.211925	0.367839	0.399171
H269	H	0.428099	-0.353880	-0.389289
H270	H	0.678099	-0.103880	-0.139289
H271	H	0.928099	0.146120	0.110711
H272	H	1.178099	0.396120	0.360711
O273	O	1.089890	-1.049635	-0.383444
O274	O	1.339890	-0.799635	-0.133444
O275	O	1.589890	-0.549635	0.116556
O276	O	1.839890	-0.299635	0.366556
H277	H	1.080338	-1.106816	-0.373871
H278	H	1.330338	-0.856816	-0.123871
H279	H	1.580338	-0.606816	0.126129
H280	H	1.830338	-0.356816	0.376129
O281	O	0.723142	-0.417293	-0.383014
O282	O	0.973142	-0.167293	-0.133014
O283	O	1.223142	0.082707	0.116986
O284	O	1.473142	0.332707	0.366986
H285	H	0.756601	-0.450096	-0.348692
H286	H	1.006601	-0.200096	-0.098692
H287	H	1.256601	0.049904	0.151308
H288	H	1.506601	0.299904	0.401308
H289	H	0.728324	-0.234859	-0.216044
H290	H	0.978324	0.015141	0.033956
H291	H	1.228324	0.265141	0.283956
H292	H	1.478324	0.515141	0.533956
H293	H	0.594775	-0.240824	-0.221484
H294	H	0.844775	0.009176	0.028516
H295	H	1.094775	0.259176	0.278516
H296	H	1.344775	0.509176	0.528516
H297	H	0.399260	-0.205071	-0.188786
H298	H	0.649260	0.044929	0.061214
H299	H	0.899260	0.294929	0.311214
H300	H	1.149260	0.544929	0.561214
H301	H	0.265699	-0.211015	-0.194243
H302	H	0.515699	0.038985	0.055757
H303	H	0.765699	0.288985	0.305757
H304	H	1.015699	0.538985	0.555757
O305	O	0.921994	-0.830068	-0.215273
O306	O	1.171994	-0.580068	0.034727
O307	O	1.421994	-0.330068	0.284727
O308	O	1.671994	-0.080068	0.534727
H309	H	0.866693	-0.819034	-0.230084
H310	H	1.116693	-0.569034	0.019916
H311	H	1.366693	-0.319034	0.269916
H312	H	1.616693	-0.069034	0.519916
H313	H	0.928081	-0.907130	-0.221372
H314	H	1.178081	-0.657130	0.028628
H315	H	1.428081	-0.407130	0.278628
H316	H	1.678081	-0.157130	0.528628
H317	H	0.895223	-0.708756	-0.188508
H318	H	1.145223	-0.458756	0.061492
H319	H	1.395223	-0.208756	0.311492
H320	H	1.645223	0.041244	0.561492
H321	H	0.507493	-0.247052	-0.227205
H322	H	0.757493	0.002948	0.022795
H323	H	1.007493	0.252948	0.272795
H324	H	1.257493	0.502948	0.522795
H325	H	1.092832	-0.205052	-0.882775
H326	H	1.342832	0.044948	-0.632775
H327	H	1.592832	0.294948	-0.382775
H328	H	1.842832	0.544948	-0.132775
O329	O	0.873892	-0.423903	-0.693921
O330	O	1.123892	-0.173903	-0.443921
O331	O	1.373892	0.076097	-0.193921
O332	O	1.623892	0.326097	0.056079
H333	H	0.879245	-0.418563	-0.751089
H334	H	1.129245	-0.168563	-0.501089
H335	H	1.379245	0.081437	-0.251089
H336	H	1.629245	0.331437	-0.001089
O337	O	0.903755	-0.394031	-1.025435
O338	O	1.153755	-0.144031	-0.775435
O339	O	1.403755	0.105969	-0.525435
O340	O	1.653755	0.355969	-0.275435
H341	H	0.932332	-0.429859	-1.056098
H342	H	1.182332	-0.179859	-0.806098
H343	H	1.432332	0.070141	-0.556098
H344	H	1.682332	0.320141	-0.306098
O345	O	1.068606	-0.565716	-0.362221
O346	O	1.318606	-0.315716	-0.112221
O347	O	1.568606	-0.065716	0.137779
O348	O	1.818606	0.184284	0.387779
H349	H	1.097005	-0.603499	-0.390668
H350	H	1.347005	-0.353499	-0.140668
H351	H	1.597005	-0.103499	0.109332
H352	H	1.847005	0.146501	0.359332
O353	O	1.062421	-0.718190	-0.356000
O354	O	1.312421	-0.468190	-0.106000
O355	O	1.562421	-0.218190	0.144000
O356	O	1.812421	0.031810	0.394000
H357	H	1.093894	-0.680316	-0.387529
H358	H	1.343894	-0.430316	-0.137529
H359	H	1.593894	-0.180316	0.112471
H360	H	1.843894	0.069684	0.362471
H361	H	1.084299	-0.906882	-0.377863
H362	H	1.334299	-0.656882	-0.127863
H363	H	1.584299	-0.406882	0.122137
H364	H	1.834299	-0.156882	0.372137
H365	H	0.922693	-1.040204	-0.215933
H366	H	1.172693	-0.790204	0.034067
H367	H	1.422693	-0.540204	0.284067
H368	H	1.672693	-0.290204	0.534067
O369	O	0.889636	-0.565988	-0.182933
O370	O	1.139636	-0.315988	0.067067
O371	O	1.389636	-0.065988	0.317067
O372	O	1.639636	0.184012	0.567067
H373	H	0.858174	-0.603860	-0.151391
H374	H	1.108174	-0.353860	0.098609
H375	H	1.358174	-0.103860	0.348609
H376	H	1.608174	0.146140	0.598609
O377	O	1.057541	-0.785586	-0.351088
O378	O	1.307541	-0.535586	-0.101088
O379	O	1.557541	-0.285586	0.148912
O380	O	1.807541	-0.035586	0.398912
H381	H	1.025737	-0.755157	-0.389439
H382	H	1.275737	-0.505157	-0.139439
H383	H	1.525737	-0.255157	0.110561
H384	H	1.775737	-0.005157	0.360561
H385	H	0.922513	-0.375305	-0.882685
H386	H	1.172513	-0.125305	-0.632685
H387	H	1.422513	0.124695	-0.382685
H388	H	1.672513	0.374695	-0.132685
H389	H	0.892639	-0.405165	-0.551161
H390	H	1.142639	-0.155165	-0.301161
H391	H	1.392639	0.094835	-0.051161
H392	H	1.642639	0.344835	0.198839
H393	H	1.062967	-0.234916	-0.551264
H394	H	1.312967	0.015084	-0.301264
H395	H	1.562967	0.265084	-0.051264
H396	H	1.812967	0.515084	0.198736
O397	O	1.069034	-0.228853	-0.694032
O398	O	1.319034	0.021147	-0.444032
O399	O	1.569034	0.271147	-0.194032
O400	O	1.819034	0.521147	0.055968
H401	H	1.103360	-0.194559	-0.656223
H402	H	1.353360	0.055441	-0.406223
H403	H	1.603360	0.305441	-0.156223
H404	H	1.853360	0.555441	0.093777
H405	H	1.086924	-0.210952	-1.015848
H406	H	1.336924	0.039048	-0.765848
H407	H	1.586924	0.289048	-0.515848
H408	H	1.836924	0.539048	-0.265848
O409	O	0.915866	-0.381921	-0.805596
O410	O	1.165866	-0.131921	-0.555596
O411	O	1.415866	0.118079	-0.305596
O412	O	1.665866	0.368079	-0.055596
H413	H	0.926291	-0.435890	-0.788757
H414	H	1.176291	-0.185890	-0.538757
H415	H	1.426291	0.064110	-0.288757
H416	H	1.676291	0.314110	-0.038757
O417	O	0.394074	-0.387494	-0.355755
O418	O	0.644074	-0.137494	-0.105755
O419	O	0.894074	0.112506	0.144245
O420	O	1.144074	0.362506	0.394245
H421	H	0.353446	-0.421842	-0.387208
H422	H	0.603446	-0.171842	-0.137208
H423	H	0.853446	0.078158	0.112792
H424	H	1.103446	0.328158	0.362792
O425	O	0.570118	-0.424265	-0.389092
O426	O	0.820118	-0.174265	-0.139092
O427	O	1.070118	0.075735	0.110908
O428	O	1.320118	0.325735	0.360908
H429	H	0.605418	-0.455296	-0.417373
H430	H	0.855418	-0.205296	-0.167373
H431	H	1.105418	0.044704	0.082627
H432	H	1.355418	0.294704	0.332627
O433	O	1.063698	-0.234199	-0.761408
O434	O	1.313698	0.015801	-0.511408
O435	O	1.563698	0.265801	-0.261408
O436	O	1.813698	0.515801	-0.011408
H437	H	1.035118	-0.198382	-0.730736
H438	H	1.285118	0.051618	-0.480736
H439	H	1.535118	0.301618	-0.230736
H440	H	1.785118	0.551618	0.019264
