data_functionalizedCrystal
_audit_creation_method	'MofGen! by Chris Wilmer'
_symmetry_space_group_name_H-M	'P1'
_symmetry_Int_Tables_number	1
_symmetry_cell_setting	triclinic
loop_
_symmetry_equiv_pos_as_xyz
  x,y,z
_cell_length_a	6.394989
_cell_length_b	16.992695
_cell_length_c	16.053802
_cell_angle_alpha	87.258926
_cell_angle_beta	92.655437
_cell_angle_gamma	88.582967
loop_
_atom_site_label
_atom_site_type_symbol
_atom_site_fract_x
_atom_site_fract_y
_atom_site_fract_z
O1	O	-2.801246	-0.125449	-0.069422
O2	O	-2.301246	0.374551	0.430578
O3	O	-2.194200	-0.131931	-0.069425
O4	O	-1.694200	0.368069	0.430575
O5	O	-2.495289	-0.014523	-0.069417
O6	O	-1.995289	0.485477	0.430583
O7	O	-2.500158	-0.242856	-0.069430
O8	O	-2.000158	0.257144	0.430570
O9	O	-2.478712	-0.020958	0.069441
O10	O	-1.978712	0.479042	0.569441
O11	O	-2.177623	-0.138366	0.069433
O12	O	-1.677623	0.361634	0.569433
O13	O	-2.784669	-0.131884	0.069437
O14	O	-2.284669	0.368116	0.569437
Zn15	Zn	-2.478514	-0.136147	0.091482
Zn16	Zn	-1.978514	0.363853	0.591482
Zn17	Zn	-2.500355	-0.127668	-0.091470
Zn18	Zn	-2.000355	0.372332	0.408530
O19	O	-2.483580	-0.249291	0.069428
O20	O	-1.983580	0.250709	0.569428
C21	C	-2.480739	0.011533	0.000012
C22	C	-1.980739	0.511533	0.500012
C23	C	-2.462058	0.098762	0.000012
C24	C	-1.962058	0.598762	0.500012
C25	C	-2.498130	-0.275348	-0.000003
C26	C	-1.998130	0.224652	0.499997
C27	C	-2.516812	-0.362577	-0.000008
C28	C	-2.016812	0.137423	0.499992
N29	N	-2.463623	-0.141933	0.216341
N30	N	-1.963623	0.358067	0.716341
C31	C	-2.107876	-0.133867	0.000008
C32	C	-1.607876	0.366133	0.500008
C33	C	-1.870987	-0.129950	0.000012
C34	C	-1.370987	0.370050	0.500012
N35	N	-2.515262	-0.121876	-0.216330
N36	N	-2.015262	0.378124	0.283670
C37	C	-2.642306	0.147221	0.000014
C38	C	-2.142306	0.647221	0.500014
C39	C	-2.624741	0.229182	0.000006
C40	C	-2.124741	0.729182	0.500006
C41	C	-2.426927	0.262682	0.000002
C42	C	-1.926927	0.762682	0.500002
C43	C	-2.246666	0.214216	-0.000003
C44	C	-1.746666	0.714216	0.499997
C45	C	-2.264233	0.132257	-0.000001
C46	C	-1.764233	0.632257	0.499999
C47	C	-2.354118	0.506999	-0.000010
C48	C	-1.854118	1.006999	0.499990
C49	C	-2.336564	0.588964	-0.000010
C50	C	-1.836564	1.088964	0.499990
C51	C	-2.714642	0.603925	-0.000003
C52	C	-2.214642	1.103925	0.499997
C53	C	-2.732191	0.521963	0.000004
C54	C	-2.232191	1.021963	0.500004
C55	C	-2.551931	0.473505	-0.000005
C56	C	-2.051931	0.973505	0.499995
N57	N	-2.408968	0.346458	-0.000004
N58	N	-1.908968	0.846458	0.499996
N59	N	-2.569892	0.389731	-0.000005
N60	N	-2.069892	0.889731	0.499995
C61	C	-2.591790	-0.091994	0.260039
C62	C	-2.091790	0.408006	0.760039
C63	C	-2.581394	-0.096049	0.347445
C64	C	-2.081394	0.403951	0.847445
C65	C	-2.442841	-0.150047	0.391153
C66	C	-1.942841	0.349953	0.891153
C67	C	-2.314660	-0.199987	0.347449
C68	C	-1.814660	0.300013	0.847449
C69	C	-2.325047	-0.195928	0.260044
C70	C	-1.825047	0.304072	0.760044
C71	C	-2.397468	-0.167757	0.652561
C72	C	-1.897468	0.332243	1.152561
C73	C	-2.387095	-0.171814	0.739972
C74	C	-1.887095	0.328186	1.239972
C75	C	-2.653827	-0.067875	0.739962
C76	C	-2.153827	0.432125	1.239962
C77	C	-2.664210	-0.063823	0.652556
C78	C	-2.164210	0.436177	1.152556
C79	C	-2.536022	-0.113761	0.608860
C80	C	-2.036022	0.386239	1.108860
N81	N	-2.432216	-0.154195	0.480496
N82	N	-1.932216	0.345805	0.980496
N83	N	-2.546637	-0.109608	0.519518
N84	N	-2.046637	0.390392	1.019518
H85	H	-2.803387	0.119953	0.000022
H86	H	-2.303387	0.619953	0.500022
H87	H	-2.861400	0.643388	0.000003
H88	H	-2.361400	1.143388	0.500003
Cl89	Cl	-2.814961	-0.005097	0.794898
Cl90	Cl	-2.314961	0.494903	1.294898
Cl91	Cl	-2.236329	-0.230537	0.597635
Cl92	Cl	-1.736329	0.269463	1.097635
Cl93	Cl	-2.980886	0.479857	-0.000018
Cl94	Cl	-2.480886	0.979857	0.499982
H95	H	-2.085601	0.241498	-0.000011
H96	H	-1.585601	0.741498	0.499989
H97	H	-2.207336	0.467554	-0.000017
H98	H	-1.707336	0.967554	0.499983
H99	H	-2.771519	0.268635	0.000009
H100	H	-2.271519	0.768635	0.500009
Cl101	Cl	-2.087863	0.631076	-0.000010
Cl102	Cl	-1.587863	1.131076	0.499990
H103	H	-2.777031	-0.019854	0.616971
H104	H	-2.277031	0.480146	1.116971
H105	H	-2.201836	-0.243951	0.383041
H106	H	-1.701836	0.256049	0.883041
Cl107	Cl	-2.163907	-0.258708	0.205111
Cl108	Cl	-1.663907	0.241292	0.705111
Cl109	Cl	-2.037626	0.071337	-0.000006
Cl110	Cl	-1.537626	0.571337	0.499994
H111	H	-2.704623	-0.048027	0.224458
H112	H	-2.204623	0.451973	0.724458
Cl113	Cl	-2.742518	-0.033268	0.402381
Cl114	Cl	-2.242518	0.466732	0.902381
Cl115	Cl	-2.212900	-0.239705	0.794913
Cl116	Cl	-1.712900	0.260295	1.294913
