data_functionalizedCrystal
_audit_creation_method	'MofGen! by Chris Wilmer'
_symmetry_space_group_name_H-M	'P1'
_symmetry_Int_Tables_number	1
_symmetry_cell_setting	triclinic
loop_
_symmetry_equiv_pos_as_xyz
  x,y,z
_cell_length_a	10.654550
_cell_length_b	16.109301
_cell_length_c	14.586319
_cell_angle_alpha	90.005214
_cell_angle_beta	90.007032
_cell_angle_gamma	83.973192
loop_
_atom_site_label
_atom_site_type_symbol
_atom_site_fract_x
_atom_site_fract_y
_atom_site_fract_z
O1	O	-1.666255	-0.116773	-0.076319
O2	O	-1.166255	0.383227	0.423681
O3	O	-1.300626	-0.127898	-0.076305
O4	O	-0.800626	0.372102	0.423695
O5	O	-1.493485	-0.001364	-0.076303
O6	O	-0.993485	0.498636	0.423697
O7	O	-1.473397	-0.243307	-0.076321
O8	O	-0.973397	0.256693	0.423679
O9	O	-1.493472	-0.001362	0.076178
O10	O	-0.993472	0.498638	0.576178
O11	O	-1.300613	-0.127896	0.076176
O12	O	-0.800613	0.372104	0.576176
O13	O	-1.666242	-0.116771	0.076162
O14	O	-1.166242	0.383229	0.576162
Cu15	Cu	-1.483426	-0.122333	0.090092
Cu16	Cu	-0.983426	0.377667	0.590092
Cu17	Cu	-1.483442	-0.122336	-0.090234
Cu18	Cu	-0.983442	0.377664	0.409766
O19	O	-1.473383	-0.243305	0.076160
O20	O	-0.973383	0.256695	0.576160
C21	C	-1.253832	-0.127080	-0.000062
C22	C	-0.753832	0.372920	0.499938
C23	C	-1.114422	-0.124636	-0.000056
C24	C	-0.614422	0.375364	0.499944
C25	C	-1.492665	0.029616	-0.000062
C26	C	-0.992665	0.529616	0.499938
C27	C	-1.490225	0.121926	-0.000061
C28	C	-0.990225	0.621926	0.499939
C29	C	-1.713036	-0.117589	-0.000083
C30	C	-1.213036	0.382411	0.499917
C31	C	-1.852446	-0.120033	-0.000094
C32	C	-1.352446	0.379967	0.499906
C33	C	-1.033926	-0.199138	-0.000075
C34	C	-0.533926	0.300862	0.499925
C35	C	-0.902936	-0.196836	-0.000091
C36	C	-0.402936	0.303164	0.499909
C37	C	-0.932952	-0.045526	-0.000073
C38	C	-0.432952	0.454474	0.499927
C39	C	-1.063939	-0.047828	-0.000050
C40	C	-0.563939	0.452172	0.499950
C41	C	-1.084409	-0.275946	-0.000081
C42	C	-0.584409	0.224054	0.499919
C43	C	-1.003911	-0.350453	-0.000101
C44	C	-0.503911	0.149547	0.499899
C45	C	-0.872921	-0.348152	-0.000117
C46	C	-0.372921	0.151848	0.499883
C47	C	-0.822430	-0.271343	-0.000113
C48	C	-0.322430	0.228657	0.499887
C49	C	-1.474204	-0.274286	-0.000083
C50	C	-0.974204	0.225714	0.499917
C51	C	-1.476643	-0.366595	-0.000090
C52	C	-0.976643	0.133405	0.499910
N53	N	-1.483424	-0.122331	0.216923
N54	N	-0.983424	0.377669	0.716923
C55	C	-1.598991	0.343552	-0.000079
C56	C	-1.098991	0.843552	0.499921
C57	C	-1.596689	0.430286	-0.000087
C58	C	-1.096689	0.930286	0.499913
C59	C	-1.367868	0.411772	-0.000074
C60	C	-0.867868	0.911772	0.499926
C61	C	-1.370172	0.325040	-0.000073
C62	C	-0.870172	0.825040	0.499927
C63	C	-1.485737	0.290932	-0.000071
C64	C	-0.985737	0.790932	0.499929
C65	C	-1.481131	0.464399	-0.000080
C66	C	-0.981131	0.964399	0.499920
C67	C	-1.478634	0.558440	-0.000088
C68	C	-0.978634	1.058440	0.499912
C69	C	-1.488234	0.196885	-0.000065
C70	C	-0.988234	0.696885	0.499935
N71	N	-1.483454	-0.122331	-0.217066
N72	N	-0.983454	0.377669	0.282934
C73	C	-1.568850	-0.066321	0.451931
C74	C	-1.068850	0.433679	0.951931
C75	C	-1.568854	-0.066319	0.547912
C76	C	-1.068854	0.433681	1.047912
C77	C	-1.398019	-0.178344	0.547920
C78	C	-0.898019	0.321656	1.047920
C79	C	-1.398010	-0.178341	0.451940
C80	C	-0.898010	0.321659	0.951940
C81	C	-1.483433	-0.122331	0.403948
C82	C	-0.983433	0.377669	0.903948
C83	C	-1.483445	-0.122332	0.595909
C84	C	-0.983445	0.377668	1.095909
C85	C	-1.483448	-0.122330	0.699976
C86	C	-0.983448	0.377670	1.199976
C87	C	-1.483428	-0.122331	0.299874
C88	C	-0.983428	0.377669	0.799874
H89	H	-1.191065	-0.277828	-0.000073
H90	H	-0.691065	0.222172	0.499927
H91	H	-1.638405	-0.020713	0.412858
H92	H	-1.138405	0.479287	0.912858
F93	F	-1.244883	0.448080	-0.000077
F94	F	-0.744883	0.948080	0.499923
H95	H	-1.638407	-0.020710	0.586977
H96	H	-1.138407	0.479290	1.086977
H97	H	-1.328471	-0.223948	0.587005
H98	H	-0.828471	0.276052	1.087005
H99	H	-1.328447	-0.223952	0.412870
H100	H	-0.828447	0.276048	0.912870
H101	H	-0.807383	-0.408819	-0.000124
H102	H	-0.307383	0.091181	0.499876
F103	F	-1.057650	-0.432194	-0.000097
F104	F	-0.557650	0.067806	0.499903
F105	F	-0.879210	0.036214	-0.000071
F106	F	-0.379210	0.536214	0.499929
F107	F	-0.683016	-0.268898	-0.000117
F108	F	-0.183016	0.231102	0.499883
H109	H	-1.688912	0.473126	-0.000095
H110	H	-1.188912	0.973126	0.499905
H111	H	-1.129482	0.012837	-0.000038
H112	H	-0.629482	0.512837	0.499962
F113	F	-1.721985	0.307255	-0.000078
F114	F	-1.221985	0.807255	0.499922
H115	H	-1.277941	0.282194	-0.000069
H116	H	-0.777941	0.782194	0.499931
