data_functionalizedCrystal
_audit_creation_method	'MofGen! by Chris Wilmer'
_symmetry_space_group_name_H-M	'P1'
_symmetry_Int_Tables_number	1
_symmetry_cell_setting	triclinic
loop_
_symmetry_equiv_pos_as_xyz
  x,y,z
_cell_length_a	12.759401
_cell_length_b	17.640280
_cell_length_c	12.759393
_cell_angle_alpha	78.768122
_cell_angle_beta	89.981504
_cell_angle_gamma	78.801088
loop_
_atom_site_label
_atom_site_type_symbol
_atom_site_fract_x
_atom_site_fract_y
_atom_site_fract_z
Zn1	Zn	1.690815	-0.314620	-0.509515
Zn2	Zn	1.726240	-0.446817	-0.298344
Zn3	Zn	1.515128	-0.314662	-0.333843
Zn4	Zn	1.550620	-0.446756	-0.474002
O5	O	1.620701	-0.380714	-0.403926
O6	O	1.842537	-0.332165	-0.481509
O7	O	1.698207	-0.429329	-0.156021
O8	O	1.508755	-0.204049	-0.386865
O9	O	1.868564	-0.429289	-0.326362
O10	O	1.637831	-0.204019	-0.515931
O11	O	1.543105	-0.332235	-0.182102
O12	O	1.372813	-0.332176	-0.352430
O13	O	1.569245	-0.429185	-0.625745
O14	O	1.398888	-0.429226	-0.455404
O15	O	1.672246	-0.332106	-0.651837
O16	O	1.732622	-0.557416	-0.291927
O17	O	1.603595	-0.557371	-0.420982
C18	C	1.347729	-0.380699	-0.403916
C19	C	1.230956	-0.380712	-0.403931
C20	C	1.189721	-0.431327	-0.457417
C21	C	1.079999	-0.431337	-0.457425
C22	C	1.052758	-0.330115	-0.350454
C23	C	1.162476	-0.330102	-0.350453
C24	C	1.258201	-0.481937	-0.510895
C25	C	1.216967	-0.532556	-0.564384
C26	C	1.107245	-0.532566	-0.564393
C27	C	1.038758	-0.481957	-0.510913
C28	C	1.675832	-0.586073	-0.348771
C29	C	1.699514	-0.673926	-0.325211
C30	C	1.441225	-0.962886	-0.583293
C31	C	1.463480	-1.045438	-0.561121
C32	C	1.597919	-1.045419	-0.426872
C33	C	1.575680	-0.962866	-0.449037
C34	C	1.497331	-0.921606	-0.527247
C35	C	1.631785	-0.921585	-0.392991
C36	C	1.609543	-0.839039	-0.415150
C37	C	1.531196	-0.797773	-0.493355
C38	C	1.475089	-0.839060	-0.549406
C39	C	1.710129	-0.962847	-0.314775
C40	C	1.766234	-0.921566	-0.258729
C41	C	1.743998	-0.839018	-0.280893
C42	C	1.665650	-0.797753	-0.359098
C43	C	1.800105	-0.797732	-0.224841
C44	C	1.777863	-0.715186	-0.247000
C45	C	1.643408	-0.715207	-0.381257
C46	C	1.894738	-0.380729	-0.403937
C47	C	2.011516	-0.380736	-0.403942
C48	C	1.620753	-0.380634	-0.677981
C49	C	1.620775	-0.380600	-0.794767
C50	C	1.565383	-0.174553	-0.459319
C51	C	1.541809	-0.086700	-0.482925
C52	C	1.674416	-0.330046	-0.863218
C53	C	1.674433	-0.330017	-0.972949
C54	C	1.567168	-0.431104	-0.945768
C55	C	1.567145	-0.431128	-0.836040
C56	C	1.728046	-0.279518	-0.821945
C57	C	1.781692	-0.228960	-0.890397
C58	C	1.781709	-0.228932	-1.000128
C59	C	1.728080	-0.279461	-1.041408
C60	C	1.620694	-0.380736	-0.130953
C61	C	1.620815	-0.380548	-0.014227
H62	H	1.347543	-0.481936	-0.510892
C63	C	1.886276	-0.843120	-0.138808
H64	H	1.916500	-0.806712	-0.108596
H65	H	1.940694	-0.875284	-0.170397
H66	H	1.854784	-0.875358	-0.084337
H67	H	1.377433	-0.929291	-0.646988
C68	C	1.061883	-0.588238	-0.623231
H69	H	0.986729	-0.580994	-0.615585
H70	H	1.094118	-0.641329	-0.593477
H71	H	1.076803	-0.576728	-0.696941
H72	H	1.523446	-0.472282	-0.780308
H73	H	1.728040	-0.279537	-0.732597
C74	C	1.292297	-0.588224	-0.623203
H75	H	1.363550	-0.580976	-0.615529
H76	H	1.271260	-0.576727	-0.696911
H77	H	1.288565	-0.641319	-0.593438
H78	H	1.825346	-0.187816	-0.856780
C79	C	1.840720	-0.173328	-1.075425
H80	H	1.833050	-0.180544	-1.146689
H81	H	1.914411	-0.184913	-1.054330
H82	H	1.811096	-0.120219	-1.071720
C83	C	1.728090	-0.279428	-1.162112
H84	H	1.688467	-0.316758	-1.176890
H85	H	1.799559	-0.293091	-1.183272
H86	H	1.696230	-0.228410	-1.200638
C87	C	1.207845	-0.274430	-0.291620
H88	H	1.282995	-0.281666	-0.299289
H89	H	1.192932	-0.285933	-0.217914
H90	H	1.175607	-0.221336	-0.321382
H91	H	1.523505	-0.472242	-0.979388
H92	H	1.411297	-0.805464	-0.613101
C93	C	0.918062	-0.481951	-0.510951
H94	H	0.903309	-0.519341	-0.550470
H95	H	0.879573	-0.430959	-0.542932
H96	H	0.896849	-0.495563	-0.439472
H97	H	1.830023	-0.955171	-0.195047
H98	H	1.823549	-0.681575	-0.201360
H99	H	1.417799	-1.079045	-0.606779
C100	C	0.977427	-0.274456	-0.291624
H101	H	0.906179	-0.281718	-0.299278
H102	H	0.981149	-0.221360	-0.321373
H103	H	0.998475	-0.285964	-0.217913
H104	H	1.579616	-0.681611	-0.444952
H105	H	1.513080	-0.730559	-0.511388
H106	H	1.661708	-1.079024	-0.363190
H107	H	1.728238	-1.030061	-0.296739
