data_functionalizedCrystal
_audit_creation_method	'MofGen! by Chris Wilmer'
_symmetry_space_group_name_H-M	'P1'
_symmetry_Int_Tables_number	1
_symmetry_cell_setting	triclinic
loop_
_symmetry_equiv_pos_as_xyz
  x,y,z
_cell_length_a	16.109301
_cell_length_b	15.186229
_cell_length_c	16.109304
_cell_angle_alpha	89.999066
_cell_angle_beta	83.462059
_cell_angle_gamma	89.999362
loop_
_atom_site_label
_atom_site_type_symbol
_atom_site_fract_x
_atom_site_fract_y
_atom_site_fract_z
O1	O	1.103132	-0.073167	0.106866
O2	O	0.861070	-0.073181	0.120165
O3	O	0.988749	-0.073174	-0.007515
O4	O	0.975452	-0.073174	0.234546
O5	O	0.988741	0.073283	-0.007517
O6	O	0.861061	0.073277	0.120163
O7	O	1.103123	0.073290	0.106864
Zn8	Zn	0.982091	0.096537	0.113513
Zn9	Zn	0.982102	-0.096427	0.113516
O10	O	0.975444	0.073283	0.234545
C11	C	0.830091	0.000046	0.119626
C12	C	0.737795	0.000041	0.118010
N13	N	0.982089	0.228229	0.113511
N14	N	0.982110	-0.228120	0.113511
C15	C	0.515524	0.000051	0.190018
C16	C	0.428803	0.000057	0.188494
C17	C	0.448676	0.000053	0.037005
C18	C	0.535395	0.000054	0.038530
C19	C	0.568816	0.000048	0.115039
C20	C	0.395377	0.000053	0.111990
C21	C	0.301351	0.000059	0.110337
C22	C	0.662848	0.000044	0.116693
C23	C	1.134102	0.000061	0.107404
C24	C	1.226398	0.000061	0.109019
C25	C	0.988206	0.000052	-0.038491
C26	C	0.986590	0.000046	-0.130786
C27	C	1.038645	0.453955	0.056993
C28	C	1.038648	0.546145	0.056991
C29	C	0.925549	0.546148	0.170032
C30	C	0.925543	0.453960	0.170029
C31	C	0.982096	0.407866	0.113511
C32	C	0.982104	0.592243	0.113512
C33	C	0.982107	0.692200	0.113510
C34	C	0.982092	0.307903	0.113511
C35	C	0.982861	-0.079784	-0.343123
C36	C	0.981335	-0.079784	-0.429843
C37	C	0.981330	0.079892	-0.429842
C38	C	0.982850	0.079890	-0.343122
C39	C	0.983620	0.000050	-0.299766
C40	C	0.980573	0.000052	-0.473205
C41	C	0.978919	0.000053	-0.567231
C42	C	0.985273	0.000048	-0.205734
C43	C	0.975987	0.000055	0.265520
C44	C	0.977603	0.000055	0.357816
H45	H	0.542732	0.000053	0.252316
O46	O	0.980628	0.157367	-0.472095
C47	C	0.978249	0.228137	-0.605685
C48	C	0.979055	0.140333	-0.557942
H49	H	0.976960	0.214396	-0.675098
H50	H	1.036711	0.267515	-0.596319
H51	H	0.920414	0.267510	-0.580965
H52	H	1.036852	0.100888	-0.582631
H53	H	0.920555	0.101022	-0.567306
O54	O	0.983474	0.157502	-0.301076
C55	C	0.911922	0.293947	-0.265054
C56	C	0.911125	0.206099	-0.312725
H57	H	0.853426	0.333254	-0.274441
H58	H	0.969732	0.333382	-0.289736
H59	H	0.913178	0.280206	-0.195635
H60	H	0.909840	0.219760	-0.382151
H61	H	0.853321	0.166691	-0.287975
H62	H	0.879506	0.583687	0.216049
H63	H	0.421454	0.000063	-0.025285
O64	O	0.587051	0.000011	-0.034386
C65	C	0.597618	0.000061	-0.184803
C66	C	0.539024	0.000084	-0.102294
H67	H	0.558812	0.000139	-0.239728
H68	H	0.638701	-0.061244	-0.187930
H69	H	0.638729	0.061340	-0.187829
H70	H	0.497860	-0.061153	-0.099213
H71	H	0.497997	0.061430	-0.099201
O72	O	0.377154	0.000018	0.261406
C73	C	0.366600	0.000069	0.411822
C74	C	0.425188	0.000092	0.329309
H75	H	0.405412	0.000148	0.466743
H76	H	0.325518	-0.061235	0.414955
H77	H	0.325489	0.061349	0.414850
H78	H	0.466352	-0.061146	0.326226
H79	H	0.466214	0.061437	0.326210
H80	H	1.084693	0.416427	0.010972
H81	H	1.084694	0.583668	0.010969
O82	O	0.870576	0.409320	0.225015
C83	C	0.758364	0.419043	0.337102
C84	C	0.820579	0.469708	0.274896
H85	H	0.717913	0.467845	0.377435
H86	H	0.794200	0.375900	0.378701
H87	H	0.716879	0.375866	0.301173
H88	H	0.862079	0.512933	0.310757
H89	H	0.784691	0.512796	0.233298
H90	H	0.983485	-0.144796	-0.307824
O91	O	0.980638	-0.157413	-0.471836
C92	C	0.980754	-0.315790	-0.462673
C93	C	0.981567	-0.227934	-0.415016
H94	H	0.981487	-0.372829	-0.416753
H95	H	1.038204	-0.319841	-0.510880
H96	H	0.921904	-0.319735	-0.495668
H97	H	1.040379	-0.223930	-0.381971
H98	H	0.924079	-0.223920	-0.366857
