data_functionalizedCrystal
_audit_creation_method	'MofGen! by Chris Wilmer'
_symmetry_space_group_name_H-M	'P1'
_symmetry_Int_Tables_number	1
_symmetry_cell_setting	triclinic
loop_
_symmetry_equiv_pos_as_xyz
  x,y,z
_cell_length_a	16.959455
_cell_length_b	16.959454
_cell_length_c	12.759393
_cell_angle_alpha	89.969286
_cell_angle_beta	89.973386
_cell_angle_gamma	90.017095
loop_
_atom_site_label
_atom_site_type_symbol
_atom_site_fract_x
_atom_site_fract_y
_atom_site_fract_z
Zn1	Zn	1.208433	-0.314698	-0.594215
Zn2	Zn	1.708433	0.185302	-0.094215
Zn3	Zn	1.208341	-0.446899	-0.418538
Zn4	Zn	1.708341	0.053101	0.081462
Zn5	Zn	1.076247	-0.314732	-0.418530
Zn6	Zn	1.576247	0.185268	0.081470
Zn7	Zn	1.076226	-0.446831	-0.594154
Zn8	Zn	1.576226	0.053169	-0.094154
O9	O	1.142311	-0.380790	-0.506359
O10	O	1.642311	0.119210	-0.006359
O11	O	1.319031	-0.332249	-0.570940
O12	O	1.819031	0.167751	-0.070940
O13	O	1.190788	-0.429410	-0.271516
O14	O	1.690788	0.070590	0.228484
O15	O	1.093829	-0.204116	-0.441857
O16	O	1.593829	0.295884	0.058143
O17	O	1.318964	-0.429377	-0.441871
O18	O	1.818964	0.070623	0.058129
O19	O	1.190945	-0.204091	-0.570932
O20	O	1.690945	0.295909	-0.070932
O21	O	1.093739	-0.332307	-0.271510
O22	O	1.593739	0.167693	0.228490
O23	O	0.965633	-0.332241	-0.441798
O24	O	1.465633	0.167759	0.058202
O25	O	1.093793	-0.429261	-0.741184
O26	O	1.593793	0.070739	-0.241184
O27	O	0.965618	-0.429294	-0.570829
O28	O	1.465618	0.070706	-0.070829
O29	O	1.190925	-0.332183	-0.741228
O30	O	1.690925	0.167817	-0.241228
O31	O	1.190768	-0.557501	-0.441812
O32	O	1.690768	-0.057501	0.058188
O33	O	1.093704	-0.557451	-0.570836
O34	O	1.593704	-0.057451	-0.070836
C35	C	0.936945	-0.380764	-0.506306
C36	C	1.436945	0.119236	-0.006306
C37	C	0.849088	-0.380772	-0.506309
C38	C	1.349088	0.119228	-0.006309
C39	C	0.477567	-0.431314	-0.439119
C40	C	0.977567	0.068686	0.060881
C41	C	0.477659	-0.330331	-0.573728
C42	C	0.977659	0.169669	-0.073728
C43	C	0.560205	-0.330318	-0.573702
C44	C	1.060205	0.169682	-0.073702
C45	C	0.601436	-0.380805	-0.506385
C46	C	1.101436	0.119195	-0.006385
C47	C	0.560121	-0.431305	-0.439093
C48	C	1.060121	0.068695	0.060907
C49	C	0.601526	-0.279825	-0.641000
C50	C	1.101526	0.220175	-0.141000
C51	C	0.684077	-0.279811	-0.640978
C52	C	1.184077	0.220189	-0.140978
C53	C	0.725309	-0.330294	-0.573655
C54	C	1.225309	0.169706	-0.073655
C55	C	0.683989	-0.380795	-0.506359
C56	C	1.183989	0.119205	-0.006359
C57	C	0.725220	-0.431282	-0.439042
C58	C	1.225220	0.068718	0.060958
C59	C	0.683901	-0.481780	-0.371741
C60	C	1.183901	0.018220	0.128259
C61	C	0.601353	-0.481788	-0.371770
C62	C	1.101353	0.018212	0.128230
C63	C	0.807858	-0.330285	-0.573626
C64	C	1.307858	0.169715	-0.073626
C65	C	0.807774	-0.431272	-0.439017
C66	C	1.307774	0.068728	0.060983
C67	C	1.142245	-0.586156	-0.506341
C68	C	1.642245	-0.086156	-0.006341
C69	C	1.142289	-0.674013	-0.506369
C70	C	1.642289	-0.174013	-0.006369
C71	C	1.091843	-1.045492	-0.573535
C72	C	1.591843	-0.545492	-0.073535
C73	C	1.193000	-1.045484	-0.439290
C74	C	1.693000	-0.545484	0.060710
C75	C	1.192972	-0.962939	-0.439281
C76	C	1.692972	-0.462939	0.060719
C77	C	1.142378	-0.921666	-0.506398
C78	C	1.642378	-0.421666	-0.006398
C79	C	1.091812	-0.962939	-0.573525
C80	C	1.591812	-0.462939	-0.073525
C81	C	1.243531	-0.921659	-0.372147
C82	C	1.743531	-0.421659	0.127853
C83	C	1.243505	-0.839108	-0.372134
C84	C	1.743505	-0.339108	0.127866
C85	C	1.192915	-0.797834	-0.439258
C86	C	1.692915	-0.297834	0.060742
C87	C	1.142348	-0.839112	-0.506388
C88	C	1.642348	-0.339112	-0.006388
C89	C	1.091754	-0.797839	-0.573506
C90	C	1.591754	-0.297839	-0.073506
C91	C	1.041190	-0.839116	-0.640643
C92	C	1.541190	-0.339116	-0.140643
C93	C	1.041222	-0.921664	-0.640649
C94	C	1.541222	-0.421664	-0.140649
C95	C	1.192883	-0.715286	-0.439251
C96	C	1.692883	-0.215286	0.060749
C97	C	1.091723	-0.715286	-0.573496
C98	C	1.591723	-0.215286	-0.073496
C99	C	1.348480	-0.380816	-0.506413
C100	C	1.848480	0.119184	-0.006413
C101	C	1.436336	-0.380828	-0.506436
C102	C	1.936336	0.119172	-0.006436
C103	C	1.142367	-0.380710	-0.780393
C104	C	1.642367	0.119290	-0.280393
C105	C	1.142390	-0.380676	-0.897169
C106	C	1.642390	0.119324	-0.397169
C107	C	1.142399	-0.174622	-0.506400
C108	C	1.642399	0.325378	-0.006400
C109	C	1.142437	-0.086765	-0.506418
C110	C	1.642437	0.413235	-0.006418
C111	C	1.192974	-0.330123	-0.952056
C112	C	1.692974	0.169877	-0.452056
C113	C	1.192993	-0.330094	-1.061781
C114	C	1.692993	0.169906	-0.561781
C115	C	1.091842	-0.431179	-1.061721
C116	C	1.591842	0.068821	-0.561721
C117	C	1.091820	-0.431203	-0.951999
C118	C	1.591820	0.068797	-0.451999
C119	C	1.243544	-0.279596	-0.897227
C120	C	1.743544	0.220404	-0.397227
C121	C	1.294132	-0.229039	-0.952114
C122	C	1.794132	0.270961	-0.452114
C123	C	1.294151	-0.229011	-1.061838
C124	C	1.794151	0.270989	-0.561838
C125	C	1.243582	-0.279539	-1.116675
C126	C	1.743582	0.220461	-0.616675
C127	C	1.142302	-0.380812	-0.233392
C128	C	1.642302	0.119188	0.266608
C129	C	1.142431	-0.380624	-0.116616
C130	C	1.642431	0.119376	0.383384
H131	H	0.444084	-0.289232	-0.628540
H132	H	0.944084	0.210768	-0.128540
H133	H	1.234047	-0.681682	-0.384584
H134	H	1.734047	-0.181682	0.115416
Br135	Br	1.023230	-1.101506	-0.664653
Br136	Br	1.523230	-0.601506	-0.164653
Br137	Br	0.972606	-0.977687	-0.731755
Br138	Br	1.472606	-0.477687	-0.231755
Br139	Br	1.362806	-0.160401	-1.136326
Br140	Br	1.862806	0.339599	-0.636326
H141	H	1.284677	-0.805506	-0.317469
H142	H	1.784677	-0.305506	0.182531
Br143	Br	1.312193	-0.977675	-0.281069
Br144	Br	1.812193	-0.477675	0.218931
H145	H	0.841495	-0.289173	-0.628424
H146	H	1.341495	0.210827	-0.128424
Br147	Br	0.545567	-0.211325	-0.732372
Br148	Br	1.045567	0.288675	-0.232372
H149	H	0.567704	-0.522900	-0.316976
H150	H	1.067704	-0.022900	0.183024
Br151	Br	1.243526	-0.279637	-0.748316
Br152	Br	1.743526	0.220363	-0.248316
H153	H	1.335299	-0.187896	-0.907458
H154	H	1.835299	0.312104	-0.407458
H155	H	1.243592	-0.279502	-1.206020
H156	H	1.743592	0.220498	-0.706020
Br157	Br	1.261658	-1.101498	-0.348205
Br158	Br	1.761658	-0.601498	0.151795
H159	H	1.050671	-0.472317	-1.106378
H160	H	1.550671	0.027683	-0.606378
Br161	Br	0.972524	-0.783093	-0.731720
Br162	Br	1.472524	-0.283093	-0.231720
Br163	Br	0.863724	-0.499787	-0.347643
Br164	Br	1.363724	0.000213	0.152357
Br165	Br	0.739867	-0.550302	-0.280395
Br166	Br	1.239867	-0.050302	0.219605
H167	H	1.050618	-0.472356	-0.907309
H168	H	1.550618	0.027644	-0.407309
Br169	Br	0.740145	-0.211280	-0.732314
Br170	Br	1.240145	0.288720	-0.232314
Br171	Br	1.023063	-0.659279	-0.664598
Br172	Br	1.523063	-0.159279	-0.164598
Br173	Br	0.421496	-0.499838	-0.347778
Br174	Br	0.921496	0.000162	0.152222
