data_functionalizedCrystal
_audit_creation_method	'MofGen! by Chris Wilmer'
_symmetry_space_group_name_H-M	'P1'
_symmetry_Int_Tables_number	1
_symmetry_cell_setting	triclinic
loop_
_symmetry_equiv_pos_as_xyz
  x,y,z
_cell_length_a	27.732048
_cell_length_b	26.809956
_cell_length_c	27.732048
_cell_angle_alpha	90.000636
_cell_angle_beta	97.357345
_cell_angle_gamma	89.996742
loop_
_atom_site_label
_atom_site_type_symbol
_atom_site_fract_x
_atom_site_fract_y
_atom_site_fract_z
O1	O	0.640931	-0.041421	-0.057510
O2	O	0.500138	-0.041436	-0.066256
O3	O	0.574907	-0.041419	0.008514
O4	O	0.566162	-0.041439	-0.132280
O5	O	0.574893	0.041541	0.008502
O6	O	0.500123	0.041523	-0.066267
O7	O	0.640917	0.041539	-0.057522
Zn8	Zn	0.570518	0.054702	-0.061896
Zn9	Zn	0.570536	-0.054600	-0.061881
O10	O	0.566147	0.041521	-0.132291
C11	C	0.482124	0.000041	-0.066078
C12	C	0.428469	0.000036	-0.065525
N13	N	0.570509	0.129298	-0.061906
N14	N	0.570549	-0.129196	-0.061867
C15	C	0.089654	0.000051	-0.106229
C16	C	-0.112006	0.000056	-0.104178
O17	O	-0.143262	0.000073	-0.141398
N18	N	-0.131130	0.000062	-0.059843
C19	C	-0.099835	0.000069	-0.016017
O20	O	-0.120728	0.000079	0.021740
C21	C	0.101824	0.000068	-0.018068
C22	C	0.120944	0.000057	-0.062407
C23	C	0.108775	0.000042	-0.150563
C24	C	0.159187	0.000038	-0.151076
C25	C	0.190477	0.000044	-0.107253
C26	C	0.171356	0.000054	-0.062919
C27	C	0.133117	0.000079	0.025757
C28	C	0.183535	0.000080	0.025240
C29	C	0.202655	0.000069	-0.019098
C30	C	0.253059	0.000056	-0.019609
N31	N	0.272183	0.000050	-0.063944
C32	C	0.240892	0.000044	-0.107766
C33	C	-0.205709	0.000069	-0.014943
C34	C	-0.256124	0.000068	-0.014430
C35	C	-0.268291	0.000056	-0.102591
C36	C	-0.217876	0.000053	-0.103104
C37	C	-0.186585	0.000063	-0.059278
C38	C	0.346761	0.000036	-0.108839
C39	C	0.397178	0.000030	-0.109347
C40	C	0.409341	0.000044	-0.021186
C41	C	0.358929	0.000048	-0.020678
C42	C	0.327639	0.000045	-0.064508
O43	O	0.284343	0.000045	0.017592
O44	O	0.261794	0.000045	-0.145518
C45	C	0.039242	0.000055	-0.105716
C46	C	0.020120	0.000065	-0.061382
C47	C	0.051411	0.000071	-0.017560
C48	C	-0.030294	0.000065	-0.060869
C49	C	-0.061585	0.000059	-0.104691
C50	C	-0.042461	0.000053	-0.149026
C51	C	0.007951	0.000049	-0.149539
C52	C	0.032287	0.000077	0.026775
C53	C	-0.018125	0.000080	0.027284
C54	C	-0.049416	0.000074	-0.016538
C55	C	0.658931	0.000060	-0.057699
C56	C	0.712586	0.000062	-0.058252
C57	C	0.574716	0.000062	0.026515
C58	C	0.574164	0.000066	0.080170
C59	C	0.603640	0.473932	-0.028781
C60	C	0.603652	0.682810	-0.028774
O61	O	0.631801	0.709820	-0.000613
N62	N	0.570539	0.708925	-0.061870
C63	C	0.537419	0.682818	-0.094969
O64	O	0.509252	0.709824	-0.123116
C65	C	0.537406	0.473941	-0.094974
C66	C	0.570524	0.447829	-0.061878
C67	C	0.636755	0.447819	0.004312
C68	C	0.636754	0.395603	0.004308
C69	C	0.603637	0.369500	-0.028789
C70	C	0.570522	0.395612	-0.061882
C71	C	0.504284	0.447835	-0.128070
C72	C	0.504283	0.395613	-0.128067
C73	C	0.537401	0.369500	-0.094972
C74	C	0.537405	0.317293	-0.094983
N75	N	0.570517	0.291177	-0.061887
C76	C	0.603633	0.317281	-0.028790
C77	C	0.537429	0.792481	-0.094965
C78	C	0.537433	0.844700	-0.094964
C79	C	0.603665	0.844689	-0.028768
C80	C	0.603663	0.792469	-0.028772
C81	C	0.570542	0.766366	-0.061868
C82	C	0.603628	0.207623	-0.028801
C83	C	0.603625	0.155402	-0.028809
C84	C	0.537392	0.155418	-0.095003
C85	C	0.537396	0.207635	-0.094997
C86	C	0.570516	0.233735	-0.061892
O87	O	0.509266	0.290250	-0.123126
O88	O	0.631789	0.290266	-0.000640
C89	C	0.603642	0.526149	-0.028777
C90	C	0.570527	0.552261	-0.061870
C91	C	0.537410	0.526158	-0.094968
C92	C	0.570531	0.604480	-0.061870
C93	C	0.603647	0.630584	-0.028773
C94	C	0.636759	0.604468	0.004324
C95	C	0.636758	0.552252	0.004320
C96	C	0.504298	0.552273	-0.128064
C97	C	0.504303	0.604489	-0.128058
C98	C	0.537419	0.630593	-0.094961
C99	C	0.566338	0.000039	-0.150292
C100	C	0.566891	0.000031	-0.203947
C101	C	0.614867	0.000045	0.418985
C102	C	0.612816	0.000038	0.620645
O103	O	0.650037	0.000021	0.651900
N104	N	0.568481	0.000034	0.639768
C105	C	0.524656	0.000028	0.608474
O106	O	0.486899	0.000019	0.629367
C107	C	0.526707	0.000031	0.406815
C108	C	0.571045	0.000041	0.387694
C109	C	0.659202	0.000054	0.399864
C110	C	0.659714	0.000059	0.349452
C111	C	0.615892	0.000054	0.318161
C112	C	0.571557	0.000045	0.337282
C113	C	0.482882	0.000022	0.375521
C114	C	0.483399	0.000021	0.325104
C115	C	0.527737	0.000031	0.305983
C116	C	0.528247	0.000045	0.255580
N117	N	0.572583	0.000050	0.236456
C118	C	0.616405	0.000054	0.267747
C119	C	0.523582	0.000027	0.714348
C120	C	0.523069	0.000027	0.764762
C121	C	0.611230	0.000036	0.776930
C122	C	0.611742	0.000040	0.726514
C123	C	0.567917	0.000031	0.695224
C124	C	0.617477	0.000064	0.161878
C125	C	0.617986	0.000071	0.111461
C126	C	0.529825	0.000059	0.099298
C127	C	0.529316	0.000055	0.149710
C128	C	0.573147	0.000056	0.180999
O129	O	0.491047	0.000057	0.224296
O130	O	0.654156	0.000053	0.246844
C131	C	0.614355	0.000041	0.469397
C132	C	0.570021	0.000032	0.488518
C133	C	0.526198	0.000027	0.457228
C134	C	0.569508	0.000032	0.538933
C135	C	0.613330	0.000036	0.570223
C136	C	0.657665	0.000041	0.551100
C137	C	0.658177	0.000045	0.500688
C138	C	0.481863	0.000023	0.476351
C139	C	0.481355	0.000019	0.526764
C140	C	0.525177	0.000023	0.558054
H141	H	0.321291	0.000035	-0.144530
O142	O	0.505241	0.129979	-0.127104
C143	C	0.512351	0.078291	-0.120012
H144	H	0.530712	0.071162	-0.081457
H145	H	0.475706	0.058446	-0.125635
H146	H	0.536384	0.063468	-0.147209
O147	O	0.415692	-0.000046	-0.152451
C148	C	0.399676	-0.043021	-0.179128
H149	H	0.364805	-0.057340	-0.166215
H150	H	0.392379	-0.033365	-0.219437
H151	H	0.428894	-0.073109	-0.173306
H152	H	0.510433	0.228896	-0.121951
O153	O	0.062659	-0.000008	0.069360
C154	C	0.054026	-0.042964	0.096307
H155	H	0.036610	-0.072995	0.070655
H156	H	0.089937	-0.057389	0.115971
H157	H	0.028551	-0.033245	0.124083
H158	H	0.694282	0.000053	0.485125
H159	H	0.663725	0.530995	0.031269
H160	H	0.663726	0.625730	0.031271
O161	O	0.439769	-0.000012	0.394007
C162	C	0.401207	-0.000007	0.355569
H163	H	0.414507	-0.015707	0.321419
H164	H	0.370233	-0.024101	0.365871
H165	H	0.387697	0.039790	0.348335
O166	O	-0.036718	0.000000	0.070346
C167	C	-0.065526	-0.042954	0.073289
H168	H	-0.053791	-0.072993	0.048125
H169	H	-0.060711	-0.057367	0.112284
H170	H	-0.105370	-0.033238	0.061838
O171	O	-0.175386	0.000053	0.027676
C172	C	-0.203082	0.000069	0.066912
H173	H	-0.240801	-0.015638	0.054350
H174	H	-0.184263	-0.024013	0.097598
H175	H	-0.206578	0.039870	0.080516
H176	H	0.663722	0.469068	0.031266
O177	O	-0.072842	-0.000041	-0.191609
C178	C	-0.064221	-0.043003	-0.218554
H179	H	-0.046798	-0.073032	-0.192903
H180	H	-0.100138	-0.057425	-0.238204
H181	H	-0.038757	-0.033294	-0.246342
O182	O	-0.298760	0.000073	-0.145116
C183	C	-0.347355	0.000062	-0.135150
H184	H	-0.349006	0.015769	-0.097197
H185	H	-0.370407	0.024146	-0.163104
H186	H	-0.361948	-0.039738	-0.137091
O187	O	0.340296	0.000120	0.022361
C188	C	0.311512	0.043097	0.025296
H189	H	0.298674	0.057416	-0.012900
H190	H	0.278637	0.033444	0.044317
H191	H	0.333948	0.073184	0.046845
H192	H	0.477335	0.625747	-0.155012
O193	O	0.472110	0.526998	-0.160265
C194	C	0.442880	0.561251	-0.189463
H195	H	0.462698	0.598472	-0.189864
H196	H	0.435217	0.546172	-0.228122
H197	H	0.407090	0.566807	-0.174016
H198	H	0.083302	0.000038	-0.186251
O199	O	0.700222	-0.000044	0.581520
C200	C	0.702557	-0.043006	0.611050
H201	H	0.677703	-0.073036	0.592398
H202	H	0.741539	-0.057426	0.617009
H203	H	0.690319	-0.033296	0.647622
O204	O	0.472062	0.370235	-0.160154
C205	C	0.442443	0.340021	-0.134474
H206	H	0.441916	0.355753	-0.096355
H207	H	0.403875	0.339436	-0.154460
H208	H	0.457587	0.300443	-0.131842
O209	O	0.177676	0.000056	-0.194189
C210	C	0.139240	0.000040	-0.232752
H211	H	0.105088	0.015746	-0.219458
H212	H	0.149542	0.024125	-0.263732
H213	H	0.132009	-0.039760	-0.246248
O214	O	0.661101	0.000056	0.092968
C215	C	0.699668	0.000070	0.131401
H216	H	0.686380	-0.015640	0.165552
H217	H	0.730649	-0.024011	0.121091
H218	H	0.713160	0.039870	0.138637
H219	H	0.447710	0.000014	0.299629
H220	H	-0.202311	0.000047	-0.139207
H221	H	0.023514	0.000042	-0.185643
O222	O	-0.274717	-0.000016	0.028628
C223	C	-0.303521	-0.042975	0.031567
H224	H	-0.291783	-0.073009	0.006401
H225	H	-0.298704	-0.057391	0.070561
H226	H	-0.343365	-0.033263	0.020118
H227	H	0.117558	0.000088	0.061861
H228	H	0.209009	0.000089	0.060929
O229	O	0.481039	0.000088	0.683906
C230	C	0.478682	0.043059	0.654388
H231	H	0.517027	0.057387	0.652113
H232	H	0.460382	0.033395	0.616363
H233	H	0.456730	0.073143	0.670818
H234	H	0.434827	0.000047	0.014492
O235	O	0.635781	0.232919	0.003422
C236	C	0.628275	0.220162	0.051219
H237	H	0.609638	0.182251	0.051025
H238	H	0.664787	0.218366	0.075274
H239	H	0.604331	0.249554	0.066007
H240	H	0.630595	0.134142	-0.001859
H241	H	0.630630	0.865951	-0.001820
O242	O	0.439260	-0.000045	0.446009
C243	C	0.412330	-0.043019	0.454618
H244	H	0.424499	-0.057348	0.492949
H245	H	0.371987	-0.033357	0.450785
H246	H	0.418726	-0.073101	0.427082
O247	O	0.701743	0.000126	0.430305
C248	C	0.704085	0.043099	0.459820
H249	H	0.665735	0.057416	0.462097
H250	H	0.722390	0.033440	0.497845
H251	H	0.726025	0.073188	0.443388
O252	O	0.668939	0.370318	0.036508
C253	C	0.698172	0.404564	0.065710
H254	H	0.678356	0.441789	0.066113
H255	H	0.705833	0.389482	0.104367
H256	H	0.733962	0.410115	0.050263
O257	O	0.660022	0.000134	0.192316
C258	C	0.662364	0.043105	0.221835
H259	H	0.624014	0.057421	0.224112
H260	H	0.680668	0.033443	0.259859
H261	H	0.684303	0.073196	0.205405
H262	H	0.695819	0.000065	0.333889
H263	H	0.647846	0.000047	0.710950
H264	H	0.630630	0.771211	-0.001822
O265	O	0.505219	0.869986	-0.127135
C266	C	0.475999	0.835742	-0.156352
H267	H	0.475604	0.798520	-0.136535
H268	H	0.437341	0.850830	-0.163992
H269	H	0.491422	0.830186	-0.192155
H270	H	0.646911	0.000040	0.802415
O271	O	0.480029	-0.000044	0.783390
C272	C	0.477095	-0.043017	0.812176
H273	H	0.515291	-0.057335	0.825017
H274	H	0.458071	-0.033359	0.845050
H275	H	0.455549	-0.073106	0.789741
H276	H	0.493213	0.000061	0.165279
H277	H	0.510457	0.771232	-0.121917
O278	O	0.472065	0.473115	-0.160237
C279	C	0.442846	0.438868	-0.189450
H280	H	0.442456	0.401646	-0.169631
H281	H	0.404187	0.453953	-0.197089
H282	H	0.458268	0.433311	-0.225254
H283	H	0.494146	0.000057	0.073812
H284	H	0.445246	0.000015	0.542327
