data_functionalizedCrystal
_audit_creation_method	'MofGen! by Chris Wilmer'
_symmetry_space_group_name_H-M	'P1'
_symmetry_Int_Tables_number	1
_symmetry_cell_setting	triclinic
loop_
_symmetry_equiv_pos_as_xyz
  x,y,z
_cell_length_a	18.050591
_cell_length_b	12.759400
_cell_length_c	12.759393
_cell_angle_alpha	90.031769
_cell_angle_beta	89.973418
_cell_angle_gamma	89.989309
loop_
_atom_site_label
_atom_site_type_symbol
_atom_site_fract_x
_atom_site_fract_y
_atom_site_fract_z
Zn1	Zn	1.135404	0.418314	-0.594239
Zn2	Zn	1.135332	0.594034	-0.418559
Zn3	Zn	1.011211	0.418357	-0.418550
Zn4	Zn	1.011200	0.593939	-0.594173
O5	O	1.073287	0.506161	-0.506380
O6	O	1.239319	0.441645	-0.570967
O7	O	1.118841	0.570787	-0.271537
O8	O	1.027720	0.271330	-0.441880
O9	O	1.239266	0.570745	-0.441895
O10	O	1.118964	0.271299	-0.570958
O11	O	1.027650	0.441718	-0.271531
O12	O	0.907285	0.441627	-0.441815
O13	O	1.027702	0.570585	-0.741203
O14	O	0.907277	0.570626	-0.570844
O15	O	1.118954	0.441554	-0.741252
O16	O	1.118831	0.741042	-0.441831
O17	O	1.027632	0.740973	-0.570853
C18	C	0.880335	0.506122	-0.506322
C19	C	0.797789	0.506130	-0.506322
C20	C	1.073243	0.779128	-0.506359
C21	C	1.073292	0.895905	-0.506384
C22	C	1.073335	0.506054	-0.780414
C23	C	1.073355	0.506008	-0.897191
C24	C	0.598321	0.435899	-0.436318
C25	C	0.548915	0.531730	-0.410469
C26	C	0.646658	0.506162	-0.506370
C27	C	0.548982	0.410365	-0.532216
C28	C	0.500673	0.506185	-0.506414
C29	C	0.598340	0.602044	-0.480471
C30	C	0.598411	0.480614	-0.602263
C31	C	0.549028	0.576511	-0.576450
C32	C	0.730757	0.506148	-0.506342
C33	C	0.416577	0.506210	-0.506442
C34	C	1.266992	0.506201	-0.506439
C35	C	1.349538	0.506218	-0.506464
C36	C	1.073351	0.232128	-0.506425
C37	C	1.073379	0.115351	-0.506445
C38	C	1.120832	0.950768	-0.439277
C39	C	1.120877	1.060492	-0.439309
C40	C	1.025837	1.060480	-0.573560
C41	C	1.025795	0.950758	-0.573532
C42	C	1.168328	0.895915	-0.372129
C43	C	1.215871	0.950778	-0.305015
C44	C	1.215917	1.060502	-0.305048
C45	C	1.168419	1.115363	-0.372194
C46	C	1.025892	0.438790	-0.952055
C47	C	1.025915	0.438759	-1.061779
C48	C	1.120870	0.573167	-1.061765
C49	C	1.120843	0.573203	-0.952042
C50	C	0.978405	0.371595	-0.897203
C51	C	0.930939	0.304370	-0.952068
C52	C	0.930961	0.304339	-1.061792
C53	C	0.978450	0.371533	-1.116652
C54	C	1.073281	0.506192	-0.233413
C55	C	1.073405	0.505941	-0.116637
H56	H	0.527175	0.553356	-0.329393
O57	O	0.884843	0.238960	-0.898900
C58	C	0.901116	0.134243	-0.925723
H59	H	0.929684	0.132048	-1.005395
H60	H	0.847530	0.087122	-0.929480
H61	H	0.939291	0.098881	-0.863987
O62	O	1.168329	1.221950	-0.372224
C63	C	1.097184	1.258709	-0.345124
H64	H	1.054373	1.195511	-0.362994
H65	H	1.083996	1.332089	-0.392514
H66	H	1.095653	1.278251	-0.257953
H67	H	0.619931	0.683092	-0.458538
H68	H	0.892307	0.249608	-1.106460
O69	O	1.166909	0.638644	-0.898852
C70	C	1.150642	0.743344	-0.925615
H71	H	1.122119	0.745489	-1.005281
H72	H	1.204226	0.790473	-0.929355
H73	H	1.112428	0.778733	-0.863853
H74	H	0.619964	0.376544	-0.377013
O75	O	0.523079	0.313677	-0.558099
C76	C	0.478974	0.274696	-0.475648
H77	H	0.495015	0.315286	-0.399350
H78	H	0.488142	0.186666	-0.467598
H79	H	0.418100	0.290613	-0.493324
H80	H	0.987085	0.906088	-0.628178
O81	O	0.979776	1.113722	-0.638926
C82	C	0.995942	1.086794	-0.743654
H83	H	1.055257	1.056566	-0.749039
H84	H	0.989552	1.158918	-0.795565
H85	H	0.956090	1.023125	-0.771045
O86	O	0.624500	0.454842	-0.698903
C87	C	0.702600	0.456112	-0.697729
H88	H	0.722698	0.508558	-0.631208
H89	H	0.724007	0.487718	-0.775612
H90	H	0.724251	0.373087	-0.685418
O91	O	0.523454	0.647419	-0.647277
C92	C	0.549774	0.621159	-0.747981
H93	H	0.602047	0.571584	-0.740452
H94	H	0.563025	0.695882	-0.793196
H95	H	0.505535	0.574777	-0.791728
H96	H	1.168294	0.806572	-0.372092
O97	O	0.978264	0.371526	-0.790619
C98	C	0.926189	0.297787	-0.753967
H99	H	0.882816	0.283040	-0.817190
H100	H	0.897984	0.329502	-0.680546
H101	H	0.955656	0.221195	-0.734526
H102	H	1.159535	0.627871	-1.106440
H103	H	0.978462	0.371504	-1.205997
H104	H	1.254546	0.906105	-0.250353
O105	O	1.262123	1.113636	-0.239762
C106	C	1.304047	1.041688	-0.180515
H107	H	1.273597	0.963510	-0.176815
H108	H	1.312011	1.073449	-0.097756
H109	H	1.360431	1.029925	-0.219062
