data_functionalizedCrystal
_audit_creation_method	'MofGen! by Chris Wilmer'
_symmetry_space_group_name_H-M	'P1'
_symmetry_Int_Tables_number	1
_symmetry_cell_setting	triclinic
loop_
_symmetry_equiv_pos_as_xyz
  x,y,z
_cell_length_a	14.908795
_cell_length_b	19.805405
_cell_length_c	19.805398
_cell_angle_alpha	90.027637
_cell_angle_beta	86.684627
_cell_angle_gamma	86.683419
loop_
_atom_site_label
_atom_site_type_symbol
_atom_site_fract_x
_atom_site_fract_y
_atom_site_fract_z
Zn1	Zn	1.379173	0.209876	-0.442494
Zn2	Zn	1.879173	0.709876	0.057506
Zn3	Zn	1.379069	0.323065	-0.329298
Zn4	Zn	1.879069	0.823065	0.170702
Zn5	Zn	1.228317	0.216412	-0.322780
Zn6	Zn	1.728317	0.716412	0.177220
Zn7	Zn	1.228259	0.329551	-0.435908
Zn8	Zn	1.728259	0.829551	0.064092
O9	O	1.303705	0.269726	-0.382620
O10	O	1.803705	0.769726	0.117380
O11	O	1.505408	0.219441	-0.432963
O12	O	2.005408	0.719441	0.067037
O13	O	1.359053	0.308938	-0.233716
O14	O	1.859053	0.808938	0.266284
O15	O	1.248397	0.120825	-0.338689
O16	O	1.748397	0.620825	0.161311
O17	O	1.505332	0.302601	-0.349798
O18	O	2.005332	0.802601	0.150202
O19	O	1.359230	0.116023	-0.426643
O20	O	1.859230	0.616023	0.073357
O21	O	1.248296	0.230580	-0.228927
O22	O	1.748296	0.730580	0.271073
O23	O	1.102061	0.236870	-0.332302
O24	O	1.602061	0.736870	0.167698
O25	O	1.248297	0.313655	-0.531499
O26	O	1.748297	0.813655	-0.031499
O27	O	1.102018	0.319993	-0.415417
O28	O	1.602018	0.819993	0.084583
O29	O	1.359173	0.225730	-0.536338
O30	O	1.859173	0.725730	-0.036338
O31	O	1.358996	0.418645	-0.343412
O32	O	1.858996	0.918645	0.156588
O33	O	1.248197	0.423410	-0.421737
O34	O	1.748197	0.923410	0.078263
C35	C	1.069305	0.279845	-0.372438
C36	C	1.569305	0.779845	0.127562
C37	C	0.969028	0.284190	-0.368098
C38	C	1.469028	0.784190	0.131902
C39	C	0.827654	0.333539	-0.318615
C40	C	1.327654	0.833539	0.181385
C41	C	0.921873	0.329459	-0.322692
C42	C	1.421873	0.829459	0.177308
C43	C	0.921957	0.242997	-0.409427
C44	C	1.421957	0.742997	0.090573
C45	C	0.827737	0.247076	-0.405350
C46	C	1.327737	0.747076	0.094650
C47	C	0.780589	0.292350	-0.359943
C48	C	1.280589	0.792350	0.140057
C49	C	0.686368	0.296433	-0.355869
C50	C	1.186368	0.796433	0.144131
C51	C	0.686454	0.209967	-0.442601
C52	C	1.186454	0.709967	0.057399
C53	C	0.780673	0.205887	-0.446678
C54	C	1.280673	0.705887	0.053322
C55	C	1.303603	0.445586	-0.382583
C56	C	1.803603	0.945586	0.117417
C57	C	1.303642	0.520817	-0.382593
C58	C	1.803642	1.020817	0.117407
C59	C	1.303740	0.269687	-0.559164
C60	C	1.803740	0.769687	-0.059164
C61	C	1.303755	0.269670	-0.634397
C62	C	1.803755	0.769670	-0.134397
C63	C	1.539020	0.259568	-0.392843
C64	C	2.039020	0.759568	0.107157
C65	C	1.639297	0.255239	-0.397199
C66	C	2.139297	0.755239	0.102801
C67	C	1.303831	0.093178	-0.382673
C68	C	1.803831	0.593178	0.117327
C69	C	1.303885	0.017943	-0.382696
C70	C	1.803885	0.517943	0.117304
C71	C	1.361392	0.553655	-0.341857
C72	C	1.861392	1.053655	0.158143
C73	C	1.361430	0.624341	-0.341874
C74	C	1.861430	1.124341	0.158126
C75	C	1.303714	0.662189	-0.382623
C76	C	1.803714	1.162189	0.117377
C77	C	1.245962	0.629346	-0.423364
C78	C	1.745962	1.129346	0.076636
C79	C	1.245929	0.558661	-0.423351
C80	C	1.745929	1.058661	0.076649
C81	C	1.246095	0.914414	-0.423420
C82	C	1.746095	1.414414	0.076580
C83	C	1.246130	0.985104	-0.423429
C84	C	1.746130	1.485104	0.076571
C85	C	1.361596	0.980095	-0.341943
C86	C	1.861596	1.480095	0.158057
C87	C	1.361563	0.909409	-0.341929
C88	C	1.861563	1.409409	0.158071
C89	C	1.303815	0.876572	-0.382673
C90	C	1.803815	1.376572	0.117327
C91	C	1.303775	0.799925	-0.382655
C92	C	1.803775	1.299925	0.117345
C93	C	1.303748	0.738835	-0.382638
C94	C	1.803748	1.238835	0.117362
C95	C	1.361597	0.223763	-1.098714
C96	C	1.861597	0.723763	-0.598714
C97	C	1.361583	0.223784	-1.028025
C98	C	1.861583	0.723784	-0.528025
C99	C	1.303848	0.269572	-0.990163
C100	C	1.803848	0.769572	-0.490163
C101	C	1.246129	0.315346	-1.022994
C102	C	1.746129	0.815346	-0.522994
C103	C	1.246149	0.315327	-1.093682
C104	C	1.746149	0.815327	-0.593682
C105	C	1.246051	0.315423	-0.737917
C106	C	1.746051	0.815423	-0.237917
C107	C	1.246034	0.315437	-0.667224
C108	C	1.746034	0.815437	-0.167224
C109	C	1.361485	0.223880	-0.672260
C110	C	1.861485	0.723880	-0.172260
C111	C	1.361505	0.223861	-0.742948
C112	C	1.861505	0.723861	-0.242948
C113	C	1.303790	0.269637	-0.775773
C114	C	1.803790	0.769637	-0.275773
C115	C	1.303807	0.269614	-0.852422
C116	C	1.803807	0.769614	-0.352422
C117	C	1.303825	0.269592	-0.913515
C118	C	1.803825	0.769592	-0.413515
C119	C	1.303721	0.269714	-0.206765
C120	C	1.803721	0.769714	0.293235
C121	C	1.303881	0.269532	-0.131540
C122	C	1.803881	0.769532	0.368460
H123	H	0.960189	0.362999	-0.289038
H124	H	1.460189	0.862999	0.210962
H125	H	1.408387	0.522844	-0.308671
H126	H	1.908387	1.022844	0.191329
F127	F	0.777473	0.381732	-0.270301
F128	F	1.277473	0.881732	0.229699
H129	H	1.408583	0.186516	-1.001301
H130	H	1.908583	0.686516	-0.501301
F131	F	1.422960	0.175132	-0.783240
F132	F	1.922960	0.675132	-0.283240
H133	H	0.819074	0.169025	-0.483646
H134	H	1.319074	0.669025	0.016354
H135	H	0.648124	0.176429	-0.476254
H136	H	1.148124	0.676429	0.023746
F137	F	1.184582	0.364173	-0.626930
F138	F	1.684582	0.864173	-0.126930
F139	F	1.184629	0.364144	-0.772843
F140	F	1.684629	0.864144	-0.272843
F141	F	1.423062	1.015047	-0.298583
F142	F	1.923062	1.515047	0.201417
H143	H	1.199124	0.352630	-0.992162
H144	H	1.699124	0.852630	-0.492162
H145	H	1.199132	1.015918	-0.456618
H146	H	1.699132	1.515918	0.043382
H147	H	1.408482	0.186609	-0.645525
H148	H	1.908482	0.686609	-0.145525
F149	F	1.184721	0.364042	-1.128618
F150	F	1.684721	0.864042	-0.628618
H151	H	0.647981	0.333299	-0.318898
H152	H	1.147981	0.833299	0.181102
H153	H	1.199073	0.887684	-0.456594
H154	H	1.699073	1.387684	0.043406
F155	F	0.972150	0.194815	-0.457746
F156	F	1.472150	0.694815	0.042254
H157	H	1.408455	0.651075	-0.308701
H158	H	1.908455	1.151075	0.191299
H159	H	1.408558	0.878595	-0.308745
H160	H	1.908558	1.378595	0.191255
F161	F	1.184541	0.669628	-0.466738
F162	F	1.684541	1.169628	0.033262
F163	F	1.184466	0.523712	-0.466710
F164	F	1.684466	1.023712	0.033290
H165	H	1.408606	0.186473	-1.129536
H166	H	1.908606	0.686473	-0.629536
