data_functionalizedCrystal
_audit_creation_method	'MofGen! by Chris Wilmer'
_symmetry_space_group_name_H-M	'P1'
_symmetry_Int_Tables_number	1
_symmetry_cell_setting	triclinic
loop_
_symmetry_equiv_pos_as_xyz
  x,y,z
_cell_length_a	10.489741
_cell_length_b	10.489716
_cell_length_c	10.268362
_cell_angle_alpha	89.998762
_cell_angle_beta	89.998119
_cell_angle_gamma	84.534155
loop_
_atom_site_label
_atom_site_type_symbol
_atom_site_fract_x
_atom_site_fract_y
_atom_site_fract_z
O1	O	1.694038	0.179971	-0.108207
O2	O	1.322841	0.196864	-0.108226
O3	O	1.516902	0.002818	-0.108221
O4	O	1.499977	0.374017	-0.108212
O5	O	1.516885	0.002809	0.108380
O6	O	1.322824	0.196856	0.108375
O7	O	1.694021	0.179963	0.108394
Cu8	Cu	1.508421	0.188408	0.128162
Cu9	Cu	1.508441	0.188418	-0.127994
O10	O	1.499960	0.374009	0.108388
C11	C	1.275301	0.195584	0.000072
C12	C	1.133672	0.191767	0.000064
C13	C	1.065542	0.068301	0.000073
C14	C	0.973419	0.126629	-0.106718
C15	C	0.973436	0.126650	0.106833
C16	C	1.043413	0.250146	-0.106816
C17	C	1.043440	0.250150	0.106832
C18	C	0.951344	0.308568	0.000014
C19	C	1.515622	-0.044719	0.000076
C20	C	1.511817	-0.186350	0.000064
C21	C	1.630822	-0.284024	0.000082
C22	C	1.567945	-0.361380	-0.106714
C23	C	1.567901	-0.361352	0.106838
C24	C	1.448991	-0.261841	-0.106820
C25	C	1.448964	-0.261808	0.106827
C26	C	1.386000	-0.339115	0.000006
C27	C	1.741561	0.181243	0.000093
C28	C	1.883190	0.185060	0.000092
C29	C	1.501240	0.421545	0.000089
C30	C	1.505044	0.563176	0.000093
N31	N	1.508416	0.188401	0.308327
N32	N	1.508456	0.188416	-0.308160
C33	C	1.508434	0.188415	0.573998
C34	C	1.508420	0.188411	0.426160
H35	H	1.115241	-0.033196	-0.000062
H36	H	0.942416	0.074391	-0.197006
C37	C	1.635775	-0.420081	0.228810
H38	H	1.576780	-0.462733	0.279104
H39	H	1.667315	-0.354097	0.279430
H40	H	1.705104	-0.479669	0.203131
C41	C	1.085049	0.320694	-0.228904
H42	H	1.175406	0.322662	-0.228186
H43	H	1.044914	0.405785	-0.229177
H44	H	1.060531	0.277145	-0.304670
H45	H	0.942455	0.074383	0.197117
C46	C	1.381137	-0.203024	0.228791
H47	H	1.310829	-0.144621	0.203138
H48	H	1.439734	-0.159034	0.278215
H49	H	1.350984	-0.269163	0.280264
C50	C	1.770651	-0.250675	-0.000054
H51	H	1.812754	-0.284938	-0.076028
H52	H	1.813321	-0.286235	0.075047
H53	H	1.772138	-0.160267	0.000708
C54	C	0.884551	0.445817	-0.000059
H55	H	0.908505	0.489465	-0.075991
H56	H	0.909585	0.490003	0.075085
H57	H	0.794345	0.442652	0.000655
C58	C	1.381195	-0.203350	-0.228939
H59	H	1.384101	-0.113107	-0.228229
H60	H	1.294503	-0.222540	-0.229258
H61	H	1.423184	-0.238305	-0.304678
H62	H	1.282408	-0.363546	-0.000057
H63	H	1.618189	-0.404872	-0.196998
H64	H	1.074474	0.302345	0.197124
