data_functionalizedCrystal
_audit_creation_method	'MofGen! by Chris Wilmer'
_symmetry_space_group_name_H-M	'P1'
_symmetry_Int_Tables_number	1
_symmetry_cell_setting	triclinic
loop_
_symmetry_equiv_pos_as_xyz
  x,y,z
_cell_length_a	8.597187
_cell_length_b	23.532357
_cell_length_c	7.088929
_cell_angle_alpha	96.188687
_cell_angle_beta	91.336285
_cell_angle_gamma	84.088408
loop_
_atom_site_label
_atom_site_type_symbol
_atom_site_fract_x
_atom_site_fract_y
_atom_site_fract_z
O1	O	2.030808	0.102897	0.493543
O2	O	1.581307	0.106731	0.419505
O3	O	1.819656	0.022065	0.458724
O4	O	1.792458	0.187562	0.454323
O5	O	1.851509	0.010724	0.145990
O6	O	1.613160	0.095390	0.106771
O7	O	2.062661	0.091555	0.180809
Cu8	Cu	1.840819	0.092437	0.115235
Cu9	Cu	1.803149	0.105849	0.485079
O10	O	1.824312	0.176221	0.141589
C11	C	1.539737	0.100017	0.253667
C12	C	1.368417	0.096900	0.225447
C13	C	1.834903	-0.004831	0.302239
C14	C	1.832860	-0.068079	0.301885
C15	C	1.802650	-0.454080	0.470343
C16	C	1.800705	-0.513506	0.470034
O17	O	1.784881	-0.538979	0.614839
N18	N	1.817104	-0.549413	0.299406
C19	C	1.835434	-0.525890	0.129074
O20	O	1.849202	-0.561888	-0.016086
C21	C	1.837367	-0.466465	0.129384
C22	C	1.820983	-0.430562	0.300025
C23	C	1.786265	-0.418178	0.640970
C24	C	1.788213	-0.358756	0.641280
C25	C	1.806545	-0.335237	0.470962
C26	C	1.822930	-0.371140	0.300334
C27	C	1.855685	-0.442943	-0.040948
C28	C	1.857616	-0.383513	-0.040624
C29	C	1.841232	-0.347610	0.130018
C30	C	1.843211	-0.288200	0.130326
N31	N	1.826811	-0.252294	0.300953
C32	C	1.808479	-0.275812	0.471271
C33	C	1.831369	-0.650686	0.128437
C34	C	1.829447	-0.710111	0.128127
C35	C	1.794715	-0.697723	0.469087
C36	C	1.796649	-0.638297	0.469396
C37	C	1.814970	-0.614780	0.299064
C38	C	1.812572	-0.151023	0.471908
C39	C	1.814528	-0.091597	0.472203
C40	C	1.849251	-0.103990	0.131243
C41	C	1.847303	-0.163411	0.130948
C42	C	1.828957	-0.186926	0.301295
O43	O	1.859022	-0.262686	-0.014406
O44	O	1.794692	-0.239807	0.616404
C45	C	2.104230	0.098270	0.346651
C46	C	2.275549	0.101387	0.374883
C47	C	1.809064	0.203118	0.298078
C48	C	1.811106	0.266366	0.298445
N49	N	1.867326	0.083003	-0.144892
N50	N	1.776654	0.115279	0.745207
H51	H	1.316856	0.090679	0.075929
H52	H	1.327114	0.107615	0.524411
H53	H	1.801188	-0.062367	0.611166
H54	H	1.860659	-0.192646	-0.008000
Cl55	Cl	2.012436	0.031367	-0.247074
H56	H	1.797625	-0.170161	0.610619
H57	H	1.682684	0.148725	-0.188609
H58	H	1.783305	-0.609068	0.608347
Cl59	Cl	1.767599	-0.313629	0.855810
H60	H	1.771330	-0.437319	0.779671
Cl61	Cl	1.872296	-0.074412	-0.082859
H62	H	1.842813	-0.739339	-0.010822
Cl63	Cl	1.771655	-0.727300	0.683201
Cl64	Cl	1.854419	-0.621128	-0.085715
H65	H	1.869030	-0.472166	-0.179902
H66	H	1.872513	-0.364368	-0.179336
