data_functionalizedCrystal
_audit_creation_method	'MofGen! by Chris Wilmer'
_symmetry_space_group_name_H-M	'P1'
_symmetry_Int_Tables_number	1
_symmetry_cell_setting	triclinic
loop_
_symmetry_equiv_pos_as_xyz
  x,y,z
_cell_length_a	21.295418
_cell_length_b	25.639239
_cell_length_c	21.295411
_cell_angle_alpha	89.980474
_cell_angle_beta	89.956262
_cell_angle_gamma	90.054499
loop_
_atom_site_label
_atom_site_type_symbol
_atom_site_fract_x
_atom_site_fract_y
_atom_site_fract_z
Zn1	Zn	0.962320	-0.207990	-0.356243
Zn2	Zn	0.962207	-0.295410	-0.250972
Zn3	Zn	0.857043	-0.208014	-0.250953
Zn4	Zn	0.856998	-0.295420	-0.356169
O5	O	0.909642	-0.251708	-0.303584
O6	O	1.050395	-0.219572	-0.342318
O7	O	0.948229	-0.283822	-0.162880
O8	O	0.871075	-0.134846	-0.264943
O9	O	1.050312	-0.283799	-0.264976
O10	O	0.948421	-0.134828	-0.342299
O11	O	0.870965	-0.219613	-0.162866
O12	O	0.768948	-0.219623	-0.264871
O13	O	0.870997	-0.283816	-0.444268
O14	O	0.768914	-0.283840	-0.342172
O15	O	0.948377	-0.219582	-0.444322
O16	O	0.948185	-0.368576	-0.264904
O17	O	0.870888	-0.368584	-0.342191
C18	C	0.746090	-0.251736	-0.303512
C19	C	0.676122	-0.251760	-0.303496
C20	C	0.643255	-0.285242	-0.343686
C21	C	0.577512	-0.285229	-0.343715
C22	C	0.544640	-0.251740	-0.303541
C23	C	0.577515	-0.218252	-0.263347
C24	C	0.643257	-0.218262	-0.263325
N25	N	0.441365	-0.247648	-0.248483
N26	N	0.378913	-0.247641	-0.248506
C27	C	0.346565	-0.251707	-0.303608
N28	N	0.379028	-0.255789	-0.358686
N29	N	0.441485	-0.255799	-0.358662
C30	C	0.473354	-0.251725	-0.303561
C31	C	0.242412	-0.285176	-0.343832
C32	C	0.176668	-0.285160	-0.343862
C33	C	0.176673	-0.218185	-0.263489
C34	C	0.242415	-0.218199	-0.263465
C35	C	0.275281	-0.251697	-0.303636
C36	C	0.909536	-0.387551	-0.303555
C37	C	0.909548	-0.445665	-0.303564
C38	C	0.949996	-0.806011	-0.263409
C39	C	0.950020	-0.860616	-0.263418
O40	O	0.984300	-0.888838	-0.229245
N41	N	0.909753	-0.887947	-0.303626
C42	C	0.869463	-0.860672	-0.343833
O43	O	0.835215	-0.888934	-0.378034
C44	C	0.869442	-0.806069	-0.343827
C45	C	0.909708	-0.778740	-0.303612
C46	C	0.990259	-0.778683	-0.223198
C47	C	0.990233	-0.724082	-0.223188
C48	C	0.949945	-0.696810	-0.263391
C49	C	0.909682	-0.724139	-0.303603
C50	C	0.829156	-0.778794	-0.384037
C51	C	0.829139	-0.724187	-0.384028
C52	C	0.869404	-0.696858	-0.343812
C53	C	0.869369	-0.642267	-0.343796
N54	N	0.909636	-0.614935	-0.303588
C55	C	0.949924	-0.642207	-0.263385
C56	C	0.869510	-0.975343	-0.343842
C57	C	0.869527	-1.029945	-0.343845
C58	C	0.950086	-1.029885	-0.263431
C59	C	0.950065	-0.975282	-0.263425
C60	C	0.909778	-0.948011	-0.303634
C61	C	0.949868	-0.527542	-0.263369
C62	C	0.949837	-0.472937	-0.263361
C63	C	0.869281	-0.473001	-0.343778
C64	C	0.869309	-0.527602	-0.343783
C65	C	0.909607	-0.554871	-0.303577
O66	O	0.835108	-0.614010	-0.377953
O67	O	0.984172	-0.613939	-0.229195
C68	C	1.073832	-0.251681	-0.303657
C69	C	1.143801	-0.251670	-0.303688
C70	C	0.909694	-0.251697	-0.467774
C71	C	0.909717	-0.251693	-0.537743
C72	C	0.909766	-0.115335	-0.303627
C73	C	0.909818	-0.057221	-0.303645
C74	C	0.950007	-0.218244	-0.570639
C75	C	0.950006	-0.218221	-0.636381
C76	C	0.909721	-0.251657	-0.669225
C77	C	0.869424	-0.285108	-0.636321
C78	C	0.869421	-0.285126	-0.570580
N79	N	0.904857	-0.297396	-0.772441
N80	N	0.904863	-0.297377	-0.834892
C81	C	0.909725	-0.251604	-0.867300
N82	N	0.914594	-0.205848	-0.834897
N83	N	0.914591	-0.205867	-0.772440
C84	C	0.909719	-0.251641	-0.740511
C85	C	0.950017	-0.218128	-0.971482
C86	C	0.950011	-0.218104	-1.037225
C87	C	0.869433	-0.284995	-1.037164
C88	C	0.869435	-0.285014	-0.971422
C89	C	0.909730	-0.251581	-0.938584
C90	C	0.909626	-0.251682	-0.140032
C91	C	0.909726	-0.251539	-0.070065
H92	H	0.670010	-0.312519	-0.376398
H93	H	0.982626	-0.450687	-0.230611
O94	O	0.989030	-0.553945	-0.224251
C95	C	1.024568	-0.518106	-0.188772
H96	H	0.998763	-0.479214	-0.186563
H97	H	1.072364	-0.512236	-0.211881
C98	C	1.065376	-0.587192	-0.124500
C99	C	1.033678	-0.539425	-0.121782
H100	H	1.070998	-0.600343	-0.083177
H101	H	1.041435	-0.611338	-0.148403
H102	H	1.105202	-0.582293	-0.143760
H103	H	0.993850	-0.544325	-0.102529
H104	H	1.057612	-0.515280	-0.097873
O105	O	0.830335	-0.948797	-0.382811
C106	C	0.789669	-0.917279	-0.346918
H107	H	0.811892	-0.909086	-0.299242
H108	H	0.743035	-0.938379	-0.339940
C109	C	0.750929	-0.875478	-0.440095
C110	C	0.778226	-0.865412	-0.381540
H111	H	0.743868	-0.843485	-0.461452
H112	H	0.778324	-0.896713	-0.464277
H113	H	0.712070	-0.893063	-0.434271
H114	H	0.817088	-0.847833	-0.387364
H115	H	0.750837	-0.844172	-0.357360
O116	O	0.675215	-0.185683	-0.224368
C117	C	0.713345	-0.151974	-0.260265
H118	H	0.693595	-0.148800	-0.309858
H119	H	0.763148	-0.168153	-0.262379
C120	C	0.738657	-0.101482	-0.168717
C121	C	0.714396	-0.097581	-0.229627
H122	H	0.739308	-0.067930	-0.149817
H123	H	0.712970	-0.124194	-0.144532
H124	H	0.780157	-0.114967	-0.170487
H125	H	0.672894	-0.084103	-0.227855
H126	H	0.740076	-0.074865	-0.253811
O127	O	0.274249	-0.185661	-0.224359
C128	C	0.231141	-0.156089	-0.188917
H129	H	0.184246	-0.177494	-0.186707
H130	H	0.224229	-0.116407	-0.212059
C131	C	0.314332	-0.122185	-0.124644
C132	C	0.256736	-0.148477	-0.121924
H133	H	0.330120	-0.117487	-0.083320
H134	H	0.343375	-0.142106	-0.148523
H135	H	0.308564	-0.089119	-0.143931
H136	H	0.262506	-0.181544	-0.102644
H137	H	0.227694	-0.128561	-0.098040
H138	H	1.023023	-0.701834	-0.190444
O139	O	0.789970	-0.697641	-0.423001
C140	C	0.749300	-0.666125	-0.387111
H141	H	0.771517	-0.657934	-0.339432
H142	H	0.702665	-0.687225	-0.380140
C143	C	0.710572	-0.624320	-0.480290
C144	C	0.737862	-0.614256	-0.421732
H145	H	0.703513	-0.592325	-0.501646
H146	H	0.737970	-0.645554	-0.504470
H147	H	0.671712	-0.641905	-0.474473
H148	H	0.776724	-0.596677	-0.427550
H149	H	0.710470	-0.593017	-0.397553
O150	O	0.830240	-0.446479	-0.382897
C151	C	0.866058	-0.414831	-0.423575
H152	H	0.915639	-0.431239	-0.427523
H153	H	0.868225	-0.373456	-0.404103
C154	C	0.774386	-0.393838	-0.484132
C155	C	0.835280	-0.413993	-0.488985
H156	H	0.755400	-0.393318	-0.524479
H157	H	0.750254	-0.415158	-0.456725
H158	H	0.776200	-0.359360	-0.467903
H159	H	0.833465	-0.448472	-0.505207
H160	H	0.859412	-0.392679	-0.516396
H161	H	1.023070	-0.800881	-0.190460
O162	O	0.545642	-0.317727	-0.382845
C163	C	0.561775	-0.306374	-0.445607
H164	H	0.609539	-0.286289	-0.446944
H165	H	0.524837	-0.279510	-0.466877
C166	C	0.506108	-0.382062	-0.481981
C167	C	0.564776	-0.357397	-0.483624
H168	H	0.507957	-0.413534	-0.505434
H169	H	0.495237	-0.389710	-0.439698
H170	H	0.475333	-0.359670	-0.499706
H171	H	0.595548	-0.379786	-0.465893
H172	H	0.575653	-0.349754	-0.525906
O173	O	0.830392	-0.317534	-1.069086
C174	C	0.866204	-0.351278	-1.107148
H175	H	0.915780	-0.354499	-1.087375
H176	H	0.868384	-0.335102	-1.156976
C177	C	0.774518	-0.401683	-1.132414
C178	C	0.835407	-0.405642	-1.108125
H179	H	0.755520	-0.435217	-1.133020
H180	H	0.750390	-0.378948	-1.106773
H181	H	0.776343	-0.388201	-1.173935
H182	H	0.833580	-0.419118	-1.066602
H183	H	0.859534	-0.428381	-1.133760
H184	H	0.982853	-0.953034	-0.230679
H185	H	0.982818	-0.191020	-0.543907
O186	O	0.989249	-1.056463	-0.224482
C187	C	0.980641	-1.110516	-0.233128
H188	H	0.959943	-1.117960	-0.281661
H189	H	0.947202	-1.126094	-0.195717
C190	C	1.069793	-1.129321	-0.167942
C191	C	1.044376	-1.138464	-0.227553
H192	H	1.109106	-1.146561	-0.164500
H193	H	1.075591	-1.092904	-0.162114
H194	H	1.041921	-1.142302	-0.136772
H195	H	1.072243	-1.125477	-0.258721
H196	H	1.038584	-1.174879	-0.233386
O197	O	0.830389	-0.317537	-0.939395
C198	C	0.866196	-0.351320	-0.901405
H199	H	0.913917	-0.332874	-0.891590
H200	H	0.873079	-0.390057	-0.926747
C201	C	0.772938	-0.383466	-0.850988
C202	C	0.831548	-0.360809	-0.838929
H203	H	0.751564	-0.389322	-0.812451
H204	H	0.748813	-0.360707	-0.876584
H205	H	0.778682	-0.415745	-0.872108
H206	H	0.825803	-0.328528	-0.817817
H207	H	0.855671	-0.383563	-0.813328
O208	O	0.545560	-0.185797	-0.224251
C209	C	0.507439	-0.215510	-0.183551
H210	H	0.527191	-0.256687	-0.179569
H211	H	0.457632	-0.217328	-0.203023
C212	C	0.482136	-0.139315	-0.123055
C213	C	0.506399	-0.189888	-0.118161
H214	H	0.481492	-0.123509	-0.082721
H215	H	0.507816	-0.119296	-0.150477
H216	H	0.440633	-0.140836	-0.139285
H217	H	0.547904	-0.188366	-0.101940
H218	H	0.480725	-0.209907	-0.090735
H219	H	0.836733	-1.052191	-0.376587
O220	O	0.989207	-0.185713	-0.668248
C221	C	1.024758	-0.156198	-0.625168
H222	H	1.026915	-0.177624	-0.578304
H223	H	1.001748	-0.116492	-0.618163
C224	C	1.089115	-0.122338	-0.708434
C225	C	1.091768	-0.148655	-0.650877
H226	H	1.130449	-0.117682	-0.724294
H227	H	1.065162	-0.142221	-0.737459
H228	H	1.069937	-0.089253	-0.702589
H229	H	1.110938	-0.181742	-0.656725
H230	H	1.115726	-0.128777	-0.621854
H231	H	0.269173	-0.312450	-0.376545
O232	O	0.830324	-0.317661	-0.668153
C233	C	0.844042	-0.369773	-0.652107
H234	H	0.868237	-0.370865	-0.604391
H235	H	0.876392	-0.387369	-0.689129
C236	C	0.752929	-0.400113	-0.707630
C237	C	0.782641	-0.401454	-0.649022
H238	H	0.715054	-0.419657	-0.705729
H239	H	0.743687	-0.365004	-0.718443
H240	H	0.779894	-0.414776	-0.738475
H241	H	0.755679	-0.386786	-0.618180
H242	H	0.791876	-0.436561	-0.638204
H243	H	0.796364	-0.801036	-0.416781
H244	H	0.982824	-0.190902	-0.944744
O245	O	0.144809	-0.317661	-0.382993
C246	C	0.160950	-0.306313	-0.445753
H247	H	0.208711	-0.286223	-0.447087
H248	H	0.124011	-0.279455	-0.467033
C249	C	0.105299	-0.382009	-0.482125
C250	C	0.163963	-0.357339	-0.483763
H251	H	0.107156	-0.413484	-0.505573
H252	H	0.094423	-0.389655	-0.439843
H253	H	0.074523	-0.359622	-0.499857
H254	H	0.194737	-0.379723	-0.466025
H255	H	0.174845	-0.349699	-0.526044
H256	H	0.836524	-0.549854	-0.376532
H257	H	0.836609	-0.312363	-0.543796
H258	H	0.149909	-0.190915	-0.230781
H259	H	0.982819	-0.190863	-1.064008
