data_functionalizedCrystal
_audit_creation_method	'MofGen! by Chris Wilmer'
_symmetry_space_group_name_H-M	'P1'
_symmetry_Int_Tables_number	1
_symmetry_cell_setting	triclinic
loop_
_symmetry_equiv_pos_as_xyz
  x,y,z
_cell_length_a	17.019282
_cell_length_b	19.188928
_cell_length_c	15.500228
_cell_angle_alpha	87.165611
_cell_angle_beta	83.286886
_cell_angle_gamma	96.732812
loop_
_atom_site_label
_atom_site_type_symbol
_atom_site_fract_x
_atom_site_fract_y
_atom_site_fract_z
O1	O	1.046683	-0.088629	-0.006049
O2	O	1.546683	0.411371	0.493951
O3	O	0.816098	-0.100758	0.011140
O4	O	1.316098	0.399242	0.511140
O5	O	0.938047	0.006975	0.002027
O6	O	1.438047	0.506975	0.502027
O7	O	0.924734	-0.196362	0.003063
O8	O	1.424734	0.303638	0.503063
O9	O	0.945440	0.013493	-0.142414
O10	O	1.445440	0.513493	0.357586
O11	O	0.823491	-0.094240	-0.133301
O12	O	1.323491	0.405760	0.366699
O13	O	1.054076	-0.082111	-0.150490
O14	O	1.554076	0.417889	0.349510
Cu15	Cu	0.939459	-0.087580	-0.155085
Cu16	Cu	1.439459	0.412420	0.344915
Cu17	Cu	0.930715	-0.095289	0.015734
Cu18	Cu	1.430715	0.404711	0.515734
O19	O	0.932127	-0.189844	-0.141378
O20	O	1.432127	0.310156	0.358622
C21	C	0.790294	-0.097169	-0.058882
C22	C	1.290294	0.402831	0.441118
C23	C	0.702392	-0.096179	-0.052331
C24	C	1.202392	0.403821	0.447669
C25	C	0.665131	-0.092159	-0.127989
C26	C	1.165131	0.407841	0.372011
C27	C	0.582539	-0.091217	-0.121836
C28	C	1.082539	0.408783	0.378164
C29	C	0.537210	-0.094301	-0.040023
C30	C	1.037210	0.405699	0.459977
C31	C	0.574478	-0.098319	0.035642
C32	C	1.074478	0.401681	0.535642
C33	C	0.657068	-0.099256	0.029487
C34	C	1.157068	0.400744	0.529487
C35	C	0.287639	-0.091645	-0.017502
C36	C	0.787639	0.408355	0.482498
C37	C	0.205043	-0.090710	-0.011354
C38	C	0.705043	0.409290	0.488646
C39	C	0.213111	-0.083607	-0.168832
C40	C	0.713111	0.416393	0.331168
C41	C	0.295702	-0.084549	-0.174979
C42	C	0.795702	0.415451	0.325021
C43	C	0.332962	-0.088563	-0.099315
C44	C	0.832962	0.411437	0.400685
C45	C	0.452788	-0.093340	-0.033731
C46	C	0.952788	0.406660	0.466269
C47	C	0.417384	-0.089519	-0.105607
C48	C	0.917384	0.410481	0.394393
C49	C	0.941313	0.036244	-0.070165
C50	C	1.441313	0.536244	0.429835
C51	C	0.940020	0.113747	-0.070080
C52	C	1.440020	0.613747	0.429920
C53	C	1.011576	0.158794	-0.075420
C54	C	1.511576	0.658794	0.424580
C55	C	1.010360	0.231615	-0.075319
C56	C	1.510360	0.731615	0.424681
C57	C	0.937587	0.259387	-0.069895
C58	C	1.437587	0.759387	0.430105
C59	C	0.866022	0.214330	-0.064550
C60	C	1.366022	0.714330	0.435450
C61	C	0.867239	0.141510	-0.064642
C62	C	1.367239	0.641510	0.435358
N63	N	0.884477	0.369516	-0.114910
N64	N	1.384477	0.869516	0.385090
N65	N	0.883326	0.438692	-0.114825
N66	N	1.383326	0.938692	0.385175
C67	C	0.933916	0.478789	-0.069615
C68	C	1.433916	0.978789	0.430385
N69	N	0.985713	0.447099	-0.024506
N70	N	1.485713	0.947099	0.475494
N71	N	0.986866	0.377916	-0.024595
N72	N	1.486866	0.877916	0.475405
C73	C	0.936259	0.338347	-0.069794
C74	C	1.436259	0.838347	0.430206
C75	C	1.004158	0.602798	-0.074845
C76	C	1.504158	1.102798	0.425155
C77	C	1.002940	0.675620	-0.074739
C78	C	1.502940	1.175620	0.425261
C79	C	0.858600	0.658334	-0.063977
C80	C	1.358600	1.158334	0.436023
C81	C	0.859820	0.585513	-0.064075
C82	C	1.359820	1.085513	0.435925
C83	C	0.932602	0.557750	-0.069513
C84	C	1.432602	1.057750	0.430487
C85	C	1.079880	-0.085700	-0.080467
C86	C	1.579880	0.414300	0.419533
C87	C	1.167782	-0.086690	-0.087012
C88	C	1.667782	0.413310	0.412988
C89	C	0.928864	0.780888	-0.069196
C90	C	1.428864	1.280888	0.430804
C91	C	0.930165	0.703387	-0.069313
C92	C	1.430165	1.203387	0.430687
N93	N	0.924566	-0.100705	0.135878
N94	N	1.424566	0.399295	0.635878
N95	N	0.945614	-0.082158	-0.275229
N96	N	1.445614	0.417842	0.224771
C97	C	0.976338	-0.055142	0.177286
C98	C	1.476338	0.444858	0.677286
C99	C	0.971686	-0.059238	0.268207
C100	C	1.471686	0.440762	0.768207
C101	C	0.915258	-0.108893	0.317718
C102	C	1.415258	0.391107	0.817718
C103	C	0.863484	-0.154460	0.276304
C104	C	1.363484	0.345540	0.776304
C105	C	0.868140	-0.150368	0.185384
C106	C	1.368140	0.349632	0.685384
C107	C	0.898496	-0.123634	0.592437
C108	C	1.398496	0.376366	1.092437
C109	C	0.893842	-0.127721	0.683363
C110	C	1.393842	0.372279	1.183363
C111	C	1.002046	-0.032499	0.675259
C112	C	1.502046	0.467501	1.175259
C113	C	1.006694	-0.028408	0.584339
C114	C	1.506694	0.471592	1.084339
C115	C	0.954923	-0.073978	0.542933
C116	C	1.454923	0.426022	1.042933
C117	C	0.910500	-0.113078	0.410653
C118	C	1.410500	0.386922	0.910653
C119	C	0.959685	-0.069795	0.449998
C120	C	1.459685	0.430205	0.949998
H121	H	0.702031	-0.089654	-0.194611
H122	H	1.202031	0.410346	0.305389
H123	H	1.013843	-0.022137	0.301920
H124	H	1.513843	0.477863	0.801920
H125	H	1.063421	0.580192	-0.079269
H126	H	1.563421	1.080192	0.420731
C127	C	1.081655	0.725172	-0.080615
C128	C	1.581655	1.225172	0.419385
H129	H	1.125172	0.698205	-0.083875
H130	H	1.625172	1.198205	0.416125
H131	H	1.081609	0.751658	-0.030433
H132	H	1.581609	1.251658	0.469567
H133	H	1.086751	0.756219	-0.131178
H134	H	1.586751	1.256219	0.368822
C135	C	0.778550	0.688875	-0.058008
C136	C	1.278550	1.188875	0.441992
H137	H	0.788072	0.738696	-0.058722
H138	H	1.288072	1.238696	0.441278
H139	H	0.746519	0.671107	-0.005444
H140	H	1.246519	1.171107	0.494556
H141	H	0.751676	0.675672	-0.106190
H142	H	1.251676	1.175672	0.393810
C143	C	0.781109	0.535960	-0.058216
C144	C	1.281109	1.035960	0.441784
H145	H	0.737592	0.562928	-0.054978
H146	H	1.237592	1.062928	0.445022
H147	H	0.776002	0.504911	-0.007660
H148	H	1.276002	1.004911	0.492340
H149	H	0.781165	0.509479	-0.108407
H150	H	1.281165	1.009479	0.391593
C151	C	0.524618	-0.101712	0.125634
C152	C	1.024618	0.398288	0.625634
H153	H	0.470092	-0.100586	0.118465
H154	H	0.970092	0.399414	0.618465
H155	H	0.542678	-0.062609	0.156510
H156	H	1.042678	0.437391	0.656510
H157	H	0.530315	-0.144048	0.157444
H158	H	1.030315	0.355952	0.657444
H159	H	0.825983	-0.187471	0.151671
H160	H	1.325983	0.312529	0.651671
H161	H	1.022285	-0.014705	0.136980
H162	H	1.522285	0.485295	0.636980
H163	H	0.552207	-0.087932	-0.183446
H164	H	1.052207	0.412068	0.316554
C165	C	0.155180	-0.094118	0.078645
C166	C	0.655180	0.405882	0.578645
H167	H	0.189199	-0.096643	0.122827
H168	H	0.689199	0.403357	0.622827
H169	H	0.116619	-0.134624	0.084774
H170	H	0.616619	0.365376	0.584774
H171	H	0.128967	-0.053186	0.083858
H172	H	0.628967	0.446814	0.583858
H173	H	1.005632	-0.029368	0.409684
H174	H	1.505632	0.470632	0.909684
H175	H	1.068631	0.268299	-0.079665
H176	H	1.568631	0.768299	0.420335
H177	H	0.415872	-0.095850	0.032881
H178	H	0.915872	0.404150	0.532881
H179	H	1.052642	0.012025	0.544029
H180	H	1.552642	0.512025	1.044029
H181	H	0.864554	-0.153507	0.450973
H182	H	1.364554	0.346493	0.950973
H183	H	0.817541	-0.194894	0.316621
H184	H	1.317541	0.305106	0.816621
H185	H	1.044196	0.004602	0.708981
H186	H	1.544196	0.504602	1.208981
C187	C	0.328615	-0.096069	0.065726
C188	C	0.828615	0.403931	0.565726
H189	H	0.289786	-0.097780	0.115330
H190	H	0.789786	0.402220	0.615330
H191	H	0.366849	-0.055866	0.066134
H192	H	0.866849	0.444134	0.566134
H193	H	0.354480	-0.137305	0.067068
H194	H	0.854480	0.362695	0.567068
H195	H	0.847888	-0.168158	0.723671
H196	H	1.347888	0.331842	1.223671
C197	C	0.698059	-0.103679	0.112709
C198	C	1.198059	0.396321	0.612709
H199	H	0.753740	-0.103788	0.097328
H200	H	1.253740	0.396212	0.597328
H201	H	0.676686	-0.145701	0.146543
H202	H	1.176686	0.354299	0.646543
H203	H	0.689051	-0.064262	0.145596
H204	H	1.189051	0.435738	0.645596
H205	H	0.332604	-0.082035	-0.241600
H206	H	0.832604	0.417965	0.258400
H207	H	0.806769	0.236947	-0.060131
H208	H	1.306769	0.736947	0.439869
H209	H	1.070840	0.136194	-0.079845
H210	H	1.570840	0.636194	0.420155
H211	H	0.856340	-0.160737	0.558731
H212	H	1.356340	0.339263	1.058731
H213	H	0.808968	0.104832	-0.060293
H214	H	1.308968	0.604832	0.439707
H215	H	0.182764	-0.080338	-0.230434
H216	H	0.682764	0.419662	0.269566
H217	H	0.454294	-0.087005	-0.172219
H218	H	0.954294	0.412995	0.327781
