data_functionalizedCrystal
_audit_creation_method	'MofGen! by Chris Wilmer'
_symmetry_space_group_name_H-M	'P1'
_symmetry_Int_Tables_number	1
_symmetry_cell_setting	triclinic
loop_
_symmetry_equiv_pos_as_xyz
  x,y,z
_cell_length_a	12.645323
_cell_length_b	13.897449
_cell_length_c	13.897448
_cell_angle_alpha	90.018972
_cell_angle_beta	90.028168
_cell_angle_gamma	90.021328
loop_
_atom_site_label
_atom_site_type_symbol
_atom_site_fract_x
_atom_site_fract_y
_atom_site_fract_z
Zn1	Zn	-0.599384	-1.474708	0.383974
Zn2	Zn	-0.422114	-1.474601	0.545289
Zn3	Zn	-0.422132	-1.313396	0.384013
Zn4	Zn	-0.599333	-1.313379	0.545233
O5	O	-0.510741	-1.394021	0.464627
O6	O	-0.575882	-1.609676	0.405380
O7	O	-0.273769	-1.453178	0.523936
O8	O	-0.445674	-1.334846	0.249027
O9	O	-0.445642	-1.609596	0.523898
O10	O	-0.575900	-1.453362	0.248998
O11	O	-0.273783	-1.334742	0.405447
O12	O	-0.445625	-1.178412	0.405392
O13	O	-0.747687	-1.334818	0.523801
O14	O	-0.575814	-1.178400	0.523839
O15	O	-0.747725	-1.453346	0.405326
O16	O	-0.445593	-1.453162	0.680263
O17	O	-0.575796	-1.334713	0.680222
C18	C	-0.510717	-1.143407	0.464615
C19	C	-0.510731	-1.036193	0.464632
C20	C	-0.510710	-1.393951	0.715242
C21	C	-0.510732	-1.394009	0.822456
C22	C	-0.787246	-1.394092	0.464553
C23	C	-0.905076	-1.394122	0.464521
C24	C	-1.072617	-1.319326	0.538703
C25	C	-0.950057	-1.319522	0.539070
C26	C	-0.949592	-1.495758	0.492106
C27	C	-1.072190	-1.495348	0.492571
C28	C	-1.072281	-1.368243	0.362340
C29	C	-0.949675	-1.365976	0.362952
C30	C	-0.235311	-1.394006	0.464632
C31	C	-0.117482	-1.394162	0.464392
C32	C	-0.510766	-1.645614	0.464641
C33	C	-0.510776	-1.752828	0.464647
C34	C	-0.510759	-0.839898	0.464636
C35	C	-0.510741	-0.949130	0.464631
C36	C	-0.510795	-1.394118	0.213034
C37	C	-0.510818	-1.394159	0.105820
C38	C	-0.510799	-1.394110	1.018751
C39	C	-0.510765	-1.394051	0.909518
H40	H	-1.102094	-1.243736	0.521608
O41	O	-1.113433	-1.341765	0.638293
H42	H	-1.081294	-1.288516	0.690183
H43	H	-1.101870	-1.552997	0.440796
H44	H	-1.103189	-1.295421	0.337195
H45	H	-0.920738	-1.336632	0.614726
O46	O	-0.911005	-1.571608	0.422689
H47	H	-0.865316	-1.626895	0.462591
O48	O	-0.911121	-1.266911	0.335374
H49	H	-0.860402	-1.237835	0.393755
O50	O	-0.908952	-1.525365	0.589893
H51	H	-0.857062	-1.467863	0.619003
O52	O	-0.910189	-1.219696	0.516178
H53	H	-0.939615	-1.168410	0.571233
O54	O	-0.909135	-1.432903	0.285728
H55	H	-0.856336	-1.487521	0.318683
O56	O	-1.110096	-1.524432	0.591391
H57	H	-1.040861	-1.538653	0.638398
O58	O	-1.110716	-1.440433	0.288994
H59	H	-1.161764	-1.494513	0.324987
