data_functionalizedCrystal
_audit_creation_method	'MofGen! by Chris Wilmer'
_symmetry_space_group_name_H-M	'P1'
_symmetry_Int_Tables_number	1
_symmetry_cell_setting	triclinic
loop_
_symmetry_equiv_pos_as_xyz
  x,y,z
_cell_length_a	10.540539
_cell_length_b	14.519709
_cell_length_c	12.996460
_cell_angle_alpha	90.007090
_cell_angle_beta	90.003509
_cell_angle_gamma	84.102818
loop_
_atom_site_label
_atom_site_type_symbol
_atom_site_fract_x
_atom_site_fract_y
_atom_site_fract_z
O1	O	-1.684562	-0.129969	-0.085521
O2	O	-1.315024	-0.142215	-0.085534
O3	O	-1.509591	-0.001906	-0.085518
O4	O	-1.489995	-0.270278	-0.085537
O5	O	-1.509571	-0.001899	0.085616
O6	O	-1.315004	-0.142207	0.085600
O7	O	-1.684542	-0.129961	0.085613
Cu8	Cu	-1.499771	-0.136083	0.101232
Cu9	Cu	-1.499795	-0.136093	-0.101153
O10	O	-1.489975	-0.270270	0.085597
C11	C	-1.267720	-0.141293	0.000032
C12	C	-1.126800	-0.138545	0.000027
N13	N	-1.499763	-0.136076	0.243579
C14	C	-1.731846	-0.130884	0.000045
C15	C	-1.872766	-0.133631	0.000043
C16	C	-0.944448	-0.033266	0.000434
C17	C	-1.091038	-0.036051	0.000037
C18	C	-1.064636	-0.187874	-0.097699
C19	C	-0.918127	-0.184376	-0.097770
C20	C	-0.917594	-0.186452	0.096841
C21	C	-1.064567	-0.187396	0.098122
C22	C	-1.508668	0.032462	0.000049
C23	C	-1.505931	0.134858	0.000050
C24	C	-1.490899	-0.304639	0.000028
C25	C	-1.493635	-0.407035	0.000020
C26	C	-1.495856	0.509808	0.000023
C27	C	-1.498654	0.405485	0.000031
C28	C	-1.500893	0.322337	0.000037
C29	C	-1.503692	0.218007	0.000043
N30	N	-1.499813	-0.136093	-0.243500
C31	C	-1.499793	-0.136094	0.663394
C32	C	-1.499781	-0.136092	0.546589
C33	C	-1.499779	-0.136086	0.453490
C34	C	-1.499766	-0.136083	0.336678
H35	H	-1.134040	0.002763	0.070092
C36	C	-0.852306	-0.283954	-0.103786
C37	C	-0.761676	-0.321685	-0.017204
C38	C	-0.695866	-0.421261	-0.023231
C39	C	-0.720686	-0.483107	-0.115840
C40	C	-0.811320	-0.445377	-0.202429
C41	C	-0.877130	-0.345800	-0.196402
H42	H	-0.743299	-0.275903	0.051356
H43	H	-0.628773	-0.449191	0.040868
H44	H	-0.671970	-0.556819	-0.120301
H45	H	-0.829697	-0.491159	-0.270989
H46	H	-0.944224	-0.317870	-0.260501
H47	H	-1.105888	-0.151360	0.170419
H48	H	-1.086221	-0.263143	-0.101340
C49	C	-1.096252	-0.288348	0.106085
C50	C	-1.168671	-0.319973	0.200497
C51	C	-1.200355	-0.420929	0.208449
C52	C	-1.159621	-0.490262	0.121988
C53	C	-1.087197	-0.458639	0.027569
C54	C	-1.055513	-0.357682	0.019618
H55	H	-1.198829	-0.268648	0.264507
H56	H	-1.253968	-0.444338	0.278344
H57	H	-1.183075	-0.564996	0.127874
H58	H	-1.057039	-0.509964	-0.036440
H59	H	-1.001900	-0.334273	-0.050278
H60	H	-0.886378	-0.153279	0.170917
H61	H	-0.916268	0.007229	0.070519
H62	H	-0.914661	0.007051	-0.069255
C63	C	-1.147995	0.016732	-0.094764
C64	C	-1.060075	0.061547	-0.170349
C65	C	-1.117031	0.114328	-0.265158
C66	C	-1.261906	0.122294	-0.284382
C67	C	-1.349835	0.077478	-0.208795
C68	C	-1.292879	0.024697	-0.113986
H69	H	-0.952822	0.055651	-0.156120
H70	H	-1.051940	0.147504	-0.321112
H71	H	-1.304068	0.161366	-0.354565
H72	H	-1.457088	0.083374	-0.223024
H73	H	-1.357970	-0.008479	-0.058032
H74	H	-0.869612	-0.260483	0.097496
H75	H	-1.107583	-0.153614	-0.170423
C76	C	-0.880521	-0.135127	-0.196444
C77	C	-0.983751	-0.099250	-0.274629
C78	C	-0.946153	-0.049999	-0.373304
C79	C	-0.805324	-0.036625	-0.393794
C80	C	-0.702085	-0.072503	-0.315606
C81	C	-0.739683	-0.121754	-0.216931
H82	H	-1.088009	-0.109150	-0.259463
H83	H	-1.022578	-0.023440	-0.431184
H84	H	-0.777492	-0.000166	-0.466839
H85	H	-0.597827	-0.062603	-0.330772
H86	H	-0.663257	-0.148313	-0.159051
