data_functionalizedCrystal
_audit_creation_method	'MofGen! by Chris Wilmer'
_symmetry_space_group_name_H-M	'P1'
_symmetry_Int_Tables_number	1
_symmetry_cell_setting	triclinic
loop_
_symmetry_equiv_pos_as_xyz
  x,y,z
_cell_length_a	14.395555
_cell_length_b	14.560438
_cell_length_c	14.560438
_cell_angle_alpha	60.006784
_cell_angle_beta	90.000116
_cell_angle_gamma	60.001020
loop_
_atom_site_label
_atom_site_type_symbol
_atom_site_fract_x
_atom_site_fract_y
_atom_site_fract_z
Zr1	Zr	0.894914	1.005231	-0.120398
O2	O	0.746598	1.196809	-0.267014
O3	O	0.940376	0.813648	-0.075472
O4	O	0.940383	1.005233	-0.267047
O5	O	0.746591	1.005225	0.075700
O6	O	1.093250	1.005240	-0.267050
O7	O	0.746591	1.005225	-0.075440
O8	O	1.093237	0.662530	0.075641
O9	O	0.746604	1.347934	-0.266992
O10	O	1.073854	0.892456	-0.056291
O11	O	0.959771	0.892451	0.056505
O12	O	0.959780	1.118017	-0.169049
O13	O	0.845697	1.118012	-0.056253
Zr14	Zr	1.138720	1.005243	0.120646
Zr15	Zr	1.138720	1.005242	-0.120404
Zr16	Zr	0.894915	1.005232	0.120651
Zr17	Zr	0.894924	1.246259	-0.120363
Zr18	Zr	1.138710	0.764215	0.120610
O19	O	1.093259	1.196825	0.075720
O20	O	1.093258	1.196824	-0.267022
O21	O	0.746599	1.196810	0.075728
O22	O	1.287036	0.813665	0.267261
O23	O	1.287036	0.813664	-0.075480
O24	O	0.940376	0.813649	0.267270
O25	O	1.287044	1.005249	-0.075452
O26	O	1.093251	1.005241	0.267294
O27	O	0.940384	1.005234	0.267298
O28	O	1.287044	1.005249	0.075687
O29	O	0.940397	1.347943	-0.266996
O30	O	1.093237	0.662531	0.267244
O31	O	1.287030	0.662539	0.267239
O32	O	1.287030	0.662539	0.075637
O33	O	0.746604	1.347935	-0.075389
O34	O	0.940397	1.347944	-0.075394
O35	O	1.073855	0.892457	0.169296
O36	O	1.187937	0.892461	0.056500
O37	O	1.073863	1.118022	-0.056258
O38	O	0.959780	1.118018	0.056538
C39	C	1.016805	0.703748	0.000079
C40	C	1.016801	0.601425	0.000064
C41	C	0.711854	1.005223	0.000131
C42	C	0.608352	1.005219	0.000133
C43	C	0.932592	0.636548	-0.083154
C44	C	0.932610	0.540359	-0.083098
C45	C	1.101051	0.373926	0.083406
C46	C	1.101037	0.470114	0.083344
C47	C	0.835340	0.732636	-0.179282
C48	C	0.835359	0.636447	-0.179225
C49	C	0.609961	0.882233	0.061612
C50	C	0.516948	0.943714	0.106197
C51	C	0.516937	0.943742	-0.044419
C52	C	0.516702	1.066700	0.044780
C53	C	0.516705	1.066711	-0.105895
C54	C	0.423674	1.128282	-0.061337
C55	C	1.321781	1.005250	0.000117
C56	C	1.425283	1.005255	0.000114
C57	C	1.016817	1.005236	-0.301393
C58	C	1.016816	1.005236	-0.403725
C59	C	1.016829	1.306726	0.000168
C60	C	1.016834	1.409048	0.000183
C61	C	0.932602	1.005227	-0.451794
C62	C	0.932600	1.005232	-0.547948
C63	C	1.101037	1.005251	-0.547954
C64	C	1.101033	1.005255	-0.451806
C65	C	0.835359	1.005210	-0.451788
C66	C	0.835357	1.005216	-0.547943
C67	C	1.016818	1.005237	0.301640
C68	C	1.016818	1.005238	0.403972
C69	C	1.321769	0.703762	0.000072
C70	C	1.425266	0.601444	0.000055
C71	C	1.016806	0.703749	0.301596
C72	C	1.016802	0.601426	0.403913
C73	C	1.321769	0.703762	0.301589
C74	C	1.425267	0.601445	0.403904
C75	C	0.711865	1.306711	-0.301342
C76	C	0.608367	1.409029	-0.403656
C77	C	0.711866	1.306712	0.000175
C78	C	0.608368	1.409030	0.000192
C79	C	1.016829	1.306725	-0.301349
C80	C	1.016833	1.409047	-0.403666
C81	C	1.414343	0.553368	-0.058825
C82	C	1.511594	0.457237	-0.058845
C83	C	1.630689	0.457262	0.058904
C84	C	1.533439	0.553398	0.058917
C85	C	1.345584	0.553349	-0.126803
C86	C	1.442836	0.457218	-0.126823
C87	C	1.076352	0.553353	0.510858
C88	C	1.076339	0.457215	0.606991
C89	C	0.957224	0.457229	0.489222
C90	C	0.957231	0.553371	0.393091
C91	C	1.145126	0.553340	0.578851
C92	C	1.145113	0.457203	0.674985
C93	C	1.533441	0.553374	0.393096
C94	C	1.630684	0.457242	0.489235
C95	C	1.511566	0.457256	0.606987
C96	C	1.414325	0.553393	0.510849
C97	C	1.602213	0.553361	0.325113
C98	C	1.699457	0.457229	0.421253
H99	H	1.169617	0.441506	0.151100
H100	H	0.908727	0.592522	0.306015
F101	F	1.190696	0.234172	0.172033
H102	H	0.758010	1.098478	-0.624387
F103	F	0.893828	0.406079	0.477716
H104	H	0.516020	0.891736	0.195856
F105	F	0.846282	0.814952	-0.286631
H106	H	1.602235	0.643365	0.272929
F107	F	0.714205	0.746306	0.129655
F108	F	1.745818	0.406121	0.121546
H109	H	0.516024	0.891740	-0.082092
F110	F	0.319597	1.264321	-0.129287
H111	H	0.852349	0.636415	-0.255683
F112	F	1.190652	1.005287	-0.400659
H113	H	1.106881	0.643342	0.578883
H114	H	1.451662	0.493351	-0.213872
F115	F	0.517977	1.134593	-0.223062
H116	H	1.292792	0.643350	-0.216818
F117	F	0.846313	0.887063	-0.522991
F118	F	1.299199	0.604567	0.522358
F119	F	0.517780	1.134593	0.094154
H120	H	1.233169	0.517213	0.570115
H121	H	1.294087	0.517214	-0.081946
F122	F	0.726810	0.650571	-0.168361
H123	H	0.757997	0.792306	-0.162484
H124	H	1.099747	0.493329	0.725914
H125	H	1.236166	0.367191	0.727168
F126	F	1.545071	0.604575	0.121571
F127	F	1.499933	0.406109	0.720810
H128	H	1.593386	0.517229	0.274193
H129	H	1.169603	1.005267	-0.587113
H130	H	0.752303	1.095597	-0.470882
F131	F	0.857548	0.883320	-0.351868
F132	F	1.442834	0.339558	-0.077402
H133	H	1.750963	0.493360	0.429979
H134	H	1.752244	0.367211	0.421241
