data_functionalizedCrystal
_audit_creation_method	'MofGen! by Chris Wilmer'
_symmetry_space_group_name_H-M	'P1'
_symmetry_Int_Tables_number	1
_symmetry_cell_setting	triclinic
loop_
_symmetry_equiv_pos_as_xyz
  x,y,z
_cell_length_a	21.295418
_cell_length_b	25.639233
_cell_length_c	21.295418
_cell_angle_alpha	90.016707
_cell_angle_beta	89.955800
_cell_angle_gamma	89.967403
loop_
_atom_site_label
_atom_site_type_symbol
_atom_site_fract_x
_atom_site_fract_y
_atom_site_fract_z
Zn1	Zn	0.962296	-0.295895	0.250420
Zn2	Zn	1.462296	0.204105	0.750420
Zn3	Zn	0.962223	-0.208463	0.355671
Zn4	Zn	1.462223	0.291537	0.855671
Zn5	Zn	0.857039	-0.208443	0.250448
Zn6	Zn	1.357039	0.291557	0.750448
Zn7	Zn	0.856992	-0.295837	0.355684
Zn8	Zn	1.356992	0.204163	0.855684
O9	O	0.909638	-0.252160	0.303056
O10	O	1.409638	0.247840	0.803056
O11	O	1.050375	-0.284330	0.264364
O12	O	1.550375	0.215670	0.764364
O13	O	0.948259	-0.135295	0.341718
O14	O	1.448259	0.364705	0.841718
O15	O	0.871052	-0.220061	0.162355
O16	O	1.371052	0.279939	0.662355
O17	O	1.050322	-0.220093	0.341691
O18	O	1.550322	0.279907	0.841691
O19	O	0.948384	-0.284311	0.162334
O20	O	1.448384	0.215689	0.662334
O21	O	0.870981	-0.135281	0.264412
O22	O	1.370981	0.364719	0.764412
O23	O	0.768944	-0.220004	0.264426
O24	O	1.268944	0.279996	0.764426
O25	O	0.870972	-0.369010	0.341715
O26	O	1.370972	0.130990	0.841715
O27	O	0.768909	-0.284211	0.341742
O28	O	1.268909	0.215789	0.841742
O29	O	0.948338	-0.369053	0.264378
O30	O	1.448338	0.130947	0.764378
O31	O	0.948213	-0.220037	0.443762
O32	O	1.448213	0.279963	0.943762
O33	O	0.870901	-0.284230	0.443772
O34	O	1.370901	0.215770	0.943772
C35	C	0.746086	-0.252099	0.303089
C36	C	1.246086	0.247901	0.803089
C37	C	0.676118	-0.252086	0.303118
C38	C	1.176118	0.247914	0.803118
C39	C	0.909658	-0.388533	0.303045
C40	C	1.409658	0.111467	0.803045
C41	C	0.909666	-0.446647	0.303040
C42	C	1.409666	0.053353	0.803040
C43	C	0.643250	-0.285469	0.343430
C44	C	1.143250	0.214531	0.843430
C45	C	0.577507	-0.285492	0.343415
C46	C	1.077507	0.214508	0.843415
C47	C	0.544635	-0.252124	0.303094
C48	C	1.044635	0.247876	0.803094
C49	C	0.577511	-0.218738	0.262774
C50	C	1.077511	0.281262	0.762774
C51	C	0.643253	-0.218720	0.262786
C52	C	1.143253	0.281280	0.762786
N53	N	0.441370	-0.206394	0.298166
N54	N	0.941370	0.293606	0.798166
N55	N	0.378918	-0.206413	0.298158
N56	N	0.878918	0.293587	0.798158
C57	C	0.346561	-0.252179	0.303054
C58	C	0.846561	0.247821	0.803054
N59	N	0.379013	-0.297926	0.307970
N60	N	0.879013	0.202074	0.807970
N61	N	0.441471	-0.297906	0.307981
N62	N	0.941471	0.202094	0.807981
C63	C	0.473350	-0.252141	0.303076
C64	C	0.973350	0.247859	0.803076
C65	C	0.242407	-0.285590	0.343351
C66	C	0.742407	0.214410	0.843351
C67	C	0.176663	-0.285615	0.343331
C68	C	0.676663	0.214385	0.843331
C69	C	0.176669	-0.218856	0.262694
C70	C	0.676669	0.281144	0.762694
C71	C	0.242411	-0.218836	0.262710
C72	C	0.742411	0.281164	0.762710
C73	C	0.275276	-0.252203	0.303042
C74	C	0.775276	0.247797	0.803042
C75	C	0.950002	-0.807038	0.262651
C76	C	1.450002	-0.307038	0.762651
C77	C	0.950010	-0.861642	0.262634
C78	C	1.450010	-0.361642	0.762634
O79	O	0.984254	-0.889903	0.228367
O80	O	1.484254	-0.389903	0.728367
N81	N	0.909736	-0.888929	0.302892
N82	N	1.409736	-0.388929	0.802892
C83	C	0.869447	-0.861609	0.343167
C84	C	1.369447	-0.361609	0.843167
O85	O	0.835191	-0.889833	0.377408
O86	O	1.335191	-0.389833	0.877408
C87	C	0.869436	-0.807006	0.343181
C88	C	1.369436	-0.307006	0.843181
C89	C	0.909718	-0.779722	0.302924
C90	C	1.409718	-0.279722	0.802924
C91	C	0.990279	-0.779754	0.222397
C92	C	1.490279	-0.279754	0.722397
C93	C	0.990272	-0.725153	0.222415
C94	C	1.490272	-0.225153	0.722415
C95	C	0.949988	-0.697837	0.262688
C96	C	1.449988	-0.197837	0.762688
C97	C	0.909710	-0.725121	0.302942
C98	C	1.409710	-0.225121	0.802942
C99	C	0.829145	-0.779687	0.383452
C100	C	1.329145	-0.279687	0.883452
C101	C	0.829138	-0.725080	0.383461
C102	C	1.329138	-0.225080	0.883461
C103	C	0.869419	-0.697795	0.343204
C104	C	1.369419	-0.197795	0.843204
C105	C	0.869419	-0.643204	0.343233
C106	C	1.369419	-0.143204	0.843233
N107	N	0.909693	-0.615917	0.302974
N108	N	1.409693	-0.115917	0.802974
C109	C	0.949977	-0.643233	0.262701
C110	C	1.449977	-0.143233	0.762701
C111	C	0.869471	-0.976280	0.343134
C112	C	1.369471	-0.476280	0.843134
C113	C	0.869484	-1.030882	0.343124
C114	C	1.369484	-0.530882	0.843124
C115	C	0.950047	-1.030912	0.262590
C116	C	1.450047	-0.530912	0.762590
C117	C	0.950036	-0.976308	0.262603
C118	C	1.450036	-0.476308	0.762603
C119	C	0.909745	-0.948993	0.302875
C120	C	1.409745	-0.448993	0.802875
C121	C	0.949960	-0.528568	0.262744
C122	C	1.449960	-0.028568	0.762744
C123	C	0.949951	-0.473963	0.262767
C124	C	1.449951	0.026037	0.762767
C125	C	0.869387	-0.473938	0.343299
C126	C	1.369387	0.026062	0.843299
C127	C	0.869398	-0.528539	0.343278
C128	C	1.369398	-0.028539	0.843278
C129	C	0.909686	-0.555853	0.302995
C130	C	1.409686	-0.055853	0.802995
O131	O	0.835191	-0.614909	0.377480
O132	O	1.335191	-0.114909	0.877480
O133	O	0.984222	-0.615003	0.228460
O134	O	1.484222	-0.115003	0.728460
C135	C	1.073828	-0.252220	0.303023
C136	C	1.573828	0.247780	0.803023
C137	C	1.143796	-0.252246	0.303009
C138	C	1.643796	0.247754	0.803009
C139	C	0.909561	-0.252140	0.466607
C140	C	1.409561	0.247860	0.966607
C141	C	0.909586	-0.252150	0.536576
C142	C	1.409586	0.247850	1.036576
C143	C	0.909654	-0.116317	0.303021
C144	C	1.409654	0.383683	0.803021
C145	C	0.909767	-0.058203	0.302849
C146	C	1.409767	0.441797	0.802849
C147	C	0.909731	-0.252190	0.138866
C148	C	1.409731	0.247810	0.638866
C149	C	0.909771	-0.252203	0.068897
C150	C	1.409771	0.247797	0.568897
C151	C	0.949982	-0.285682	1.035969
C152	C	1.449982	0.214318	1.535969
C153	C	0.949964	-0.285674	0.970227
C154	C	1.449964	0.214326	1.470227
C155	C	0.909723	-0.252192	0.937415
C156	C	1.409723	0.247808	1.437415
C157	C	0.869510	-0.218707	0.970351
C158	C	1.369510	0.281293	1.470351
C159	C	0.869534	-0.218713	1.036092
C160	C	1.369534	0.281287	1.536092
N161	N	0.854587	-0.248115	0.834260
N162	N	1.354587	0.251885	1.334260
N163	N	0.854566	-0.248112	0.771808
N164	N	1.354566	0.251888	1.271808
C165	C	0.909649	-0.252173	0.739340
C166	C	1.409649	0.247827	1.239340
N167	N	0.964756	-0.256245	0.771683
N168	N	1.464756	0.243755	1.271683
N169	N	0.964776	-0.256250	0.834140
N170	N	1.464776	0.243750	1.334140
C171	C	0.909693	-0.252182	0.866130
C172	C	1.409693	0.247818	1.366130
C173	C	0.949844	-0.285644	0.635127
C174	C	1.449844	0.214356	1.135127
C175	C	0.949826	-0.285632	0.569383
C176	C	1.449826	0.214368	1.069383
C177	C	0.869366	-0.218668	0.569508
C178	C	1.369366	0.281332	1.069508
C179	C	0.869389	-0.218678	0.635251
C180	C	1.369389	0.281322	1.135251
C181	C	0.909627	-0.252168	0.668056
C182	C	1.409627	0.247832	1.168056
H183	H	0.670004	-0.312639	0.376271
H184	H	1.170004	0.187361	0.876271
H185	H	0.982755	-0.451750	0.229985
H186	H	1.482755	0.048250	0.729985
H187	H	0.836604	-0.191405	0.542793
H188	H	1.336604	0.308595	1.042793
Br189	Br	0.132055	-0.330929	0.398040
Br190	Br	0.632055	0.169071	0.898040
Br191	Br	0.814827	-1.067904	0.397773
Br192	Br	1.314827	-0.567904	0.897773
Br193	Br	1.004633	-0.565628	0.208069
Br194	Br	1.504633	-0.065628	0.708069
H195	H	0.836590	-0.451688	0.376090
H196	H	1.336590	0.048312	0.876090
Br197	Br	0.814811	-0.173242	0.679942
Br198	Br	1.314811	0.326758	1.179942
H199	H	0.796344	-0.801892	0.416233
H200	H	1.296344	-0.301892	0.916233
H201	H	0.149905	-0.191689	0.229861
H202	H	0.649905	0.308311	0.729861
Br203	Br	1.004719	-1.067994	0.207933
Br204	Br	1.504719	-0.567994	0.707933
H205	H	0.550740	-0.312679	0.376241
H206	H	1.050740	0.187321	0.876241
H207	H	0.796320	-0.702842	0.416250
H208	H	1.296320	-0.202842	0.916250
Br209	Br	1.044939	-0.688133	0.167774
Br210	Br	1.544939	-0.188133	0.667774
Br211	Br	1.004457	-0.331089	0.679652
Br212	Br	1.504457	0.168911	1.179652
H213	H	0.550743	-0.191570	0.229943
H214	H	1.050743	0.308430	0.729943
Br215	Br	0.814789	-0.939215	0.397798
Br216	Br	1.314789	-0.439215	0.897798
H217	H	0.836603	-0.550755	0.376064
H218	H	1.336603	-0.050755	0.876064
H219	H	0.982752	-0.312948	1.062676
H220	H	1.482752	0.187052	1.562676
H221	H	0.269167	-0.312762	0.376189
H222	H	0.769167	0.187238	0.876189
Br223	Br	1.044966	-0.816815	0.167741
Br224	Br	1.544966	-0.316815	0.667741
Br225	Br	0.814901	-0.173264	0.925822
Br226	Br	1.314901	0.326736	1.425822
Br227	Br	0.687863	-0.173412	0.208071
Br228	Br	1.187863	0.326588	0.708071
Br229	Br	0.287021	-0.173528	0.207998
Br230	Br	0.787021	0.326472	0.707998
Br231	Br	1.004541	-0.331111	0.925529
Br232	Br	1.504541	0.168889	1.425529
H233	H	0.982836	-0.954097	0.229821
H234	H	1.482836	-0.454097	0.729821
H235	H	0.836788	-0.191450	1.062902
H236	H	1.336788	0.308550	1.562902
H237	H	0.982574	-0.312893	0.542573
H238	H	1.482574	0.187107	1.042573
