data_functionalizedCrystal
_audit_creation_method	'MofGen! by Chris Wilmer'
_symmetry_space_group_name_H-M	'P1'
_symmetry_Int_Tables_number	1
_symmetry_cell_setting	triclinic
loop_
_symmetry_equiv_pos_as_xyz
  x,y,z
_cell_length_a	12.837943
_cell_length_b	19.188930
_cell_length_c	11.892095
_cell_angle_alpha	93.870839
_cell_angle_beta	85.689438
_cell_angle_gamma	88.986861
loop_
_atom_site_label
_atom_site_type_symbol
_atom_site_fract_x
_atom_site_fract_y
_atom_site_fract_z
O1	O	1.381278	0.177430	-0.094009
O2	O	1.079513	0.168466	-0.094014
O3	O	1.239102	0.071891	-0.093990
O4	O	1.221689	0.274006	-0.094034
O5	O	1.225796	0.079929	0.094016
O6	O	1.066207	0.176505	0.093991
O7	O	1.367972	0.185469	0.093996
Zn8	Zn	1.214977	0.182263	0.123844
Zn9	Zn	1.232508	0.171672	-0.123862
O10	O	1.208383	0.282044	0.093971
C11	C	1.034253	0.169458	-0.000012
C12	C	0.919217	0.160427	-0.000013
C13	C	0.677767	0.268994	-0.000021
C14	C	0.569680	0.260512	-0.000021
C15	C	0.594952	0.134982	-0.000005
C16	C	0.703040	0.143464	-0.000005
C17	C	0.744443	0.210472	-0.000015
C18	C	0.852533	0.218953	-0.000023
C19	C	0.877803	0.093423	0.000001
C20	C	0.769716	0.084941	0.000001
C21	C	1.231885	0.049861	0.000016
C22	C	1.230191	-0.027760	0.000026
C23	C	1.323833	-0.066260	0.000033
C24	C	1.322244	-0.139194	0.000015
C25	C	1.227006	-0.173623	0.000012
C26	C	1.133352	-0.135114	-0.000001
C27	C	1.134944	-0.062182	0.000006
N28	N	1.149679	-0.283886	0.063993
N29	N	1.148172	-0.353168	0.063989
C30	C	1.222201	-0.393362	-0.000010
N31	N	1.297809	-0.361657	-0.063992
N32	N	1.299318	-0.292369	-0.063982
C33	C	1.225268	-0.252705	0.000004
C34	C	1.314126	-0.510946	-0.000025
C35	C	1.312534	-0.583882	-0.000050
C36	C	1.123638	-0.579799	-0.000054
C37	C	1.125234	-0.506866	-0.000041
C38	C	1.220481	-0.472444	-0.000020
C39	C	1.413232	0.184477	-0.000009
C40	C	1.528268	0.193508	-0.000015
C41	C	1.215600	0.304074	-0.000037
C42	C	1.217294	0.381694	-0.000054
N43	N	1.203020	0.189491	0.292896
N44	N	1.244474	0.164439	-0.292914
C45	C	1.327677	0.114101	0.529563
C46	C	1.319327	0.119160	0.647904
C47	C	1.177964	0.204661	0.647920
C48	C	1.186314	0.199603	0.529579
C49	C	1.261175	0.154323	0.470405
C50	C	1.269529	0.149269	0.352062
C51	C	1.128162	0.234767	0.352080
C52	C	1.119812	0.239825	0.470421
H53	H	0.515395	0.308167	-0.000023
H54	H	0.735989	0.030385	0.000021
O55	O	0.554553	0.069943	-0.000034
C56	C	0.444852	0.075012	0.000005
H57	H	0.421752	0.126272	-0.035602
H58	H	0.415693	0.029370	-0.054559
H59	H	0.408404	0.073492	0.090207
O60	O	1.063408	0.273807	0.294734
C61	C	0.958834	0.256827	0.323646
H62	H	0.953011	0.233602	0.409573
H63	H	0.907282	0.306055	0.327695
H64	H	0.931648	0.217096	0.257052
H65	H	0.711478	0.323555	-0.000030
O66	O	0.942718	0.036647	0.000053
C67	C	1.047001	0.058497	0.000014
H68	H	1.048389	0.115115	0.035607
H69	H	1.092293	0.023965	0.054592
H70	H	1.084647	0.054080	-0.090185
H71	H	0.886241	0.273515	-0.000028
H72	H	1.046093	-0.607831	-0.000062
H73	H	1.401391	-0.038239	0.000046
H74	H	1.373479	0.086407	0.696067
H75	H	1.398501	-0.170548	0.000016
H76	H	1.055808	-0.163150	-0.000005
H77	H	1.058687	-0.030834	0.000001
O78	O	1.105104	0.248554	0.705367
C79	C	1.004619	0.229115	0.676451
H80	H	1.006674	0.171811	0.643908
H81	H	0.947085	0.236975	0.754291
H82	H	0.978842	0.262839	0.607775
O83	O	1.406740	-0.477616	-0.000075
C84	C	1.489052	-0.527242	-0.000061
H85	H	1.462745	-0.580149	-0.035657
H86	H	1.559424	-0.509923	-0.054648
H87	H	1.511549	-0.531780	0.090131
O88	O	1.403491	-0.621322	-0.000248
C89	C	1.415109	-0.667790	-0.097612
H90	H	1.366814	-0.647553	-0.165669
H91	H	1.500937	-0.671811	-0.130288
H92	H	1.386973	-0.721579	-0.075614
O93	O	1.034169	-0.469565	0.000017
C94	C	0.949767	-0.515591	-0.000017
H95	H	0.973800	-0.566660	0.035570
H96	H	0.880311	-0.490764	0.054568
H97	H	0.926940	-0.526564	-0.090214
O98	O	1.342135	0.105170	0.294653
C99	C	1.323541	0.036199	0.323647
H100	H	1.238271	0.031720	0.356180
H101	H	1.341113	-0.001379	0.245848
H102	H	1.376201	0.022482	0.392353
O103	O	1.400423	0.070065	0.472250
C104	C	1.457354	0.035665	0.549842
H105	H	1.408921	0.035637	0.634211
H106	H	1.475836	-0.020480	0.515654
H107	H	1.533341	0.064019	0.562405
O108	O	1.047145	0.283900	0.527780
C109	C	1.065737	0.352888	0.498870
H110	H	1.111751	0.351802	0.412940
H111	H	0.987974	0.381880	0.494827
H112	H	1.112517	0.380769	0.565462
