data_functionalizedCrystal
_audit_creation_method	'MofGen! by Chris Wilmer'
_symmetry_space_group_name_H-M	'P1'
_symmetry_Int_Tables_number	1
_symmetry_cell_setting	triclinic
loop_
_symmetry_equiv_pos_as_xyz
  x,y,z
_cell_length_a	29.839134
_cell_length_b	29.839134
_cell_length_c	21.395355
_cell_angle_alpha	89.963393
_cell_angle_beta	89.999064
_cell_angle_gamma	90.007368
loop_
_atom_site_label
_atom_site_type_symbol
_atom_site_fract_x
_atom_site_fract_y
_atom_site_fract_z
Zn1	Zn	0.178992	0.686904	-0.354548
Zn2	Zn	0.512326	1.020237	-0.021214
Zn3	Zn	0.845659	1.353571	0.312119
Zn4	Zn	0.254107	0.686874	-0.249806
Zn5	Zn	0.587441	1.020208	0.083528
Zn6	Zn	0.920774	1.353541	0.416861
Zn7	Zn	0.178983	0.611771	-0.249762
Zn8	Zn	0.512316	0.945104	0.083571
Zn9	Zn	0.845649	1.278437	0.416904
Zn10	Zn	0.254086	0.611789	-0.354524
Zn11	Zn	0.587420	0.945122	-0.021191
Zn12	Zn	0.920753	1.278456	0.312143
O13	O	0.216542	0.649334	-0.302160
O14	O	0.549876	0.982668	0.031173
O15	O	0.883209	1.316001	0.364507
O16	O	0.188969	0.749767	-0.340682
O17	O	0.522303	1.083100	-0.007348
O18	O	0.855636	1.416434	0.325985
O19	O	0.244147	0.676892	-0.162122
O20	O	0.577480	1.010225	0.171211
O21	O	0.910814	1.343558	0.504545
O22	O	0.116117	0.621742	-0.263654
O23	O	0.449450	0.955075	0.069679
O24	O	0.782784	1.288409	0.403012
O25	O	0.244156	0.749745	-0.263728
O26	O	0.577489	1.083079	0.069605
O27	O	0.910823	1.416412	0.402938
O28	O	0.116124	0.676942	-0.340639
O29	O	0.449457	1.010275	-0.007306
O30	O	0.782791	1.343609	0.326027
O31	O	0.188953	0.621713	-0.162090
O32	O	0.522286	0.955047	0.171243
O33	O	0.855620	1.288380	0.504576
O34	O	0.188933	0.548906	-0.263631
O35	O	0.522266	0.882239	0.069702
O36	O	0.855599	1.215573	0.403036
O37	O	0.244120	0.621773	-0.442205
O38	O	0.577453	0.955106	-0.108872
O39	O	0.910787	1.288440	0.224462
O40	O	0.244111	0.548919	-0.340599
O41	O	0.577444	0.882253	-0.007266
O42	O	0.910778	1.215586	0.326068
O43	O	0.188949	0.676960	-0.442222
O44	O	0.522282	1.010293	-0.108889
O45	O	0.855615	1.343626	0.224444
O46	O	0.316972	0.676909	-0.263705
O47	O	0.650305	1.010243	0.069628
O48	O	0.983638	1.343576	0.402962
O49	O	0.316956	0.621744	-0.340641
O50	O	0.650290	0.955078	-0.007308
O51	O	0.983623	1.288411	0.326026
C52	C	0.216519	0.532612	-0.302108
C53	C	0.549852	0.865945	0.031225
C54	C	0.883186	1.199279	0.364559
C55	C	0.216520	0.482677	-0.302101
C56	C	0.549853	0.816011	0.031233
C57	C	0.883186	1.149344	0.364566
C58	C	0.099364	0.649343	-0.302145
C59	C	0.432697	0.982677	0.031189
C60	C	0.766031	1.316010	0.364522
C61	C	0.049429	0.649347	-0.302138
C62	C	0.382763	0.982680	0.031195
C63	C	0.716096	1.316014	0.364529
C64	C	0.187768	0.126071	-0.262165
C65	C	0.521102	0.459404	0.071169
C66	C	0.854435	0.792737	0.404502
C67	C	0.187756	0.313744	-0.262127
C68	C	0.521089	0.647077	0.071207
C69	C	0.854422	0.980411	0.404540
O70	O	0.163272	0.337992	-0.228113
O71	O	0.496606	0.671325	0.105220
O72	O	0.829939	1.004658	0.438554
N73	N	0.216527	0.337232	-0.302132
N74	N	0.549860	0.670566	0.031201
N75	N	0.883194	1.003899	0.364534
C76	C	0.245301	0.313800	-0.342153
C77	C	0.578635	0.647133	-0.008820
C78	C	0.911968	0.980466	0.324513
O79	O	0.269769	0.338084	-0.376184
O80	O	0.603103	0.671418	-0.042851
O81	O	0.936436	1.004751	0.290482
C82	C	0.245311	0.126127	-0.342194
C83	C	0.578645	0.459461	-0.008861
C84	C	0.911978	0.792794	0.324473
C85	C	0.216542	0.102641	-0.302181
C86	C	0.549875	0.435975	0.031152
C87	C	0.883208	0.769308	0.364485
C88	C	0.159001	0.102585	-0.222155
C89	C	0.492334	0.435918	0.111178
C90	C	0.825667	0.769251	0.444511
C91	C	0.159006	0.055669	-0.222163
C92	C	0.492339	0.389003	0.111170
C93	C	0.825672	0.722336	0.444504
C94	C	0.187779	0.032240	-0.262180
C95	C	0.521112	0.365573	0.071154
C96	C	0.854445	0.698907	0.404487
C97	C	0.216547	0.055726	-0.302189
C98	C	0.549880	0.389059	0.031145
C99	C	0.883213	0.722393	0.364478
C100	C	0.274083	0.102696	-0.382218
C101	C	0.607416	0.436029	-0.048885
C102	C	0.940750	0.769362	0.284449
C103	C	0.274082	0.055775	-0.382226
C104	C	0.607416	0.389108	-0.048892
C105	C	0.940749	0.722441	0.284441
C106	C	0.245312	0.032289	-0.342213
C107	C	0.578646	0.365622	-0.008879
C108	C	0.911979	0.698955	0.324454
C109	C	0.245325	-0.014619	-0.342213
C110	C	0.578658	0.318714	-0.008880
C111	C	0.911992	0.652048	0.324454
N112	N	0.216554	-0.038107	-0.302207
N113	N	0.549887	0.295226	0.031126
N114	N	0.883220	0.628559	0.364460
C115	C	0.187781	-0.014678	-0.262190
C116	C	0.521114	0.318655	0.071143
C117	C	0.854447	0.651989	0.404476
C118	C	0.245295	0.412330	-0.342128
C119	C	0.578628	0.745664	-0.008795
C120	C	0.911961	1.078997	0.324538
C121	C	0.245293	0.459248	-0.342117
C122	C	0.578626	0.792581	-0.008784
C123	C	0.911959	1.125915	0.324549
C124	C	0.187746	0.459189	-0.262091
C125	C	0.521080	0.792522	0.071242
C126	C	0.854413	1.125856	0.404575
C127	C	0.187751	0.412270	-0.262099
C128	C	0.521084	0.745604	0.071234
C129	C	0.854418	1.078937	0.404567
C130	C	0.216523	0.388842	-0.302123
C131	C	0.549857	0.722175	0.031211
C132	C	0.883190	1.055508	0.364544
C133	C	0.187794	-0.113204	-0.262209
C134	C	0.521127	0.220130	0.071124
C135	C	0.854461	0.553463	0.404458
C136	C	0.187803	-0.160123	-0.262218
C137	C	0.521136	0.173210	0.071115
C138	C	0.854470	0.506543	0.404449
C139	C	0.245347	-0.160060	-0.342246
C140	C	0.578681	0.173273	-0.008913
C141	C	0.912014	0.506606	0.324420
C142	C	0.245340	-0.113145	-0.342235
C143	C	0.578674	0.220189	-0.008902
C144	C	0.912007	0.553522	0.324432
C145	C	0.216560	-0.089718	-0.302214
C146	C	0.549893	0.243616	0.031119
C147	C	0.883227	0.576949	0.364452
O148	O	0.269792	-0.038896	-0.376214
O149	O	0.603125	0.294438	-0.042880
O150	O	0.936459	0.627771	0.290453
O151	O	0.163309	-0.038971	-0.228174
O152	O	0.496643	0.294363	0.105159
O153	O	0.829976	0.627696	0.438492
C154	C	0.187763	0.172986	-0.262157
C155	C	0.521097	0.506320	0.071176
C156	C	0.854430	0.839653	0.404510
C157	C	0.216531	0.196472	-0.302166
C158	C	0.549864	0.529806	0.031167
C159	C	0.883198	0.863139	0.364500
C160	C	0.245304	0.173043	-0.342183
C161	C	0.578638	0.506376	-0.008850
C162	C	0.911971	0.839710	0.324484
C163	C	0.216529	0.243390	-0.302155
C164	C	0.549863	0.576723	0.031178
C165	C	0.883196	0.910057	0.364511
C166	C	0.187756	0.266820	-0.262139
C167	C	0.521090	0.600153	0.071195
C168	C	0.854423	0.933486	0.404528
C169	C	0.158985	0.243331	-0.222133
C170	C	0.492318	0.576664	0.111200
C171	C	0.825652	0.909998	0.444534
C172	C	0.158990	0.196416	-0.222140
C173	C	0.492324	0.529749	0.111193
C174	C	0.825657	0.863082	0.444526
C175	C	0.274075	0.196531	-0.382189
C176	C	0.607409	0.529865	-0.048855
C177	C	0.940742	0.863198	0.284478
C178	C	0.274068	0.243447	-0.382177
C179	C	0.607402	0.576780	-0.048844
C180	C	0.940735	0.910114	0.284489
C181	C	0.245295	0.266876	-0.342161
C182	C	0.578629	0.600210	-0.008827
C183	C	0.911962	0.933543	0.324506
C184	C	-0.260225	0.620644	-0.342247
C185	C	0.073109	0.953978	-0.008914
C186	C	0.406442	1.287311	0.324420
C187	C	-0.447898	0.620654	-0.342266
C188	C	-0.114565	0.953987	-0.008933
C189	C	0.218769	1.287320	0.324400
O190	O	-0.472172	0.596243	-0.376353
O191	O	-0.138839	0.929576	-0.043019
O192	O	0.194495	1.262909	0.290314
N193	N	-0.471356	0.649375	-0.302211
N194	N	-0.138022	0.982708	0.031122
N195	N	0.195311	1.316042	0.364456
C196	C	-0.447892	0.678098	-0.262151
C197	C	-0.114559	1.011431	0.071183
C198	C	0.218774	1.344765	0.404516
O199	O	-0.472151	0.702531	-0.228086
O200	O	-0.138818	1.035864	0.105247
O201	O	0.194516	1.369197	0.438580
C202	C	-0.260220	0.678091	-0.262135
C203	C	0.073113	1.011424	0.071198
C204	C	0.406447	1.344757	0.404531
C205	C	-0.236765	0.649364	-0.302189
C206	C	0.096569	0.982698	0.031145
C207	C	0.429902	1.316031	0.364478
C208	C	-0.236769	0.591921	-0.382298
C209	C	0.096564	0.925254	-0.048965
C210	C	0.429897	1.258587	0.284369
C211	C	-0.189854	0.591917	-0.382290
C212	C	0.143479	0.925250	-0.048957
C213	C	0.476813	1.258583	0.284376
C214	C	-0.166394	0.620637	-0.342232
C215	C	0.166939	0.953970	-0.008899
C216	C	0.500273	1.287303	0.324435
C217	C	-0.189849	0.649360	-0.302181
C218	C	0.143484	0.982694	0.031152
C219	C	0.476817	1.316027	0.364486
C220	C	-0.236758	0.706816	-0.222079
C221	C	0.096576	1.040149	0.111255
C222	C	0.429909	1.373482	0.444588
C223	C	-0.189837	0.706812	-0.222079
C224	C	0.143497	1.040145	0.111254
C225	C	0.476830	1.373479	0.444587
C226	C	-0.166381	0.678086	-0.262133
C227	C	0.166952	1.011419	0.071200
C228	C	0.500285	1.344752	0.404534
C229	C	-0.119474	0.678077	-0.262115
C230	C	0.213860	1.011410	0.071218
C231	C	0.547193	1.344743	0.404552
N232	N	-0.096016	0.649355	-0.302171
N233	N	0.237317	0.982689	0.031163
N234	N	0.570651	1.316022	0.364496
C235	C	-0.119476	0.620635	-0.342229
C236	C	0.213857	0.953969	-0.008896
C237	C	0.547191	1.287302	0.324438
C238	C	-0.546423	0.678099	-0.262161
C239	C	-0.213090	1.011433	0.071172
C240	C	0.120244	1.344766	0.404506
C241	C	-0.593341	0.678101	-0.262164
C242	C	-0.260007	1.011434	0.071169
C243	C	0.073326	1.344767	0.404503
C244	C	-0.593343	0.620657	-0.342280
C245	C	-0.260010	0.953990	-0.008947
C246	C	0.073324	1.287323	0.324386
C247	C	-0.546424	0.620653	-0.342274
C248	C	-0.213091	0.953987	-0.008940
C249	C	0.120242	1.287320	0.324393
C250	C	-0.522965	0.649378	-0.302216
C251	C	-0.189632	0.982711	0.031117
C252	C	0.143702	1.316045	0.364450
C253	C	-0.020950	0.620629	-0.342209
C254	C	0.312383	0.953963	-0.008876
C255	C	0.645716	1.287296	0.324457
C256	C	0.025969	0.620627	-0.342196
C257	C	0.359303	0.953960	-0.008863
C258	C	0.692636	1.287294	0.324470
C259	C	0.025968	0.678072	-0.262083
C260	C	0.359301	1.011406	0.071251
C261	C	0.692634	1.344739	0.404584
C262	C	-0.020948	0.678073	-0.262093
C263	C	0.312385	1.011407	0.071240
C264	C	0.645719	1.344740	0.404574
C265	C	-0.044406	0.649350	-0.302161
C266	C	0.288928	0.982684	0.031172
C267	C	0.622261	1.316017	0.364505
O268	O	-0.095171	0.702478	-0.228052
O269	O	0.238163	1.035812	0.105282
O270	O	0.571496	1.369145	0.438615
O271	O	-0.095209	0.596213	-0.376298
O272	O	0.238124	0.929547	-0.042965
O273	O	0.571457	1.262880	0.290368
C274	C	-0.307140	0.620648	-0.342255
C275	C	0.026193	0.953981	-0.008921
C276	C	0.359526	1.287315	0.324412
C277	C	-0.330596	0.649372	-0.302204
C278	C	0.002738	0.982705	0.031129
C279	C	0.336071	1.316038	0.364463
C280	C	-0.307136	0.678092	-0.262146
C281	C	0.026198	1.011425	0.071188
C282	C	0.359531	1.344758	0.404521
C283	C	-0.377513	0.649373	-0.302207
C284	C	-0.044180	0.982706	0.031126
C285	C	0.289153	1.316040	0.364460
C286	C	-0.400974	0.620653	-0.342265
C287	C	-0.067640	0.953986	-0.008932
C288	C	0.265693	1.287320	0.324401
C289	C	-0.377516	0.591932	-0.382321
C290	C	-0.044182	0.925265	-0.048987
C291	C	0.289151	1.258598	0.284346
C292	C	-0.330600	0.591928	-0.382313
C293	C	0.002733	0.925261	-0.048980
C294	C	0.336066	1.258595	0.284354
C295	C	-0.330593	0.706813	-0.222090
C296	C	0.002740	1.040146	0.111243
C297	C	0.336073	1.373480	0.444576
C298	C	-0.377509	0.706814	-0.222101
C299	C	-0.044176	1.040147	0.111233
C300	C	0.289158	1.373481	0.444566
C301	C	-0.400969	0.678094	-0.262159
C302	C	-0.067636	1.011427	0.071174
C303	C	0.265698	1.344761	0.404508
C304	C	0.333265	0.649338	-0.302189
C305	C	0.666598	0.982671	0.031144
C306	C	0.999931	1.316005	0.364478
C307	C	0.383199	0.649381	-0.302222
C308	C	0.716533	0.982714	0.031111
C309	C	1.049866	1.316047	0.364444
C310	C	0.216533	0.649372	-0.465583
C311	C	0.549866	0.982705	-0.132250
C312	C	0.883200	1.316038	0.201083
C313	C	0.216529	0.649388	-0.535225
C314	C	0.549863	0.982721	-0.201891
C315	C	0.883196	1.316054	0.131442
C316	C	0.216566	0.766513	-0.302212
C317	C	0.549899	1.099846	0.031121
C318	C	0.883233	1.433179	0.364454
C319	C	0.216576	0.816447	-0.302235
C320	C	0.549909	1.149781	0.031099
C321	C	0.883243	1.483114	0.364432
C322	C	0.187800	0.678122	-0.567948
C323	C	0.521134	1.011455	-0.234614
C324	C	0.854467	1.344789	0.098719
C325	C	0.187781	0.678121	-0.633383
C326	C	0.521114	1.011455	-0.300050
C327	C	0.854448	1.344788	0.033283
C328	C	0.216499	0.649391	-0.666093
C329	C	0.549832	0.982724	-0.332760
C330	C	0.883165	1.316058	0.000574
C331	C	0.245230	0.620651	-0.633362
C332	C	0.578563	0.953984	-0.300029
C333	C	0.911896	1.287318	0.033305
C334	C	0.245245	0.620649	-0.567928
C335	C	0.578578	0.953983	-0.234594
C336	C	0.911912	1.287316	0.098739
C337	C	0.256949	0.645845	-0.769777
C338	C	0.590283	0.979178	-0.436443
C339	C	0.923616	1.312512	-0.103110
C340	C	0.256935	0.645850	-0.835210
C341	C	0.590268	0.979183	-0.501876
C342	C	0.923601	1.312517	-0.168543
C343	C	0.216451	0.649394	-0.867914
C344	C	0.549785	0.982727	-0.534580
C345	C	0.883118	1.316061	-0.201247
C346	C	0.175981	0.652942	-0.835177
C347	C	0.509314	0.986276	-0.501844
C348	C	0.842648	1.319609	-0.168510
C349	C	0.175996	0.652941	-0.769743
C350	C	0.509330	0.986274	-0.436409
C351	C	0.842663	1.319607	-0.103076
C352	C	0.216485	0.649390	-0.737045
C353	C	0.549818	0.982723	-0.403712
C354	C	0.883152	1.316056	-0.070379
C355	C	0.187699	0.678129	-0.971590
C356	C	0.521032	1.011463	-0.638256
C357	C	0.854366	1.344796	-0.304923
C358	C	0.187679	0.678125	-1.037026
C359	C	0.521012	1.011459	-0.703693
C360	C	0.854345	1.344792	-0.370360
C361	C	0.245131	0.620657	-1.037004
C362	C	0.578465	0.953991	-0.703670
C363	C	0.911798	1.287324	-0.370337
C364	C	0.245147	0.620659	-0.971568
C365	C	0.578481	0.953992	-0.638235
C366	C	0.911814	1.287325	-0.304902
C367	C	0.216432	0.649397	-0.938865
C368	C	0.549765	0.982730	-0.605532
C369	C	0.883098	1.316064	-0.272198
C370	C	0.216519	0.649323	-0.139372
C371	C	0.549852	0.982656	0.193961
C372	C	0.883186	1.315990	0.527294
C373	C	0.216396	0.649394	-0.069731
C374	C	0.549730	0.982728	0.263602
C375	C	0.883063	1.316061	0.596935
H376	H	0.164374	-0.179244	-0.229633
H377	H	0.497708	0.154090	0.103700
H378	H	0.831041	0.487423	0.437034
H379	H	0.045077	0.701454	-0.229466
H380	H	0.378411	1.034787	0.103868
H381	H	0.711744	1.368120	0.437201
H382	H	0.268726	0.393259	-0.374721
H383	H	0.602060	0.726592	-0.041388
H384	H	0.935393	1.059926	0.291945
H385	H	0.164356	-0.094135	-0.229623
H386	H	0.497690	0.239198	0.103710
H387	H	0.831023	0.572532	0.437044
H388	H	0.268639	0.597248	-0.541285
H389	H	0.601972	0.930582	-0.207951
H390	H	0.935306	1.263915	0.125382
C391	C	0.305779	-0.060362	-0.350816
C392	C	0.639113	0.272971	-0.017483
C393	C	0.972446	0.606305	0.315851
C394	C	0.276969	-0.087328	-0.386213
C395	C	0.610302	0.246005	-0.052880
C396	C	0.943635	0.579339	0.280454
H397	H	0.325305	-0.044429	-0.377971
H398	H	0.658638	0.288904	-0.044637
H399	H	0.991972	0.622237	0.288696
H400	H	0.288642	-0.039693	-0.326993
H401	H	0.621975	0.293641	0.006340
H402	H	0.955308	0.626974	0.339673
H403	H	0.322936	-0.078679	-0.323486
H404	H	0.656269	0.254655	0.009848
H405	H	0.989602	0.587988	0.343181
H406	H	0.259810	-0.069011	-0.413540
H407	H	0.593143	0.264323	-0.080207
H408	H	0.926476	0.597656	0.253126
H409	H	0.294108	-0.108000	-0.410046
H410	H	0.627441	0.225334	-0.076713
H411	H	0.960775	0.558667	0.256620
H412	H	0.143015	0.655829	-0.861803
H413	H	0.476349	0.989162	-0.528470
H414	H	0.809682	1.322496	-0.195137
C415	C	0.078717	0.560188	-0.350875
C416	C	0.412051	0.893521	-0.017542
C417	C	0.745384	1.226855	0.315791
C418	C	0.051751	0.589050	-0.386229
C419	C	0.385084	0.922383	-0.052895
C420	C	0.718417	1.255717	0.280438
H421	H	0.094630	0.540694	-0.378060
H422	H	0.427963	0.874027	-0.044727
H423	H	0.761297	1.207361	0.288607
H424	H	0.099405	0.577290	-0.327024
H425	H	0.432738	0.910624	0.006310
H426	H	0.766071	1.243957	0.339643
H427	H	0.060404	0.543000	-0.323574
H428	H	0.393737	0.876334	0.009760
H429	H	0.727070	1.209667	0.343093
H430	H	0.070065	0.606240	-0.413527
H431	H	0.403398	0.939573	-0.080194
H432	H	0.736732	1.272907	0.253140
H433	H	0.031061	0.571946	-0.410091
H434	H	0.364395	0.905279	-0.076758
H435	H	0.697728	1.238613	0.256576
C436	C	-0.232047	0.535136	-0.461478
C437	C	0.101287	0.868470	-0.128144
C438	C	0.434620	1.201803	0.205189
C439	C	-0.262551	0.560345	-0.426332
C440	C	0.070782	0.893678	-0.092998
C441	C	0.404115	1.227012	0.240335
H442	H	-0.247962	0.515638	-0.488658
H443	H	0.085372	0.848971	-0.155325
H444	H	0.418705	1.182305	0.178009
H445	H	-0.213746	0.554717	-0.485451
H446	H	0.119587	0.888050	-0.152118
H447	H	0.452921	1.221383	0.181216
H448	H	-0.213749	0.517952	-0.434158
H449	H	0.119585	0.851286	-0.100824
H450	H	0.452918	1.184619	0.232509
H451	H	-0.280847	0.577532	-0.453652
H452	H	0.052486	0.910865	-0.120318
H453	H	0.385819	1.244198	0.213015
H454	H	-0.280860	0.540762	-0.402356
H455	H	0.052474	0.874096	-0.069023
H456	H	0.385807	1.207429	0.264310
C457	C	-0.449443	0.566439	-0.417899
C458	C	-0.116109	0.899772	-0.084566
C459	C	0.217224	1.233106	0.248767
C460	C	-0.403309	0.560364	-0.426357
C461	C	-0.069976	0.893697	-0.093023
C462	C	0.263357	1.227031	0.240310
H463	H	-0.465367	0.546954	-0.445089
H464	H	-0.132034	0.880288	-0.111755
H465	H	0.201300	1.213621	0.221578
H466	H	-0.457132	0.559852	-0.375805
H467	H	-0.123799	0.893186	-0.042471
H468	H	0.209535	1.226519	0.290862
H469	H	-0.457117	0.596630	-0.427080
H470	H	-0.123783	0.929963	-0.093747
H471	H	0.209550	1.263296	0.239587
H472	H	-0.395635	0.530174	-0.417171
H473	H	-0.062302	0.863507	-0.083838
H474	H	0.271032	1.196841	0.249495
H475	H	-0.395617	0.566947	-0.468461
H476	H	-0.062284	0.900281	-0.135127
H477	H	0.271050	1.233614	0.198206
C478	C	-0.073698	0.738507	-0.253418
C479	C	0.259636	1.071841	0.079915
C480	C	0.592969	1.405174	0.413249
C481	C	-0.046732	0.709646	-0.218062
C482	C	0.286601	1.042980	0.115272
C483	C	0.619934	1.376313	0.448605
H484	H	-0.089615	0.757999	-0.226236
H485	H	0.243719	1.091333	0.107098
H486	H	0.577052	1.424666	0.440431
H487	H	-0.055386	0.755693	-0.280715
H488	H	0.277947	1.089027	0.052618
H489	H	0.611281	1.422360	0.385952
H490	H	-0.094385	0.721401	-0.277275
H491	H	0.238948	1.054734	0.056059
H492	H	0.572281	1.388068	0.389392
H493	H	-0.026042	0.726753	-0.194208
H494	H	0.307291	1.060086	0.139125
H495	H	0.640624	1.393419	0.472458
H496	H	-0.065045	0.692459	-0.190754
H497	H	0.268288	1.025792	0.142580
H498	H	0.601621	1.359125	0.475913
C499	C	0.102120	0.060338	-0.143070
C500	C	0.435453	0.393672	0.190264
C501	C	0.768787	0.727005	0.523597
C502	C	0.127375	0.029857	-0.178187
C503	C	0.460708	0.363191	0.155147
C504	C	0.794042	0.696524	0.488480
H505	H	0.082589	0.044404	-0.115924
H506	H	0.415922	0.377738	0.217409
H507	H	0.749255	0.711071	0.550743
H508	H	0.121669	0.078625	-0.119061
H509	H	0.455002	0.411958	0.214273
H510	H	0.788335	0.745292	0.547606
H511	H	0.084969	0.078652	-0.170410
H512	H	0.418302	0.411985	0.162923
H513	H	0.751636	0.745319	0.496256
H514	H	0.144529	0.011546	-0.150846
H515	H	0.477862	0.344879	0.182487
H516	H	0.811195	0.678212	0.515820
H517	H	0.107824	0.011563	-0.202198
H518	H	0.441157	0.344896	0.131136
H519	H	0.774490	0.678230	0.464469
H520	H	0.164384	0.701520	-0.660032
H521	H	0.497717	1.034853	-0.326698
H522	H	0.831051	1.368186	0.006635
H523	H	-0.040044	0.597241	-0.374838
H524	H	0.293289	0.930574	-0.041504
H525	H	0.626622	1.263908	0.291829
H526	H	0.164322	0.393151	-0.229520
H527	H	0.497656	0.726484	0.103814
H528	H	0.830989	1.059818	0.437147
C529	C	0.330953	0.098021	-0.461332
C530	C	0.664286	0.431355	-0.127999
C531	C	0.997620	0.764688	0.205335
C532	C	0.305705	0.128503	-0.426207
C533	C	0.639039	0.461837	-0.092873
C534	C	0.972372	0.795170	0.240460
H535	H	0.350474	0.113954	-0.488494
H536	H	0.683807	0.447287	-0.155160
H537	H	1.017140	0.780621	0.178173
H538	H	0.348111	0.079713	-0.434002
H539	H	0.681444	0.413046	-0.100669
H540	H	1.014778	0.746379	0.232664
H541	H	0.311396	0.079729	-0.485330
H542	H	0.644729	0.413062	-0.151997
H543	H	0.978062	0.746396	0.181336
H544	H	0.325263	0.146793	-0.402205
H545	H	0.658596	0.480127	-0.068872
H546	H	0.991929	0.813460	0.264462
H547	H	0.288546	0.146819	-0.453540
H548	H	0.621880	0.480153	-0.120207
H549	H	0.955213	0.813486	0.213127
C550	C	0.307319	0.679880	-0.696260
C551	C	0.640652	1.013213	-0.362927
C552	C	0.973985	1.346546	-0.029594
C553	C	0.301463	0.641936	-0.733858
C554	C	0.634796	0.975269	-0.400525
C555	C	0.968129	1.308602	-0.067191
H556	H	0.334800	0.677459	-0.674092
H557	H	0.668133	1.010793	-0.340759
H558	H	1.001467	1.344126	-0.007425
H559	H	0.307899	0.705921	-0.721801
H560	H	0.641232	1.039254	-0.388468
H561	H	0.974566	1.372587	-0.055135
H562	H	0.283231	0.681988	-0.667381
H563	H	0.616564	1.015321	-0.334048
H564	H	0.949897	1.348654	-0.000715
H565	H	0.325549	0.639830	-0.762740
H566	H	0.658883	0.973163	-0.429407
H567	H	0.992216	1.306496	-0.096073
H568	H	0.300886	0.615888	-0.708315
H569	H	0.634219	0.949221	-0.374981
H570	H	0.967553	1.282554	-0.041648
C571	C	0.152669	0.155290	-0.137869
C572	C	0.486002	0.488624	0.195464
C573	C	0.819335	0.821957	0.528797
C574	C	0.127372	0.128334	-0.178162
C575	C	0.460705	0.461667	0.155172
C576	C	0.794038	0.795001	0.488505
H577	H	0.133142	0.171186	-0.110708
H578	H	0.466475	0.504519	0.222625
H579	H	0.799809	0.837853	0.555959
H580	H	0.172218	0.136975	-0.113878
H581	H	0.505551	0.470309	0.219455
H582	H	0.838884	0.803642	0.552789
H583	H	0.169797	0.175997	-0.161699
H584	H	0.503130	0.509330	0.171635
H585	H	0.836464	0.842663	0.504968
H586	H	0.110246	0.107626	-0.154333
H587	H	0.443579	0.440959	0.179001
H588	H	0.776913	0.774292	0.512334
H589	H	0.107815	0.146651	-0.202155
H590	H	0.441148	0.479984	0.131178
H591	H	0.774482	0.813318	0.464511
C592	C	-0.289513	0.713059	-0.137796
C593	C	0.043820	1.046392	0.195537
C594	C	0.377153	1.379725	0.528870
C595	C	-0.262530	0.738396	-0.178051
C596	C	0.070804	1.071729	0.155282
C597	C	0.404137	1.405063	0.488616
H598	H	-0.305420	0.732558	-0.110612
H599	H	0.027913	1.065891	0.222721
H600	H	0.361246	1.399224	0.556054
H601	H	-0.310205	0.695961	-0.161647
H602	H	0.023128	1.029295	0.171687
H603	H	0.356461	1.362628	0.505020
H604	H	-0.271212	0.693479	-0.113822
H605	H	0.062121	1.026812	0.219512
H606	H	0.395455	1.360145	0.552845
H607	H	-0.280831	0.757974	-0.202029
H608	H	0.052502	1.091307	0.131304
H609	H	0.385835	1.424641	0.464638
H610	H	-0.241835	0.755501	-0.154198
H611	H	0.091498	1.088834	0.179135
H612	H	0.424832	1.422168	0.512469
H613	H	-0.396603	0.730206	-0.189479
H614	H	-0.063270	1.063539	0.143855
H615	H	0.270064	1.396872	0.477188
H616	H	-0.527330	0.597264	-0.374892
H617	H	-0.193997	0.930597	-0.041559
H618	H	0.139337	1.263931	0.291774
H619	H	-0.311507	0.568537	-0.414930
H620	H	0.021826	0.901870	-0.081596
H621	H	0.355160	1.235203	0.251737
H622	H	0.297511	0.036702	-0.414820
H623	H	0.630845	0.370035	-0.081487
H624	H	0.964178	0.703368	0.251846
H625	H	0.164319	0.478273	-0.229507
H626	H	0.497652	0.811607	0.103826
H627	H	0.830985	1.144940	0.437159
C628	C	-0.551144	0.734876	-0.182964
C629	C	-0.217810	1.068209	0.150369
C630	C	0.115523	1.401543	0.483702
C631	C	-0.520640	0.709672	-0.218120
C632	C	-0.187307	1.043005	0.115214
C633	C	0.146026	1.376339	0.448547
H634	H	-0.535227	0.754364	-0.155771
H635	H	-0.201894	1.087698	0.177562
H636	H	0.131440	1.421031	0.510896
H637	H	-0.569437	0.752066	-0.210273
H638	H	-0.236104	1.085400	0.123060
H639	H	0.097230	1.418733	0.456394
H640	H	-0.569449	0.715289	-0.158998
H641	H	-0.236116	1.048622	0.174335
H642	H	0.097218	1.381956	0.507668
H643	H	-0.502337	0.729259	-0.242089
H644	H	-0.169004	1.062593	0.091244
H645	H	0.164330	1.395926	0.424577
H646	H	-0.502339	0.692480	-0.190807
H647	H	-0.169006	1.025814	0.142526
H648	H	0.164327	1.359147	0.475859
C649	C	0.131009	0.734926	-0.574548
C650	C	0.464343	1.068259	-0.241215
C651	C	0.797676	1.401592	0.092119
C652	C	0.156232	0.709706	-0.532002
C653	C	0.489565	1.043039	-0.198668
C654	C	0.822898	1.376373	0.134665
H655	H	0.111518	0.754421	-0.552354
H656	H	0.444851	1.087755	-0.219020
H657	H	0.778185	1.421088	0.114313
H658	H	0.150581	0.752109	-0.600090
H659	H	0.483915	1.085442	-0.266756
H660	H	0.817248	1.418776	0.066577
H661	H	0.113817	0.715349	-0.600048
H662	H	0.447151	1.048682	-0.266715
H663	H	0.780484	1.382016	0.066619
H664	H	0.173426	0.729283	-0.506504
H665	H	0.506760	1.062616	-0.173171
H666	H	0.840093	1.395949	0.160162
H667	H	0.136657	0.692521	-0.506449
H668	H	0.469990	1.025855	-0.173116
H669	H	0.803324	1.359188	0.160218
H670	H	-0.311497	0.730201	-0.189470
H671	H	0.021836	1.063535	0.143864
H672	H	0.355170	1.396868	0.477197
H673	H	0.268725	0.478366	-0.374693
H674	H	0.602058	0.811700	-0.041360
H675	H	0.935392	1.145033	0.291973
H676	H	0.268775	-0.179145	-0.374825
H677	H	0.602109	0.154188	-0.041491
H678	H	0.935442	0.487522	0.291842
C679	C	0.133430	0.315231	-0.186598
C680	C	0.466764	0.648564	0.146735
C681	C	0.800097	0.981897	0.480068
C682	C	0.127355	0.269091	-0.178148
C683	C	0.460689	0.602424	0.155186
C684	C	0.794022	0.935758	0.488519
H685	H	0.113901	0.331134	-0.159449
H686	H	0.447234	0.664468	0.173884
H687	H	0.780568	0.997801	0.507217
H688	H	0.163602	0.322917	-0.177364
H689	H	0.496935	0.656250	0.155969
H690	H	0.830268	0.989583	0.489302
H691	H	0.126900	0.322933	-0.228712
H692	H	0.460234	0.656266	0.104622
H693	H	0.793567	0.989600	0.437955
H694	H	0.133888	0.261388	-0.136035
H695	H	0.467222	0.594721	0.197298
H696	H	0.800555	0.928055	0.530631
H697	H	0.097177	0.261402	-0.187377
H698	H	0.430510	0.594735	0.145956
H699	H	0.763844	0.928069	0.479289
C700	C	0.330946	0.238781	-0.461291
C701	C	0.664279	0.572114	-0.127957
C702	C	0.997613	0.905447	0.205376
C703	C	0.305694	0.269260	-0.426166
C704	C	0.639028	0.602593	-0.092832
C705	C	0.972361	0.935926	0.240501
H706	H	0.350465	0.254716	-0.488451
H707	H	0.683799	0.588050	-0.155118
H708	H	1.017132	0.921383	0.178215
H709	H	0.348106	0.220474	-0.433961
H710	H	0.681439	0.553807	-0.100627
H711	H	1.014772	0.887141	0.232706
H712	H	0.311391	0.220487	-0.485290
H713	H	0.644724	0.553820	-0.151957
H714	H	0.978058	0.887153	0.181377
H715	H	0.325249	0.287552	-0.402163
H716	H	0.658583	0.620885	-0.068829
H717	H	0.991916	0.954218	0.264504
H718	H	0.288534	0.287574	-0.453499
H719	H	0.621867	0.620907	-0.120166
H720	H	0.955200	0.954241	0.213168
C721	C	0.095974	0.659944	-0.776275
C722	C	0.429307	0.993277	-0.442942
C723	C	0.762640	1.326611	-0.109608
C724	C	0.131514	0.656834	-0.733758
C725	C	0.464847	0.990167	-0.400425
C726	C	0.798180	1.323501	-0.067091
H727	H	0.068512	0.662343	-0.754058
H728	H	0.401845	0.995677	-0.420725
H729	H	0.735179	1.329010	-0.087391
H730	H	0.099919	0.685691	-0.801817
H731	H	0.433252	1.019024	-0.468484
H732	H	0.766586	1.352357	-0.135150
H733	H	0.095384	0.633902	-0.801778
H734	H	0.428717	0.967236	-0.468445
H735	H	0.762051	1.300569	-0.135111
H736	H	0.132105	0.682877	-0.708258
H737	H	0.465439	1.016211	-0.374925
H738	H	0.798772	1.349544	-0.041591
H739	H	0.127568	0.631085	-0.708205
H740	H	0.460901	0.964418	-0.374872
H741	H	0.794234	1.297751	-0.041539
C742	C	0.130904	0.734929	-0.978182
C743	C	0.464237	1.068262	-0.644849
C744	C	0.797571	1.401596	-0.311515
C745	C	0.156130	0.709712	-0.935637
C746	C	0.489464	1.043045	-0.602304
C747	C	0.822797	1.376379	-0.268971
H748	H	0.111413	0.754424	-0.955986
H749	H	0.444746	1.087758	-0.622653
H750	H	0.778080	1.421091	-0.289320
H751	H	0.150473	0.752113	-1.003727
H752	H	0.483807	1.085446	-0.670394
H753	H	0.817140	1.418779	-0.337060
H754	H	0.113711	0.715351	-1.003679
H755	H	0.447045	1.048684	-0.670345
H756	H	0.780378	1.382018	-0.337012
H757	H	0.173326	0.729290	-0.910143
H758	H	0.506659	1.062623	-0.576810
H759	H	0.839992	1.395957	-0.243477
H760	H	0.136558	0.692527	-0.910081
H761	H	0.469892	1.025860	-0.576748
H762	H	0.803225	1.359194	-0.243415
C763	C	-0.137094	0.585694	-0.466570
C764	C	0.196239	0.919027	-0.133237
C765	C	0.529573	1.252360	0.200096
C766	C	-0.164076	0.560345	-0.426327
C767	C	0.169258	0.893679	-0.092994
C768	C	0.502591	1.227012	0.240340
H769	H	-0.121181	0.566202	-0.493757
H770	H	0.212152	0.899535	-0.160424
H771	H	0.545486	1.232868	0.172909
H772	H	-0.155394	0.605273	-0.490537
H773	H	0.177939	0.938607	-0.157204
H774	H	0.511273	1.271940	0.176130
H775	H	-0.116403	0.602792	-0.442708
H776	H	0.216930	0.936125	-0.109374
H777	H	0.550263	1.269458	0.223959
H778	H	-0.184769	0.543250	-0.450190
H779	H	0.148564	0.876583	-0.116856
H780	H	0.481898	1.209916	0.216477
H781	H	-0.145774	0.540758	-0.402358
H782	H	0.187559	0.874091	-0.069025
H783	H	0.520892	1.207424	0.264309
H784	H	0.297506	0.177460	-0.414776
H785	H	0.630839	0.510793	-0.081443
H786	H	0.964173	0.844127	0.251890
H787	H	-0.170739	0.730205	-0.189461
H788	H	0.162595	1.063539	0.143872
H789	H	0.495928	1.396872	0.477206
H790	H	0.268509	0.597260	-1.063635
H791	H	0.601843	0.930593	-0.730302
H792	H	0.935176	1.263927	-0.396969
H793	H	0.164282	0.701524	-1.063668
H794	H	0.497615	1.034857	-0.730335
H795	H	0.830948	1.368190	-0.397002
H796	H	-0.612452	0.597271	-0.374897
H797	H	-0.279119	0.930604	-0.041563
H798	H	0.054215	1.263938	0.291770
C799	C	-0.646101	0.684328	-0.177880
C800	C	-0.312767	1.017661	0.155453
C801	C	0.020566	1.350995	0.488786
C802	C	-0.619119	0.709673	-0.218129
C803	C	-0.285786	1.043006	0.115205
C804	C	0.047548	1.376340	0.448538
H805	H	-0.662011	0.703822	-0.150694
H806	H	-0.328678	1.037156	0.182640
H807	H	0.004656	1.370489	0.515973
H808	H	-0.666789	0.667230	-0.201735
H809	H	-0.333456	1.000563	0.131598
H810	H	-0.000123	1.333897	0.464931
H811	H	-0.627797	0.664748	-0.153908
H812	H	-0.294464	0.998082	0.179425
H813	H	0.038870	1.331415	0.512758
H814	H	-0.637423	0.729251	-0.242104
H815	H	-0.304090	1.062584	0.091229
H816	H	0.029244	1.395917	0.424562
H817	H	-0.598428	0.726779	-0.194271
H818	H	-0.265094	1.060112	0.139062
H819	H	0.068239	1.393445	0.472395
C820	C	0.301935	0.563858	-0.978121
C821	C	0.635268	0.897191	-0.644787
C822	C	0.968601	1.230524	-0.311454
C823	C	0.276731	0.589076	-0.935595
C824	C	0.610065	0.922409	-0.602261
C825	C	0.943398	1.255743	-0.268928
H826	H	0.321435	0.544360	-0.955911
H827	H	0.654768	0.877693	-0.622577
H828	H	0.988101	1.211027	-0.289244
H829	H	0.282352	0.546677	-1.003617
H830	H	0.615685	0.880010	-0.670284
H831	H	0.949018	1.213343	-0.336950
H832	H	0.319117	0.583435	-1.003668
H833	H	0.652450	0.916769	-0.670335
H834	H	0.985784	1.250102	-0.337001
H835	H	0.259546	0.569498	-0.910050
H836	H	0.592880	0.902832	-0.576717
H837	H	0.926213	1.236165	-0.243383
H838	H	0.296317	0.606258	-0.910087
H839	H	0.629650	0.939592	-0.576754
H840	H	0.962984	1.272925	-0.243421
H841	H	0.289888	0.642963	-0.861859
H842	H	0.623221	0.976297	-0.528526
H843	H	0.956555	1.309630	-0.195192
H844	H	0.268610	0.597257	-0.659998
H845	H	0.601944	0.930591	-0.326665
H846	H	0.935277	1.263924	0.006668
H847	H	0.135562	0.177297	-0.189558
H848	H	0.468896	0.510631	0.143775
H849	H	0.802229	0.843964	0.477108
