data_functionalizedCrystal
_audit_creation_method	'MofGen! by Chris Wilmer'
_symmetry_space_group_name_H-M	'P1'
_symmetry_Int_Tables_number	1
_symmetry_cell_setting	triclinic
loop_
_symmetry_equiv_pos_as_xyz
  x,y,z
_cell_length_a	13.897449
_cell_length_b	12.759400
_cell_length_c	12.759393
_cell_angle_alpha	90.030448
_cell_angle_beta	90.022452
_cell_angle_gamma	90.014517
loop_
_atom_site_label
_atom_site_type_symbol
_atom_site_fract_x
_atom_site_fract_y
_atom_site_fract_z
Zn1	Zn	-1.474719	0.418221	-0.594098
Zn2	Zn	-0.974719	0.918221	-0.094098
Zn3	Zn	-1.474623	0.593936	-0.418418
Zn4	Zn	-0.974623	1.093936	0.081582
Zn5	Zn	-1.313409	0.418271	-0.418425
Zn6	Zn	-0.813409	0.918271	0.081575
Zn7	Zn	-1.313398	0.593858	-0.594047
Zn8	Zn	-0.813398	1.093858	-0.094047
O9	O	-1.394037	0.506071	-0.506247
O10	O	-0.894037	1.006071	-0.006247
O11	O	-1.609688	0.441541	-0.570812
O12	O	-1.109688	0.941541	-0.070812
O13	O	-1.453201	0.570688	-0.271398
O14	O	-0.953201	1.070688	0.228602
O15	O	-1.334852	0.271243	-0.441752
O16	O	-0.834852	0.771243	0.058248
O17	O	-1.609617	0.570639	-0.441741
O18	O	-1.109617	1.070639	0.058259
O19	O	-1.453366	0.271206	-0.570819
O20	O	-0.953366	0.771206	-0.070819
O21	O	-1.334759	0.441627	-0.271403
O22	O	-0.834759	0.941627	0.228597
O23	O	-1.178426	0.441551	-0.441703
O24	O	-0.678426	0.941551	0.058297
O25	O	-1.334834	0.570505	-0.741075
O26	O	-0.834834	1.070505	-0.241075
O27	O	-1.178418	0.570554	-0.570731
O28	O	-0.678418	1.070554	-0.070731
O29	O	-1.453355	0.441465	-0.741112
O30	O	-0.953355	0.941465	-0.241112
O31	O	-1.453191	0.740947	-0.441691
O32	O	-0.953191	1.240947	0.058309
O33	O	-1.334740	0.740889	-0.570725
O34	O	-0.834740	1.240889	-0.070725
C35	C	-1.143423	0.506050	-0.506213
C36	C	-0.643423	1.006050	-0.006213
C37	C	-1.036209	0.506067	-0.506223
C38	C	-0.536209	1.006067	-0.006223
C39	C	-0.839914	0.506065	-0.506243
C40	C	-0.339914	1.006065	-0.006243
C41	C	-0.949146	0.506063	-0.506229
C42	C	-0.449146	1.006063	-0.006229
C43	C	-0.645630	0.506086	-0.506272
C44	C	-0.145630	1.006086	-0.006272
C45	C	-0.752844	0.506075	-0.506256
C46	C	-0.252844	1.006075	-0.006256
C47	C	-1.393980	0.779039	-0.506225
C48	C	-0.893980	1.279039	-0.006225
C49	C	-1.394044	0.895815	-0.506251
C50	C	-0.894044	1.395815	-0.006251
C51	C	-1.394104	0.505971	-0.780280
C52	C	-0.894104	1.005971	-0.280280
C53	C	-1.394132	0.505928	-0.897057
C54	C	-0.894132	1.005928	-0.397057
C55	C	-1.394121	0.232038	-0.506292
C56	C	-0.894121	0.732038	-0.006292
C57	C	-1.394157	0.115261	-0.506311
C58	C	-0.894157	0.615261	-0.006311
C59	C	-1.455789	0.950672	-0.439137
C60	C	-0.955789	1.450672	0.060863
C61	C	-1.455849	1.060396	-0.439170
C62	C	-0.955849	1.560396	0.060830
C63	C	-1.332408	1.060397	-0.573432
C64	C	-0.832408	1.560397	-0.073432
C65	C	-1.332355	0.950674	-0.573404
C66	C	-0.832355	1.450674	-0.073404
C67	C	-1.527054	0.950673	-0.361618
C68	C	-1.027054	1.450673	0.138382
C69	C	-1.527113	1.060397	-0.361651
C70	C	-1.027113	1.560397	0.138349
C71	C	-1.455808	0.573104	-0.951914
C72	C	-0.955808	1.073104	-0.451914
C73	C	-1.455837	0.573059	-1.061638
C74	C	-0.955837	1.073059	-0.561638
C75	C	-1.332506	0.438659	-1.061639
C76	C	-0.832506	0.938659	-0.561639
C77	C	-1.332482	0.438699	-0.951917
C78	C	-0.832482	0.938699	-0.451917
C79	C	-1.527010	0.650702	-0.951915
C80	C	-1.027010	1.150702	-0.451915
C81	C	-1.527039	0.650657	-1.061639
C82	C	-1.027039	1.150657	-0.561639
C83	C	-1.394026	0.506096	-0.233279
C84	C	-0.894026	1.006096	0.266721
C85	C	-1.394185	0.505843	-0.116503
C86	C	-0.894185	1.005843	0.383497
H87	H	-1.282085	0.906011	-0.628063
H88	H	-0.782085	1.406011	-0.128063
H89	H	-1.601736	0.920816	-0.383476
H90	H	-1.101736	1.420816	0.116524
O91	O	-1.621065	0.612050	-1.106744
O92	O	-1.121065	1.112050	-0.606744
H93	H	-1.617207	0.613597	-1.193617
H94	H	-1.117207	1.113597	-0.693617
H95	H	-1.507008	0.732014	-1.091401
H96	H	-1.007008	1.232014	-0.591401
O97	O	-1.266028	0.366141	-1.120816
O98	O	-0.766028	0.866141	-0.620816
H99	H	-1.216941	0.413126	-1.170796
H100	H	-0.716941	0.913126	-0.670796
O101	O	-1.625962	0.621859	-0.912479
O102	O	-1.125962	1.121859	-0.412479
H103	H	-1.674424	0.607695	-0.980189
H104	H	-1.174424	1.107695	-0.480189
O105	O	-1.491653	0.905688	-0.259188
O106	O	-0.991653	1.405688	0.240812
H107	H	-1.472930	0.970572	-0.204903
H108	H	-0.972930	1.470572	0.295097
H109	H	-1.282184	1.105076	-0.628107
H110	H	-0.782184	1.605076	-0.128107
H111	H	-1.598087	1.094343	-0.390868
H112	H	-1.098087	1.594343	0.109132
O113	O	-1.500680	1.099975	-0.253861
O114	O	-1.000680	1.599975	0.246139
H115	H	-1.427932	1.071046	-0.232612
H116	H	-0.927932	1.571046	0.267388
H117	H	-1.282268	0.383990	-0.907256
H118	H	-0.782268	0.883990	-0.407256
H119	H	-1.500228	0.728008	-0.917865
H120	H	-1.000228	1.228008	-0.417865
