data_functionalizedCrystal
_audit_creation_method	'MofGen! by Chris Wilmer'
_symmetry_space_group_name_H-M	'P1'
_symmetry_Int_Tables_number	1
_symmetry_cell_setting	triclinic
loop_
_symmetry_equiv_pos_as_xyz
  x,y,z
_cell_length_a	11.026607
_cell_length_b	11.026607
_cell_length_c	9.483335
_cell_angle_alpha	78.625300
_cell_angle_beta	78.615903
_cell_angle_gamma	71.413983
loop_
_atom_site_label
_atom_site_type_symbol
_atom_site_fract_x
_atom_site_fract_y
_atom_site_fract_z
O1	O	0.549184	-1.711182	-0.120885
O2	O	1.049184	-1.211182	0.379115
O3	O	0.488420	-1.344601	-0.120887
O4	O	0.988420	-0.844601	0.379113
O5	O	0.335511	-1.497510	-0.120881
O6	O	0.835511	-0.997510	0.379119
O7	O	0.702093	-1.558273	-0.120891
O8	O	1.202093	-1.058273	0.379109
O9	O	0.304381	-1.528597	0.120896
O10	O	0.804381	-1.028597	0.620896
O11	O	0.457290	-1.375688	0.120890
O12	O	0.957290	-0.875688	0.620890
O13	O	0.518053	-1.742268	0.120892
O14	O	1.018053	-1.242268	0.620892
Cu15	Cu	0.484829	-1.561816	0.142967
Cu16	Cu	0.984829	-1.061816	0.642967
Cu17	Cu	0.521645	-1.525053	-0.142962
Cu18	Cu	1.021645	-1.025053	0.357038
O19	O	0.670962	-1.589359	0.120886
O20	O	1.170962	-1.089359	0.620886
C21	C	0.461645	-1.312485	0.000001
C22	C	0.961645	-0.812485	0.500001
C23	C	0.428228	-1.170471	0.000000
C24	C	0.928228	-0.670471	0.500000
C25	C	0.272287	-1.501843	0.000006
C26	C	0.772287	-1.001843	0.500006
C27	C	0.130273	-1.468426	0.000000
C28	C	0.630273	-0.968426	0.500000
C29	C	0.544828	-1.774384	0.000001
C30	C	1.044828	-1.274384	0.500001
C31	C	0.578246	-1.916397	-0.000008
C32	C	1.078246	-1.416397	0.499992
C33	C	0.076624	-1.560695	-0.000001
C34	C	0.576624	-1.060695	0.499999
C35	C	-0.070154	-1.526159	-0.000007
C36	C	0.429846	-1.026159	0.499993
C37	C	0.734187	-1.585025	-0.000004
C38	C	1.234187	-1.085025	0.499996
C39	C	0.876202	-1.618442	-0.000008
C40	C	1.376202	-1.118442	0.499992
N41	N	0.458936	-1.587682	0.344074
N42	N	0.958936	-1.087682	0.844074
C43	C	0.520498	-1.116821	-0.000003
C44	C	1.020498	-0.616821	0.499997
C45	C	0.485963	-0.970042	-0.000004
C46	C	0.985963	-0.470042	0.499996
N47	N	0.547530	-1.499195	-0.344069
N48	N	1.047530	-0.999195	0.155931
C49	C	0.492462	-1.554210	0.583704
C50	C	0.992462	-1.054210	1.083704
C51	C	0.514012	-1.532659	0.416297
C52	C	1.014012	-1.032659	0.916297
H53	H	0.139356	-1.665259	0.000009
H54	H	0.639356	-1.165259	0.500009
H55	H	0.067541	-1.363862	-0.000010
H56	H	0.567541	-0.863862	0.499990
O57	O	0.631118	-1.415673	0.573683
O58	O	1.131118	-0.915673	1.073683
H59	H	0.668187	-1.378659	0.652056
H60	H	1.168187	-0.878659	1.152056
O61	O	0.597580	-1.449105	0.334067
O62	O	1.097580	-0.949105	0.834067
H63	H	0.601374	-1.445271	0.215484
H64	H	1.101374	-0.945271	0.715484
H65	H	0.323670	-1.107733	-0.000034
H66	H	0.823670	-0.607733	0.499966
O67	O	0.659006	-1.199911	0.000004
O68	O	1.159006	-0.699911	0.500004
H69	H	0.721342	-1.138286	0.000015
H70	H	1.221342	-0.638286	0.500015
O71	O	0.408875	-1.637737	0.665940
O72	O	0.908875	-1.137737	1.165940
H73	H	0.405059	-1.641549	0.784523
H74	H	0.905059	-1.141549	1.284523
O75	O	0.347445	-0.886959	0.000011
O76	O	0.847445	-0.386959	0.500011
H77	H	0.285106	-0.948588	0.000027
H78	H	0.785106	-0.448588	0.500027
H79	H	-0.061057	-1.722998	-0.000117
H80	H	0.438943	-1.222998	0.499883
H81	H	0.395838	-1.650748	0.406166
H82	H	0.895838	-1.150748	0.906166
H83	H	-0.132881	-1.421588	-0.000017
H84	H	0.367119	-0.921588	0.499983
O85	O	0.716768	-0.999464	-0.000004
O86	O	1.216768	-0.499464	0.499996
H87	H	0.749093	-1.048068	-0.098552
H88	H	1.249093	-0.548068	0.401448
