data_functionalizedCrystal
_audit_creation_method	'MofGen! by Chris Wilmer'
_symmetry_space_group_name_H-M	'P1'
_symmetry_Int_Tables_number	1
_symmetry_cell_setting	triclinic
loop_
_symmetry_equiv_pos_as_xyz
  x,y,z
_cell_length_a	14.044191
_cell_length_b	10.654550
_cell_length_c	9.130313
_cell_angle_alpha	89.999890
_cell_angle_beta	90.001968
_cell_angle_gamma	88.838340
loop_
_atom_site_label
_atom_site_type_symbol
_atom_site_fract_x
_atom_site_fract_y
_atom_site_fract_z
O1	O	1.259695	0.303022	-0.121721
O2	O	0.983654	0.292080	-0.121740
O3	O	1.128021	0.115450	-0.121725
O4	O	1.115328	0.479652	-0.121736
O5	O	1.128019	0.115455	0.121874
O6	O	0.983652	0.292085	0.121859
O7	O	1.259693	0.303027	0.121878
Cu8	Cu	1.121672	0.297556	0.144111
Cu9	Cu	1.121674	0.297550	-0.143973
O10	O	1.115326	0.479657	0.121862
C11	C	1.127088	0.068560	0.000073
C12	C	1.124300	-0.071163	0.000068
C13	C	0.948307	0.287295	0.000057
C14	C	0.842987	0.273016	0.000050
C15	C	1.209301	-0.142104	0.000078
C16	C	1.206675	-0.273389	0.000067
C17	C	1.034039	-0.262779	0.000043
C18	C	1.036666	-0.131497	0.000043
C19	C	1.308971	-0.148231	0.000098
C20	C	1.306345	-0.279515	0.000088
C21	C	0.593195	0.348181	0.000062
C22	C	0.650158	0.246931	0.000063
C23	C	0.757458	0.261448	0.000056
C24	C	0.485885	0.333666	0.000069
C25	C	1.295040	0.307812	0.000077
C26	C	1.400360	0.322091	0.000075
C27	C	1.116259	0.526546	0.000062
C28	C	1.119047	0.666270	0.000057
N29	N	1.121678	0.297560	0.346733
N30	N	1.121676	0.297537	-0.346596
C31	C	1.185620	0.219379	0.423392
C32	C	1.185618	0.219364	0.576729
C33	C	1.057727	0.375722	0.576735
C34	C	1.057726	0.375729	0.423401
C35	C	1.259460	0.129111	0.423390
C36	C	1.259457	0.129096	0.576727
H37	H	0.967450	-0.073741	0.000014
H38	H	0.618341	0.149345	-0.000037
H39	H	1.336468	-0.322133	-0.105089
H40	H	0.625010	0.445759	0.000055
F41	F	1.355427	-0.329168	0.133337
H42	H	1.005651	0.439379	0.360987
F43	F	0.989668	0.458909	0.658341
H44	H	1.243264	0.030951	0.381772
H45	H	1.328330	0.166623	0.375835
H46	H	1.236411	0.035557	0.624275
H47	H	1.332351	0.157942	0.618348
H48	H	1.347956	-0.114956	-0.101838
F49	F	0.940779	-0.327003	0.000012
H50	H	1.340709	-0.109411	0.105282
