data_functionalizedCrystal
_audit_creation_method	'MofGen! by Chris Wilmer'
_symmetry_space_group_name_H-M	'P1'
_symmetry_Int_Tables_number	1
_symmetry_cell_setting	triclinic
loop_
_symmetry_equiv_pos_as_xyz
  x,y,z
_cell_length_a	35.277628
_cell_length_b	35.288095
_cell_length_c	35.277682
_cell_angle_alpha	59.997929
_cell_angle_beta	89.998958
_cell_angle_gamma	60.000166
loop_
_atom_site_label
_atom_site_type_symbol
_atom_site_fract_x
_atom_site_fract_y
_atom_site_fract_z
O1	O	-0.323087	-0.271234	0.011271
O2	O	-0.267964	-0.193634	-0.011228
O3	O	-0.267962	-0.271233	0.066395
O4	O	-0.323089	-0.193635	-0.066351
O5	O	-0.204915	-0.334261	0.066394
O6	O	-0.204918	-0.256661	-0.011228
O7	O	-0.260040	-0.334261	0.011271
Zn8	Zn	-0.222469	-0.305468	0.000022
Zn9	Zn	-0.305535	-0.222427	0.000022
O10	O	-0.260043	-0.256662	-0.066351
C11	C	-0.163481	-0.071298	-0.023519
C12	C	-0.186872	-0.024531	-0.020298
C13	C	-0.117860	-0.093995	-0.023838
C14	C	-0.163483	-0.139918	-0.023524
C15	C	-0.186875	-0.166518	-0.020308
C16	C	-0.117862	-0.162510	-0.023843
C17	C	-0.094838	-0.139921	-0.023519
C18	C	-0.044836	-0.166525	-0.020298
C19	C	-0.186401	-0.093991	-0.023843
C20	C	-0.004439	-0.188019	-0.017694
C21	C	-0.205769	0.013252	-0.017695
C22	C	-0.205774	-0.188010	-0.017709
C23	C	0.046241	-0.214983	-0.014429
C24	C	-0.229477	0.060653	-0.014430
C25	C	-0.229483	-0.214971	-0.014450
C26	C	-0.500364	-0.466062	0.034181
C27	C	-0.477341	-0.511990	0.034503
C28	C	-0.431722	-0.466060	0.034178
C29	C	-0.408804	-0.511988	0.034500
C30	C	-0.431721	-0.534685	0.034181
C31	C	-0.477342	-0.443470	0.034500
C32	C	-0.665895	-0.342485	0.021756
C33	C	-0.712772	-0.317221	0.018243
C34	C	-0.736287	-0.338907	0.016481
C35	C	-0.787116	-0.311512	0.012664
C36	C	-0.712921	-0.385861	0.018236
C37	C	-0.666047	-0.411125	0.021755
C38	C	-0.642533	-0.389434	0.023515
C39	C	-0.389805	-0.687746	0.021758
C40	C	-0.368199	-0.731097	0.018245
C41	C	-0.322995	-0.752841	0.016478
C42	C	-0.299567	-0.799839	0.012662
C43	C	-0.299393	-0.731235	0.018230
C44	C	-0.320995	-0.687892	0.021751
C45	C	-0.366205	-0.666148	0.023512
C46	C	-0.389808	-0.342477	0.021744
C47	C	-0.368205	-0.317208	0.018222
C48	C	-0.322998	-0.338892	0.016457
C49	C	-0.299573	-0.311495	0.012637
C50	C	-0.299398	-0.385842	0.018210
C51	C	-0.321003	-0.411107	0.021730
C52	C	-0.366208	-0.389423	0.023501
C53	C	-0.591706	-0.416830	0.027326
C54	C	-0.551191	-0.438667	0.030366
C55	C	-0.408299	-0.438663	0.030360
C56	C	-0.389629	-0.416824	0.027317
C57	C	-0.408298	-0.581682	0.030365
C58	C	-0.389627	-0.619146	0.027325
C59	C	-0.432024	-0.061845	-0.438511
C60	C	-0.477645	-0.015917	-0.461431
C61	C	-0.432025	-0.061844	-0.369869
C62	C	-0.477645	-0.015916	-0.392892
C63	C	-0.500668	0.006779	-0.438513
C64	C	-0.409106	-0.084435	-0.392891
C65	C	-0.320834	-0.185425	-0.480424
C66	C	-0.299076	-0.210690	-0.502029
C67	C	-0.322531	-0.189005	-0.547237
C68	C	-0.298945	-0.216401	-0.570661
C69	C	-0.367745	-0.142051	-0.570839
C70	C	-0.389497	-0.116787	-0.549237
C71	C	-0.366040	-0.138476	-0.504027
C72	C	-0.666200	0.159838	-0.549704
C73	C	-0.713077	0.203188	-0.571462
C74	C	-0.736595	0.224934	-0.548009
C75	C	-0.787423	0.271931	-0.571594
C76	C	-0.713230	0.203329	-0.502796
C77	C	-0.666353	0.159987	-0.481041
C78	C	-0.642841	0.138241	-0.504500
C79	C	-0.320836	-0.185423	-0.204335
C80	C	-0.299080	-0.210691	-0.157455
C81	C	-0.322536	-0.189006	-0.133940
C82	C	-0.298950	-0.216402	-0.083110
C83	C	-0.367748	-0.142056	-0.157305
C84	C	-0.389502	-0.116792	-0.204182
C85	C	-0.366040	-0.138478	-0.227695
C86	C	-0.389632	-0.111079	-0.480604
C87	C	-0.408436	-0.089241	-0.461934
C88	C	-0.408437	-0.089240	-0.319041
C89	C	-0.389634	-0.111078	-0.278525
C90	C	-0.551496	0.053776	-0.462102
C91	C	-0.592011	0.091239	-0.480906
O92	O	0.196122	-0.334274	0.011291
O93	O	0.063378	-0.256674	-0.011208
O94	O	0.140994	-0.334276	0.066414
O95	O	0.118506	-0.256671	-0.066331
O96	O	0.140996	-0.271251	0.066419
O97	O	0.063380	-0.193649	-0.011203
O98	O	0.196124	-0.271249	0.011296
Zn99	Zn	0.129752	-0.222442	0.000047
Zn100	Zn	0.129750	-0.305480	0.000041
O101	O	0.118508	-0.193647	-0.066327
O102	O	-0.260036	0.184774	0.011294
O103	O	-0.204910	0.074561	-0.011204
O104	O	-0.204913	0.074554	0.066418
O105	O	-0.260033	0.184781	-0.066328
O106	O	-0.267961	0.074557	0.066413
O107	O	-0.267958	0.074564	-0.011209
O108	O	-0.323083	0.184777	0.011289
Zn109	Zn	-0.305531	0.129671	0.000039
Zn110	Zn	-0.222463	0.129667	0.000046
O111	O	-0.323081	0.184784	-0.066333
O112	O	-0.936929	0.397535	-0.602582
O113	O	-0.804185	0.287317	-0.547454
O114	O	-0.881802	0.287315	-0.547452
O115	O	-0.859312	0.397537	-0.602584
O116	O	-0.881801	0.287314	-0.610498
O117	O	-0.804183	0.287316	-0.610500
O118	O	-0.936927	0.397533	-0.665628
Zn119	Zn	-0.870555	0.342425	-0.648073
Zn120	Zn	-0.870557	0.342426	-0.565008
O121	O	-0.859310	0.397536	-0.665629
O122	O	-0.267961	-0.271234	-0.665316
O123	O	-0.323086	-0.193638	-0.610192
O124	O	-0.323085	-0.271236	-0.610189
O125	O	-0.267962	-0.193636	-0.665319
O126	O	-0.260038	-0.334264	-0.547142
O127	O	-0.260039	-0.256666	-0.547145
O128	O	-0.204914	-0.334262	-0.602269
Zn129	Zn	-0.222466	-0.305471	-0.564697
Zn130	Zn	-0.305534	-0.222429	-0.647764
O131	O	-0.204915	-0.256664	-0.602272
C132	C	-0.094840	-0.456607	0.293255
C133	C	-0.044837	-0.503376	0.316647
C134	C	-0.117862	-0.433912	0.316174
C135	C	-0.163483	-0.387984	0.224612
C136	C	-0.186875	-0.361381	0.174609
C137	C	-0.186401	-0.365393	0.247634
C138	C	-0.163483	-0.387984	0.293255
C139	C	-0.186874	-0.361382	0.316646
C140	C	-0.117862	-0.433912	0.247635
C141	C	-0.205772	-0.339889	0.335543
C142	C	-0.004440	-0.541160	0.335545
C143	C	-0.205773	-0.339888	0.134212
C144	C	-0.229480	-0.312925	0.359250
C145	C	0.046239	-0.588562	0.359254
C146	C	-0.229481	-0.312924	0.083532
C147	C	0.153295	-0.388013	0.293279
C148	C	0.150076	-0.361413	0.316673
C149	C	0.153614	-0.433940	0.316196
C150	C	0.153297	-0.388008	0.224634
C151	C	0.150079	-0.361403	0.174632
C152	C	0.153616	-0.433935	0.247655
C153	C	0.153293	-0.456633	0.293275
C154	C	0.150072	-0.503401	0.316665
C155	C	0.153617	-0.365420	0.247659
C156	C	0.147469	-0.541185	0.335561
C157	C	0.147474	-0.339922	0.335572
C158	C	0.147479	-0.339908	0.134234
C159	C	0.144204	-0.588587	0.359267
C160	C	0.144211	-0.312962	0.359282
C161	C	0.144218	-0.312942	0.083555
C162	C	-0.163482	-0.139963	0.293267
C163	C	-0.186875	-0.166567	0.316654
C164	C	-0.117861	-0.162559	0.316187
C165	C	-0.163482	-0.071333	0.224628
C166	C	-0.186873	-0.024557	0.174627
C167	C	-0.117860	-0.094033	0.247653
C168	C	-0.094838	-0.139967	0.293272
C169	C	-0.044835	-0.166574	0.316665
C170	C	-0.186401	-0.094030	0.247648
C171	C	-0.004438	-0.188070	0.335563
C172	C	-0.205773	-0.188061	0.335549
C173	C	-0.205771	0.013233	0.134231
C174	C	0.046242	-0.215038	0.359273
C175	C	-0.229482	-0.215026	0.359253
C176	C	-0.229479	0.060643	0.083553
C177	C	0.095627	0.006487	-0.438489
C178	C	0.095306	-0.016206	-0.461409
C179	C	0.095623	-0.062137	-0.369847
C180	C	0.095303	-0.084726	-0.392871
C181	C	0.095625	-0.062133	-0.438492
C182	C	0.095305	-0.016210	-0.392868
C183	C	0.108059	0.159543	-0.480399
C184	C	0.111575	0.202893	-0.502003
C185	C	0.113340	0.224640	-0.547210
C186	C	0.117161	0.271637	-0.570634
C187	C	0.111587	0.203038	-0.570814
C188	C	0.108065	0.159695	-0.549212
C189	C	0.106302	0.137948	-0.504002
C190	C	0.108054	-0.116452	-0.549685
C191	C	0.111568	-0.141562	-0.571444
C192	C	0.113332	-0.188519	-0.547992
C193	C	0.117148	-0.215753	-0.571578
C194	C	0.111577	-0.210363	-0.502779
C195	C	0.108055	-0.185249	-0.481023
C196	C	0.106297	-0.138292	-0.504481
C197	C	0.108046	-0.116473	-0.204312
C198	C	0.111564	-0.141591	-0.157432
C199	C	0.113326	-0.188548	-0.133918
C200	C	0.117142	-0.215786	-0.083088
C201	C	0.111574	-0.210388	-0.157283
C202	C	0.108058	-0.185270	-0.204161
C203	C	0.106290	-0.138308	-0.227673
C204	C	0.102487	0.090947	-0.480580
C205	C	0.099445	0.053484	-0.461911
C206	C	0.099438	-0.089371	-0.319019
C207	C	0.102477	-0.111078	-0.278503
C208	C	0.099442	-0.089362	-0.462081
C209	C	0.102482	-0.111066	-0.480886
O210	O	0.118477	-0.256700	0.452885
O211	O	0.140984	-0.334299	0.397762
O212	O	0.063360	-0.256699	0.397752
O213	O	0.196101	-0.334300	0.452895
O214	O	0.063367	-0.193672	0.334708
O215	O	0.140992	-0.271271	0.334718
O216	O	0.118484	-0.193673	0.389842
Zn217	Zn	0.129739	-0.222465	0.352270
Zn218	Zn	0.129729	-0.305506	0.435333
O219	O	0.196108	-0.271272	0.389852
C220	C	-0.500364	0.533998	-0.438484
C221	C	-0.477341	0.556591	-0.461399
C222	C	-0.431721	0.465364	-0.369840
C223	C	-0.408802	0.488061	-0.392859
C224	C	-0.431720	0.533995	-0.438478
C225	C	-0.477342	0.488064	-0.392865
C226	C	-0.665898	0.588334	-0.480407
C227	C	-0.712776	0.613450	-0.502014
C228	C	-0.736291	0.660414	-0.547220
C229	C	-0.787122	0.687654	-0.570647
C230	C	-0.712926	0.682257	-0.570819
C231	C	-0.666050	0.657138	-0.549214
C232	C	-0.642536	0.610174	-0.504006
C233	C	-0.389802	0.657585	-0.549654
C234	C	-0.368196	0.682850	-0.571408
C235	C	-0.322990	0.661164	-0.547952
C236	C	-0.299561	0.688558	-0.571532
C237	C	-0.299388	0.614205	-0.502740
C238	C	-0.320990	0.588935	-0.480990
C239	C	-0.366202	0.610633	-0.504452
C240	C	-0.389804	0.312282	-0.204314
C241	C	-0.368201	0.268929	-0.157436
C242	C	-0.322993	0.247179	-0.133918
C243	C	-0.299567	0.200174	-0.083089
C244	C	-0.299392	0.268786	-0.157278
C245	C	-0.320998	0.312139	-0.204154
C246	C	-0.366204	0.333881	-0.227670
C247	C	-0.591708	0.582942	-0.480581
C248	C	-0.551193	0.561234	-0.461909
C249	C	-0.408297	0.418359	-0.319013
C250	C	-0.389626	0.380890	-0.278499
C251	C	-0.408296	0.561393	-0.462062
C252	C	-0.389624	0.583232	-0.480862
H253	H	-0.099379	-0.074998	-0.024355
H254	H	0.154122	-0.452930	0.353678
O255	O	-0.433721	0.678598	-0.572371
C256	C	-0.497490	0.670080	-0.569306
C257	C	-0.447756	0.646235	-0.543526
H258	H	-0.508849	0.643920	-0.545999
H259	H	-0.522076	0.712339	-0.578652
H260	H	-0.498353	0.671617	-0.602372
H261	H	-0.446849	0.644662	-0.510444
H262	H	-0.423192	0.603990	-0.534215
H263	H	-0.495832	0.469078	-0.374381
H264	H	-0.223884	-0.075035	0.229163
H265	H	-0.099381	-0.199518	0.353671
O266	O	-0.499336	-0.534734	0.035206
C267	C	-0.499435	-0.613500	0.076114
C268	C	-0.474492	-0.587800	0.075379
H269	H	-0.479353	-0.656411	0.108586
H270	H	-0.536061	-0.589421	0.076314
H271	H	-0.501340	-0.613702	0.043962
H272	H	-0.472552	-0.587593	0.107525
H273	H	-0.437879	-0.611887	0.075155
O274	O	-0.433411	-0.071175	-0.226814
C275	C	-0.499232	-0.005778	-0.221713
C276	C	-0.449503	-0.057435	-0.196030
H277	H	-0.512261	0.005340	-0.196832
H278	H	-0.499303	0.028167	-0.252185
H279	H	-0.522962	-0.012621	-0.235131
H280	H	-0.425744	-0.050644	-0.182582
H281	H	-0.449468	-0.091363	-0.165580
H282	H	0.154133	-0.328462	0.229178
H283	H	-0.495826	0.593550	-0.498882
H284	H	0.094785	-0.121682	-0.374387
O285	O	-0.231126	-0.071248	-0.024486
C286	C	-0.297180	-0.000088	-0.025374
C287	C	-0.246534	-0.025783	-0.024653
H288	H	-0.309650	0.036669	-0.025499
H289	H	-0.320072	0.012400	-0.057873
H290	H	-0.299303	-0.030339	0.006753
H291	H	-0.244367	0.004440	-0.056757
H292	H	-0.223666	-0.038282	0.007867
H293	H	-0.496124	0.003081	-0.498917
O294	O	0.113227	-0.255936	-0.480067
C295	C	0.077286	-0.298974	-0.479439
C296	C	0.075366	-0.247330	-0.505212
H297	H	0.046674	-0.292030	-0.499753
H298	H	0.111143	-0.332839	-0.476077
H299	H	0.075448	-0.310276	-0.443384
H300	H	0.077185	-0.235978	-0.541280
H301	H	0.041511	-0.213496	-0.508537
H302	H	-0.731792	-0.278991	0.016812
H303	H	-0.301784	-0.449335	0.023157
O304	O	0.094798	0.006393	-0.506092
C305	C	0.133934	0.032255	-0.559275
C306	C	0.134557	0.006661	-0.508659
H307	H	0.166071	0.032490	-0.561368
H308	H	0.133797	0.008111	-0.571767
H309	H	0.101447	0.075150	-0.582169
H310	H	0.167038	-0.036232	-0.485728
H311	H	0.134669	0.030844	-0.496204
H312	H	0.094825	0.002760	-0.374372
O313	O	-0.095883	-0.071290	0.225548
C314	C	-0.101009	-0.000123	0.155257
C315	C	-0.125955	-0.025817	0.180236
H316	H	-0.125308	0.036639	0.118615
H317	H	-0.090602	0.012355	0.175270
H318	H	-0.068631	-0.030371	0.153385
H319	H	-0.158349	0.004403	0.182114
H320	H	-0.136327	-0.038307	0.160214
O321	O	0.113238	-0.120292	-0.134812
C322	C	0.112874	-0.049416	-0.139902
C323	C	0.110967	-0.073477	-0.165576
H324	H	0.111049	-0.011569	-0.164761
H325	H	0.082281	-0.039042	-0.126514
H326	H	0.146743	-0.079855	-0.109408
H327	H	0.077118	-0.043065	-0.196088
H328	H	0.141584	-0.083864	-0.178930
O329	O	-0.735688	-0.407010	0.016550
C330	C	-0.730898	-0.477737	0.016887
C331	C	-0.705057	-0.453848	0.018811
H332	H	-0.706147	-0.515604	0.018704
H333	H	-0.744295	-0.488041	0.047479
H334	H	-0.761396	-0.447224	-0.016984
H335	H	-0.674540	-0.484335	0.052662
H336	H	-0.691694	-0.443532	-0.011804
H337	H	-0.387416	0.721084	-0.608218
O338	O	0.113299	-0.256011	-0.134508
C339	C	0.112906	-0.321574	-0.139320
C340	C	0.110959	-0.269913	-0.165164
H341	H	0.111006	-0.332823	-0.164096
H342	H	0.146789	-0.355459	-0.108840
H343	H	0.082330	-0.314663	-0.125897
H344	H	0.141512	-0.276772	-0.178617
H345	H	0.077058	-0.236046	-0.195621
H346	H	-0.371321	-0.530978	0.035012
H347	H	-0.099377	-0.452909	0.353658
O348	O	-0.231094	-0.321252	0.225518
C349	C	-0.284283	-0.228946	0.160539
C350	C	-0.233658	-0.278904	0.185528
H351	H	-0.286371	-0.194692	0.128208
H352	H	-0.307190	-0.238490	0.150063
H353	H	-0.296761	-0.216663	0.184870
H354	H	-0.221137	-0.291213	0.161223
H355	H	-0.210782	-0.269333	0.196012
O356	O	-0.095741	-0.456628	0.225646
C357	C	-0.025415	-0.527727	0.230742
C358	C	-0.050422	-0.502080	0.255711
H359	H	0.011233	-0.564473	0.255035
H360	H	-0.045397	-0.540221	0.220313
H361	H	-0.023561	-0.497443	0.198375
H362	H	-0.052282	-0.532335	0.288094
H363	H	-0.030430	-0.489574	0.266105
H364	H	0.154138	-0.452930	0.229170
H365	H	-0.099380	-0.199466	-0.024359
O366	O	-0.255483	0.593217	-0.480012
C367	C	-0.191694	0.601700	-0.483097
C368	C	-0.241420	0.625530	-0.508886
H369	H	-0.180304	0.627808	-0.506434
H370	H	-0.190802	0.600197	-0.450046
H371	H	-0.167147	0.559424	-0.473726
H372	H	-0.265995	0.667815	-0.518289
H373	H	-0.242273	0.626992	-0.541917
H374	H	-0.262581	0.251075	-0.138127
O375	O	-0.643732	0.139053	-0.437117
C376	C	-0.648818	0.143791	-0.371317
C377	C	-0.674494	0.167541	-0.421056
H378	H	-0.673675	0.166820	-0.358320
H379	H	-0.635426	0.099821	-0.347544
H380	H	-0.618327	0.147170	-0.371279
H381	H	-0.705003	0.164200	-0.421138
H382	H	-0.687852	0.211501	-0.444808
O383	O	-0.499453	-0.399391	0.035130
C384	C	-0.569756	-0.334227	0.035991
C385	C	-0.544767	-0.384153	0.035293
H386	H	-0.606399	-0.321885	0.036114
H387	H	-0.549754	-0.343814	0.068483
H388	H	-0.571622	-0.299995	0.003857
H389	H	-0.542895	-0.418407	0.067405
H390	H	-0.564778	-0.374521	0.002780
O391	O	0.106250	-0.070806	-0.227193
C392	C	0.062390	0.022697	-0.290795
C393	C	0.064357	-0.028976	-0.264916
H394	H	0.028528	0.056528	-0.321305
H395	H	0.064219	0.034036	-0.266072
H396	H	0.092990	0.015770	-0.304183
H397	H	0.033764	-0.022089	-0.251526
H398	H	0.062550	-0.040299	-0.289656
H399	H	-0.647026	-0.449354	0.023185
O400	O	-0.298007	0.543340	-0.437066
C401	C	-0.227471	0.477902	-0.371261
C402	C	-0.253449	0.529546	-0.421000
H403	H	-0.191437	0.466727	-0.358261
H404	H	-0.247683	0.484719	-0.347490
H405	H	-0.224053	0.444003	-0.371223
H406	H	-0.256874	0.563470	-0.421083
H407	H	-0.233226	0.522684	-0.444750
H408	H	0.106623	0.141841	-0.443588
O409	O	-0.735840	0.224170	-0.615352
C410	C	-0.799232	0.243668	-0.665081
C411	C	-0.773502	0.219902	-0.615357
H412	H	-0.829681	0.240216	-0.665100
H413	H	-0.812676	0.287656	-0.688845
H414	H	-0.774362	0.220689	-0.678107
H415	H	-0.798345	0.242839	-0.602289
H416	H	-0.760051	0.175910	-0.591624
H417	H	0.106619	-0.078217	-0.568789
O418	O	-0.499658	0.006784	-0.370857
C419	C	-0.499804	0.047802	-0.332986
C420	C	-0.474829	0.022114	-0.357937
H421	H	-0.479735	0.060194	-0.322524
H422	H	-0.536425	0.084617	-0.357292
H423	H	-0.501725	0.017572	-0.300638
H424	H	-0.472874	0.052303	-0.390283
H425	H	-0.438222	-0.014711	-0.333599
H426	H	-0.387425	-0.278978	0.016792
H427	H	0.113004	0.220477	-0.482781
H428	H	-0.426617	-0.324814	0.023182
O429	O	-0.643115	-0.321368	0.023501
C430	C	-0.647909	-0.250631	0.023149
C431	C	-0.673764	-0.274486	0.021171
H432	H	-0.672680	-0.212717	0.021257
H433	H	-0.617436	-0.281107	0.057039
H434	H	-0.634475	-0.240392	-0.007419
H435	H	-0.687228	-0.284724	0.051716
H436	H	-0.704214	-0.243996	-0.012738
O437	O	0.113276	0.224113	-0.614735
C438	C	0.112945	0.219662	-0.680694
C439	C	0.111015	0.195753	-0.630958
H440	H	0.111128	0.196736	-0.693822
H441	H	0.082355	0.263639	-0.704398
H442	H	0.146816	0.216288	-0.680668
H443	H	0.077164	0.199087	-0.630939
H444	H	0.141629	0.151786	-0.607275
H445	H	0.106637	0.142110	-0.568432
H446	H	0.112999	-0.123775	-0.608256
O447	O	0.106375	-0.206549	-0.437098
C448	C	0.106727	-0.277421	-0.371296
C449	C	0.108642	-0.253361	-0.421036
H450	H	0.108549	-0.315265	-0.358298
H451	H	0.137320	-0.287801	-0.347525
H452	H	0.072858	-0.246980	-0.371253
H453	H	0.142491	-0.283775	-0.421124
H454	H	0.078026	-0.242968	-0.444786
H455	H	-0.387422	0.251343	-0.138417
H456	H	0.106630	-0.203055	-0.223182
H457	H	-0.371318	0.469063	-0.374372
O458	O	-0.433712	-0.666708	0.023490
C459	C	-0.499687	-0.671127	0.023109
C460	C	-0.449961	-0.695014	0.021155
H461	H	-0.512843	-0.693995	0.021212
H462	H	-0.499692	-0.674532	0.056993
H463	H	-0.523351	-0.627139	-0.007467
H464	H	-0.426268	-0.739009	0.051707
H465	H	-0.449993	-0.691568	-0.012748
O466	O	-0.391075	-0.752160	0.016619
C467	C	-0.391935	-0.830347	0.052532
C468	C	-0.365987	-0.806559	0.054436
H469	H	-0.371657	-0.874335	0.083097
H470	H	-0.427952	-0.807402	0.054424
H471	H	-0.395393	-0.826921	0.018641
H472	H	-0.362495	-0.809980	0.088321
H473	H	-0.329986	-0.829508	0.052518
O474	O	-0.433728	0.333358	-0.227081
C475	C	-0.499690	0.328911	-0.222298
C476	C	-0.449952	0.304995	-0.196454
H477	H	-0.512818	0.305983	-0.197549
H478	H	-0.523390	0.372886	-0.235691
H479	H	-0.499669	0.325546	-0.252800
H480	H	-0.449928	0.308321	-0.165933
H481	H	-0.426273	0.261031	-0.183094
O482	O	-0.255490	-0.752406	0.016492
C483	C	-0.191702	-0.819266	0.011096
C484	C	-0.241427	-0.795335	0.013051
H485	H	-0.180313	-0.853985	0.008324
H486	H	-0.190812	-0.787117	-0.020456
H487	H	-0.167153	-0.834433	0.044010
H488	H	-0.266003	-0.780170	-0.019840
H489	H	-0.242278	-0.827501	0.044625
H490	H	-0.301775	-0.670305	0.023178
O491	O	-0.643122	0.542703	-0.436501
C492	C	-0.647925	0.477122	-0.370531
C493	C	-0.673773	0.528793	-0.420255
H494	H	-0.672698	0.465867	-0.357376
H495	H	-0.617447	0.443246	-0.370529
H496	H	-0.634498	0.484024	-0.346861
H497	H	-0.687230	0.521944	-0.443952
H498	H	-0.704228	0.562652	-0.420220
H499	H	-0.732075	0.720493	-0.607626
O500	O	-0.735538	0.592326	-0.479114
C501	C	-0.798928	0.605974	-0.448885
C502	C	-0.773199	0.629966	-0.474835
H503	H	-0.829376	0.636391	-0.445408
H504	H	-0.812372	0.595664	-0.469127
H505	H	-0.774056	0.568084	-0.412874
H506	H	-0.798043	0.667871	-0.510846
H507	H	-0.759747	0.640238	-0.454557
O508	O	-0.736144	0.224502	-0.480071
C509	C	-0.808419	0.291365	-0.483165
C510	C	-0.782527	0.267431	-0.508950
H511	H	-0.845922	0.326084	-0.506506
H512	H	-0.807814	0.259219	-0.450116
H513	H	-0.790677	0.306533	-0.473792
H514	H	-0.800250	0.252266	-0.518355
H515	H	-0.783129	0.299595	-0.541979
O516	O	-0.643430	0.678439	-0.572193
C517	C	-0.648517	0.749319	-0.642724
C518	C	-0.674193	0.725257	-0.616750
H519	H	-0.673375	0.787169	-0.678756
H520	H	-0.635128	0.759690	-0.622506
H521	H	-0.618025	0.718883	-0.646148
H522	H	-0.704703	0.755667	-0.613319
H523	H	-0.687548	0.714874	-0.636979
H524	H	-0.301778	0.329728	-0.223172
H525	H	-0.262587	-0.403497	0.016771
O526	O	-0.364363	-0.128470	-0.370878
C527	C	-0.285461	-0.166477	-0.370733
C528	C	-0.336108	-0.116566	-0.395708
H529	H	-0.262604	-0.156873	-0.390803
H530	H	-0.272941	-0.178789	-0.334112
H531	H	-0.283352	-0.200736	-0.368810
H532	H	-0.338257	-0.082274	-0.397666
H533	H	-0.348607	-0.104300	-0.432315
O534	O	-0.255154	-0.256280	-0.134835
C535	C	-0.189349	-0.321704	-0.139926
C536	C	-0.239091	-0.270067	-0.165600
H537	H	-0.176350	-0.332873	-0.164785
H538	H	-0.165582	-0.314880	-0.126537
H539	H	-0.189303	-0.355610	-0.109433
H540	H	-0.239181	-0.236136	-0.196111
H541	H	-0.262836	-0.276935	-0.178955
H542	H	-0.301727	-0.203079	-0.223479
H543	H	-0.262264	-0.248919	-0.482808
O544	O	-0.390469	-0.121073	-0.614741
C545	C	-0.387379	-0.129561	-0.678527
C546	C	-0.361591	-0.153384	-0.628803
H547	H	-0.364039	-0.155667	-0.689915
H548	H	-0.420425	-0.128067	-0.679415
H549	H	-0.396757	-0.087282	-0.703078
H550	H	-0.352182	-0.195672	-0.604223
H551	H	-0.328566	-0.154837	-0.627953
O552	O	-0.297972	-0.206550	-0.436517
C553	C	-0.227577	-0.277308	-0.370539
C554	C	-0.253408	-0.253437	-0.420266
H555	H	-0.191546	-0.315226	-0.357382
H556	H	-0.224167	-0.246843	-0.370535
H557	H	-0.247913	-0.287544	-0.346875
H558	H	-0.233094	-0.243203	-0.443959
H559	H	-0.256823	-0.283916	-0.420233
H560	H	-0.426308	-0.078556	-0.568458
O561	O	-0.643363	0.138808	-0.572549
C562	C	-0.618361	0.154781	-0.639273
C563	C	-0.644225	0.178659	-0.613441
H564	H	-0.619057	0.186993	-0.672344
H565	H	-0.580829	0.120106	-0.615997
H566	H	-0.636079	0.139573	-0.648615
H567	H	-0.626545	0.193898	-0.604096
H568	H	-0.681757	0.213311	-0.636732
O569	O	-0.390462	-0.121045	-0.134401
C570	C	-0.387395	-0.129559	-0.062113
C571	C	-0.361615	-0.153403	-0.087996
H572	H	-0.364087	-0.155716	-0.024588
H573	H	-0.396744	-0.087297	-0.079803
H574	H	-0.420458	-0.128028	-0.062782
H575	H	-0.328536	-0.154971	-0.087335
H576	H	-0.352301	-0.195651	-0.070299
