data_functionalizedCrystal
_audit_creation_method	'MofGen! by Chris Wilmer'
_symmetry_space_group_name_H-M	'P1'
_symmetry_Int_Tables_number	1
_symmetry_cell_setting	triclinic
loop_
_symmetry_equiv_pos_as_xyz
  x,y,z
_cell_length_a	18.050591
_cell_length_b	21.295417
_cell_length_c	21.295120
_cell_angle_alpha	89.638316
_cell_angle_beta	89.926922
_cell_angle_gamma	90.026512
loop_
_atom_site_label
_atom_site_type_symbol
_atom_site_fract_x
_atom_site_fract_y
_atom_site_fract_z
Zn1	Zn	1.135664	-0.248635	-0.356024
Zn2	Zn	1.135457	-0.354512	-0.250746
Zn3	Zn	1.011370	-0.249253	-0.250755
Zn4	Zn	1.011426	-0.353863	-0.355970
O5	O	1.073479	-0.301566	-0.303374
O6	O	1.239561	-0.262692	-0.342078
O7	O	1.118886	-0.341079	-0.162655
O8	O	1.027921	-0.161081	-0.264745
O9	O	1.239409	-0.340480	-0.264730
O10	O	1.119240	-0.160627	-0.342086
O11	O	1.027720	-0.263746	-0.162661
O12	O	0.907453	-0.263117	-0.264693
O13	O	1.028017	-0.339375	-0.444070
O14	O	0.907494	-0.339974	-0.341994
O15	O	1.119294	-0.262064	-0.444109
O16	O	1.118940	-0.442515	-0.264678
O17	O	1.027816	-0.442039	-0.341986
C18	C	0.880527	-0.301542	-0.303339
C19	C	0.797981	-0.301548	-0.303339
C20	C	0.598487	-0.259704	-0.261399
C21	C	0.549048	-0.317209	-0.245903
C22	C	0.646851	-0.301567	-0.303367
C23	C	0.549208	-0.244081	-0.318862
C24	C	0.500866	-0.301580	-0.303394
C25	C	0.598499	-0.359102	-0.287841
C26	C	0.598664	-0.285935	-0.360827
C27	C	0.549247	-0.343480	-0.345353
C28	C	0.730949	-0.301558	-0.303351
C29	C	0.416769	-0.301595	-0.303411
C30	C	1.073382	-0.465118	-0.303339
C31	C	1.073408	-0.535086	-0.303345
C32	C	1.120899	-0.568179	-0.263132
C33	C	1.120934	-0.633922	-0.263146
C34	C	1.073465	-0.666568	-0.303367
C35	C	1.025971	-0.633466	-0.343588
C36	C	1.025942	-0.567725	-0.343577
N37	N	1.008503	-0.769802	-0.308154
N38	N	1.008532	-0.832254	-0.308161
C39	C	1.073548	-0.864642	-0.303403
N40	N	1.138535	-0.832221	-0.298626
N41	N	1.138506	-0.769763	-0.298616
C42	C	1.073490	-0.737853	-0.303383
C43	C	1.121080	-0.969021	-0.263203
C44	C	1.121116	-1.034765	-0.263222
C45	C	1.026147	-1.034309	-0.343660
C46	C	1.026117	-0.968566	-0.343644
C47	C	1.073583	-0.935927	-0.303413
C48	C	1.267185	-0.301589	-0.303409
C49	C	1.349731	-0.301600	-0.303424
C50	C	1.073685	-0.300578	-0.467570
C51	C	1.073773	-0.300157	-0.537540
C52	C	1.073597	-0.137375	-0.303423
C53	C	1.073648	-0.067407	-0.303443
C54	C	1.073317	-0.302504	-0.139817
C55	C	1.073373	-0.302748	-0.069846
C56	C	1.120567	-0.262042	-0.037511
C57	C	1.120622	-0.261724	0.028230
C58	C	1.073469	-0.302105	0.061632
C59	C	1.026271	-0.342819	0.029289
C60	C	1.026223	-0.343140	-0.036451
N61	N	1.008576	-0.306821	0.165012
N62	N	1.008624	-0.306512	0.227461
C63	C	1.073612	-0.301141	0.259701
N64	N	1.138552	-0.296077	0.227132
N65	N	1.138503	-0.296383	0.164677
C66	C	1.073516	-0.301762	0.132915
C67	C	1.120870	-0.260088	0.363320
C68	C	1.120926	-0.259774	0.429062
C69	C	1.026568	-0.340866	0.430120
C70	C	1.026519	-0.341183	0.364379
C71	C	1.073669	-0.300791	0.330983
H72	H	1.159550	-0.541606	-0.230375
H73	H	0.987269	-0.540780	-0.376324
Cl74	Cl	0.631872	-0.205105	-0.206548
H75	H	1.159732	-0.942445	-0.230446
Cl76	Cl	0.515402	-0.337637	-0.170899
Cl77	Cl	1.180266	-0.208600	0.469713
Cl78	Cl	0.967298	-0.391639	0.472105
Cl79	Cl	0.967184	-0.392358	0.323726
Cl80	Cl	0.631784	-0.434191	-0.267537
H81	H	1.159794	-1.061709	-0.230477
Cl82	Cl	0.966475	-1.075344	-0.394228
Cl83	Cl	0.516072	-0.398208	-0.400166
Cl84	Cl	0.632335	-0.265483	-0.435812
H85	H	0.987442	-0.941620	-0.376387
H86	H	1.159609	-0.660872	-0.230400
H87	H	0.987322	-0.660051	-0.376336
Cl88	Cl	1.179871	-0.211288	-0.079491
H89	H	0.527517	-0.195467	-0.331934
Cl90	Cl	1.179956	-0.210546	0.068889
H91	H	0.987880	-0.375699	0.056489
H92	H	0.987791	-0.376289	-0.062778
Cl93	Cl	1.180129	-0.209299	0.321334
