data_functionalizedCrystal
_audit_creation_method	'MofGen! by Chris Wilmer'
_symmetry_space_group_name_H-M	'P1'
_symmetry_Int_Tables_number	1
_symmetry_cell_setting	triclinic
loop_
_symmetry_equiv_pos_as_xyz
  x,y,z
_cell_length_a	14.908571
_cell_length_b	12.759394
_cell_length_c	14.909241
_cell_angle_alpha	86.675080
_cell_angle_beta	83.210755
_cell_angle_gamma	86.711101
loop_
_atom_site_label
_atom_site_type_symbol
_atom_site_fract_x
_atom_site_fract_y
_atom_site_fract_z
Zn1	Zn	1.413402	-0.473613	-0.591532
Zn2	Zn	1.404580	-0.658900	-0.440167
Zn3	Zn	1.253299	-0.473638	-0.431463
Zn4	Zn	1.262016	-0.639651	-0.582769
O5	O	1.333324	-0.561450	-0.511483
O6	O	1.538900	-0.506237	-0.578763
O7	O	1.377172	-0.642391	-0.312344
O8	O	1.274580	-0.326615	-0.452722
O9	O	1.532419	-0.642366	-0.467556
O10	O	1.392208	-0.326597	-0.570323
O11	O	1.266026	-0.506280	-0.305949
O12	O	1.127787	-0.487615	-0.444224
O13	O	1.289438	-0.609559	-0.710600
O14	O	1.134192	-0.609584	-0.555388
O15	O	1.400661	-0.487572	-0.717038
O16	O	1.385625	-0.803366	-0.459059
O17	O	1.280884	-0.789224	-0.563828
C18	C	1.098146	-0.546514	-0.497911
C19	C	0.997537	-0.540149	-0.492126
C20	C	0.815190	-0.655411	-0.596855
C21	C	0.720659	-0.649433	-0.591423
C22	C	0.713942	-0.522209	-0.475836
C23	C	0.808473	-0.528188	-0.481268
C24	C	0.859094	-0.594792	-0.541779
C25	C	0.953626	-0.600775	-0.547205
C26	C	0.946908	-0.473546	-0.431623
C27	C	0.852377	-0.467568	-0.426191
C28	C	1.333269	-0.834416	-0.511458
C29	C	1.333329	-0.951195	-0.511482
C30	C	1.442489	-0.965868	-0.402478
C31	C	1.497093	-1.028066	-0.347988
C32	C	1.497147	-1.137789	-0.348016
C33	C	1.442594	-1.185316	-0.402542
C34	C	1.387990	-1.123118	-0.457031
C35	C	1.387939	-1.013393	-0.456996
C36	C	1.278837	-1.108446	-0.566039
C37	C	1.278776	-0.998722	-0.566008
C38	C	1.224284	-1.155973	-0.620564
C39	C	1.169674	-1.093775	-0.675051
C40	C	1.169621	-0.984045	-0.675020
C41	C	1.224172	-0.936524	-0.620498
C42	C	1.569421	-0.576446	-0.525108
C43	C	1.670032	-0.582836	-0.530915
C44	C	1.347006	-0.546416	-0.747581
C45	C	1.352836	-0.540009	-0.848192
C46	C	1.333406	-0.287419	-0.511529
C47	C	1.333441	-0.170644	-0.511549
C48	C	1.247977	-0.655019	-1.030548
C49	C	1.253452	-0.649002	-1.125081
C50	C	1.369265	-0.521965	-1.131792
C51	C	1.363790	-0.527982	-1.037259
C52	C	1.303143	-0.594510	-0.986640
C53	C	1.297664	-0.600520	-0.892106
C54	C	1.413481	-0.473489	-0.898819
C55	C	1.418956	-0.467472	-0.993352
C56	C	1.319748	-0.576354	-0.276306
C57	C	1.314093	-0.582476	-0.175706
H58	H	0.672711	-0.467977	-0.426576
C59	C	1.442425	-0.845170	-0.402434
N60	N	1.442379	-0.754259	-0.402399
C61	C	1.230953	-0.673703	-0.836426
N62	N	1.180707	-0.728830	-0.794491
C63	C	1.485656	-0.394286	-1.049043
N64	N	1.535891	-0.339154	-1.090988
C65	C	1.224124	-0.815827	-0.620463
N66	N	1.224094	-0.724916	-0.620440
H67	H	1.125265	-1.132481	-0.719445
H68	H	1.458397	-0.424212	-0.863059
H69	H	0.994840	-0.655009	-0.596475
H70	H	1.224336	-1.245316	-0.620587
H71	H	0.684916	-0.698793	-0.636274
H72	H	1.541512	-0.989359	-0.303596
H73	H	1.541615	-1.188431	-0.303650
C74	C	0.796684	-0.394307	-0.359632
N75	N	0.754736	-0.339128	-0.309497
C76	C	0.995210	-0.406864	-0.371031
N77	N	1.031591	-0.356644	-0.325392
C78	C	1.109558	-0.915635	-0.734972
N79	N	1.064319	-0.864113	-0.780131
C80	C	1.192762	-0.715563	-1.173376
N81	N	1.147047	-0.765700	-1.209751
H82	H	1.442651	-1.274659	-0.402567
C83	C	0.870874	-0.728679	-0.663414
N84	N	0.912815	-0.783865	-0.713548
C85	C	1.181263	-0.728195	-0.974865
N86	N	1.131014	-0.783315	-0.932926
C87	C	1.435964	-0.448782	-1.187488
N88	N	1.486198	-0.393654	-1.229440
