data_functionalizedCrystal
_audit_creation_method	'MofGen! by Chris Wilmer'
_symmetry_space_group_name_H-M	'P1'
_symmetry_Int_Tables_number	1
_symmetry_cell_setting	triclinic
loop_
_symmetry_equiv_pos_as_xyz
  x,y,z
_cell_length_a	8.497374
_cell_length_b	10.686220
_cell_length_c	10.686551
_cell_angle_alpha	89.691918
_cell_angle_beta	85.606337
_cell_angle_gamma	85.618240
loop_
_atom_site_label
_atom_site_type_symbol
_atom_site_fract_x
_atom_site_fract_y
_atom_site_fract_z
Zn1	Zn	0.384595	1.972367	0.562450
Zn2	Zn	0.717929	2.305700	0.895784
Zn3	Zn	1.051262	2.639034	1.229117
Zn4	Zn	0.670124	1.956197	0.352740
Zn5	Zn	1.003457	2.289530	0.686073
Zn6	Zn	1.336790	2.622863	1.019406
Zn7	Zn	0.424950	1.746494	0.368775
Zn8	Zn	0.758283	2.079827	0.702108
Zn9	Zn	1.091617	2.413160	1.035441
Zn10	Zn	0.666927	1.762626	0.578517
Zn11	Zn	1.000260	2.095960	0.911850
Zn12	Zn	1.333593	2.429293	1.245183
O13	O	0.536649	1.859421	0.465620
O14	O	0.869982	2.192754	0.798954
O15	O	1.203316	2.526088	1.132287
O16	O	0.406921	2.145761	0.521197
O17	O	0.740254	2.479094	0.854531
O18	O	1.073587	2.812427	1.187864
O19	O	0.655827	1.914860	0.179324
O20	O	0.989161	2.248194	0.512658
O21	O	1.322494	2.581527	0.845991
O22	O	0.198834	1.776472	0.394453
O23	O	0.532168	2.109806	0.727786
O24	O	0.865501	2.443139	1.061120
O25	O	0.616697	2.133880	0.367124
O26	O	0.950030	2.467214	0.700457
O27	O	1.283364	2.800547	1.033790
O28	O	0.169186	1.942420	0.536746
O29	O	0.502519	2.275754	0.870079
O30	O	0.835853	2.609087	1.203412
O31	O	0.475699	1.760793	0.191105
O32	O	0.809033	2.094126	0.524438
O33	O	1.142366	2.427459	0.857772
O34	O	0.472600	1.573095	0.410032
O35	O	0.805933	1.906428	0.743365
O36	O	1.139266	2.239762	1.076699
O37	O	0.611248	1.803968	0.751928
O38	O	0.944582	2.137301	1.085261
O39	O	1.277915	2.470634	1.418595
O40	O	0.650379	1.584948	0.564129
O41	O	0.983712	1.918281	0.897462
O42	O	1.317045	2.251614	1.230795
O43	O	0.403821	1.958063	0.740124
O44	O	0.737154	2.291397	1.073457
O45	O	1.070488	2.624730	1.406791
O46	O	0.890462	1.930503	0.382703
O47	O	1.223796	2.263837	0.716036
O48	O	1.557129	2.597170	1.049369
O49	O	0.888113	1.788288	0.548580
O50	O	1.221447	2.121621	0.881913
O51	O	1.554780	2.454955	1.215247
C52	C	0.565522	1.533506	0.490564
C53	C	0.898856	1.866840	0.823898
C54	C	1.232189	2.200173	1.157231
C55	C	0.577909	1.394081	0.501265
C56	C	0.911243	1.727414	0.834599
C57	C	1.244576	2.060747	1.167932
C58	C	0.946528	1.859407	0.465640
C59	C	1.279862	2.192740	0.798973
C60	C	1.613195	2.526073	1.132306
C61	C	1.125172	1.859438	0.465617
C62	C	1.458505	2.192772	0.798950
C63	C	1.791838	2.526105	1.132283
C64	C	0.502677	1.884619	0.792815
C65	C	0.836010	2.217952	1.126148
C66	C	1.169343	2.551285	1.459482
C67	C	0.488200	1.895356	0.932246
C68	C	0.821533	2.228690	1.265579
C69	C	1.154866	2.562023	1.598912
C70	C	0.507664	2.186608	0.440580
C71	C	0.840997	2.519942	0.773913
C72	C	1.174331	2.853275	1.107246
C73	C	0.495312	2.326036	0.429909
C74	C	0.828646	2.659369	0.763242
C75	C	1.161979	2.992703	1.096575
C76	C	0.570369	1.834393	0.139693
C77	C	0.903702	2.167727	0.473026
C78	C	1.237036	2.501060	0.806360
C79	C	0.584380	1.823899	0.000244
C80	C	0.917713	2.157232	0.333578
C81	C	1.251047	2.490565	0.666911
H82	H	0.658115	1.345665	0.570541
H83	H	0.991449	1.678999	0.903874
H84	H	1.324782	2.012332	1.237207
H85	H	0.677804	1.754509	0.951792
H86	H	1.011137	2.087843	1.285125
H87	H	1.344471	2.421176	1.618459
H88	H	0.394780	1.964759	0.980704
H89	H	0.728113	2.298093	1.314037
H90	H	1.061447	2.631426	1.647370
H91	H	0.415123	1.374445	0.360630
H92	H	0.748456	1.707778	0.693963
H93	H	1.081789	2.041112	1.027296
