data_functionalizedCrystal
_audit_creation_method	'MofGen! by Chris Wilmer'
_symmetry_space_group_name_H-M	'P1'
_symmetry_Int_Tables_number	1
_symmetry_cell_setting	triclinic
loop_
_symmetry_equiv_pos_as_xyz
  x,y,z
_cell_length_a	12.811457
_cell_length_b	12.811415
_cell_length_c	11.892095
_cell_angle_alpha	88.492960
_cell_angle_beta	91.498327
_cell_angle_gamma	84.559489
loop_
_atom_site_label
_atom_site_type_symbol
_atom_site_fract_x
_atom_site_fract_y
_atom_site_fract_z
O1	O	1.390870	0.143770	0.033848
O2	O	1.087662	0.156841	0.001422
O3	O	1.245799	-0.001301	0.033851
O4	O	1.232733	0.301912	0.001418
O5	O	1.232614	0.011864	0.219157
O6	O	1.074476	0.170006	0.186728
O7	O	1.377685	0.156935	0.219153
Zn8	Zn	1.223987	0.165561	0.232362
Zn9	Zn	1.241359	0.148215	-0.011787
O10	O	1.219548	0.315077	0.186724
C11	C	1.042236	0.162287	0.090210
C12	C	0.926527	0.158891	0.078695
C13	C	0.694721	0.166842	0.259103
C14	C	0.586002	0.163650	0.248290
C15	C	0.600367	0.149308	0.046257
C16	C	0.709087	0.152500	0.057070
C17	C	0.756259	0.161268	0.163497
C18	C	0.864980	0.164467	0.174308
C19	C	0.879344	0.150118	-0.027723
C20	C	0.770625	0.146926	-0.038536
C21	C	1.238070	-0.033552	0.130367
C22	C	1.234672	-0.149264	0.141877
C23	C	1.242644	-0.381041	-0.038539
C24	C	1.239452	-0.489762	-0.027730
C25	C	1.225087	-0.475430	0.174304
C26	C	1.228280	-0.366708	0.163494
C27	C	1.237060	-0.319518	0.057069
C28	C	1.240260	-0.210795	0.046262
C29	C	1.225888	-0.196464	0.248294
C30	C	1.222695	-0.305185	0.259103
C31	C	1.423110	0.151488	0.130363
C32	C	1.538820	0.154885	0.141870
C33	C	1.227277	0.347328	0.090206
C34	C	1.230675	0.463039	0.078688
N35	N	1.212138	0.177398	0.398987
N36	N	1.253216	0.136370	-0.178410
C37	C	1.335663	0.053941	0.660959
C38	C	1.327389	0.062223	0.777603
C39	C	1.187311	0.202238	0.748922
C40	C	1.195585	0.193956	0.632278
C41	C	1.269765	0.119806	0.588301
C42	C	1.278044	0.111530	0.471654
C43	C	1.137961	0.251539	0.442976
C44	C	1.129687	0.259821	0.559620
H45	H	0.733128	0.173995	0.345758
H46	H	1.247412	-0.172375	-0.040394
H47	H	1.243995	-0.539850	-0.105585
O48	O	1.057581	0.331712	0.602481
C49	C	0.987840	0.279913	0.669087
H50	H	1.027154	0.200105	0.699014
H51	H	0.913929	0.268715	0.617068
C52	C	0.910108	0.444283	0.734931
C53	C	0.958398	0.346266	0.771695
H54	H	0.891942	0.485214	0.798222
H55	H	0.957091	0.479182	0.690054
H56	H	0.848521	0.434937	0.691581
H57	H	1.019990	0.355612	0.815031
H58	H	0.911424	0.311369	0.816582
H59	H	1.221345	-0.146360	0.326146
O60	O	1.251135	-0.335357	-0.142002
C61	C	1.255415	-0.412978	-0.224070
H62	H	1.218110	-0.484447	-0.190533
H63	H	1.340710	-0.436707	-0.244403
C64	C	1.241081	-0.281391	-0.372743
C65	C	1.195254	-0.369167	-0.331556
H66	H	1.203975	-0.254367	-0.439048
H67	H	1.238201	-0.229096	-0.317453
H68	H	1.312158	-0.301178	-0.389678
H69	H	1.124182	-0.349377	-0.314609
H70	H	1.198120	-0.421459	-0.386846
O71	O	1.216375	-0.521222	0.277673
C72	C	1.122742	-0.479534	0.326182
H73	H	1.064872	-0.446301	0.256896
H74	H	1.140481	-0.414406	0.385250
C75	C	1.145747	-0.607679	0.478070
C76	C	1.074667	-0.566871	0.392971
H77	H	1.116093	-0.661551	0.519273
H78	H	1.208831	-0.635764	0.445392
H79	H	1.160524	-0.553397	0.527281
H80	H	1.059901	-0.621150	0.343754
H81	H	1.011578	-0.538797	0.425643
O82	O	0.554609	0.140608	-0.057123
C83	C	0.596322	0.046982	-0.105621
H84	H	0.629525	-0.010897	-0.036327
H85	H	0.661475	0.064731	-0.164664
C86	C	0.468242	0.070007	-0.257553
C87	C	0.509015	-0.001085	-0.172444
H88	H	0.414389	0.040358	-0.298777
H89	H	0.440141	0.133087	-0.224882
H90	H	0.522545	0.084792	-0.306744
H91	H	0.454715	-0.015858	-0.123247
H92	H	0.537104	-0.064168	-0.205108
O93	O	0.526371	0.169125	0.341271
C94	C	0.591329	0.177520	0.437522
H95	H	0.667002	0.210614	0.411839
H96	H	0.610646	0.096638	0.479301
C97	C	0.441026	0.210596	0.552460
C98	C	0.533966	0.251252	0.520917
H99	H	0.405642	0.256073	0.603906
H100	H	0.397262	0.204936	0.487616
H101	H	0.457137	0.143195	0.587270
H102	H	0.517853	0.318645	0.486096
H103	H	0.577726	0.256924	0.585758
H104	H	1.396070	-0.006428	0.625153
O105	O	1.349986	0.039343	0.429012
C106	C	1.329806	-0.061979	0.466312
H107	H	1.244086	-0.061190	0.489977
H108	H	1.382384	-0.087068	0.542978
C109	C	1.457816	-0.140799	0.342459
C110	C	1.352530	-0.139832	0.371516
H111	H	1.471838	-0.188825	0.283988
H112	H	1.471415	-0.072538	0.317332
H113	H	1.501619	-0.161705	0.406356
H114	H	1.308730	-0.118915	0.307624
H115	H	1.338925	-0.208093	0.396630
H116	H	1.215543	-0.343622	0.345751
O117	O	0.724969	0.138370	-0.141992
C118	C	0.802598	0.134171	-0.224062
H119	H	0.881923	0.105619	-0.182968
H120	H	0.806407	0.215736	-0.263529
C121	C	0.677666	0.093037	-0.366381
C122	C	0.775093	0.057961	-0.315910
H123	H	0.660699	0.046032	-0.423041
H124	H	0.625364	0.095870	-0.311091
H125	H	0.680853	0.161008	-0.399261
H126	H	0.771901	-0.010003	-0.283020
H127	H	0.827394	0.055115	-0.371198
H128	H	1.381048	0.008587	0.836759
O129	O	1.115344	0.274233	0.791840
C130	C	1.122154	0.267391	0.910374
H131	H	1.203422	0.230574	0.938618
H132	H	1.060218	0.216753	0.942806
C133	C	1.003665	0.423272	0.923199
C134	C	1.103483	0.378061	0.957889
H135	H	0.992143	0.491537	0.952511
H136	H	0.999073	0.427880	0.843341
H137	H	0.952063	0.381064	0.950229
H138	H	1.155083	0.420262	0.930848
H139	H	1.108083	0.373462	1.037744
H140	H	0.903385	0.171613	0.260965
H141	H	0.929460	0.145586	-0.105573
H142	H	1.084305	0.305174	0.383803
