data_functionalizedCrystal
_audit_creation_method	'MofGen! by Chris Wilmer'
_symmetry_space_group_name_H-M	'P1'
_symmetry_Int_Tables_number	1
_symmetry_cell_setting	triclinic
loop_
_symmetry_equiv_pos_as_xyz
  x,y,z
_cell_length_a	27.732048
_cell_length_b	27.732046
_cell_length_c	26.210047
_cell_angle_alpha	90.001831
_cell_angle_beta	89.996535
_cell_angle_gamma	97.357683
loop_
_atom_site_label
_atom_site_type_symbol
_atom_site_fract_x
_atom_site_fract_y
_atom_site_fract_z
O1	O	0.640931	-0.057510	-0.042370
O2	O	0.974264	0.275823	0.290963
O3	O	1.307597	0.609157	0.624297
O4	O	0.500137	-0.066256	-0.042387
O5	O	0.833471	0.267078	0.290947
O6	O	1.166804	0.600411	0.624280
O7	O	0.574907	0.008514	-0.042366
O8	O	0.908241	0.341847	0.290967
O9	O	1.241574	0.675181	0.624300
O10	O	0.566161	-0.132280	-0.042390
O11	O	0.899494	0.201054	0.290943
O12	O	1.232828	0.534387	0.624276
O13	O	0.574893	0.008502	0.042492
O14	O	0.908226	0.341836	0.375825
O15	O	1.241559	0.675169	0.709158
O16	O	0.500123	-0.066267	0.042472
O17	O	0.833456	0.267066	0.375805
O18	O	1.166790	0.600399	0.709138
O19	O	0.640916	-0.057522	0.042488
O20	O	0.974250	0.275812	0.375821
O21	O	1.307583	0.609145	0.709155
Cu22	Cu	0.570518	-0.061896	0.050228
Cu23	Cu	0.903852	0.271438	0.383561
Cu24	Cu	1.237185	0.604771	0.716895
Cu25	Cu	0.570535	-0.061882	-0.050127
Cu26	Cu	0.903869	0.271452	0.283207
Cu27	Cu	1.237202	0.604785	0.616540
O28	O	0.566146	-0.132291	0.042468
O29	O	0.899480	0.201042	0.375801
O30	O	1.232813	0.534375	0.709134
C31	C	0.482123	-0.066078	0.000041
C32	C	0.815456	0.267256	0.333374
C33	C	1.148790	0.600589	0.666707
C34	C	0.428468	-0.065525	0.000035
C35	C	0.761802	0.267808	0.333368
C36	C	1.095135	0.601142	0.666701
C37	C	0.089653	-0.106229	0.000050
C38	C	0.422986	0.227104	0.333383
C39	C	0.756320	0.560438	0.666717
C40	C	-0.112007	-0.104178	0.000055
C41	C	0.221327	0.229155	0.333388
C42	C	0.554660	0.562489	0.666722
O43	O	-0.143263	-0.141399	0.000071
O44	O	0.190071	0.191935	0.333404
O45	O	0.523404	0.525268	0.666737
N46	N	-0.131130	-0.059843	0.000062
N47	N	0.202203	0.273491	0.333395
N48	N	0.535537	0.606824	0.666728
C49	C	-0.099835	-0.016017	0.000070
C50	C	0.233498	0.317316	0.333404
C51	C	0.566831	0.650650	0.666737
O52	O	-0.120728	0.021740	0.000081
O53	O	0.212605	0.355073	0.333415
O54	O	0.545939	0.688407	0.666748
C55	C	0.101823	-0.018069	0.000069
C56	C	0.435157	0.315265	0.333402
C57	C	0.768490	0.648598	0.666736
C58	C	0.120944	-0.062407	0.000057
C59	C	0.454277	0.270927	0.333391
C60	C	0.787611	0.604260	0.666724
C61	C	0.108774	-0.150563	0.000039
C62	C	0.442107	0.182770	0.333372
C63	C	0.775441	0.516103	0.666705
C64	C	0.159186	-0.151076	0.000035
C65	C	0.492519	0.182258	0.333368
C66	C	0.825853	0.515591	0.666701
C67	C	0.190477	-0.107253	0.000042
C68	C	0.523810	0.226080	0.333375
C69	C	0.857144	0.559413	0.666709
C70	C	0.171356	-0.062919	0.000053
C71	C	0.504689	0.270414	0.333387
C72	C	0.838022	0.603748	0.666720
C73	C	0.133117	0.025757	0.000081
C74	C	0.466451	0.359090	0.333415
C75	C	0.799784	0.692423	0.666748
C76	C	0.183535	0.025240	0.000082
C77	C	0.516868	0.358573	0.333416
C78	C	0.850201	0.691906	0.666749
C79	C	0.202655	-0.019098	0.000071
C80	C	0.535988	0.314235	0.333404
C81	C	0.869322	0.647568	0.666737
C82	C	0.253059	-0.019609	0.000056
C83	C	0.586392	0.313724	0.333390
C84	C	0.919725	0.647058	0.666723
N85	N	0.272182	-0.063944	0.000050
N86	N	0.605516	0.269389	0.333383
N87	N	0.938849	0.602723	0.666716
C88	C	0.240891	-0.107766	0.000043
C89	C	0.574225	0.225567	0.333376
C90	C	0.907558	0.558900	0.666709
C91	C	-0.205709	-0.014943	0.000070
C92	C	0.127624	0.318390	0.333403
C93	C	0.460957	0.651724	0.666737
C94	C	-0.256124	-0.014430	0.000069
C95	C	0.077210	0.318903	0.333403
C96	C	0.410543	0.652237	0.666736
C97	C	-0.268292	-0.102591	0.000055
C98	C	0.065042	0.230742	0.333388
C99	C	0.398375	0.564076	0.666722
C100	C	-0.217876	-0.103104	0.000052
C101	C	0.115457	0.230230	0.333385
C102	C	0.448790	0.563563	0.666719
C103	C	-0.186586	-0.059278	0.000063
C104	C	0.146748	0.274055	0.333397
C105	C	0.480081	0.607388	0.666730
C106	C	0.346760	-0.108839	0.000034
C107	C	0.680094	0.224494	0.333367
C108	C	1.013427	0.557828	0.666700
C109	C	0.397177	-0.109347	0.000028
C110	C	0.730511	0.223986	0.333361
C111	C	1.063844	0.557319	0.666694
C112	C	0.409341	-0.021186	0.000045
C113	C	0.742674	0.312147	0.333378
C114	C	1.076008	0.645480	0.666711
C115	C	0.358928	-0.020678	0.000048
C116	C	0.692262	0.312656	0.333381
C117	C	1.025595	0.645989	0.666715
C118	C	0.327639	-0.064508	0.000044
C119	C	0.660972	0.268825	0.333378
C120	C	0.994306	0.602159	0.666711
O121	O	0.284343	0.017592	0.000046
O122	O	0.617676	0.350925	0.333380
O123	O	0.951010	0.684259	0.666713
O124	O	0.261794	-0.145518	0.000043
O125	O	0.595127	0.187816	0.333376
O126	O	0.928460	0.521149	0.666710
C127	C	0.039241	-0.105717	0.000054
C128	C	0.372574	0.227617	0.333387
C129	C	0.705908	0.560950	0.666721
C130	C	0.020120	-0.061382	0.000065
C131	C	0.353453	0.271951	0.333399
C132	C	0.686787	0.605285	0.666732
C133	C	0.051411	-0.017560	0.000072
C134	C	0.384744	0.315774	0.333406
C135	C	0.718078	0.649107	0.666739
C136	C	-0.030294	-0.060869	0.000065
C137	C	0.303039	0.272464	0.333398
C138	C	0.636372	0.605798	0.666731
C139	C	-0.061585	-0.104691	0.000057
C140	C	0.271748	0.228642	0.333391
C141	C	0.605081	0.561975	0.666724
C142	C	-0.042462	-0.149027	0.000051
C143	C	0.290871	0.184307	0.333384
C144	C	0.624205	0.517640	0.666717
C145	C	0.007950	-0.149539	0.000047
C146	C	0.341283	0.183795	0.333380
C147	C	0.674617	0.517128	0.666713
C148	C	0.032287	0.026775	0.000079
C149	C	0.365621	0.360109	0.333412
C150	C	0.698954	0.693442	0.666746
C151	C	-0.018125	0.027284	0.000083
C152	C	0.315208	0.360617	0.333416
C153	C	0.648542	0.693951	0.666749
C154	C	-0.049416	-0.016538	0.000075
C155	C	0.283917	0.316795	0.333409
C156	C	0.617251	0.650129	0.666742
C157	C	0.574717	0.026515	0.000065
C158	C	0.908050	0.359848	0.333398
C159	C	1.241383	0.693182	0.666731
C160	C	0.574164	0.080170	0.000070
C161	C	0.907497	0.413503	0.333403
C162	C	1.240831	0.746837	0.666737
C163	C	0.658931	-0.057699	0.000060
C164	C	0.992264	0.275634	0.333393
C165	C	1.325597	0.608967	0.666726
C166	C	0.712585	-0.058252	0.000062
C167	C	1.045919	0.275081	0.333395
C168	C	1.379252	0.608414	0.666729
N169	N	0.570510	-0.061905	0.120812
N170	N	0.903843	0.271428	0.454145
N171	N	1.237176	0.604762	0.787479
C172	C	0.614870	0.418985	0.000057
C173	C	0.948203	0.752319	0.333390
C174	C	1.281537	1.085652	0.666724
C175	C	0.612820	0.620645	0.000055
C176	C	0.946153	0.953978	0.333388
C177	C	1.279487	1.287312	0.666721
O178	O	0.650041	0.651901	0.000037
O179	O	0.983374	0.985234	0.333371
O180	O	1.316708	1.318567	0.666704
N181	N	0.568485	0.639769	0.000050
N182	N	0.901818	0.973102	0.333384
N183	N	1.235152	1.306436	0.666717
C184	C	0.524659	0.608474	0.000044
C185	C	0.857993	0.941808	0.333377
C186	C	1.191326	1.275141	0.666710
O187	O	0.486902	0.629367	0.000035
O188	O	0.820236	0.962701	0.333368
O189	O	1.153569	1.296034	0.666701
C190	C	0.526710	0.406815	0.000042
C191	C	0.860043	0.740149	0.333376
C192	C	1.193376	1.073482	0.666709
C193	C	0.571047	0.387695	0.000052
C194	C	0.904381	0.721028	0.333385
C195	C	1.237714	1.054361	0.666718
C196	C	0.659204	0.399864	0.000066
C197	C	0.992538	0.733197	0.333399
C198	C	1.325871	1.066531	0.666732
C199	C	0.659716	0.349452	0.000069
C200	C	0.993050	0.682785	0.333402
C201	C	1.326383	1.016119	0.666736
C202	C	0.615894	0.318161	0.000064
C203	C	0.949227	0.651495	0.333397
C204	C	1.282560	0.984828	0.666730
C205	C	0.571559	0.337283	0.000055
C206	C	0.904893	0.670616	0.333388
C207	C	1.238226	1.003949	0.666722
C208	C	0.482884	0.375522	0.000032
C209	C	0.816218	0.708855	0.333365
C210	C	1.149551	1.042188	0.666698
C211	C	0.483401	0.325104	0.000030
C212	C	0.816734	0.658438	0.333363
C213	C	1.150067	0.991771	0.666697
C214	C	0.527739	0.305984	0.000039
C215	C	0.861072	0.639317	0.333373
C216	C	1.194405	0.972650	0.666706
C217	C	0.528249	0.255580	0.000053
C218	C	0.861582	0.588913	0.333386
C219	C	1.194916	0.922247	0.666720
N220	N	0.572584	0.236456	0.000057
N221	N	0.905917	0.569790	0.333390
N222	N	1.239251	0.903123	0.666724
C223	C	0.616406	0.267747	0.000062
C224	C	0.949740	0.601080	0.333396
C225	C	1.283073	0.934414	0.666729
C226	C	0.523586	0.714348	0.000045
C227	C	0.856919	1.047682	0.333379
C228	C	1.190253	1.381015	0.666712
C229	C	0.523073	0.764763	0.000046
C230	C	0.856407	1.098096	0.333380
C231	C	1.189740	1.431430	0.666713
C232	C	0.611234	0.776930	0.000057
C233	C	0.944568	1.110264	0.333390
C234	C	1.277901	1.443597	0.666723
C235	C	0.611746	0.726515	0.000059
C236	C	0.945080	1.059848	0.333392
C237	C	1.278413	1.393182	0.666726
C238	C	0.567921	0.695225	0.000049
C239	C	0.901254	1.028558	0.333383
C240	C	1.234588	1.361891	0.666716
C241	C	0.617478	0.161878	0.000070
C242	C	0.950812	0.495211	0.333403
C243	C	1.284145	0.828544	0.666737
C244	C	0.617986	0.111461	0.000075
C245	C	0.951320	0.444794	0.333409
C246	C	1.284653	0.778127	0.666742
C247	C	0.529826	0.099298	0.000063
C248	C	0.863159	0.432631	0.333396
C249	C	1.196492	0.765964	0.666729
C250	C	0.529317	0.149710	0.000060
C251	C	0.862651	0.483044	0.333393
C252	C	1.195984	0.816377	0.666726
C253	C	0.573148	0.180999	0.000062
C254	C	0.906481	0.514333	0.333395
C255	C	1.239814	0.847666	0.666728
O256	O	0.491048	0.224296	0.000064
O257	O	0.824381	0.557629	0.333398
O258	O	1.157715	0.890963	0.666731
O259	O	0.654158	0.246844	0.000060
O260	O	0.987491	0.580178	0.333393
O261	O	1.320824	0.913511	0.666727
C262	C	0.614358	0.469397	0.000054
C263	C	0.947691	0.802731	0.333387
C264	C	1.281025	1.136064	0.666720
C265	C	0.570024	0.488519	0.000045
C266	C	0.903357	0.821852	0.333378
C267	C	1.236690	1.155185	0.666711
C268	C	0.526201	0.457228	0.000039
C269	C	0.859534	0.790561	0.333373
C270	C	1.192868	1.123895	0.666706
C271	C	0.569511	0.538933	0.000046
C272	C	0.902844	0.872266	0.333379
C273	C	1.236177	1.205600	0.666713
C274	C	0.613333	0.570224	0.000051
C275	C	0.946667	0.903557	0.333385
C276	C	1.280000	1.236890	0.666718
C277	C	0.657668	0.551100	0.000056
C278	C	0.991002	0.884433	0.333389
C279	C	1.324335	1.217767	0.666722
C280	C	0.658180	0.500688	0.000059
C281	C	0.991514	0.834021	0.333392
C282	C	1.324847	1.167355	0.666726
C283	C	0.481866	0.476352	0.000035
C284	C	0.815199	0.809685	0.333369
C285	C	1.148533	1.143018	0.666702
C286	C	0.481358	0.526764	0.000032
C287	C	0.814691	0.860098	0.333366
C288	C	1.148024	1.193431	0.666699
C289	C	0.525180	0.558055	0.000038
C290	C	0.858513	0.891388	0.333371
C291	C	1.191847	1.224722	0.666705
C292	C	0.566339	0.849708	0.000042
C293	C	0.899672	1.183041	0.333375
C294	C	1.233005	1.516374	0.666709
C295	C	0.566896	0.796054	0.000052
C296	C	0.900229	1.129387	0.333385
C297	C	1.233562	1.462720	0.666719
N298	N	0.570548	-0.061869	-0.120710
N299	N	0.903881	0.271465	0.212623
N300	N	1.237214	0.604798	0.545956
C301	C	0.603640	-0.028781	0.473335
C302	C	0.936973	0.304552	0.806668
C303	C	1.270307	0.637885	1.140002
C304	C	0.603651	-0.028774	0.686993
C305	C	0.936984	0.304559	1.020327
C306	C	1.270317	0.637892	1.353660
O307	O	0.631801	-0.000614	0.714623
O308	O	0.965134	0.332720	1.047956
O309	O	1.298467	0.666053	1.381290
N310	N	0.570538	-0.061871	0.713706
N311	N	0.903871	0.271462	1.047039
N312	N	1.237205	0.604796	1.380372
C313	C	0.537418	-0.094970	0.687000
C314	C	0.870751	0.238364	1.020334
C315	C	1.204085	0.571697	1.353667
O316	O	0.509251	-0.123117	0.714623
O317	O	0.842584	0.210216	1.047957
O318	O	1.175917	0.543550	1.381290
C319	C	0.537406	-0.094974	0.473343
C320	C	0.870739	0.238360	0.806676
C321	C	1.204072	0.571693	1.140009
C322	C	0.570524	-0.061878	0.446633
C323	C	0.903857	0.271455	0.779966
C324	C	1.237190	0.604788	1.113300
C325	C	0.636755	0.004312	0.446625
C326	C	0.970089	0.337645	0.779959
C327	C	1.303422	0.670979	1.113292
C328	C	0.636754	0.004308	0.393214
C329	C	0.970087	0.337642	0.726547
C330	C	1.303421	0.670975	1.059880
C331	C	0.603638	-0.028789	0.366512
C332	C	0.936971	0.304545	0.699845
C333	C	1.270304	0.637878	1.033179
C334	C	0.570522	-0.061882	0.393222
C335	C	0.903856	0.271451	0.726555
C336	C	1.237189	0.604785	1.059888
C337	C	0.504284	-0.128070	0.446638
C338	C	0.837617	0.205264	0.779971
C339	C	1.170950	0.538597	1.113305
C340	C	0.504283	-0.128067	0.393220
C341	C	0.837616	0.205266	0.726554
C342	C	1.170949	0.538600	1.059887
C343	C	0.537401	-0.094971	0.366511
C344	C	0.870734	0.238362	0.699844
C345	C	1.204068	0.571695	1.033177
C346	C	0.537405	-0.094983	0.313108
C347	C	0.870738	0.238351	0.646442
C348	C	1.204071	0.571684	0.979775
N349	N	0.570518	-0.061886	0.286396
N350	N	0.903851	0.271447	0.619729
N351	N	1.237184	0.604780	0.953063
C352	C	0.603634	-0.028789	0.313098
C353	C	0.936967	0.304544	0.646431
C354	C	1.270301	0.637878	0.979764
C355	C	0.537428	-0.094966	0.799174
C356	C	0.870761	0.238367	1.132507
C357	C	1.204094	0.571701	1.465840
C358	C	0.537431	-0.094966	0.852588
C359	C	0.870765	0.238368	1.185921
C360	C	1.204098	0.571701	1.519254
C361	C	0.603664	-0.028770	0.852577
C362	C	0.936997	0.304564	1.185911
C363	C	1.270330	0.637897	1.519244
C364	C	0.603662	-0.028773	0.799162
C365	C	0.936995	0.304561	1.132495
C366	C	1.270328	0.637894	1.465829
C367	C	0.570540	-0.061869	0.772461
C368	C	0.903874	0.271464	1.105795
C369	C	1.237207	0.604797	1.439128
C370	C	0.603629	-0.028800	0.200930
C371	C	0.936962	0.304533	0.534263
C372	C	1.270296	0.637867	0.867597
C373	C	0.603626	-0.028808	0.147514
C374	C	0.936960	0.304525	0.480847
C375	C	1.270293	0.637859	0.814180
C376	C	0.537393	-0.095002	0.147529
C377	C	0.870726	0.238331	0.480862
C378	C	1.204059	0.571665	0.814195
C379	C	0.537397	-0.094996	0.200940
C380	C	0.870730	0.238337	0.534274
C381	C	1.204064	0.571671	0.867607
C382	C	0.570517	-0.061891	0.227640
C383	C	0.903850	0.271443	0.560973
C384	C	1.237184	0.604776	0.894306
O385	O	0.509266	-0.123125	0.285446
O386	O	0.842599	0.210208	0.618779
O387	O	1.175933	0.543541	0.952112
O388	O	0.631790	-0.000639	0.285466
O389	O	0.965123	0.332694	0.618799
O390	O	1.298457	0.666028	0.952132
C391	C	0.603641	-0.028777	0.526746
C392	C	0.936975	0.304556	0.860080
C393	C	1.270308	0.637889	1.193413
C394	C	0.570526	-0.061871	0.553456
C395	C	0.903860	0.271463	0.886789
C396	C	1.237193	0.604796	1.220123
C397	C	0.537410	-0.094968	0.526754
C398	C	0.870743	0.238366	0.860087
C399	C	1.204076	0.571699	1.193421
C400	C	0.570530	-0.061870	0.606870
C401	C	0.903863	0.271463	0.940203
C402	C	1.237196	0.604796	1.273537
C403	C	0.603646	-0.028773	0.633572
C404	C	0.936980	0.304560	0.966905
C405	C	1.270313	0.637893	1.300239
C406	C	0.636759	0.004323	0.606860
C407	C	0.970092	0.337657	0.940193
C408	C	1.303426	0.670990	1.273526
C409	C	0.636758	0.004320	0.553448
C410	C	0.970091	0.337653	0.886781
C411	C	1.303424	0.670986	1.220115
C412	C	0.504297	-0.128064	0.553466
C413	C	0.837630	0.205269	0.886800
C414	C	1.170964	0.538602	1.220133
C415	C	0.504301	-0.128058	0.606878
C416	C	0.837635	0.205275	0.940211
C417	C	1.170968	0.538608	1.273545
C418	C	0.537418	-0.094961	0.633580
C419	C	0.870751	0.238372	0.966913
C420	C	1.204084	0.571705	1.300246
H421	H	0.174749	-0.187180	0.000025
H422	H	0.508082	0.146153	0.333358
H423	H	0.841415	0.479486	0.666692
N424	N	0.475254	0.785387	0.000040
N425	N	0.808587	1.118720	0.333373
N426	N	1.141920	1.452053	0.666707
H427	H	0.473068	0.806032	0.031497
H428	H	0.806402	1.139365	0.364830
H429	H	1.139735	1.472698	0.698164
H430	H	0.447599	0.757885	0.000016
H431	H	0.780932	1.091219	0.333349
H432	H	1.114266	1.424552	0.666682
H433	H	0.434827	0.014492	0.000049
H434	H	0.768160	0.347826	0.333382
H435	H	1.101494	0.681159	0.666715
H436	H	0.663720	0.031259	0.371470
H437	H	0.997054	0.364592	0.704803
H438	H	1.330387	0.697925	1.038137
H439	H	0.663723	0.031266	0.468361
H440	H	0.997056	0.364599	0.801694
H441	H	1.330389	0.697932	1.135028
H442	H	0.630597	-0.001858	0.125768
H443	H	0.963930	0.331476	0.459102
H444	H	1.297263	0.664809	0.792435
N445	N	-0.302036	-0.149864	0.000073
N446	N	0.031298	0.183469	0.333407
N447	N	0.364631	0.516803	0.666740
H448	H	-0.295928	-0.169236	-0.031378
H449	H	0.037405	0.164097	0.301956
H450	H	0.370738	0.497430	0.635289
H451	H	-0.336862	-0.142779	0.000102
H452	H	-0.003529	0.190554	0.333435
H453	H	0.329804	0.523888	0.666768
N454	N	0.482558	0.065549	0.000054
N455	N	0.815892	0.398883	0.333387
N456	N	1.149225	0.732216	0.666721
H457	H	0.463191	0.071663	0.031507
H458	H	0.796524	0.404996	0.364840
H459	H	1.129857	0.738330	0.698174
H460	H	0.489648	0.030724	0.000036
H461	H	0.822982	0.364057	0.333369
H462	H	1.156315	0.697391	0.666702
H463	H	0.446180	0.450879	0.000030
H464	H	0.779513	0.784212	0.333363
H465	H	1.112846	1.117546	0.666696
H466	H	0.083301	-0.186251	0.000035
H467	H	0.416635	0.147083	0.333368
H468	H	0.749968	0.480416	0.666701
H469	H	-0.271687	0.021674	0.000071
H470	H	0.061647	0.355008	0.333404
H471	H	0.394980	0.688341	0.666738
H472	H	0.694285	0.485125	0.000066
H473	H	1.027618	0.818458	0.333400
H474	H	1.360951	1.151792	0.666733
N475	N	0.417803	-0.157169	0.000019
N476	N	0.751136	0.176164	0.333353
N477	N	1.084470	0.509498	0.666686
H478	H	0.438448	-0.159344	-0.031440
H479	H	0.771782	0.173990	0.301894
H480	H	1.105115	0.507323	0.635227
H481	H	0.390303	-0.184825	0.000037
H482	H	0.723636	0.148508	0.333370
H483	H	1.056969	0.481842	0.666703
N484	N	0.501708	-0.130669	0.770375
N485	N	0.835041	0.202665	1.103708
N486	N	1.168375	0.535998	1.437042
H487	H	0.480441	-0.112348	0.748217
H488	H	0.813774	0.220985	1.081550
H489	H	1.147107	0.554319	1.414883
H490	H	0.480768	-0.151626	0.795436
H491	H	0.814101	0.181707	1.128770
H492	H	1.147434	0.515040	1.462103
N493	N	0.476315	0.680601	0.000043
N494	N	0.809648	1.013935	0.333376
N495	N	1.142982	1.347268	0.666709
H496	H	0.474561	0.659413	-0.031414
H497	H	0.807895	0.992746	0.301919
H498	H	1.141228	1.326079	0.635252
H499	H	0.448182	0.700404	0.000062
H500	H	0.781515	1.033737	0.333395
H501	H	1.114849	1.367071	0.666728
N502	N	0.501712	-0.130664	0.881390
N503	N	0.835045	0.202669	1.214724
N504	N	1.168379	0.536003	1.548057
H505	H	0.480451	-0.112337	0.903554
H506	H	0.813784	0.220996	1.236887
H507	H	1.147118	0.554329	1.570221
H508	H	0.520054	-0.151934	0.903520
H509	H	0.853387	0.181399	1.236854
H510	H	1.186720	0.514732	1.570187
N511	N	0.707539	0.328834	0.000064
N512	N	1.040872	0.662168	0.333397
N513	N	1.374206	0.995501	0.666731
H514	H	0.701221	0.292149	0.000061
H515	H	1.034555	0.625482	0.333395
H516	H	1.367888	0.958815	0.666728
H517	H	0.726697	0.340305	0.031521
H518	H	1.060031	0.673639	0.364854
H519	H	1.393364	1.006972	0.698188
H520	H	0.023513	-0.185643	0.000038
H521	H	0.356846	0.147690	0.333371
H522	H	0.690180	0.481023	0.666705
H523	H	-0.180236	0.020747	0.000079
H524	H	0.153097	0.354080	0.333413
H525	H	0.486430	0.687414	0.666746
H526	H	0.477329	-0.155015	0.531730
H527	H	0.810662	0.178318	0.865063
H528	H	1.143996	0.511651	1.198397
H529	H	-0.067948	-0.184708	0.000043
H530	H	0.265385	0.148625	0.333376
H531	H	0.598719	0.481959	0.666709
H532	H	-0.033688	0.063392	0.000088
H533	H	0.299646	0.396726	0.333421
H534	H	0.632979	0.730059	0.666755
N535	N	0.436126	0.291362	0.000029
N536	N	0.769460	0.624696	0.333362
N537	N	1.102793	0.958029	0.666695
H538	H	0.434368	0.270178	0.031488
H539	H	0.767701	0.603511	0.364822
H540	H	1.101034	0.936845	0.698155
H541	H	0.434400	0.270201	-0.031446
H542	H	0.767734	0.603535	0.301887
H543	H	1.101067	0.936868	0.635220
H544	H	0.694892	0.425337	0.000068
H545	H	1.028225	0.758670	0.333402
H546	H	1.361558	1.092003	0.666735
N547	N	0.664749	0.195624	0.000075
N548	N	0.998083	0.528957	0.333409
N549	N	1.331416	0.862290	0.666742
H550	H	0.684117	0.189507	-0.031377
H551	H	1.017450	0.522840	0.301957
H552	H	1.350783	0.856173	0.635290
H553	H	0.684061	0.189492	0.031558
H554	H	1.017394	0.522825	0.364891
H555	H	1.350728	0.856159	0.698225
H556	H	0.057760	0.062462	0.000086
H557	H	0.391094	0.395795	0.333420
H558	H	0.724427	0.729128	0.666753
N559	N	0.313025	-0.156116	0.000027
N560	N	0.646358	0.177217	0.333361
N561	N	0.979692	0.510550	0.666694
H562	H	0.291837	-0.157870	-0.031428
H563	H	0.625170	0.175463	0.301905
H564	H	0.958503	0.508796	0.635238
H565	H	0.291868	-0.157854	0.031506
H566	H	0.625201	0.175480	0.364840
H567	H	0.958534	0.508813	0.698173
H568	H	0.646916	0.802416	0.000061
H569	H	0.980249	1.135749	0.333395
H570	H	1.313583	1.469083	0.666728
N571	N	0.468577	-0.163755	0.635683
N572	N	0.801911	0.169578	0.969017
N573	N	1.135244	0.502912	1.302350
H574	H	0.447598	-0.184718	0.610658
H575	H	0.780931	0.148615	0.943991
H576	H	1.114264	0.481948	1.277324
H577	H	0.447350	-0.145388	0.657842
H578	H	0.780683	0.187945	0.991175
H579	H	1.114016	0.521278	1.324508
N580	N	-0.197255	-0.150924	0.000037
N581	N	0.136078	0.182409	0.333371
N582	N	0.469412	0.515742	0.666704
H583	H	-0.224732	-0.178605	0.000031
H584	H	0.108601	0.154728	0.333364
H585	H	0.441935	0.488061	0.666697
H586	H	-0.176607	-0.153066	0.031495
H587	H	0.156727	0.180267	0.364829
H588	H	0.490060	0.513600	0.698162
H589	H	0.446780	0.391081	0.000021
H590	H	0.780113	0.724414	0.333354
H591	H	1.113446	1.057747	0.666688
H592	H	0.654093	0.095896	0.000084
H593	H	0.987427	0.429229	0.333418
H594	H	1.320760	0.762562	0.666751
H595	H	0.647850	0.710951	0.000066
H596	H	0.981184	1.044284	0.333400
H597	H	1.314517	1.377617	0.666733
H598	H	0.117559	0.061861	0.000091
H599	H	0.450892	0.395195	0.333425
H600	H	0.784225	0.728528	0.666758
H601	H	0.493214	0.165279	0.000066
H602	H	0.826547	0.498612	0.333400
H603	H	1.159880	0.831946	0.666733
H604	H	0.693350	0.576586	0.000062
H605	H	1.026683	0.909919	0.333396
H606	H	1.360017	1.243253	0.666729
N607	N	0.639383	0.006926	0.881385
N608	N	0.972717	0.340259	1.214718
N609	N	1.306050	0.673593	1.548051
H610	H	0.673647	0.001595	0.872088
H611	H	1.006981	0.334928	1.205421
H612	H	1.340314	0.668262	1.538754
H613	H	0.634313	0.001879	0.919264
H614	H	0.967647	0.335212	1.252598
H615	H	1.300980	0.668546	1.585931
N616	N	0.217284	0.072510	0.000098
N617	N	0.550617	0.405843	0.333431
N618	N	0.883950	0.739176	0.666765
H619	H	0.197517	0.100672	0.000106
H620	H	0.530851	0.434005	0.333439
H621	H	0.864184	0.767339	0.666773
H622	H	0.238468	0.074226	-0.031360
H623	H	0.571801	0.407559	0.301973
H624	H	0.905134	0.740893	0.635307
H625	H	0.445250	0.542327	0.000029
H626	H	0.778583	0.875660	0.333363
H627	H	1.111916	1.208994	0.666696
H628	H	0.477310	-0.155018	0.371483
H629	H	0.810643	0.178315	0.704816
H630	H	1.143976	0.511649	1.038150
N631	N	0.338302	0.027142	0.000051
N632	N	0.671635	0.360475	0.333385
N633	N	1.004968	0.693809	0.666718
H634	H	0.365776	0.054825	0.000053
H635	H	0.699110	0.388159	0.333386
H636	H	1.032443	0.721492	0.666719
H637	H	0.317651	0.029272	0.031512
H638	H	0.650985	0.362606	0.364846
H639	H	0.984318	0.695939	0.698179
N640	N	0.639353	0.006902	0.229722
N641	N	0.972687	0.340236	0.563056
N642	N	1.306020	0.673569	0.896389
H643	H	0.660330	0.027862	0.204690
H644	H	0.993664	0.361195	0.538024
H645	H	1.326997	0.694528	0.871357
H646	H	0.660583	-0.011459	0.251880
H647	H	0.993917	0.321875	0.585213
H648	H	1.327250	0.655208	0.918547
N649	N	0.639381	0.006923	0.770356
N650	N	0.972715	0.340256	1.103689
N651	N	1.306048	0.673589	1.437022
H652	H	0.660360	0.027887	0.795381
H653	H	0.993693	0.361220	1.128715
H654	H	1.327027	0.694554	1.462048
H655	H	0.621038	0.028168	0.748198
H656	H	0.954371	0.361502	1.081532
H657	H	1.287704	0.694835	1.414865
N658	N	0.501686	-0.130698	0.229752
N659	N	0.835019	0.202635	0.563086
N660	N	1.168353	0.535968	0.896419
H661	H	0.480709	-0.151668	0.204730
H662	H	0.814043	0.181666	0.538063
H663	H	1.147376	0.514999	0.871396
H664	H	0.480454	-0.112340	0.251914
H665	H	0.813787	0.220994	0.585248
H666	H	1.147121	0.554327	0.918581
N667	N	0.468555	-0.163758	0.475438
N668	N	0.801889	0.169575	0.808771
N669	N	1.135222	0.502908	1.142104
H670	H	0.447575	-0.184717	0.450409
H671	H	0.780908	0.148616	0.783743
H672	H	1.114241	0.481949	1.117076
H673	H	0.447330	-0.145389	0.497595
H674	H	0.780663	0.187944	0.830929
H675	H	1.113996	0.521278	1.164262
H676	H	0.510431	-0.121951	0.125780
H677	H	0.843764	0.211383	0.459113
H678	H	1.177098	0.544716	0.792447
N679	N	0.672478	0.040015	0.524644
N680	N	1.005812	0.373349	0.857977
N681	N	1.339145	0.706682	1.191310
H682	H	0.693454	0.060980	0.549671
H683	H	1.026788	0.394314	0.883004
H684	H	1.360121	0.727647	1.216338
H685	H	0.654136	0.061261	0.502484
H686	H	0.987469	0.394594	0.835818
H687	H	1.320802	0.727927	1.169151
N688	N	0.672480	0.040019	0.635665
N689	N	1.005814	0.373353	0.968998
N690	N	1.339147	0.706686	1.302331
H691	H	0.667452	0.034995	0.673554
H692	H	1.000786	0.368329	1.006887
H693	H	1.334119	0.701662	1.340221
H694	H	0.667155	0.074274	0.626331
H695	H	1.000488	0.407607	0.959664
H696	H	1.333821	0.740940	1.292998
