data_functionalizedCrystal
_audit_creation_method	'MofGen! by Chris Wilmer'
_symmetry_space_group_name_H-M	'P1'
_symmetry_Int_Tables_number	1
_symmetry_cell_setting	triclinic
loop_
_symmetry_equiv_pos_as_xyz
  x,y,z
_cell_length_a	10.654545
_cell_length_b	8.559649
_cell_length_c	9.730223
_cell_angle_alpha	89.997407
_cell_angle_beta	89.997167
_cell_angle_gamma	77.130872
loop_
_atom_site_label
_atom_site_type_symbol
_atom_site_fract_x
_atom_site_fract_y
_atom_site_fract_z
O1	O	1.644688	0.224151	-0.114269
O2	O	2.144688	0.724151	0.385731
O3	O	1.277002	0.245517	-0.114274
O4	O	1.777002	0.745517	0.385726
O5	O	1.493238	0.002590	-0.114270
O6	O	1.993238	0.502590	0.385730
O7	O	1.428451	0.467078	-0.114274
O8	O	1.928451	0.967078	0.385726
O9	O	1.493227	0.002584	0.114310
O10	O	1.993227	0.502584	0.614310
O11	O	1.276990	0.245510	0.114306
O12	O	1.776990	0.745510	0.614306
O13	O	1.644676	0.224144	0.114311
O14	O	2.144676	0.724144	0.614311
Zn15	Zn	1.460831	0.234826	0.150600
Zn16	Zn	1.960831	0.734826	0.650600
Zn17	Zn	1.460847	0.234835	-0.150564
Zn18	Zn	1.960847	0.734835	0.349436
O19	O	1.428440	0.467071	0.114306
O20	O	1.928440	0.967071	0.614306
C21	C	1.230360	0.243947	0.000015
C22	C	1.730360	0.743947	0.500015
C23	C	1.091400	0.239257	0.000013
C24	C	1.591400	0.739257	0.500013
C25	C	1.026118	0.237046	0.124613
C26	C	1.526118	0.737046	0.624613
C27	C	0.895556	0.232614	0.124613
C28	C	1.395556	0.732614	0.624613
C29	C	0.895570	0.232610	-0.124598
C30	C	1.395570	0.732610	0.375402
C31	C	1.026132	0.237031	-0.124596
C32	C	1.526132	0.737031	0.375404
C33	C	1.498142	-0.056889	0.000018
C34	C	1.998142	0.443111	0.500018
C35	C	1.512757	-0.234107	0.000010
C36	C	2.012757	0.265893	0.500010
C37	C	1.691318	0.225715	0.000018
C38	C	2.191318	0.725715	0.500018
C39	C	1.830277	0.230404	0.000012
C40	C	2.330277	0.730404	0.500012
C41	C	1.423536	0.526550	0.000016
C42	C	1.923536	1.026550	0.500016
C43	C	1.408921	0.703768	0.000014
C44	C	1.908921	1.203768	0.500014
N45	N	1.460830	0.234819	0.356137
N46	N	1.960830	0.734819	0.856137
N47	N	1.460859	0.234829	-0.356100
N48	N	1.960859	0.734829	0.143900
C49	C	1.556604	0.127297	0.428064
C50	C	2.056604	0.627297	0.928064
C51	C	1.556616	0.127298	0.571947
C52	C	2.056616	0.627298	1.071947
C53	C	1.365075	0.342357	0.571962
C54	C	1.865075	0.842357	1.071962
C55	C	1.365059	0.342347	0.428082
C56	C	1.865059	0.842347	0.928082
H57	H	0.842408	0.230814	0.226074
H58	H	1.342408	0.730814	0.726074
H59	H	0.842412	0.230800	-0.226050
H60	H	1.342412	0.730800	0.273950
H61	H	1.612842	-0.316506	0.000023
H62	H	2.112842	0.183494	0.500023
Br63	Br	1.242110	-0.158915	0.000020
Br64	Br	1.742110	0.341085	0.500020
H65	H	1.634603	0.039742	0.630507
H66	H	2.134603	0.539742	1.130507
Br67	Br	1.686576	-0.018636	0.330430
Br68	Br	2.186576	0.481364	0.830430
Br69	Br	1.235107	0.488285	0.669606
Br70	Br	1.735107	0.988285	1.169606
H71	H	1.079255	0.238859	0.226077
H72	H	1.579255	0.738859	0.726077
Br73	Br	1.114743	0.240012	-0.293709
Br74	Br	1.614743	0.740012	0.206291
H75	H	1.287062	0.429905	0.369514
H76	H	1.787062	0.929905	0.869514
