data_functionalizedCrystal
_audit_creation_method	'MofGen! by Chris Wilmer'
_symmetry_space_group_name_H-M	'P1'
_symmetry_Int_Tables_number	1
_symmetry_cell_setting	triclinic
loop_
_symmetry_equiv_pos_as_xyz
  x,y,z
_cell_length_a	17.640112
_cell_length_b	21.295417
_cell_length_c	17.640968
_cell_angle_alpha	101.231877
_cell_angle_beta	92.139080
_cell_angle_gamma	78.747054
loop_
_atom_site_label
_atom_site_type_symbol
_atom_site_fract_x
_atom_site_fract_y
_atom_site_fract_z
Zn1	Zn	1.247776	0.018087	-0.195080
Zn2	Zn	1.221991	0.147963	-0.068096
Zn3	Zn	1.095103	0.059036	-0.093725
Zn4	Zn	1.120733	0.139677	-0.220678
O5	O	1.171401	0.091191	-0.144395
O6	O	1.350627	0.021646	-0.156796
O7	O	1.183642	0.156772	0.034777
O8	O	1.115421	-0.034498	-0.107183
O9	O	1.331683	0.117065	-0.063502
O10	O	1.227589	-0.064583	-0.181648
O11	O	1.090418	0.091437	0.015948
O12	O	0.992232	0.083403	-0.132005
O13	O	1.159103	0.102943	-0.323556
O14	O	1.011063	0.142649	-0.225277
O15	O	1.252441	0.013611	-0.304749
O16	O	1.208494	0.234966	-0.088323
O17	O	1.134101	0.228878	-0.200425
C18	C	0.974093	0.116570	-0.184200
C19	C	0.889687	0.127440	-0.201247
C20	C	0.563038	0.008606	-0.014898
C21	C	0.483728	0.018831	-0.030926
C22	C	0.503356	0.080667	-0.127883
C23	C	0.582670	0.070446	-0.111865
C24	C	0.612504	0.034415	-0.055371
C25	C	0.632136	0.096254	-0.152338
C26	C	0.711442	0.086036	-0.136319
C27	C	0.741283	0.050010	-0.079826
C28	C	0.691810	0.024197	-0.039352
C29	C	0.602300	0.132288	-0.208828
C30	C	0.651766	0.158097	-0.249301
C31	C	0.731075	0.147876	-0.233286
C32	C	0.760915	0.111849	-0.176793
C33	C	0.780547	0.173688	-0.273760
C34	C	0.859853	0.163470	-0.257741
C35	C	0.840221	0.101631	-0.160774
C36	C	1.171305	0.254760	-0.144383
C37	C	1.171338	0.324722	-0.144390
C38	C	1.210344	0.827266	-0.086139
C39	C	1.210311	0.761531	-0.086124
C40	C	1.171518	0.725522	-0.144452
C41	C	1.132737	0.755257	-0.202788
C42	C	1.132764	0.820993	-0.202797
N43	N	1.179054	0.610161	-0.212096
N44	N	1.179032	0.547715	-0.212085
C45	C	1.171432	0.527465	-0.144428
N46	N	1.163870	0.572018	-0.076779
N47	N	1.163896	0.634469	-0.076791
C48	C	1.171484	0.654243	-0.144449
C49	C	1.210171	0.426461	-0.086077
C50	C	1.210133	0.360726	-0.086062
C51	C	1.132564	0.354452	-0.202732
C52	C	1.132597	0.420187	-0.202741
C53	C	1.171404	0.456187	-0.144414
C54	C	1.369480	0.065712	-0.104435
C55	C	1.453889	0.054855	-0.087406
C56	C	1.211507	0.052785	-0.342478
C57	C	1.228598	0.036419	-0.426889
C58	C	1.171522	0.926976	-0.144429
C59	C	1.171572	0.856993	-0.144470
C60	C	1.041856	0.215144	-0.753461
C61	C	1.057931	0.199755	-0.832775
C62	C	1.155116	0.106742	-0.813182
C63	C	1.139046	0.122121	-0.733865
C64	C	1.082416	0.176323	-0.704011
C65	C	1.179606	0.083301	-0.684416
C66	C	1.163540	0.098681	-0.605106
C67	C	1.106914	0.152881	-0.575245
C68	C	1.066350	0.191703	-0.624701
C69	C	1.236239	0.029102	-0.714271
C70	C	1.276799	-0.009719	-0.664821
C71	C	1.260730	0.005659	-0.585510
C72	C	1.204104	0.059859	-0.555649
C73	C	1.301294	-0.033163	-0.536054
C74	C	1.285228	-0.017783	-0.456744
C75	C	1.188038	0.075239	-0.476339
C76	C	1.131495	0.129396	0.052927
C77	C	1.114551	0.145566	0.137367
H78	H	0.443455	-0.002194	0.002031
C79	C	1.252085	0.328451	-0.022656
C80	C	1.199247	0.305750	0.017416
C81	C	1.237863	0.276023	0.075837
H82	H	1.291019	0.292845	-0.044971
H83	H	1.275177	0.359300	0.012118
H84	H	1.176166	0.274904	-0.017353
H85	H	1.160310	0.341344	0.039748
H86	H	1.260955	0.306871	0.110611
H87	H	1.276796	0.240419	0.053515
H88	H	1.202017	0.260622	0.103038
C89	C	1.362833	-0.092015	-0.568319
C90	C	1.394929	-0.122713	-0.508034
C91	C	1.451629	-0.176925	-0.537724
H92	H	1.340159	-0.121776	-0.605114
H93	H	1.402210	-0.078200	-0.592548
H94	H	1.355560	-0.136530	-0.483818
H95	H	1.417619	-0.092971	-0.471234
H96	H	1.491005	-0.163110	-0.561953
H97	H	1.428948	-0.206680	-0.574519
H98	H	1.473418	-0.197757	-0.496825
H99	H	1.318255	-0.049396	-0.416480
C100	C	1.216542	0.047904	-0.845753
C101	C	1.221920	0.042734	-0.925797
C102	C	1.278490	-0.011466	-0.955827
H103	H	1.264976	0.053011	-0.822540
H104	H	1.202823	0.009533	-0.835051
H105	H	1.235644	0.081096	-0.936492
H106	H	1.173501	0.037617	-0.949031
H107	H	1.264771	-0.049838	-0.945125
H108	H	1.326919	-0.006354	-0.932607
H109	H	1.282142	-0.014985	-1.010139
H110	H	1.241769	0.455774	-0.038582
C111	C	0.470819	0.119737	-0.189217
C112	C	0.390780	0.123150	-0.194598
C113	C	0.360784	0.159127	-0.251100
H114	H	0.481451	0.162546	-0.175461
H115	H	0.494125	0.099008	-0.237659
H116	H	0.367481	0.143880	-0.146166
H117	H	0.380126	0.080351	-0.208363
H118	H	0.384091	0.138398	-0.299542
H119	H	0.371422	0.201933	-0.237339
H120	H	0.306477	0.161442	-0.254763
C121	C	1.090520	0.315246	-0.266015
C122	C	1.098808	0.251310	-0.253534
C123	C	1.060093	0.215171	-0.311820
H124	H	1.037229	0.334705	-0.265206
H125	H	1.111940	0.314633	-0.314834
H126	H	1.077385	0.251926	-0.204728
H127	H	1.152090	0.231833	-0.254351
H128	H	1.081513	0.214558	-0.360639
H129	H	1.006804	0.234635	-0.311006
H130	H	1.065717	0.171785	-0.303363
H131	H	0.900130	0.184485	-0.290699
H132	H	0.864515	0.072280	-0.114782
H133	H	1.101149	0.725936	-0.250279
H134	H	1.024898	0.231372	-0.873035
C135	C	0.827385	0.039051	-0.062420
C136	C	0.849656	0.099361	-0.037639
C137	C	0.928968	0.089293	-0.021605
H138	H	0.838164	0.013933	-0.022962
H139	H	0.855303	0.016436	-0.107824
H140	H	0.821747	0.121967	0.007759
H141	H	0.838897	0.124488	-0.077087
H142	H	0.956886	0.066678	-0.067008
H143	H	0.939739	0.064173	0.017852
H144	H	0.944090	0.130211	-0.004796
C145	C	1.004980	0.250643	-0.592287
C146	C	1.025401	0.307065	-0.608214
C147	C	0.968902	0.361373	-0.578350
H148	H	0.956551	0.245580	-0.615542
H149	H	1.001242	0.254279	-0.537961
H150	H	1.029130	0.303429	-0.662529
H151	H	1.073820	0.312149	-0.584959
H152	H	0.965164	0.365010	-0.524024
H153	H	0.920477	0.356304	-0.601607
H154	H	0.982753	0.399662	-0.589146
H155	H	0.716105	-0.005153	0.006640
C156	C	1.090659	0.853145	-0.266224
C157	C	1.056690	0.807540	-0.317314
C158	C	1.017907	0.837133	-0.375759
H159	H	1.051670	0.888710	-0.243917
H160	H	1.126391	0.868580	-0.293532
H161	H	1.020962	0.792114	-0.290010
H162	H	1.095662	0.771973	-0.339639
H163	H	1.053639	0.852568	-0.403066
H164	H	0.978922	0.872697	-0.353445
H165	H	0.994861	0.806193	-0.410434
C166	C	0.980486	0.274083	-0.721047
C167	C	1.000907	0.330505	-0.736974
C168	C	0.944408	0.384814	-0.707110
H169	H	0.932057	0.269020	-0.744302
H170	H	0.976748	0.277720	-0.666721
H171	H	1.004636	0.326869	-0.791289
H172	H	1.049326	0.335589	-0.713719
H173	H	0.940670	0.388450	-0.652784
H174	H	0.895983	0.379744	-0.730367
H175	H	0.958259	0.423103	-0.717906
H176	H	0.587333	-0.020744	0.031094
C177	C	1.090496	0.452339	-0.266168
C178	C	1.056531	0.406732	-0.317258
C179	C	1.017746	0.436324	-0.375703
H180	H	1.051505	0.487902	-0.243861
H181	H	1.126226	0.467777	-0.293474
H182	H	1.020804	0.391304	-0.289955
H183	H	1.095505	0.371167	-0.339584
H184	H	1.053476	0.451762	-0.403010
H185	H	0.978759	0.471887	-0.353390
H186	H	0.994702	0.405384	-0.410379
H187	H	1.249320	0.016583	-0.778851
H188	H	1.141906	0.119363	-0.452034
H189	H	0.756242	0.203029	-0.319752
C190	C	0.619515	0.197250	-0.310646
C191	C	0.679812	0.217674	-0.342653
C192	C	0.650134	0.253745	-0.399164
H193	H	0.595316	0.170822	-0.350094
H194	H	0.582687	0.234305	-0.287811
H195	H	0.716626	0.180625	-0.365488
H196	H	0.704017	0.244111	-0.303224
H197	H	0.613305	0.290800	-0.376330
H198	H	0.625935	0.227312	-0.438608
H199	H	0.691038	0.267612	-0.420884
H200	H	0.537723	0.140607	-0.221869
H201	H	1.322910	-0.053848	-0.689140
C202	C	1.252481	0.866251	-0.022720
C203	C	1.286411	0.826147	0.028379
C204	C	1.325223	0.862042	0.086817
H205	H	1.291492	0.881982	-0.045032
H206	H	1.216772	0.902071	0.004582
H207	H	1.322117	0.790339	0.001081
H208	H	1.247417	0.810415	0.050711
H209	H	1.289515	0.897862	0.114119
H210	H	1.364231	0.877772	0.064498
H211	H	1.348244	0.834839	0.121499
H212	H	1.241885	0.737323	-0.038623
H213	H	1.093837	0.165405	-0.510664
