data_functionalizedCrystal
_audit_creation_method	'MofGen! by Chris Wilmer'
_symmetry_space_group_name_H-M	'P1'
_symmetry_Int_Tables_number	1
_symmetry_cell_setting	triclinic
loop_
_symmetry_equiv_pos_as_xyz
  x,y,z
_cell_length_a	8.559649
_cell_length_b	17.019294
_cell_length_c	7.088929
_cell_angle_alpha	79.934307
_cell_angle_beta	95.324505
_cell_angle_gamma	76.602568
loop_
_atom_site_label
_atom_site_type_symbol
_atom_site_fract_x
_atom_site_fract_y
_atom_site_fract_z
O1	O	2.104069	-0.017829	-0.156045
O2	O	1.638073	0.023303	-0.162821
O3	O	1.886037	-0.113983	-0.140208
O4	O	1.856105	0.119457	-0.178658
O5	O	1.919176	-0.132367	0.180796
O6	O	1.671211	0.004920	0.158182
O7	O	2.137208	-0.036213	0.164959
Cu8	Cu	1.907236	-0.017325	0.190881
Cu9	Cu	1.868045	0.004416	-0.188743
O10	O	1.889244	0.101073	0.142345
C11	C	1.595052	0.017229	-0.002833
C12	C	1.417493	0.026507	-0.004362
C13	C	1.902125	-0.152783	0.025167
C14	C	1.900672	-0.241006	0.039686
C15	C	1.881929	-0.272429	-0.128470
C16	C	1.880554	-0.355322	-0.114822
C17	C	1.897933	-0.406794	0.066984
C18	C	1.916673	-0.375367	0.235153
C19	C	1.918036	-0.292473	0.221503
C20	C	1.894710	-0.657581	0.116953
C21	C	1.893350	-0.740480	0.130591
C22	C	1.857228	-0.720430	-0.219386
C23	C	1.858603	-0.637537	-0.233020
C24	C	1.877334	-0.606115	-0.064852
C25	C	1.896533	-0.491526	0.080940
C26	C	1.878722	-0.521383	-0.078809
C27	C	2.180228	-0.030138	0.004966
C28	C	2.357786	-0.039416	0.006483
C29	C	1.873155	0.139874	-0.023034
C30	C	1.874607	0.228098	-0.037565
N31	N	1.934812	-0.032618	0.457887
N32	N	1.840482	0.019701	-0.455749
H33	H	1.867786	-0.230526	-0.276517
H34	H	1.742720	0.073920	0.453674
H35	H	2.032591	-0.086835	0.548474
H36	H	1.332770	0.090047	-0.014847
H37	H	1.442516	-0.102959	0.016948
H38	H	1.865298	-0.380902	-0.251753
F39	F	1.840108	-0.582762	-0.426524
H40	H	1.841975	-0.746022	-0.356299
F41	F	1.911857	-0.795261	0.324104
H42	H	1.909994	-0.632012	0.253889
H43	H	1.930814	-0.417280	0.383184
F44	F	1.937983	-0.259032	0.400479
H45	H	1.864561	-0.479470	-0.226835
F46	F	1.915023	-0.546312	0.274427
