data_functionalizedCrystal
_audit_creation_method	'MofGen! by Chris Wilmer'
_symmetry_space_group_name_H-M	'P1'
_symmetry_Int_Tables_number	1
_symmetry_cell_setting	triclinic
loop_
_symmetry_equiv_pos_as_xyz
  x,y,z
_cell_length_a	16.109301
_cell_length_b	14.586319
_cell_length_c	16.109301
_cell_angle_alpha	89.998390
_cell_angle_beta	83.461481
_cell_angle_gamma	89.996867
loop_
_atom_site_label
_atom_site_type_symbol
_atom_site_fract_x
_atom_site_fract_y
_atom_site_fract_z
O1	O	-1.103134	0.076185	-0.106861
O2	O	-0.861072	0.076200	-0.120161
O3	O	-0.988753	0.076183	0.007520
O4	O	-0.975454	0.076203	-0.234542
O5	O	-0.988737	-0.076298	0.007512
O6	O	-0.861057	-0.076281	-0.120168
O7	O	-1.103119	-0.076295	-0.106869
Cu8	Cu	-0.982086	-0.090211	-0.113519
Cu9	Cu	-0.982105	0.090115	-0.113510
O10	O	-0.975438	-0.076278	-0.234550
C11	C	-0.830090	-0.000038	-0.119626
C12	C	-0.737794	-0.000033	-0.118011
N13	N	-0.982079	-0.217042	-0.113525
C14	C	-0.988206	-0.000058	0.038491
C15	C	-0.986591	-0.000059	0.130786
C16	C	-1.134101	-0.000055	-0.107404
C17	C	-1.226397	-0.000054	-0.109019
C18	C	-0.515522	-0.000038	-0.190018
C19	C	-0.428801	-0.000044	-0.188494
C20	C	-0.448676	-0.000052	-0.037006
C21	C	-0.535394	-0.000053	-0.038530
C22	C	-0.568815	-0.000041	-0.115039
C23	C	-0.395376	-0.000046	-0.111990
C24	C	-0.301350	-0.000053	-0.110337
C25	C	-0.662847	-0.000036	-0.116693
C26	C	-1.032502	-0.452048	-0.163954
C27	C	-1.032511	-0.548029	-0.163948
C28	C	-0.931693	-0.548041	-0.063064
C29	C	-0.931690	-0.452061	-0.063066
C30	C	-0.982093	-0.404067	-0.113515
C31	C	-0.982105	-0.596028	-0.113508
C32	C	-0.982114	-0.700095	-0.113501
C33	C	-0.982085	-0.299993	-0.113521
N34	N	-0.982118	0.216947	-0.113498
C35	C	-0.975984	-0.000035	-0.265521
C36	C	-0.977600	-0.000028	-0.357816
C37	C	-1.058599	-0.000049	0.353059
C38	C	-1.057075	-0.000041	0.439779
C39	C	-0.905586	-0.000036	0.419905
C40	C	-0.907111	-0.000037	0.333186
C41	C	-0.983620	-0.000048	0.299766
C42	C	-0.980571	-0.000039	0.473205
C43	C	-0.978918	-0.000031	0.567231
C44	C	-0.985273	-0.000055	0.205734
H45	H	-0.385413	-0.000043	-0.249550
H46	H	-0.421454	-0.000067	0.025285
N47	N	-0.877319	-0.400309	-0.008655
H48	H	-0.816825	-0.417013	-0.025036
H49	H	-0.885038	-0.332240	-0.016331
N50	N	-1.086865	-0.400281	-0.218361
H51	H	-1.118802	-0.445244	-0.250311
H52	H	-1.127515	-0.360454	-0.182121
H53	H	-1.120897	-0.000056	0.325851
H54	H	-0.542730	-0.000035	-0.252317
N55	N	-0.592883	-0.000067	0.042343
H56	H	-0.558554	-0.000069	0.091043
H57	H	-0.629303	0.056456	0.045013
H58	H	-1.073560	-0.587091	-0.205019
N59	N	-1.137945	-0.000042	0.497261
H60	H	-1.186640	-0.000050	0.462927
H61	H	-1.140605	-0.056567	0.533677
H62	H	-0.843295	-0.000028	0.447127
N63	N	-0.826237	-0.000029	0.275698
H64	H	-0.777538	-0.000028	0.310026
H65	H	-0.823567	-0.056554	0.239284
N66	N	-0.877332	-0.599806	-0.008653
H67	H	-0.884981	-0.667889	-0.016305
H68	H	-0.816862	-0.583034	-0.025062
