data_functionalizedCrystal
_audit_creation_method	'MofGen! by Chris Wilmer'
_symmetry_space_group_name_H-M	'P1'
_symmetry_Int_Tables_number	1
_symmetry_cell_setting	triclinic
loop_
_symmetry_equiv_pos_as_xyz
  x,y,z
_cell_length_a	18.050591
_cell_length_b	19.121063
_cell_length_c	18.050582
_cell_angle_alpha	92.415032
_cell_angle_beta	89.979078
_cell_angle_gamma	92.465257
loop_
_atom_site_label
_atom_site_type_symbol
_atom_site_fract_x
_atom_site_fract_y
_atom_site_fract_z
Zn1	Zn	1.122676	-0.279734	-0.432630
Zn2	Zn	1.456010	0.053600	-0.099296
Zn3	Zn	1.789343	0.386933	0.234037
Zn4	Zn	1.117290	-0.397178	-0.313729
Zn5	Zn	1.450623	-0.063845	0.019604
Zn6	Zn	1.783957	0.269489	0.352938
Zn7	Zn	0.998495	-0.279737	-0.308441
Zn8	Zn	1.331829	0.053597	0.024892
Zn9	Zn	1.665162	0.386930	0.358226
Zn10	Zn	0.993148	-0.397141	-0.437863
Zn11	Zn	1.326482	-0.063807	-0.104530
Zn12	Zn	1.659815	0.269526	0.228804
O13	O	1.057903	-0.338447	-0.373166
O14	O	1.391236	-0.005114	-0.039832
O15	O	1.724569	0.328219	0.293501
O16	O	1.225886	-0.295327	-0.416880
O17	O	1.559219	0.038006	-0.083547
O18	O	1.892552	0.371339	0.249786
O19	O	1.101515	-0.381616	-0.209104
O20	O	1.434849	-0.048282	0.124230
O21	O	1.768182	0.285051	0.457563
O22	O	1.019460	-0.181452	-0.320512
O23	O	1.352793	0.151882	0.012822
O24	O	1.686127	0.485215	0.346155
O25	O	1.221929	-0.381613	-0.329524
O26	O	1.555262	-0.048280	0.003809
O27	O	1.888595	0.285054	0.337142
O28	O	1.110695	-0.181449	-0.411753
O29	O	1.444029	0.151884	-0.078419
O30	O	1.777362	0.485217	0.254914
O31	O	1.014237	-0.295332	-0.205219
O32	O	1.347571	0.038001	0.128115
O33	O	1.680904	0.371334	0.461448
O34	O	0.893862	-0.295296	-0.325586
O35	O	1.227195	0.038037	0.007747
O36	O	1.560529	0.371370	0.341081
O37	O	1.010347	-0.381550	-0.541093
O38	O	1.343680	-0.048216	-0.207759
O39	O	1.677013	0.285117	0.125574
O40	O	0.889934	-0.381552	-0.420672
O41	O	1.223267	-0.048219	-0.087338
O42	O	1.556600	0.285114	0.245995
O43	O	1.105510	-0.295291	-0.537248
O44	O	1.438844	0.038042	-0.203914
O45	O	1.772177	0.371375	0.129419
O46	O	1.096331	-0.495458	-0.334599
O47	O	1.429664	-0.162124	-0.001265
O48	O	1.762997	0.171209	0.332068
O49	O	1.005124	-0.495430	-0.425799
O50	O	1.338457	-0.162097	-0.092466
O51	O	1.671791	0.171236	0.240867
C52	C	0.864952	-0.338421	-0.373123
C53	C	1.198285	-0.005088	-0.039790
C54	C	1.531618	0.328246	0.293543
C55	C	0.782406	-0.338427	-0.373124
C56	C	1.115739	-0.005093	-0.039790
C57	C	1.449072	0.328240	0.293543
C58	C	0.585072	-0.291466	-0.321528
C59	C	0.918405	0.041867	0.011805
C60	C	1.251739	0.375200	0.345139
C61	C	0.532763	-0.355526	-0.306137
C62	C	0.866097	-0.022193	0.027196
C63	C	1.199430	0.311140	0.360530
C64	C	0.631274	-0.338448	-0.373158
C65	C	0.964608	-0.005115	-0.039825
C66	C	1.297941	0.328219	0.293508
C67	C	0.536500	-0.274410	-0.388548
C68	C	0.869834	0.058923	-0.055215
C69	C	1.203167	0.392256	0.278118
C70	C	0.485288	-0.338463	-0.373190
C71	C	0.818622	-0.005130	-0.039857
C72	C	1.151955	0.328204	0.293477
C73	C	0.580051	-0.402542	-0.357733
C74	C	0.913384	-0.069208	-0.024400
C75	C	1.246718	0.264125	0.308933
C76	C	0.583794	-0.321383	-0.440174
C77	C	0.917128	0.011951	-0.106841
C78	C	1.250461	0.345284	0.226492
C79	C	0.531506	-0.385487	-0.424811
C80	C	0.864839	-0.052154	-0.091478
C81	C	1.198173	0.281180	0.241856
C82	C	0.715373	-0.338439	-0.373138
C83	C	1.048706	-0.005105	-0.039805
C84	C	1.382040	0.328228	0.293529
C85	C	0.401191	-0.338480	-0.373211
C86	C	0.734524	-0.005147	-0.039877
C87	C	1.067858	0.328187	0.293456
C88	C	1.049583	-0.520928	-0.381357
C89	C	1.382916	-0.187595	-0.048024
C90	C	1.716249	0.145739	0.285310
C91	C	1.046092	-0.598994	-0.384886
C92	C	1.379425	-0.265661	-0.051553
C93	C	1.712758	0.067672	0.281781
C94	C	1.091975	-0.635661	-0.339100
C95	C	1.425308	-0.302327	-0.005767
C96	C	1.758641	0.031006	0.327567
C97	C	1.088695	-0.709012	-0.342424
C98	C	1.422029	-0.375679	-0.009090
C99	C	1.755362	-0.042346	0.324243
C100	C	1.039529	-0.745696	-0.391530
C101	C	1.372862	-0.412362	-0.058197
C102	C	1.706196	-0.079029	0.275137
C103	C	0.993644	-0.709024	-0.437321
C104	C	1.326977	-0.375691	-0.103987
C105	C	1.660311	-0.042357	0.229346
C106	C	0.996928	-0.635674	-0.434001
C107	C	1.330261	-0.302341	-0.100667
C108	C	1.663594	0.030993	0.232666
C109	C	1.027241	-0.967166	-0.403932
C110	C	1.360575	-0.633833	-0.070599
C111	C	1.693908	-0.300499	0.262735
C112	C	1.023960	-1.040521	-0.407247
C113	C	1.357293	-0.707188	-0.073914
C114	C	1.690626	-0.373854	0.259420
C115	C	1.119012	-1.040504	-0.312351
C116	C	1.452346	-0.707171	0.020983
C117	C	1.785679	-0.373838	0.354316
C118	C	1.122288	-0.967153	-0.309032
C119	C	1.455622	-0.633819	0.024302
C120	C	1.788955	-0.300486	0.357635
C121	C	1.076406	-0.930487	-0.354825
C122	C	1.409740	-0.597154	-0.021492
C123	C	1.743073	-0.263821	0.311841
C124	C	1.036174	-0.820673	-0.394927
C125	C	1.369508	-0.487339	-0.061593
C126	C	1.702841	-0.154006	0.271740
C127	C	1.079765	-0.855512	-0.351432
C128	C	1.413098	-0.522179	-0.018098
C129	C	1.746432	-0.188845	0.315235
C130	C	1.251607	-0.338474	-0.373208
C131	C	1.584940	-0.005141	-0.039875
C132	C	1.918274	0.328193	0.293458
C133	C	1.334152	-0.338485	-0.373227
C134	C	1.667485	-0.005152	-0.039893
C135	C	2.000819	0.328181	0.293440
C136	C	1.057933	-0.338416	-0.566870
C137	C	1.391266	-0.005083	-0.233537
C138	C	1.724600	0.328251	0.099797
C139	C	1.057946	-0.338403	-0.649415
C140	C	1.391279	-0.005069	-0.316082
C141	C	1.724613	0.328264	0.017252
C142	C	1.066275	-0.155254	-0.364959
C143	C	1.399608	0.178080	-0.031625
C144	C	1.732942	0.511413	0.301708
C145	C	1.069843	-0.077188	-0.361461
C146	C	1.403176	0.256146	-0.028128
C147	C	1.736509	0.589479	0.305205
C148	C	1.006237	-0.385246	-0.850954
C149	C	1.339570	-0.051913	-0.517620
C150	C	1.672904	0.281421	-0.184287
C151	C	1.073218	-0.402419	-0.901126
C152	C	1.406551	-0.069086	-0.567792
C153	C	1.739884	0.264248	-0.234459
C154	C	1.057985	-0.338349	-0.800543
C155	C	1.391318	-0.005016	-0.467210
C156	C	1.724652	0.328317	-0.133877
C157	C	0.991042	-0.321157	-0.897452
C158	C	1.324376	0.012176	-0.564119
C159	C	1.657709	0.345510	-0.230786
C160	C	1.058017	-0.338299	-0.946526
C161	C	1.391350	-0.004965	-0.613193
C162	C	1.724683	0.328368	-0.279859
C163	C	1.125000	-0.355556	-0.849629
C164	C	1.458333	-0.022222	-0.516296
C165	C	1.791666	0.311111	-0.182963
C166	C	1.042780	-0.274264	-0.845950
C167	C	1.376114	0.059069	-0.512617
C168	C	1.709447	0.392403	-0.179284
C169	C	1.109809	-0.291412	-0.896099
C170	C	1.443142	0.041921	-0.562765
C171	C	1.776476	0.375254	-0.229432
C172	C	1.057966	-0.338380	-0.716446
C173	C	1.391299	-0.005047	-0.383113
C174	C	1.724632	0.328287	-0.049780
C175	C	1.058044	-0.338268	-1.030621
C176	C	1.391377	-0.004934	-0.697288
C177	C	1.724710	0.328399	-0.363955
C178	C	1.057917	-0.338428	-0.180213
C179	C	1.391250	-0.005094	0.153121
C180	C	1.724584	0.328239	0.486454
C181	C	1.058057	-0.338243	-0.097659
C182	C	1.391390	-0.004910	0.235674
C183	C	1.724724	0.328424	0.569008
H184	H	0.508190	-0.425270	-0.468489
H185	H	0.841523	-0.091937	-0.135155
H186	H	1.174857	0.241397	0.198178
C187	C	0.614075	-0.301838	-0.516693
C188	C	0.947408	0.031495	-0.183360
C189	C	1.280741	0.364828	0.149973
N190	N	0.636886	-0.287109	-0.574326
N191	N	0.970219	0.046224	-0.240993
N192	N	1.303553	0.379558	0.092340
C193	C	0.982084	-0.861032	-0.448934
C194	C	1.315417	-0.527698	-0.115601
C195	C	1.648751	-0.194365	0.217733
N196	N	0.941342	-0.891433	-0.489611
N197	N	1.274676	-0.558100	-0.156278
N198	N	1.608009	-0.224766	0.177056
C199	C	0.605899	-0.475733	-0.340071
C200	C	0.939232	-0.142399	-0.006738
C201	C	1.272566	0.190934	0.326596
N202	N	0.625370	-0.530858	-0.326764
N203	N	0.958703	-0.197524	0.006569
N204	N	1.292036	0.135809	0.339902
C205	C	1.133845	-0.815158	-0.297415
C206	C	1.467179	-0.481824	0.035918
C207	C	1.800512	-0.148491	0.369252
N208	N	1.174575	-0.784757	-0.256726
N209	N	1.507909	-0.451423	0.076607
N210	N	1.841242	-0.118090	0.409940
C211	C	0.969875	-1.080872	-0.461275
C212	C	1.303209	-0.747538	-0.127942
C213	C	1.636542	-0.414205	0.205392
N214	N	0.929142	-1.111264	-0.501967
N215	N	1.262475	-0.777930	-0.168634
N216	N	1.595808	-0.444597	0.164699
C217	C	1.169482	-1.080842	-0.261983
C218	C	1.502815	-0.747509	0.071350
C219	C	1.836148	-0.414175	0.404683
N220	N	1.207499	-1.111224	-0.224046
N221	N	1.540832	-0.777891	0.109287
N222	N	1.874165	-0.444558	0.442620
C223	C	1.169011	-0.237805	-0.922788
C224	C	1.502344	0.095528	-0.589454
C225	C	1.835678	0.428861	-0.256121
N226	N	1.213604	-0.197431	-0.942891
N227	N	1.546937	0.135902	-0.609557
N228	N	1.880271	0.469236	-0.276224
C229	C	1.025351	-0.201099	-0.813310
C230	C	1.358684	0.132234	-0.479977
C231	C	1.692017	0.465567	-0.146644
N232	N	1.012214	-0.145992	-0.788724
N233	N	1.345547	0.187341	-0.455390
N234	N	1.678881	0.520675	-0.122057
H235	H	1.162323	-0.937286	-0.269045
H236	H	1.495657	-0.603953	0.064288
H237	H	1.828990	-0.270620	0.397621
H238	H	0.510374	-0.369971	-0.249476
H239	H	0.843707	-0.036638	0.083857
H240	H	1.177041	0.296695	0.417190
C241	C	0.914543	-0.301537	-0.925864
C242	C	1.247877	0.031796	-0.592531
C243	C	1.581210	0.365129	-0.259197
N244	N	0.856923	-0.286765	-0.947260
N245	N	1.190256	0.046569	-0.613927
N246	N	1.523589	0.379902	-0.280594
H247	H	1.086097	-0.456593	-0.925266
H248	H	1.419430	-0.123260	-0.591933
H249	H	1.752764	0.210074	-0.258599
H250	H	0.608520	-0.251778	-0.277822
H251	H	0.941853	0.081555	0.055511
H252	H	1.275186	0.414889	0.388844
C253	C	0.510529	-0.201240	-0.406120
C254	C	0.843863	0.132094	-0.072786
C255	C	1.177196	0.465427	0.260547
N256	N	0.490972	-0.146126	-0.419350
N257	N	0.824305	0.187208	-0.086016
N258	N	1.157638	0.520541	0.247317
C259	C	0.947178	-0.438895	-0.824067
C260	C	1.280511	-0.105561	-0.490733
C261	C	1.613844	0.227772	-0.157400
N262	N	0.902701	-0.479305	-0.803810
N263	N	1.236034	-0.145971	-0.470476
N264	N	1.569368	0.187362	-0.137143
C265	C	0.939558	-0.749379	-0.491336
C266	C	1.272891	-0.416045	-0.158003
C267	C	1.606225	-0.082712	0.175331
N268	N	0.898816	-0.779773	-0.532018
N269	N	1.232149	-0.446440	-0.198685
N270	N	1.565482	-0.113106	0.134649
H271	H	1.132008	-0.605798	-0.299109
H272	H	1.465341	-0.272465	0.034224
H273	H	1.798674	0.060869	0.367557
C274	C	0.946453	-0.595341	-0.484369
C275	C	1.279786	-0.262008	-0.151036
C276	C	1.613119	0.071325	0.182297
N277	N	0.908435	-0.564963	-0.522311
N278	N	1.241769	-0.231630	-0.188977
N279	N	1.575102	0.101703	0.144356
H280	H	0.989881	-0.937319	-0.441218
H281	H	1.323214	-0.603985	-0.107884
H282	H	1.656547	-0.270652	0.225449
H283	H	1.126058	-0.738863	-0.305139
H284	H	1.459391	-0.405529	0.028194
H285	H	1.792724	-0.072196	0.361527
C286	C	1.201516	-0.375262	-0.821344
C287	C	1.534849	-0.041929	-0.488010
C288	C	1.868183	0.291405	-0.154677
N289	N	1.259146	-0.390108	-0.800037
N290	N	1.592479	-0.056774	-0.466704
N291	N	1.925812	0.276559	-0.133370
