data_functionalizedCrystal
_audit_creation_method	'MofGen! by Chris Wilmer'
_symmetry_space_group_name_H-M	'P1'
_symmetry_Int_Tables_number	1
_symmetry_cell_setting	triclinic
loop_
_symmetry_equiv_pos_as_xyz
  x,y,z
_cell_length_a	19.077105
_cell_length_b	11.169416
_cell_length_c	11.169409
_cell_angle_alpha	90.029517
_cell_angle_beta	92.320653
_cell_angle_gamma	87.700901
loop_
_atom_site_label
_atom_site_type_symbol
_atom_site_fract_x
_atom_site_fract_y
_atom_site_fract_z
Zn1	Zn	1.076127	-0.551541	0.752318
Zn2	Zn	1.576127	-0.051541	1.252318
Zn3	Zn	1.076074	-0.752278	0.551641
Zn4	Zn	1.576074	-0.252278	1.051641
Zn5	Zn	0.958420	-0.543535	0.543585
Zn6	Zn	1.458420	-0.043535	1.043585
Zn7	Zn	0.958437	-0.744106	0.744223
Zn8	Zn	1.458437	-0.244106	1.244223
O9	O	1.017264	-0.647865	0.647942
O10	O	1.517264	-0.147865	1.147942
O11	O	1.174612	-0.584939	0.732456
O12	O	1.674612	-0.084939	1.232456
O13	O	1.060438	-0.724657	0.382620
O14	O	1.560438	-0.224657	0.882620
O15	O	0.974049	-0.376649	0.571290
O16	O	1.474049	0.123351	1.071290
O17	O	1.174574	-0.732420	0.585020
O18	O	1.674574	-0.232420	1.085020
O19	O	1.060528	-0.382530	0.724645
O20	O	1.560528	0.117470	1.224645
O21	O	0.973998	-0.571295	0.376702
O22	O	1.473998	-0.071295	0.876702
O23	O	0.859930	-0.563371	0.563441
O24	O	1.359930	-0.063371	1.063441
O25	O	0.974078	-0.718493	0.913249
O26	O	1.474078	-0.218493	1.413249
O27	O	0.859942	-0.710730	0.710850
O28	O	1.359942	-0.210730	1.210850
O29	O	1.060544	-0.577016	0.919196
O30	O	1.560544	-0.077016	1.419196
O31	O	1.060455	-0.919143	0.577171
O32	O	1.560455	-0.419143	1.077171
O33	O	0.974027	-0.913139	0.718661
O34	O	1.474027	-0.413139	1.218661
C35	C	0.834398	-0.635296	0.635394
C36	C	1.334398	-0.135296	1.135394
C37	C	0.756167	-0.629948	0.630054
C38	C	1.256167	-0.129948	1.130054
C39	C	1.017256	-0.959689	0.647939
C40	C	1.517256	-0.459689	1.147939
C41	C	1.017317	-1.093093	0.647983
C42	C	1.517317	-0.593093	1.147983
C43	C	1.017319	-0.647736	0.960988
C44	C	1.517319	-0.147736	1.460988
C45	C	1.017342	-0.647680	1.094390
C46	C	1.517342	-0.147680	1.594390
C47	C	0.719438	-0.704273	0.704172
C48	C	1.219438	-0.204273	1.204172
C49	C	0.645932	-0.699232	0.699161
C50	C	1.145932	-0.199232	1.199161
C51	C	0.609155	-0.619871	0.620024
C52	C	1.109155	-0.119871	1.120024
C53	C	0.645888	-0.545538	0.545903
C54	C	1.145888	-0.045538	1.045903
C55	C	0.719393	-0.550574	0.550921
C56	C	1.219393	-0.050574	1.050921
C57	C	0.389315	-0.596565	0.596805
C58	C	0.889315	-0.096565	1.096805
C59	C	0.315805	-0.591537	0.591789
C60	C	0.815805	-0.091537	1.091789
C61	C	0.315853	-0.745230	0.745050
C62	C	0.815853	-0.245230	1.245050
C63	C	0.389360	-0.750263	0.750056
C64	C	0.889360	-0.250263	1.250056
C65	C	0.426087	-0.675926	0.675939
C66	C	0.926087	-0.175926	1.175939
N67	N	0.534019	-0.614719	0.614897
N68	N	1.034019	-0.114719	1.114897
N69	N	0.501221	-0.681073	0.681073
N70	N	1.001221	-0.181073	1.181073
C71	C	1.200845	-0.660484	0.660539
C72	C	1.700845	-0.160484	1.160539
C73	C	1.279077	-0.665862	0.665908
C74	C	1.779077	-0.165862	1.165908
C75	C	1.017292	-0.334825	0.647972
C76	C	1.517292	0.165175	1.147972
C77	C	1.017304	-0.201426	0.647984
C78	C	1.517304	0.298574	1.147984
C79	C	1.017251	-0.647910	0.336116
C80	C	1.517251	-0.147910	0.836116
C81	C	1.017364	-0.647637	0.202724
C82	C	1.517364	-0.147637	0.702724
H83	H	0.616031	-0.759756	0.759515
H84	H	1.116031	-0.259756	1.259515
N85	N	0.276127	-0.505972	0.506407
N86	N	0.776127	-0.005972	1.006407
H87	H	0.245628	-0.448328	0.553170
H88	H	0.745628	0.051672	1.053170
H89	H	0.245668	-0.552730	0.448665
H90	H	0.745668	-0.052730	0.948665
H91	H	0.749297	-0.490044	0.490572
H92	H	1.249297	0.009956	0.990572
N93	N	0.428923	-0.516372	0.516887
N94	N	0.928923	-0.016372	1.016887
H95	H	0.394469	-0.465333	0.465999
H96	H	0.894469	0.034667	0.965999
H97	H	0.459412	-0.567227	0.463338
H98	H	0.959412	-0.067227	0.963338
H99	H	0.749377	-0.768901	0.768610
H100	H	1.249377	-0.268901	1.268610
N101	N	0.606226	-0.459962	0.460524
N102	N	1.106226	0.040038	0.960524
H103	H	0.554087	-0.468061	0.468578
H104	H	1.054087	0.031939	0.968578
H105	H	0.619060	-0.479454	0.375666
H106	H	1.119060	0.020546	0.875666
N107	N	0.429025	-0.835866	0.835404
N108	N	0.929025	-0.335866	1.335404
H109	H	0.394603	-0.882188	0.881598
H110	H	0.894603	-0.382188	1.381598
H111	H	0.459542	-0.789170	0.893110
H112	H	0.959542	-0.289170	1.393110
N113	N	0.276242	-0.825403	0.824986
N114	N	0.776242	-0.325403	1.324986
H115	H	0.224096	-0.810175	0.809803
H116	H	0.724096	-0.310175	1.309803
H117	H	0.289116	-0.807701	0.911611
H118	H	0.789116	-0.307701	1.411611
