data_functionalizedCrystal
_audit_creation_method	'MofGen! by Chris Wilmer'
_symmetry_space_group_name_H-M	'P1'
_symmetry_Int_Tables_number	1
_symmetry_cell_setting	triclinic
loop_
_symmetry_equiv_pos_as_xyz
  x,y,z
_cell_length_a	19.805407
_cell_length_b	12.759394
_cell_length_c	19.805399
_cell_angle_alpha	89.977727
_cell_angle_beta	89.975799
_cell_angle_gamma	90.013103
loop_
_atom_site_label
_atom_site_type_symbol
_atom_site_fract_x
_atom_site_fract_y
_atom_site_fract_z
Zn1	Zn	1.034795	-0.418312	-0.382828
Zn2	Zn	1.034734	-0.594005	-0.269650
Zn3	Zn	0.921609	-0.418339	-0.269644
Zn4	Zn	0.921598	-0.593947	-0.382788
O5	O	0.978184	-0.506151	-0.326228
O6	O	1.129503	-0.441631	-0.367835
O7	O	1.019708	-0.570738	-0.174933
O8	O	0.936654	-0.271314	-0.284672
O9	O	1.129459	-0.570712	-0.284683
O10	O	1.019811	-0.271294	-0.367828
O11	O	0.936595	-0.441677	-0.174928
O12	O	0.826891	-0.441620	-0.284633
O13	O	0.936634	-0.570613	-0.477510
O14	O	0.826883	-0.570639	-0.367760
O15	O	1.019799	-0.441575	-0.477539
O16	O	1.019696	-0.741019	-0.284644
O17	O	0.936575	-0.740976	-0.367766
C18	C	0.802328	-0.506127	-0.326192
C19	C	0.727096	-0.506142	-0.326192
C20	C	0.265318	-0.573457	-0.369487
C21	C	0.336007	-0.573455	-0.369473
C22	C	0.371334	-0.506176	-0.326254
C23	C	0.335970	-0.438902	-0.283042
C24	C	0.265283	-0.438910	-0.283053
C25	C	0.621043	-0.438870	-0.282994
C26	C	0.691735	-0.438865	-0.282988
C27	C	0.691767	-0.573415	-0.369414
C28	C	0.621080	-0.573423	-0.369425
C29	C	0.585722	-0.506153	-0.326211
C30	C	0.509073	-0.506157	-0.326226
C31	C	0.447981	-0.506166	-0.326242
C32	C	0.978146	-0.779118	-0.326216
C33	C	0.978192	-0.895895	-0.326234
C34	C	1.064719	-0.895716	-0.412890
C35	C	1.108003	-0.950488	-0.456223
C36	C	1.108043	-1.060209	-0.456237
C37	C	1.064793	-1.115162	-0.412916
C38	C	1.021508	-1.060390	-0.369583
C39	C	1.021474	-0.950666	-0.369572
C40	C	0.934980	-1.060569	-0.282932
C41	C	0.934942	-0.950847	-0.282913
C42	C	0.891729	-1.115522	-0.239610
C43	C	0.848447	-1.060750	-0.196273
C44	C	0.848409	-0.951022	-0.196260
C45	C	0.891657	-0.896076	-0.239580
C46	C	1.154727	-0.506175	-0.326264
C47	C	1.229959	-0.506186	-0.326280
C48	C	0.978222	-0.506085	-0.502770
C49	C	0.978238	-0.506056	-0.578002
C50	C	0.978240	-0.232117	-0.326254
C51	C	0.978264	-0.115341	-0.326265
C52	C	1.021543	-0.438863	-0.613363
C53	C	1.021550	-0.438832	-0.684051
C54	C	0.978255	-0.506001	-0.719378
C55	C	0.934945	-0.573198	-0.684013
C56	C	0.934935	-0.573223	-0.613325
C57	C	0.934983	-0.573100	-0.969086
C58	C	0.934998	-0.573073	-1.039778
C59	C	1.021598	-0.438710	-1.039812
C60	C	1.021589	-0.438734	-0.969125
C61	C	0.978276	-0.505926	-0.933766
C62	C	0.978268	-0.505957	-0.857117
C63	C	0.978266	-0.505977	-0.796025
C64	C	0.978185	-0.506141	-0.150372
C65	C	0.978300	-0.505873	-0.075140
H66	H	0.592263	-0.384098	-0.247804
C67	C	0.800794	-0.890776	-0.148592
C68	C	0.806359	-0.905930	-0.071654
C69	C	0.758744	-0.845689	-0.023986
C70	C	0.705563	-0.770294	-0.053256
C71	C	0.699996	-0.755137	-0.130198
C72	C	0.747612	-0.815378	-0.177866
H73	H	0.845729	-0.961745	-0.049983
H74	H	0.762865	-0.856909	0.032972
H75	H	0.670315	-0.725700	-0.017969
H76	H	0.660626	-0.699323	-0.151868
H77	H	0.743490	-0.804158	-0.234824
H78	H	0.720497	-0.384073	-0.247793
C79	C	1.155580	-0.890037	-0.503871
C80	C	1.232532	-0.905039	-0.498416
C81	C	1.280108	-0.844591	-0.546063
C82	C	1.250731	-0.769141	-0.599166
C83	C	1.173775	-0.754135	-0.604622
C84	C	1.126199	-0.814583	-0.556975
H85	H	1.254282	-0.960895	-0.459105
H86	H	1.337077	-0.855700	-0.542024
H87	H	1.285950	-0.724394	-0.634437
H88	H	1.152025	-0.698279	-0.643934
H89	H	1.069230	-0.803474	-0.561015
C90	C	0.374899	-0.647452	-0.417006
C91	C	0.365158	-0.766877	-0.411363
C92	C	0.404048	-0.840878	-0.458899
C93	C	0.452681	-0.795454	-0.512079
C94	C	0.462425	-0.676022	-0.517725
C95	C	0.423534	-0.602021	-0.470188
H96	H	0.329155	-0.800509	-0.371994
H97	H	0.396835	-0.929290	-0.454720
H98	H	0.481470	-0.850234	-0.547268
H99	H	0.498427	-0.642391	-0.557094
H100	H	0.430747	-0.513610	-0.474368
C101	C	1.155654	-1.120465	-0.503904
C102	C	1.155693	-1.241155	-0.503917
C103	C	1.203302	-1.301410	-0.551584
C104	C	1.250873	-1.240976	-0.599238
C105	C	1.250836	-1.120279	-0.599227
C106	C	1.203226	-1.060023	-0.551560
H107	H	1.120476	-1.285898	-0.468639
H108	H	1.203329	-1.390758	-0.551592
H109	H	1.286116	-1.285580	-0.634524
H110	H	1.286052	-1.075536	-0.634505
H111	H	1.203199	-0.970675	-0.551552
H112	H	1.064697	-0.806375	-0.412876
H113	H	1.056863	-0.383995	-1.068610
C114	C	0.800876	-1.121197	-0.148625
C115	C	0.800914	-1.241887	-0.148645
C116	C	0.753342	-1.302338	-0.100995
C117	C	0.705732	-1.242099	-0.053325
C118	C	0.705692	-1.121403	-0.053304
C119	C	0.753264	-1.060951	-0.100953
H120	H	0.836159	-1.286485	-0.183934
H121	H	0.753372	-1.391686	-0.101011
H122	H	0.670517	-1.286849	-0.018052
H123	H	0.670447	-1.076804	-0.018014
H124	H	0.753234	-0.971603	-0.100937
H125	H	1.064824	-1.204503	-0.412937
C126	C	0.730663	-0.647424	-0.416946
C127	C	0.779230	-0.729852	-0.387522
C128	C	0.818123	-0.803855	-0.435055
C129	C	0.808451	-0.795430	-0.512011
C130	C	0.759882	-0.712999	-0.541438
C131	C	0.720989	-0.638996	-0.493906
H132	H	0.786392	-0.736091	-0.330551
H133	H	0.854077	-0.864876	-0.413270
H134	H	0.837243	-0.850212	-0.547197
H135	H	0.752720	-0.706760	-0.598409
H136	H	0.685035	-0.577975	-0.515690
C137	C	1.069185	-0.364915	-0.722948
C138	C	1.116811	-0.291033	-0.684092
C139	C	1.164446	-0.217109	-0.722988
C140	C	1.164454	-0.217066	-0.800741
C141	C	1.116827	-0.290951	-0.839602
C142	C	1.069192	-0.364875	-0.800706
H143	H	1.116806	-0.291063	-0.626530
H144	H	1.199703	-0.162415	-0.694220
H145	H	1.199716	-0.162343	-0.829535
H146	H	1.116832	-0.290921	-0.897164
H147	H	1.033935	-0.419569	-0.829474
C148	C	0.374828	-0.364893	-0.235500
C149	C	0.452581	-0.364875	-0.235488
C150	C	0.491437	-0.290862	-0.187946
C151	C	0.452541	-0.216866	-0.140417
C152	C	0.374783	-0.216880	-0.140428
C153	C	0.335927	-0.290894	-0.187969
H154	H	0.481379	-0.419654	-0.270673
H155	H	0.548999	-0.290851	-0.187939
H156	H	0.481304	-0.162077	-0.105224
H157	H	0.345985	-0.162102	-0.105242
H158	H	0.278365	-0.290904	-0.187977
C159	C	0.887334	-0.647017	-0.930211
C160	C	0.810396	-0.638415	-0.939937
C161	C	0.762739	-0.712337	-0.901066
C162	C	0.792021	-0.794862	-0.852469
C163	C	0.868963	-0.803468	-0.842741
C164	C	0.916619	-0.729546	-0.881612
H165	H	0.788717	-0.577322	-0.975913
H166	H	0.705782	-0.705966	-0.908268
H167	H	0.756742	-0.849584	-0.823694
H168	H	0.890642	-0.864561	-0.806765
H169	H	0.973577	-0.735917	-0.874410
C170	C	0.226383	-0.364906	-0.235529
C171	C	0.236114	-0.245479	-0.241183
C172	C	0.197214	-0.171476	-0.193655
C173	C	0.148583	-0.216899	-0.140473
C174	C	0.138850	-0.336332	-0.134817
C175	C	0.177750	-0.410335	-0.182345
H176	H	0.272115	-0.211849	-0.280553
H177	H	0.204420	-0.083064	-0.197842
H178	H	0.119788	-0.162118	-0.105290
H179	H	0.102849	-0.369962	-0.095447
H180	H	0.170544	-0.498747	-0.178157
H181	H	0.236560	-0.628238	-0.404684
H182	H	0.891634	-0.806735	-0.239570
H183	H	0.592320	-0.628205	-0.404621
H184	H	0.891763	-1.204863	-0.239628
H185	H	1.056802	-0.384169	-0.584605
H186	H	1.056846	-0.384042	-0.940366
H187	H	0.899739	-0.627772	-1.068539
H188	H	0.899691	-0.627885	-0.712781
H189	H	0.899665	-0.627928	-0.584536
