data_functionalizedCrystal
_audit_creation_method	'MofGen! by Chris Wilmer'
_symmetry_space_group_name_H-M	'P1'
_symmetry_Int_Tables_number	1
_symmetry_cell_setting	triclinic
loop_
_symmetry_equiv_pos_as_xyz
  x,y,z
_cell_length_a	21.395355
_cell_length_b	21.395362
_cell_length_c	21.395361
_cell_angle_alpha	90.046585
_cell_angle_beta	90.021511
_cell_angle_gamma	90.043940
loop_
_atom_site_label
_atom_site_type_symbol
_atom_site_fract_x
_atom_site_fract_y
_atom_site_fract_z
Zn1	Zn	-0.354573	-0.957859	0.249246
Zn2	Zn	-0.249790	-0.957762	0.354005
Zn3	Zn	-0.249774	-0.853074	0.249275
Zn4	Zn	-0.354494	-0.853044	0.354018
O5	O	-0.302158	-0.905435	0.301636
O6	O	-0.340712	-1.045524	0.263125
O7	O	-0.162110	-0.943847	0.340119
O8	O	-0.263702	-0.867028	0.161593
O9	O	-0.263729	-1.045453	0.340091
O10	O	-0.340697	-0.944013	0.161572
O11	O	-0.162098	-0.866934	0.263174
O12	O	-0.263626	-0.765392	0.263187
O13	O	-0.442183	-0.866976	0.340113
O14	O	-0.340564	-0.765370	0.340141
O15	O	-0.442240	-0.943983	0.263137
O16	O	-0.263653	-0.943817	0.441685
O17	O	-0.340579	-0.866881	0.441695
C18	C	-0.302085	-0.742647	0.301669
C19	C	-0.302069	-0.673006	0.301698
C20	C	-0.465581	-0.905487	0.301623
C21	C	-0.535222	-0.905509	0.301618
C22	C	-0.302123	-0.905352	0.464424
C23	C	-0.302129	-0.905374	0.534065
C24	C	-0.567966	-0.945605	0.261535
C25	C	-0.633402	-0.945604	0.261508
C26	C	-0.666091	-0.905514	0.301575
C27	C	-0.633339	-0.865410	0.341661
C28	C	-0.567904	-0.865407	0.341682
C29	C	-0.769752	-0.900538	0.357992
C30	C	-0.835185	-0.900545	0.357972
C31	C	-0.867911	-0.905518	0.301509
C32	C	-0.835197	-0.910497	0.245065
C33	C	-0.769763	-0.910495	0.245086
C34	C	-0.737043	-0.905512	0.301556
C35	C	-0.971608	-0.945615	0.261393
C36	C	-1.037045	-0.945610	0.261365
C37	C	-1.036980	-0.865419	0.341524
C38	C	-0.971545	-0.865421	0.341547
C39	C	-0.938863	-0.905522	0.301482
C40	C	-0.139370	-0.905419	0.301603
C41	C	-0.069729	-0.905518	0.301432
C42	C	-0.302231	-1.068858	0.301603
C43	C	-0.302262	-1.138499	0.301589
C44	C	-0.342070	-0.640297	0.341822
C45	C	-0.342098	-0.574862	0.341806
C46	C	-0.302113	-0.542138	0.301674
C47	C	-0.262109	-0.574854	0.261543
C48	C	-0.262087	-0.640288	0.261555
C49	C	-0.245708	-0.438413	0.296627
C50	C	-0.245730	-0.372980	0.296619
C51	C	-0.302182	-0.340317	0.301633
C52	C	-0.358616	-0.373095	0.306668
C53	C	-0.358594	-0.438529	0.306681
C54	C	-0.302133	-0.471185	0.301656
C55	C	-0.342218	-0.236656	0.341742
C56	C	-0.342247	-0.171219	0.341723
C57	C	-0.262252	-0.171213	0.261462
C58	C	-0.262229	-0.236648	0.261479
C59	C	-0.302211	-0.269366	0.301622
C60	C	-0.302206	-0.905535	0.138213
C61	C	-0.302227	-0.905578	0.068571
C62	C	-0.262114	-0.945470	0.566752
C63	C	-0.262128	-0.945499	0.632188
C64	C	-0.302150	-0.905421	0.664933
C65	C	-0.342172	-0.865322	0.632238
C66	C	-0.342162	-0.865299	0.566804
C67	C	-0.307041	-0.849006	0.768664
C68	C	-0.307047	-0.849029	0.834097
C69	C	-0.302187	-0.905494	0.866754
C70	C	-0.297307	-0.961939	0.833970
C71	C	-0.297296	-0.961915	0.768536
C72	C	-0.302167	-0.905443	0.735886
C73	C	-0.262186	-0.945625	0.970394
C74	C	-0.262204	-0.945655	1.035830
C75	C	-0.342245	-0.865473	1.035879
C76	C	-0.342230	-0.865448	0.970444
C77	C	-0.302197	-0.905524	0.937705
H78	H	-0.541360	-0.978258	0.228910
C79	C	-0.218159	-0.989712	0.934378
H80	H	-0.194336	-1.013604	0.963220
H81	H	-0.190823	-0.965750	0.908896
H82	H	-0.242162	-1.016991	0.908807
H83	H	-0.229544	-0.978153	0.658807
C84	C	-0.386055	-0.676283	0.385970
H85	H	-0.409887	-0.647428	0.409860
H86	H	-0.362032	-0.701758	0.413239
H87	H	-0.413394	-0.701860	0.362042
C88	C	-0.386201	-0.272651	0.385888
H89	H	-0.380454	-0.316306	0.380154
H90	H	-0.428319	-0.261984	0.376776
H91	H	-0.376957	-0.261874	0.427973
C92	C	-0.218180	-0.989755	1.071790
H93	H	-0.223921	-0.984033	1.115449
H94	H	-0.176072	-0.980591	1.061098
H95	H	-0.227393	-1.031850	1.061014
H96	H	-0.229513	-0.666919	0.228880
H97	H	-0.374824	-0.144589	0.374395
C98	C	-0.312415	-0.786944	0.870153
H99	H	-0.315320	-0.753313	0.841334
H100	H	-0.276505	-0.781459	0.895705
H101	H	-0.348743	-0.787754	0.895659
H102	H	-0.199734	-0.465002	0.292541
C103	C	-0.183655	-0.336927	0.291125
H104	H	-0.191750	-0.293279	0.291857
H105	H	-0.163661	-0.347649	0.252963
H106	H	-0.157257	-0.347605	0.325189
C107	C	-0.386138	-0.538875	0.385907
H108	H	-0.409955	-0.567732	0.409807
H109	H	-0.413478	-0.513422	0.361942
H110	H	-0.362156	-0.513277	0.413179
H111	H	-0.229519	-0.978103	0.540098
H112	H	-0.944885	-0.832774	0.374190
H113	H	-0.374760	-0.832691	0.658904
C114	C	-0.420663	-0.474586	0.312216
H115	H	-0.412561	-0.518233	0.311510
H116	H	-0.447088	-0.463928	0.278171
H117	H	-0.440628	-0.463847	0.350392
C118	C	-0.386176	-0.821188	0.530846
H119	H	-0.410013	-0.797320	0.559717
H120	H	-0.413499	-0.845131	0.505274
H121	H	-0.362164	-0.793887	0.505369
C122	C	-0.420718	-0.337175	0.312182
H123	H	-0.412652	-0.293510	0.311446
H124	H	-0.440679	-0.347880	0.350357
H125	H	-0.447130	-0.347965	0.278135
C126	C	-0.386271	-0.821388	1.071889
H127	H	-0.410103	-0.797506	1.043046
H128	H	-0.362276	-0.794110	1.097462
H129	H	-0.413608	-0.845357	1.097368
C130	C	-0.871164	-0.895066	0.420056
H131	H	-0.842303	-0.892091	0.453685
H132	H	-0.896716	-0.930970	0.425554
H133	H	-0.896662	-0.858744	0.419234
C134	C	-0.669291	-0.821311	0.385736
H135	H	-0.640415	-0.797426	0.409609
H136	H	-0.694832	-0.845262	0.413023
H137	H	-0.694798	-0.794026	0.361761
C138	C	-0.386240	-0.821339	0.934483
H139	H	-0.380506	-0.827068	0.890824
H140	H	-0.377022	-0.779249	0.945261
H141	H	-0.428353	-0.830497	0.945174
C142	C	-1.072927	-0.821317	0.385597
H143	H	-1.044051	-0.797434	0.409471
H144	H	-1.098472	-0.845265	0.412883
H145	H	-1.098431	-0.794030	0.361620
C146	C	-0.312392	-0.786891	0.732748
H147	H	-0.315292	-0.753280	0.761642
H148	H	-0.348708	-0.787679	0.707202
H149	H	-0.276470	-0.781392	0.707247
H150	H	-0.660067	-0.978254	0.228864
C151	C	-0.218126	-0.538863	0.217397
H152	H	-0.194302	-0.567718	0.193499
H153	H	-0.190790	-0.513283	0.241318
H154	H	-0.242158	-0.513392	0.190127
C155	C	-0.733780	-0.915961	0.183003
H156	H	-0.762638	-0.918919	0.149370
H157	H	-0.708277	-0.952276	0.183815
H158	H	-0.708231	-0.880049	0.177517
C159	C	-0.531882	-0.821304	0.385777
H160	H	-0.488230	-0.827043	0.380050
H161	H	-0.542611	-0.830445	0.427870
H162	H	-0.542572	-0.779209	0.376607
C163	C	-0.871187	-0.916375	0.182990
H164	H	-0.914842	-0.915780	0.191069
H165	H	-0.860341	-0.954630	0.163226
H166	H	-0.860590	-0.882452	0.156393
H167	H	-0.743111	-0.896321	0.403959
H168	H	-0.293325	-1.007873	0.741844
H169	H	-1.063704	-0.978260	0.228721
C170	C	-0.935655	-0.989714	0.217315
H171	H	-0.964531	-1.013586	0.193430
H172	H	-0.910147	-1.017001	0.241280
H173	H	-0.910115	-0.965753	0.190029
H174	H	-0.229699	-0.144569	0.228783
H175	H	-0.229652	-0.263280	0.228809
H176	H	-0.293349	-1.007918	0.860558
