data_functionalizedCrystal
_audit_creation_method	'MofGen! by Chris Wilmer'
_symmetry_space_group_name_H-M	'P1'
_symmetry_Int_Tables_number	1
_symmetry_cell_setting	triclinic
loop_
_symmetry_equiv_pos_as_xyz
  x,y,z
_cell_length_a	13.897448
_cell_length_b	13.897449
_cell_length_c	13.897441
_cell_angle_alpha	90.022859
_cell_angle_beta	90.028012
_cell_angle_gamma	90.019402
loop_
_atom_site_label
_atom_site_type_symbol
_atom_site_fract_x
_atom_site_fract_y
_atom_site_fract_z
Zn1	Zn	0.383988	-1.474690	-0.545453
Zn2	Zn	0.883988	-0.974690	-0.045453
Zn3	Zn	0.545310	-1.474579	-0.384162
Zn4	Zn	1.045310	-0.974579	0.115838
Zn5	Zn	0.384030	-1.313379	-0.384166
Zn6	Zn	0.884030	-0.813379	0.115834
Zn7	Zn	0.545243	-1.313356	-0.545408
Zn8	Zn	1.045243	-0.813356	-0.045408
O9	O	0.464643	-1.394001	-0.464797
O10	O	0.964643	-0.894001	0.035203
O11	O	0.405399	-1.609657	-0.524075
O12	O	0.905399	-1.109657	-0.024075
O13	O	0.523962	-1.453159	-0.249181
O14	O	1.023962	-0.953159	0.250819
O15	O	0.249043	-1.334834	-0.405581
O16	O	0.749043	-0.834834	0.094419
O17	O	0.523921	-1.609575	-0.405575
O18	O	1.023921	-1.109575	0.094425
O19	O	0.249012	-1.453348	-0.524078
O20	O	0.749012	-0.953348	-0.024078
O21	O	0.405470	-1.334726	-0.249183
O22	O	0.905470	-0.834726	0.250817
O23	O	0.405405	-1.178394	-0.405538
O24	O	0.905405	-0.678394	0.094462
O25	O	0.523806	-1.334794	-0.680396
O26	O	1.023806	-0.834794	-0.180396
O27	O	0.523847	-1.178377	-0.524002
O28	O	1.023847	-0.678377	-0.024002
O29	O	0.405333	-1.453325	-0.680429
O30	O	0.905333	-0.953325	-0.180429
O31	O	0.680283	-1.453136	-0.405531
O32	O	1.180283	-0.953136	0.094469
O33	O	0.680233	-1.334686	-0.523999
O34	O	1.180233	-0.834686	-0.023999
C35	C	0.464624	-1.143387	-0.464766
C36	C	0.964624	-0.643387	0.035234
C37	C	0.464639	-1.036173	-0.464775
C38	C	0.964639	-0.536173	0.035225
C39	C	0.464637	-0.839878	-0.464794
C40	C	0.964637	-0.339878	0.035206
C41	C	0.464635	-0.949110	-0.464781
C42	C	0.964635	-0.449110	0.035219
C43	C	0.715257	-1.393922	-0.464781
C44	C	1.215257	-0.893922	0.035219
C45	C	0.822471	-1.393977	-0.464806
C46	C	1.322471	-0.893977	0.035194
C47	C	1.018766	-1.394072	-0.464875
C48	C	1.518766	-0.894072	0.035125
C49	C	0.909534	-1.394016	-0.464840
C50	C	1.409534	-0.894016	0.035160
C51	C	1.213050	-1.394098	-0.464846
C52	C	1.713050	-0.894098	0.035154
C53	C	1.105836	-1.394118	-0.464896
C54	C	1.605836	-0.894118	0.035104
C55	C	0.464558	-1.394069	-0.716390
C56	C	0.964558	-0.894069	-0.216390
C57	C	0.464521	-1.394098	-0.823604
C58	C	0.964521	-0.894098	-0.323604
C59	C	0.464656	-0.645594	-0.464820
C60	C	0.964656	-0.145594	0.035180
C61	C	0.464646	-0.752808	-0.464806
C62	C	0.964646	-0.252808	0.035194
C63	C	0.464456	-1.394125	-1.019900
C64	C	0.964456	-0.894125	-0.519900
C65	C	0.464495	-1.394107	-0.910667
C66	C	0.964495	-0.894107	-0.410667
C67	C	0.464658	-1.393988	-0.214183
C68	C	0.964658	-0.893988	0.285817
C69	C	0.464423	-1.394146	-0.106970
C70	C	0.964423	-0.894146	0.393030
