data_functionalizedCrystal
_audit_creation_method	'MofGen! by Chris Wilmer'
_symmetry_space_group_name_H-M	'P1'
_symmetry_Int_Tables_number	1
_symmetry_cell_setting	triclinic
loop_
_symmetry_equiv_pos_as_xyz
  x,y,z
_cell_length_a	17.038272
_cell_length_b	15.186229
_cell_length_c	16.109298
_cell_angle_alpha	90.001652
_cell_angle_beta	87.285872
_cell_angle_gamma	90.002277
loop_
_atom_site_label
_atom_site_type_symbol
_atom_site_fract_x
_atom_site_fract_y
_atom_site_fract_z
O1	O	1.037362	-0.073101	0.180539
O2	O	0.809732	-0.073127	0.177672
O3	O	0.929801	-0.073119	0.058518
O4	O	0.917292	-0.073108	0.299692
O5	O	0.929793	0.073338	0.058516
O6	O	0.809724	0.073330	0.177669
O7	O	1.037354	0.073357	0.180536
Zn8	Zn	0.923538	0.096597	0.179102
Zn9	Zn	0.923548	-0.096367	0.179106
O10	O	0.917284	0.073349	0.299690
C11	C	0.780599	0.000098	0.175063
C12	C	0.693807	0.000088	0.167284
N13	N	0.923536	0.228289	0.179100
C14	C	0.929291	0.000106	0.027506
C15	C	0.927773	0.000095	-0.064897
C16	C	0.643691	0.000092	0.238705
C17	C	0.562141	0.000104	0.231391
C18	C	0.530707	0.000105	0.152655
C19	C	0.580829	0.000104	0.081229
C20	C	0.662378	0.000098	0.088544
C21	C	0.284950	0.000127	0.126813
C22	C	0.203395	0.000130	0.119503
C23	C	0.184712	0.000132	0.269666
C24	C	0.266263	0.000121	0.276974
C25	C	0.316378	0.000124	0.205548
C26	C	0.447350	0.000114	0.145177
C27	C	0.399733	0.000121	0.213026
C28	C	1.066486	0.000130	0.183145
C29	C	1.153279	0.000134	0.190924
N30	N	0.923556	-0.228060	0.179102
C31	C	0.976721	0.454016	0.126359
C32	C	0.976724	0.546205	0.126357
C33	C	0.870365	0.546208	0.231845
C34	C	0.870360	0.454020	0.231842
C35	C	0.923542	0.407926	0.179100
C36	C	0.923550	0.592304	0.179102
C37	C	0.923552	0.692260	0.179100
C38	C	0.923539	0.307964	0.179100
C39	C	0.922824	-0.079721	-0.364316
C40	C	0.924261	-0.079727	-0.277494
C41	C	0.924264	0.079949	-0.277482
C42	C	0.922832	0.079954	-0.364303
C43	C	0.922109	0.000117	-0.407717
C44	C	0.924977	0.000105	-0.234075
C45	C	0.926535	0.000099	-0.139938
C46	C	0.920552	0.000122	-0.501860
C47	C	0.917795	0.000122	0.330702
C48	C	0.919312	0.000127	0.423105
H49	H	0.521339	0.000106	0.289549
C50	C	0.926364	-0.150636	-0.144406
C51	C	0.924979	-0.167486	-0.229782
H52	H	0.926793	-0.204819	-0.114952
H53	H	0.881057	-0.117792	-0.127085
H54	H	0.972190	-0.117882	-0.133281
H55	H	0.879150	-0.200235	-0.240909
H56	H	0.970290	-0.200344	-0.247110
H57	H	0.924851	0.144950	-0.242123
C58	C	0.823128	0.312700	0.278676
C59	C	0.811903	0.403350	0.289821
H60	H	0.787036	0.281420	0.314464
H61	H	0.875296	0.297598	0.291425
H62	H	0.814650	0.297604	0.222579
H63	H	0.820387	0.418447	0.345917
H64	H	0.759722	0.418458	0.277078
C65	C	0.382974	0.000052	0.354860
C66	C	0.300813	0.000080	0.363522
H67	H	0.404302	0.000007	0.408292
H68	H	0.400187	0.051133	0.325242
H69	H	0.400153	-0.051014	0.325180
H70	H	0.283633	0.051150	0.393196
H71	H	0.283592	-0.051006	0.393152
H72	H	0.669277	0.000090	0.302820
C73	C	0.735010	0.574606	0.271006
C74	C	0.811912	0.596881	0.289817
H75	H	0.698925	0.605894	0.306794
H76	H	0.727399	0.513114	0.278558
H77	H	0.726549	0.589718	0.214911
H78	H	0.820375	0.581762	0.345911
H79	H	0.819527	0.658386	0.282273
C80	C	1.083091	0.350292	0.115843
C81	C	1.035136	0.403326	0.068358
H82	H	1.119145	0.318998	0.080025
H83	H	1.051419	0.309669	0.147266
H84	H	1.111242	0.386248	0.152434
H85	H	1.006981	0.367369	0.031771
H86	H	1.066812	0.443954	0.036921
C87	C	0.922947	-0.237553	-0.355604
C88	C	0.922019	-0.167477	-0.412038
H89	H	0.922450	-0.291730	-0.385065
H90	H	0.877948	-0.234223	-0.318616
H91	H	0.969079	-0.234236	-0.324867
H92	H	0.875884	-0.170790	-0.442771
H93	H	0.967023	-0.170808	-0.449041
H94	H	1.020026	0.583729	0.083410
C95	C	0.922970	0.237793	-0.355576
C96	C	0.922043	0.167718	-0.412015
H97	H	0.922480	0.291971	-0.385033
H98	H	0.969091	0.234475	-0.324834
H99	H	0.877959	0.234464	-0.318591
H100	H	0.967057	0.171044	-0.448996
H101	H	0.875917	0.171039	-0.442771
C102	C	0.295214	0.000120	-0.022349
C103	C	0.340029	0.000124	0.048301
H104	H	0.329222	0.000113	-0.070819
H105	H	0.263023	0.051190	-0.022076
H106	H	0.263013	-0.050956	-0.022070
H107	H	0.372226	0.051204	0.048026
H108	H	0.372234	-0.050952	0.048028
H109	H	0.143900	0.000131	0.327816
H110	H	0.555230	0.000118	0.017121
C111	C	0.086680	0.000136	0.041618
C112	C	0.168841	0.000138	0.032951
H113	H	0.065349	0.000135	-0.011813
H114	H	0.069486	0.051203	0.071269
H115	H	0.069484	-0.050943	0.071266
H116	H	0.186037	0.051220	0.003308
H117	H	0.186042	-0.050935	0.003287
C118	C	0.672660	0.000082	-0.060618
C119	C	0.717469	0.000086	0.010036
H120	H	0.706671	0.000071	-0.109086
H121	H	0.640471	0.051155	-0.060350
H122	H	0.640456	-0.050992	-0.060341
H123	H	0.749668	0.051163	0.009762
H124	H	0.749670	-0.050992	0.009768
H125	H	0.425330	0.000125	0.277133
H126	H	0.421748	0.000141	0.081070
