data_functionalizedCrystal
_audit_creation_method	'MofGen! by Chris Wilmer'
_symmetry_space_group_name_H-M	'P1'
_symmetry_Int_Tables_number	1
_symmetry_cell_setting	triclinic
loop_
_symmetry_equiv_pos_as_xyz
  x,y,z
_cell_length_a	16.120530
_cell_length_b	21.295417
_cell_length_c	16.120297
_cell_angle_alpha	87.131911
_cell_angle_beta	89.871860
_cell_angle_gamma	87.125028
loop_
_atom_site_label
_atom_site_type_symbol
_atom_site_fract_x
_atom_site_fract_y
_atom_site_fract_z
Zn1	Zn	1.247396	-0.318916	0.534531
Zn2	Zn	1.254333	-0.419126	0.395463
Zn3	Zn	1.115388	-0.308279	0.388451
Zn4	Zn	1.108290	-0.418546	0.527433
O5	O	1.181352	-0.366216	0.461470
O6	O	1.364682	-0.336903	0.521989
O7	O	1.241776	-0.400212	0.278168
O8	O	1.132967	-0.221604	0.407864
O9	O	1.369779	-0.410527	0.419817
O10	O	1.229953	-0.229419	0.515189
O11	O	1.139693	-0.318774	0.273016
O12	O	0.998081	-0.318211	0.400981
O13	O	1.120869	-0.409539	0.644739
O14	O	0.992866	-0.399224	0.503091
O15	O	1.223070	-0.336341	0.649955
O16	O	1.234893	-0.507134	0.412933
O17	O	1.127595	-0.506708	0.509891
C18	C	0.965301	-0.357501	0.450505
C19	C	0.872872	-0.353789	0.445834
C20	C	1.181248	-0.529762	0.461422
C21	C	1.181278	-0.599732	0.461433
C22	C	0.703644	-0.346996	0.437314
C23	C	0.659897	-0.385485	0.485686
C24	C	0.565733	-0.381706	0.480945
C25	C	0.797817	-0.350775	0.442053
C26	C	1.231746	-0.636611	0.517354
C27	C	1.231775	-0.702355	0.517376
C28	C	1.181344	-0.731218	0.461463
C29	C	1.130866	-0.694331	0.405538
C30	C	1.130833	-0.628588	0.405523
N31	N	1.178754	-0.831581	0.388371
N32	N	1.178790	-0.894035	0.388388
C33	C	1.181440	-0.929298	0.461505
N34	N	1.184068	-0.899749	0.534608
N35	N	1.184036	-0.837290	0.534591
C36	C	1.181374	-0.802505	0.461473
C37	C	1.231941	-1.037465	0.517455
C38	C	1.231963	-1.103210	0.517478
C39	C	1.131059	-1.095184	0.405633
C40	C	1.131032	-1.029440	0.405617
C41	C	1.181478	-1.000585	0.461527
C42	C	1.398246	-0.374966	0.472477
C43	C	1.490674	-0.378695	0.477168
C44	C	1.170404	-0.374062	0.678363
C45	C	1.165738	-0.377405	0.770790
C46	C	1.181478	-0.202034	0.461536
C47	C	1.181531	-0.132069	0.461565
C48	C	1.192305	-0.358358	0.245422
C49	C	1.197132	-0.354844	0.153004
C50	C	1.157190	-0.383494	0.940014
C51	C	1.205678	-0.348757	0.983785
C52	C	1.200922	-0.352145	1.077947
C53	C	1.161945	-0.380107	0.845843
H54	H	0.693165	-0.421275	0.530661
O55	O	1.259575	-0.310284	0.944222
C56	C	1.341399	-0.328141	0.969564
H57	H	1.339986	-0.354628	1.032741
H58	H	1.371793	-0.359916	0.922121
C59	C	1.393365	-0.236413	0.898398
C60	C	1.391630	-0.268941	0.975996
H61	H	1.424352	-0.199897	0.902362
H62	H	1.338239	-0.224384	0.881322
H63	H	1.418692	-0.262899	0.858870
H64	H	1.366295	-0.242458	1.015520
H65	H	1.446753	-0.280964	0.993080
O66	O	0.663834	-0.304358	0.383680
C67	C	0.577316	-0.310027	0.390840
H68	H	0.564171	-0.359156	0.417381
H69	H	0.550459	-0.273376	0.433995
C70	C	0.552989	-0.239025	0.271914
C71	C	0.536844	-0.299367	0.304506
H72	H	0.528023	-0.232446	0.218660
H73	H	0.611278	-0.235203	0.267091
H74	H	0.530607	-0.208489	0.307885
H75	H	0.559235	-0.329902	0.268541
H76	H	0.478558	-0.303194	0.309320
O77	O	1.280766	-0.608683	0.571746
C78	C	1.325334	-0.655337	0.621093
H79	H	1.291150	-0.700954	0.622228
H80	H	1.390050	-0.663741	0.593896
C81	C	1.374760	-0.577298	0.708811
C82	C	1.332770	-0.633324	0.710210
H83	H	1.379351	-0.563719	0.763781
H84	H	1.344736	-0.545866	0.675563
H85	H	1.428685	-0.584309	0.686143
H86	H	1.278843	-0.626310	0.732868
H87	H	1.362785	-0.664755	0.743463
H88	H	1.272864	-0.732388	0.562923
H89	H	1.089803	-0.717835	0.360015
O90	O	1.081786	-0.592854	0.351117
C91	C	1.037259	-0.632422	0.301786
H92	H	1.071486	-0.680534	0.300674
H93	H	0.972549	-0.637999	0.328983
C94	C	0.987763	-0.544028	0.214030
C95	C	1.029804	-0.603119	0.212658
H96	H	0.983161	-0.525952	0.159053
H97	H	1.017759	-0.517369	0.247267
H98	H	0.933842	-0.548684	0.236698
H99	H	1.083728	-0.598462	0.190001
H100	H	0.999817	-0.629776	0.179416
H101	H	1.273014	-1.013970	0.562983
H102	H	1.273060	-1.133237	0.563019
H103	H	1.089940	-0.999411	0.360078
O104	O	1.082018	-1.123283	0.351434
C105	C	1.025888	-1.160862	0.396020
H106	H	1.051992	-1.174132	0.460547
H107	H	0.963789	-1.133406	0.401978
C108	C	0.981136	-1.204777	0.270255
C109	C	1.013201	-1.221079	0.349506
H110	H	0.973306	-1.241920	0.241563
H111	H	1.018950	-1.179458	0.240216
H112	H	0.929390	-1.181895	0.275231
H113	H	1.064950	-1.243953	0.344529
H114	H	0.975395	-1.246404	0.379544
O115	O	1.103528	-0.422082	0.979710
C116	C	1.148361	-0.466405	1.032368
H117	H	1.215148	-0.472005	1.009455
H118	H	1.147987	-0.449375	1.098305
C119	C	1.025592	-0.523380	1.059912
C120	C	1.107620	-0.530263	1.031765
H121	H	1.000460	-0.562771	1.059544
H122	H	0.995386	-0.493518	1.024438
H123	H	1.025292	-0.509187	1.114857
H124	H	1.107919	-0.544448	0.976818
H125	H	1.137825	-0.560129	1.067230
