data_functionalizedCrystal
_audit_creation_method	'MofGen! by Chris Wilmer'
_symmetry_space_group_name_H-M	'P1'
_symmetry_Int_Tables_number	1
_symmetry_cell_setting	triclinic
loop_
_symmetry_equiv_pos_as_xyz
  x,y,z
_cell_length_a	19.805407
_cell_length_b	25.639239
_cell_length_c	19.805399
_cell_angle_alpha	89.971274
_cell_angle_beta	89.980427
_cell_angle_gamma	90.038686
loop_
_atom_site_label
_atom_site_type_symbol
_atom_site_fract_x
_atom_site_fract_y
_atom_site_fract_z
Zn1	Zn	1.034678	-0.208163	-0.382714
Zn2	Zn	1.534678	0.291837	0.117286
Zn3	Zn	1.034569	-0.295597	-0.269524
Zn4	Zn	1.534569	0.204403	0.230476
Zn5	Zn	0.921493	-0.208177	-0.269539
Zn6	Zn	1.421493	0.291823	0.230461
Zn7	Zn	0.921432	-0.295569	-0.382670
Zn8	Zn	1.421432	0.204431	0.117330
O9	O	0.978043	-0.251877	-0.326112
O10	O	1.478043	0.248123	0.173888
O11	O	1.129380	-0.219767	-0.367711
O12	O	1.629380	0.280233	0.132289
O13	O	1.019548	-0.284018	-0.174809
O14	O	1.519548	0.215982	0.325191
O15	O	0.936578	-0.135010	-0.284576
O16	O	1.436578	0.364990	0.215424
O17	O	1.129300	-0.284004	-0.284551
O18	O	1.629300	0.215996	0.215449
O19	O	1.019735	-0.135000	-0.367726
O20	O	1.519735	0.365000	0.132274
O21	O	0.936472	-0.219791	-0.174820
O22	O	1.436472	0.280209	0.325180
O23	O	0.826768	-0.219764	-0.284534
O24	O	1.326768	0.280236	0.215466
O25	O	0.936475	-0.283957	-0.477393
O26	O	1.436475	0.216043	0.022607
O27	O	0.826723	-0.283971	-0.367651
O28	O	1.326723	0.216029	0.132349
O29	O	1.019676	-0.219740	-0.477425
O30	O	1.519676	0.280260	0.022575
O31	O	1.019489	-0.368758	-0.284508
O32	O	1.519489	0.131242	0.215492
O33	O	0.936368	-0.368738	-0.367637
O34	O	1.436368	0.131262	0.132363
C35	C	0.802187	-0.251867	-0.326090
C36	C	1.302187	0.248133	0.173910
C37	C	0.726955	-0.251875	-0.326097
C38	C	1.226955	0.248125	0.173903
C39	C	0.691605	-0.285357	-0.369306
C40	C	1.191605	0.214643	0.130694
C41	C	0.620917	-0.285358	-0.369315
C42	C	1.120917	0.214642	0.130685
C43	C	0.585579	-0.251879	-0.326112
C44	C	1.085579	0.248121	0.173888
C45	C	0.620934	-0.218393	-0.282901
C46	C	1.120934	0.281607	0.217099
C47	C	0.691621	-0.218390	-0.282895
C48	C	1.191621	0.281610	0.217105
C49	C	0.335860	-0.218404	-0.282923
C50	C	0.835860	0.281596	0.217077
C51	C	0.265168	-0.218411	-0.282931
C52	C	0.765168	0.281589	0.217069
C53	C	0.265156	-0.285373	-0.369343
C54	C	0.765156	0.214627	0.130657
C55	C	0.335843	-0.285370	-0.369338
C56	C	0.835843	0.214630	0.130662
C57	C	0.371192	-0.251882	-0.326129
C58	C	0.871192	0.248118	0.173871
C59	C	0.447840	-0.251881	-0.326121
C60	C	0.947840	0.248119	0.173879
C61	C	0.508932	-0.251883	-0.326117
C62	C	1.008932	0.248117	0.173883
C63	C	0.977929	-0.387719	-0.326081
C64	C	1.477929	0.112281	0.173919
C65	C	0.977942	-0.445833	-0.326090
C66	C	1.477942	0.054167	0.173910
C67	C	1.021437	-0.806194	-0.282901
C68	C	1.521437	-0.306194	0.217099
C69	C	1.021463	-0.860799	-0.282910
C70	C	1.521463	-0.360799	0.217090
O71	O	1.058326	-0.889034	-0.246154
O72	O	1.558326	-0.389034	0.253846
N73	N	0.978162	-0.888116	-0.326157
N74	N	1.478162	-0.388116	0.173843
C75	C	0.934836	-0.860825	-0.369402
C76	C	1.434836	-0.360825	0.130598
O77	O	0.898008	-0.889075	-0.406189
O78	O	1.398008	-0.389075	0.093811
C79	C	0.934814	-0.806222	-0.369396
C80	C	1.434814	-0.306222	0.130604
C81	C	0.978113	-0.778908	-0.326141
C82	C	1.478113	-0.278908	0.173859
C83	C	1.064733	-0.778880	-0.239650
C84	C	1.564733	-0.278880	0.260350
C85	C	1.064706	-0.724279	-0.239640
C86	C	1.564706	-0.224279	0.260360
C87	C	1.021382	-0.696993	-0.282881
C88	C	1.521382	-0.196993	0.217119
C89	C	0.978086	-0.724307	-0.326132
C90	C	1.478086	-0.224307	0.173868
C91	C	0.891492	-0.778933	-0.412645
C92	C	1.391492	-0.278933	0.087355
C93	C	0.891474	-0.724326	-0.412635
C94	C	1.391474	-0.224326	0.087365
C95	C	0.934773	-0.697012	-0.369381
C96	C	1.434773	-0.197012	0.130619
C97	C	0.934735	-0.642421	-0.369363
C98	C	1.434735	-0.142421	0.130637
N99	N	0.978036	-0.615104	-0.326116
N100	N	1.478036	-0.115104	0.173884
C101	C	1.021360	-0.642390	-0.282875
C102	C	1.521360	-0.142390	0.217125
C103	C	0.934887	-0.975496	-0.369413
C104	C	1.434887	-0.475496	0.130587
C105	C	0.934906	-1.030098	-0.369416
C106	C	1.434906	-0.530098	0.130584
C107	C	1.021533	-1.030068	-0.282924
C108	C	1.521533	-0.530068	0.217076
C109	C	1.021511	-0.975464	-0.282918
C110	C	1.521511	-0.475464	0.217082
C111	C	0.978188	-0.948179	-0.326166
C112	C	1.478188	-0.448179	0.173834
C113	C	1.021299	-0.527725	-0.282857
C114	C	1.521299	-0.027725	0.217143
C115	C	1.021266	-0.473119	-0.282849
C116	C	1.521266	0.026881	0.217151
C117	C	0.934641	-0.473155	-0.369343
C118	C	1.434641	0.026845	0.130657
C119	C	0.934671	-0.527756	-0.369349
C120	C	1.434671	-0.027756	0.130651
C121	C	0.978006	-0.555039	-0.326104
C122	C	1.478006	-0.055039	0.173896
O123	O	0.897893	-0.614151	-0.406101
O124	O	1.397893	-0.114151	0.093899
O125	O	1.058188	-0.614134	-0.246101
O126	O	1.558188	-0.114134	0.253899
C127	C	1.154585	-0.251887	-0.326134
C128	C	1.654585	0.248113	0.173866
C129	C	1.229817	-0.251891	-0.326144
C130	C	1.729817	0.248109	0.173856
C131	C	0.978081	-0.251844	-0.502655
C132	C	1.478081	0.248156	-0.002655
C133	C	0.978097	-0.251830	-0.577887
C134	C	1.478097	0.248170	-0.077887
C135	C	0.978175	-0.115504	-0.326158
C136	C	1.478175	0.384496	0.173842
C137	C	0.978232	-0.057389	-0.326177
C138	C	1.478232	0.442611	0.173823
C139	C	1.021421	-0.218390	-0.613249
C140	C	1.521421	0.281610	-0.113249
C141	C	1.021428	-0.218375	-0.683937
C142	C	1.521428	0.281625	-0.183937
C143	C	0.978114	-0.251802	-0.719262
C144	C	1.478114	0.248198	-0.219262
C145	C	0.934785	-0.285243	-0.683895
C146	C	1.434785	0.214757	-0.183895
C147	C	0.934775	-0.285255	-0.613208
C148	C	1.434775	0.214745	-0.113208
C149	C	0.934823	-0.285194	-0.968969
C150	C	1.434823	0.214806	-0.468969
C151	C	0.934838	-0.285181	-1.039661
C152	C	1.434838	0.214819	-0.539661
C153	C	1.021476	-0.218314	-1.039698
C154	C	1.521476	0.281686	-0.539698
C155	C	1.021466	-0.218326	-0.969011
C156	C	1.521466	0.281674	-0.469011
C157	C	0.978135	-0.251765	-0.933650
C158	C	1.478135	0.248235	-0.433650
C159	C	0.978127	-0.251780	-0.857001
C160	C	1.478127	0.248220	-0.357001
C161	C	0.978125	-0.251790	-0.795909
C162	C	1.478125	0.248210	-0.295909
C163	C	0.978044	-0.251872	-0.150256
C164	C	1.478044	0.248128	0.349744
C165	C	0.978159	-0.251738	-0.075024
C166	C	1.478159	0.248262	0.424976
H167	H	1.056587	-0.549933	-0.247644
H168	H	1.556587	-0.049933	0.252356
H169	H	1.056694	-0.191171	-0.584492
H170	H	1.556694	0.308829	-0.084492
H171	H	0.720372	-0.312622	-0.404485
H172	H	1.220372	0.187378	0.095515
O173	O	0.586500	-0.317910	-0.411190
O174	O	1.086500	0.182090	0.088810
C175	C	0.506665	-0.388531	-0.420122
C176	C	1.006665	0.111469	0.079878
C177	C	0.545589	-0.351690	-0.372622
C178	C	1.045589	0.148310	0.127378
H179	H	0.473590	-0.415859	-0.388959
H180	H	0.973590	0.084141	0.111041
H181	H	0.473560	-0.364594	-0.455564
H182	H	0.973560	0.135406	0.044436
H183	H	0.544073	-0.412440	-0.451014
H184	H	1.044073	0.087560	0.048986
H185	H	0.508230	-0.327774	-0.341687
H186	H	1.008230	0.172226	0.158313
H187	H	0.578704	-0.375657	-0.337225
H188	H	1.078704	0.124343	0.162775
O189	O	0.230713	-0.317851	-0.411301
O190	O	0.730713	0.182149	0.088699
C191	C	0.121811	-0.347559	-0.449586
C192	C	0.621811	0.152441	0.050414
C193	C	0.160731	-0.310743	-0.402050
C194	C	0.660731	0.189257	0.097950
H195	H	0.065224	-0.341832	-0.442112
H196	H	0.565224	0.158168	0.057888
H197	H	0.135693	-0.338433	-0.504198
H198	H	0.635693	0.161567	-0.004198
H199	H	0.135712	-0.389699	-0.437603
H200	H	0.635712	0.110301	0.062397
H201	H	0.146851	-0.268590	-0.413971
H202	H	0.646851	0.231410	0.086029
H203	H	0.146846	-0.319913	-0.347451
H204	H	0.646846	0.180087	0.152549
H205	H	1.056812	-1.052294	-0.247717
H206	H	1.556812	-0.552294	0.252283
O207	O	0.892789	-0.317766	-0.578777
O208	O	1.392789	0.182234	-0.078777
C209	C	0.883614	-0.388385	-0.498965
C210	C	1.383614	0.111615	0.001035
C211	C	0.931240	-0.351594	-0.537906
C212	C	1.431240	0.148406	-0.037906
H213	H	0.914683	-0.415752	-0.465923
H214	H	1.414683	0.084248	0.034077
H215	H	0.848254	-0.364412	-0.465827
H216	H	1.348254	0.135588	0.034173
H217	H	0.852641	-0.412254	-0.536362
H218	H	1.352641	0.087746	-0.036362
H219	H	0.962257	-0.327717	-0.500558
H220	H	1.462257	0.172283	-0.000558
H221	H	0.966556	-0.375597	-0.571054
H222	H	1.466556	0.124403	-0.071054
H223	H	0.899515	-0.312458	-0.712663
H224	H	1.399515	0.187542	-0.212663
O225	O	0.849485	-0.697797	-0.454718
O226	O	1.349485	-0.197797	0.045282
C227	C	0.840297	-0.636090	-0.546058
C228	C	1.340297	-0.136090	-0.046058
C229	C	0.887926	-0.666109	-0.498455
C230	C	1.387926	-0.166109	0.001545
H231	H	0.871357	-0.610454	-0.581421
H232	H	1.371357	-0.110454	-0.081421
H233	H	0.809369	-0.664970	-0.577021
H234	H	1.309369	-0.164970	-0.077021
H235	H	0.804896	-0.610593	-0.514934
H236	H	1.304896	-0.110593	-0.014934
H237	H	0.923368	-0.691607	-0.529526
H238	H	1.423368	-0.191607	-0.029526
H239	H	0.918807	-0.637200	-0.467489
H240	H	1.418807	-0.137200	0.032511
H241	H	1.100016	-0.801091	-0.204438
H242	H	1.600016	-0.301091	0.295562
H243	H	0.364612	-0.312634	-0.404516
H244	H	0.864612	0.187366	0.095484
H245	H	0.899550	-0.312430	-0.940187
H246	H	1.399550	0.187570	-0.440187
O247	O	1.063579	-0.185877	-0.718183
O248	O	1.563579	0.314123	-0.218183
C249	C	1.149492	-0.119536	-0.710760
C250	C	1.649492	0.380464	-0.210760
C251	C	1.101800	-0.156324	-0.671893
C252	C	1.601800	0.343676	-0.171893
H253	H	1.180396	-0.095625	-0.673352
H254	H	1.680396	0.404375	-0.173352
H255	H	1.184908	-0.143514	-0.743835
H256	H	1.684908	0.356486	-0.243835
H257	H	1.118441	-0.092209	-0.743874
H258	H	1.618441	0.407791	-0.243874
H259	H	1.132797	-0.183658	-0.638742
H260	H	1.632797	0.316342	-0.138742
H261	H	1.066383	-0.132314	-0.638861
H262	H	1.566383	0.367686	-0.138861
O263	O	1.063466	-0.185770	-1.074078
O264	O	1.563466	0.314230	-0.574078
C265	C	1.072658	-0.115183	-1.153937
C266	C	1.572658	0.384817	-0.653937
C267	C	1.025027	-0.151995	-1.115034
C268	C	1.525027	0.348005	-0.615034
H269	H	1.041599	-0.087874	-1.187070
H270	H	1.541599	0.412126	-0.687070
H271	H	1.103603	-0.091258	-1.116576
H272	H	1.603603	0.408742	-0.616576
H273	H	1.108043	-0.139194	-1.187001
H274	H	1.608043	0.360806	-0.687001
H275	H	0.989600	-0.128025	-1.081969
H276	H	1.489600	0.371975	-0.581969
H277	H	0.994129	-0.175922	-1.152432
H278	H	1.494129	0.324078	-0.652432
O279	O	0.230945	-0.185835	-0.240942
O280	O	0.730945	0.314165	0.259058
C281	C	0.238412	-0.119431	-0.155207
C282	C	0.738412	0.380569	0.344793
C283	C	0.277254	-0.156284	-0.202733
C284	C	0.777254	0.343716	0.297267
H285	H	0.275836	-0.095537	-0.124292
H286	H	0.775836	0.404463	0.375708
H287	H	0.205370	-0.092095	-0.186321
H288	H	0.705370	0.407905	0.313679
H289	H	0.205267	-0.143409	-0.119789
H290	H	0.705267	0.356591	0.380211
H291	H	0.310436	-0.132348	-0.238160
H292	H	0.810436	0.367652	0.261840
H293	H	0.310254	-0.183622	-0.171576
H294	H	0.810254	0.316378	0.328424
O295	O	0.370263	-0.185950	-0.240913
O296	O	0.870263	0.314050	0.259087
C297	C	0.449996	-0.178816	-0.149505
C298	C	0.949996	0.321184	0.350495
C299	C	0.411088	-0.215630	-0.197053
C300	C	0.911088	0.284370	0.302947
H301	H	0.483002	-0.202797	-0.114023
H302	H	0.983002	0.297203	0.385977
H303	H	0.483169	-0.151511	-0.180600
H304	H	0.983169	0.348489	0.319400
H305	H	0.412579	-0.154881	-0.118660
H306	H	0.912579	0.345119	0.381340
H307	H	0.448457	-0.239598	-0.227908
H308	H	0.948457	0.260402	0.272092
H309	H	0.377905	-0.242900	-0.165919
H310	H	0.877905	0.257100	0.334081
O311	O	1.063562	-0.185805	-0.934801
O312	O	1.563562	0.314195	-0.434801
C313	C	1.149524	-0.119498	-0.942300
C314	C	1.649524	0.380502	-0.442300
C315	C	1.101876	-0.156294	-0.981124
C316	C	1.601876	0.343706	-0.481124
H317	H	1.180523	-0.095636	-0.979735
H318	H	1.680523	0.404364	-0.479735
H319	H	1.118502	-0.092129	-0.909229
H320	H	1.618502	0.407871	-0.409229
H321	H	1.184859	-0.143518	-0.909185
H322	H	1.684859	0.356482	-0.409185
H323	H	1.066532	-0.132316	-1.014276
H324	H	1.566532	0.367684	-0.514276
H325	H	1.132940	-0.183665	-1.014153
H326	H	1.632940	0.316335	-0.514153
H327	H	0.592156	-0.191131	-0.247727
H328	H	1.092156	0.308869	0.252273
H329	H	0.899563	-0.312402	-1.068421
H330	H	1.399563	0.187598	-0.568421
O331	O	0.726038	-0.185939	-0.240887
O332	O	1.226038	0.314061	0.259113
C333	C	0.805785	-0.178811	-0.149490
C334	C	1.305785	0.321189	0.350510
C335	C	0.766863	-0.215622	-0.197031
C336	C	1.266863	0.284378	0.302969
H337	H	0.838791	-0.202796	-0.114011
H338	H	1.338791	0.297204	0.385989
H339	H	0.838959	-0.151512	-0.180591
H340	H	1.338959	0.348488	0.319409
H341	H	0.768377	-0.154871	-0.118641
H342	H	1.268377	0.345129	0.381359
H343	H	0.804223	-0.239596	-0.227890
H344	H	1.304223	0.260404	0.272110
H345	H	0.733679	-0.242887	-0.165891
H346	H	1.233679	0.257113	0.334109
O347	O	1.063394	-0.446668	-0.240809
O348	O	1.563394	0.053332	0.259191
C349	C	1.149289	-0.452410	-0.154993
C350	C	1.649289	0.047590	0.345007
C351	C	1.101627	-0.482429	-0.202577
C352	C	1.601627	0.017571	0.297423
H353	H	1.180203	-0.481310	-0.124059
H354	H	1.680203	0.018690	0.375941
H355	H	1.184696	-0.426816	-0.186062
H356	H	1.684696	0.073184	0.313938
H357	H	1.118213	-0.426875	-0.119595
H358	H	1.618213	0.073125	0.380405
H359	H	1.132648	-0.507992	-0.237984
H360	H	1.632648	-0.007992	0.262016
H361	H	1.066218	-0.507990	-0.171465
H362	H	1.566218	-0.007990	0.328535
H363	H	1.099966	-0.702043	-0.204421
H364	H	1.599966	-0.202043	0.295579
O365	O	0.892760	-0.948936	-0.411326
O366	O	1.392760	-0.448936	0.088674
C367	C	0.801308	-0.887388	-0.420339
C368	C	1.301308	-0.387388	0.079661
C369	C	0.848982	-0.917421	-0.372797
C370	C	1.348982	-0.417421	0.127203
H371	H	0.765892	-0.861909	-0.389207
H372	H	1.265892	-0.361909	0.110793
H373	H	0.832307	-0.861748	-0.455752
H374	H	1.332307	-0.361748	0.044248
H375	H	0.770397	-0.916306	-0.451261
H376	H	1.270397	-0.416306	0.048739
H377	H	0.879903	-0.888541	-0.341832
H378	H	1.379903	-0.388541	0.158168
H379	H	0.817944	-0.943069	-0.337430
H380	H	1.317944	-0.443069	0.162570
O381	O	1.063638	-0.949014	-0.240882
O382	O	1.563638	-0.449014	0.259118
C383	C	1.149529	-0.954762	-0.155061
C384	C	1.649529	-0.454762	0.344939
C385	C	1.101864	-0.984778	-0.202646
C386	C	1.601864	-0.484778	0.297354
H387	H	1.180437	-0.983664	-0.124125
H388	H	1.680437	-0.483664	0.375875
H389	H	1.184941	-0.929172	-0.186131
H390	H	1.684941	-0.429172	0.313869
H391	H	1.118455	-0.929223	-0.119666
H392	H	1.618455	-0.429223	0.380334
H393	H	1.132883	-1.010345	-0.238051
H394	H	1.632883	-0.510345	0.261949
H395	H	1.066449	-1.010334	-0.171534
H396	H	1.566449	-0.510334	0.328466
O397	O	0.892587	-0.554211	-0.411427
O398	O	1.392587	-0.054211	0.088573
C399	C	0.806640	-0.548472	-0.497192
C400	C	1.306640	-0.048472	0.002808
C401	C	0.854269	-0.518452	-0.449577
C402	C	1.354269	-0.018452	0.050423
H403	H	0.775637	-0.519574	-0.528038
H404	H	1.275637	-0.019574	-0.028038
H405	H	0.837678	-0.573974	-0.532664
H406	H	1.337678	-0.073974	-0.032664
H407	H	0.771309	-0.574099	-0.466083
H408	H	1.271309	-0.074099	0.033917
H409	H	0.889610	-0.492797	-0.480631
H410	H	1.389610	0.007203	0.019369
H411	H	0.823189	-0.492983	-0.414102
H412	H	1.323189	0.007017	0.085898
O413	O	0.892818	-1.056547	-0.411492
O414	O	1.392818	-0.556547	0.088508
C415	C	0.806865	-1.050800	-0.497250
C416	C	1.306865	-0.550800	0.002750
C417	C	0.854504	-1.020784	-0.449640
C418	C	1.354504	-0.520784	0.050360
H419	H	0.775865	-1.021898	-0.528095
H420	H	1.275865	-0.521898	-0.028095
H421	H	0.837895	-1.076306	-0.532724
H422	H	1.337895	-0.576306	-0.032724
H423	H	0.771531	-1.076422	-0.466138
H424	H	1.271531	-0.576422	0.033862
H425	H	0.889847	-0.995134	-0.480697
H426	H	1.389847	-0.495134	0.019303
H427	H	0.823431	-0.995311	-0.414164
H428	H	1.323431	-0.495311	0.085836
H429	H	0.856230	-0.801163	-0.447864
H430	H	1.356230	-0.301163	0.052136
H431	H	0.899365	-0.450930	-0.404548
H432	H	1.399365	0.049070	0.095452
