data_functionalizedCrystal
_audit_creation_method	'MofGen! by Chris Wilmer'
_symmetry_space_group_name_H-M	'P1'
_symmetry_Int_Tables_number	1
_symmetry_cell_setting	triclinic
loop_
_symmetry_equiv_pos_as_xyz
  x,y,z
_cell_length_a	14.044220
_cell_length_b	19.188930
_cell_length_c	12.503572
_cell_angle_alpha	93.506241
_cell_angle_beta	86.164750
_cell_angle_gamma	88.166830
loop_
_atom_site_label
_atom_site_type_symbol
_atom_site_fract_x
_atom_site_fract_y
_atom_site_fract_z
O1	O	1.262485	0.164589	-0.089229
O2	O	0.986542	0.158515	-0.089255
O3	O	1.132475	0.060411	-0.089220
O4	O	1.116552	0.262693	-0.089264
O5	O	1.121500	0.067803	0.089419
O6	O	0.975567	0.165907	0.089384
O7	O	1.251510	0.171980	0.089411
Cu8	Cu	1.112536	0.169618	0.105709
Cu9	Cu	1.125516	0.160877	-0.105553
O10	O	1.105577	0.270084	0.089376
C11	C	0.945752	0.159553	0.000061
C12	C	0.840559	0.151624	0.000052
C13	C	1.126472	0.038063	0.000102
C14	C	1.124923	-0.039541	0.000112
C15	C	0.647956	0.137129	0.000077
C16	C	0.590090	0.193363	0.000069
C17	C	0.482920	0.185298	0.000083
C18	C	0.755137	0.145193	0.000063
C19	C	1.210552	-0.078939	0.000125
C20	C	1.209099	-0.151857	0.000108
C21	C	1.122010	-0.185374	0.000098
C22	C	1.036370	-0.145968	0.000079
C23	C	1.037826	-0.073051	0.000086
N24	N	1.051706	-0.295160	0.060886
N25	N	1.050328	-0.364427	0.060882
C26	C	1.117616	-0.405067	0.000076
N27	N	1.186348	-0.373823	-0.060712
N28	N	1.187729	-0.304548	-0.060704
C29	C	1.120421	-0.264440	0.000091
C30	C	1.201676	-0.523532	0.000069
C31	C	1.200219	-0.596451	0.000045
C32	C	1.027487	-0.590560	0.000028
C33	C	1.028947	-0.517642	0.000041
C34	C	1.116043	-0.484132	0.000067
C35	C	1.292301	0.170943	0.000092
C36	C	1.397493	0.178872	0.000094
C37	C	1.111580	0.292433	0.000051
C38	C	1.113129	0.370037	0.000034
N39	N	1.103414	0.175766	0.254299
N40	N	1.134645	0.154724	-0.254143
C41	C	1.089995	0.184816	0.473411
C42	C	1.148061	0.145676	0.526752
C43	C	1.140595	0.150712	0.648673
C44	C	1.097461	0.179782	0.351478
H45	H	0.617011	0.082933	0.000094
O46	O	0.951692	-0.178414	0.000023
C47	C	0.780519	-0.164874	0.000062
C48	C	0.876354	-0.128042	0.000107
H49	H	0.719582	-0.124164	0.000152
H50	H	0.780051	-0.201929	-0.074719
H51	H	0.770976	-0.195801	0.074802
H52	H	0.885958	-0.097078	-0.074582
H53	H	0.876778	-0.091028	0.074937
O54	O	1.213863	0.101111	0.471837
C55	C	1.281085	0.055152	0.298482
C56	C	1.206653	0.105749	0.360543
H57	H	1.275269	0.058873	0.208490
H58	H	1.355790	0.069619	0.320273
H59	H	1.267255	-0.000538	0.320749
H60	H	1.220394	0.161455	0.338310
H61	H	1.131973	0.091222	0.338747
H62	H	1.281473	-0.051660	0.000142
H63	H	1.034680	0.222105	0.519305
O64	O	1.292367	-0.190031	0.000171
C65	C	1.463847	-0.188187	0.000145
C66	C	1.369617	-0.144873	0.000097
H67	H	1.526330	-0.151696	0.000062
H68	H	1.462945	-0.219368	0.074922
H69	H	1.472026	-0.225574	-0.074598
H70	H	1.361378	-0.107448	0.074790
H71	H	1.370561	-0.113739	-0.074729
H72	H	0.968095	-0.040973	0.000075
O73	O	0.627054	0.258005	-0.000164
C74	C	0.731105	0.335435	-0.092762
C75	C	0.689297	0.262211	-0.092629
H76	H	0.781452	0.338855	-0.167500
H77	H	0.670665	0.376528	-0.092845
H78	H	0.772201	0.345116	-0.017983
H79	H	0.648211	0.252463	-0.167395
H80	H	0.749778	0.221158	-0.092489
O81	O	1.286364	-0.491088	0.000028
C82	C	1.457530	-0.504624	0.000086
C83	C	1.361691	-0.541453	0.000114
H84	H	1.518456	-0.545326	0.000179
H85	H	1.467182	-0.473739	-0.074688
H86	H	1.457894	-0.467530	0.074833
H87	H	1.361259	-0.578580	-0.074582
H88	H	1.352077	-0.572293	0.074938
H89	H	1.269952	-0.628529	0.000050
O90	O	0.942968	-0.623218	0.000061
C91	C	0.864176	-0.732943	-0.000039
C92	C	0.959960	-0.696041	-0.000043
H93	H	0.877882	-0.791826	-0.000145
H94	H	0.817261	-0.714124	0.074734
H95	H	0.826472	-0.720192	-0.074786
H96	H	0.997744	-0.708775	0.074654
H97	H	1.006805	-0.714863	-0.074865
H98	H	0.959218	-0.485563	0.000036
