data_functionalizedCrystal
_audit_creation_method	'MofGen! by Chris Wilmer'
_symmetry_space_group_name_H-M	'P1'
_symmetry_Int_Tables_number	1
_symmetry_cell_setting	triclinic
loop_
_symmetry_equiv_pos_as_xyz
  x,y,z
_cell_length_a	21.295418
_cell_length_b	21.295417
_cell_length_c	21.295411
_cell_angle_alpha	90.021644
_cell_angle_beta	90.043738
_cell_angle_gamma	90.046319
loop_
_atom_site_label
_atom_site_type_symbol
_atom_site_fract_x
_atom_site_fract_y
_atom_site_fract_z
Zn1	Zn	0.962356	-0.250415	0.356234
Zn2	Zn	1.212356	-0.000415	0.606234
Zn3	Zn	1.462356	0.249585	0.856234
Zn4	Zn	1.712356	0.499585	1.106234
Zn5	Zn	0.962258	-0.355667	0.250959
Zn6	Zn	1.212258	-0.105667	0.500959
Zn7	Zn	1.462258	0.144333	0.750959
Zn8	Zn	1.712258	0.394333	1.000959
Zn9	Zn	0.857079	-0.250445	0.250943
Zn10	Zn	1.107079	-0.000445	0.500943
Zn11	Zn	1.357079	0.249555	0.750943
Zn12	Zn	1.607079	0.499555	1.000943
Zn13	Zn	0.857048	-0.355680	0.356155
Zn14	Zn	1.107048	-0.105680	0.606155
Zn15	Zn	1.357048	0.144320	0.856155
Zn16	Zn	1.607048	0.394320	1.106155
O17	O	0.909685	-0.303052	0.303573
O18	O	1.159685	-0.053052	0.553573
O19	O	1.409685	0.196948	0.803573
O20	O	1.659685	0.446948	1.053573
O21	O	1.050432	-0.264360	0.342308
O22	O	1.300432	-0.014360	0.592308
O23	O	1.550432	0.235640	0.842308
O24	O	1.800432	0.485640	1.092308
O25	O	0.948278	-0.341716	0.162867
O26	O	1.198278	-0.091716	0.412867
O27	O	1.448278	0.158284	0.662867
O28	O	1.698278	0.408284	0.912867
O29	O	0.871098	-0.162351	0.264937
O30	O	1.121098	0.087649	0.514937
O31	O	1.371098	0.337649	0.764937
O32	O	1.621098	0.587649	1.014937
O33	O	1.050361	-0.341688	0.264963
O34	O	1.300361	-0.091688	0.514963
O35	O	1.550361	0.158312	0.764963
O36	O	1.800361	0.408312	1.014963
O37	O	0.948444	-0.162330	0.342293
O38	O	1.198444	0.087670	0.592293
O39	O	1.448444	0.337670	0.842293
O40	O	1.698444	0.587670	1.092293
O41	O	0.871003	-0.264410	0.162856
O42	O	1.121003	-0.014410	0.412856
O43	O	1.371003	0.235590	0.662856
O44	O	1.621003	0.485590	0.912856
O45	O	0.768985	-0.264422	0.264861
O46	O	1.018985	-0.014422	0.514861
O47	O	1.268985	0.235578	0.764861
O48	O	1.518985	0.485578	1.014861
O49	O	0.871046	-0.341709	0.444255
O50	O	1.121046	-0.091709	0.694255
O51	O	1.371046	0.158291	0.944255
O52	O	1.621046	0.408291	1.194255
O53	O	0.768963	-0.341738	0.342160
O54	O	1.018963	-0.091738	0.592160
O55	O	1.268963	0.158262	0.842160
O56	O	1.518963	0.408262	1.092160
O57	O	0.948415	-0.264372	0.444313
O58	O	1.198415	-0.014372	0.694313
O59	O	1.448415	0.235628	0.944313
O60	O	1.698415	0.485628	1.194313
O61	O	0.948248	-0.443758	0.264887
O62	O	1.198248	-0.193758	0.514887
O63	O	1.448248	0.056242	0.764887
O64	O	1.698248	0.306242	1.014887
O65	O	0.870951	-0.443767	0.342175
O66	O	1.120951	-0.193767	0.592175
O67	O	1.370951	0.056233	0.842175
O68	O	1.620951	0.306233	1.092175
C69	C	0.746134	-0.303085	0.303500
C70	C	0.996134	-0.053085	0.553500
C71	C	1.246134	0.196915	0.803500
C72	C	1.496134	0.446915	1.053500
C73	C	0.676166	-0.303114	0.303484
C74	C	0.926166	-0.053114	0.553484
C75	C	1.176166	0.196886	0.803484
C76	C	1.426166	0.446886	1.053484
C77	C	0.643304	-0.343426	0.343674
C78	C	0.893304	-0.093426	0.593674
C79	C	1.143304	0.156574	0.843674
C80	C	1.393304	0.406574	1.093674
C81	C	0.577561	-0.343410	0.343702
C82	C	0.827561	-0.093410	0.593702
C83	C	1.077561	0.156590	0.843702
C84	C	1.327561	0.406590	1.093702
C85	C	0.544683	-0.303090	0.303530
C86	C	0.794683	-0.053090	0.553530
C87	C	1.044683	0.196910	0.803530
C88	C	1.294683	0.446910	1.053530
C89	C	0.577553	-0.262770	0.263337
C90	C	0.827553	-0.012770	0.513337
C91	C	1.077553	0.237230	0.763337
C92	C	1.327553	0.487230	1.013337
C93	C	0.643294	-0.262783	0.263315
C94	C	0.893294	-0.012783	0.513315
C95	C	1.143294	0.237217	0.763315
C96	C	1.393294	0.487217	1.013315
N97	N	0.441407	-0.298163	0.248472
N98	N	0.691407	-0.048163	0.498472
N99	N	0.941407	0.201837	0.748472
N100	N	1.191407	0.451837	0.998472
N101	N	0.378956	-0.298155	0.248495
N102	N	0.628956	-0.048155	0.498495
N103	N	0.878956	0.201845	0.748495
N104	N	1.128956	0.451845	0.998495
C105	C	0.346608	-0.303050	0.303596
C106	C	0.596608	-0.053050	0.553596
C107	C	0.846608	0.196950	0.803596
C108	C	1.096608	0.446950	1.053596
N109	N	0.379072	-0.307965	0.358675
N110	N	0.629072	-0.057965	0.608675
N111	N	0.879072	0.192035	0.858675
N112	N	1.129072	0.442035	1.108675
N113	N	0.441529	-0.307976	0.358650
N114	N	0.691529	-0.057976	0.608650
N115	N	0.941529	0.192024	0.858650
N116	N	1.191529	0.442024	1.108650
C117	C	0.473398	-0.303072	0.303550
C118	C	0.723398	-0.053072	0.553550
C119	C	0.973398	0.196928	0.803550
C120	C	1.223398	0.446928	1.053550
C121	C	0.242461	-0.343346	0.343820
C122	C	0.492461	-0.093346	0.593820
C123	C	0.742461	0.156654	0.843820
C124	C	0.992461	0.406654	1.093820
C125	C	0.176717	-0.343326	0.343849
C126	C	0.426717	-0.093326	0.593849
C127	C	0.676717	0.156674	0.843849
C128	C	0.926717	0.406674	1.093849
C129	C	0.176710	-0.262690	0.263479
C130	C	0.426710	-0.012690	0.513479
C131	C	0.676710	0.237310	0.763479
C132	C	0.926710	0.487310	1.013479
C133	C	0.242453	-0.262707	0.263455
C134	C	0.492453	-0.012707	0.513455
C135	C	0.742453	0.237293	0.763455
C136	C	0.992453	0.487293	1.013455
C137	C	0.275324	-0.303038	0.303625
C138	C	0.525324	-0.053038	0.553625
C139	C	0.775324	0.196962	0.803625
C140	C	1.025324	0.446962	1.053625
C141	C	0.909603	-0.466603	0.303538
C142	C	1.159603	-0.216603	0.553538
C143	C	1.409603	0.033397	0.803538
C144	C	1.659603	0.283397	1.053538
C145	C	0.909625	-0.536571	0.303544
C146	C	1.159625	-0.286571	0.553544
C147	C	1.409625	-0.036571	0.803544
C148	C	1.659625	0.213429	1.053544
C149	C	0.949910	-0.569412	0.263342
C150	C	1.199910	-0.319412	0.513342
C151	C	1.449910	-0.069412	0.763342
C152	C	1.699910	0.180588	1.013342
C153	C	0.949939	-0.635155	0.263356
C154	C	1.199939	-0.385155	0.513356
C155	C	1.449939	-0.135155	0.763356
C156	C	1.699939	0.114845	1.013356
C157	C	0.909673	-0.668054	0.303566
C158	C	1.159673	-0.418054	0.553566
C159	C	1.409673	-0.168054	0.803566
C160	C	1.659673	0.081946	1.053566
C161	C	0.869386	-0.635205	0.343776
C162	C	1.119386	-0.385205	0.593776
C163	C	1.369386	-0.135205	0.843776
C164	C	1.619386	0.114795	1.093776
C165	C	0.869362	-0.569464	0.343765
C166	C	1.119362	-0.319464	0.593765
C167	C	1.369362	-0.069464	0.843765
C168	C	1.619362	0.180536	1.093765
N169	N	0.854606	-0.771336	0.308340
N170	N	1.104606	-0.521336	0.558340
N171	N	1.354606	-0.271336	0.808340
N172	N	1.604606	-0.021336	1.058340
N173	N	0.854630	-0.833787	0.308347
N174	N	1.104630	-0.583787	0.558347
N175	N	1.354630	-0.333787	0.808347
N176	N	1.604630	-0.083787	1.058347
C177	C	0.909743	-0.866129	0.303602
C178	C	1.159743	-0.616129	0.553602
C179	C	1.409743	-0.366129	0.803602
C180	C	1.659743	-0.116129	1.053602
N181	N	0.964832	-0.833659	0.298838
N182	N	1.214832	-0.583659	0.548838
N183	N	1.464832	-0.333659	0.798838
N184	N	1.714832	-0.083659	1.048838
N185	N	0.964807	-0.771202	0.298828
N186	N	1.214807	-0.521202	0.548828
N187	N	1.464807	-0.271202	0.798828
N188	N	1.714807	-0.021202	1.048828
C189	C	0.909695	-0.739339	0.303582
C190	C	1.159695	-0.489339	0.553582
C191	C	1.409695	-0.239339	0.803582
C192	C	1.659695	0.010661	1.053582
C193	C	0.950063	-0.970255	0.263413
C194	C	1.200063	-0.720255	0.513413
C195	C	1.450063	-0.470255	0.763413
C196	C	1.700063	-0.220255	1.013413
C197	C	0.950094	-1.035999	0.263431
C198	C	1.200094	-0.785999	0.513431
C199	C	1.450094	-0.535999	0.763431
C200	C	1.700094	-0.285999	1.013431
C201	C	0.869535	-1.036048	0.343848
C202	C	1.119535	-0.786048	0.593848
C203	C	1.369535	-0.536048	0.843848
C204	C	1.619535	-0.286048	1.093848
C205	C	0.869510	-0.970305	0.343833
C206	C	1.119510	-0.720305	0.593833
C207	C	1.369510	-0.470305	0.843833
C208	C	1.619510	-0.220305	1.093833
C209	C	0.909773	-0.937413	0.303612
C210	C	1.159773	-0.687413	0.553612
C211	C	1.409773	-0.437413	0.803612
C212	C	1.659773	-0.187413	1.053612
C213	C	1.073876	-0.303019	0.303646
C214	C	1.323876	-0.053019	0.553646
C215	C	1.573876	0.196981	0.803646
C216	C	1.823876	0.446981	1.053646
C217	C	1.143844	-0.303005	0.303677
C218	C	1.393844	-0.053005	0.553677
C219	C	1.643844	0.196995	0.803677
C220	C	1.893844	0.446995	1.053677
C221	C	0.909738	-0.303038	0.467763
C222	C	1.159738	-0.053038	0.717763
C223	C	1.409738	0.196962	0.967763
C224	C	1.659738	0.446962	1.217763
C225	C	0.909760	-0.303033	0.537731
C226	C	1.159760	-0.053033	0.787731
C227	C	1.409760	0.196967	1.037731
C228	C	1.659760	0.446967	1.287731
C229	C	0.909785	-0.138861	0.303622
C230	C	1.159785	0.111139	0.553622
C231	C	1.409785	0.361139	0.803622
C232	C	1.659785	0.611139	1.053622
C233	C	0.909828	-0.068893	0.303642
C234	C	1.159828	0.181107	0.553642
C235	C	1.409828	0.431107	0.803642
C236	C	1.659828	0.681107	1.053642
C237	C	0.909670	-0.303019	0.140021
C238	C	1.159670	-0.053019	0.390021
C239	C	1.409670	0.196981	0.640021
C240	C	1.659670	0.446981	0.890021
C241	C	0.909769	-0.302848	0.070054
C242	C	1.159769	-0.052848	0.320054
C243	C	1.409769	0.197152	0.570054
C244	C	1.659769	0.447152	0.820054
C245	C	0.950044	-0.262761	0.570629
C246	C	1.200044	-0.012761	0.820629
C247	C	1.450044	0.237239	1.070629
C248	C	1.700044	0.487239	1.320629
C249	C	0.950043	-0.262734	0.636371
C250	C	1.200043	-0.012734	0.886371
C251	C	1.450043	0.237266	1.136371
C252	C	1.700043	0.487266	1.386371
C253	C	0.909765	-0.302989	0.669214
C254	C	1.159765	-0.052989	0.919214
C255	C	1.409765	0.197011	1.169214
C256	C	1.659765	0.447011	1.419214
C257	C	0.869473	-0.343263	0.636308
C258	C	1.119473	-0.093263	0.886308
C259	C	1.369473	0.156737	1.136308
C260	C	1.619473	0.406737	1.386308
C261	C	0.869470	-0.343285	0.570567
C262	C	1.119470	-0.093285	0.820567
C263	C	1.369470	0.156715	1.070567
C264	C	1.619470	0.406715	1.320567
N265	N	0.904908	-0.358058	0.772428
N266	N	1.154908	-0.108058	1.022428
N267	N	1.404908	0.141942	1.272428
N268	N	1.654908	0.391942	1.522428
N269	N	0.904914	-0.358036	0.834879
N270	N	1.154914	-0.108036	1.084879
N271	N	1.404914	0.141964	1.334879
N272	N	1.654914	0.391964	1.584879
C273	C	0.909769	-0.302926	0.867289
C274	C	1.159769	-0.052926	1.117289
C275	C	1.409769	0.197074	1.367289
C276	C	1.659769	0.447074	1.617289
N277	N	0.914629	-0.247837	0.834888
N278	N	1.164629	0.002163	1.084888
N279	N	1.414629	0.252163	1.334888
N280	N	1.664629	0.502163	1.584888
N281	N	0.914627	-0.247860	0.772430
N282	N	1.164627	0.002140	1.022430
N283	N	1.414627	0.252140	1.272430
N284	N	1.664627	0.502140	1.522430
C285	C	0.909763	-0.302970	0.740499
C286	C	1.159763	-0.052970	0.990499
C287	C	1.409763	0.197030	1.240499
C288	C	1.659763	0.447030	1.490499
C289	C	0.950054	-0.262621	0.971472
C290	C	1.200054	-0.012621	1.221472
C291	C	1.450054	0.237379	1.471472
C292	C	1.700054	0.487379	1.721472
C293	C	0.950049	-0.262593	1.037216
C294	C	1.200049	-0.012593	1.287216
C295	C	1.450049	0.237407	1.537216
C296	C	1.700049	0.487407	1.787216
C297	C	0.869482	-0.343128	1.037151
C298	C	1.119482	-0.093128	1.287151
C299	C	1.369482	0.156872	1.537151
C300	C	1.619482	0.406872	1.787151
C301	C	0.869484	-0.343151	0.971409
C302	C	1.119484	-0.093151	1.221409
C303	C	1.369484	0.156849	1.471409
C304	C	1.619484	0.406849	1.721409
C305	C	0.909773	-0.302898	0.938573
C306	C	1.159773	-0.052898	1.188573
C307	C	1.409773	0.197102	1.438573
C308	C	1.659773	0.447102	1.688573
H309	H	0.269209	-0.229884	0.230726
H310	H	0.519209	0.020116	0.480726
H311	H	0.769209	0.270116	0.730726
H312	H	1.019209	0.520116	0.980726
H313	H	0.982696	-0.542633	0.230593
H314	H	1.232696	-0.292633	0.480593
H315	H	1.482696	-0.042633	0.730593
H316	H	1.732696	0.207367	0.980593
F317	F	0.826534	-0.670219	0.386572
F318	F	1.076534	-0.420219	0.636572
F319	F	1.326534	-0.170219	0.886572
F320	F	1.576534	0.079781	1.136572
F321	F	0.826484	-0.534511	0.386556
F322	F	1.076484	-0.284511	0.636556
F323	F	1.326484	-0.034511	0.886556
F324	F	1.576484	0.215489	1.136556
F325	F	0.826603	-0.386104	0.671263
F326	F	1.076603	-0.136104	0.921263
F327	F	1.326603	0.113896	1.171263
F328	F	1.576603	0.363896	1.421263
F329	F	0.678269	-0.219875	0.220538
F330	F	0.928269	0.030125	0.470538
F331	F	1.178269	0.280125	0.720538
F332	F	1.428269	0.530125	0.970538
H333	H	0.836704	-0.943564	0.376567
H334	H	1.086704	-0.693564	0.626567
H335	H	1.336704	-0.443564	0.876567
H336	H	1.586704	-0.193564	1.126567
F337	F	0.992914	-0.935246	0.220607
F338	F	1.242914	-0.685246	0.470607
F339	F	1.492914	-0.435246	0.720607
F340	F	1.742914	-0.185246	0.970607
H341	H	0.982852	-0.229795	1.064000
H342	H	1.232852	0.020205	1.314000
H343	H	1.482852	0.270205	1.564000
H344	H	1.732852	0.520205	1.814000
F345	F	0.826684	-1.071057	0.386647
F346	F	1.076684	-0.821057	0.636647
F347	F	1.326684	-0.571057	0.886647
F348	F	1.576684	-0.321057	1.136647
H349	H	0.149962	-0.376152	0.376580
H350	H	0.399962	-0.126152	0.626580
H351	H	0.649962	0.123848	0.876580
H352	H	0.899962	0.373848	1.126580
F353	F	0.277447	-0.386267	0.386574
F354	F	0.527447	-0.136267	0.636574
F355	F	0.777447	0.113733	0.886574
F356	F	1.027447	0.363733	1.136574
F357	F	0.678284	-0.386348	0.386428
F358	F	0.928284	-0.136348	0.636428
F359	F	1.178284	0.113652	0.886428
F360	F	1.428284	0.363652	1.136428
H361	H	0.982746	-0.661899	0.230619
H362	H	1.232746	-0.411899	0.480619
H363	H	1.482746	-0.161899	0.730619
H364	H	1.732746	0.088101	0.980619
H365	H	0.550779	-0.229940	0.230630
H366	H	0.800779	0.020060	0.480630
H367	H	1.050779	0.270060	0.730630
H368	H	1.300779	0.520060	0.980630
H369	H	0.982902	-1.062737	0.230695
H370	H	1.232902	-0.812737	0.480695
H371	H	1.482902	-0.562737	0.730695
H372	H	1.732902	-0.312737	0.980695
F373	F	0.992911	-0.219860	0.671391
F374	F	1.242911	0.030140	0.921391
F375	F	1.492911	0.280140	1.171391
F376	F	1.742911	0.530140	1.421391
F377	F	0.992922	-0.219918	0.535686
F378	F	1.242922	0.030082	0.785686
F379	F	1.492922	0.280082	1.035686
F380	F	1.742922	0.530082	1.285686
F381	F	0.141723	-0.219774	0.220728
F382	F	0.391723	0.030226	0.470728
F383	F	0.641723	0.280226	0.720728
F384	F	0.891723	0.530226	0.970728
H385	H	0.550800	-0.376236	0.376431
H386	H	0.800800	-0.126236	0.626431
H387	H	1.050800	0.123764	0.876431
H388	H	1.300800	0.373764	1.126431
F389	F	0.826592	-0.386149	0.535554
F390	F	1.076592	-0.136149	0.785554
F391	F	1.326592	0.113851	1.035554
F392	F	1.576592	0.363851	1.285554
F393	F	0.992931	-0.219779	0.936523
F394	F	1.242931	0.030221	1.186523
F395	F	1.492931	0.280221	1.436523
F396	F	1.742931	0.530221	1.686523
F397	F	0.826609	-0.385966	1.072100
F398	F	1.076609	-0.135966	1.322100
F399	F	1.326609	0.114034	1.572100
F400	F	1.576609	0.364034	1.822100
H401	H	0.836683	-0.375948	0.944623
H402	H	1.086683	-0.125948	1.194623
H403	H	1.336683	0.124052	1.444623
H404	H	1.586683	0.374052	1.694623
