data_functionalizedCrystal
_audit_creation_method	'MofGen! by Chris Wilmer'
_symmetry_space_group_name_H-M	'P1'
_symmetry_Int_Tables_number	1
_symmetry_cell_setting	triclinic
loop_
_symmetry_equiv_pos_as_xyz
  x,y,z
_cell_length_a	17.766277
_cell_length_b	27.731994
_cell_length_c	19.288865
_cell_angle_alpha	97.121609
_cell_angle_beta	89.988481
_cell_angle_gamma	90.003606
loop_
_atom_site_label
_atom_site_type_symbol
_atom_site_fract_x
_atom_site_fract_y
_atom_site_fract_z
O1	O	-0.062495	-0.641197	0.082470
O2	O	-0.062522	-0.500438	0.095076
O3	O	-0.062493	-0.574885	-0.012384
O4	O	-0.062524	-0.566750	0.189930
O5	O	0.062696	-0.574871	-0.012389
O6	O	0.062667	-0.500424	0.095071
O7	O	0.062693	-0.641184	0.082465
Cu8	Cu	0.074111	-0.570803	0.088767
Cu9	Cu	-0.073939	-0.570819	0.088773
O10	O	0.062664	-0.566737	0.189925
C11	C	0.000070	-0.482423	0.094815
C12	C	0.000060	-0.428764	0.094035
N13	N	0.178241	-0.570795	0.088763
C14	C	0.217641	-0.603771	0.041203
C15	C	0.296443	-0.603773	0.041200
C16	C	0.335842	-0.570805	0.088768
C17	C	0.296433	-0.537823	0.136332
C18	C	0.217632	-0.537818	0.136329
C19	C	0.460669	-0.564333	0.152099
C20	C	0.539468	-0.564341	0.152102
C21	C	0.578888	-0.570817	0.088777
C22	C	0.539500	-0.577294	0.025446
C23	C	0.460699	-0.577289	0.025443
C24	C	0.421287	-0.570806	0.088777
C25	C	0.703734	-0.603797	0.041210
C26	C	0.782537	-0.603796	0.041206
C27	C	0.782525	-0.537848	0.136345
C28	C	0.703724	-0.537846	0.136343
C29	C	0.664332	-0.570823	0.088776
C30	C	0.000104	-0.574616	-0.038261
C31	C	0.000110	-0.573831	-0.115360
N32	N	0.821931	-0.570826	0.088775
C33	C	0.000100	-0.659198	0.082726
C34	C	0.000105	-0.712857	0.083505
C35	C	0.068330	-0.096024	0.089124
C36	C	0.068339	0.105643	0.086162
O37	O	0.126375	0.131724	0.085747
N38	N	0.000099	0.130852	0.085797
C39	C	-0.068148	0.105640	0.086168
O40	O	-0.126190	0.131708	0.085782
C41	C	-0.068156	-0.096026	0.089125
C42	C	0.000088	-0.121232	0.089497
C43	C	0.136569	-0.121229	0.089496
C44	C	0.136566	-0.171642	0.090240
C45	C	0.068324	-0.196850	0.090613
C46	C	0.000085	-0.171645	0.090242
C47	C	-0.136403	-0.121238	0.089491
C48	C	-0.136399	-0.171658	0.090229
C49	C	-0.068154	-0.196863	0.090601
C50	C	-0.068160	-0.247266	0.091359
N51	N	0.000081	-0.272475	0.091724
C52	C	0.068323	-0.247267	0.091351
C53	C	-0.068139	0.211518	0.084616
C54	C	-0.068137	0.261935	0.083878
C55	C	0.068351	0.261934	0.083871
C56	C	0.068348	0.211517	0.084614
C57	C	0.000101	0.186310	0.084982
C58	C	0.068311	-0.353139	0.092915
C59	C	0.068302	-0.403556	0.093662
C60	C	-0.068185	-0.403552	0.093666
C61	C	-0.068176	-0.353138	0.092922
C62	C	0.000078	-0.327933	0.092544
O63	O	-0.126165	-0.273378	0.091767
O64	O	0.126356	-0.273345	0.091722
C65	C	0.068333	-0.045610	0.088380
C66	C	0.000094	-0.020405	0.088009
C67	C	-0.068148	-0.045613	0.088382
C68	C	0.000096	0.030012	0.087271
C69	C	0.068338	0.055220	0.086898
C70	C	0.136578	0.030011	0.087263
C71	C	0.136575	-0.020402	0.088007
C72	C	-0.136388	-0.020404	0.088016
C73	C	-0.136379	0.030009	0.087273
C74	C	-0.068137	0.055217	0.086900
C75	C	0.000122	-0.617513	-0.160341
C76	C	0.000110	-0.616774	-0.232783
C77	C	0.000101	-0.572352	-0.260241
C78	C	0.000085	-0.528664	-0.215250
C79	C	0.000090	-0.529403	-0.142809
C80	C	0.043945	-0.537426	-0.368303
C81	C	0.043946	-0.536688	-0.440742
C82	C	0.000084	-0.570069	-0.483672
C83	C	-0.043768	-0.604196	-0.454154
C84	C	-0.043764	-0.604936	-0.381713
C85	C	0.000096	-0.571545	-0.338790
C86	C	0.000082	-0.612954	-0.607203
C87	C	0.000065	-0.612214	-0.679647
C88	C	0.000048	-0.524102	-0.662112
C89	C	0.000057	-0.524844	-0.589671
C90	C	0.000077	-0.569271	-0.562221
C91	C	0.000066	-0.567005	0.215802
C92	C	0.000055	-0.567791	0.292900
H93	H	0.185571	-0.630621	0.002470
H94	H	0.000076	-0.492495	-0.237611
H95	H	0.185552	-0.510965	0.175059
H96	H	0.192143	0.050545	0.086963
H97	H	0.123878	-0.424076	0.093968
N98	N	-0.091063	-0.641738	-0.349877
H99	H	-0.084402	-0.637140	-0.297473
H100	H	-0.074659	-0.675602	-0.369306
N101	N	-0.141780	-0.325948	0.092535
H102	H	-0.185011	-0.349569	0.092888
H103	H	-0.144748	-0.309048	0.049149
H104	H	-0.123746	-0.424085	0.093972
H105	H	0.428580	-0.559051	0.203669
N106	N	0.091235	-0.499878	-0.472573
H107	H	0.084580	-0.504475	-0.524978
H108	H	0.145945	-0.504515	-0.460820
H109	H	-0.123709	0.282454	0.083586
H110	H	0.192147	-0.040920	0.088310
N111	N	-0.209991	0.057193	0.086874
H112	H	-0.253219	0.033568	0.087220
H113	H	-0.212953	0.074090	0.043487
N114	N	0.338920	-0.502264	0.187642
H115	H	0.325219	-0.467976	0.179987
H116	H	0.394805	-0.507314	0.180404
H117	H	-0.079485	-0.631379	-0.489106
H118	H	0.000095	-0.649129	-0.584853
N119	N	0.000122	-0.665429	-0.130737
H120	H	0.000120	-0.659271	-0.078020
H121	H	0.046532	-0.684536	-0.147234
N122	N	0.091275	-0.501428	-0.322007
H123	H	0.084627	-0.507075	-0.271638
H124	H	0.074884	-0.467302	-0.327894
H125	H	-0.191960	-0.040924	0.088318
N126	N	0.141927	-0.325959	0.092507
H127	H	0.185147	-0.349627	0.092381
H128	H	0.145120	-0.301249	0.135514
N129	N	0.000121	-0.663890	-0.281310
H130	H	0.000133	-0.692146	-0.252928
H131	H	0.046530	-0.665492	-0.311756
H132	H	0.000070	-0.647787	-0.716270
H133	H	0.192143	-0.100710	0.089191
H134	H	-0.123717	0.190999	0.084915
H135	H	-0.191975	-0.100724	0.089187
H136	H	0.000080	-0.493831	-0.106185
N137	N	0.581948	-0.557351	0.220406
H138	H	0.568218	-0.584150	0.249100
H139	H	0.568216	-0.524865	0.247023
H140	H	0.814603	-0.511003	0.175073
N141	N	0.000030	-0.476188	-0.691717
H142	H	0.000026	-0.482347	-0.744433
H143	H	0.046435	-0.457073	-0.675238
H144	H	0.000051	-0.489273	-0.553046
H145	H	0.671642	-0.510997	0.175073
H146	H	0.328528	-0.630626	0.002469
N147	N	0.141952	0.184331	0.085007
H148	H	0.144989	0.167427	0.128387
H149	H	0.185137	0.207982	0.084633
N150	N	-0.210009	-0.198846	0.090620
H151	H	-0.253236	-0.175225	0.090271
H152	H	-0.212997	-0.215748	0.134003
N153	N	0.141955	0.289129	0.083470
H154	H	0.131596	0.324975	0.083902
H155	H	0.171310	0.276758	0.040041
N156	N	0.210178	-0.198820	0.090638
H157	H	0.240014	-0.194056	0.047432
H158	H	0.199775	-0.234574	0.091191
N159	N	0.418214	-0.584274	-0.042858
H160	H	0.455138	-0.588378	-0.082977
H161	H	0.385529	-0.554916	-0.046614
H162	H	0.671660	-0.630647	0.002476
N163	N	0.582004	-0.584282	-0.042862
H164	H	0.637900	-0.583300	-0.033253
H165	H	0.568240	-0.557473	-0.071517
H166	H	0.814617	-0.630647	0.002473
