data_functionalizedCrystal
_audit_creation_method	'MofGen! by Chris Wilmer'
_symmetry_space_group_name_H-M	'P1'
_symmetry_Int_Tables_number	1
_symmetry_cell_setting	triclinic
loop_
_symmetry_equiv_pos_as_xyz
  x,y,z
_cell_length_a	10.489711
_cell_length_b	8.965430
_cell_length_c	10.489711
_cell_angle_alpha	89.995872
_cell_angle_beta	84.527009
_cell_angle_gamma	90.005384
loop_
_atom_site_label
_atom_site_type_symbol
_atom_site_fract_x
_atom_site_fract_y
_atom_site_fract_z
O1	O	1.694056	0.124080	0.179780
O2	O	1.322854	0.124070	0.196713
O3	O	1.516921	0.124079	0.002645
O4	O	1.499989	0.124071	0.373848
O5	O	1.516905	-0.124000	0.002658
O6	O	1.322838	-0.124009	0.196726
O7	O	1.694040	-0.123999	0.179793
Cu8	Cu	1.508437	-0.146656	0.188260
Cu9	Cu	1.508457	0.146726	0.188245
O10	O	1.499972	-0.124008	0.373860
C11	C	1.275314	0.000029	0.195448
C12	C	1.133683	0.000026	0.191646
C13	C	0.951284	0.000040	0.308352
C14	C	1.043444	0.122355	0.250050
C15	C	1.043400	-0.122231	0.250031
C16	C	0.973506	0.122474	0.126505
C17	C	0.973453	-0.122222	0.126504
C18	C	1.065585	0.000122	0.068112
N19	N	1.508433	-0.353005	0.188270
C20	C	1.418655	-0.450315	0.277990
C21	C	1.534150	-0.549726	0.303789
C22	C	1.392986	-0.549721	0.162483
C23	C	1.623987	-0.450227	0.214127
C24	C	1.482746	-0.450213	0.072770
C25	C	1.598325	-0.549579	0.098521
C26	C	1.741580	0.000045	0.181057
C27	C	1.883211	0.000058	0.184859
C28	C	1.515642	0.000044	-0.044880
C29	C	1.511840	0.000056	-0.186511
N30	N	1.508471	0.353076	0.188225
C31	C	1.628547	0.000045	-0.368910
C32	C	1.570242	-0.122272	-0.276754
C33	C	1.570227	0.122315	-0.276790
C34	C	1.446698	-0.122390	-0.346692
C35	C	1.446700	0.122307	-0.346738
C36	C	1.388306	-0.000040	-0.254609
C37	C	1.501251	0.000030	0.421386
C38	C	1.505054	0.000028	0.563017
H39	H	0.942429	-0.225634	0.074300
H40	H	1.622509	0.225722	-0.245842
C41	C	1.755933	-0.391440	0.243732
N42	N	1.855311	-0.347157	0.266036
H43	H	1.074440	0.225757	0.302301
H44	H	1.342804	-0.406730	0.353934
C45	C	1.261069	-0.608755	0.133036
N46	N	1.161705	-0.653214	0.110865
H47	H	0.942709	0.226003	0.074296
C48	C	1.085200	-0.261936	0.320655
N49	N	1.116677	-0.367157	0.373857
H50	H	1.622489	-0.225679	-0.245767
H51	H	1.674347	-0.592891	0.022624
H52	H	1.286712	-0.000110	-0.205133
C53	C	1.132430	0.000214	-0.069135
N54	N	1.182778	0.000289	-0.172507
C55	C	1.376185	0.262013	-0.388665
N56	N	1.323086	0.367252	-0.420253
H57	H	1.394481	-0.225914	-0.377490
C58	C	0.884129	0.000206	0.445473
N59	N	0.833545	0.000339	0.548748
H60	H	1.555903	-0.593436	0.401445
H61	H	1.730049	-0.000073	-0.418611
C62	C	1.453308	-0.391105	-0.059116
N63	N	1.431121	-0.346580	-0.158452
