data_functionalizedCrystal
_audit_creation_method	'MofGen! by Chris Wilmer'
_symmetry_space_group_name_H-M	'P1'
_symmetry_Int_Tables_number	1
_symmetry_cell_setting	triclinic
loop_
_symmetry_equiv_pos_as_xyz
  x,y,z
_cell_length_a	6.817900
_cell_length_b	14.858329
_cell_length_c	16.305550
_cell_angle_alpha	95.069405
_cell_angle_beta	103.455250
_cell_angle_gamma	104.519616
loop_
_atom_site_label
_atom_site_type_symbol
_atom_site_fract_x
_atom_site_fract_y
_atom_site_fract_z
V1	V	-4.031538	-0.129456	-0.263273
O2	O	-4.013620	0.005413	-0.258014
O3	O	-3.988158	-0.255913	-0.261711
O4	O	-3.982877	-0.127819	-0.377987
O5	O	-4.018938	-0.123567	-0.140933
V6	V	-4.514549	-0.113282	-0.248611
O7	O	-4.293919	-0.164934	-0.295435
O8	O	-4.702365	-0.077804	-0.216450
O9	O	-4.334722	0.013175	-0.250174
O10	O	-4.649864	-0.248151	-0.253871
O11	O	-4.644546	-0.119171	-0.370952
O12	O	-4.340003	-0.114919	-0.133897
C13	C	-3.834389	-0.286729	-0.257619
C14	C	-3.880206	-0.390111	-0.257106
C15	C	-3.917408	-0.474068	-0.256681
C16	C	-3.964100	-0.579396	-0.256153
C17	C	-4.001330	-0.663347	-0.255732
C18	C	-4.048025	-0.768682	-0.255203
C19	C	-3.827651	-0.123332	-0.405940
C20	C	-3.869182	-0.122830	-0.499721
C21	C	-4.020189	-0.120886	-0.840463
C22	C	-3.783906	-0.115116	-0.799523
C23	C	-3.740749	-0.116022	-0.702030
C24	C	-3.945271	-0.121850	-0.671417
C25	C	-4.116059	-0.213697	-0.722215
C26	C	-4.157901	-0.213177	-0.819763
C27	C	-4.071456	-0.035544	-0.794460
C28	C	-4.023497	-0.034817	-0.696616
C29	C	-3.902944	-0.122398	-0.575880
C30	C	-4.062526	-0.120345	-0.936001
C31	C	-4.151834	0.043986	-0.254264
C32	C	-4.085255	0.147367	-0.254782
C33	C	-4.158571	-0.119409	-0.105940
C34	C	-4.096279	-0.119906	-0.012158
H35	H	-3.611552	-0.049985	-0.666883
C36	C	-3.856215	0.056962	-0.650004
N37	N	-3.730214	0.126089	-0.614890
C38	C	-3.944125	0.058472	-0.812340
N39	N	-3.848199	0.129281	-0.825807
H40	H	-3.675055	-0.048766	-0.811763
H41	H	-4.332067	-0.221232	-0.847770
C42	C	-4.323385	-0.223951	-0.696682
N43	N	-4.479541	-0.231674	-0.677448
H44	H	-4.063267	-0.278320	-0.705523
C45	C	-3.726365	-0.197945	-0.842253
N46	N	-3.683031	-0.260332	-0.874440
H47	H	-3.676858	-0.178045	-0.685853
H48	H	-4.124398	-0.277784	-0.850266
C49	C	-4.222258	-0.033204	-0.667675
N50	N	-4.371926	-0.031974	-0.645846
H51	H	-4.243661	-0.038955	-0.821282
