data_functionalizedCrystal
_audit_creation_method	'MofGen! by Chris Wilmer'
_symmetry_space_group_name_H-M	'P1'
_symmetry_Int_Tables_number	1
_symmetry_cell_setting	triclinic
loop_
_symmetry_equiv_pos_as_xyz
  x,y,z
_cell_length_a	8.497374
_cell_length_b	12.759401
_cell_length_c	12.759400
_cell_angle_alpha	89.985155
_cell_angle_beta	89.991978
_cell_angle_gamma	90.000368
loop_
_atom_site_label
_atom_site_type_symbol
_atom_site_fract_x
_atom_site_fract_y
_atom_site_fract_z
Zn1	Zn	0.891904	1.606068	0.418444
Zn2	Zn	0.628108	1.606017	0.594091
Zn3	Zn	0.628137	1.430425	0.418427
Zn4	Zn	0.891846	1.430358	0.594082
O5	O	0.759999	1.518217	0.506261
O6	O	0.856923	1.753082	0.441755
O7	O	0.407350	1.582732	0.570785
O8	O	0.663163	1.453773	0.271408
O9	O	0.663113	1.753045	0.570802
O10	O	0.856951	1.582817	0.271421
O11	O	0.407371	1.453725	0.441725
O12	O	0.663107	1.283395	0.441717
O13	O	1.112616	1.453659	0.570787
O14	O	0.856853	1.283346	0.570770
O15	O	1.112658	1.582752	0.441746
O16	O	0.663058	1.582667	0.741110
O17	O	0.856824	1.453611	0.741104
C18	C	0.759978	1.245250	0.506241
C19	C	0.760006	1.128473	0.506258
C20	C	0.860722	1.073613	0.573564
C21	C	0.860739	0.963889	0.573577
C22	C	0.659310	0.963895	0.438977
C23	C	0.659302	1.073617	0.438959
C24	C	0.977011	1.073609	0.651278
C25	C	0.977028	0.963885	0.651291
C26	C	0.759966	1.518155	0.779228
C27	C	0.760005	1.518224	0.896005
C28	C	1.171479	1.518209	0.506262
C29	C	1.350123	1.518212	0.506274
C30	C	0.760021	1.792250	0.506281
C31	C	0.760031	1.909027	0.506290
C32	C	0.760066	1.518308	0.232228
C33	C	0.760095	1.518347	0.115451
C34	C	0.659222	1.585498	0.950835
C35	C	0.659270	1.585563	1.060559
C36	C	0.860889	1.451070	1.060613
C37	C	0.860847	1.451012	0.950891
C38	C	0.542814	1.663143	0.950805
C39	C	0.542862	1.663208	1.060529
H40	H	1.099249	1.103391	0.629612
C41	C	0.586355	1.771682	0.911139
C42	C	0.476415	1.844706	0.947848
C43	C	0.516485	1.944700	0.911340
H44	H	0.586299	1.771794	0.836693
H45	H	0.688169	1.789873	0.935940
H46	H	0.374628	1.826519	0.923042
H47	H	0.476455	1.844626	1.022290
H48	H	0.618299	1.962891	0.936141
H49	H	0.516429	1.944801	0.836895
H50	H	0.441907	1.994260	0.936249
C51	C	0.933005	0.924360	0.759799
C52	C	0.906058	1.009876	0.826158
C53	C	0.865483	0.973507	0.926114
H54	H	1.016481	0.883027	0.787066
H55	H	0.840256	0.883023	0.755323
H56	H	0.998796	1.051196	0.830637
H57	H	0.822576	1.051217	0.798925
H58	H	0.772734	0.932170	0.921638
H59	H	0.948965	0.932174	0.953371
H60	H	0.847181	1.031523	0.971148
C61	C	0.601646	1.766167	1.105874
C62	C	0.735007	1.747440	1.167531
C63	C	0.789219	1.842257	1.209307
H64	H	0.521531	1.796724	1.147848
H65	H	0.628100	1.812629	1.050406
H66	H	0.708548	1.700995	1.222991
H67	H	0.815153	1.716898	1.125580
H68	H	0.815673	1.888720	1.153839
H69	H	0.709095	1.872807	1.251276
H70	H	0.879718	1.829565	1.251138
C71	C	0.549767	0.904282	0.366095
C72	C	0.448477	0.841301	0.425487
C73	C	0.347524	0.786385	0.358386
H74	H	0.610047	0.861400	0.320364
H75	H	0.489689	0.952642	0.326029
H76	H	0.508549	0.792946	0.465534
H77	H	0.388162	0.884156	0.471215
H78	H	0.287445	0.834745	0.318320
H79	H	0.407817	0.743510	0.312658
H80	H	0.278777	0.743654	0.398674
C81	C	1.132042	0.918571	0.612800
C82	C	1.254248	0.952586	0.678054
C83	C	1.397057	0.910853	0.642633
H84	H	1.151270	0.941544	0.543147
H85	H	1.126798	0.844206	0.614180
H86	H	1.259494	1.026935	0.676663
H87	H	1.235072	0.929614	0.747710
H88	H	1.391813	0.836488	0.644013
H89	H	1.416269	0.933829	0.572979
H90	H	1.479989	0.933918	0.686907
H91	H	0.577299	1.118280	0.384145
C92	C	0.970479	1.378152	0.891307
C93	C	1.071667	1.437556	0.828264
C94	C	1.172700	1.370472	0.773373
H95	H	0.910252	1.332359	0.848470
H96	H	1.030628	1.338152	0.939681
H97	H	1.011524	1.477538	0.779895
H98	H	1.131928	1.483346	0.871075
H99	H	1.232849	1.330472	0.821747
H100	H	1.112460	1.324682	0.730542
H101	H	1.241378	1.410768	0.730599
C102	C	0.970193	1.378136	1.120395
C103	C	0.948639	1.392568	1.228222
C104	C	1.049288	1.325388	1.283323
H105	H	1.076265	1.393376	1.102497
H106	H	0.946993	1.307525	1.102539
H107	H	0.971850	1.463163	1.246071
H108	H	0.842588	1.377321	1.246151
H109	H	1.026088	1.254777	1.265467
H110	H	1.155354	1.340634	1.265416
H111	H	1.034667	1.335164	1.356488
C112	C	0.388143	1.624326	0.905284
C113	C	0.396397	1.626316	0.795706
C114	C	0.253955	1.590548	0.753736
H115	H	0.304846	1.668396	0.928144
H116	H	0.369231	1.554626	0.928274
H117	H	0.415291	1.696004	0.772726
H118	H	0.479664	1.582243	0.772817
H119	H	0.235043	1.520849	0.776725
H120	H	0.170669	1.634623	0.776603
H121	H	0.259541	1.591885	0.679383
C122	C	0.380074	1.634112	1.100463
C123	C	0.390236	1.543145	1.161482
C124	C	0.240319	1.516321	1.198298
H125	H	0.312016	1.621921	1.042686
H126	H	0.339552	1.689814	1.141844
H127	H	0.430735	1.487456	1.120102
H128	H	0.458264	1.555312	1.219274
H129	H	0.199797	1.572022	1.239680
H130	H	0.172273	1.504135	1.140515
H131	H	0.247196	1.454603	1.239711
H132	H	0.933039	1.107632	0.728518
