data_functionalizedCrystal
_audit_creation_method	'MofGen! by Chris Wilmer'
_symmetry_space_group_name_H-M	'P1'
_symmetry_Int_Tables_number	1
_symmetry_cell_setting	triclinic
loop_
_symmetry_equiv_pos_as_xyz
  x,y,z
_cell_length_a	8.559649
_cell_length_b	9.730223
_cell_length_c	8.559649
_cell_angle_alpha	90.000781
_cell_angle_beta	69.778664
_cell_angle_gamma	89.996622
loop_
_atom_site_label
_atom_site_type_symbol
_atom_site_fract_x
_atom_site_fract_y
_atom_site_fract_z
O1	O	-2.126873	0.114390	0.055041
O2	O	-1.651388	0.114368	-0.028740
O3	O	-1.931021	0.114380	0.250893
O4	O	-1.847240	0.114379	-0.224592
O5	O	-1.931018	-0.114200	0.250886
O6	O	-1.651384	-0.114212	-0.028747
O7	O	-2.126869	-0.114190	0.055034
Zn8	Zn	-1.889126	-0.150493	0.013143
Zn9	Zn	-1.889131	0.150671	0.013151
O10	O	-1.847236	-0.114201	-0.224599
C11	C	-1.591077	0.000075	-0.035093
C12	C	-1.411378	0.000067	-0.053992
N13	N	-1.889135	-0.356029	0.013139
C14	C	-2.012980	-0.427950	0.136927
C15	C	-2.012978	-0.571833	0.136946
C16	C	-1.765280	-0.571862	-0.110625
C17	C	-1.765276	-0.427981	-0.110636
C18	C	-2.136839	-0.355998	0.260702
C19	C	-2.260695	-0.427919	0.384499
C20	C	-2.260694	-0.571802	0.384518
C21	C	-2.136836	-0.643764	0.260741
C22	C	-1.187180	0.000093	0.061387
C23	C	-1.366879	0.000074	0.080286
C24	C	-1.937369	0.000092	0.311198
C25	C	-1.956268	0.000101	0.490898
N26	N	-1.889137	0.356207	0.013169
C27	C	-1.840889	0.000089	-0.284904
C28	C	-1.821990	0.000089	-0.464604
H29	H	-1.466268	0.000078	0.209714
O30	O	-1.667551	-0.000153	0.416911
C31	C	-1.580451	-0.118523	0.435258
H32	H	-1.673138	-0.201268	0.503682
H33	H	-1.500792	-0.158254	0.307170
H34	H	-1.496990	-0.091765	0.509755
H35	H	-2.361529	-0.369321	0.485283
O36	O	-1.292982	-0.000109	-0.208482
C37	C	-1.311266	-0.118514	-0.295552
H38	H	-1.444517	-0.157994	-0.240119
H39	H	-1.282596	-0.091889	-0.432340
H40	H	-1.221472	-0.201401	-0.284608
H41	H	-1.664441	-0.630462	-0.211401
O42	O	-2.380955	-0.641517	0.504985
C43	C	-2.374288	-0.606367	0.662358
H44	H	-2.311737	-0.501904	0.654512
H45	H	-2.506027	-0.601430	0.757135
H46	H	-2.299713	-0.687343	0.702684
O47	O	-2.137146	-0.216232	0.260737
C48	C	-2.287048	-0.168168	0.246503
H49	H	-2.386694	-0.251080	0.291423
H50	H	-2.329503	-0.071902	0.325803
H51	H	-2.266162	-0.142655	0.110779
O52	O	-1.644843	-0.358049	-0.230681
C53	C	-1.555471	-0.274799	-0.156014
H54	H	-1.568446	-0.318154	-0.028404
H55	H	-1.418414	-0.273176	-0.237945
H56	H	-1.607279	-0.165752	-0.141318
O57	O	-2.110557	0.000165	0.609667
C58	C	-2.095723	0.000116	0.768669
H59	H	-1.969051	0.043380	0.759368
H60	H	-2.198302	0.066481	0.856873
H61	H	-2.107821	-0.109549	0.818340
O62	O	-2.137109	-0.783533	0.260970
C63	C	-2.272944	-0.831587	0.396805
H64	H	-2.373052	-0.748671	0.436888
H65	H	-2.326423	-0.927854	0.358338
H66	H	-2.229199	-0.857094	0.505027
