data_functionalizedCrystal
_audit_creation_method	'MofGen! by Chris Wilmer'
_symmetry_space_group_name_H-M	'P1'
_symmetry_Int_Tables_number	1
_symmetry_cell_setting	triclinic
loop_
_symmetry_equiv_pos_as_xyz
  x,y,z
_cell_length_a	19.077105
_cell_length_b	14.908520
_cell_length_c	19.077174
_cell_angle_alpha	95.695642
_cell_angle_beta	85.483752
_cell_angle_gamma	91.150228
loop_
_atom_site_label
_atom_site_type_symbol
_atom_site_fract_x
_atom_site_fract_y
_atom_site_fract_z
Zn1	Zn	1.074745	-0.438339	-0.460807
Zn2	Zn	1.574745	0.061661	0.039193
Zn3	Zn	1.063678	-0.582887	-0.349172
Zn4	Zn	1.563678	-0.082887	0.150828
Zn5	Zn	0.952676	-0.425728	-0.337659
Zn6	Zn	1.452676	0.074272	0.162341
Zn7	Zn	0.950574	-0.582828	-0.462287
Zn8	Zn	1.450574	-0.082828	0.037713
O9	O	1.010418	-0.507446	-0.402481
O10	O	1.510418	-0.007446	0.097519
O11	O	1.171698	-0.462816	-0.450197
O12	O	1.671698	0.037184	0.049803
O13	O	1.045201	-0.556787	-0.248768
O14	O	1.545201	-0.056787	0.251232
O15	O	0.974380	-0.301160	-0.348556
O16	O	1.474380	0.198840	0.151444
O17	O	1.163567	-0.569015	-0.368180
O18	O	1.663567	-0.069015	0.131820
O19	O	1.064064	-0.310425	-0.439032
O20	O	1.564064	0.189575	0.060968
O21	O	0.963648	-0.441323	-0.240309
O22	O	1.463648	0.058677	0.259691
O23	O	0.853976	-0.441265	-0.349992
O24	O	1.353976	0.058735	0.150008
O25	O	0.970798	-0.568914	-0.560968
O26	O	1.470798	-0.068914	-0.060968
O27	O	0.852432	-0.556686	-0.441556
O28	O	1.352432	-0.056686	0.058444
O29	O	1.062026	-0.462759	-0.559880
O30	O	1.562026	0.037241	-0.059880
O31	O	1.043163	-0.709120	-0.369615
O32	O	1.543163	-0.209120	0.130385
O33	O	0.960066	-0.709077	-0.452721
O34	O	1.460066	-0.209077	0.047279
C35	C	0.827685	-0.497601	-0.394686
C36	C	1.327685	0.002399	0.105314
C37	C	0.749510	-0.493413	-0.391369
C38	C	1.249510	0.006587	0.108631
C39	C	0.711992	-0.551621	-0.437416
C40	C	1.211992	-0.051621	0.062584
C41	C	0.638539	-0.547674	-0.434302
C42	C	1.138539	-0.047674	0.065698
C43	C	0.602606	-0.485521	-0.385137
C44	C	1.102606	0.014479	0.114863
C45	C	0.640130	-0.427307	-0.339088
C46	C	1.140130	0.072693	0.160912
C47	C	0.713582	-0.431250	-0.342206
C48	C	1.213582	0.068750	0.157794
C49	C	0.383015	-0.467269	-0.370711
C50	C	0.883015	0.032731	0.129289
C51	C	0.309558	-0.463332	-0.367595
C52	C	0.809558	0.036668	0.132405
C53	C	0.307972	-0.583699	-0.462810
C54	C	0.807972	-0.083699	0.037190
C55	C	0.381425	-0.587641	-0.465921
C56	C	0.881425	-0.087641	0.034079
C57	C	0.418943	-0.529422	-0.419874
C58	C	0.918943	-0.029422	0.080126
N59	N	0.527526	-0.481487	-0.381952
N60	N	1.027526	0.018513	0.118048
N61	N	0.494022	-0.533453	-0.423064
N62	N	0.994022	-0.033453	0.076936
C63	C	1.000205	-0.741833	-0.412594
C64	C	1.500205	-0.241833	0.087406
C65	C	0.995901	-0.842110	-0.416947
C66	C	1.495901	-0.342110	0.083053
C67	C	1.074438	-1.030534	-0.338666
C68	C	1.574438	-0.530534	0.161334
C69	C	1.070396	-1.124752	-0.342754
C70	C	1.570396	-0.624752	0.157246
C71	C	0.983781	-1.124769	-0.429214
C72	C	1.483781	-0.624769	0.070786
C73	C	0.987822	-1.030550	-0.425126
C74	C	1.487822	-0.530550	0.074874
C75	C	1.033152	-0.983435	-0.379850
C76	C	1.533152	-0.483435	0.120150
C77	C	1.037189	-0.889214	-0.375759
C78	C	1.537189	-0.389214	0.124241
C79	C	0.950578	-0.889233	-0.462222
C80	C	1.450578	-0.389233	0.037778
C81	C	0.946536	-0.983452	-0.466310
C82	C	1.446536	-0.483452	0.033690
C83	C	1.193865	-0.517329	-0.410307
C84	C	1.693865	-0.017329	0.089693
C85	C	1.272039	-0.521541	-0.413642
C86	C	1.772039	-0.021541	0.086358
C87	C	1.017412	-0.517237	-0.586779
C88	C	1.517412	-0.017237	-0.086779
C89	C	1.020393	-0.521409	-0.665315
C90	C	1.520393	-0.021409	-0.165315
C91	C	1.020691	-0.272145	-0.392345
C92	C	1.520691	0.227855	0.107655
C93	C	1.025068	-0.171873	-0.388025
C94	C	1.525068	0.328127	0.111975
C95	C	0.979335	-0.463255	-0.697807
C96	C	1.479335	0.036745	-0.197807
C97	C	0.982132	-0.467182	-0.771601
C98	C	1.482132	0.032818	-0.271601
C99	C	1.025992	-0.529261	-0.812901
C100	C	1.525992	-0.029261	-0.312901
C101	C	1.067051	-0.587422	-0.780404
C102	C	1.567051	-0.087422	-0.280404
C103	C	1.064249	-0.583498	-0.706612
C104	C	1.564249	-0.083498	-0.206612
C105	C	1.038920	-0.547447	-1.034069
C106	C	1.538920	-0.047447	-0.534069
C107	C	1.041720	-0.551365	-1.107866
C108	C	1.541720	-0.051365	-0.607866
C109	C	0.956799	-0.431126	-1.099058
C110	C	1.456799	0.068874	-0.599058
C111	C	0.954005	-0.427204	-1.025265
C112	C	1.454005	0.072796	-0.525265
C113	C	0.995062	-0.485368	-0.992774
C114	C	1.495062	0.014632	-0.492774
N115	N	1.028854	-0.533275	-0.888330
N116	N	1.528854	-0.033275	-0.388330
N117	N	0.992195	-0.481357	-0.917346
N118	N	1.492195	0.018643	-0.417346
C119	C	1.003495	-0.497630	-0.218900
C120	C	1.503495	0.002370	0.281100
C121	C	1.000662	-0.493210	-0.140358
C122	C	1.500662	0.006790	0.359642
H123	H	0.413552	-0.419871	-0.333212
H124	H	0.913552	0.080129	0.166788
H125	H	0.610868	-0.376697	-0.299060
H126	H	1.110868	0.123303	0.200940
H127	H	0.916958	-0.850875	-0.495755
H128	H	1.416958	-0.350875	0.004245
H129	H	0.607995	-0.595075	-0.471798
H130	H	1.107995	-0.095075	0.028202
O131	O	1.083221	-0.610164	-0.999039
O132	O	1.583221	-0.110164	-0.499039
H133	H	1.068618	-0.681072	-1.015743
H134	H	1.568618	-0.181072	-0.515743
H135	H	0.918288	-0.376655	-0.991642
H136	H	1.418288	0.123345	-0.491642
O137	O	1.114360	-0.654379	-0.824944
O138	O	1.614360	-0.154379	-0.324944
H139	H	1.109417	-0.647332	-0.881716
H140	H	1.609417	-0.147332	-0.381716
O141	O	1.114933	-1.175560	-0.298345
O142	O	1.614933	-0.675560	0.201655
H143	H	1.080282	-1.214949	-0.262896
H144	H	1.580282	-0.714949	0.237104
H145	H	1.074097	-0.850855	-0.338891
H146	H	1.574097	-0.350855	0.161109
O147	O	0.934897	-1.175587	-0.478050
O148	O	1.434897	-0.675587	0.021950
H149	H	0.880019	-1.153955	-0.462751
H150	H	1.380019	-0.653955	0.037249
H151	H	0.280304	-0.412710	-0.327563
H152	H	0.780304	0.087290	0.172437
O153	O	0.754047	-0.368476	-0.292531
O154	O	1.254047	0.131524	0.207469
H155	H	0.743492	-0.297588	-0.301081
H156	H	1.243492	0.202412	0.198919
O157	O	0.897646	-1.034267	-0.515142
O158	O	1.397646	-0.534267	-0.015142
H159	H	0.842771	-1.012629	-0.499837
H160	H	1.342771	-0.512629	0.000163
O161	O	0.932032	-0.396294	-0.653262
O162	O	1.432032	0.103706	-0.153262
H163	H	0.903948	-0.356521	-0.688257
H164	H	1.403948	0.143479	-0.188257
H165	H	0.948695	-0.419830	-0.798052
H166	H	1.448695	0.080170	-0.298052
H167	H	0.923373	-0.383773	-1.125520
H168	H	1.423373	0.116227	-0.625520
H169	H	1.077439	-0.601918	-1.141492
H170	H	1.577439	-0.101918	-0.641492
H171	H	0.410677	-0.638254	-0.505955
H172	H	0.910677	-0.138254	-0.005955
H173	H	1.097689	-0.630847	-0.680158
H174	H	1.597689	-0.130847	-0.180158
O175	O	0.750748	-0.618654	-0.490447
O176	O	1.250748	-0.118654	0.009553
H177	H	0.712316	-0.658459	-0.521948
H178	H	1.212316	-0.158459	-0.021948
O179	O	0.267510	-0.646480	-0.512481
O180	O	0.767510	-0.146480	-0.012481
H181	H	0.210398	-0.633293	-0.502061
H182	H	0.710398	-0.133293	-0.002061
O183	O	1.123324	-0.979707	-0.289836
O184	O	1.623324	-0.479707	0.210164
H185	H	1.151357	-1.028288	-0.261886
H186	H	1.651357	-0.528288	0.238114
