data_functionalizedCrystal
_audit_creation_method	'MofGen! by Chris Wilmer'
_symmetry_space_group_name_H-M	'P1'
_symmetry_Int_Tables_number	1
_symmetry_cell_setting	triclinic
loop_
_symmetry_equiv_pos_as_xyz
  x,y,z
_cell_length_a	14.044220
_cell_length_b	9.130313
_cell_length_c	14.044190
_cell_angle_alpha	89.990619
_cell_angle_beta	93.190328
_cell_angle_gamma	90.001436
loop_
_atom_site_label
_atom_site_type_symbol
_atom_site_fract_x
_atom_site_fract_y
_atom_site_fract_z
O1	O	1.277172	-0.121673	0.230168
O2	O	1.000501	-0.121709	0.221862
O3	O	1.134680	-0.121663	0.087679
O4	O	1.142993	-0.121720	0.364351
O5	O	1.134670	0.121936	0.087674
O6	O	1.000490	0.121890	0.221857
O7	O	1.277162	0.121926	0.230163
Cu8	Cu	1.138825	0.144150	0.226010
Cu9	Cu	1.138838	-0.143934	0.226016
O10	O	1.142983	0.121879	0.364346
C11	C	0.964874	0.000086	0.218224
C12	C	0.858731	0.000073	0.207380
N13	N	1.138824	0.346773	0.226005
N14	N	1.138846	-0.346556	0.226013
C15	C	0.664392	0.000106	0.187553
C16	C	0.613264	0.000097	0.264468
C17	C	0.505128	0.000115	0.253436
C18	C	0.772539	0.000088	0.198583
C19	C	1.312789	0.000127	0.233801
C20	C	1.418932	0.000130	0.244646
C21	C	1.131039	0.000140	0.052054
C22	C	1.120191	0.000152	-0.054089
C23	C	1.198262	0.423445	0.166618
C24	C	1.198271	0.576782	0.166619
C25	C	1.079401	0.576761	0.285403
C26	C	1.079387	0.423427	0.285396
C27	C	1.177292	0.000102	-0.299547
C28	C	1.100375	0.000102	-0.248422
C29	C	1.111404	0.000130	-0.140285
C30	C	1.166265	0.000074	-0.407694
C31	C	1.146624	0.000073	0.399971
C32	C	1.157472	0.000052	0.506114
H33	H	0.650706	0.000075	0.338602
O34	O	1.256101	0.651034	0.108904
C35	C	1.308535	0.550490	0.056468
H36	H	1.312912	0.441178	0.095702
H37	H	1.271544	0.534207	-0.017097
C38	C	1.404494	0.744582	-0.002624
C39	C	1.409876	0.610325	0.045568
H40	H	1.467004	0.781491	-0.009351
H41	H	1.369166	0.812321	0.032700
H42	H	1.373664	0.730994	-0.063922
H43	H	1.440694	0.623918	0.106869
H44	H	1.445211	0.542589	0.010254
H45	H	1.026243	0.000084	-0.285865
H46	H	0.626954	0.000130	0.113425
H47	H	1.031011	0.639187	0.333759
H48	H	1.246657	0.361037	0.118257
H49	H	1.251418	0.000126	-0.262106
H50	H	1.030981	0.360996	0.333757
