data_functionalizedCrystal
_audit_creation_method	'MofGen! by Chris Wilmer'
_symmetry_space_group_name_H-M	'P1'
_symmetry_Int_Tables_number	1
_symmetry_cell_setting	triclinic
loop_
_symmetry_equiv_pos_as_xyz
  x,y,z
_cell_length_a	9.065218
_cell_length_b	13.330367
_cell_length_c	9.065215
_cell_angle_alpha	89.994022
_cell_angle_beta	85.015291
_cell_angle_gamma	90.007104
loop_
_atom_site_label
_atom_site_type_symbol
_atom_site_fract_x
_atom_site_fract_y
_atom_site_fract_z
O1	O	1.960407	0.083424	0.216336
O2	O	1.531122	0.083425	0.234082
O3	O	1.754640	0.083420	0.010566
O4	O	1.736889	0.083429	0.439851
O5	O	1.754605	-0.083427	0.010602
O6	O	1.531087	-0.083422	0.234118
O7	O	1.960372	-0.083423	0.216371
Cu8	Cu	1.745727	-0.098657	0.225248
Cu9	Cu	1.745767	0.098659	0.225206
O10	O	1.736854	-0.083418	0.439887
C11	C	1.476118	0.000002	0.232394
C12	C	1.312275	0.000002	0.227295
N13	N	1.745709	-0.237439	0.225277
C14	C	1.836469	-0.710049	0.315921
C15	C	1.655109	-0.710042	0.134431
C16	C	1.655088	-0.605023	0.134454
C17	C	1.745760	-0.552513	0.225210
C18	C	1.836454	-0.605021	0.315943
C19	C	1.564407	-0.552507	0.043711
C20	C	1.564384	-0.447483	0.043729
C21	C	1.655049	-0.394970	0.134494
C22	C	1.745745	-0.447485	0.225232
C23	C	1.836418	-0.394975	0.315988
C24	C	1.927107	-0.447487	0.406735
C25	C	1.927119	-0.552509	0.406708
C26	C	1.655037	-0.289949	0.134521
C27	C	1.836402	-0.289947	0.316010
C28	C	2.015376	0.000002	0.218059
C29	C	2.179219	0.000009	0.223159
C30	C	1.752917	-0.000002	-0.044403
C31	C	1.747819	0.000001	-0.208246
N32	N	1.745797	0.237440	0.225165
C33	C	1.738576	0.000006	0.494856
C34	C	1.743674	0.000010	0.658699
H35	H	1.910233	-0.247200	0.389923
H36	H	2.000939	-0.404720	0.480622
H37	H	1.490538	-0.404736	-0.030162
H38	H	1.490599	-0.595269	-0.030190
H39	H	1.581203	-0.247198	0.060632
H40	H	2.000957	-0.595274	0.480586
H41	H	1.910301	-0.752810	0.389809
H42	H	1.581298	-0.752802	0.060532
