data_functionalizedCrystal
_audit_creation_method	'MofGen! by Chris Wilmer'
_symmetry_space_group_name_H-M	'P1'
_symmetry_Int_Tables_number	1
_symmetry_cell_setting	triclinic
loop_
_symmetry_equiv_pos_as_xyz
  x,y,z
_cell_length_a	17.038272
_cell_length_b	19.288865
_cell_length_c	17.766277
_cell_angle_alpha	90.011603
_cell_angle_beta	90.003583
_cell_angle_gamma	87.123902
loop_
_atom_site_label
_atom_site_type_symbol
_atom_site_fract_x
_atom_site_fract_y
_atom_site_fract_z
O1	O	-1.036886	-0.150802	-0.062515
O2	O	-0.536886	0.349198	0.437485
O3	O	-0.809263	-0.148407	-0.062537
O4	O	-0.309263	0.351593	0.437463
O5	O	-0.929651	-0.048881	-0.062511
O6	O	-0.429651	0.451119	0.437489
O7	O	-0.916497	-0.250328	-0.062542
O8	O	-0.416497	0.249672	0.437458
O9	O	-0.929630	-0.048874	0.062678
O10	O	-0.429630	0.451126	0.562678
O11	O	-0.809241	-0.148401	0.062651
O12	O	-0.309241	0.351599	0.562651
O13	O	-1.036865	-0.150795	0.062673
O14	O	-0.536865	0.349205	0.562673
Cu15	Cu	-0.923051	-0.149597	0.074093
Cu16	Cu	-0.423051	0.350403	0.574093
Cu17	Cu	-0.923076	-0.149605	-0.073957
Cu18	Cu	-0.423076	0.350395	0.426043
O19	O	-0.916476	-0.250321	0.062647
O20	O	-0.416476	0.249679	0.562647
C21	C	-0.780131	-0.146226	0.000055
C22	C	-0.280131	0.353774	0.500055
C23	C	-0.693359	-0.139728	0.000047
C24	C	-0.193359	0.360272	0.500047
C25	C	-0.929218	-0.022975	0.000086
C26	C	-0.429218	0.477025	0.500086
C27	C	-0.927947	0.054207	0.000092
C28	C	-0.427947	0.554207	0.500092
C29	C	-1.065996	-0.152976	0.000080
C30	C	-0.565996	0.347024	0.500080
C31	C	-1.152768	-0.159474	0.000083
C32	C	-0.652768	0.340526	0.500083
C33	C	-0.643052	-0.199384	0.000038
C34	C	-0.143052	0.300616	0.500038
C35	C	-0.561521	-0.193275	0.000050
C36	C	-0.061521	0.306725	0.500050
C37	C	-0.530299	-0.127509	0.000064
C38	C	-0.030299	0.372491	0.500064
C39	C	-0.580612	-0.067849	0.000075
C40	C	-0.080612	0.432151	0.500075
C41	C	-0.662141	-0.073959	0.000069
C42	C	-0.162141	0.426041	0.500069
C43	C	-0.284611	-0.105924	0.000088
C44	C	0.215389	0.394076	0.500088
C45	C	-0.203075	-0.099818	0.000091
C46	C	0.296925	0.400182	0.500091
C47	C	-0.183990	-0.225245	0.000067
C48	C	0.316010	0.274755	0.500067
C49	C	-0.265522	-0.231349	0.000057
C50	C	0.234478	0.268651	0.500057
C51	C	-0.315828	-0.171689	0.000072
C52	C	0.184172	0.328311	0.500072
C53	C	-0.446961	-0.121263	0.000073
C54	C	0.053039	0.378737	0.500073
C55	C	-0.399163	-0.177936	0.000068
C56	C	0.100837	0.322064	0.500068
C57	C	-0.916910	-0.276227	0.000049
C58	C	-0.416910	0.223773	0.500049
C59	C	-0.918180	-0.353409	0.000037
C60	C	-0.418180	0.146591	0.500037
N61	N	-0.923039	-0.149592	0.178223
N62	N	-0.423039	0.350408	0.678223
C63	C	-0.998586	0.094533	0.000103
C64	C	-0.498586	0.594533	0.500103
C65	C	-0.997392	0.167054	0.000091
C66	C	-0.497392	0.667054	0.500091
C67	C	-0.925556	0.199246	0.000083
C68	C	-0.425556	0.699246	0.500083
C69	C	-0.854908	0.158911	0.000069
C70	C	-0.354908	0.658911	0.500069
C71	C	-0.856103	0.086391	0.000073
C72	C	-0.356103	0.586391	0.500073
C73	C	-0.869076	0.311030	0.043929
C74	C	-0.369076	0.811030	0.543929
C75	C	-0.867884	0.383548	0.043929
C76	C	-0.367884	0.883548	0.543929
C77	C	-0.921865	0.422920	0.000066
C78	C	-0.421865	0.922920	0.500066
C79	C	-0.977052	0.389765	-0.043787
C80	C	-0.477052	0.889765	0.456213
C81	C	-0.978247	0.317246	-0.043783
C82	C	-0.478247	0.817246	0.456217
C83	C	-0.924251	0.277881	0.000078
C84	C	-0.424251	0.777881	0.500078
C85	C	-0.991214	0.541881	0.000063
C86	C	-0.491214	1.041881	0.500063
C87	C	-0.990017	0.614403	0.000046
C88	C	-0.490017	1.114403	0.500046
C89	C	-0.847531	0.606259	0.000031
C90	C	-0.347531	1.106259	0.500031
C91	C	-0.848730	0.533738	0.000040
C92	C	-0.348730	1.033738	0.500040
C93	C	-0.920573	0.501554	0.000060
C94	C	-0.420573	1.001554	0.500060
N95	N	-0.923094	-0.149606	-0.178087
N96	N	-0.423094	0.350394	0.321913
C97	C	-0.976365	-0.105546	0.217622
C98	C	-0.476365	0.394454	0.717622
C99	C	-0.976369	-0.105543	0.296424
C100	C	-0.476369	0.394457	0.796424
C101	C	-0.923056	-0.149598	0.335824
C102	C	-0.423056	0.350402	0.835824
C103	C	-0.869720	-0.193647	0.296416
C104	C	-0.369720	0.306353	0.796416
C105	C	-0.869712	-0.193644	0.217615
C106	C	-0.369712	0.306356	0.717615
C107	C	-0.912591	-0.212238	0.460652
C108	C	-0.412591	0.287762	0.960652
C109	C	-0.912605	-0.212243	0.539450
C110	C	-0.412605	0.287757	1.039450
C111	C	-0.923077	-0.149608	0.578870
C112	C	-0.423077	0.350392	1.078870
C113	C	-0.933552	-0.086966	0.539482
C114	C	-0.433552	0.413034	1.039482
C115	C	-0.933543	-0.086963	0.460681
C116	C	-0.433543	0.413037	0.960681
C117	C	-0.923058	-0.149606	0.421270
C118	C	-0.423058	0.350394	0.921270
C119	C	-0.976410	-0.105555	0.703715
C120	C	-0.476410	0.394445	1.203715
C121	C	-0.976409	-0.105551	0.782518
C122	C	-0.476409	0.394449	1.282518
C123	C	-0.869764	-0.193661	0.782509
C124	C	-0.369764	0.306339	1.282509
C125	C	-0.869761	-0.193659	0.703707
C126	C	-0.369761	0.306341	1.203707
C127	C	-0.923088	-0.149607	0.664315
C128	C	-0.423088	0.350393	1.164315
H129	H	-0.668467	-0.252938	0.000026
H130	H	-0.168467	0.247062	0.500026
H131	H	-0.555184	-0.014300	0.000098
H132	H	-0.055184	0.485700	0.500098
H133	H	-1.019830	-0.069679	0.814597
H134	H	-0.519830	0.430321	1.314597
H135	H	-0.798579	0.053558	0.000065
H136	H	-0.298579	0.553558	0.500065
Br137	Br	-0.797390	-0.253441	0.650231
Br138	Br	-0.297390	0.246559	1.150231
H139	H	-1.021008	0.421821	-0.079505
H140	H	-0.521008	0.921821	0.420495
H141	H	-1.019785	-0.069674	0.185551
H142	H	-0.519785	0.430326	0.685551
H143	H	-1.049713	0.515676	0.000075
H144	H	-0.549713	1.015676	0.500075
H145	H	-0.942078	-0.035963	0.571575
H146	H	-0.442078	0.464037	1.071575
H147	H	-0.421531	-0.067716	0.000106
H148	H	0.078469	0.432284	0.500106
Br149	Br	-0.792993	0.428536	0.103448
Br150	Br	-0.292993	0.928536	0.603448
Br151	Br	-1.085893	0.669134	0.000052
Br152	Br	-0.585893	1.169134	0.500052
H153	H	-0.703101	-0.025380	0.000076
H154	H	-0.203101	0.474620	0.500076
H155	H	-0.825116	0.278978	0.079651
H156	H	-0.325116	0.778978	0.579651
Br157	Br	-0.493250	-0.274241	0.000035
Br158	Br	0.006750	0.225759	0.500035
Br159	Br	-0.307889	-0.320606	0.000029
Br160	Br	0.192111	0.179394	0.500029
H161	H	-0.143023	-0.273817	0.000057
H162	H	0.356977	0.226183	0.500057
H163	H	-0.177657	-0.046261	0.000102
H164	H	0.322343	0.453739	0.500102
Br165	Br	-0.750037	0.649940	0.000014
Br166	Br	-0.250037	1.149940	0.500014
Br167	Br	-1.048744	-0.045760	0.349903
Br168	Br	-0.548744	0.454240	0.849903
H169	H	-0.325560	-0.057343	0.000100
H170	H	0.174440	0.442657	0.500100
H171	H	-0.424588	-0.231482	0.000060
H172	H	0.075412	0.268518	0.500060
Br173	Br	-1.096087	0.050857	0.000108
Br174	Br	-0.596087	0.550857	0.500108
Br175	Br	-1.093265	0.221793	0.000102
Br176	Br	-0.593265	0.721793	0.500102
Br177	Br	-0.898456	-0.297258	0.407161
Br178	Br	-0.398456	0.202742	0.907161
Br179	Br	-1.053136	0.272252	-0.103298
Br180	Br	-0.553136	0.772252	0.396702
H181	H	-0.826352	-0.229529	0.814588
H182	H	-0.326352	0.270471	1.314588
H183	H	-0.791208	0.500904	0.000036
H184	H	-0.291208	1.000904	0.500036
H185	H	-0.796418	0.185126	0.000061
H186	H	-0.296418	0.685126	0.500061
Br187	Br	-0.797360	-0.253432	0.349884
Br188	Br	-0.297360	0.246568	0.849884
Br189	Br	-0.947751	-0.001954	0.407227
Br190	Br	-0.447751	0.498046	0.907227
H191	H	-1.019830	-0.069683	0.671640
H192	H	-0.519830	0.430317	1.171640
Br193	Br	-0.898398	-0.297255	0.592899
Br194	Br	-0.398398	0.202745	1.092899
Br195	Br	-0.797336	-0.253424	0.164141
Br196	Br	-0.297336	0.246576	0.664141
