data_functionalizedCrystal
_audit_creation_method	'MofGen! by Chris Wilmer'
_symmetry_space_group_name_H-M	'P1'
_symmetry_Int_Tables_number	1
_symmetry_cell_setting	triclinic
loop_
_symmetry_equiv_pos_as_xyz
  x,y,z
_cell_length_a	29.839134
_cell_length_b	29.839131
_cell_length_c	12.594509
_cell_angle_alpha	90.034966
_cell_angle_beta	90.030743
_cell_angle_gamma	90.036281
loop_
_atom_site_label
_atom_site_type_symbol
_atom_site_fract_x
_atom_site_fract_y
_atom_site_fract_z
Zn1	Zn	0.686759	-0.178901	0.602077
Zn2	Zn	0.686679	-0.254036	0.424078
Zn3	Zn	0.611630	-0.178914	0.424077
Zn4	Zn	0.611589	-0.253998	0.601979
O5	O	0.649164	-0.216462	0.513053
O6	O	0.749615	-0.188879	0.578507
O7	O	0.676708	-0.244092	0.275132
O8	O	0.621646	-0.116045	0.447730
O9	O	0.749557	-0.244080	0.447732
O10	O	0.676843	-0.116036	0.578506
O11	O	0.621569	-0.188900	0.275131
O12	O	0.548757	-0.188864	0.447634
O13	O	0.621577	-0.244015	0.750938
O14	O	0.548727	-0.244028	0.578338
O15	O	0.676803	-0.188842	0.751010
O16	O	0.676668	-0.316898	0.447636
O17	O	0.621500	-0.316870	0.578339
C18	C	0.532442	-0.216443	0.512976
C19	C	0.482507	-0.216446	0.512968
C20	C	0.172858	-0.245229	0.581027
C21	C	-0.014815	-0.245242	0.581074
O22	O	-0.039085	-0.269693	0.638894
N23	N	-0.038278	-0.216479	0.513133
C24	C	-0.014819	-0.187709	0.445180
O25	O	-0.039082	-0.163242	0.387401
C26	C	0.172853	-0.187694	0.445139
C27	C	0.196313	-0.216462	0.513077
C28	C	0.196318	-0.273994	0.648960
C29	C	0.243233	-0.273992	0.648943
C30	C	0.266689	-0.245225	0.580994
C31	C	0.243228	-0.216460	0.513060
C32	C	0.196311	-0.158923	0.377192
C33	C	0.243232	-0.158921	0.377190
C34	C	0.266692	-0.187688	0.445128
C35	C	0.313599	-0.187692	0.445094
N36	N	0.337062	-0.216455	0.513035
C37	C	0.313606	-0.245221	0.580985
C38	C	-0.113350	-0.187719	0.445205
C39	C	-0.160268	-0.187723	0.445214
C40	C	-0.160261	-0.245255	0.581109
C41	C	-0.113342	-0.245253	0.581095
C42	C	-0.089887	-0.216482	0.513146
C43	C	0.412132	-0.245216	0.580944
C44	C	0.459052	-0.245213	0.580918
C45	C	0.459041	-0.187679	0.445027
C46	C	0.412125	-0.187684	0.445048
C47	C	0.388672	-0.216453	0.513016
O48	O	0.337898	-0.163250	0.387312
O49	O	0.337877	-0.269678	0.638772
C50	C	0.125942	-0.245231	0.581043
C51	C	0.102482	-0.216466	0.513110
C52	C	0.125937	-0.187699	0.445160
C53	C	0.055564	-0.216470	0.513119
C54	C	0.032109	-0.245236	0.581069
C55	C	0.055571	-0.273999	0.649010
C56	C	0.102487	-0.273997	0.648993
C57	C	0.102475	-0.158936	0.377219
C58	C	0.055559	-0.158941	0.377240
C59	C	0.032104	-0.187707	0.445190
C60	C	0.649083	-0.333185	0.513000
C61	C	0.649089	-0.383119	0.513013
C62	C	0.677943	-0.692765	0.445095
C63	C	0.677998	-0.880438	0.445137
O64	O	0.702466	-0.904704	0.387350
N65	N	0.649257	-0.903904	0.513133
C66	C	0.620503	-0.880450	0.581129
O67	O	0.596062	-0.904716	0.638973
C68	C	0.620450	-0.692778	0.581092
C69	C	0.649189	-0.669314	0.513084
C70	C	0.706680	-0.669300	0.377093
C71	C	0.706664	-0.622385	0.377079
C72	C	0.677911	-0.598934	0.445068
C73	C	0.649173	-0.622398	0.513070
C74	C	0.591698	-0.669325	0.649093
C75	C	0.591688	-0.622404	0.649080
C76	C	0.620427	-0.598939	0.581071
C77	C	0.620404	-0.552032	0.581045
N78	N	0.649145	-0.528565	0.513048
C79	C	0.677898	-0.552016	0.445060
C80	C	0.620532	-0.978981	0.581142
C81	C	0.620544	-1.025899	0.581150
C82	C	0.678040	-1.025883	0.445159
C83	C	0.678025	-0.978964	0.445146
C84	C	0.649273	-0.955514	0.513146
C85	C	0.677862	-0.453490	0.445035
C86	C	0.677843	-0.406570	0.445025
C87	C	0.620349	-0.406590	0.581019
C88	C	0.620366	-0.453506	0.581027
C89	C	0.649127	-0.476955	0.513031
O90	O	0.595953	-0.527736	0.638810
O91	O	0.702343	-0.527741	0.387241
C92	C	0.677958	-0.739680	0.445109
C93	C	0.649221	-0.763144	0.513111
C94	C	0.620468	-0.739693	0.581100
C95	C	0.649234	-0.810062	0.513119
C96	C	0.677987	-0.833513	0.445131
C97	C	0.706728	-0.810046	0.377134
C98	C	0.706712	-0.763131	0.377121
C99	C	0.591727	-0.763160	0.649096
C100	C	0.591745	-0.810076	0.649104
C101	C	0.620498	-0.833527	0.581115
C102	C	0.766342	-0.216482	0.513131
C103	C	0.816277	-0.216490	0.513164
C104	C	0.649194	-0.216423	0.790674
C105	C	0.649207	-0.216406	0.908979
C106	C	0.649258	-0.099284	0.513129
C107	C	0.649298	-0.049350	0.513162
C108	C	0.649160	-0.216469	0.236512
C109	C	0.649234	-0.216359	0.118207
C110	C	0.619179	-0.246398	0.978193
C111	C	0.660167	-0.257378	1.048997
C112	C	0.608251	-0.205399	1.048975
C113	C	0.690216	-0.227408	0.978225
C114	C	0.638273	-0.175410	0.978197
C115	C	0.679289	-0.186374	1.048968
H116	H	-0.094244	-0.268678	0.636417
H117	H	0.628999	-0.140769	0.947075
H118	H	0.568293	-0.688421	0.704468
O119	O	0.712980	-0.152752	1.089880
H120	H	0.704158	-0.118860	1.060253
O121	O	0.709056	-1.051186	0.371841
H122	H	0.701374	-1.042222	0.288274
H123	H	0.730067	-0.603283	0.321704
H124	H	0.573604	-0.196108	1.080054
H125	H	0.597117	-0.959891	0.636517
H126	H	0.730114	-0.744030	0.321742
O127	O	0.585572	-0.280043	0.937000
H128	H	0.594770	-0.314030	0.965351
O129	O	0.672437	-0.303273	1.090209
H130	H	0.647452	-0.328129	1.061873
H131	H	0.568275	-0.603313	0.704456
O132	O	0.589369	-0.478819	0.654373
H133	H	0.569374	-0.454627	0.701650
O134	O	0.736106	-0.239701	0.937012
H135	H	0.745313	-0.273605	0.965899
O136	O	0.386839	-0.276278	0.654170
H137	H	0.411041	-0.296292	0.701365
O138	O	0.484357	-0.276236	0.654209
H139	H	0.475325	-0.311487	0.635819
O140	O	0.268535	-0.305013	0.722235
H141	H	0.244336	-0.325010	0.769491
H142	H	0.730138	-0.829148	0.321773
O143	O	0.171023	-0.305075	0.722131
H144	H	0.195226	-0.325094	0.769311
H145	H	0.701283	-0.472576	0.389669
H146	H	0.568313	-0.744070	0.704462
O147	O	-0.185562	-0.276280	0.654411
H148	H	-0.222128	-0.271444	0.643004
O149	O	0.709029	-0.953655	0.371814
H150	H	0.701351	-0.962691	0.288256
H151	H	0.177217	-0.135498	0.321867
O152	O	-0.185573	-0.156703	0.371928
H153	H	-0.176547	-0.121452	0.390339
H154	H	0.262326	-0.135488	0.321863
O155	O	-0.088054	-0.156697	0.371888
H156	H	-0.112256	-0.136706	0.324638
H157	H	0.478146	-0.164260	0.389701
O158	O	0.386817	-0.156658	0.371773
H159	H	0.411011	-0.136653	0.324525
O160	O	0.030266	-0.305059	0.722218
H161	H	0.054457	-0.325078	0.769430
O162	O	0.560746	-0.835383	0.722461
H163	H	0.540755	-0.811189	0.769739
H164	H	0.121584	-0.297423	0.704316
O165	O	0.030257	-0.127909	0.303963
H166	H	0.054454	-0.107904	0.256723
H167	H	0.701246	-0.387467	0.389640
O168	O	0.127771	-0.127918	0.303904
H169	H	0.103569	-0.107925	0.256657
O170	O	0.589540	-1.051205	0.654485
H171	H	0.609637	-1.072550	0.708692
H172	H	0.596937	-0.387489	0.636372
O173	O	0.737692	-0.694590	0.303750
H174	H	0.757667	-0.670385	0.256464
