data_functionalizedCrystal
_audit_creation_method	'MofGen! by Chris Wilmer'
_symmetry_space_group_name_H-M	'P1'
_symmetry_Int_Tables_number	1
_symmetry_cell_setting	triclinic
loop_
_symmetry_equiv_pos_as_xyz
  x,y,z
_cell_length_a	18.101395
_cell_length_b	12.759401
_cell_length_c	12.759393
_cell_angle_alpha	90.021019
_cell_angle_beta	89.966555
_cell_angle_gamma	89.969961
loop_
_atom_site_label
_atom_site_type_symbol
_atom_site_fract_x
_atom_site_fract_y
_atom_site_fract_z
Zn1	Zn	-0.294807	-1.606136	-0.594038
Zn2	Zn	0.205193	-1.106136	-0.094038
Zn3	Zn	-0.418669	-1.605980	-0.418353
Zn4	Zn	0.081331	-1.105980	0.081647
Zn5	Zn	-0.294843	-1.430438	-0.418370
Zn6	Zn	0.205157	-0.930438	0.081630
Zn7	Zn	-0.418609	-1.430376	-0.593986
Zn8	Zn	0.081391	-0.930376	-0.093986
O9	O	-0.356732	-1.518232	-0.506187
O10	O	0.143268	-1.018232	-0.006187
O11	O	-0.311247	-1.753136	-0.570748
O12	O	0.188753	-1.253136	-0.070748
O13	O	-0.402283	-1.582654	-0.271334
O14	O	0.097717	-1.082654	0.228666
O15	O	-0.191205	-1.453835	-0.441702
O16	O	0.308795	-0.953835	0.058298
O17	O	-0.402248	-1.753021	-0.441672
O18	O	0.097752	-1.253021	0.058328
O19	O	-0.191179	-1.582920	-0.570764
O20	O	0.308821	-1.082920	-0.070764
O21	O	-0.311309	-1.453684	-0.271347
O22	O	0.188691	-0.953684	0.228653
O23	O	-0.311251	-1.283408	-0.441651
O24	O	0.188749	-0.783408	0.058349
O25	O	-0.402146	-1.453730	-0.741014
O26	O	0.097854	-0.953730	-0.241014
O27	O	-0.402181	-1.283363	-0.570676
O28	O	0.097819	-0.783363	-0.070676
O29	O	-0.311189	-1.582860	-0.741053
O30	O	0.188811	-1.082860	-0.241053
O31	O	-0.522294	-1.582594	-0.441622
O32	O	-0.022294	-1.082594	0.058378
O33	O	-0.522250	-1.453579	-0.570659
O34	O	-0.022250	-0.953579	-0.070659
C35	C	-0.356714	-1.245265	-0.506161
C36	C	0.143286	-0.745265	-0.006161
C37	C	-0.356724	-1.128488	-0.506174
C38	C	0.143276	-0.628488	-0.006174
C39	C	-0.404032	-1.073570	-0.438872
C40	C	0.095968	-0.573570	0.061128
C41	C	-0.404043	-0.963846	-0.438887
C42	C	0.095957	-0.463846	0.061113
C43	C	-0.309433	-0.963968	-0.573511
C44	C	0.190567	-0.463968	-0.073511
C45	C	-0.309426	-1.073690	-0.573500
C46	C	0.190574	-0.573690	-0.073500
C47	C	-0.451330	-1.128369	-0.371546
C48	C	0.048670	-0.628369	0.128454
C49	C	-0.498640	-1.073450	-0.304237
C50	C	0.001360	-0.573450	0.195763
C51	C	-0.498651	-0.963726	-0.304252
C52	C	0.001349	-0.463726	0.195748
C53	C	-0.451352	-0.908920	-0.371577
C54	C	0.048648	-0.408920	0.128423
C55	C	-0.549142	-1.518092	-0.506156
C56	C	-0.049142	-1.018092	-0.006156
C57	C	-0.631457	-1.518128	-0.506178
C58	C	-0.131457	-1.018128	-0.006178
C59	C	-0.930547	-1.518358	-0.506234
C60	C	-0.430547	-1.018358	-0.006234
C61	C	-0.899225	-1.437374	-0.587623
C62	C	-0.399225	-0.937374	-0.087623
C63	C	-0.813608	-1.436989	-0.587368
C64	C	-0.313608	-0.936989	-0.087368
C65	C	-0.782165	-1.518244	-0.506207
C66	C	-0.282165	-1.018244	-0.006207
C67	C	-0.813324	-1.488263	-0.395481
C68	C	-0.313324	-0.988263	0.104519
C69	C	-0.898969	-1.487741	-0.395968
C70	C	-0.398969	-0.987741	0.104032
C71	C	-0.898890	-1.629501	-0.534598
C72	C	-0.398890	-1.129501	-0.034598
C73	C	-0.813239	-1.628847	-0.537026
C74	C	-0.313239	-1.128847	-0.037026
C75	C	-0.698305	-1.518181	-0.506185
C76	C	-0.198305	-1.018181	-0.006185
C77	C	-1.014407	-1.518418	-0.506249
C78	C	-0.514407	-1.018418	-0.006249
C79	C	-0.163570	-1.518402	-0.506241
C80	C	0.336430	-1.018402	-0.006241
C81	C	-0.081256	-1.518474	-0.506264
C82	C	0.418744	-1.018474	-0.006264
C83	C	-0.356657	-1.518306	-0.780220
C84	C	0.143343	-1.018306	-0.280220
C85	C	-0.356625	-1.518337	-0.896997
C86	C	0.143375	-1.018337	-0.396997
C87	C	-0.356746	-0.792265	-0.506208
C88	C	0.143254	-0.292265	-0.006208
C89	C	-0.356742	-0.909042	-0.506201
C90	C	0.143258	-0.409042	-0.006201
C91	C	-0.309260	-1.585584	-0.951881
C92	C	0.190740	-1.085584	-0.451881
C93	C	-0.309233	-1.585609	-1.061605
C94	C	0.190767	-1.085609	-0.561605
C95	C	-0.403944	-1.451137	-1.061552
C96	C	0.096056	-0.951137	-0.561552
C97	C	-0.403966	-1.451108	-0.951830
C98	C	0.096034	-0.951108	-0.451830
C99	C	-0.261919	-1.652814	-0.897048
C100	C	0.238081	-1.152814	-0.397048
C101	C	-0.214550	-1.720068	-0.951931
C102	C	0.285450	-1.220068	-0.451931
C103	C	-0.214523	-1.720093	-1.061656
C104	C	0.285477	-1.220093	-0.561656
C105	C	-0.261865	-1.652864	-1.116496
C106	C	0.238135	-1.152864	-0.616496
C107	C	-0.356753	-1.518219	-0.233219
C108	C	0.143247	-1.018219	0.266781
C109	C	-0.356576	-1.518392	-0.116443
C110	C	0.143424	-1.018392	0.383557
H111	H	-0.451325	-1.217711	-0.371524
H112	H	0.048675	-0.717711	0.128476
H113	H	-0.442524	-1.396333	-0.907143
H114	H	0.057476	-0.896333	-0.407143
H115	H	-0.451370	-0.819576	-0.371591
H116	H	0.048630	-0.319576	0.128409
H117	H	-0.537155	-1.118080	-0.249431
H118	H	-0.037155	-0.618080	0.250569
C119	C	-0.261836	-1.652894	-1.237190
C120	C	0.238164	-1.152894	-0.737190
H121	H	-0.226848	-1.702576	-1.262026
H122	H	0.273152	-1.202576	-0.762026
H123	H	-0.249021	-1.585114	-1.262013
H124	H	0.250979	-1.085114	-0.762013
H125	H	-0.309625	-1.671034	-1.261991
H126	H	0.190375	-1.171034	-0.761991
H127	H	-0.270923	-0.919336	-0.628322
H128	H	0.229077	-0.419336	-0.128322
C129	C	-0.926051	-1.377987	-0.363521
C130	C	-0.426051	-0.877987	0.136479
H131	H	-0.884710	-1.334137	-0.350172
H132	H	-0.384710	-0.834137	0.149828
H133	H	-0.955308	-1.383362	-0.301929
H134	H	-0.455308	-0.883362	0.198071
H135	H	-0.954831	-1.348740	-0.418463
H136	H	-0.454831	-0.848740	0.081537
C137	C	-0.456021	-1.377198	-1.121869
C138	C	0.043979	-0.877198	-0.621869
H139	H	-0.484231	-1.337137	-1.073466
H140	H	0.015769	-0.837137	-0.573466
H141	H	-0.488282	-1.417371	-1.164662
H142	H	0.011718	-0.917371	-0.664662
H143	H	-0.427675	-1.331455	-1.164678
H144	H	0.072325	-0.831455	-0.664678
H145	H	-0.270903	-1.118405	-0.628301
H146	H	0.229097	-0.618405	-0.128301
C147	C	-0.785140	-1.462291	-0.698287
C148	C	-0.285140	-0.962291	-0.198287
H149	H	-0.825918	-1.472897	-0.743909
H150	H	-0.325918	-0.972897	-0.243909
H151	H	-0.755836	-1.524036	-0.696151
H152	H	-0.255836	-1.024036	-0.196151
H153	H	-0.756113	-1.405522	-0.723243
H154	H	-0.256113	-0.905522	-0.223243
H155	H	-0.919767	-1.455945	-0.669991
H156	H	-0.419767	-0.955945	-0.169991
C157	C	-0.550690	-0.903319	-0.230219
C158	C	-0.050690	-0.403319	0.269781
H159	H	-0.578852	-0.951673	-0.190119
H160	H	-0.078852	-0.451673	0.309881
H161	H	-0.582997	-0.860515	-0.270327
H162	H	-0.082997	-0.360515	0.229673
H163	H	-0.522319	-0.860513	-0.184517
H164	H	-0.022319	-0.360513	0.315483
C165	C	-0.785714	-1.659404	-0.647100
C166	C	-0.285714	-1.159404	-0.147100
H167	H	-0.755407	-1.604994	-0.674168
H168	H	-0.255407	-1.104994	-0.174168
H169	H	-0.826843	-1.669653	-0.692154
H170	H	-0.326843	-1.169653	-0.192154
H171	H	-0.757892	-1.722412	-0.642879
H172	H	-0.257892	-1.222412	-0.142879
H173	H	-0.920433	-1.656833	-0.613963
H174	H	-0.420433	-1.156833	-0.113963
C175	C	-0.162476	-1.794010	-0.891612
C176	C	0.337524	-1.294010	-0.391612
H177	H	-0.169280	-1.784373	-0.818405
H178	H	0.330720	-1.284373	-0.318405
H179	H	-0.112712	-1.778687	-0.909608
H180	H	0.387288	-1.278687	-0.409608
H181	H	-0.173323	-1.864598	-0.909601
H182	H	0.326677	-1.364598	-0.409601
C183	C	-0.928377	-1.326757	-0.562561
C184	C	-0.428377	-0.826757	-0.062561
H185	H	-0.959552	-1.329713	-0.502711
H186	H	-0.459552	-0.829713	-0.002711
H187	H	-0.955616	-1.300947	-0.620704
H188	H	-0.455616	-0.800947	-0.120704
H189	H	-0.887942	-1.281370	-0.548784
H190	H	-0.387942	-0.781370	-0.048784
C191	C	-0.786012	-1.325705	-0.561974
C192	C	-0.286012	-0.825705	-0.061974
H193	H	-0.827146	-1.280558	-0.551763
H194	H	-0.327146	-0.780558	-0.051763
H195	H	-0.756859	-1.300468	-0.618506
H196	H	-0.256859	-0.800468	-0.118506
H197	H	-0.757017	-1.327431	-0.499962
H198	H	-0.257017	-0.827431	0.000038
H199	H	-0.919692	-1.544168	-0.333260
H200	H	-0.419692	-1.044168	0.166740
H201	H	-0.791940	-1.407879	-0.371024
H202	H	-0.291940	-0.907879	0.128976
C203	C	-0.785811	-1.565429	-0.311321
C204	C	-0.285811	-1.065429	0.188679
H205	H	-0.755000	-1.616736	-0.343040
H206	H	-0.255000	-1.116736	0.156960
H207	H	-0.826924	-1.598830	-0.279314
H208	H	-0.326924	-1.098830	0.220686
H209	H	-0.758519	-1.528324	-0.259695
H210	H	-0.258519	-1.028324	0.240305
H211	H	-0.791832	-1.692377	-0.482068
H212	H	-0.291832	-1.192377	0.017932
H213	H	-0.919146	-1.689837	-0.475320
H214	H	-0.419146	-1.189837	0.024680
C215	C	-0.261943	-1.652786	-0.776356
C216	C	0.238057	-1.152786	-0.276356
H217	H	-0.226962	-1.702449	-0.751558
H218	H	0.273038	-1.202449	-0.251558
H219	H	-0.309741	-1.670897	-0.751517
H220	H	0.190259	-1.170897	-0.251517
H221	H	-0.249128	-1.584990	-0.751533
H222	H	0.250872	-1.084990	-0.251533
C223	C	-0.162420	-1.794065	-1.122025
C224	C	0.337580	-1.294065	-0.622025
H225	H	-0.134235	-1.834102	-1.073651
H226	H	0.365765	-1.334102	-0.573651
H227	H	-0.130137	-1.753922	-1.164837
H228	H	0.369863	-1.253922	-0.664837
H229	H	-0.190750	-1.839828	-1.164820
H230	H	0.309250	-1.339828	-0.664820
