data_functionalizedCrystal
_audit_creation_method	'MofGen! by Chris Wilmer'
_symmetry_space_group_name_H-M	'P1'
_symmetry_Int_Tables_number	1
_symmetry_cell_setting	triclinic
loop_
_symmetry_equiv_pos_as_xyz
  x,y,z
_cell_length_a	27.732064
_cell_length_b	19.188930
_cell_length_c	18.266242
_cell_angle_alpha	89.988525
_cell_angle_beta	89.998592
_cell_angle_gamma	82.897103
loop_
_atom_site_label
_atom_site_type_symbol
_atom_site_fract_x
_atom_site_fract_y
_atom_site_fract_z
O1	O	0.641179	0.083134	-0.060758
O2	O	1.141179	0.583134	0.439242
O3	O	0.500425	0.095754	-0.060790
O4	O	1.000425	0.595754	0.439210
O5	O	0.574864	-0.012237	-0.060759
O6	O	1.074864	0.487763	0.439241
O7	O	0.566740	0.191125	-0.060789
O8	O	1.066740	0.691125	0.439211
O9	O	0.574852	-0.012242	0.061003
O10	O	1.074852	0.487758	0.561003
O11	O	0.500413	0.095749	0.060972
O12	O	1.000413	0.595749	0.560972
O13	O	0.641167	0.083129	0.061004
O14	O	1.141167	0.583129	0.561004
Zn15	Zn	0.570788	0.089438	0.080320
Zn16	Zn	1.070788	0.589438	0.580320
Zn17	Zn	0.570804	0.089445	-0.080106
Zn18	Zn	1.070804	0.589445	0.419894
O19	O	0.566728	0.191120	0.060973
O20	O	1.066728	0.691120	0.560973
C21	C	0.482411	0.095485	0.000088
C22	C	0.982411	0.595485	0.500088
C23	C	0.428755	0.094682	0.000076
C24	C	0.928755	0.594682	0.500076
C25	C	0.051470	0.025398	0.000128
C26	C	0.551470	0.525398	0.500128
C27	C	0.253139	0.028353	0.000109
C28	C	0.753139	0.528353	0.500109
O29	O	0.284228	-0.025409	0.000144
O30	O	0.784228	0.474591	0.500144
N31	N	0.272463	0.092390	0.000096
N32	N	0.772463	0.592390	0.500096
C33	C	0.241365	0.155692	0.000093
C34	C	0.741365	0.655692	0.500093
O35	O	0.262428	0.210227	0.000089
O36	O	0.762428	0.710227	0.500089
C37	C	0.039697	0.152736	0.000118
C38	C	0.539697	0.652736	0.500118
C39	C	0.020376	0.088695	0.000123
C40	C	0.520376	0.588695	0.500123
C41	C	0.032149	-0.038638	0.000135
C42	C	0.532149	0.461362	0.500135
C43	C	-0.018265	-0.039376	0.000135
C44	C	0.481735	0.460624	0.500135
C45	C	-0.049359	0.023921	0.000130
C46	C	0.450641	0.523921	0.500130
C47	C	-0.030038	0.087957	0.000124
C48	C	0.469962	0.587957	0.500124
C49	C	0.008600	0.216038	0.000120
C50	C	0.508600	0.716038	0.500120
C51	C	-0.041820	0.215293	0.000128
C52	C	0.458180	0.715293	0.500128
C53	C	-0.061140	0.151252	0.000133
C54	C	0.438860	0.651252	0.500133
C55	C	-0.111546	0.150516	0.000119
C56	C	0.388454	0.650516	0.500119
N57	N	-0.130869	0.086479	0.000132
N58	N	0.369131	0.586479	0.500132
C59	C	-0.099776	0.023182	0.000138
C60	C	0.400224	0.523182	0.500138
C61	C	0.347244	0.157240	0.000078
C62	C	0.847244	0.657240	0.500078
C63	C	0.397661	0.157979	0.000071
C64	C	0.897661	0.657979	0.500071
C65	C	0.409432	0.030640	0.000088
C66	C	0.909432	0.530640	0.500088
C67	C	0.359014	0.029901	0.000091
C68	C	0.859014	0.529901	0.500091
C69	C	0.327921	0.093203	0.000091
C70	C	0.827921	0.593203	0.500091
C71	C	-0.205650	0.021636	0.000139
C72	C	0.294350	0.521636	0.500139
C73	C	-0.256069	0.020904	0.000137
C74	C	0.243931	0.520904	0.500137
C75	C	-0.267836	0.148243	0.000123
C76	C	0.232164	0.648243	0.500123
C77	C	-0.217421	0.148976	0.000121
C78	C	0.282579	0.648976	0.500121
C79	C	-0.186328	0.085667	0.000132
C80	C	0.313672	0.585667	0.500132
O81	O	-0.142663	0.204250	0.000092
O82	O	0.357337	0.704250	0.500092
O83	O	-0.120848	-0.031345	0.000158
O84	O	0.379152	0.468655	0.500158
C85	C	0.101884	0.026136	0.000127
C86	C	0.601884	0.526136	0.500127
C87	C	0.121205	0.090171	0.000121
C88	C	0.621205	0.590171	0.500121
C89	C	0.090112	0.153469	0.000116
C90	C	0.590112	0.653469	0.500116
C91	C	0.171622	0.090911	0.000114
C92	C	0.671622	0.590911	0.500114
C93	C	0.202716	0.027613	0.000119
C94	C	0.702716	0.527613	0.500119
C95	C	0.183392	-0.036424	0.000132
C96	C	0.683392	0.463576	0.500132
C97	C	0.132978	-0.037162	0.000133
C98	C	0.632978	0.462838	0.500133
C99	C	0.109435	0.217506	0.000103
C100	C	0.609435	0.717506	0.500103
C101	C	0.159850	0.218239	0.000101
C102	C	0.659850	0.718239	0.500101
C103	C	0.190943	0.154941	0.000107
C104	C	0.690943	0.654941	0.500107
C105	C	0.574595	-0.038249	0.000124
C106	C	1.074595	0.461751	0.500124
C107	C	0.573805	-0.115749	0.000130
C108	C	1.073805	0.384251	0.500130
C109	C	0.659180	0.083398	0.000125
C110	C	1.159180	0.583398	0.500125
C111	C	0.712837	0.084201	0.000131
C112	C	1.212837	0.584201	0.500131
C113	C	0.617483	-0.160947	0.000144
C114	C	1.117483	0.339053	0.500144
C115	C	0.616741	-0.233767	0.000132
C116	C	1.116741	0.266233	0.500132
C117	C	0.572319	-0.261384	0.000121
C118	C	1.072319	0.238616	0.500121
C119	C	0.528635	-0.216175	0.000104
C120	C	1.028635	0.283825	0.500104
C121	C	0.529378	-0.143357	0.000108
C122	C	1.029378	0.356643	0.500108
N123	N	0.538359	-0.369177	0.041552
N124	N	1.038359	0.130823	0.541552
N125	N	0.537656	-0.438351	0.041549
N126	N	1.037656	0.061649	0.541549
C127	C	0.570077	-0.480778	0.000106
C128	C	1.070077	0.019222	0.500106
N129	N	0.603235	-0.451419	-0.041325
N130	N	1.103235	0.048581	0.458675
N131	N	0.603940	-0.382239	-0.041319
N132	N	1.103940	0.117761	0.458681
C133	C	0.571508	-0.340341	0.000116
C134	C	1.071508	0.159659	0.500116
C135	C	0.612954	-0.604936	0.000105
C136	C	1.112954	-0.104936	0.500105
C137	C	0.612210	-0.677756	0.000089
C138	C	1.112210	-0.177756	0.500089
C139	C	0.524102	-0.660163	0.000068
C140	C	1.024102	-0.160163	0.500068
C141	C	0.524847	-0.587345	0.000078
C142	C	1.024847	-0.087345	0.500078
C143	C	0.569274	-0.559736	0.000099
C144	C	1.069274	-0.059736	0.500099
C145	C	0.566997	0.217132	0.000088
C146	C	1.066997	0.717132	0.500088
C147	C	0.567787	0.294632	0.000077
C148	C	1.067787	0.794632	0.500077
N149	N	0.570780	0.089433	0.189807
N150	N	1.070780	0.589433	0.689807
N151	N	0.570816	0.089445	-0.189593
N152	N	1.070816	0.589445	0.310407
C153	C	0.603752	0.041637	0.228130
C154	C	1.103752	0.541637	0.728130
C155	C	0.603755	0.041634	0.304775
C156	C	1.103755	0.541634	0.804775
C157	C	0.570791	0.089438	0.343094
C158	C	1.070791	0.589438	0.843094
C159	C	0.537812	0.137237	0.304762
C160	C	1.037812	0.637237	0.804762
C161	C	0.537807	0.137234	0.228119
C162	C	1.037807	0.637234	0.728119
N163	N	0.564508	0.151285	0.463416
N164	N	1.064508	0.651285	0.963416
N165	N	0.564516	0.151285	0.536225
N166	N	1.064516	0.651285	1.036225
C167	C	0.570804	0.089448	0.574017
C168	C	1.070804	0.589448	1.074017
N169	N	0.577094	0.027608	0.536250
N170	N	1.077094	0.527608	1.036250
N171	N	0.577088	0.027608	0.463435
N172	N	1.077088	0.527608	0.963435
C173	C	0.570793	0.089446	0.426201
C174	C	1.070793	0.589446	0.926201
C175	C	0.603782	0.041645	0.695446
C176	C	1.103782	0.541645	1.195446
C177	C	0.603781	0.041641	0.772093
C178	C	1.103781	0.541641	1.272093
C179	C	0.537841	0.137250	0.772079
C180	C	1.037841	0.637250	1.272079
C181	C	0.537839	0.137248	0.695434
C182	C	1.037839	0.637248	1.195434
C183	C	0.570812	0.089447	0.657122
C184	C	1.070812	0.589447	1.157122
H185	H	-0.201690	0.201123	0.000116
H186	H	0.298310	0.701123	0.500116
H187	H	0.492466	-0.238665	0.000094
H188	H	0.992466	0.261335	0.500094
C189	C	-0.076019	0.284927	0.000121
C190	C	0.423981	0.784927	0.500121
H191	H	-0.057289	0.323168	0.000110
H192	H	0.442711	0.823168	0.500110
H193	H	-0.095934	0.287286	0.042581
H194	H	0.404066	0.787286	0.542581
H195	H	-0.095930	0.287289	-0.042347
H196	H	0.404070	0.787289	0.457653
H197	H	0.084123	0.269051	0.000100
H198	H	0.584123	0.769051	0.500100
C199	C	0.661819	-0.574560	0.000120
C200	C	1.161819	-0.074560	0.500120
H201	H	0.656006	-0.524718	0.000131
H202	H	1.156006	-0.024718	0.500131
H203	H	0.679802	-0.590095	-0.042338
H204	H	1.179802	-0.090095	0.457662
H205	H	0.679793	-0.590119	0.042589
H206	H	1.179793	-0.090119	0.542589
C207	C	0.501580	0.189834	0.814221
C208	C	1.001580	0.689834	1.314221
H209	H	0.506307	0.182993	0.865356
H210	H	1.006307	0.682993	1.365356
H211	H	0.469337	0.182570	0.801667
H212	H	0.969337	0.682570	1.301667
H213	H	0.506732	0.236383	0.801648
H214	H	1.006732	0.736383	1.301648
H215	H	-0.293161	0.199778	0.000115
H216	H	0.206839	0.699778	0.500115
C217	C	-0.039511	-0.109822	0.000155
C218	C	0.460489	0.390178	0.500155
H219	H	-0.013767	-0.147408	0.000166
H220	H	0.486233	0.352592	0.500166
H221	H	-0.058937	-0.112765	-0.042301
H222	H	0.441063	0.387235	0.457699
H223	H	-0.058929	-0.112759	0.042627
H224	H	0.441071	0.387241	0.542627
H225	H	0.117253	-0.089310	0.000137
H226	H	0.617253	0.410690	0.500137
H227	H	0.434757	-0.020900	0.000090
H228	H	0.934757	0.479100	0.500090
C229	C	0.481330	-0.093637	0.000101
C230	C	0.981330	0.406363	0.500101
H231	H	0.454766	-0.120511	0.000096
H232	H	0.954766	0.379489	0.500096
H233	H	0.479793	-0.064851	-0.042356
H234	H	0.979793	0.435149	0.457644
H235	H	0.479785	-0.064879	0.042572
H236	H	0.979785	0.435121	0.542572
H237	H	0.175575	0.270392	0.000092
H238	H	0.675575	0.770392	0.500092
H239	H	0.057461	-0.090186	0.000141
H240	H	0.557461	0.409814	0.500141
C241	C	0.640027	-0.010939	0.346942
C242	C	1.140027	0.489061	0.846942
H243	H	0.635305	-0.004092	0.398075
H244	H	1.135305	0.495908	0.898075
H245	H	0.672267	-0.003670	0.334373
H246	H	1.172267	0.496330	0.834373
H247	H	0.634878	-0.057492	0.334398
H248	H	1.134878	0.442508	0.834398
C249	C	0.313047	0.226877	0.000071
C250	C	0.813047	0.726877	0.500071
H251	H	0.331781	0.265115	0.000054
H252	H	0.831781	0.765115	0.500054
H253	H	0.293135	0.229242	0.042533
H254	H	0.793135	0.729242	0.542533
H255	H	0.293135	0.229239	-0.042395
H256	H	0.793135	0.729239	0.457605
H257	H	0.630599	0.002713	0.196939
H258	H	1.130599	0.502713	0.696939
C259	C	0.475238	-0.690533	0.000055
C260	C	0.975238	-0.190533	0.500055
H261	H	0.481050	-0.740375	0.000057
H262	H	0.981050	-0.240375	0.500057
H263	H	0.457264	-0.674974	-0.042409
H264	H	0.957264	-0.174974	0.457591
H265	H	0.457256	-0.674997	0.042518
H266	H	0.957256	-0.174997	0.542518
H267	H	0.510971	0.176159	0.335966
H268	H	1.010971	0.676159	0.835966
H269	H	0.510991	0.176170	0.664230
H270	H	1.010991	0.676170	1.164230
H271	H	0.489279	-0.550543	0.000071
H272	H	0.989279	-0.050543	0.500071
H273	H	0.653659	-0.138474	0.000159
H274	H	1.153659	0.361526	0.500159
H275	H	0.208718	-0.087963	0.000132
H276	H	0.708718	0.412037	0.500132
C277	C	0.664789	-0.283494	0.000151
C278	C	1.164789	0.216506	0.500151
H279	H	0.691354	-0.256622	0.000170
H280	H	1.191354	0.243378	0.500170
H281	H	0.666338	-0.312260	-0.042308
H282	H	1.166338	0.187740	0.457692
H283	H	0.666320	-0.312271	0.042619
H284	H	1.166320	0.187729	0.542619
H285	H	0.647779	-0.714557	0.000096
H286	H	1.147779	-0.214557	0.500096
C287	C	0.501539	0.189816	0.185962
C288	C	1.001539	0.689816	0.685962
H289	H	0.481908	0.218290	0.219758
H290	H	0.981908	0.718290	0.719758
H291	H	0.481472	0.164899	0.156070
H292	H	0.981472	0.664899	0.656070
H293	H	0.518867	0.218712	0.156058
H294	H	1.018867	0.718712	0.656058
C295	C	0.640045	-0.010940	0.653300
C296	C	1.140045	0.489060	1.153300
H297	H	0.659678	-0.039414	0.687104
H298	H	1.159678	0.460586	1.187104
H299	H	0.660110	0.013976	0.623392
H300	H	1.160110	0.513976	1.123392
H301	H	0.622714	-0.039835	0.623413
H302	H	1.122714	0.460165	1.123413
H303	H	0.630630	0.002717	0.803295
H304	H	1.130630	0.502717	1.303295
C305	C	-0.171456	-0.048002	0.000140
C306	C	0.328544	0.451998	0.500140
H307	H	-0.190189	-0.086240	0.000135
H308	H	0.309811	0.413760	0.500135
H309	H	-0.151539	-0.050376	0.042597
H310	H	0.348461	0.449624	0.542597
H311	H	-0.151547	-0.050355	-0.042331
H312	H	0.348453	0.449645	0.457669
C313	C	-0.277321	-0.049542	0.000141
C314	C	0.222679	0.450458	0.500141
H315	H	-0.311801	-0.040921	0.000134
H316	H	0.188199	0.459079	0.500134
H317	H	-0.266639	-0.075587	0.042604
H318	H	0.233361	0.424413	0.542604
H319	H	-0.266638	-0.075573	-0.042324
H320	H	0.233362	0.424427	0.457676
C321	C	0.418908	0.228424	0.000058
C322	C	0.918908	0.728424	0.500058
H323	H	0.393165	0.266012	0.000063
H324	H	0.893165	0.766012	0.500063
H325	H	0.438329	0.231368	-0.042405
H326	H	0.938329	0.731368	0.457595
H327	H	0.438331	0.231357	0.042523
H328	H	0.938331	0.731357	0.542523
C329	C	0.337766	-0.040543	0.000104
C330	C	0.837766	0.459457	0.500104
H331	H	0.363509	-0.078131	0.000110
H332	H	0.863509	0.421869	0.500110
H333	H	0.318340	-0.043479	-0.042352
H334	H	0.818340	0.456521	0.457648
H335	H	0.318348	-0.043483	0.042576
H336	H	0.818348	0.456517	0.542576
H337	H	0.024321	0.268187	0.000112
H338	H	0.524321	0.768187	0.500112
