data_functionalizedCrystal
_audit_creation_method	'MofGen! by Chris Wilmer'
_symmetry_space_group_name_H-M	'P1'
_symmetry_Int_Tables_number	1
_symmetry_cell_setting	triclinic
loop_
_symmetry_equiv_pos_as_xyz
  x,y,z
_cell_length_a	10.686285
_cell_length_b	21.295418
_cell_length_c	10.686551
_cell_angle_alpha	94.418925
_cell_angle_beta	80.915481
_cell_angle_gamma	94.352044
loop_
_atom_site_label
_atom_site_type_symbol
_atom_site_fract_x
_atom_site_fract_y
_atom_site_fract_z
Zn1	Zn	-0.449455	-1.005675	-0.679928
Zn2	Zn	-0.678035	-1.005625	-0.451426
Zn3	Zn	-0.465888	-0.892902	-0.467587
Zn4	Zn	-0.661721	-0.907907	-0.663540
O5	O	-0.563775	-0.953027	-0.565620
O6	O	-0.479726	-1.093760	-0.649712
O7	O	-0.663598	-0.984371	-0.275933
O8	O	-0.286090	-0.901604	-0.509376
O9	O	-0.647663	-1.093722	-0.481832
O10	O	-0.274016	-0.984458	-0.665382
O11	O	-0.507735	-0.901554	-0.287807
O12	O	-0.491916	-0.806802	-0.493485
O13	O	-0.619858	-0.927177	-0.843350
O14	O	-0.635793	-0.817825	-0.637451
O15	O	-0.463908	-0.999007	-0.855390
O16	O	-0.853489	-0.998920	-0.465941
O17	O	-0.841503	-0.927128	-0.621780
C18	C	-0.893548	-0.964665	-0.540356
C19	C	-1.034623	-0.969702	-0.529591
C20	C	-0.563868	-0.789472	-0.565444
C21	C	-0.563937	-0.719505	-0.565396
C22	C	-0.638974	-0.692395	-0.640225
C23	C	-0.638944	-0.626653	-0.640274
C24	C	-0.563893	-0.588024	-0.565472
C25	C	-0.488841	-0.615142	-0.490639
C26	C	-0.488862	-0.680882	-0.490601
N27	N	-0.562525	-0.480474	-0.455190
N28	N	-0.562511	-0.418023	-0.455228
C29	C	-0.563820	-0.389951	-0.565582
N30	N	-0.565168	-0.426689	-0.675897
N31	N	-0.565188	-0.489145	-0.675856
C32	C	-0.563860	-0.516739	-0.565505
C33	C	-0.638829	-0.291556	-0.640471
C34	C	-0.638791	-0.225813	-0.640523
C35	C	-0.488695	-0.214303	-0.490876
C36	C	-0.488726	-0.280045	-0.490835
C37	C	-0.563800	-0.318667	-0.565631
C38	C	-0.232711	-0.941363	-0.591010
C39	C	-0.091632	-0.936392	-0.601830
C40	C	-0.538230	-0.964771	-0.896717
C41	C	-0.527345	-0.969776	-1.037811
C42	C	-0.563705	-0.117220	-0.565759
C43	C	-0.563737	-0.187188	-0.565721
C44	C	-0.589128	-0.941362	-0.235818
C45	C	-0.599656	-0.936467	-0.094753
H46	H	-1.093744	-1.002070	-0.459498
O47	O	-0.683523	-0.897962	-1.024000
C48	C	-0.771347	-0.934006	-0.941089
H49	H	-0.728056	-0.979444	-0.924848
H50	H	-0.861515	-0.946025	-0.984897
C51	C	-0.857126	-0.839960	-0.833229
C52	C	-0.803951	-0.895764	-0.813273
H53	H	-0.877243	-0.816370	-0.754388
H54	H	-0.797961	-0.815675	-0.889091
H55	H	-0.932260	-0.849983	-0.869740
H56	H	-0.728811	-0.885740	-0.776779
H57	H	-0.863104	-0.920046	-0.757403
H58	H	-0.457109	-1.002128	-1.097007
O59	O	-0.711949	-0.600412	-0.713004
C60	C	-0.778180	-0.648599	-0.779044
H61	H	-0.786532	-0.693748	-0.726686
H62	H	-0.724406	-0.657428	-0.879073
C63	C	-0.901630	-0.572866	-0.851093
C64	C	-0.911897	-0.628318	-0.786781
H65	H	-0.984111	-0.560356	-0.855872
H66	H	-0.857006	-0.540401	-0.806605
H67	H	-0.856813	-0.580231	-0.934444
H68	H	-0.956699	-0.620950	-0.703427
H69	H	-0.956532	-0.660781	-0.831256
H70	H	-1.032506	-0.904018	-0.671919
O71	O	-0.416014	-0.577687	-0.417789
C72	C	-0.453348	-0.590171	-0.289106
H73	H	-0.502360	-0.639516	-0.282637
H74	H	-0.521833	-0.553920	-0.241267
C75	C	-0.275211	-0.525513	-0.229850
C76	C	-0.335399	-0.586122	-0.221904
H77	H	-0.202457	-0.523012	-0.188393
H78	H	-0.250061	-0.517100	-0.316545
H79	H	-0.332295	-0.495311	-0.189985
H80	H	-0.278321	-0.616322	-0.261782
H81	H	-0.360537	-0.594539	-0.135214
O82	O	-0.416156	-0.707294	-0.417826
C83	C	-0.494649	-0.744888	-0.330148
H84	H	-0.587470	-0.759707	-0.367381
H85	H	-0.515696	-0.716660	-0.235014
C86	C	-0.312569	-0.785868	-0.266861
C87	C	-0.426569	-0.804073	-0.312596
H88	H	-0.270573	-0.822375	-0.256029
H89	H	-0.259686	-0.760538	-0.325927
H90	H	-0.330124	-0.762343	-0.187587
H91	H	-0.409011	-0.827590	-0.391876
H92	H	-0.479447	-0.829408	-0.253543
H93	H	-0.700103	-0.723838	-0.701131
H94	H	-0.699952	-0.323004	-0.701381
H95	H	-0.699892	-0.203741	-0.701466
O96	O	-0.415938	-0.176695	-0.418210
C97	C	-0.431997	-0.112856	-0.434297
H98	H	-0.526797	-0.108802	-0.468251
H99	H	-0.351562	-0.093979	-0.507750
C100	C	-0.313700	-0.079074	-0.265079
C101	C	-0.430140	-0.074095	-0.306771
H102	H	-0.312549	-0.055164	-0.186417
H103	H	-0.302877	-0.122083	-0.254243
H104	H	-0.246684	-0.063345	-0.326300
H105	H	-0.497153	-0.089832	-0.245557
H106	H	-0.440975	-0.031087	-0.317593
H107	H	-0.427629	-0.302118	-0.429895
