data_functionalizedCrystal
_audit_creation_method	'MofGen! by Chris Wilmer'
_symmetry_space_group_name_H-M	'P1'
_symmetry_Int_Tables_number	1
_symmetry_cell_setting	triclinic
loop_
_symmetry_equiv_pos_as_xyz
  x,y,z
_cell_length_a	10.723023
_cell_length_b	10.540510
_cell_length_c	9.798715
_cell_angle_alpha	90.000670
_cell_angle_beta	90.003230
_cell_angle_gamma	84.490429
loop_
_atom_site_label
_atom_site_type_symbol
_atom_site_fract_x
_atom_site_fract_y
_atom_site_fract_z
O1	O	1.657258	0.178044	0.113469
O2	O	1.294112	0.195087	0.113474
O3	O	1.483989	0.001852	0.113471
O4	O	1.467380	0.371279	0.113472
O5	O	1.483975	0.001852	-0.113511
O6	O	1.294098	0.195087	-0.113508
O7	O	1.657243	0.178043	-0.113513
Zn8	Zn	1.475668	0.186565	-0.149549
Zn9	Zn	1.475687	0.186566	0.149510
O10	O	1.467366	0.371278	-0.113510
C11	C	1.247605	0.193847	-0.000016
C12	C	1.109049	0.190137	-0.000014
C13	C	1.047269	0.188482	-0.117597
C14	C	0.904064	0.184647	-0.117597
C15	C	1.482744	-0.045451	-0.000017
C16	C	1.479041	-0.186399	-0.000009
C17	C	1.610948	-0.403923	-0.000531
C18	C	1.614898	-0.257329	-0.000012
C19	C	1.409504	-0.231121	0.129607
C20	C	1.406516	-0.377881	0.129709
C21	C	1.403671	-0.377688	-0.128413
C22	C	1.410115	-0.231351	-0.130119
C23	C	1.703751	0.179283	-0.000020
C24	C	1.842306	0.182994	-0.000013
C25	C	1.468611	0.418581	-0.000019
C26	C	1.472314	0.559529	-0.000018
N27	N	1.475665	0.186564	-0.353649
C28	C	1.555389	0.105072	-0.421427
C29	C	1.555409	0.105068	-0.578590
N30	N	1.475700	0.186557	0.353609
H31	H	0.850934	0.183232	-0.218264
Br32	Br	1.668815	-0.011535	-0.324230
H33	H	1.301668	-0.399786	-0.129284
Br34	Br	1.361937	0.302863	-0.549259
H35	H	1.623668	0.035304	-0.636876
H36	H	1.100396	0.189898	-0.218263
Br37	Br	1.242805	-0.152050	0.137657
Br38	Br	0.930840	0.185380	0.167788
H39	H	1.407420	0.256324	-0.411972
H40	H	1.055923	0.188711	0.100652
Br41	Br	1.705547	-0.208455	-0.154897
Br42	Br	1.698676	-0.476478	0.153517
H43	H	1.663871	-0.445905	-0.093485
H44	H	1.457807	-0.200290	0.226066
H45	H	1.310928	-0.182233	-0.137944
H46	H	1.669635	-0.228952	0.093060
Br47	Br	1.485749	-0.444958	0.291190
Br48	Br	1.475130	-0.448572	-0.292160
Br49	Br	1.237162	-0.416129	0.139523
H50	H	1.460713	-0.202765	-0.226008
