data_functionalizedCrystal
_audit_creation_method	'MofGen! by Chris Wilmer'
_symmetry_space_group_name_H-M	'P1'
_symmetry_Int_Tables_number	1
_symmetry_cell_setting	triclinic
loop_
_symmetry_equiv_pos_as_xyz
  x,y,z
_cell_length_a	16.120530
_cell_length_b	16.120484
_cell_length_c	16.120728
_cell_angle_alpha	84.367400
_cell_angle_beta	89.860094
_cell_angle_gamma	90.167327
loop_
_atom_site_label
_atom_site_type_symbol
_atom_site_fract_x
_atom_site_fract_y
_atom_site_fract_z
Zn1	Zn	1.224873	-0.422442	0.554816
Zn2	Zn	1.724873	0.077558	1.054816
Zn3	Zn	1.224796	-0.555083	0.422120
Zn4	Zn	1.724796	-0.055083	0.922120
Zn5	Zn	1.093642	-0.408310	0.408058
Zn6	Zn	1.593642	0.091690	0.908058
Zn7	Zn	1.078766	-0.554358	0.554054
Zn8	Zn	1.578766	-0.054358	1.054054
O9	O	1.155519	-0.485048	0.484762
O10	O	1.655519	0.014952	0.984762
O11	O	1.340897	-0.446254	0.543418
O12	O	1.840897	0.053746	1.043418
O13	O	1.213591	-0.530003	0.303622
O14	O	1.713591	-0.030003	0.803622
O15	O	1.117308	-0.293553	0.421960
O16	O	1.617308	0.206447	0.921960
O17	O	1.340840	-0.543706	0.445927
O18	O	1.840840	-0.043706	0.945927
O19	O	1.213723	-0.303935	0.529782
O20	O	1.713723	0.196065	1.029782
O21	O	1.117234	-0.422170	0.293290
O22	O	1.617234	0.077830	0.793290
O23	O	0.975634	-0.421466	0.421220
O24	O	1.475634	0.078534	0.921220
O25	O	1.091953	-0.542469	0.670788
O26	O	1.591953	-0.042469	1.170788
O27	O	0.964704	-0.528767	0.528483
O28	O	1.464704	-0.028767	1.028483
O29	O	1.199298	-0.445551	0.671348
O30	O	1.699298	0.054449	1.171348
O31	O	1.199166	-0.671619	0.445188
O32	O	1.699166	-0.171619	0.945188
O33	O	1.091879	-0.671086	0.542118
O34	O	1.591879	-0.171086	1.042118
C35	C	0.940083	-0.473505	0.473243
C36	C	1.440083	0.026495	0.973243
C37	C	0.847916	-0.468588	0.468336
C38	C	1.347916	0.031412	0.968336
C39	C	1.143921	-0.701596	0.495115
C40	C	1.643921	-0.201596	0.995115
C41	C	1.139034	-0.794242	0.499577
C42	C	1.639034	-0.294242	0.999577
C43	C	0.679167	-0.459591	0.459384
C44	C	1.179167	0.040409	0.959384
C45	C	0.632705	-0.510570	0.510204
C46	C	1.132705	-0.010570	1.010204
C47	C	0.538807	-0.505564	0.505223
C48	C	1.038807	-0.005564	1.005223
C49	C	0.773073	-0.464596	0.464364
C50	C	1.273073	0.035404	0.964364
C51	C	1.130115	-0.963868	0.507739
C52	C	1.630115	-0.463868	1.007739
C53	C	1.181071	-1.005397	0.461807
C54	C	1.681071	-0.505397	0.961807
C55	C	1.176108	-1.099782	0.466348
C56	C	1.676108	-0.599782	0.966348
C57	C	1.135076	-0.869474	0.503198
C58	C	1.635076	-0.369474	1.003198
C59	C	1.371796	-0.496637	0.496326
C60	C	1.871796	0.003363	0.996326
C61	C	1.463961	-0.501576	0.501254
C62	C	1.963961	-0.001576	1.001254
C63	C	1.143975	-0.495505	0.702155
C64	C	1.643975	0.004495	1.202155
C65	C	1.139055	-0.499962	0.794795
C66	C	1.639055	0.000038	1.294795
C67	C	1.167184	-0.267657	0.474387
C68	C	1.667184	0.232343	0.974387
C69	C	1.172154	-0.175017	0.469967
C70	C	1.672154	0.324983	0.969967
C71	C	1.130044	-0.508077	0.964408
C72	C	1.630044	-0.008077	1.464408
C73	C	1.180964	-0.462098	1.005970
C74	C	1.680964	0.037902	1.505970
C75	C	1.175950	-0.466613	1.100348
C76	C	1.675950	0.033387	1.600348
C77	C	1.135057	-0.503563	0.870021
C78	C	1.635057	-0.003563	1.370021
C79	C	1.167018	-0.474654	1.268215
C80	C	1.667018	0.025346	1.768215
C81	C	1.171956	-0.470211	1.175577
C82	C	1.671956	0.029789	1.675577
H83	H	0.663448	-0.557972	0.557455
H84	H	1.163448	-0.057972	1.057455
H85	H	1.082688	-0.550831	0.999703
H86	H	1.582688	-0.050831	1.499703
O87	O	0.642459	-0.403158	0.402929
O88	O	1.142459	0.096842	0.902929
C89	C	0.592650	-0.445324	0.348699
C90	C	1.092650	0.054676	0.848699
H91	H	0.615587	-0.512073	0.347946
H92	H	1.115587	-0.012073	0.847946
H93	H	0.596559	-0.411944	0.283100
H94	H	1.096559	0.088056	0.783100
H95	H	0.525527	-0.446051	0.371197
H96	H	1.025527	0.053949	0.871197
O97	O	1.237484	-0.963121	0.410832
O98	O	1.737484	-0.463121	0.910832
C99	C	1.229949	-0.876928	0.417593
C100	C	1.729949	-0.376928	0.917593
H101	H	1.165096	-0.863074	0.440871
H102	H	1.665096	-0.363074	0.940871
H103	H	1.240635	-0.841094	0.353905
H104	H	1.740635	-0.341094	0.853905
H105	H	1.278021	-0.856917	0.463469
H106	H	1.778021	-0.356917	0.963469
H107	H	1.082767	-0.999197	0.550470
H108	H	1.582767	-0.499197	1.050470
O109	O	1.237434	-0.411149	0.963740
O110	O	1.737434	0.088851	1.463740
C111	C	1.229916	-0.417906	0.877542
C112	C	1.729916	0.082094	1.377542
H113	H	1.199934	-0.480224	0.867375
H114	H	1.699934	0.019776	1.367375
H115	H	1.294053	-0.414009	0.847438
H116	H	1.794053	0.085991	1.347438
H117	H	1.189686	-0.364950	0.848111
H118	H	1.689686	0.135050	1.348111
