data_functionalizedCrystal
_audit_creation_method	'MofGen! by Chris Wilmer'
_symmetry_space_group_name_H-M	'P1'
_symmetry_Int_Tables_number	1
_symmetry_cell_setting	triclinic
loop_
_symmetry_equiv_pos_as_xyz
  x,y,z
_cell_length_a	15.944551
_cell_length_b	19.188930
_cell_length_c	14.421503
_cell_angle_alpha	89.999163
_cell_angle_beta	89.996859
_cell_angle_gamma	83.321760
loop_
_atom_site_label
_atom_site_type_symbol
_atom_site_fract_x
_atom_site_fract_y
_atom_site_fract_z
O1	O	1.114192	0.090038	-0.077026
O2	O	0.869601	0.101140	-0.077050
O3	O	0.998955	-0.006048	-0.077019
O4	O	0.984838	0.197227	-0.077057
O5	O	0.998934	-0.006032	0.077204
O6	O	0.869580	0.101156	0.077173
O7	O	1.114171	0.090054	0.077198
Cu8	Cu	0.991873	0.095607	0.091267
Cu9	Cu	0.991899	0.095588	-0.091120
O10	O	0.984817	0.197243	0.077167
C11	C	0.838298	0.100687	0.000059
C12	C	0.745057	0.099306	0.000050
C13	C	0.530462	0.029563	0.000081
C14	C	0.469331	0.061941	-0.075965
C15	C	0.574341	0.096806	0.000062
C16	C	0.469332	0.061973	0.076087
C17	C	0.409437	0.094386	0.000077
C18	C	0.514438	0.129203	-0.076047
C19	C	0.514446	0.129225	0.076073
C20	C	0.453332	0.161652	0.000008
C21	C	0.669338	0.098198	0.000052
C22	C	0.314441	0.093000	0.000080
C23	C	0.998487	-0.032052	0.000095
C24	C	0.997115	-0.109560	0.000103
C25	C	1.073016	-0.154288	0.000115
C26	C	1.071726	-0.227115	0.000100
C27	C	0.994532	-0.255211	0.000092
C28	C	0.918622	-0.210474	0.000075
C29	C	0.919913	-0.137648	0.000080
N30	N	0.935519	-0.363364	0.052571
N31	N	0.934298	-0.432545	0.052568
C32	C	0.990637	-0.474630	0.000073
N33	N	1.048256	-0.444921	-0.052407
N34	N	1.049480	-0.375733	-0.052400
C35	C	0.993123	-0.334178	0.000085
C36	C	1.065145	-0.598326	0.000067
C37	C	1.063852	-0.671154	0.000046
C38	C	0.910745	-0.654511	0.000030
C39	C	0.912040	-0.581685	0.000041
C40	C	0.989242	-0.553597	0.000064
C41	C	1.145474	0.090507	0.000087
C42	C	1.238715	0.091889	0.000089
C43	C	0.985285	0.223247	0.000050
C44	C	0.986657	0.300755	0.000036
N45	N	0.991862	0.095619	0.219549
N46	N	0.991917	0.095569	-0.219401
C47	C	0.932038	0.145161	0.469188
C48	C	1.007887	0.158716	0.530995
C49	C	0.991882	0.095603	0.408710
C50	C	0.916052	0.082064	0.530997
C51	C	0.991895	0.095588	0.591431
C52	C	1.067770	0.109189	0.469157
C53	C	0.975885	0.032510	0.469153
C54	C	1.051789	0.046038	0.530932
C55	C	0.991874	0.095613	0.303449
C56	C	0.991913	0.095578	0.696690
H57	H	0.419965	0.217516	-0.000045
O58	O	0.838365	-0.538160	0.000163
C59	C	0.750936	-0.446311	0.080085
C60	C	0.834416	-0.495551	0.080057
H61	H	0.747708	-0.411860	0.144682
H62	H	0.747712	-0.411749	0.015589
H63	H	0.695552	-0.478913	0.080031
H64	H	0.889846	-0.463005	0.080144
H65	H	0.837565	-0.530116	0.144548
O66	O	0.871814	0.195287	0.436878
C67	C	0.820649	0.318433	0.431779
C68	C	0.888911	0.261739	0.468416
H69	H	0.834437	0.372170	0.457279
H70	H	0.820803	0.317696	0.352734
H71	H	0.756129	0.307390	0.458255
H72	H	0.953464	0.272742	0.442008
H73	H	0.888682	0.262488	0.547460
O74	O	0.445344	0.028037	0.152719
C75	C	0.329902	-0.010657	0.239036
C76	C	0.356951	0.027783	0.152209
H77	H	0.258433	-0.010862	0.238663
H78	H	0.361857	-0.066982	0.238948
H79	H	0.349395	0.017462	0.303819
H80	H	0.337463	-0.000278	0.087380
H81	H	0.325003	0.084109	0.152379
O82	O	1.024068	0.222308	0.563569
C83	C	1.042850	0.293346	0.698090
C84	C	1.024549	0.221289	0.661329
H85	H	1.043227	0.292551	0.777133
H86	H	1.107028	0.305313	0.671665
H87	H	0.991778	0.335540	0.672678
H88	H	1.075568	0.179049	0.686726
H89	H	0.960346	0.209382	0.687747
O90	O	1.145514	-0.270504	-0.000007
C91	C	1.275971	-0.307049	-0.079902
C92	C	1.192449	-0.257863	-0.079886
H93	H	1.313933	-0.296857	-0.144487
H94	H	1.314018	-0.296829	-0.015394
H95	H	1.261761	-0.363918	-0.079863
H96	H	1.206581	-0.200977	-0.079959
H97	H	1.154426	-0.268144	-0.144389
O98	O	1.147956	-0.126924	0.000002
C99	C	1.238310	-0.054401	-0.079915
C100	C	1.153402	-0.085331	-0.079888
H101	H	1.242748	-0.020778	-0.144509
H102	H	1.242750	-0.020677	-0.015416
H103	H	1.292320	-0.098898	-0.079866
H104	H	1.099343	-0.040880	-0.079970
H105	H	1.149035	-0.119074	-0.144382
H106	H	1.131917	0.120698	0.442107
H107	H	0.851919	0.070620	0.558163
O108	O	1.112341	-0.003896	0.563037
C109	C	1.260659	-0.046050	0.567735
C110	C	1.192170	0.010550	0.531330
H111	H	1.325214	-0.034399	0.542099
H112	H	1.259930	-0.046000	0.646782
H113	H	1.247521	-0.099689	0.541222
H114	H	1.205261	0.064217	0.557774
H115	H	1.192916	0.010438	0.452283
H116	H	0.855769	-0.233354	0.000066
H117	H	0.962318	-0.020823	0.441967
O118	O	0.538452	0.163041	0.152785
C119	C	0.622789	0.155522	0.291853
C120	C	0.595684	0.117156	0.204994
H121	H	0.669051	0.118437	0.334098
H122	H	0.654514	0.203194	0.269988
H123	H	0.564812	0.173330	0.335809
H124	H	0.653618	0.099302	0.161000
H125	H	0.563929	0.069517	0.226923
H126	H	0.858103	-0.101230	0.000071
H127	H	0.449336	0.033493	-0.140247
O128	O	0.570421	-0.037032	-0.000160
C129	C	0.592867	-0.147708	-0.080574
C130	C	0.547571	-0.072308	-0.080419
H131	H	0.574397	-0.176255	-0.145446
H132	H	0.664110	-0.146071	-0.079974
H133	H	0.573583	-0.176635	-0.016369
H134	H	0.566786	-0.043337	-0.144613
H135	H	0.476338	-0.073996	-0.080970
O136	O	0.538071	0.163028	-0.152932
C137	C	0.541482	0.166089	-0.319918
C138	C	0.514652	0.127727	-0.232926
H139	H	0.522575	0.137555	-0.384615
H140	H	0.508933	0.222225	-0.320268
H141	H	0.612865	0.166861	-0.319267
H142	H	0.443281	0.126902	-0.233520
H143	H	0.547263	0.071611	-0.232610
O144	O	1.140154	-0.571067	-0.000090
C145	C	1.271431	-0.563031	-0.079958
C146	C	1.186506	-0.593933	-0.079902
H147	H	1.308938	-0.581518	-0.144469
H148	H	1.259364	-0.503294	-0.080010
H149	H	1.308889	-0.581444	-0.015388
H150	H	1.149005	-0.575574	-0.144461
H151	H	1.198633	-0.653666	-0.079801
O152	O	1.137565	-0.714633	-0.000110
C153	C	1.224959	-0.806531	-0.079980
C154	C	1.141456	-0.757321	-0.079928
H155	H	1.228124	-0.841068	-0.144496
H156	H	1.280386	-0.773976	-0.080022
H157	H	1.228160	-0.841017	-0.015414
H158	H	1.138173	-0.722826	-0.144483
H159	H	1.086068	-0.789918	-0.079838
H160	H	0.847892	-0.677386	0.000019
