data_functionalizedCrystal
_audit_creation_method	'MofGen! by Chris Wilmer'
_symmetry_space_group_name_H-M	'P1'
_symmetry_Int_Tables_number	1
_symmetry_cell_setting	triclinic
loop_
_symmetry_equiv_pos_as_xyz
  x,y,z
_cell_length_a	12.759401
_cell_length_b	21.295417
_cell_length_c	12.759393
_cell_angle_alpha	90.037475
_cell_angle_beta	90.019268
_cell_angle_gamma	90.032032
loop_
_atom_site_label
_atom_site_type_symbol
_atom_site_fract_x
_atom_site_fract_y
_atom_site_fract_z
Zn1	Zn	1.606134	-0.250557	0.593965
Zn2	Zn	2.106134	0.249443	1.093965
Zn3	Zn	1.605981	-0.355838	0.418261
Zn4	Zn	2.105981	0.144162	0.918261
Zn5	Zn	1.430437	-0.250589	0.418300
Zn6	Zn	1.930437	0.249411	0.918300
Zn7	Zn	1.430376	-0.355795	0.593899
Zn8	Zn	1.930376	0.144205	1.093899
O9	O	1.518232	-0.303195	0.506106
O10	O	2.018232	0.196805	1.006106
O11	O	1.753134	-0.264527	0.570669
O12	O	2.253134	0.235473	1.070669
O13	O	1.582657	-0.341908	0.271245
O14	O	2.082657	0.158092	0.771245
O15	O	1.453834	-0.162496	0.441646
O16	O	1.953834	0.337504	0.941646
O17	O	1.753023	-0.341877	0.441580
O18	O	2.253023	0.158123	0.941580
O19	O	1.582917	-0.162472	0.570706
O20	O	2.082917	0.337528	1.070706
O21	O	1.453686	-0.264582	0.271274
O22	O	1.953686	0.235418	0.771274
O23	O	1.283408	-0.264541	0.441582
O24	O	1.783408	0.235459	0.941582
O25	O	1.453728	-0.341804	0.740929
O26	O	1.953728	0.158196	1.240929
O27	O	1.283363	-0.341835	0.570594
O28	O	1.783363	0.158165	1.070594
O29	O	1.582857	-0.264486	0.740977
O30	O	2.082857	0.235514	1.240977
O31	O	1.582597	-0.443922	0.441516
O32	O	2.082597	0.056078	0.941516
O33	O	1.453581	-0.443890	0.570556
O34	O	1.953581	0.056110	1.070556
C35	C	1.245265	-0.303187	0.506085
C36	C	1.745265	0.196813	1.006085
C37	C	1.128488	-0.303199	0.506101
C38	C	1.628488	0.196801	1.006101
C39	C	1.073630	-0.343507	0.573172
C40	C	1.573630	0.156493	1.073172
C41	C	0.963906	-0.343510	0.573193
C42	C	1.463906	0.156490	1.073193
C43	C	0.963908	-0.262894	0.439063
C44	C	1.463908	0.237106	0.939063
C45	C	1.073630	-0.262889	0.439048
C46	C	1.573630	0.237111	0.939048
C47	C	0.813996	-0.366098	0.697048
C48	C	1.313996	0.133902	1.197048
C49	C	0.759134	-0.406416	0.764110
C50	C	1.259134	0.093584	1.264110
C51	C	0.794703	-0.467849	0.780044
C52	C	1.294703	0.032151	1.280044
C53	C	0.885132	-0.488976	0.728901
C54	C	1.385132	0.011024	1.228901
C55	C	0.939988	-0.448661	0.661832
C56	C	1.439988	0.051339	1.161832
C57	C	0.904421	-0.387220	0.645918
C58	C	1.404421	0.112780	1.145918
C59	C	1.223542	-0.240307	0.315192
C60	C	1.723542	0.259693	0.815192
C61	C	1.278400	-0.199995	0.248116
C62	C	1.778400	0.300005	0.748116
C63	C	1.242833	-0.138561	0.232171
C64	C	1.742833	0.361439	0.732171
C65	C	1.152401	-0.117436	0.283295
C66	C	1.652401	0.382564	0.783295
C67	C	1.097542	-0.157748	0.350371
C68	C	1.597542	0.342252	0.850371
C69	C	1.133117	-0.219181	0.366317
C70	C	1.633117	0.280819	0.866317
C71	C	1.518094	-0.466747	0.506048
C72	C	2.018094	0.033253	1.006048
C73	C	1.518132	-0.536715	0.506058
C74	C	2.018132	-0.036715	1.006058
C75	C	1.585370	-0.569577	0.438936
C76	C	2.085370	-0.069577	0.938936
C77	C	1.585419	-0.635319	0.438960
C78	C	2.085419	-0.135319	0.938960
C79	C	1.518211	-0.668197	0.506094
C80	C	2.018211	-0.168197	1.006094
C81	C	1.450968	-0.635327	0.573230
C82	C	1.950968	-0.135327	1.073230
C83	C	1.450928	-0.569586	0.573212
C84	C	1.950928	-0.069586	1.073212
N85	N	1.426304	-0.771464	0.514097
N86	N	1.926304	-0.271464	1.014097
N87	N	1.426345	-0.833915	0.514108
N88	N	1.926345	-0.333915	1.014108
C89	C	1.518329	-0.866272	0.506155
C90	C	2.018329	-0.366272	1.006155
N91	N	1.610273	-0.833818	0.498169
N92	N	2.110273	-0.333818	0.998169
N93	N	1.610231	-0.771360	0.498153
N94	N	2.110231	-0.271360	0.998153
C95	C	1.518248	-0.739482	0.506122
C96	C	2.018248	-0.239482	1.006122
C97	C	1.585627	-0.970419	0.439054
C98	C	2.085627	-0.470419	0.939054
C99	C	1.585678	-1.036163	0.439085
C100	C	2.085678	-0.536163	0.939085
C101	C	1.451217	-1.036170	0.573350
C102	C	1.951217	-0.536170	1.073350
C103	C	1.451175	-0.970427	0.573325
C104	C	1.951175	-0.470427	1.073325
C105	C	1.518379	-0.937556	0.506171
C106	C	2.018379	-0.437556	1.006171
C107	C	1.792265	-0.303203	0.506128
C108	C	2.292265	0.196797	1.006128
C109	C	1.909042	-0.303207	0.506137
C110	C	2.409042	0.196793	1.006137
C111	C	1.518303	-0.303136	0.780140
C112	C	2.018303	0.196864	1.280140
C113	C	1.518333	-0.303111	0.896916
C114	C	2.018333	0.196889	1.396916
C115	C	1.518399	-0.139005	0.506188
C116	C	2.018399	0.360995	1.006188
C117	C	1.518470	-0.069036	0.506222
C118	C	2.018470	0.430964	1.006222
C119	C	1.518222	-0.303208	0.233139
C120	C	2.018222	0.196792	0.733139
C121	C	1.518396	-0.303056	0.116363
C122	C	2.018396	0.196944	0.616363
C123	C	1.451151	-0.343325	1.061486
C124	C	1.951151	0.156675	1.561486
C125	C	1.451116	-0.343351	0.951762
C126	C	1.951116	0.156649	1.451762
C127	C	1.585581	-0.262838	0.951801
C128	C	2.085581	0.237162	1.451801
C129	C	1.585609	-0.262809	1.061523
C130	C	2.085609	0.237191	1.561523
C131	C	1.327149	-0.365878	0.801794
C132	C	1.827149	0.134122	1.301794
C133	C	1.259913	-0.406156	0.746914
C134	C	1.759913	0.093844	1.246914
C135	C	1.243728	-0.467569	0.782502
C136	C	1.743728	0.032431	1.282502
C137	C	1.294794	-0.488715	0.872968
C138	C	1.794794	0.011285	1.372968
C139	C	1.362037	-0.448440	0.927843
C140	C	1.862037	0.051560	1.427843
C141	C	1.378202	-0.387018	0.892257
C142	C	1.878202	0.112982	1.392257
C143	C	1.709578	-0.240289	1.211493
C144	C	2.209578	0.259711	1.711493
C145	C	1.776828	-0.200016	1.266369
C146	C	2.276828	0.299984	1.766369
C147	C	1.793023	-0.138602	1.230783
C148	C	2.293023	0.361398	1.730783
C149	C	1.741976	-0.117458	1.140313
C150	C	2.241976	0.382542	1.640313
C151	C	1.674727	-0.157731	1.085437
C152	C	2.174727	0.342269	1.585437
C153	C	1.658529	-0.219144	1.121030
C154	C	2.158529	0.280856	1.621030
H155	H	0.914079	-0.539003	0.741872
H156	H	1.414079	-0.039003	1.241872
H157	H	0.750027	-0.500676	0.834648
H158	H	1.250027	-0.000676	1.334648
H159	H	1.396419	-0.943669	0.627977
H160	H	1.896419	-0.443669	1.127977
Cl161	Cl	1.311791	-0.087886	0.147832
Cl162	Cl	1.811791	0.412114	0.647832
H163	H	1.640094	-0.542815	0.384258
H164	H	2.140094	-0.042815	0.884258
Cl165	Cl	1.610552	-0.131149	0.971700
Cl166	Cl	2.110552	0.368851	1.471700
Cl167	Cl	1.670109	-0.929093	0.354634
Cl168	Cl	2.170109	-0.429093	0.854634
H169	H	1.118292	-0.376329	0.627773
H170	H	1.618292	0.123671	1.127773
Cl171	Cl	1.366649	-0.393917	1.130424
Cl172	Cl	1.866649	0.106083	1.630424
Cl173	Cl	1.762341	-0.040251	1.095567
Cl174	Cl	2.262341	0.459749	1.595567
H175	H	0.685507	-0.389209	0.805751
H176	H	1.185507	0.110791	1.305751
H177	H	1.640177	-0.662081	0.384301
H178	H	2.140177	-0.162081	0.884301
H179	H	1.396248	-0.662100	0.627893
H180	H	1.896248	-0.162100	1.127893
Cl181	Cl	1.392077	-0.226556	0.183830
Cl182	Cl	1.892077	0.273444	0.683830
Cl183	Cl	1.670222	-1.077476	0.354703
Cl184	Cl	2.170222	-0.577476	0.854703
H185	H	1.340306	-0.315868	0.772819
H186	H	1.840306	0.184132	1.272819
H187	H	1.396499	-1.062938	0.628017
H188	H	1.896499	-0.562938	1.128017
H189	H	1.396173	-0.542829	0.627872
H190	H	1.896173	-0.042829	1.127872
H191	H	1.847792	-0.105814	1.275470
H192	H	2.347792	0.394186	1.775470
H193	H	1.640305	-0.230071	0.907137
H194	H	2.140305	0.269929	1.407137
H195	H	1.403616	-0.465657	1.001498
H196	H	1.903616	0.034343	1.501498
Cl197	Cl	1.274459	-0.565928	0.917691
Cl198	Cl	1.774459	-0.065928	1.417691
Cl199	Cl	1.159203	-0.518204	0.713507
Cl200	Cl	1.659203	-0.018204	1.213507
H201	H	1.218335	-0.388933	0.673255
H202	H	1.718335	0.111067	1.173255
Cl203	Cl	0.769285	-0.288861	0.677038
Cl204	Cl	1.269285	0.211139	1.177038
Cl205	Cl	1.841011	-0.226600	1.380099
Cl206	Cl	2.341011	0.273400	1.880099
Cl207	Cl	1.053662	-0.475215	0.597540
Cl208	Cl	1.553662	0.024785	1.097540
H209	H	1.252516	-0.290330	0.328178
H210	H	1.752516	0.209670	0.828178
H211	H	0.919229	-0.230075	0.384470
H212	H	1.419229	0.269925	0.884470
Cl213	Cl	1.107677	-0.040205	0.263244
Cl214	Cl	1.607677	0.459795	0.763244
Cl215	Cl	0.983850	-0.131192	0.414637
Cl216	Cl	1.483850	0.368808	0.914637
Cl217	Cl	1.689209	-0.317495	1.256245
Cl218	Cl	2.189209	0.182505	1.756245
