data_functionalizedCrystal
_audit_creation_method	'MofGen! by Chris Wilmer'
_symmetry_space_group_name_H-M	'P1'
_symmetry_Int_Tables_number	1
_symmetry_cell_setting	triclinic
loop_
_symmetry_equiv_pos_as_xyz
  x,y,z
_cell_length_a	16.625547
_cell_length_b	21.295417
_cell_length_c	16.625539
_cell_angle_alpha	89.967674
_cell_angle_beta	89.975178
_cell_angle_gamma	90.029639
loop_
_atom_site_label
_atom_site_type_symbol
_atom_site_fract_x
_atom_site_fract_y
_atom_site_fract_z
Zn1	Zn	1.232640	-0.250609	-0.455978
Zn2	Zn	1.232526	-0.355882	-0.321136
Zn3	Zn	1.097802	-0.250631	-0.321149
Zn4	Zn	1.097755	-0.355844	-0.455916
O5	O	1.165181	-0.303242	-0.388545
O6	O	1.345457	-0.264581	-0.438112
O7	O	1.214627	-0.341946	-0.208305
O8	O	1.115755	-0.162539	-0.339066
O9	O	1.345374	-0.341925	-0.339044
O10	O	1.214821	-0.162523	-0.438124
O11	O	1.115645	-0.264618	-0.208315
O12	O	0.984963	-0.264581	-0.339005
O13	O	1.115676	-0.341859	-0.568757
O14	O	0.984929	-0.341881	-0.438018
O15	O	1.214775	-0.264544	-0.568802
O16	O	1.214581	-0.443967	-0.338983
O17	O	1.115566	-0.443939	-0.438006
C18	C	0.955690	-0.303229	-0.388507
C19	C	0.866069	-0.303239	-0.388510
C20	C	0.793286	-0.303241	-0.388519
C21	C	0.701978	-0.303244	-0.388540
C22	C	0.629201	-0.303250	-0.388560
C23	C	0.537887	-0.303254	-0.388579
C24	C	1.165078	-0.466793	-0.388504
C25	C	1.165108	-0.536761	-0.388513
C26	C	1.216661	-0.569563	-0.440130
C27	C	1.216690	-0.635305	-0.440150
C28	C	1.165173	-0.668244	-0.388539
C29	C	1.113610	-0.635435	-0.336919
C30	C	1.113577	-0.569694	-0.336906
N31	N	1.159082	-0.771508	-0.317973
N32	N	1.159117	-0.833959	-0.317987
C33	C	1.165267	-0.866319	-0.388575
N34	N	1.171396	-0.833868	-0.459150
N35	N	1.171364	-0.771410	-0.459134
C36	C	1.165203	-0.739529	-0.388547
C37	C	1.216855	-0.970405	-0.440218
C38	C	1.216877	-1.036149	-0.440239
C39	C	1.113801	-1.036278	-0.337000
C40	C	1.113774	-0.970535	-0.336986
C41	C	1.165305	-0.937603	-0.388594
C42	C	1.375490	-0.303254	-0.388583
C43	C	1.465111	-0.303260	-0.388600
C44	C	1.165233	-0.303195	-0.598854
C45	C	1.165256	-0.303175	-0.688475
C46	C	1.165306	-0.139051	-0.388603
C47	C	1.165359	-0.069083	-0.388628
C48	C	1.165293	-0.303104	-1.016651
C49	C	1.165280	-0.303126	-0.925342
C50	C	1.165275	-0.303140	-0.852566
C51	C	1.165261	-0.303161	-0.761251
C52	C	1.165175	-0.303243	-0.179054
C53	C	1.165309	-0.303086	-0.089433
H54	H	1.258664	-0.662017	-0.482192
H55	H	1.071662	-0.662258	-0.294898
O56	O	1.272483	-1.071533	-0.495915
H57	H	1.308312	-1.037585	-0.531791
O58	O	1.058238	-1.071794	-0.281327
H59	H	1.066925	-1.123019	-0.290002
O60	O	1.058176	-0.935158	-0.281299
H61	H	1.017111	-0.905218	-0.317336
H62	H	1.258619	-0.542751	-0.482154
O63	O	1.057981	-0.534309	-0.281221
H64	H	1.022166	-0.568255	-0.245330
H65	H	1.258812	-0.943591	-0.482243
