data_functionalizedCrystal
_audit_creation_method	'MofGen! by Chris Wilmer'
_symmetry_space_group_name_H-M	'P1'
_symmetry_Int_Tables_number	1
_symmetry_cell_setting	triclinic
loop_
_symmetry_equiv_pos_as_xyz
  x,y,z
_cell_length_a	14.853566
_cell_length_b	14.519731
_cell_length_c	13.930277
_cell_angle_alpha	89.996341
_cell_angle_beta	90.003759
_cell_angle_gamma	83.661634
loop_
_atom_site_label
_atom_site_type_symbol
_atom_site_fract_x
_atom_site_fract_y
_atom_site_fract_z
O1	O	1.196425	0.120386	0.079770
O2	O	0.933972	0.134730	0.079786
O3	O	1.072147	-0.006682	0.079768
O4	O	1.058250	0.261798	0.079787
O5	O	1.072127	-0.006661	-0.079893
O6	O	0.933952	0.134751	-0.079876
O7	O	1.196405	0.120407	-0.079892
Zn8	Zn	1.065175	0.127583	-0.105234
Zn9	Zn	1.065202	0.127554	0.105127
O10	O	1.058230	0.261819	-0.079875
C11	C	0.900373	0.134091	-0.000043
C12	C	0.800289	0.132144	-0.000037
C13	C	0.377111	0.123897	0.086977
C14	C	0.377110	0.123921	-0.087093
C15	C	0.471145	0.125749	-0.087090
C16	C	0.518167	0.126653	-0.000052
C17	C	0.471154	0.125728	0.086983
C18	C	0.518164	0.126684	-0.174123
C19	C	0.612204	0.128513	-0.174123
C20	C	0.659229	0.129410	-0.087084
C21	C	0.612210	0.128484	-0.000046
C22	C	0.659232	0.129388	0.086991
C23	C	0.612216	0.128455	0.174031
C24	C	0.518179	0.126625	0.174021
C25	C	0.753267	0.131240	-0.087075
C26	C	0.753276	0.131219	0.086997
C27	C	1.071486	-0.041031	-0.000063
C28	C	1.069535	-0.143410	-0.000063
C29	C	1.067949	-0.226554	-0.000061
C30	C	1.065968	-0.330861	-0.000053
C31	C	1.064396	-0.414000	-0.000047
C32	C	1.062415	-0.518315	-0.000041
C33	C	1.230004	0.121046	-0.000061
C34	C	1.330089	0.122993	-0.000061
C35	C	1.058891	0.296168	-0.000042
C36	C	1.060843	0.398547	-0.000035
N37	N	1.065164	0.127602	-0.248800
C38	C	1.119984	0.183573	-0.701059
C39	C	1.010448	0.071498	-0.701049
C40	C	1.010434	0.071513	-0.600554
C41	C	1.065197	0.127558	-0.550306
C42	C	1.119974	0.183588	-0.600554
C43	C	0.955666	0.015476	-0.550298
C44	C	0.955651	0.015488	-0.449796
C45	C	1.010409	0.071539	-0.399547
C46	C	1.065187	0.127572	-0.449801
C47	C	1.119950	0.183617	-0.399553
C48	C	1.174724	0.239656	-0.449805
C49	C	1.174732	0.239638	-0.550304
C50	C	1.010401	0.071557	-0.299048
C51	C	1.119940	0.183632	-0.299048
N52	N	1.065221	0.127528	0.248693
H53	H	0.479871	0.125954	-0.244984
H54	H	0.479890	0.125865	0.244884
C55	C	0.895429	-0.046167	-0.605576
N56	N	0.850053	-0.092595	-0.647217
C57	C	1.234985	0.301268	-0.605589
N58	N	1.280370	0.347684	-0.647233
H59	H	1.164577	0.229201	-0.741979
C60	C	0.663915	0.129529	-0.269867
N61	N	0.702864	0.130289	-0.341982
C62	C	0.325382	0.122930	-0.182828
N63	N	0.286417	0.122182	-0.254941
H64	H	0.791542	0.132009	-0.157941
H65	H	0.338827	0.123134	0.157842
H66	H	1.164531	0.229276	-0.258143
C67	C	1.234967	0.301297	-0.394520
N68	N	1.280342	0.347723	-0.352875
H69	H	0.650513	0.129197	0.244897
C70	C	0.950211	0.009853	-0.756325
N71	N	0.904836	-0.036578	-0.797963
C72	C	0.950154	0.009917	-0.243775
N73	N	0.904771	-0.036511	-0.202145
C74	C	0.804993	0.132209	0.182748
N75	N	0.843945	0.132956	0.254868
C76	C	0.895392	-0.046147	-0.394528
N77	N	0.850000	-0.092568	-0.352899
