data_functionalizedCrystal
_audit_creation_method	'MofGen! by Chris Wilmer'
_symmetry_space_group_name_H-M	'P1'
_symmetry_Int_Tables_number	1
_symmetry_cell_setting	triclinic
loop_
_symmetry_equiv_pos_as_xyz
  x,y,z
_cell_length_a	15.995350
_cell_length_b	15.995350
_cell_length_c	15.072220
_cell_angle_alpha	90.001101
_cell_angle_beta	89.991149
_cell_angle_gamma	83.492375
loop_
_atom_site_label
_atom_site_type_symbol
_atom_site_fract_x
_atom_site_fract_y
_atom_site_fract_z
O1	O	1.110996	0.107921	-0.073703
O2	O	0.867221	0.121249	-0.073721
O3	O	0.995772	-0.007303	-0.073710
O4	O	0.982444	0.236472	-0.073713
O5	O	0.995740	-0.007296	0.073855
O6	O	0.867189	0.121256	0.073844
O7	O	1.110964	0.107928	0.073862
Zn8	Zn	0.989071	0.114593	0.097283
Zn9	Zn	0.989113	0.114584	-0.097141
O10	O	0.982413	0.236480	0.073852
C11	C	0.836010	0.120701	0.000060
C12	C	0.743060	0.119049	0.000053
C13	C	0.995205	-0.038494	0.000070
C14	C	0.993553	-0.131444	0.000065
C15	C	0.987621	-0.469192	0.000068
C16	C	0.896069	-0.421758	-0.000270
C17	C	0.897721	-0.325068	0.000063
C18	C	0.990564	-0.301631	0.000066
C19	C	1.035702	-0.342705	0.084335
C20	C	1.033402	-0.439341	0.084405
C21	C	1.035330	-0.439707	-0.083404
C22	C	1.035308	-0.342761	-0.084518
C23	C	0.992231	-0.206934	0.000068
C24	C	0.985956	-0.563890	0.000072
C25	C	0.405312	0.113117	0.000071
C26	C	0.452746	0.021565	0.000401
C27	C	0.549436	0.023217	0.000063
C28	C	0.572873	0.116060	0.000063
C29	C	0.531804	0.161212	-0.084201
C30	C	0.435168	0.158912	-0.084266
C31	C	0.434793	0.160812	0.083543
C32	C	0.531738	0.160790	0.084651
C33	C	0.667570	0.117727	0.000055
C34	C	0.310614	0.111452	0.000073
C35	C	1.142175	0.108476	0.000080
C36	C	1.235125	0.110127	0.000081
C37	C	0.982980	0.267671	0.000069
C38	C	0.984631	0.360621	0.000069
N39	N	0.989049	0.114599	0.229971
N40	N	0.989142	0.114571	-0.229830
C41	C	0.989112	0.114580	0.589173
C42	C	0.920095	0.183135	0.551560
C43	C	0.920254	0.183385	0.448735
C44	C	0.989080	0.114590	0.410969
C45	C	1.076445	0.133671	0.448266
C46	C	1.076058	0.134159	0.551124
C47	C	0.971542	0.026741	0.551272
C48	C	0.969537	0.027327	0.448409
C49	C	0.989067	0.114593	0.310255
C50	C	0.989130	0.114579	0.689886
H51	H	0.862238	-0.296649	-0.060344
Br52	Br	0.983408	-0.295400	0.188855
Br53	Br	0.985455	-0.473933	-0.189860
Br54	Br	0.980764	-0.296811	-0.188440
Br55	Br	0.838134	-0.278611	0.100906
Br56	Br	0.811499	0.164485	0.592797
Br57	Br	0.835095	-0.452645	-0.100995
H58	H	1.091540	0.198219	0.575106
H59	H	0.905271	0.012846	0.424032
H60	H	0.909219	0.008392	0.577258
H61	H	0.545929	0.229421	-0.087335
Br62	Br	0.579114	0.108935	-0.188727
H63	H	0.402920	0.226128	-0.088090
Br64	Br	0.938544	0.291174	0.594606
Br65	Br	1.148156	-0.317153	-0.093004
Br66	Br	0.595862	-0.036083	-0.100965
Br67	Br	0.421850	-0.039427	0.101122
H68	H	0.416873	0.125979	-0.147255
H69	H	0.931473	0.248570	0.424121
H70	H	0.414244	0.130885	0.147414
H71	H	1.016540	-0.026078	0.422704
H72	H	0.559041	0.127829	0.146989
Br73	Br	0.557338	0.273639	0.093135
Br74	Br	1.102872	0.239225	0.405319
Br75	Br	0.978494	-0.469844	0.189390
Br76	Br	0.596803	-0.035940	0.100740
Br77	Br	0.835152	-0.454809	0.099576
Br78	Br	1.145428	-0.493094	0.090793
Br79	Br	1.164141	0.054009	0.592597
H80	H	0.403031	0.228312	0.084113
Br81	Br	1.055428	-0.058290	0.591809
H82	H	1.129029	0.085068	0.423801
H83	H	1.103910	-0.328579	0.087471
Br84	Br	1.147835	-0.492642	-0.084346
H85	H	0.433165	-0.014865	-0.059694
H86	H	0.855314	0.172016	0.423519
