data_functionalizedCrystal
_audit_creation_method	'MofGen! by Chris Wilmer'
_symmetry_space_group_name_H-M	'P1'
_symmetry_Int_Tables_number	1
_symmetry_cell_setting	triclinic
loop_
_symmetry_equiv_pos_as_xyz
  x,y,z
_cell_length_a	33.592126
_cell_length_b	33.591377
_cell_length_c	33.588093
_cell_angle_alpha	60.004089
_cell_angle_beta	60.008299
_cell_angle_gamma	59.994549
loop_
_atom_site_label
_atom_site_type_symbol
_atom_site_fract_x
_atom_site_fract_y
_atom_site_fract_z
O1	O	0.055297	-0.581666	0.486338
O2	O	0.020882	-0.452873	0.391864
O3	O	0.102445	-0.534352	0.391775
O4	O	-0.026266	-0.500187	0.486427
O5	O	0.129510	-0.507292	0.418747
O6	O	0.047947	-0.425814	0.418835
O7	O	0.082362	-0.554606	0.513309
Cu8	Cu	0.067626	-0.487739	0.468535
Cu9	Cu	0.035618	-0.519740	0.436638
O10	O	0.000799	-0.473128	0.513398
N11	N	0.090139	-0.465235	0.490972
N12	N	0.013110	-0.542249	0.414202
C13	C	0.124394	-0.431229	0.734914
C14	C	0.334265	-0.431145	0.524799
C15	C	0.124204	-0.431200	0.524965
C16	C	0.124184	-0.221175	0.524955
C17	C	0.158017	-0.322536	0.558710
C18	C	0.158027	-0.397406	0.558711
C19	C	0.176763	-0.378688	0.577408
C20	C	0.258412	-0.364594	0.534386
C21	C	0.309454	-0.381596	0.517340
C22	C	0.309485	-0.464188	0.548836
C23	C	0.258444	-0.447186	0.565883
C24	C	0.170304	-0.297002	0.508532
C25	C	0.153260	-0.245956	0.491537
C26	C	0.111648	-0.245983	0.574901
C27	C	0.128691	-0.297029	0.591896
C28	C	0.107841	-0.385091	0.571080
C29	C	0.090813	-0.402108	0.554078
C30	C	0.174153	-0.443755	0.512351
C31	C	0.191183	-0.426739	0.529347
C32	C	0.107923	-0.385106	0.659111
C33	C	0.090955	-0.402138	0.710156
C34	C	0.174335	-0.443795	0.710087
C35	C	0.191302	-0.426764	0.659041
C36	C	0.158095	-0.397418	0.633555
C37	C	0.232909	-0.397388	0.558656
C38	C	0.105069	-0.449619	0.791057
C39	C	0.390406	-0.449193	0.505789
C40	C	0.104813	-0.449599	0.506607
C41	C	0.105125	-0.165028	0.506915
C42	C	-0.020560	-0.576246	0.169890
C43	C	-0.020889	-0.786183	0.379970
C44	C	-0.020859	-0.576235	0.380063
C45	C	-0.230772	-0.576015	0.379658
C46	C	-0.129417	-0.609898	0.346025
C47	C	-0.054587	-0.609979	0.346172
C48	C	-0.073269	-0.628671	0.327396
C49	C	-0.087401	-0.710299	0.370335
C50	C	-0.070424	-0.761345	0.387369
C51	C	0.012165	-0.761428	0.356003
C52	C	-0.004813	-0.710383	0.338967
C53	C	-0.155001	-0.622196	0.396191
C54	C	-0.206043	-0.605128	0.413125
C55	C	-0.205914	-0.563467	0.329724
C56	C	-0.154872	-0.580535	0.312790
C57	C	-0.066886	-0.559797	0.333828
C58	C	-0.049903	-0.542809	0.350903
C59	C	-0.008321	-0.626180	0.392654
C60	C	-0.025304	-0.643170	0.375585
C61	C	-0.066758	-0.559805	0.245702
C62	C	-0.049671	-0.542819	0.194658
C63	C	-0.008026	-0.626194	0.194706
C64	C	-0.025111	-0.643179	0.245752
C65	C	-0.054479	-0.609983	0.271248
C66	C	-0.054597	-0.684821	0.346135
C67	C	-0.002109	-0.556901	0.113746
C68	C	-0.002869	-0.842328	0.398966
C69	C	-0.002496	-0.556887	0.398501
C70	C	-0.286914	-0.556929	0.397631
N71	N	0.436349	-0.465146	0.490703
O72	O	0.592194	-0.469605	0.374236
O73	O	0.592389	-0.564393	0.502890
O74	O	0.592305	-0.564176	0.421300
O75	O	0.592277	-0.469822	0.455826
O76	O	0.511216	-0.537214	0.448415
O77	O	0.511300	-0.537431	0.530004
O78	O	0.511104	-0.442643	0.401350
Cu79	Cu	0.503798	-0.487575	0.468153
Cu80	Cu	0.599695	-0.519461	0.436087
O81	O	0.511188	-0.442860	0.482940
N82	N	0.667145	-0.541890	0.413532
N83	N	0.090108	-0.119085	0.490958
O84	O	-0.026275	0.036848	0.486394
O85	O	0.102381	0.036888	0.391584
O86	O	0.020751	0.036852	0.391854
O87	O	0.055356	0.036884	0.486124
O88	O	0.047821	-0.044242	0.418876
O89	O	0.129452	-0.044207	0.418606
O90	O	0.000796	-0.044246	0.513417
Cu91	Cu	0.067596	-0.051631	0.468479
Cu92	Cu	0.035582	0.044273	0.436522
O93	O	0.082426	-0.044211	0.513146
N94	N	0.013063	0.111726	0.414043
N95	N	0.090453	-0.465282	0.837001
O96	O	0.085913	-0.581648	0.992925
O97	O	-0.008857	-0.452947	0.992970
O98	O	-0.008635	-0.534562	0.992946
O99	O	0.085691	-0.500033	0.992949
O100	O	0.018365	-0.507512	0.911855
O101	O	0.018143	-0.425898	0.911878
O102	O	0.112912	-0.554598	0.911834
Cu103	Cu	0.067993	-0.487778	0.904452
Cu104	Cu	0.036063	-0.519767	1.000352
O105	O	0.112691	-0.472984	0.911857
N106	N	0.013602	-0.542269	1.067803
C107	C	0.031188	-0.423114	0.392334
C108	C	0.132194	-0.524016	0.392223
C109	C	0.072056	-0.584366	0.512840
C110	C	-0.028950	-0.483464	0.512950
C111	C	0.551868	-0.563965	0.532655
C112	C	0.551766	-0.563697	0.431617
C113	C	0.551623	-0.443070	0.371586
C114	C	0.551728	-0.443339	0.472623
C115	C	0.132090	-0.003555	0.392006
C116	C	0.031035	-0.003698	0.392374
C117	C	-0.028947	-0.003703	0.512961
C118	C	0.072143	-0.003661	0.512626
C119	C	-0.008408	-0.423209	0.952430
C120	C	-0.008128	-0.524272	0.952385
C121	C	0.112464	-0.584336	0.952374
C122	C	0.112190	-0.483267	0.952401
H123	H	0.050098	-0.392105	0.730957
H124	H	0.142219	-0.621297	0.952354
O125	O	-0.043406	-0.533142	0.952322
C126	C	-0.025643	-0.581071	0.952305
H127	H	0.015888	-0.593907	0.936971
H128	H	-0.040472	-0.581759	0.928733
H129	H	-0.037982	-0.606305	0.991198
H130	H	-0.090673	-0.532769	0.266460
H131	H	0.169160	-0.531297	0.362501
O132	O	0.022187	-0.003625	0.357000
C133	C	0.027579	0.038370	0.315874
H134	H	0.022306	0.067734	0.327529
H135	H	-0.000847	0.052452	0.298606
H136	H	0.065638	0.028882	0.288233
O137	O	0.080943	-0.003720	0.548025
C138	C	0.075570	-0.045732	0.589133
H139	H	0.051112	-0.059745	0.588766
H140	H	0.058387	-0.036290	0.623739
H141	H	0.112866	-0.075132	0.588136
O142	O	0.551465	-0.407520	0.327546
C143	C	0.509448	-0.366458	0.334021
H144	H	0.480137	-0.378242	0.369742
H145	H	0.495303	-0.349009	0.302419
H146	H	0.518927	-0.338921	0.335138
H147	H	0.551722	-0.413701	0.480010
H148	H	0.551779	-0.593338	0.424228
O149	O	0.147559	-0.474403	0.952307
C150	C	0.158727	-0.434905	0.910321
H151	H	0.148004	-0.431063	0.880971
H152	H	0.199521	-0.441767	0.896213
H153	H	0.137689	-0.399946	0.919829
O154	O	0.075597	-0.356622	0.634430
C155	C	0.027675	-0.349394	0.667932
H156	H	0.027802	-0.380175	0.704308
H157	H	0.003420	-0.349130	0.653209
H158	H	0.013050	-0.313034	0.673369
H159	H	0.079411	-0.621363	0.542512
H160	H	0.168963	-0.003318	0.362168
O161	O	-0.073070	-0.474695	0.548364
C162	C	-0.103382	-0.426792	0.530743
H163	H	-0.079910	-0.403631	0.499423
H164	H	-0.126733	-0.410469	0.561344
H165	H	-0.128014	-0.427538	0.517216
H166	H	-0.065895	-0.003715	0.542725
H167	H	0.551918	-0.593721	0.569607
H168	H	-0.038161	-0.386246	0.952443
O169	O	0.020104	-0.658489	0.421234
C170	C	0.027327	-0.706422	0.428452
H171	H	-0.003423	-0.706297	0.422682
H172	H	0.027534	-0.730648	0.467184
H173	H	0.063710	-0.721080	0.401326
O174	O	0.206660	-0.472305	0.734765
C175	C	0.254581	-0.479505	0.701260
H176	H	0.254454	-0.473798	0.664886
H177	H	0.278843	-0.518214	0.715983
H178	H	0.269195	-0.452326	0.695818
H179	H	0.232159	-0.436796	0.638236
H180	H	0.049948	-0.392069	0.564138
O181	O	0.075679	-0.356538	0.599549
C182	C	0.082995	-0.311145	0.576341
H183	H	0.121716	-0.315243	0.549347
H184	H	0.077339	-0.298076	0.604835
H185	H	0.055848	-0.283409	0.556076
O186	O	0.206429	-0.472228	0.483817
C187	C	0.254374	-0.479459	0.476563
H188	H	0.254283	-0.448685	0.482265
H189	H	0.278580	-0.479714	0.437842
H190	H	0.269028	-0.515824	0.503713
H191	H	0.232048	-0.436761	0.519270
O192	O	-0.013155	-0.691941	0.270490
C193	C	0.016434	-0.717595	0.237039
H194	H	0.009980	-0.693251	0.200622
H195	H	0.006845	-0.751637	0.251764
H196	H	0.056404	-0.728642	0.231680
H197	H	0.237680	-0.473893	0.585645
H198	H	0.330277	-0.504737	0.554712
H199	H	0.330218	-0.354891	0.497577
H200	H	0.194180	-0.317769	0.481510
O201	O	0.233663	-0.316202	0.527281
C202	C	0.246084	-0.289860	0.476884
H203	H	0.283137	-0.312156	0.456767
H204	H	0.247825	-0.253873	0.470136
H205	H	0.217336	-0.282250	0.462997
O206	O	0.165109	-0.221126	0.442796
C207	C	0.122197	-0.191598	0.430499
H208	H	0.091554	-0.206997	0.459292
H209	H	0.128892	-0.191007	0.393449
H210	H	0.111446	-0.152914	0.428814
O211	O	0.083153	-0.221278	0.607201
C212	C	0.075983	-0.254762	0.655136
H213	H	0.081691	-0.291150	0.655047
H214	H	0.037283	-0.240029	0.679396
H215	H	0.103174	-0.260181	0.669727
H216	H	0.118680	-0.317820	0.632757
H217	H	0.023834	-0.386116	0.362662
O218	O	-0.061693	-0.494067	0.169871
C219	C	-0.112811	-0.472828	0.182276
H220	H	-0.129274	-0.501869	0.196274
H221	H	-0.122531	-0.442736	0.148677
H222	H	-0.127964	-0.456705	0.211907
O223	O	0.020423	-0.658422	0.169921
C224	C	-0.002721	-0.651045	0.140323
H225	H	-0.043641	-0.632476	0.155643
H226	H	0.004376	-0.687710	0.139747
H227	H	0.012385	-0.626986	0.101645
H228	H	-0.090726	-0.532768	0.309877
H229	H	-0.059919	-0.501948	0.340854
H230	H	0.021903	-0.689639	0.319262
O231	O	0.060543	-0.786187	0.348983
C232	C	0.085857	-0.752752	0.323981
H233	H	0.063631	-0.716355	0.303028
H234	H	0.122681	-0.767534	0.297372
H235	H	0.091729	-0.747332	0.351323
O236	O	-0.013427	-0.691909	0.387598
C237	C	-0.056320	-0.704213	0.413200
H238	H	-0.086999	-0.675441	0.430475
H239	H	-0.049625	-0.741281	0.442937
H240	H	-0.067020	-0.705868	0.386892
H241	H	-0.127938	-0.689491	0.376175
O242	O	-0.102355	-0.786019	0.410854
C243	C	-0.126241	-0.773545	0.379593
H244	H	-0.124995	-0.736518	0.350500
H245	H	-0.165824	-0.771719	0.401636
H246	H	-0.107218	-0.802312	0.361366
O247	O	-0.130326	-0.650766	0.428519
C248	C	-0.142836	-0.693553	0.458006
H249	H	-0.179880	-0.686669	0.458442
H250	H	-0.144638	-0.704312	0.496737
H251	H	-0.114105	-0.724277	0.442685
O252	O	-0.230955	-0.617093	0.461847
C253	C	-0.260478	-0.642758	0.474118
H254	H	-0.268066	-0.633544	0.440441
H255	H	-0.296400	-0.631863	0.503677
H256	H	-0.240844	-0.683619	0.488160
H257	H	-0.226640	-0.539563	0.302661
H258	H	-0.134040	-0.570516	0.271939
