data_functionalizedCrystal
_audit_creation_method	'MofGen! by Chris Wilmer'
_symmetry_space_group_name_H-M	'P1'
_symmetry_Int_Tables_number	1
_symmetry_cell_setting	triclinic
loop_
_symmetry_equiv_pos_as_xyz
  x,y,z
_cell_length_a	13.635800
_cell_length_b	10.992421
_cell_length_c	11.102300
_cell_angle_alpha	88.113316
_cell_angle_beta	71.394150
_cell_angle_gamma	108.764763
loop_
_atom_site_label
_atom_site_type_symbol
_atom_site_fract_x
_atom_site_fract_y
_atom_site_fract_z
V1	V	-2.056180	-0.177760	0.396239
O2	O	-2.035261	0.008542	0.388714
O3	O	-2.044976	-0.352469	0.393511
O4	O	-2.044564	-0.175026	0.569060
O5	O	-2.035676	-0.170129	0.211950
V6	V	-2.294679	-0.155476	0.374198
O7	O	-2.193965	-0.226642	0.444586
O8	O	-2.381993	-0.106595	0.325851
O9	O	-2.194280	0.019232	0.376926
O10	O	-2.374296	-0.341779	0.381723
O11	O	-2.373881	-0.163108	0.558487
O12	O	-2.194692	-0.158211	0.201377
C13	C	-1.970230	-0.395060	0.387256
C14	C	-2.001797	-0.537886	0.386178
V15	V	-1.556180	-0.177760	0.396239
O16	O	-1.535261	0.008542	0.388714
O17	O	-1.544976	-0.352469	0.393511
O18	O	-1.544564	-0.175026	0.569060
O19	O	-1.535676	-0.170129	0.211950
V20	V	-1.794679	-0.155476	0.374198
O21	O	-1.693965	-0.226642	0.444586
O22	O	-1.881993	-0.106595	0.325851
O23	O	-1.694280	0.019232	0.376926
O24	O	-1.874296	-0.341779	0.381723
O25	O	-1.873881	-0.163108	0.558487
O26	O	-1.694692	-0.158211	0.201377
C27	C	-1.935650	-0.733173	0.377487
C28	C	-1.902607	-0.584529	0.378104
C29	C	-2.037384	-0.576522	0.267659
C30	C	-2.069505	-0.725065	0.266404
C31	C	-2.134678	-0.763646	0.509361
C32	C	-2.100145	-0.615133	0.511932
C33	C	-1.969704	-0.168711	0.611184
C34	C	-2.000935	-0.167632	0.752467
C35	C	-2.100696	0.061816	0.383178
C36	C	-2.058750	0.204641	0.384264
C37	C	-2.101222	-0.164530	0.159246
C38	C	-2.059610	-0.165603	0.017963
C39	C	-1.470230	-0.395060	0.387256
C40	C	-1.501797	-0.537886	0.386178
C41	C	-2.107627	-0.173541	0.825315
C42	C	-2.136965	-0.172522	0.958063
C43	C	-1.952907	-0.159689	0.945104
C44	C	-1.923569	-0.160699	0.812357
C45	C	-1.657729	-0.748825	0.391820
C46	C	-1.625101	-0.600347	0.393433
C47	C	-1.490046	-0.607097	0.503887
C48	C	-1.523617	-0.755769	0.502912
C49	C	-1.458511	-0.717496	0.259953
C50	C	-1.427349	-0.568776	0.259612
C51	C	-1.469704	-0.168711	0.611184
C52	C	-1.500935	-0.167632	0.752467
C53	C	-1.600696	0.061816	0.383178
C54	C	-1.558750	0.204641	0.384264
C55	C	-1.601222	-0.164530	0.159246
C56	C	-1.559610	-0.165603	0.017963
C57	C	-1.607627	-0.173541	0.825315
C58	C	-1.636965	-0.172522	0.958063
C59	C	-1.452907	-0.159689	0.945104
C60	C	-1.423569	-0.160699	0.812357
H61	H	-1.922538	-0.779594	0.461648
H62	H	-1.877968	-0.753733	0.287271
H63	H	-1.889924	-0.154048	0.993883
O64	O	-1.617006	-0.824428	0.626864
H65	H	-1.637817	-0.751340	0.686934
H66	H	-1.637757	-0.553197	0.309299
O67	O	-1.308482	-0.154305	0.733764
H68	H	-1.313404	-0.242421	0.686515
H69	H	-1.670625	-0.179184	0.776556
O70	O	-2.067104	-0.584336	0.628024
H71	H	-1.981042	-0.514191	0.596316
H72	H	-1.389924	-0.154048	0.993883
O73	O	-1.372910	-0.553536	0.502788
H74	H	-1.366840	-0.604051	0.586900
O75	O	-1.864491	-0.550382	0.490267
H76	H	-1.869542	-0.640133	0.544553
H77	H	-1.723841	-0.177333	1.017371
O78	O	-2.253772	-0.818089	0.517581
H79	H	-2.306846	-0.795291	0.606131
O80	O	-1.484936	-0.751207	0.140414
H81	H	-1.413048	-0.695067	0.054136
O82	O	-1.804413	-0.515045	0.258514
H83	H	-1.780377	-0.587604	0.200006
O84	O	-1.808488	-0.154331	0.733770
H85	H	-1.759624	-0.149362	0.797718
H86	H	-1.686703	-0.773991	0.307182
H87	H	-1.967311	-0.522284	0.174559
H88	H	-2.223841	-0.177333	1.017371
O89	O	-1.756008	-0.820515	0.510585
H90	H	-1.734598	-0.889135	0.564230
H91	H	-1.436482	-0.522182	0.172456
O92	O	-1.702458	-0.575629	0.513745
H93	H	-1.763339	-0.669803	0.571007
H94	H	-2.014329	-0.742580	0.172302
O95	O	-1.561136	-0.580452	0.627960
H96	H	-1.604902	-0.517971	0.606096
O97	O	-1.427979	-0.796889	0.502461
H98	H	-1.357980	-0.710597	0.502950
O99	O	-1.306440	-0.510430	0.242815
H100	H	-1.297482	-0.458279	0.324784
O101	O	-2.191057	-0.180991	0.760708
H102	H	-2.270172	-0.184912	0.833669
O103	O	-1.359997	-0.756169	0.251014
H104	H	-1.382188	-0.830466	0.334618
O105	O	-2.186192	-0.779236	0.266102
H106	H	-2.238559	-0.853102	0.352761
O107	O	-2.133822	-0.536462	0.269443
H108	H	-2.157465	-0.488471	0.355024
H109	H	-2.131295	-0.813163	0.599041
H110	H	-2.175005	-0.584926	0.525169
