data_functionalizedCrystal
_audit_creation_method	'MofGen! by Chris Wilmer'
_symmetry_space_group_name_H-M	'P1'
_symmetry_Int_Tables_number	1
_symmetry_cell_setting	triclinic
loop_
_symmetry_equiv_pos_as_xyz
  x,y,z
_cell_length_a	13.897449
_cell_length_b	29.839131
_cell_length_c	13.897431
_cell_angle_alpha	89.919564
_cell_angle_beta	89.950255
_cell_angle_gamma	90.042700
loop_
_atom_site_label
_atom_site_type_symbol
_atom_site_fract_x
_atom_site_fract_y
_atom_site_fract_z
Zn1	Zn	1.474820	-0.178623	-0.545352
Zn2	Zn	1.474565	-0.253817	-0.384040
Zn3	Zn	1.313427	-0.178704	-0.384070
Zn4	Zn	1.313424	-0.253728	-0.545293
O5	O	1.394059	-0.216218	-0.464689
O6	O	1.609768	-0.188601	-0.523965
O7	O	1.453085	-0.243924	-0.249062
O8	O	1.334944	-0.115826	-0.405501
O9	O	1.609581	-0.243846	-0.405450
O10	O	1.453519	-0.115766	-0.523994
O11	O	1.334698	-0.188739	-0.249084
O12	O	1.178445	-0.188652	-0.405444
O13	O	1.334939	-0.243694	-0.680283
O14	O	1.178443	-0.243773	-0.523894
O15	O	1.453516	-0.188515	-0.680326
O16	O	1.453082	-0.316672	-0.405393
O17	O	1.334692	-0.316607	-0.523865
C18	C	1.143445	-0.216212	-0.464667
C19	C	1.036231	-0.216220	-0.464680
C20	C	0.839936	-0.216222	-0.464705
C21	C	0.949168	-0.216220	-0.464689
C22	C	1.393885	-0.332941	-0.464641
C23	C	1.393899	-0.382875	-0.464653
C24	C	1.455817	-0.692540	-0.403090
C25	C	1.455936	-0.880213	-0.403128
O26	O	1.508443	-0.904496	-0.350749
N27	N	1.394259	-0.903660	-0.464761
C28	C	1.332553	-0.880186	-0.526394
O29	O	1.280103	-0.904436	-0.578825
C30	C	1.332439	-0.692514	-0.526361
C31	C	1.394113	-0.669069	-0.464717
C32	C	1.517487	-0.669095	-0.341452
C33	C	1.517453	-0.622179	-0.341439
C34	C	1.455749	-0.598709	-0.403066
C35	C	1.394079	-0.622154	-0.464704
C36	C	1.270738	-0.669041	-0.587998
C37	C	1.270717	-0.622120	-0.587986
C38	C	1.332391	-0.598675	-0.526342
C39	C	1.332341	-0.551768	-0.526318
N40	N	1.394018	-0.528320	-0.464684
C41	C	1.455722	-0.551791	-0.403058
C42	C	1.332615	-0.978717	-0.526406
C43	C	1.332642	-1.025634	-0.526413
C44	C	1.456027	-1.025658	-0.403148
C45	C	1.455995	-0.978739	-0.403137
C46	C	1.394292	-0.955269	-0.464773
C47	C	1.455645	-0.453265	-0.403036
C48	C	1.455603	-0.406346	-0.403026
C49	C	1.332222	-0.406326	-0.526295
C50	C	1.332260	-0.453242	-0.526302
C51	C	1.393980	-0.476710	-0.464669
O52	O	1.279869	-0.527456	-0.578677
O53	O	1.508179	-0.527533	-0.350650
C54	C	1.455851	-0.739455	-0.403103
C55	C	1.394181	-0.762900	-0.464741
C56	C	1.332478	-0.739429	-0.526368
C57	C	1.394208	-0.809818	-0.464749
C58	C	1.455912	-0.833288	-0.403123
C59	C	1.517589	-0.809841	-0.341489
C60	C	1.517555	-0.762926	-0.341477
C61	C	1.270801	-0.762877	-0.588001
C62	C	1.270839	-0.809792	-0.588008
C63	C	1.332543	-0.833263	-0.526382
C64	C	1.645652	-0.216224	-0.464711
C65	C	1.752866	-0.216227	-0.464721
C66	C	1.394255	-0.216086	-0.716282
C67	C	1.394339	-0.216029	-0.823496
C68	C	1.394260	-0.099040	-0.464758
C69	C	1.394346	-0.049105	-0.464787
C70	C	1.393920	-0.216317	-0.214074
C71	C	1.394023	-0.216247	-0.106860
C72	C	1.394123	-0.216183	-0.019791
C73	C	1.394246	-0.216099	0.089441
H74	H	1.505825	-0.387258	-0.352825
H75	H	1.567739	-0.688200	-0.291268
O76	O	1.515998	-0.956036	-0.343228
C77	C	1.570439	-0.986819	-0.288821
H78	H	1.573791	-1.020234	-0.328343
H79	H	1.535118	-0.991876	-0.215533
C80	C	1.668976	-0.927433	-0.226460
C81	C	1.673100	-0.968473	-0.275005
H82	H	1.732301	-0.916116	-0.217933
H83	H	1.632296	-0.906694	-0.263112
H84	H	1.639537	-0.931653	-0.165392
H85	H	1.702528	-0.964251	-0.336076
H86	H	1.709788	-0.989211	-0.238363
O87	O	1.577417	-0.599358	-0.281700
C88	C	1.639718	-0.572160	-0.336670
H89	H	1.605687	-0.565093	-0.409734
H90	H	1.711206	-0.590204	-0.347344
C91	C	1.698969	-0.536305	-0.193861
C92	C	1.657169	-0.527621	-0.283596
H93	H	1.709738	-0.508832	-0.161122
H94	H	1.656999	-0.554629	-0.156825
H95	H	1.758538	-0.551342	-0.202769
H96	H	1.597596	-0.512589	-0.274686
H97	H	1.699129	-0.509293	-0.320629
H98	H	1.282412	-1.044719	-0.576601
H99	H	1.282043	-0.472332	-0.576500
O100	O	1.210823	-0.832584	-0.647757
C101	C	1.148550	-0.859805	-0.592809
H102	H	1.142573	-0.845728	-0.516825
H103	H	1.178398	-0.895351	-0.589529
C104	C	1.055621	-0.877829	-0.733182
C105	C	1.048274	-0.860537	-0.639860
H106	H	0.993768	-0.878283	-0.762207
H107	H	1.097577	-0.859491	-0.770203
H108	H	1.080498	-0.907449	-0.730436
H109	H	1.023410	-0.830916	-0.642608
H110	H	1.006312	-0.878870	-0.602841
O111	O	1.210800	-0.691738	-0.647975
C112	C	1.156330	-0.660952	-0.702345
H113	H	1.195826	-0.627488	-0.705695
H114	H	1.083066	-0.656022	-0.666961
C115	C	1.093933	-0.720291	-0.800890
C116	C	1.142447	-0.679190	-0.805013
H117	H	1.085365	-0.731541	-0.864219
H118	H	1.130627	-0.741032	-0.764258
H119	H	1.032885	-0.716176	-0.771400
H120	H	1.203498	-0.683306	-0.834491
H121	H	1.105763	-0.658450	-0.841652
H122	H	1.505905	-0.472367	-0.352851
O123	O	1.272429	-0.383500	-0.586261
C124	C	1.327345	-0.356284	-0.648574
H125	H	1.403320	-0.370388	-0.654596
H126	H	1.330655	-0.320747	-0.618736
C127	C	1.186918	-0.338183	-0.741417
C128	C	1.280230	-0.355508	-0.748820
H129	H	1.157854	-0.337703	-0.803253
H130	H	1.149918	-0.356518	-0.699434
H131	H	1.189689	-0.308571	-0.716549
H132	H	1.277456	-0.385122	-0.773677
H133	H	1.317228	-0.337178	-0.790810
H134	H	1.506269	-1.044776	-0.352970
H135	H	1.220473	-0.603013	-0.638181
H136	H	1.220555	-0.743771	-0.638186
H137	H	1.282367	-0.959611	-0.576599
O138	O	1.577561	-0.740224	-0.281569
C139	C	1.632005	-0.771009	-0.227169
H140	H	1.635354	-0.804422	-0.266697
H141	H	1.596687	-0.776069	-0.153880
C142	C	1.730546	-0.711626	-0.164804
C143	C	1.734667	-0.752664	-0.213357
H144	H	1.793872	-0.700309	-0.156280
H145	H	1.693864	-0.690885	-0.201451
H146	H	1.701111	-0.715848	-0.103735
H147	H	1.764091	-0.748440	-0.274429
H148	H	1.771356	-0.773403	-0.176720
H149	H	1.567828	-0.828959	-0.291308
