data_functionalizedCrystal
_audit_creation_method	'MofGen! by Chris Wilmer'
_symmetry_space_group_name_H-M	'P1'
_symmetry_Int_Tables_number	1
_symmetry_cell_setting	triclinic
loop_
_symmetry_equiv_pos_as_xyz
  x,y,z
_cell_length_a	19.288864
_cell_length_b	19.288840
_cell_length_c	17.766277
_cell_angle_alpha	89.983415
_cell_angle_beta	90.028157
_cell_angle_gamma	96.868870
loop_
_atom_site_label
_atom_site_type_symbol
_atom_site_fract_x
_atom_site_fract_y
_atom_site_fract_z
O1	O	-0.086566	0.921364	-0.062756
O2	O	0.413434	1.421364	0.437244
O3	O	-0.098273	0.719101	-0.062734
O4	O	0.401727	1.219101	0.437266
O5	O	0.008711	0.826077	-0.062699
O6	O	0.508711	1.326077	0.437301
O7	O	-0.193550	0.814388	-0.062791
O8	O	0.306450	1.314388	0.437209
O9	O	0.008717	0.826058	0.062489
O10	O	0.508717	1.326058	0.562489
O11	O	-0.098267	0.719082	0.062454
O12	O	0.401733	1.219082	0.562454
O13	O	-0.086560	0.921345	0.062433
O14	O	0.413440	1.421345	0.562433
Cu15	Cu	-0.092413	0.820212	0.073874
Cu16	Cu	0.407587	1.320212	0.573874
Cu17	Cu	-0.092420	0.820234	-0.074176
Cu18	Cu	0.407580	1.320234	0.425824
O19	O	-0.193545	0.814369	0.062398
O20	O	0.306455	1.314369	0.562398
C21	C	-0.097896	0.693215	-0.000137
C22	C	0.402104	1.193215	0.499863
C23	C	-0.096774	0.616110	-0.000126
C24	C	0.403226	1.116110	0.499874
C25	C	-0.096238	0.579917	-0.068368
C26	C	0.403762	1.079917	0.431632
C27	C	-0.095176	0.507470	-0.068377
C28	C	0.404824	1.007470	0.431623
C29	C	-0.094636	0.471221	-0.000140
C30	C	0.405364	0.971221	0.499860
C31	C	-0.095176	0.507423	0.068111
C32	C	0.404824	1.007423	0.568111
C33	C	-0.096245	0.579867	0.068118
C34	C	0.403755	1.079867	0.568118
C35	C	-0.052256	0.361886	0.052148
C36	C	0.447744	0.861886	0.552148
C37	C	-0.051183	0.289443	0.052138
C38	C	0.448817	0.789443	0.552138
C39	C	-0.091342	0.247778	-0.000158
C40	C	0.408658	0.747778	0.499842
C41	C	-0.132566	0.278565	-0.052457
C42	C	0.367434	0.778565	0.447543
C43	C	-0.133635	0.351010	-0.052450
C44	C	0.366365	0.851010	0.447550
C45	C	-0.093477	0.392667	-0.000139
C46	C	0.406523	0.892667	0.499861
C47	C	-0.089655	0.133029	-0.068414
C48	C	0.410345	0.633029	0.431586
C49	C	-0.088598	0.060580	-0.068420
C50	C	0.411402	0.560580	0.431580
C51	C	-0.088591	0.060535	0.068070
C52	C	0.411409	0.560535	0.568070
C53	C	-0.089656	0.132982	0.068074
C54	C	0.410344	0.632982	0.568074
C55	C	-0.090185	0.169225	-0.000170
C56	C	0.409815	0.669225	0.499830
C57	C	-0.219424	0.814755	-0.000209
C58	C	0.280576	1.314755	0.499791
C59	C	-0.296527	0.815884	-0.000245
C60	C	0.203473	1.315884	0.499755
C61	C	-0.341229	0.753115	-0.000223
C62	C	0.158771	1.253115	0.499777
C63	C	-0.413676	0.754176	-0.000206
C64	C	0.086324	1.254176	0.499794
C65	C	-0.441418	0.818009	-0.000196
C66	C	0.058582	1.318009	0.499804
C67	C	-0.396706	0.880786	-0.000222
C68	C	0.103294	1.380786	0.499778
C69	C	-0.324261	0.879723	-0.000246
C70	C	0.175739	1.379723	0.499754
C71	C	-0.549662	0.868182	0.043698
C72	C	-0.049662	1.368182	0.543698
C73	C	-0.622106	0.869242	0.043727
C74	C	-0.122106	1.369242	0.543727
C75	C	-0.664863	0.821289	-0.000124
C76	C	-0.164863	1.321289	0.499876
C77	C	-0.635169	0.772264	-0.043994
C78	C	-0.135169	1.272264	0.456006
C79	C	-0.562724	0.771201	-0.044018
C80	C	-0.062724	1.271201	0.455982
C81	C	-0.519972	0.819168	-0.000170
C82	C	-0.019972	1.319168	0.499830
C83	C	-0.788121	0.759666	-0.000085
C84	C	-0.288121	1.259666	0.499915
C85	C	-0.860569	0.760729	-0.000072
C86	C	-0.360569	1.260729	0.499928
C87	C	-0.843598	0.887341	-0.000081
C88	C	-0.343598	1.387341	0.499919
C89	C	-0.771151	0.886276	-0.000101
C90	C	-0.271151	1.386276	0.499899
C91	C	-0.743418	0.822436	-0.000099
C92	C	-0.243418	1.322436	0.499901
C93	C	0.034591	0.825692	-0.000094
C94	C	0.534591	1.325692	0.499906
C95	C	0.111694	0.824563	-0.000064
C96	C	0.611694	1.324563	0.499936
C97	C	-0.086937	0.947232	-0.000167
C98	C	0.413063	1.447232	0.499833
C99	C	-0.088059	1.024336	-0.000182
C100	C	0.411941	1.524336	0.499818
N101	N	-0.092409	0.820202	0.178005
N102	N	0.407591	1.320202	0.678005
N103	N	-0.092419	0.820250	-0.178306
N104	N	0.407581	1.320250	0.321694
C105	C	-0.045059	0.867586	0.217407
C106	C	0.454941	1.367586	0.717407
C107	C	-0.045056	0.867590	0.296209
C108	C	0.454944	1.367590	0.796209
C109	C	-0.092414	0.820216	0.335605
C110	C	0.407586	1.320216	0.835605
C111	C	-0.139767	0.772823	0.296193
C112	C	0.360233	1.272823	0.796193
C113	C	-0.139764	0.772816	0.217393
C114	C	0.360236	1.272816	0.717393
C115	C	-0.155703	0.810917	0.460415
C116	C	0.344297	1.310917	0.960415
C117	C	-0.155706	0.810930	0.539214
C118	C	0.344294	1.310930	1.039214
C119	C	-0.092422	0.820235	0.578651
C120	C	0.407578	1.320235	1.078651
C121	C	-0.029132	0.829543	0.539280
C122	C	0.470868	1.329543	1.039280
C123	C	-0.029129	0.829535	0.460480
C124	C	0.470871	1.329535	0.960480
C125	C	-0.092422	0.820219	0.421051
C126	C	0.407578	1.320219	0.921051
C127	C	-0.045065	0.867626	0.703500
C128	C	0.454935	1.367626	1.203500
C129	C	-0.045061	0.867625	0.782303
C130	C	0.454939	1.367625	1.282303
C131	C	-0.139779	0.772862	0.782286
C132	C	0.360221	1.272862	1.282286
C133	C	-0.139777	0.772859	0.703484
C134	C	0.360223	1.272859	1.203484
C135	C	-0.092421	0.820245	0.664096
C136	C	0.407579	1.320245	1.164096
H137	H	-0.094741	0.477996	-0.123949
H138	H	0.405259	0.977996	0.376051
C139	C	-0.191858	0.720709	0.339530
C140	C	0.308142	1.220709	0.839530
N141	N	-0.231093	0.681453	0.372172
N142	N	0.268907	1.181453	0.872172
C143	C	-0.310727	0.682890	-0.000229
C144	C	0.189273	1.182890	0.499771
N145	N	-0.287751	0.629995	-0.000236
N146	N	0.212249	1.129995	0.499764
C147	C	-0.654763	0.923167	0.091988
C148	C	-0.154763	1.423167	0.591988
N149	N	-0.679359	0.963785	0.128339
N150	N	-0.179359	1.463785	0.628339
H151	H	-0.896966	0.709613	-0.000060
H152	H	-0.396966	1.209613	0.499940
C153	C	-0.721977	0.955327	-0.000109
C154	C	-0.221977	1.455327	0.499891
N155	N	-0.684938	1.007340	-0.000115
N156	N	-0.184938	1.507340	0.499885
C157	C	-0.462857	0.685123	-0.000174
C158	C	0.037143	1.185123	0.499826
N159	N	-0.499899	0.633112	-0.000146
N160	N	0.000101	1.133112	0.499854
H161	H	-0.538550	0.731285	-0.079740
H162	H	-0.038550	1.231285	0.420260
H163	H	-0.207241	0.803355	0.571264
H164	H	0.292759	1.303355	1.071264
C165	C	-0.225324	0.800680	0.417042
C166	C	0.274676	1.300680	0.917042
N167	N	-0.277762	0.792970	0.384374
N168	N	0.222238	1.292970	0.884374
C169	C	-0.090236	0.172797	0.143147
C170	C	0.409764	0.672797	0.643147
N171	N	-0.090673	0.202786	0.199695
N172	N	0.409327	0.702786	0.699695
C173	C	-0.176750	0.232737	-0.109984
C174	C	0.323250	0.732737	0.390016
N175	N	-0.210028	0.198217	-0.153311
N176	N	0.289972	0.698217	0.346689
C177	C	0.007041	0.919705	0.174085
C178	C	0.507041	1.419705	0.674085
N179	N	0.046285	0.958960	0.141453
N180	N	0.546285	1.458960	0.641453
C181	C	0.007028	0.919725	0.339560
C182	C	0.507028	1.419725	0.839560
N183	N	0.046254	0.958996	0.372210
N184	N	0.546254	1.458996	0.872210
H185	H	-0.096683	0.609335	0.123691
H186	H	0.403317	1.109335	0.623691
H187	H	-0.090094	0.162539	-0.123982
H188	H	0.409906	0.662539	0.376018
H189	H	-0.167202	0.376073	-0.095033
H190	H	0.332798	0.876073	0.404967
H191	H	-0.669982	0.733212	-0.079696
H192	H	-0.169982	1.233212	0.420304
C193	C	-0.094581	0.467548	0.143172
C194	C	0.405419	0.967548	0.643172
N195	N	-0.094135	0.437514	0.199711
N196	N	0.405865	0.937514	0.699711
H197	H	-0.096669	0.609422	-0.123938
H198	H	0.403331	1.109422	0.376062
C199	C	0.040488	0.839765	0.417175
C200	C	0.540488	1.339765	0.917175
N201	N	0.092926	0.847465	0.384558
N202	N	0.592926	1.347465	0.884558
C203	C	-0.757612	0.689442	-0.000094
C204	C	-0.257612	1.189442	0.499906
N205	N	-0.734634	0.636548	-0.000103
N206	N	-0.234634	1.136548	0.499897
C207	C	-0.087998	0.020665	0.143132
C208	C	0.412002	0.520665	0.643132
N209	N	-0.087553	-0.009368	0.199671
N210	N	0.412447	0.490632	0.699671
H211	H	-0.866184	0.939315	-0.000127
H212	H	-0.366184	1.439315	0.499873
H213	H	-0.088165	0.031112	-0.123993
H214	H	0.411835	0.531112	0.376007
C215	C	-0.191916	0.720782	0.660140
C216	C	0.308084	1.220782	1.160140
N217	N	-0.231205	0.681571	0.627493
N218	N	0.268795	1.181571	1.127493
C219	C	0.007033	0.919744	0.660170
C220	C	0.507033	1.419744	1.160170
N221	N	0.046275	0.958999	0.627536
N222	N	0.546275	1.458999	1.127536
H223	H	-0.017613	0.264382	0.094720
H224	H	0.482387	0.764382	0.594720
C225	C	0.007042	0.919743	0.825646
C226	C	0.507042	1.419743	1.325646
N227	N	0.046290	0.958996	0.858292
N228	N	0.546290	1.458996	1.358292
H229	H	-0.019552	0.395805	0.094738
H230	H	0.480448	0.895805	0.594738
H231	H	-0.514853	0.907237	0.079405
H232	H	-0.014853	1.407237	0.579405
C233	C	-0.427224	0.951002	-0.000206
C234	C	0.072776	1.451002	0.499794
N235	N	-0.450209	1.003891	-0.000196
N236	N	0.049791	1.503891	0.499804
H237	H	0.022400	0.837120	0.571389
H238	H	0.522400	1.337120	1.071389
C239	C	-0.275087	0.948777	-0.000261
C240	C	0.224913	1.448777	0.499739
N241	N	-0.238047	1.000789	-0.000269
N242	N	0.261953	1.500789	0.499731
H243	H	-0.178336	0.734287	0.814362
H244	H	0.321664	1.234287	1.314362
C245	C	-0.191885	0.720717	0.174049
C246	C	0.308115	1.220717	0.674049
N247	N	-0.231155	0.681487	0.141401
N248	N	0.268845	1.181487	0.641401
