data_functionalizedCrystal
_audit_creation_method	'MofGen! by Chris Wilmer'
_symmetry_space_group_name_H-M	'P1'
_symmetry_Int_Tables_number	1
_symmetry_cell_setting	triclinic
loop_
_symmetry_equiv_pos_as_xyz
  x,y,z
_cell_length_a	17.699083
_cell_length_b	10.868271
_cell_length_c	17.699092
_cell_angle_alpha	89.999730
_cell_angle_beta	83.284691
_cell_angle_gamma	89.998307
loop_
_atom_site_label
_atom_site_type_symbol
_atom_site_fract_x
_atom_site_fract_y
_atom_site_fract_z
O1	O	1.004079	0.102145	0.095707
O2	O	0.783701	0.102185	0.108160
O3	O	0.900113	0.102161	-0.008255
O4	O	0.887667	0.102169	0.212122
O5	O	0.900102	-0.102484	-0.008252
O6	O	0.783690	-0.102460	0.108163
O7	O	1.004068	-0.102499	0.095711
Zn8	Zn	0.893878	-0.134971	0.101938
Zn9	Zn	0.893892	0.134657	0.101933
O10	O	0.887656	-0.102476	0.212126
C11	C	0.755499	-0.000132	0.107715
C12	C	0.671480	-0.000117	0.106377
C13	C	0.622862	-0.000115	0.174710
C14	C	0.543918	-0.000131	0.173448
C15	C	0.513595	-0.000140	0.103851
C16	C	0.562220	-0.000146	0.035513
C17	C	0.641162	-0.000139	0.036776
C18	C	0.243857	-0.000177	0.030418
C19	C	0.164909	-0.000180	0.029160
C20	C	0.146613	-0.000169	0.167089
C21	C	0.225555	-0.000162	0.168352
C22	C	0.274173	-0.000174	0.100014
C23	C	0.359772	-0.000159	0.101384
C24	C	0.427998	-0.000146	0.102481
N25	N	0.893874	-0.318985	0.101941
C26	C	0.893880	-0.430323	0.101941
C27	C	0.893890	-0.570001	0.101934
C28	C	1.032271	-0.000180	0.096155
C29	C	1.116289	-0.000187	0.097494
C30	C	0.899661	-0.000159	-0.036450
C31	C	0.898319	-0.000153	-0.120468
N32	N	0.893901	0.318671	0.101924
C33	C	0.897697	0.111400	-0.159938
C34	C	0.896432	0.111402	-0.238881
C35	C	0.895795	-0.000151	-0.278353
C36	C	0.896415	-0.111713	-0.238878
C37	C	0.897675	-0.111714	-0.159936
C38	C	0.891335	-0.111714	-0.557243
C39	C	0.890078	-0.111705	-0.636191
C40	C	0.890092	0.111401	-0.636188
C41	C	0.891352	0.111401	-0.557246
C42	C	0.891968	-0.000160	-0.517777
C43	C	0.893338	-0.000161	-0.432178
C44	C	0.894430	-0.000152	-0.363952
C45	C	0.888109	-0.000153	0.240321
C46	C	0.889450	-0.000150	0.324339
H47	H	0.107018	-0.000165	0.222733
H48	H	0.889557	-0.202550	-0.668327
O49	O	0.898439	0.219727	-0.121574
C50	C	0.965359	0.349177	-0.041082
C51	C	0.964634	0.226466	-0.084511
H52	H	1.018864	0.354654	-0.011093
H53	H	0.964739	0.428965	-0.082820
H54	H	0.912972	0.354720	0.002864
H55	H	1.017012	0.220804	-0.128457
H56	H	0.965215	0.146737	-0.042727
O57	O	0.135579	-0.000251	-0.038516
C58	C	0.162053	-0.000205	-0.175196
C59	C	0.195371	-0.000156	-0.098613
H60	H	0.210379	-0.000102	-0.223804
H61	H	0.125580	-0.085870	-0.179278
H62	H	0.125523	0.085417	-0.179198
H63	H	0.231935	-0.085720	-0.094560
H64	H	0.231801	0.085566	-0.094564
O65	O	0.891909	-0.219970	-0.518789
C66	C	0.893889	-0.318869	-0.397185
C67	C	0.893221	-0.196176	-0.440641
H68	H	0.894966	-0.299675	-0.333996
H69	H	0.840681	-0.373889	-0.405629
H70	H	0.946573	-0.373885	-0.419774
H71	H	0.840572	-0.141061	-0.418079
H72	H	0.946464	-0.141250	-0.432198
H73	H	0.889586	0.202240	-0.668333
O74	O	0.895765	-0.220187	-0.277098
C75	C	0.895932	-0.441486	-0.268769
C76	C	0.896649	-0.318727	-0.225391
H77	H	0.896663	-0.521187	-0.226985
H78	H	0.842385	-0.447139	-0.298685
H79	H	0.948277	-0.447006	-0.312768
H80	H	0.844340	-0.313124	-0.181356
H81	H	0.950231	-0.313125	-0.195528
H82	H	0.895928	0.202240	-0.271014
O83	O	0.891819	0.219816	-0.518938
C84	C	0.826653	0.410543	-0.486193
C85	C	0.826033	0.287781	-0.529581
H86	H	0.773479	0.465539	-0.494795
H87	H	0.827605	0.391506	-0.422968
H88	H	0.879372	0.465506	-0.508739
H89	H	0.773323	0.232756	-0.507099
H90	H	0.825121	0.306904	-0.592800
H91	H	0.898171	-0.202552	-0.127799
O92	O	0.291112	-0.000391	-0.035941
C93	C	0.390898	-0.106359	-0.114550
C94	C	0.337408	-0.106289	-0.039376
H95	H	0.428353	-0.191955	-0.117344
H96	H	0.355704	-0.106437	-0.164538
H97	H	0.428274	-0.020673	-0.117395
H98	H	0.300020	-0.191961	-0.036457
H99	H	0.372647	-0.106147	0.010578
H100	H	0.504335	-0.000128	0.229091
O101	O	0.652188	-0.000159	0.242383
C102	C	0.625699	-0.000081	0.379062
C103	C	0.592389	-0.000055	0.302474
H104	H	0.577368	0.000029	0.427665
H105	H	0.662176	-0.085740	0.383156
H106	H	0.662221	0.085547	0.383059
H107	H	0.555833	-0.085625	0.298424
H108	H	0.555955	0.085661	0.298412
H109	H	0.250239	-0.000148	0.225025
O110	O	0.688285	-0.000079	-0.029673
C111	C	0.698107	-0.000160	-0.166618
C112	C	0.644655	-0.000193	-0.091420
H113	H	0.662854	-0.000278	-0.216560
H114	H	0.735506	0.085506	-0.169529
H115	H	0.735542	-0.085781	-0.169431
H116	H	0.607172	0.085369	-0.088556
H117	H	0.607309	-0.085916	-0.088540
H118	H	0.537525	-0.000171	-0.021154
