data_functionalizedCrystal
_audit_creation_method	'MofGen! by Chris Wilmer'
_symmetry_space_group_name_H-M	'P1'
_symmetry_Int_Tables_number	1
_symmetry_cell_setting	triclinic
loop_
_symmetry_equiv_pos_as_xyz
  x,y,z
_cell_length_a	29.839135
_cell_length_b	21.395363
_cell_length_c	21.395355
_cell_angle_alpha	90.003952
_cell_angle_beta	89.971956
_cell_angle_gamma	89.996030
loop_
_atom_site_label
_atom_site_type_symbol
_atom_site_fract_x
_atom_site_fract_y
_atom_site_fract_z
Zn1	Zn	-0.686897	-0.249480	0.354383
Zn2	Zn	-0.686864	-0.354240	0.249632
Zn3	Zn	-0.611763	-0.249484	0.249614
Zn4	Zn	-0.611779	-0.354227	0.354366
O5	O	-0.649326	-0.301858	0.301999
O6	O	-0.749760	-0.263381	0.340503
O7	O	-0.676882	-0.340351	0.161952
O8	O	-0.621737	-0.161806	0.263511
O9	O	-0.749736	-0.340348	0.263543
O10	O	-0.676937	-0.161803	0.340485
O11	O	-0.621706	-0.263387	0.161938
O12	O	-0.548898	-0.263374	0.263494
O13	O	-0.621763	-0.340326	0.442046
O14	O	-0.548910	-0.340329	0.340456
O15	O	-0.676952	-0.263369	0.442059
O16	O	-0.676897	-0.441916	0.263526
O17	O	-0.621732	-0.441907	0.340474
C18	C	-0.532603	-0.301851	0.301971
C19	C	-0.482669	-0.301863	0.301974
C20	C	-0.173035	-0.261834	0.342128
C21	C	0.014638	-0.261835	0.342145
O22	O	0.038895	-0.227791	0.376256
N23	N	0.038116	-0.301847	0.302017
C24	C	0.014673	-0.341858	0.261880
O25	O	0.038949	-0.375886	0.227746
C26	C	-0.172999	-0.341854	0.261861
C27	C	-0.196475	-0.301844	0.301995
C28	C	-0.196511	-0.221827	0.382258
C29	C	-0.243426	-0.221830	0.382256
C30	C	-0.266866	-0.261839	0.342124
C31	C	-0.243390	-0.301846	0.301993
C32	C	-0.196441	-0.381861	0.221721
C33	C	-0.243362	-0.381855	0.221719
C34	C	-0.266838	-0.341846	0.261853
C35	C	-0.313745	-0.341858	0.261858
N36	N	-0.337223	-0.301847	0.301986
C37	C	-0.313784	-0.261837	0.342118
C38	C	0.113204	-0.341859	0.261894
C39	C	0.160122	-0.341861	0.261900
C40	C	0.160083	-0.261837	0.342163
C41	C	0.113165	-0.261838	0.342160
C42	C	0.089726	-0.301847	0.302021
C43	C	-0.412310	-0.261846	0.342111
C44	C	-0.459229	-0.261854	0.342107
C45	C	-0.459187	-0.341875	0.261842
C46	C	-0.412271	-0.341870	0.261847
C47	C	-0.388834	-0.301850	0.301984
O48	O	-0.338031	-0.375880	0.227760
O49	O	-0.338068	-0.227804	0.376238
C50	C	-0.126119	-0.261832	0.342130
C51	C	-0.102644	-0.301839	0.302000
C52	C	-0.126083	-0.341848	0.261867
C53	C	-0.055726	-0.301841	0.302005
C54	C	-0.032286	-0.261831	0.342138
C55	C	-0.055764	-0.221819	0.382265
C56	C	-0.102680	-0.221822	0.382263
C57	C	-0.102605	-0.381860	0.221740
C58	C	-0.055690	-0.381855	0.221746
C59	C	-0.032250	-0.341845	0.261878
C60	C	-0.649325	-0.464646	0.302014
C61	C	-0.649365	-0.534287	0.302041
C62	C	0.233496	-0.301861	0.302025
C63	C	0.183561	-0.301851	0.302032
C64	C	-0.649363	-0.301845	0.465422
C65	C	-0.649379	-0.301840	0.535064
C66	C	-0.649339	-0.138435	0.301997
C67	C	-0.649345	-0.068794	0.301997
C68	C	-0.620610	-0.036081	0.261922
C69	C	-0.620610	0.029355	0.261929
C70	C	-0.649352	0.062075	0.302005
C71	C	-0.678088	0.029354	0.342088
C72	C	-0.678085	-0.036080	0.342084
C73	C	-0.689834	0.165742	0.306967
C74	C	-0.689838	0.231175	0.306966
C75	C	-0.649362	0.263896	0.302022
C76	C	-0.608881	0.231175	0.297064
C77	C	-0.608877	0.165741	0.297060
C78	C	-0.649359	0.133027	0.302014
C79	C	-0.620625	0.367561	0.261952
C80	C	-0.620624	0.432998	0.261964
C81	C	-0.678106	0.432996	0.342120
C82	C	-0.678103	0.367560	0.342111
C83	C	-0.649363	0.334847	0.302024
C84	C	-0.649315	-0.301825	0.139211
C85	C	-0.649386	-0.301654	0.069570
C86	C	-0.678115	-0.261767	0.567784
C87	C	-0.678114	-0.261740	0.633220
C88	C	-0.649383	-0.301797	0.665932
C89	C	-0.620641	-0.341873	0.633203
C90	C	-0.620640	-0.341895	0.567769
C91	C	-0.645835	-0.358213	0.769611
C92	C	-0.645840	-0.358192	0.835044
C93	C	-0.649385	-0.301731	0.867753
C94	C	-0.652935	-0.245288	0.835020
C95	C	-0.652934	-0.245310	0.769586
C96	C	-0.649381	-0.301778	0.736884
C97	C	-0.678122	-0.261625	0.971426
C98	C	-0.678118	-0.261597	1.036863
C99	C	-0.620648	-0.341736	1.036845
C100	C	-0.620649	-0.341759	0.971410
C101	C	-0.649388	-0.301704	0.938704
H102	H	-0.262536	-0.189248	0.414937
H103	H	-0.597238	-0.374526	0.541128
H104	H	-0.701507	0.459636	0.374753
O105	O	-0.565222	0.266460	0.291720
H106	H	-0.537075	0.232716	0.288264
H107	H	-0.177335	-0.414441	0.189039
H108	H	0.094124	-0.374441	0.229207
O109	O	-0.709113	-0.218368	1.072152
H110	H	-0.689009	-0.186472	1.101934
O111	O	-0.709107	-0.218504	0.668510
H112	H	-0.689000	-0.186611	0.698291
H113	H	-0.478280	-0.374451	0.229168
H114	H	-0.478341	-0.229272	0.374791
O115	O	-0.656760	-0.184435	0.734283
H116	H	-0.656166	-0.193939	0.683289
H117	H	-0.642952	-0.404152	0.861690
H118	H	-0.597247	-0.374486	0.659842
O119	O	-0.709100	0.332270	0.385330
H120	H	-0.729089	0.366014	0.413196
H121	H	-0.597222	0.459633	0.229332
O122	O	-0.387033	-0.218687	0.385403
H123	H	-0.411246	-0.190876	0.413309
O124	O	-0.656748	-0.184382	0.870286
H125	H	-0.656143	-0.193845	0.921285
O126	O	-0.709112	-0.218419	0.936143
H127	H	-0.729089	-0.190540	0.969892
O128	O	-0.386946	-0.385023	0.218563
H129	H	-0.411130	-0.412842	0.190655
O130	O	-0.565220	0.130446	0.291718
H131	H	-0.543173	0.142998	0.331556
O132	O	0.185368	-0.218675	0.385445
H133	H	0.221936	-0.225398	0.378697
H134	H	-0.597249	-0.374346	1.063479
H135	H	-0.177431	-0.189243	0.414939
H136	H	-0.722800	0.257813	0.310999
O137	O	-0.733493	0.130452	0.312304
H138	H	-0.738063	0.100635	0.270333
O139	O	0.087845	-0.218678	0.385439
H140	H	0.112031	-0.190856	0.413341
O141	O	-0.030475	-0.178666	0.425549
H142	H	-0.054678	-0.150843	0.453460
O143	O	-0.268644	-0.425010	0.178427
H144	H	-0.244434	-0.452831	0.150526
H145	H	-0.121790	-0.189241	0.414944
H146	H	-0.597210	0.055994	0.229294
H147	H	-0.701490	0.055998	0.374720
H148	H	0.179232	-0.374448	0.229225
O149	O	-0.030371	-0.425007	0.178451
H150	H	-0.054557	-0.452820	0.150541
O151	O	-0.709081	-0.071370	0.385306
H152	H	-0.729069	-0.037627	0.413174
H153	H	-0.701516	-0.229150	0.541159
H154	H	-0.642827	-0.404179	0.742986
H155	H	-0.121685	-0.414440	0.189058
O156	O	-0.589610	-0.071366	0.218693
H157	H	-0.569625	-0.037621	0.190831
O158	O	-0.589642	-0.384972	0.936124
H159	H	-0.597334	-0.434148	0.948692
O160	O	-0.589623	0.332269	0.218726
H161	H	-0.569636	0.366013	0.190868
