data_functionalizedCrystal
_audit_creation_method	'MofGen! by Chris Wilmer'
_symmetry_space_group_name_H-M	'P1'
_symmetry_Int_Tables_number	1
_symmetry_cell_setting	triclinic
loop_
_symmetry_equiv_pos_as_xyz
  x,y,z
_cell_length_a	33.359812
_cell_length_b	33.359725
_cell_length_c	33.359654
_cell_angle_alpha	90.001854
_cell_angle_beta	59.997599
_cell_angle_gamma	120.000157
loop_
_atom_site_label
_atom_site_type_symbol
_atom_site_fract_x
_atom_site_fract_y
_atom_site_fract_z
O1	O	0.286918	0.274992	-0.628580
O2	O	0.204831	0.216699	-0.488201
O3	O	0.286917	0.216699	-0.570284
O4	O	0.204833	0.274992	-0.546497
O5	O	0.353587	0.283371	-0.570284
O6	O	0.271502	0.283371	-0.488201
O7	O	0.353589	0.341664	-0.628579
Cu8	Cu	0.318633	0.318605	-0.558390
Cu9	Cu	0.239787	0.239758	-0.558390
O10	O	0.271503	0.341664	-0.546497
C11	C	0.117505	0.484624	-0.529537
C12	C	0.068923	0.460278	-0.529198
C13	C	0.117504	0.412035	-0.529537
C14	C	0.068922	0.387799	-0.529198
C15	C	0.044915	0.412035	-0.529537
C16	C	0.141401	0.460278	-0.529198
C17	C	0.196148	0.563078	-0.535428
C18	C	0.222873	0.612653	-0.539146
C19	C	0.199935	0.637516	-0.541011
C20	C	0.228911	0.691268	-0.545045
C21	C	0.150267	0.612810	-0.539154
C22	C	0.123542	0.563238	-0.535434
C23	C	0.146485	0.538374	-0.533573
C24	C	-0.027648	0.412224	-0.535428
C25	C	-0.073504	0.389374	-0.539145
C26	C	-0.096502	0.341572	-0.541011
C27	C	-0.146221	0.316796	-0.545045
C28	C	-0.073653	0.316611	-0.539154
C29	C	-0.027801	0.339458	-0.535434
C30	C	-0.004799	0.387265	-0.533573
C31	C	0.196147	0.412223	-0.535428
C32	C	0.222875	0.389375	-0.539152
C33	C	0.199936	0.341573	-0.541017
C34	C	0.228912	0.316796	-0.545051
C35	C	0.150273	0.316614	-0.539162
C36	C	0.123545	0.339460	-0.535440
C37	C	0.146484	0.387264	-0.533573
O38	O	-0.279084	0.216701	-0.570284
O39	O	-0.162496	0.274994	-0.546497
O40	O	-0.162492	0.274994	-0.628579
O41	O	-0.279087	0.216701	-0.488201
O42	O	-0.162491	0.341666	-0.628579
O43	O	-0.162494	0.341666	-0.546496
O44	O	-0.279082	0.283373	-0.570284
Cu45	Cu	-0.220788	0.318607	-0.558390
Cu46	Cu	-0.220790	0.239760	-0.558390
O47	O	-0.279085	0.283373	-0.488201
C48	C	0.440929	0.412028	-0.925546
C49	C	0.489512	0.460271	-0.949783
C50	C	0.440926	0.412030	-0.852955
C51	C	0.489509	0.460273	-0.877302
C52	C	0.513518	0.484619	-0.925546
C53	C	0.417030	0.387793	-0.877302
C54	C	0.362287	0.339275	-0.925357
C55	C	0.335563	0.316267	-0.948207
C56	C	0.358503	0.341070	-0.996010
C57	C	0.329529	0.316128	-1.020787
C58	C	0.408172	0.388881	-1.020972
C59	C	0.434895	0.411887	-0.998124
C60	C	0.411950	0.387083	-0.950317
C61	C	0.586084	0.563072	-0.998301
C62	C	0.631940	0.612646	-1.021308
C63	C	0.654937	0.637511	-0.996503
C64	C	0.704656	0.691263	-1.021446
C65	C	0.632086	0.612805	-0.948692
C66	C	0.586233	0.563233	-0.925686
C67	C	0.563232	0.538369	-0.950491
C68	C	0.362281	0.339278	-0.774499
C69	C	0.335550	0.316275	-0.724921
C70	C	0.358488	0.341080	-0.700058
C71	C	0.329511	0.316139	-0.646304
C72	C	0.408152	0.388888	-0.724763
C73	C	0.434882	0.411894	-0.774338
C74	C	0.411945	0.387087	-0.799204
C75	C	0.513507	0.146330	-0.587243
C76	C	0.489500	0.098087	-0.587583
C77	C	0.440918	0.146330	-0.587243
C78	C	0.417021	0.098087	-0.587583
C79	C	0.440918	0.073741	-0.587243
C80	C	0.489500	0.170566	-0.587583
C81	C	0.586070	0.219083	-0.581353
C82	C	0.631926	0.242090	-0.577635
C83	C	0.654925	0.217286	-0.575769
C84	C	0.704643	0.242228	-0.571736
C85	C	0.632075	0.169476	-0.577626
C86	C	0.586223	0.146471	-0.581346
C87	C	0.563221	0.171275	-0.583207
C88	C	0.435216	-0.004713	-0.581353
C89	C	0.408648	-0.054288	-0.577635
C90	C	0.358981	-0.079151	-0.575770
C91	C	0.330171	-0.132903	-0.571736
C92	C	0.335877	-0.054445	-0.577626
C93	C	0.362444	-0.004873	-0.581347
C94	C	0.412112	0.019991	-0.583208
C95	C	0.435215	0.219083	-0.581353
C96	C	0.408643	0.242087	-0.577628
C97	C	0.358976	0.217283	-0.575763
C98	C	0.330166	0.242224	-0.571729
C99	C	0.335872	0.169474	-0.577618
C100	C	0.362440	0.146468	-0.581340
C101	C	0.412112	0.171274	-0.583208
O102	O	0.286917	0.849370	-0.570284
O103	O	0.204836	0.708994	-0.546497
O104	O	0.286920	0.791075	-0.628580
O105	O	0.204833	0.767290	-0.488201
O106	O	0.353591	0.791076	-0.628580
O107	O	0.271507	0.708995	-0.546497
O108	O	0.353589	0.849371	-0.570284
Cu109	Cu	0.318636	0.779183	-0.558390
Cu110	Cu	0.239789	0.779182	-0.558390
O111	O	0.271505	0.767290	-0.488201
O112	O	0.837507	0.849368	-1.054208
O113	O	0.720929	0.708990	-0.995918
O114	O	0.720915	0.791064	-0.995913
O115	O	0.837520	0.767294	-1.054214
O116	O	0.720918	0.791063	-1.062586
O117	O	0.720932	0.708988	-1.062591
O118	O	0.837510	0.849366	-1.120881
Cu119	Cu	0.779221	0.779177	-1.097824
Cu120	Cu	0.779218	0.779179	-1.018976
O121	O	0.837523	0.767292	-1.120887
O122	O	0.271514	0.283364	-1.120876
O123	O	0.353602	0.341656	-1.062588
O124	O	0.271512	0.341652	-1.062573
O125	O	0.353604	0.283368	-1.120890
O126	O	0.204845	0.274977	-0.995904
O127	O	0.286935	0.274981	-0.995919
O128	O	0.204847	0.216689	-1.054207
Cu129	Cu	0.239804	0.239747	-1.018976
Cu130	Cu	0.318645	0.318598	-1.097819
O131	O	0.286937	0.216693	-1.054222
C132	C	0.044922	0.073731	-0.191244
C133	C	0.068930	0.098077	-0.167008
C134	C	0.117509	0.146323	-0.263832
C135	C	0.141406	0.170559	-0.239486
C136	C	0.117511	0.146321	-0.191244
C137	C	0.068928	0.098079	-0.239486
C138	C	-0.027641	-0.004723	-0.191433
C139	C	-0.073495	-0.054298	-0.168584
C140	C	-0.096492	-0.079163	-0.120783
C141	C	-0.146209	-0.132915	-0.096007
C142	C	-0.073641	-0.054457	-0.095822
C143	C	-0.027791	-0.004884	-0.118669
C144	C	-0.004790	0.019981	-0.166474
C145	C	0.123216	0.146131	-0.118493
C146	C	0.149784	0.168981	-0.095487
C147	C	0.199451	0.216784	-0.120291
C148	C	0.228262	0.241561	-0.095350
C149	C	0.222553	0.241746	-0.168101
C150	C	0.195985	0.218899	-0.191104
C151	C	0.146318	0.171091	-0.166300
C152	C	0.123208	0.146136	-0.342286
C153	C	0.149779	0.168985	-0.391862
C154	C	0.199445	0.216788	-0.416725
C155	C	0.228254	0.241567	-0.470477
C156	C	0.222550	0.241747	-0.392021
C157	C	0.195984	0.218900	-0.342447
C158	C	0.146313	0.171095	-0.317581
C159	C	0.117532	0.484631	-0.925541
C160	C	0.141444	0.460292	-0.949772
C161	C	0.044947	0.412044	-0.852948
C162	C	0.068970	0.387816	-0.877290
C163	C	0.117558	0.412054	-0.925532
C164	C	0.068944	0.460282	-0.877299
C165	C	0.123206	0.563073	-0.925361
C166	C	0.149763	0.612643	-0.948214
C167	C	0.199436	0.637510	-0.996016
C168	C	0.228234	0.691258	-1.020796
C169	C	0.222556	0.612811	-1.020972
C170	C	0.195999	0.563243	-0.998121
C171	C	0.146326	0.538376	-0.950315
C172	C	0.196223	0.412256	-0.998278
C173	C	0.222963	0.389415	-1.021280
C174	C	0.200034	0.341619	-0.996471
C175	C	0.229026	0.316852	-1.021408
C176	C	0.150361	0.316655	-0.948662
C177	C	0.123621	0.339493	-0.925662
C178	C	0.146554	0.387294	-0.950471
C179	C	-0.027640	0.412223	-0.774499
C180	C	-0.073498	0.389373	-0.724923
C181	C	-0.096486	0.341577	-0.700055
C182	C	-0.146211	0.316798	-0.646304
C183	C	-0.073620	0.316626	-0.724755
C184	C	-0.027762	0.339473	-0.774329
C185	C	-0.004774	0.387272	-0.799199
C186	C	-0.559097	0.146342	-0.191235
C187	C	-0.582997	0.098099	-0.166998
C188	C	-0.486507	0.146338	-0.263825
C189	C	-0.510516	0.098095	-0.239477
C190	C	-0.559100	0.073751	-0.191233
C191	C	-0.510513	0.170576	-0.239479
C192	C	-0.564795	0.219096	-0.191426
C193	C	-0.591362	0.242104	-0.168576
C194	C	-0.641032	0.217302	-0.120773
C195	C	-0.669841	0.242246	-0.095997
C196	C	-0.664138	0.169491	-0.095811
C197	C	-0.637572	0.146485	-0.118658
C198	C	-0.587902	0.171287	-0.166465
C199	C	-0.637748	-0.004702	-0.118478
C200	C	-0.664475	-0.054276	-0.095470
C201	C	-0.641537	-0.079141	-0.120274
C202	C	-0.670516	-0.132893	-0.095330
C203	C	-0.591868	-0.054436	-0.168085
C204	C	-0.565141	-0.004864	-0.191091
C205	C	-0.588083	0.020001	-0.166288
C206	C	-0.413938	0.219089	-0.342282
C207	C	-0.368084	0.242092	-0.391860
C208	C	-0.345086	0.217287	-0.416723
C209	C	-0.295366	0.242227	-0.470476
C210	C	-0.367939	0.169478	-0.392017
C211	C	-0.413793	0.146473	-0.342441
C212	C	-0.436790	0.171281	-0.317576
C213	C	0.513517	0.808032	-0.925547
C214	C	0.489510	0.808370	-0.949783
C215	C	0.440925	0.808032	-0.852955
C216	C	0.417028	0.808371	-0.877301
C217	C	0.440926	0.808031	-0.925545
C218	C	0.489509	0.808372	-0.877303
C219	C	0.586082	0.802143	-0.925361
C220	C	0.631940	0.798425	-0.948212
C221	C	0.654939	0.796559	-0.996015
C222	C	0.704659	0.792526	-1.020793
C223	C	0.632089	0.798415	-1.020976
C224	C	0.586236	0.802135	-0.998127
C225	C	0.563232	0.803996	-0.950319
C226	C	0.435225	0.802139	-0.998298
C227	C	0.408658	0.798421	-1.021304
C228	C	0.358989	0.796555	-0.996499
C229	C	0.330179	0.792521	-1.021440
C230	C	0.335884	0.798412	-0.948687
C231	C	0.362452	0.802133	-0.925683
C232	C	0.412120	0.803994	-0.950489
C233	C	0.435223	0.802143	-0.774500
C234	C	0.408650	0.798419	-0.724923
C235	C	0.358981	0.796554	-0.700058
C236	C	0.330170	0.792521	-0.646304
C237	C	0.335877	0.798408	-0.724762
C238	C	0.362445	0.802129	-0.774337
C239	C	0.412118	0.803997	-0.799204
O240	O	0.353542	0.849357	-1.120897
O241	O	0.271494	0.708989	-1.062597
O242	O	0.353553	0.791087	-1.062591
O243	O	0.271483	0.767259	-1.120902
O244	O	0.286861	0.791075	-0.995924
O245	O	0.204802	0.708977	-0.995930
O246	O	0.286850	0.849345	-1.054230
Cu247	Cu	0.239737	0.779160	-1.018993
Cu248	Cu	0.318608	0.779174	-1.097834
O249	O	0.204791	0.767247	-1.054235
C250	C	0.117488	0.750334	-0.191234
C251	C	0.068905	0.749995	-0.166998
C252	C	0.117492	0.750333	-0.263825
C253	C	0.068909	0.749994	-0.239479
C254	C	0.044899	0.750333	-0.191235
C255	C	0.141387	0.749994	-0.239478
C256	C	0.196131	0.756225	-0.191421
C257	C	0.222854	0.759944	-0.168571
C258	C	0.199912	0.761809	-0.120767
C259	C	0.228886	0.765844	-0.095990
C260	C	0.150244	0.759953	-0.095806
C261	C	0.123521	0.756232	-0.118655
C262	C	0.146466	0.754370	-0.166463
C263	C	-0.027668	0.756224	-0.118481
C264	C	-0.073526	0.759942	-0.095475
C265	C	-0.096523	0.761807	-0.120280
C266	C	-0.146242	0.765840	-0.095338
C267	C	-0.073670	0.759949	-0.168092
C268	C	-0.027817	0.756229	-0.191096
C269	C	-0.004816	0.754369	-0.166291
C270	C	0.196139	0.756223	-0.342281
C271	C	0.222870	0.759947	-0.391858
C272	C	0.199933	0.761811	-0.416723
C273	C	0.228911	0.765845	-0.470476
C274	C	0.150269	0.759957	-0.392018
C275	C	0.123537	0.756235	-0.342443
C276	C	0.146475	0.754368	-0.317576
H277	H	0.214827	0.451147	-0.533905
H278	H	-0.009219	0.754708	-0.230021
C279	C	0.068910	0.536057	-0.533389
C280	C	0.067299	0.513197	-0.573121
C281	C	0.012666	0.486014	-0.571076
C282	C	-0.040357	0.481691	-0.529299
C283	C	-0.038747	0.504551	-0.489565
C284	C	0.015886	0.531734	-0.491610
H285	H	0.106551	0.516396	-0.604049
H286	H	0.011475	0.469091	-0.600490
H287	H	-0.080799	0.461569	-0.527785
H288	H	-0.077999	0.501352	-0.458636
H289	H	0.017077	0.548657	-0.462195
C290	C	0.364219	0.334245	-0.850895
C291	C	0.309028	0.321082	-0.803307
C292	C	0.256218	0.267536	-0.776902
C293	C	0.258600	0.227152	-0.798085
C294	C	0.313793	0.240314	-0.845675
C295	C	0.366603	0.293860	-0.872080
H296	H	0.307263	0.350977	-0.787625
H297	H	0.215361	0.257793	-0.741672
H298	H	0.219507	0.187514	-0.778538
H299	H	0.315558	0.210418	-0.861358
H300	H	0.407460	0.303603	-0.907310
C301	C	0.489854	0.022638	-0.583407
C302	C	0.489469	0.004680	-0.540610
C303	C	0.544106	0.032030	-0.542659
C304	C	0.599127	0.077337	-0.587505
C305	C	0.599514	0.095298	-0.630306
C306	C	0.544878	0.067948	-0.628256
H307	H	0.448738	-0.028862	-0.507409
H308	H	0.543819	0.018734	-0.510975
H309	H	0.639572	0.097583	-0.589022
H310	H	0.640246	0.128839	-0.663507
H311	H	0.545165	0.081244	-0.659940
H312	H	0.130935	0.632749	-0.927892
C313	C	0.337031	0.804168	-0.801512
C314	C	0.318539	0.764432	-0.824364
C315	C	0.293123	0.766469	-0.851538
C316	C	0.286199	0.808244	-0.855860
C317	C	0.304692	0.847983	-0.833008
C318	C	0.330108	0.845946	-0.805834
H319	H	0.323664	0.733506	-0.821165
H320	H	0.279433	0.737051	-0.868454
H321	H	0.267385	0.809752	-0.875976
H322	H	0.299567	0.878910	-0.836207
H323	H	0.343798	0.875364	-0.788917
C324	C	0.041761	0.749258	-0.265879
C325	C	0.036201	0.791287	-0.273472
C326	C	0.009052	0.790553	-0.299868
C327	C	-0.012537	0.747791	-0.318670
C328	C	-0.006977	0.705760	-0.311077
C329	C	0.020172	0.706493	-0.284681
H330	H	0.052183	0.822944	-0.259554
H331	H	0.004937	0.821667	-0.305489
H332	H	-0.032634	0.747248	-0.338209
H333	H	-0.022959	0.674102	-0.324995
H334	H	0.024288	0.675379	-0.279061
H335	H	0.475319	0.450823	-0.794452
C336	C	0.041750	0.749252	-0.113446
C337	C	0.020161	0.706485	-0.073062
C338	C	-0.006998	0.705740	-0.019512
C339	C	-0.012567	0.747763	-0.006346
C340	C	0.009023	0.790533	-0.046732
C341	C	0.036181	0.791278	-0.100282
H342	H	0.024283	0.675375	-0.082807
H343	H	-0.022980	0.674079	0.010384
H344	H	-0.032671	0.747211	0.033295
H345	H	0.004901	0.821643	-0.036986
H346	H	0.052163	0.822939	-0.130177
H347	H	-0.349482	0.281019	-0.411971
C348	C	0.337037	0.022308	-0.583389
C349	C	0.330115	0.026632	-0.625165
C350	C	0.304708	0.053814	-0.627207
C351	C	0.286223	0.076672	-0.587474
C352	C	0.293144	0.072349	-0.545696
C353	C	0.318551	0.045167	-0.543653
H354	H	0.343800	0.009710	-0.654580
H355	H	0.299585	0.057014	-0.658134
H356	H	0.267415	0.096794	-0.588986
H357	H	0.279459	0.089271	-0.516280
H358	H	0.323674	0.041967	-0.512726
C359	C	-0.635795	0.071711	-0.113441
C360	C	-0.633385	0.052939	-0.073066
C361	C	-0.686173	0.026559	-0.019508
C362	C	-0.741371	0.018952	-0.006324
C363	C	-0.743784	0.037724	-0.046700
C364	C	-0.690995	0.064103	-0.100258
H365	H	-0.592521	0.058570	-0.082825
H366	H	-0.684387	0.012663	0.010380
H367	H	-0.780449	-0.000576	0.033322
H368	H	-0.784647	0.032093	-0.036941
H369	H	-0.692781	0.078000	-0.130146
C370	C	0.221380	0.535727	-0.533372
C371	C	0.281753	0.553683	-0.576168
C372	C	0.306989	0.526333	-0.574117
C373	C	0.271851	0.481026	-0.529269
C374	C	0.211475	0.463067	-0.486470
C375	C	0.186239	0.490417	-0.488521
H376	H	0.307768	0.587225	-0.609370
H377	H	0.351684	0.539628	-0.605800
H378	H	0.290532	0.460779	-0.527750
H379	H	0.185460	0.429525	-0.453268
H380	H	0.141544	0.477122	-0.456838
C381	C	0.277202	0.640168	-1.073557
C382	C	0.332214	0.685480	-1.083722
C383	C	0.386859	0.712834	-1.136306
C384	C	0.386493	0.694876	-1.178725
C385	C	0.331479	0.649562	-1.168560
C386	C	0.276834	0.622208	-1.115976
H387	H	0.332487	0.698776	-1.052320
H388	H	0.427584	0.746379	-1.143830
H389	H	0.426944	0.715125	-1.217650
H390	H	0.331206	0.636266	-1.199962
H391	H	0.236109	0.588663	-1.108453
C392	C	0.221444	0.464835	-1.025570
C393	C	0.186304	0.474990	-1.035288
C394	C	0.211528	0.527570	-1.062579
C395	C	0.271894	0.569995	-1.080150
C396	C	0.307038	0.559841	-1.070432
C397	C	0.281813	0.507261	-1.043142
H398	H	0.141614	0.443583	-1.022281
H399	H	0.185512	0.535087	-1.069773
H400	H	0.290566	0.608919	-1.100352
H401	H	0.351727	0.591248	-1.083440
H402	H	0.307830	0.499745	-1.035947
C403	C	-0.098968	0.762003	-0.195380
C404	C	-0.123813	0.719204	-0.212949
C405	C	-0.149108	0.721256	-0.240239
C406	C	-0.149558	0.766107	-0.249960
C407	C	-0.124712	0.808909	-0.232389
C408	C	-0.099417	0.806857	-0.205099
H409	H	-0.123480	0.686000	-0.205754
H410	H	-0.167501	0.689571	-0.253246
H411	H	-0.168283	0.767626	-0.270161
H412	H	-0.125045	0.842113	-0.239585
H413	H	-0.081025	0.838542	-0.192093
C414	C	0.434067	0.796383	-0.697752
C415	C	0.494483	0.839193	-0.715833
C416	C	0.519898	0.837153	-0.688659
C417	C	0.484898	0.792303	-0.643404
C418	C	0.424479	0.749490	-0.625320
C419	C	0.399063	0.751529	-0.652494
H420	H	0.520396	0.872397	-0.749336
H421	H	0.564625	0.868847	-0.702046
H422	H	0.503712	0.790793	-0.623288
H423	H	0.398566	0.716286	-0.591817
H424	H	0.354337	0.719836	-0.639107
C425	C	0.516647	0.486677	-1.003329
C426	C	0.522195	0.534259	-1.016481
C427	C	0.549324	0.560664	-1.070023
C428	C	0.570905	0.539486	-1.110414
C429	C	0.565357	0.491901	-1.097263
C430	C	0.538228	0.465497	-1.043721
H431	H	0.506219	0.549938	-0.986580
H432	H	0.553431	0.595889	-1.079758
H433	H	0.590988	0.559032	-1.150049
H434	H	0.581333	0.476222	-1.127164
H435	H	0.534121	0.430271	-1.033986
H436	H	0.263405	0.409746	-1.060207
H437	H	0.567634	0.803649	-1.018451
C438	C	-0.439234	0.246379	-0.314931
C439	C	-0.464077	0.263949	-0.332886
C440	C	-0.489375	0.291238	-0.305536
C441	C	-0.489831	0.300957	-0.260232
C442	C	-0.464987	0.283386	-0.242275
C443	C	-0.439688	0.256097	-0.269625
H444	H	-0.463741	0.256755	-0.366425
H445	H	-0.507766	0.304245	-0.318829
H446	H	-0.508558	0.321158	-0.239986
H447	H	-0.465323	0.290580	-0.208736
H448	H	-0.421297	0.243090	-0.256332
C449	C	0.125033	0.762010	-0.419369
C450	C	0.160169	0.806859	-0.464674
C451	C	0.134934	0.808910	-0.492025
C452	C	0.074565	0.766113	-0.474071
C453	C	0.039426	0.721261	-0.428763
C454	C	0.064660	0.719209	-0.401412
H455	H	0.204861	0.838543	-0.477967
H456	H	0.160947	0.842113	-0.525564
H457	H	0.055885	0.767632	-0.494317
H458	H	-0.005266	0.689577	-0.415471
H459	H	0.038648	0.686006	-0.367873
H460	H	0.427462	0.281015	-0.576122
H461	H	0.214815	0.754706	-0.230347
H462	H	0.426827	0.409088	-0.704513
H463	H	0.048832	0.348160	-0.528653
H464	H	0.567346	0.239284	-0.582870
H465	H	0.343641	0.803649	-0.886756
C466	C	0.041774	0.486671	-0.850895
C467	C	0.020182	0.505450	-0.872083
C468	C	-0.006991	0.531834	-0.845679
C469	C	-0.012571	0.539440	-0.798086
C470	C	0.009021	0.520660	-0.776895
C471	C	0.036194	0.494276	-0.803299
H472	H	0.024313	0.499820	-0.907317
H473	H	-0.022975	0.545736	-0.861366
H474	H	-0.032686	0.558971	-0.778540
H475	H	0.004891	0.526290	-0.741661
H476	H	0.052179	0.480374	-0.787612
C477	C	0.281233	0.142185	-0.575565
C478	C	0.228118	0.093525	-0.533782
C479	C	0.173481	0.066239	-0.531731
C480	C	0.171959	0.087612	-0.571464
C481	C	0.225076	0.136274	-0.613250
C482	C	0.279713	0.163561	-0.615301
H483	H	0.229243	0.077701	-0.504367
H484	H	0.134160	0.030216	-0.500798
H485	H	0.131513	0.067414	-0.569946
H486	H	0.223951	0.152098	-0.642665
H487	H	0.319033	0.199583	-0.646234
C488	C	0.277508	0.416837	-0.541199
C489	C	0.277043	0.434452	-0.498395
C490	C	0.331682	0.461919	-0.500450
C491	C	0.386787	0.471772	-0.545309
C492	C	0.387253	0.454157	-0.588115
C493	C	0.332614	0.426689	-0.586060
H494	H	0.236250	0.427159	-0.465186
H495	H	0.331336	0.474959	-0.468762
H496	H	0.427234	0.492105	-0.546830
H497	H	0.428047	0.461450	-0.621325
H498	H	0.332960	0.413649	-0.617749
C499	C	0.489866	0.804194	-1.025587
C500	C	0.542982	0.845978	-1.074246
C501	C	0.597620	0.848029	-1.101534
C502	C	0.599141	0.808294	-1.080163
C503	C	0.546023	0.766506	-1.031502
C504	C	0.491385	0.764456	-1.004214
H505	H	0.541857	0.875395	-1.090067
H506	H	0.636941	0.878963	-1.137556
H507	H	0.639588	0.809812	-1.100364
H508	H	0.547148	0.737090	-1.015680
H509	H	0.452064	0.733522	-0.968192
C510	C	0.125036	0.264027	-0.541215
C511	C	0.064666	0.221613	-0.498416
C512	C	0.039431	0.169026	-0.500466
C513	C	0.074565	0.158854	-0.545315
C514	C	0.134939	0.201270	-0.588118
C515	C	0.160175	0.253856	-0.586067
H516	H	0.038654	0.229142	-0.465213
H517	H	-0.005262	0.137628	-0.468781
H518	H	0.055885	0.119926	-0.546833
H519	H	0.160951	0.193741	-0.621321
H520	H	0.204868	0.285255	-0.617753
C521	C	0.657058	0.294677	-0.575591
C522	C	0.619607	0.305922	-0.533811
C523	C	0.644744	0.358511	-0.531770
C524	C	0.707332	0.399856	-0.571509
C525	C	0.744786	0.388613	-0.613292
C526	C	0.719650	0.336023	-0.615333
H527	H	0.573273	0.275315	-0.504391
H528	H	0.617017	0.366834	-0.500839
H529	H	0.725939	0.438786	-0.569998
H530	H	0.791121	0.419220	-0.642711
H531	H	0.747377	0.327700	-0.646263
H532	H	-0.092373	-0.074709	-0.056896
C533	C	0.125139	0.264074	-0.921371
C534	C	0.160276	0.253922	-0.911643
C535	C	0.135051	0.201342	-0.884351
C536	C	0.074689	0.158915	-0.866786
C537	C	0.039548	0.169067	-0.876513
C538	C	0.064774	0.221646	-0.903806
H539	H	0.204962	0.285330	-0.924646
H540	H	0.161064	0.193827	-0.877150
H541	H	0.056016	0.119992	-0.846582
H542	H	-0.005138	0.137659	-0.863510
H543	H	0.038760	0.229161	-0.911006
C544	C	0.277506	0.639830	-0.541193
C545	C	0.279116	0.662681	-0.501457
C546	C	0.333750	0.689861	-0.503503
C547	C	0.386773	0.694190	-0.545285
C548	C	0.385165	0.671338	-0.585024
C549	C	0.330531	0.644158	-0.582978
H550	H	0.239863	0.659478	-0.470524
H551	H	0.334940	0.706778	-0.474085
H552	H	0.427217	0.714311	-0.546799
H553	H	0.424418	0.674542	-0.615956
H554	H	0.329341	0.627241	-0.612396
H555	H	-0.524350	0.239296	-0.230352
C556	C	0.280931	0.263681	-0.920751
C557	C	0.279324	0.222335	-0.941992
C558	C	0.224692	0.169745	-0.914537
C559	C	0.171667	0.158502	-0.865843
C560	C	0.173272	0.199849	-0.844599
C561	C	0.227905	0.252439	-0.872054
H562	H	0.318578	0.230656	-0.978041
H563	H	0.223504	0.139137	-0.930263
H564	H	0.131225	0.119572	-0.845519
H565	H	0.134019	0.191528	-0.808550
H566	H	0.229093	0.283047	-0.856328
C567	C	-0.565947	0.294691	-0.196034
C568	C	-0.600954	0.304949	-0.205870
C569	C	-0.575538	0.357538	-0.233326
C570	C	-0.515115	0.399870	-0.250947
C571	C	-0.480105	0.389614	-0.241111
C572	C	-0.505521	0.337024	-0.213655
H573	H	-0.645686	0.273611	-0.192826
H574	H	-0.601455	0.365130	-0.240607
H575	H	-0.496300	0.438800	-0.271271
H576	H	-0.435373	0.420952	-0.254155
H577	H	-0.479604	0.329432	-0.206374
C578	C	0.068977	0.312039	-0.873079
C579	C	0.015969	0.263336	-0.861845
C580	C	-0.038679	0.235883	-0.809263
C581	C	-0.040318	0.257132	-0.767915
C582	C	0.012692	0.305837	-0.779147
C583	C	0.067339	0.333290	-0.831729
H584	H	0.017181	0.247604	-0.892455
H585	H	-0.077920	0.199828	-0.800948
H586	H	-0.080772	0.236809	-0.728990
H587	H	0.011480	0.321569	-0.748537
H588	H	0.106581	0.369345	-0.840044
C589	C	-0.098908	0.264045	-0.697401
C590	C	-0.123737	0.221625	-0.715356
C591	C	-0.149028	0.169043	-0.688001
C592	C	-0.149491	0.158882	-0.642690
C593	C	-0.124662	0.201304	-0.624732
C594	C	-0.099370	0.253885	-0.652087
H595	H	-0.123395	0.229145	-0.748900
H596	H	-0.167409	0.137641	-0.701295
H597	H	-0.168214	0.119959	-0.622439
H598	H	-0.125004	0.193783	-0.591188
H599	H	-0.080990	0.285288	-0.638794
H600	H	0.427466	-0.074397	-0.576125
C601	C	0.125036	0.640164	-0.541209
C602	C	0.160171	0.685465	-0.586062
C603	C	0.134936	0.712815	-0.588116
C604	C	0.074567	0.694864	-0.545318
C605	C	0.039428	0.649561	-0.500462
C606	C	0.064663	0.622211	-0.498407
H607	H	0.204863	0.698755	-0.617747
H608	H	0.160948	0.746352	-0.621322
H609	H	0.055887	0.715111	-0.546838
H610	H	-0.005264	0.636271	-0.468777
H611	H	0.038651	0.588674	-0.465201
C612	C	-0.098634	0.416832	-0.541189
C613	C	-0.061181	0.465526	-0.582969
C614	C	-0.086316	0.492980	-0.585012
C615	C	-0.148904	0.471740	-0.545275
C616	C	-0.186361	0.423043	-0.503492
C617	C	-0.161226	0.395589	-0.501449
H618	H	-0.014846	0.481252	-0.612387
H619	H	-0.058587	0.529029	-0.615943
H620	H	-0.167510	0.492063	-0.546788
H621	H	-0.232696	0.407317	-0.474074
H622	H	-0.188955	0.359541	-0.470518
H623	H	0.083083	0.754724	-0.098332
C624	C	0.194202	0.749260	-0.265889
C625	C	0.249396	0.791294	-0.273506
C626	C	0.302209	0.790561	-0.299919
C627	C	0.299827	0.747793	-0.318715
C628	C	0.244630	0.705756	-0.311099
C629	C	0.191817	0.706489	-0.284686
H630	H	0.251162	0.822956	-0.259592
H631	H	0.343070	0.821680	-0.305557
H632	H	0.338922	0.747251	-0.338268
H633	H	0.242865	0.674094	-0.325014
H634	H	0.150957	0.675370	-0.279048
C635	C	0.433405	0.416167	-1.073559
C636	C	0.451763	0.394795	-1.114817
C637	C	0.477000	0.422083	-1.167404
C638	C	0.483878	0.470743	-1.178731
C639	C	0.465520	0.492119	-1.137472
C640	C	0.440284	0.464830	-1.084886
H641	H	0.446672	0.358771	-1.106433
H642	H	0.490590	0.406259	-1.197947
H643	H	0.502560	0.490944	-1.217659
H644	H	0.470612	0.528142	-1.145856
H645	H	0.426694	0.480654	-1.054343
C646	C	0.657374	0.142189	-0.575571
C647	C	0.720005	0.163560	-0.615300
C648	C	0.745301	0.136272	-0.613245
C649	C	0.707965	0.087611	-0.571462
C650	C	0.645330	0.066236	-0.531731
C651	C	0.620034	0.093525	-0.533785
H652	H	0.747646	0.199584	-0.646233
H653	H	0.791667	0.152095	-0.642658
H654	H	0.726691	0.067410	-0.569941
H655	H	0.617689	0.030212	-0.500797
H656	H	0.573668	0.077702	-0.504373
H657	H	0.214817	0.754700	-0.322036
C658	C	0.277486	0.761988	-0.196026
C659	C	0.330511	0.803767	-0.244721
C660	C	0.385143	0.805808	-0.272174
C661	C	0.386750	0.766071	-0.250932
C662	C	0.333723	0.724289	-0.202235
C663	C	0.279091	0.722248	-0.174781
H664	H	0.329323	0.833185	-0.260447
H665	H	0.424397	0.836738	-0.308223
H666	H	0.427192	0.767582	-0.271255
H667	H	0.334910	0.694871	-0.186508
H668	H	0.239836	0.691318	-0.138732
C669	C	-0.098953	0.264025	-0.541208
C670	C	-0.061619	0.252695	-0.582990
C671	C	-0.086917	0.200109	-0.585043
C672	C	-0.149548	0.158853	-0.545313
C673	C	-0.186886	0.170182	-0.503528
C674	C	-0.161588	0.222767	-0.501475
H675	H	-0.015252	0.283236	-0.612403
H676	H	-0.059276	0.191724	-0.615975
H677	H	-0.168275	0.119926	-0.546832
H678	H	-0.233253	0.139640	-0.474115
H679	H	-0.189228	0.231153	-0.470543
H680	H	0.427477	0.796910	-1.060233
C681	C	0.489859	0.246376	-0.583414
C682	C	0.489481	0.263952	-0.540619
C683	C	0.544123	0.291247	-0.542679
C684	C	0.599144	0.300966	-0.587534
C685	C	0.599525	0.283389	-0.630332
C686	C	0.544882	0.256094	-0.628272
H687	H	0.448749	0.256758	-0.507412
H688	H	0.543842	0.304258	-0.510997
H689	H	0.639594	0.321171	-0.589059
H690	H	0.640256	0.290583	-0.663539
H691	H	0.545163	0.243083	-0.659954
C692	C	0.657384	0.640159	-0.921404
C693	C	0.682231	0.622208	-0.903835
C694	C	0.707526	0.649558	-0.876546
C695	C	0.707976	0.694860	-0.866826
C696	C	0.683129	0.712813	-0.884396
C697	C	0.657833	0.685463	-0.911685
H698	H	0.681899	0.588671	-0.911030
H699	H	0.725920	0.636268	-0.863540
H700	H	0.726702	0.715106	-0.846625
H701	H	0.683461	0.746350	-0.877201
H702	H	0.639439	0.698754	-0.924691
C703	C	0.124372	0.141522	-0.042900
C704	C	0.117461	0.092829	-0.031662
C705	C	0.092053	0.065374	0.020926
C706	C	0.073556	0.086612	0.062276
C707	C	0.080467	0.135308	0.051039
C708	C	0.105875	0.162763	-0.001549
H709	H	0.131154	0.077106	-0.062273
H710	H	0.086937	0.029327	0.029244
H711	H	0.054747	0.066288	0.101204
H712	H	0.066774	0.151032	0.081650
H713	H	0.110991	0.198810	-0.009867
C714	C	0.516649	0.809112	-0.850894
C715	C	0.578214	0.851878	-0.872074
C716	C	0.605351	0.852620	-0.845665
C717	C	0.570924	0.810596	-0.798075
C718	C	0.509355	0.767827	-0.776892
C719	C	0.482218	0.767085	-0.803302
H720	H	0.603702	0.882989	-0.907306
H721	H	0.650928	0.884280	-0.861346
H722	H	0.591012	0.811145	-0.778525
H723	H	0.483867	0.736716	-0.741661
H724	H	0.436641	0.735425	-0.787620
C725	C	0.516657	0.486685	-0.850902
C726	C	0.482243	0.494304	-0.803322
C727	C	0.509392	0.520717	-0.776926
C728	C	0.570957	0.539511	-0.798110
C729	C	0.605375	0.531892	-0.845692
C730	C	0.578225	0.505479	-0.872088
H731	H	0.436666	0.480391	-0.787638
H732	H	0.483914	0.526357	-0.741702
H733	H	0.591055	0.559064	-0.778570
H734	H	0.650952	0.545805	-0.861376
H735	H	0.603704	0.499840	-0.907312
H736	H	0.475335	0.450814	-1.018449
H737	H	0.567627	0.543119	-0.886757
C738	C	0.657073	0.639819	-1.073897
C739	C	0.681791	0.621733	-1.116233
C740	C	0.706928	0.648911	-1.168823
C741	C	0.707346	0.694174	-1.179077
C742	C	0.682627	0.712262	-1.136740
C743	C	0.657490	0.685085	-1.084150
H744	H	0.681482	0.588225	-1.108643
H745	H	0.725227	0.635520	-1.200164
H746	H	0.725954	0.714292	-1.218008
H747	H	0.682936	0.745771	-1.144330
H748	H	0.639191	0.698475	-1.052810
H749	H	0.295438	0.796894	-0.928492
C750	C	0.281237	-0.081798	-0.575573
C751	C	0.228125	-0.086247	-0.533791
C752	C	0.173487	-0.113596	-0.531739
C753	C	0.171961	-0.136497	-0.571468
C754	C	0.225075	-0.132050	-0.613253
C755	C	0.279713	-0.104700	-0.615306
H756	H	0.229253	-0.069293	-0.504378
H757	H	0.134169	-0.116889	-0.500806
H758	H	0.131515	-0.156743	-0.569949
H759	H	0.223947	-0.149003	-0.642667
H760	H	0.319031	-0.101408	-0.646238
H761	H	0.214823	0.543133	-1.018442
H762	H	0.295114	0.277348	-0.704811
C763	C	0.194221	0.224106	-0.265880
C764	C	0.191857	0.264503	-0.284678
C765	C	0.244671	0.318047	-0.311066
C766	C	0.299850	0.331194	-0.318656
C767	C	0.302216	0.290795	-0.299858
C768	C	0.249402	0.237251	-0.273470
H769	H	0.151008	0.254772	-0.279059
H770	H	0.242919	0.347952	-0.324981
H771	H	0.338946	0.370830	-0.338190
H772	H	0.343065	0.300526	-0.305477
H773	H	0.251154	0.207346	-0.259555
H774	H	-0.009202	0.319132	-0.533917
C775	C	-0.483373	0.071689	-0.265883
C776	C	-0.517796	0.024102	-0.273485
C777	C	-0.490653	-0.002303	-0.299890
C778	C	-0.429087	0.018879	-0.318691
C779	C	-0.394660	0.066469	-0.311089
C780	C	-0.421803	0.092874	-0.284685
H781	H	-0.563374	0.008419	-0.259567
H782	H	-0.516138	-0.037532	-0.305517
H783	H	-0.408994	-0.000667	-0.338237
H784	H	-0.349082	0.082151	-0.325008
H785	H	-0.396318	0.128103	-0.279057
H786	H	0.509595	0.078543	-0.588130
C787	C	0.041780	0.071675	-0.265889
C788	C	0.020182	0.092853	-0.284671
C789	C	-0.006967	0.066451	-0.311071
C790	C	-0.012518	0.018871	-0.318689
C791	C	0.009080	-0.002310	-0.299906
C792	C	0.036229	0.024092	-0.273506
H793	H	0.024291	0.128077	-0.279032
H794	H	-0.022955	0.082131	-0.324976
H795	H	-0.032615	-0.000674	-0.338232
H796	H	0.004972	-0.037534	-0.305545
H797	H	0.052218	0.008412	-0.259602
H798	H	0.295429	0.796887	-0.704512
C799	C	0.125009	0.762008	-0.043220
C800	C	0.106651	0.722281	-0.001961
C801	C	0.081413	0.724336	0.050626
C802	C	0.074534	0.766118	0.061953
C803	C	0.092892	0.805848	0.020693
C804	C	0.118129	0.803793	-0.031893
H805	H	0.111744	0.691349	-0.010345
H806	H	0.067824	0.694925	0.081169
H807	H	0.055851	0.767639	0.100880
H808	H	0.087799	0.836781	0.029077
H809	H	0.131719	0.833205	-0.062437
C810	C	0.277497	0.761983	-0.419030
C811	C	0.332605	0.806833	-0.464285
C812	C	0.387236	0.808872	-0.491459
C813	C	0.386758	0.766061	-0.473378
C814	C	0.331648	0.721209	-0.428120
C815	C	0.277018	0.719169	-0.400945
H816	H	0.332960	0.838526	-0.477673
H817	H	0.428032	0.842075	-0.524963
H818	H	0.427199	0.767571	-0.493494
H819	H	0.331293	0.689515	-0.414732
H820	H	0.236221	0.685966	-0.367442
C821	C	-0.718781	0.142206	-0.043224
C822	C	-0.773801	0.132489	-0.033056
C823	C	-0.828442	0.105201	0.019531
C824	C	-0.828064	0.087631	0.061949
C825	C	-0.773042	0.097348	0.051782
C826	C	-0.718401	0.124636	-0.000804
H827	H	-0.774083	0.145495	-0.064457
H828	H	-0.869173	0.098008	0.027057
H829	H	-0.868513	0.067432	0.100876
H830	H	-0.772760	0.084342	0.083183
H831	H	-0.677670	0.131829	-0.008330
H832	H	0.048910	0.348193	-0.857725
H833	H	0.567360	0.542829	-1.018502
H834	H	-0.656372	0.107566	-0.098324
C835	C	-0.098659	0.761986	-0.042886
C836	C	-0.123377	0.719186	-0.000549
C837	C	-0.148514	0.721230	0.052041
C838	C	-0.148933	0.766076	0.062294
C839	C	-0.124214	0.808880	0.019956
C840	C	-0.099077	0.806835	-0.032634
H841	H	-0.123068	0.685985	-0.008138
H842	H	-0.166813	0.689544	0.083382
H843	H	-0.167541	0.767589	0.101224
H844	H	-0.124524	0.842080	0.027545
H845	H	-0.080778	0.838522	-0.063975
H846	H	0.048826	0.479824	-0.528643
H847	H	-0.008944	0.754708	-0.098280
C848	C	0.041794	0.071675	-0.113460
C849	C	0.036252	0.024098	-0.100302
C850	C	0.009120	-0.002301	-0.046757
C851	C	-0.012470	0.018876	-0.006370
C852	C	-0.006929	0.066456	-0.019528
C853	C	0.020203	0.092855	-0.073073
H854	H	0.052235	0.008418	-0.130199
H855	H	0.005018	-0.037523	-0.037017
H856	H	-0.032555	-0.000666	0.033267
H857	H	-0.022912	0.082136	0.010370
H858	H	0.024306	0.128077	-0.082813
H859	H	0.180493	0.479825	-0.528650
C860	C	-0.342642	0.142187	-0.419365
C861	C	-0.317801	0.124615	-0.401409
C862	C	-0.292502	0.097327	-0.428759
C863	C	-0.292044	0.087610	-0.474064
C864	C	-0.316886	0.105181	-0.492023
C865	C	-0.342185	0.132470	-0.464673
H866	H	-0.318139	0.131808	-0.367870
H867	H	-0.274112	0.084319	-0.415464
H868	H	-0.273316	0.067409	-0.494310
H869	H	-0.316548	0.097988	-0.525562
H870	H	-0.360575	0.145478	-0.477967
C871	C	0.657071	0.796381	-0.920757
C872	C	0.719658	0.836119	-0.941999
C873	C	0.744794	0.834078	-0.914546
C874	C	0.707343	0.792299	-0.865851
C875	C	0.644752	0.752558	-0.844607
C876	C	0.619616	0.754599	-0.872060
H877	H	0.747385	0.867049	-0.978048
H878	H	0.791128	0.863496	-0.930273
H879	H	0.725950	0.790788	-0.845529
H880	H	0.617025	0.721628	-0.808558
H881	H	0.573282	0.725180	-0.856333
H882	H	-0.009147	0.319154	-0.794439
C883	C	0.124360	0.141531	-0.419032
C884	C	0.117428	0.092829	-0.423349
C885	C	0.092011	0.065373	-0.450522
C886	C	0.073525	0.086619	-0.473379
C887	C	0.080456	0.135323	-0.469063
C888	C	0.105873	0.162779	-0.441889
H889	H	0.131113	0.077099	-0.406429
H890	H	0.086881	0.029319	-0.453717
H891	H	0.054710	0.066295	-0.493494
H892	H	0.066771	0.151053	-0.485983
H893	H	0.111004	0.198834	-0.438694
C894	C	-0.719109	-0.081448	-0.042881
C895	C	-0.772130	-0.085773	-0.031640
C896	C	-0.826764	-0.112949	0.020950
C897	C	-0.828379	-0.135800	0.062299
C898	C	-0.775357	-0.131476	0.051059
C899	C	-0.720722	-0.104300	-0.001531
H900	H	-0.770936	-0.068856	-0.062249
H901	H	-0.866015	-0.116149	0.029270
H902	H	-0.868823	-0.155917	0.101229
H903	H	-0.776550	-0.148392	0.081668
H904	H	-0.681472	-0.101099	-0.009852
H905	H	0.475670	0.803666	-0.794746
H906	H	0.083099	0.754726	-0.322330
C907	C	0.277190	0.294334	-0.419369
C908	C	0.276806	0.336747	-0.401411
C909	C	0.331445	0.389333	-0.428760
C910	C	0.386466	0.399505	-0.474067
C911	C	0.386852	0.357091	-0.492028
C912	C	0.332213	0.304505	-0.464679
H913	H	0.236074	0.329218	-0.367870
H914	H	0.331159	0.420731	-0.415464
H915	H	0.426913	0.438433	-0.494313
H916	H	0.427584	0.364620	-0.525569
H917	H	0.332499	0.273107	-0.477975
H918	H	-0.490416	0.210217	-0.259023
C919	C	-0.098627	-0.081474	-0.196039
C920	C	-0.061175	-0.085800	-0.244737
C921	C	-0.086311	-0.112977	-0.272190
C922	C	-0.148899	-0.135829	-0.250946
C923	C	-0.186355	-0.131504	-0.202246
C924	C	-0.161219	-0.104326	-0.174792
H925	H	-0.014839	-0.068883	-0.260465
H926	H	-0.058583	-0.116179	-0.308241
H927	H	-0.167506	-0.155948	-0.271269
H928	H	-0.232690	-0.148421	-0.186517
H929	H	-0.188947	-0.101125	-0.138741
H930	H	-0.008924	0.451149	-0.533909
C931	C	-0.098648	0.416821	-0.697757
C932	C	-0.123382	0.434411	-0.715844
C933	C	-0.148532	0.461860	-0.688675
C934	C	-0.148946	0.471720	-0.643418
C935	C	-0.124210	0.454130	-0.625328
C936	C	-0.099061	0.426681	-0.652497
H937	H	-0.123077	0.427112	-0.749349
H938	H	-0.166842	0.474881	-0.702067
H939	H	-0.167563	0.492040	-0.623306
H940	H	-0.124516	0.461429	-0.591824
H941	H	-0.080751	0.413660	-0.639106
C942	C	0.277192	0.294333	-0.195387
C943	C	0.278718	0.335588	-0.174010
C944	C	0.333355	0.388175	-0.201298
C945	C	0.386467	0.399507	-0.249963
C946	C	0.384943	0.358251	-0.271343
C947	C	0.330306	0.305664	-0.244055
H948	H	0.239399	0.327200	-0.137982
H949	H	0.334483	0.418715	-0.185471
H950	H	0.426913	0.438434	-0.270163
H951	H	0.424262	0.366638	-0.307370
H952	H	0.329178	0.275124	-0.259882
H953	H	0.083107	0.319136	-0.533931
C954	C	-0.566636	-0.081791	-0.195371
C955	C	-0.506268	-0.063841	-0.212940
C956	C	-0.481033	-0.091192	-0.240228
C957	C	-0.516165	-0.136494	-0.249947
C958	C	-0.576536	-0.154447	-0.232378
C959	C	-0.601772	-0.127096	-0.205090
H960	H	-0.480258	-0.030304	-0.205746
H961	H	-0.436342	-0.077902	-0.253234
H962	H	-0.497484	-0.156742	-0.270147
H963	H	-0.602546	-0.187985	-0.239572
H964	H	-0.646463	-0.140386	-0.192084
H965	H	0.343603	0.319075	-0.794744
H966	H	0.343603	0.319074	-0.886431
H967	H	0.377923	0.078540	-0.588121
H968	H	0.509584	0.210200	-0.588113
H969	H	0.567621	0.107544	-0.582859
H970	H	0.343624	0.107538	-0.582847
H971	H	0.082763	0.107212	-0.322042
H972	H	-0.656430	0.015542	-0.098277
H973	H	-0.008919	0.015521	-0.230357
H974	H	-0.009189	0.015232	-0.098344
H975	H	0.082772	0.107206	-0.098291
H976	H	0.214793	0.239225	-0.230030
H977	H	0.214796	0.239226	-0.322332
H978	H	0.180538	0.479841	-0.989412
H979	H	-0.008927	0.451142	-0.794747
H980	H	-0.524700	0.015250	-0.230020
H981	H	0.082758	0.542828	-0.886436
H982	H	-0.432399	0.107544	-0.322327
H983	H	0.509606	0.808918	-0.989423
H984	H	0.377938	0.808921	-0.857753
H985	H	0.650823	0.796896	-1.059903
H986	H	0.567358	0.803662	-0.886435
