data_functionalizedCrystal
_audit_creation_method	'MofGen! by Chris Wilmer'
_symmetry_space_group_name_H-M	'P1'
_symmetry_Int_Tables_number	1
_symmetry_cell_setting	triclinic
loop_
_symmetry_equiv_pos_as_xyz
  x,y,z
_cell_length_a	12.759401
_cell_length_b	13.032721
_cell_length_c	12.759393
_cell_angle_alpha	97.149226
_cell_angle_beta	89.979062
_cell_angle_gamma	97.205831
loop_
_atom_site_label
_atom_site_type_symbol
_atom_site_fract_x
_atom_site_fract_y
_atom_site_fract_z
Zn1	Zn	1.553113	-0.415945	-0.647098
Zn2	Zn	1.530669	-0.590725	-0.493722
Zn3	Zn	1.377404	-0.416001	-0.471441
Zn4	Zn	1.355078	-0.590652	-0.669350
O5	O	1.454066	-0.503331	-0.570403
O6	O	1.697156	-0.439137	-0.626765
O7	O	1.510289	-0.567601	-0.343752
O8	O	1.419449	-0.269756	-0.476105
O9	O	1.680666	-0.567547	-0.514080
O10	O	1.548541	-0.269715	-0.605160
O11	O	1.397686	-0.439232	-0.327382
O12	O	1.227423	-0.439161	-0.497681
O13	O	1.381397	-0.567423	-0.813412
O14	O	1.211019	-0.567477	-0.643084
O15	O	1.526892	-0.439067	-0.797064
O16	O	1.488640	-0.736953	-0.535656
O17	O	1.359634	-0.736899	-0.664689
C18	C	1.181100	-0.503318	-0.570380
C19	C	1.064321	-0.503338	-0.570399
C20	C	1.000932	-0.570253	-0.646017
C21	C	0.891208	-0.570257	-0.646038
C22	C	0.908271	-0.436427	-0.494813
C23	C	1.017994	-0.436419	-0.494797
C24	C	0.736520	-0.607755	-0.774684
C25	C	0.673126	-0.674687	-0.850295
C26	C	0.695691	-0.776671	-0.879257
C27	C	0.781646	-0.811745	-0.832595
C28	C	0.845034	-0.744819	-0.756977
C29	C	0.822472	-0.642819	-0.728033
C30	C	1.172682	-0.398932	-0.366152
C31	C	1.236072	-0.332010	-0.290528
C32	C	1.213509	-0.230024	-0.261555
C33	C	1.127550	-0.194954	-0.308199
C34	C	1.064160	-0.261875	-0.383823
C35	C	1.086731	-0.363861	-0.412798
C36	C	1.419307	-0.774844	-0.605028
C37	C	1.404533	-0.890999	-0.619876
C38	C	1.461832	-0.942776	-0.562700
C39	C	1.446564	-1.062828	-0.578045
C40	C	1.728097	-0.503344	-0.570426
C41	C	1.844873	-0.503350	-0.570436
C42	C	1.454157	-0.503230	-0.844423
C43	C	1.454196	-0.503188	-0.961194
C44	C	1.488989	-0.230757	-0.535665
C45	C	1.503872	-0.114602	-0.520862
C46	C	1.529962	-0.436342	-1.007544
C47	C	1.529986	-0.436297	-1.117263
C48	C	1.378473	-0.569952	-1.134273
C49	C	1.378446	-0.569991	-1.024556
C50	C	1.583354	-0.313001	-1.251507
C51	C	1.659135	-0.246164	-1.297862
C52	C	1.763696	-0.230139	-1.260226
C53	C	1.792494	-0.280966	-1.176238
C54	C	1.716717	-0.347811	-1.129890
C55	C	1.612145	-0.363816	-1.167522
C56	C	1.325089	-0.693289	-0.890309
C57	C	1.249316	-0.760139	-0.843960
C58	C	1.144752	-0.776175	-0.881596
C59	C	1.115955	-0.725366	-0.965589
C60	C	1.191728	-0.658516	-1.011938
C61	C	1.296291	-0.642479	-0.974295
C62	C	1.454045	-0.503355	-0.297438
C63	C	1.454247	-0.503104	-0.180630
H64	H	0.718147	-0.524707	-0.751118
H65	H	1.109166	-0.111914	-0.284592
H66	H	1.635678	-0.204781	-1.366245
O67	O	0.858282	-0.364289	-0.413255
H68	H	0.815091	-0.311187	-0.453585
H69	H	1.825397	-0.175719	-1.297975
O70	O	1.541808	-0.883769	-0.482832
H71	H	1.501098	-0.834115	-0.423028
H72	H	0.994174	-0.233310	-0.421809
O73	O	1.050907	-0.642413	-0.727564
H74	H	0.988392	-0.688935	-0.780157
O75	O	0.937748	-0.782626	-0.706655
H76	H	0.942795	-0.864788	-0.739500
O77	O	1.324568	-0.950002	-0.699757
H78	H	1.365288	-0.999659	-0.759549
H79	H	1.386205	-1.107373	-0.638364
O80	O	1.583838	-1.055614	-0.440968
H81	H	1.583281	-0.970577	-0.441447
O82	O	1.003172	-0.742647	-1.006181
H83	H	0.980839	-0.826599	-1.034440
H84	H	0.800003	-0.894796	-0.856175
H85	H	1.498212	-0.326034	-1.282152
H86	H	0.644067	-0.831167	-0.940823
O87	O	1.611652	-0.364286	-0.939199
H88	H	1.664334	-0.317790	-0.989866
O89	O	1.328790	-0.369834	-0.240221
H90	H	1.317852	-0.364795	-0.153510
H91	H	0.603142	-0.646120	-0.888287
O92	O	1.747758	-0.402624	-1.039303
H93	H	1.833199	-0.380251	-1.020913
O94	O	1.905278	-0.263699	-1.135655
H95	H	1.953131	-0.208676	-1.181990
H96	H	1.083061	-0.830619	-0.843855
H97	H	1.316802	-0.624344	-1.185875
H98	H	1.265125	-0.175540	-0.199968
O99	O	1.160673	-0.603698	-1.102523
H100	H	1.075230	-0.626069	-1.120905
O101	O	1.280341	-0.814939	-0.753350
H102	H	1.342251	-0.864778	-0.779523
O103	O	1.197013	-0.508940	-0.397403
H104	H	1.267422	-0.522088	-0.352249
O105	O	1.437876	-0.675993	-0.849721
H106	H	1.445174	-0.722570	-0.783542
