data_functionalizedCrystal
_audit_creation_method	'MofGen! by Chris Wilmer'
_symmetry_space_group_name_H-M	'P1'
_symmetry_Int_Tables_number	1
_symmetry_cell_setting	triclinic
loop_
_symmetry_equiv_pos_as_xyz
  x,y,z
_cell_length_a	14.560438
_cell_length_b	20.919309
_cell_length_c	14.560438
_cell_angle_alpha	89.998525
_cell_angle_beta	60.000069
_cell_angle_gamma	57.440967
loop_
_atom_site_label
_atom_site_type_symbol
_atom_site_fract_x
_atom_site_fract_y
_atom_site_fract_z
Zr1	Zr	0.933517	0.641765	-0.084645
O2	O	1.137015	0.535394	-0.237234
O3	O	0.738270	0.674374	-0.037870
O4	O	0.929874	0.674374	-0.229471
O5	O	0.945408	0.535394	0.105508
O6	O	0.917616	0.784003	-0.223345
O7	O	0.945411	0.535394	-0.045633
O8	O	0.574871	0.784003	0.119394
O9	O	1.288153	0.535395	-0.237231
O10	O	0.806374	0.770096	-0.013347
O11	O	0.815521	0.688281	0.094876
O12	O	1.041110	0.688281	-0.130709
O13	O	1.050256	0.606466	-0.022486
Zr14	Zr	0.913963	0.816612	0.166178
Zr15	Zr	0.913967	0.816612	-0.074874
Zr16	Zr	0.933513	0.641766	0.156407
Zr17	Zr	1.174565	0.641766	-0.084640
Zr18	Zr	0.672915	0.816612	0.166174
O19	O	1.109210	0.784004	0.119404
O20	O	1.109216	0.784004	-0.223341
O21	O	1.137009	0.535395	0.105511
O22	O	0.710465	0.922983	0.318767
O23	O	0.710471	0.922983	-0.023978
O24	O	0.738264	0.674374	0.304875
O25	O	0.902072	0.922983	-0.023974
O26	O	0.917606	0.784004	0.311005
O27	O	0.929864	0.674374	0.304878
O28	O	0.902069	0.922984	0.127167
O29	O	1.272613	0.674374	-0.229465
O30	O	0.574867	0.784004	0.310998
O31	O	0.559327	0.922983	0.318764
O32	O	0.559331	0.922983	0.127160
O33	O	1.288149	0.535395	-0.045627
O34	O	1.272609	0.674375	-0.037860
O35	O	0.806370	0.770097	0.212243
O36	O	0.797224	0.851912	0.104020
O37	O	1.031959	0.770097	-0.013343
O38	O	1.041106	0.688281	0.094880
C39	C	0.622226	0.729188	0.040761
C40	C	0.519895	0.729188	0.040759
C41	C	0.948195	0.510482	0.028545
C42	C	0.956495	0.436255	0.024397
C43	C	0.467045	0.771893	-0.015732
C44	C	0.370885	0.771897	-0.015722
C45	C	0.380439	0.686483	0.097273
C46	C	0.476590	0.686485	0.097268
C47	C	0.837868	0.444088	0.083705
C48	C	0.845674	0.374341	0.079805
C49	C	0.972109	0.296762	0.016590
C50	C	1.090745	0.288931	-0.042719
C51	C	1.082937	0.358678	-0.038812
C52	C	1.001814	0.084038	0.001734
C53	C	1.009612	0.014290	-0.002171
C54	C	0.764541	0.099704	0.120355
C55	C	0.756744	0.169448	0.124251
C56	C	0.875380	0.161611	0.064946
C57	C	0.980091	0.225469	0.012599
C58	C	0.867396	0.232904	0.068945
C59	C	1.225254	0.729189	0.040772
C60	C	1.327585	0.729189	0.040774
C61	C	0.923745	0.729189	-0.260753
C62	C	0.923747	0.729188	-0.363086
C63	C	0.899285	0.947895	0.052988
C64	C	0.890985	1.022122	0.057136
C65	C	0.916995	0.789584	-0.407787
C66	C	0.916983	0.789587	-0.503933
C67	C	0.930481	0.668790	-0.510671
C68	C	0.930484	0.668792	-0.414522
C69	C	0.923735	0.729189	0.342286
C70	C	0.923733	0.729189	0.444619
C71	C	0.597771	0.947895	0.052983
C72	C	0.487141	1.022122	0.057128
C73	C	0.622221	0.729189	0.342281
C74	C	0.519888	0.729189	0.444612
C75	C	0.597766	0.947895	0.354502
C76	C	0.487133	1.022122	0.460981
C77	C	1.249714	0.510483	-0.272969
C78	C	1.360347	0.436256	-0.379448
C79	C	1.249709	0.510483	0.028551
C80	C	1.360339	0.436256	0.024405
C81	C	1.225259	0.729189	-0.260747
C82	C	1.327592	0.729189	-0.363078
C83	C	0.439964	1.014273	-0.002199
C84	C	0.336028	1.084010	0.001674
C85	C	0.279265	1.161596	0.064881
C86	C	0.326452	1.169443	0.124210
C87	C	0.430392	1.099707	0.120330
C88	C	0.430404	1.099694	0.454494
C89	C	0.326466	1.169445	0.554533
C90	C	0.279252	1.161622	0.661059
C91	C	0.335992	1.084042	0.667543
C92	C	0.439935	1.014293	0.567505
C93	C	1.417087	0.358684	-0.372961
C94	C	1.521056	0.288933	-0.473000
C95	C	1.568275	0.296756	-0.579525
C96	C	1.511529	0.374336	-0.586010
C97	C	1.407569	0.444085	-0.485972
C98	C	1.407526	0.444105	0.083722
C99	C	1.511488	0.374368	0.079823
C100	C	1.568255	0.296782	0.016612
C101	C	1.521063	0.288935	-0.042712
C102	C	1.417110	0.358671	-0.038819
C103	C	0.467034	0.771895	0.553951
C104	C	0.370891	0.771885	0.650098
C105	C	0.380462	0.686463	0.527551
C106	C	0.476610	0.686468	0.431407
H107	H	0.502300	0.806666	-0.061744
H108	H	1.567242	0.225771	-0.467698
F109	F	0.285824	1.075641	-0.061472
H110	H	1.361371	0.507245	-0.491267
F111	F	0.334336	0.641042	0.157416
H112	H	0.519620	0.651709	0.143276
F113	F	1.561795	0.382649	-0.699392
H114	H	1.567298	0.225755	-0.094177
H115	H	0.734910	0.507253	0.135186
H116	H	0.749075	0.380726	0.128101
F117	F	1.144188	-0.068279	-0.069466
F118	F	1.366894	0.350305	-0.101950
H119	H	0.194630	1.218373	0.068032
H120	H	0.468790	1.106109	0.168649
F121	F	0.622175	0.252011	0.191532
H122	H	0.519649	0.651688	0.342371
H123	H	0.486111	0.951133	0.572803
F124	F	1.114649	0.142899	-0.054677
F125	F	0.314645	0.817347	-0.075850
H126	H	0.502272	0.806678	0.564709
F127	F	1.347133	0.526671	0.151000
H128	H	1.549893	0.380773	0.128137
F129	F	1.366851	0.350340	-0.259598
F130	F	0.314647	0.817337	0.766465
F131	F	0.638289	0.108037	0.183470
H132	H	1.652899	0.240005	0.013452
H133	H	1.193691	0.225761	-0.094183
F134	F	1.128077	0.075688	-0.061386
F135	F	1.209196	0.350339	-0.101931
H136	H	1.652926	0.239955	-0.660974
H137	H	0.764453	0.296071	0.120418
H138	H	0.911507	0.838764	-0.365908
F139	F	0.334392	0.641001	0.513510
F140	F	0.937655	0.604513	-0.565422
F141	F	0.909793	0.853869	-0.551502
H142	H	0.280221	1.232623	0.175671
F143	F	0.285728	1.075729	0.780926
H144	H	0.935978	0.619610	-0.378122
H145	H	0.486179	0.951105	-0.053683
H146	H	0.468830	1.106079	0.367765
H147	H	0.280278	1.232607	0.549233
H148	H	0.194614	1.218423	0.742508
