data_functionalizedCrystal
_audit_creation_method	'MofGen! by Chris Wilmer'
_symmetry_space_group_name_H-M	'P1'
_symmetry_Int_Tables_number	1
_symmetry_cell_setting	triclinic
loop_
_symmetry_equiv_pos_as_xyz
  x,y,z
_cell_length_a	16.992694
_cell_length_b	15.944551
_cell_length_c	15.455313
_cell_angle_alpha	92.664316
_cell_angle_beta	87.142206
_cell_angle_gamma	87.083481
loop_
_atom_site_label
_atom_site_type_symbol
_atom_site_fract_x
_atom_site_fract_y
_atom_site_fract_z
O1	O	1.043832	0.174669	-0.072025
O2	O	1.543832	0.674669	0.427975
O3	O	0.815548	0.172714	-0.072051
O4	O	1.315548	0.672714	0.427949
O5	O	0.935924	0.051836	-0.072029
O6	O	1.435924	0.551836	0.427971
O7	O	0.923457	0.295548	-0.072046
O8	O	1.423457	0.795548	0.427954
O9	O	0.929040	0.058718	0.072232
O10	O	1.429040	0.558718	0.572232
O11	O	0.808664	0.179596	0.072210
O12	O	1.308664	0.679596	0.572210
O13	O	1.036949	0.181551	0.072236
O14	O	1.536949	0.681551	0.572236
Cu15	Cu	0.922178	0.181202	0.085395
Cu16	Cu	1.422178	0.681202	0.585395
Cu17	Cu	0.930319	0.173063	-0.085210
Cu18	Cu	1.430319	0.673063	0.414790
O19	O	0.916573	0.302430	0.072215
O20	O	1.416573	0.802430	0.572215
C21	C	0.782894	0.173641	0.000077
C22	C	1.282894	0.673641	0.500077
C23	C	0.695850	0.166141	0.000067
C24	C	1.195850	0.666141	0.500067
C25	C	0.645613	0.238506	0.000063
C26	C	1.145613	0.738506	0.500063
C27	C	0.563826	0.231454	0.000075
C28	C	1.063826	0.731454	0.500075
C29	C	0.532276	0.152037	0.000086
C30	C	1.032276	0.652037	0.500086
C31	C	0.582519	0.079667	0.000093
C32	C	1.082519	0.579667	0.500093
C33	C	0.664305	0.086719	0.000087
C34	C	1.164305	0.586719	0.500087
C35	C	0.288676	0.122807	0.000111
C36	C	0.788676	0.622807	0.500111
C37	C	0.206884	0.115760	0.000115
C38	C	0.706884	0.615760	0.500115
C39	C	0.188196	0.267548	0.000099
C40	C	0.688196	0.767548	0.500099
C41	C	0.269984	0.274593	0.000087
C42	C	0.769984	0.774593	0.500087
C43	C	0.320220	0.202223	0.000099
C44	C	0.820220	0.702223	0.500099
N45	N	0.448677	0.144827	0.000096
N46	N	0.948677	0.644827	0.500096
N47	N	0.403817	0.209434	0.000095
N48	N	0.903817	0.709434	0.500095
C49	C	0.931964	0.023948	0.000101
C50	C	1.431964	0.523948	0.500101
C51	C	0.930413	-0.069402	0.000102
C52	C	1.430413	0.430598	0.500102
C53	C	0.852089	-0.289513	0.000081
C54	C	1.352089	0.210487	0.500081
C55	C	0.885066	-0.344697	0.071214
C56	C	1.385066	0.155303	0.571214
C57	C	0.927606	-0.240317	0.000095
C58	C	1.427606	0.259683	0.500095
C59	C	0.891871	-0.351465	-0.071016
C60	C	1.391871	0.148535	0.428984
C61	C	0.924889	-0.405412	0.000084
C62	C	1.424889	0.094588	0.500084
C63	C	0.960600	-0.294269	0.071287
C64	C	1.460600	0.205731	0.571287
C65	C	0.967397	-0.301034	-0.071007
C66	C	1.467397	0.198966	0.428993
C67	C	1.000428	-0.356196	0.000144
C68	C	1.500428	0.143804	0.500144
C69	C	0.929168	-0.145209	0.000101
C70	C	1.429168	0.354791	0.500101
C71	C	0.923332	-0.500518	0.000084
C72	C	1.423332	-0.000518	0.500084
C73	C	1.069603	0.180624	0.000107
C74	C	1.569603	0.680624	0.500107
C75	C	1.156647	0.188124	0.000110
C76	C	1.656647	0.688124	0.500110
C77	C	0.920532	0.330318	0.000082
C78	C	1.420532	0.830318	0.500082
C79	C	0.922084	0.423668	0.000076
C80	C	1.422084	0.923668	0.500076
N81	N	0.916458	0.186926	0.205390
N82	N	1.416458	0.686926	0.705390
N83	N	0.936045	0.167333	-0.205204
N84	N	1.436045	0.667333	0.294796
C85	C	0.967616	0.135594	0.250793
C86	C	1.467616	0.635594	0.750793
C87	C	0.963297	0.139932	0.341600
C88	C	1.463297	0.639932	0.841600
C89	C	0.907824	0.195606	0.387002
C90	C	1.407824	0.695606	0.887002
C91	C	0.856661	0.246940	0.341593
C92	C	1.356661	0.746940	0.841593
C93	C	0.860976	0.242598	0.250787
C94	C	1.360976	0.742598	0.750787
C95	C	0.889197	0.214325	0.658581
C96	C	1.389197	0.714325	1.158581
C97	C	0.884887	0.218665	0.749392
C98	C	1.384887	0.718665	1.249392
C99	C	0.991523	0.111655	0.749393
C100	C	1.491523	0.611655	1.249393
C101	C	0.995836	0.107321	0.658586
C102	C	1.495836	0.607321	1.158586
C103	C	0.944671	0.158653	0.613185
C104	C	1.444671	0.658653	1.113185
N105	N	0.903410	0.200042	0.479822
N106	N	1.403410	0.700042	0.979822
N107	N	0.949081	0.154211	0.520367
N108	N	1.449081	0.654211	1.020367
H109	H	0.556825	0.015004	0.000114
H110	H	1.056825	0.515004	0.500114
O111	O	0.300529	0.351786	-0.000041
O112	O	0.800529	0.851786	0.499959
C113	C	0.278415	0.392644	-0.074772
C114	C	0.778415	0.892644	0.425228
H115	H	0.222881	0.364738	-0.099668
H116	H	0.722881	0.864738	0.400332
H117	H	0.266253	0.462632	-0.057982
H118	H	0.766253	0.962632	0.442018
H119	H	0.328228	0.383601	-0.127095
H120	H	0.828228	0.883601	0.372905
H121	H	0.989641	-0.269266	0.131491
H122	H	1.489641	0.230734	0.631491
H123	H	0.847537	0.256123	0.621622
H124	H	1.347537	0.756123	1.121622
O125	O	0.802843	0.301002	0.385828
O126	O	1.302843	0.801002	0.885828
C127	C	0.809991	0.293816	0.475712
C128	C	1.309991	0.793816	0.975712
H129	H	0.871738	0.267239	0.488111
H130	H	1.371738	0.767239	0.988111
H131	H	0.799629	0.358487	0.510210
H132	H	1.299629	0.858487	1.010210
H133	H	0.764388	0.249913	0.501498
H134	H	1.264388	0.749913	1.001498
O135	O	1.075318	-0.390623	0.000082
O136	O	1.575318	0.109377	0.500082
C137	C	1.118833	-0.367309	-0.074256
C138	C	1.618833	0.132691	0.425744
H139	H	1.090571	-0.307160	-0.098810
H140	H	1.590571	0.192840	0.401190
H141	H	1.182052	-0.356143	-0.057086
H142	H	1.682052	0.143857	0.442914
H143	H	1.119066	-0.419769	-0.126982
H144	H	1.619066	0.080231	0.373018
O145	O	1.008783	-0.277914	-0.142832
O146	O	1.508783	0.222086	0.357168
C147	C	0.972346	-0.307023	-0.217685
C148	C	1.472346	0.192977	0.282315
H149	H	0.907607	-0.317263	-0.200651
H150	H	1.407607	0.182737	0.299349
H151	H	0.976725	-0.258430	-0.269301
H152	H	1.476725	0.241570	0.230699
H153	H	1.003241	-0.368912	-0.243634
H154	H	1.503241	0.131088	0.256366
O155	O	0.830920	0.272761	0.793363
O156	O	1.330920	0.772761	1.293363
C157	C	0.786694	0.317148	0.733820
C158	C	1.286694	0.817148	1.233820
H159	H	0.788888	0.279559	0.669095
H160	H	1.288888	0.779559	1.169095
H161	H	0.722831	0.326958	0.760067
H162	H	1.222831	0.826958	1.260067
H163	H	0.812598	0.380817	0.724151
H164	H	1.312598	0.880817	1.224151
H165	H	0.147286	0.326467	0.000091
H166	H	0.647286	0.826467	0.500091
O167	O	0.843666	-0.367875	0.143011
O168	O	1.343666	0.132125	0.643011
C169	C	0.893262	-0.417949	0.192600
C170	C	1.393262	0.082051	0.692600
H171	H	0.957429	-0.404234	0.176715
H172	H	1.457429	0.095766	0.676715
H173	H	0.878249	-0.402894	0.264541
H174	H	1.378249	0.097106	0.764541
H175	H	0.884213	-0.487208	0.176646
H176	H	1.384213	0.012792	0.676646
H177	H	0.705207	0.027792	0.000090
H178	H	1.205207	0.527792	0.500090
O179	O	1.049744	0.053163	0.614619
O180	O	1.549744	0.553163	1.114619
C181	C	1.093985	0.008800	0.674167
C182	C	1.593985	0.508800	1.174167
H183	H	1.058764	0.008766	0.738901
H184	H	1.558764	0.508766	1.238901
H185	H	1.107194	-0.058725	0.647939
H186	H	1.607194	0.441275	1.147939
H187	H	1.151772	0.040482	0.683810
H188	H	1.651772	0.540482	1.183810
H189	H	1.012791	0.090262	0.213832
H190	H	1.512791	0.590262	0.713832
H191	H	0.862790	-0.376554	-0.131158
H192	H	1.362790	0.123446	0.368842
H193	H	1.004953	0.098132	0.378567
H194	H	1.504953	0.598132	0.878567
H195	H	1.033179	0.069863	0.786368
H196	H	1.533179	0.569863	1.286368
H197	H	0.819318	0.284397	0.213821
H198	H	1.319318	0.784397	0.713821
H199	H	0.671294	0.303176	0.000054
H200	H	1.171294	0.803176	0.500054
H201	H	0.522926	0.290381	0.000071
H202	H	1.022926	0.790381	0.500071
O203	O	0.777256	-0.254920	0.000192
O204	O	1.277256	0.245080	0.500192
C205	C	0.723319	-0.319248	0.000990
C206	C	1.223319	0.180752	0.500990
H207	H	0.751917	-0.377706	0.028663
H208	H	1.251917	0.122294	0.528663
H209	H	0.668418	-0.297232	0.042967
H210	H	1.168418	0.202768	0.542967
H211	H	0.706007	-0.334822	-0.068015
H212	H	1.206007	0.165178	0.431985
O213	O	0.176365	0.038546	0.000163
O214	O	0.676365	0.538546	0.500163
C215	C	0.238241	-0.023819	0.000149
C216	C	0.738241	0.476181	0.500149
H217	H	0.292502	0.004755	0.027461
H218	H	0.792502	0.504755	0.527461
H219	H	0.219147	-0.076935	0.042035
H220	H	0.719147	0.423065	0.542035
H221	H	0.253110	-0.049707	-0.069058
H222	H	0.753110	0.450293	0.430942
H223	H	0.329568	0.063878	0.000121
H224	H	0.829568	0.563878	0.500121
