data_functionalizedCrystal
_audit_creation_method	'MofGen! by Chris Wilmer'
_symmetry_space_group_name_H-M	'P1'
_symmetry_Int_Tables_number	1
_symmetry_cell_setting	triclinic
loop_
_symmetry_equiv_pos_as_xyz
  x,y,z
_cell_length_a	13.339070
_cell_length_b	16.176319
_cell_length_c	17.699083
_cell_angle_alpha	90.007696
_cell_angle_beta	80.543846
_cell_angle_gamma	89.992973
loop_
_atom_site_label
_atom_site_type_symbol
_atom_site_fract_x
_atom_site_fract_y
_atom_site_fract_z
O1	O	1.341354	-0.068783	-0.379243
O2	O	1.046950	-0.068777	-0.329465
O3	O	1.202470	-0.068773	-0.245923
O4	O	1.185834	-0.068787	-0.462785
O5	O	1.202448	0.068720	-0.245911
O6	O	1.046928	0.068716	-0.329453
O7	O	1.341333	0.068710	-0.379231
Cu8	Cu	1.194129	0.081267	-0.354341
Cu9	Cu	1.194154	-0.081334	-0.354355
O10	O	1.185813	0.068706	-0.462773
C11	C	1.009271	-0.000030	-0.321051
C12	C	0.897030	-0.000027	-0.295987
N13	N	1.194118	0.195633	-0.354332
N14	N	1.194172	-0.195700	-0.354360
C15	C	0.531758	-0.000053	-0.490868
C16	C	0.637213	-0.000058	-0.514418
C17	C	0.702173	-0.000050	-0.459813
C18	C	0.661667	-0.000038	-0.381652
C19	C	0.556202	-0.000039	-0.358099
C20	C	0.726616	-0.000036	-0.327044
C21	C	0.686110	-0.000024	-0.248884
C22	C	0.580655	-0.000025	-0.225335
C23	C	0.515696	-0.000033	-0.279940
C24	C	0.832081	-0.000035	-0.350597
C25	C	0.856524	-0.000021	-0.217829
C26	C	0.751070	-0.000016	-0.194278
C27	C	1.379012	-0.000039	-0.387645
C28	C	1.491253	-0.000047	-0.412709
C29	C	1.201863	-0.000026	-0.217594
C30	C	1.200075	-0.000026	-0.133198
C31	C	1.263003	0.238899	-0.317365
C32	C	1.263009	0.325446	-0.317365
C33	C	1.194133	0.368725	-0.354338
C34	C	1.125240	0.325453	-0.391306
C35	C	1.125231	0.238907	-0.391301
C36	C	1.125275	0.674481	-0.391327
C37	C	1.125292	0.761033	-0.391332
C38	C	1.263052	0.761019	-0.317392
C39	C	1.263043	0.674474	-0.317387
C40	C	1.194148	0.631209	-0.354351
C41	C	1.194142	0.537365	-0.354349
C42	C	1.194143	0.462568	-0.354345
C43	C	1.186420	-0.000043	-0.491102
C44	C	1.188208	-0.000048	-0.575498
C45	C	1.291362	-0.000027	-0.103873
C46	C	1.289675	-0.000034	-0.024573
C47	C	1.196701	-0.000035	0.025400
C48	C	1.105407	-0.000036	-0.003930
C49	C	1.107095	-0.000035	-0.083228
C50	C	1.098600	-0.000043	0.315872
C51	C	1.096920	-0.000042	0.395175
C52	C	1.281181	-0.000042	0.374527
C53	C	1.282869	-0.000040	0.295229
C54	C	1.191575	-0.000047	0.265906
C55	C	1.193405	-0.000040	0.179920
C56	C	1.194871	-0.000035	0.111385
H57	H	0.865050	-0.000041	-0.414236
O58	O	1.015003	-0.000077	0.044505
C59	C	0.934792	-0.000057	0.001614
H60	H	0.963010	-0.026087	-0.057942
H61	H	0.906628	0.065905	-0.003635
C62	C	0.812441	-0.022010	0.115454
C63	C	0.847097	-0.053986	0.042308
H64	H	0.758344	-0.055272	0.140557
H65	H	0.866480	-0.022019	0.144351
H66	H	0.788979	0.032958	0.111069
H67	H	0.870570	-0.108948	0.046694
H68	H	0.793060	-0.053986	0.013412
O69	O	0.676726	-0.000125	-0.590306
C70	C	0.783735	-0.000116	-0.599385
H71	H	0.808644	-0.026119	-0.545543
H72	H	0.813084	0.065840	-0.609236
C73	C	0.796740	-0.022137	-0.734857
C74	C	0.827334	-0.054082	-0.668730
H75	H	0.823635	-0.055422	-0.777634
H76	H	0.724646	-0.022140	-0.728741
H77	H	0.821199	0.032825	-0.743056
H78	H	0.802864	-0.109039	-0.660527
H79	H	0.899425	-0.054089	-0.674846
O80	O	1.378445	0.000008	0.003785
C81	C	1.460867	-0.000004	-0.057326
H82	H	1.435051	0.026026	-0.110822
H83	H	1.489395	-0.065965	-0.068947
C84	C	1.578948	0.021950	0.029582
C85	C	1.547241	0.053927	-0.036120
H86	H	1.632230	0.055214	0.042664
H87	H	1.523419	0.021955	0.070755
H88	H	1.602714	-0.033016	0.019890
H89	H	1.523464	0.108888	-0.026424
H90	H	1.602768	0.053933	-0.077291
O91	O	1.058193	0.367457	-0.427113
C92	C	0.958138	0.346319	-0.393762
H93	H	0.957798	0.322538	-0.333092
H94	H	0.928325	0.296082	-0.429438
C95	C	0.889991	0.452421	-0.465608
C96	C	0.889573	0.423220	-0.391090
H97	H	0.847695	0.499855	-0.463963
H98	H	0.957399	0.466661	-0.488080
H99	H	0.865150	0.410550	-0.495330
H100	H	0.914426	0.465087	-0.361372
H101	H	0.822167	0.408989	-0.368613
O102	O	1.329752	0.196788	-0.281355
C103	C	1.275682	0.146790	-0.223271
H104	H	1.196510	0.133815	-0.236782
H105	H	1.268907	0.180190	-0.165932
C106	C	1.429957	0.080519	-0.202431
C107	C	1.332720	0.064577	-0.219029
H108	H	1.465142	0.029808	-0.199811
H109	H	1.466387	0.114206	-0.241561
H110	H	1.424298	0.108355	-0.154650
H111	H	1.338381	0.036752	-0.266814
H112	H	1.296293	0.030884	-0.179907
H113	H	1.024263	-0.000048	0.292008
H114	H	0.478860	-0.000067	-0.535319
H115	H	0.788038	-0.000056	-0.478992
H116	H	1.021205	-0.000041	0.435863
H117	H	1.355517	-0.000041	0.398411
O118	O	1.330033	0.367346	-0.281459
C119	C	1.390814	0.310588	-0.248818
H120	H	1.391856	0.248888	-0.280066
H121	H	1.358145	0.301405	-0.185709
C122	C	1.498650	0.420122	-0.217822
C123	C	1.499937	0.344342	-0.256206
H124	H	1.565962	0.440943	-0.222376
H125	H	1.457699	0.458361	-0.239810
H126	H	1.471422	0.412459	-0.165235
H127	H	1.527153	0.352008	-0.308793
H128	H	1.540896	0.306105	-0.234227
O129	O	1.329986	0.632561	-0.281406
C130	C	1.390805	0.689309	-0.248792
H131	H	1.349364	0.751011	-0.239219
H132	H	1.465852	0.698491	-0.289159
C133	C	1.462741	0.579759	-0.183326
C134	C	1.411839	0.655541	-0.171562
H135	H	1.475720	0.558929	-0.135688
H136	H	1.421769	0.541526	-0.205300
H137	H	1.525274	0.587421	-0.216968
H138	H	1.349301	0.647877	-0.137929
H139	H	1.452800	0.693772	-0.149580
H140	H	0.909415	-0.000018	-0.173364
O141	O	1.058277	0.802948	-0.427251
C142	C	0.997480	0.746204	-0.459890
H143	H	0.996410	0.684517	-0.428633
H144	H	1.030153	0.736982	-0.522996
C145	C	0.889692	0.855774	-0.490909
C146	C	0.888370	0.780010	-0.452515
H147	H	0.822389	0.876627	-0.486363
H148	H	0.930654	0.894004	-0.468922
H149	H	0.916924	0.848078	-0.543494
H150	H	0.861150	0.787708	-0.399929
H151	H	0.847401	0.741782	-0.474492
H152	H	1.032759	-0.000035	-0.107103
O153	O	1.373272	-0.000077	0.246793
C154	C	1.453486	-0.000060	0.289681
H155	H	1.425279	-0.026089	0.349230
H156	H	1.481627	0.065902	0.294949
C157	C	1.575839	-0.022013	0.175832
C158	C	1.541197	-0.053990	0.248970
H159	H	1.629946	-0.055276	0.150719
H160	H	1.521799	-0.022022	0.146936
H161	H	1.599283	0.032954	0.180232
H162	H	1.517742	-0.108952	0.244568
H163	H	1.595235	-0.053991	0.277864
O164	O	1.058419	0.196913	-0.427338
C165	C	1.074648	0.218056	-0.505680
H166	H	1.155597	0.241830	-0.523087
H167	H	1.018557	0.268299	-0.516108
C168	C	0.959375	0.111967	-0.532272
C169	C	1.058800	0.141160	-0.553654
H170	H	0.949594	0.064536	-0.561865
H171	H	0.948437	0.097724	-0.479492
H172	H	0.912644	0.153844	-0.540963
H173	H	1.105528	0.099288	-0.544953
H174	H	1.069745	0.155394	-0.606434
H175	H	0.429825	-0.000029	-0.260769
H176	H	0.718075	-0.000013	-0.130638
H177	H	0.547679	-0.000024	-0.161691
H178	H	1.319148	0.796255	-0.287291
H179	H	1.069180	0.639262	-0.421427
H180	H	1.367072	-0.000021	-0.144557
