data_functionalizedCrystal
_audit_creation_method	'MofGen! by Chris Wilmer'
_symmetry_space_group_name_H-M	'P1'
_symmetry_Int_Tables_number	1
_symmetry_cell_setting	triclinic
loop_
_symmetry_equiv_pos_as_xyz
  x,y,z
_cell_length_a	14.519709
_cell_length_b	10.723024
_cell_length_c	9.798715
_cell_angle_alpha	90.003391
_cell_angle_beta	89.995905
_cell_angle_gamma	95.925993
loop_
_atom_site_label
_atom_site_type_symbol
_atom_site_fract_x
_atom_site_fract_y
_atom_site_fract_z
O1	O	0.129347	-1.655978	-0.113485
O2	O	0.141728	-1.292710	-0.113490
O3	O	0.001349	-1.483975	-0.113475
O4	O	0.269727	-1.464712	-0.113500
O5	O	0.001348	-1.483961	0.113507
O6	O	0.141728	-1.292695	0.113492
O7	O	0.129347	-1.655963	0.113497
Zn8	Zn	0.135537	-1.474327	0.149533
Zn9	Zn	0.135538	-1.474346	-0.149526
O10	O	0.269727	-1.464698	0.113482
C11	C	0.140827	-1.246211	0.000000
C12	C	0.138132	-1.107682	-0.000001
N13	N	0.135537	-1.474323	0.353632
C14	C	-0.033016	-1.483070	0.000016
C15	C	-0.135411	-1.480380	0.000017
C16	C	-0.510357	-1.470476	-0.000019
C17	C	-0.406035	-1.473227	-0.000009
C18	C	-0.322887	-1.475428	0.000000
C19	C	-0.218559	-1.478179	0.000008
C20	C	0.304091	-1.465603	-0.000012
C21	C	0.406486	-1.468293	-0.000022
C22	C	0.130248	-1.702462	0.000003
C23	C	0.132944	-1.840991	-0.000004
C24	C	0.216681	-1.031965	-0.000009
C25	C	0.213896	-0.888788	-0.000011
N26	N	0.135532	-1.474359	-0.353626
C27	C	0.076335	-1.554633	0.421415
C28	C	0.076332	-1.554653	0.578578
H29	H	0.285991	-1.073139	-0.000008
H30	H	0.025649	-1.623371	0.363098
C31	C	0.304744	-0.800896	-0.000019
N32	N	0.373173	-0.734692	-0.000023
H33	H	0.065696	-0.906045	-0.000006
C34	C	0.044493	-1.052065	0.000007
N35	N	-0.026038	-1.010175	0.000012
C36	C	0.007856	-1.647543	0.657324
N37	N	-0.043723	-1.717508	0.716639
C38	C	0.204009	-1.381465	0.567637
N39	N	0.255586	-1.311496	0.508322
H40	H	0.186216	-1.405577	0.411951
