data_functionalizedCrystal
_audit_creation_method	'MofGen! by Chris Wilmer'
_symmetry_space_group_name_H-M	'P1'
_symmetry_Int_Tables_number	1
_symmetry_cell_setting	triclinic
loop_
_symmetry_equiv_pos_as_xyz
  x,y,z
_cell_length_a	14.560438
_cell_length_b	14.560438
_cell_length_c	14.560438
_cell_angle_alpha	60.001579
_cell_angle_beta	90.001043
_cell_angle_gamma	60.000378
loop_
_atom_site_label
_atom_site_type_symbol
_atom_site_fract_x
_atom_site_fract_y
_atom_site_fract_z
Zr1	Zr	0.884753	1.005289	-0.120512
O2	O	0.738105	1.196887	-0.267155
O3	O	0.929708	0.813689	-0.075561
O4	O	0.929705	1.005290	-0.267160
O5	O	0.738110	1.005287	0.075583
O6	O	1.080844	1.005292	-0.267161
O7	O	0.738107	1.005287	-0.075556
O8	O	1.080848	0.662555	0.075574
O9	O	0.738105	1.348025	-0.267152
O10	O	1.061674	0.892500	-0.056388
O11	O	0.948883	0.892498	0.056407
O12	O	0.948880	1.118083	-0.169176
O13	O	0.836089	1.118081	-0.056382
Zr14	Zr	1.125805	1.005294	0.120535
Zr15	Zr	1.125801	1.005293	-0.120514
Zr16	Zr	0.884757	1.005290	0.120537
Zr17	Zr	0.884753	1.246337	-0.120508
Zr18	Zr	1.125804	0.764247	0.120531
O19	O	1.080849	1.196894	0.075584
O20	O	1.080844	1.196893	-0.267157
O21	O	0.738110	1.196888	0.075587
O22	O	1.272453	0.813696	0.267178
O23	O	1.272447	0.813695	-0.075564
O24	O	0.929713	0.813691	0.267180
O25	O	1.272448	1.005296	-0.075560
O26	O	1.080852	1.005294	0.267183
O27	O	0.929714	1.005291	0.267184
O28	O	1.272450	1.005296	0.075579
O29	O	0.929706	1.348028	-0.267154
O30	O	1.080851	0.662555	0.267176
O31	O	1.272452	0.662558	0.267175
O32	O	1.272449	0.662558	0.075573
O33	O	0.738108	1.348026	-0.075550
O34	O	0.929709	1.348029	-0.075551
O35	O	1.061677	0.892501	0.169199
O36	O	1.174469	0.892502	0.056405
O37	O	1.061674	1.118085	-0.056384
O38	O	0.948883	1.118084	0.056411
C39	C	1.005278	0.703778	0.000006
C40	C	1.005278	0.601447	0.000004
C41	C	1.064151	0.553372	-0.058874
C42	C	1.064156	0.457212	-0.058863
C43	C	0.946404	0.457216	0.058904
C44	C	0.946407	0.553367	0.058899
C45	C	0.703764	1.005287	0.000014
C46	C	0.601433	1.005285	0.000014
C47	C	0.612232	0.887535	0.058885
C48	C	0.516077	0.887541	0.058885
C49	C	0.398328	1.123057	-0.058864
C50	C	0.494481	1.123050	-0.058857
C51	C	1.306793	1.005297	0.000009
C52	C	1.409124	1.005299	0.000009
C53	C	1.005274	1.005291	-0.301505
C54	C	1.005272	1.005290	-0.403837
C55	C	1.005279	1.306806	0.000017
C56	C	1.005279	1.409137	0.000019
C57	C	0.922016	1.005292	-0.548075
C58	C	0.922012	1.005286	-0.451920
C59	C	1.088549	1.005288	-0.451907
C60	C	1.088557	1.005284	-0.548055
C61	C	1.005283	1.005293	0.301528
C62	C	1.005285	1.005293	0.403860
C63	C	1.306793	0.703783	0.000004
C64	C	1.409124	0.601454	0.000001
C65	C	1.005283	0.703779	0.301522
C66	C	1.005284	0.601448	0.403852
C67	C	1.306797	0.703784	0.301520
C68	C	1.409130	0.601455	0.403849
C69	C	0.703760	1.306799	-0.301497
C70	C	0.601428	1.409128	-0.403826
C71	C	0.703765	1.306800	0.000019
C72	C	0.601434	1.409130	0.000022
C73	C	1.005275	1.306804	-0.301499
C74	C	1.005273	1.409135	-0.403829
C75	C	1.398324	0.553375	-0.058874
C76	C	1.494479	0.457234	-0.058881
C77	C	1.612229	0.457254	0.058872
C78	C	1.516075	0.553400	0.058872
C79	C	1.064161	0.553372	0.510804
C80	C	1.064150	0.457231	0.606950
C81	C	0.946382	0.457246	0.489179
C82	C	0.946388	0.553392	0.393035
C83	C	1.516082	0.553379	0.393049
C84	C	1.612230	0.457239	0.489202
C85	C	1.494461	0.457255	0.606952
C86	C	1.398315	0.553400	0.510800
H87	H	1.112089	0.592514	-0.106828
C88	C	1.128921	0.404323	-0.123621
H89	H	1.120503	0.340159	-0.115173
H90	H	1.099849	0.473337	-0.201082
H91	H	1.206385	0.366813	-0.094536
C92	C	0.881621	0.606285	0.275379
H93	H	0.890050	0.670439	0.219671
H94	H	0.910687	0.537269	0.266933
H95	H	0.804154	0.643807	0.266945
C96	C	0.830430	1.005289	-0.600964
H97	H	0.842351	1.005300	-0.665117
H98	H	0.833882	0.929958	-0.547543
H99	H	0.758546	1.080629	-0.622877
C100	C	0.280686	1.252591	-0.123623
H101	H	0.288028	1.322718	-0.158673
H102	H	0.240725	1.257496	-0.179343
H103	H	0.240734	1.257483	-0.072794
C104	C	0.482603	1.252581	-0.123621
H105	H	0.405137	1.322718	-0.158696
H106	H	0.517667	1.257470	-0.072797
H107	H	0.517666	1.257470	-0.179339
H108	H	1.699319	0.418115	0.106805
H109	H	1.156370	1.005281	-0.587191
H110	H	0.898472	0.418059	0.106853
C111	C	0.830412	1.005293	-0.399056
H112	H	0.780818	1.005307	-0.441472
H113	H	0.864608	0.929964	-0.323884
H114	H	0.789280	1.080634	-0.399220
H115	H	1.485670	0.418114	0.694041
C116	C	0.881640	0.606257	0.123665
H117	H	0.846565	0.563866	0.158728
H118	H	0.932463	0.590502	0.179375
H119	H	0.825920	0.697036	0.072835
H120	H	1.524893	0.592505	0.305968
C121	C	1.180135	1.005291	-0.399017
H122	H	1.168199	1.005306	-0.334877
H123	H	1.252017	0.929962	-0.377106
H124	H	1.176674	1.080633	-0.452445
H125	H	0.699313	0.791643	0.106834
H126	H	0.524880	0.791658	0.106825
C127	C	1.280683	0.606243	-0.123640
H128	H	1.288027	0.563845	-0.158714
H129	H	1.240724	0.590484	-0.072825
H130	H	1.240728	0.697023	-0.179362
C131	C	1.128925	0.606250	0.522702
H132	H	1.163977	0.563855	0.600171
H133	H	1.184645	0.590495	0.487646
H134	H	1.078094	0.697029	0.487644
C135	C	1.482602	0.404343	-0.123637
H136	H	1.555183	0.340208	-0.115217
H137	H	1.442659	0.366825	-0.094558
H138	H	1.442648	0.473372	-0.201102
H139	H	1.524877	0.592549	0.106815
C140	C	0.881616	0.404367	0.477289
H141	H	0.890055	0.340209	0.549866
H142	H	0.804156	0.473389	0.437339
H143	H	0.910703	0.366854	0.437338
H144	H	1.112092	0.418093	0.694031
C145	C	1.729873	0.404353	0.477318
H146	H	1.722538	0.446739	0.399851
H147	H	1.769832	0.420115	0.512374
H148	H	1.769824	0.313572	0.512383
H149	H	1.311224	0.592547	0.519602
