data_functionalizedCrystal
_audit_creation_method	'MofGen! by Chris Wilmer'
_symmetry_space_group_name_H-M	'P1'
_symmetry_Int_Tables_number	1
_symmetry_cell_setting	triclinic
loop_
_symmetry_equiv_pos_as_xyz
  x,y,z
_cell_length_a	11.169417
_cell_length_b	12.827892
_cell_length_c	12.827885
_cell_angle_alpha	89.970024
_cell_angle_beta	89.982403
_cell_angle_gamma	90.016641
loop_
_atom_site_label
_atom_site_type_symbol
_atom_site_fract_x
_atom_site_fract_y
_atom_site_fract_z
Zn1	Zn	1.834897	-0.415948	-0.590801
Zn2	Zn	2.334897	0.084052	-0.090801
Zn3	Zn	1.834776	-0.590725	-0.416060
Zn4	Zn	2.334776	-0.090725	0.083940
Zn5	Zn	1.634190	-0.416002	-0.416079
Zn6	Zn	2.134190	0.083998	0.083921
Zn7	Zn	1.634173	-0.590651	-0.590765
Zn8	Zn	2.134173	-0.090651	-0.090765
O9	O	1.734509	-0.503332	-0.503426
O10	O	2.234509	-0.003332	-0.003426
O11	O	2.002831	-0.439140	-0.567628
O12	O	2.502831	0.060860	-0.067628
O13	O	1.808124	-0.567602	-0.269827
O14	O	2.308124	-0.067602	0.230173
O15	O	1.660872	-0.269759	-0.439279
O16	O	2.160872	0.230241	0.060721
O17	O	2.002742	-0.567548	-0.439247
O18	O	2.502742	-0.067548	0.060753
O19	O	1.808331	-0.269719	-0.567646
O20	O	2.308331	0.230281	-0.067646
O21	O	1.660754	-0.439234	-0.269841
O22	O	2.160754	0.060766	0.230159
O23	O	1.466238	-0.439162	-0.439245
O24	O	1.966238	0.060838	0.060755
O25	O	1.660843	-0.567422	-0.737006
O26	O	2.160843	-0.067422	-0.237006
O27	O	1.466226	-0.567476	-0.567586
O28	O	1.966226	-0.067476	-0.067586
O29	O	1.808315	-0.439069	-0.737032
O30	O	2.308315	0.060931	-0.237032
O31	O	1.808108	-0.736951	-0.439213
O32	O	2.308108	-0.236951	0.060787
O33	O	1.660726	-0.736897	-0.567568
O34	O	2.160726	-0.236897	-0.067568
C35	C	1.422684	-0.503317	-0.503414
C36	C	1.922684	-0.003317	-0.003414
C37	C	1.289284	-0.503337	-0.503434
C38	C	1.789284	-0.003337	-0.003434
C39	C	1.734434	-0.774841	-0.503407
C40	C	2.234434	-0.274841	-0.003407
C41	C	1.734512	-0.890995	-0.503434
C42	C	2.234512	-0.390995	-0.003434
C43	C	1.807447	-0.942676	-0.567011
C44	C	2.307447	-0.442676	-0.067011
C45	C	1.807529	-1.062726	-0.567040
C46	C	2.307529	-0.562726	-0.067040
C47	C	2.047551	-0.503346	-0.503439
C48	C	2.547551	-0.003346	-0.003439
C49	C	2.180951	-0.503353	-0.503444
C50	C	2.680951	-0.003353	-0.003444
C51	C	1.734591	-0.503231	-0.775997
C52	C	2.234591	-0.003231	-0.275997
C53	C	1.734626	-0.503188	-0.892150
C54	C	2.234626	-0.003188	-0.392150
C55	C	1.734617	-0.230761	-0.503469
C56	C	2.234617	0.269239	-0.003469
C57	C	1.734663	-0.114608	-0.503487
C58	C	2.234663	0.385392	-0.003487
C59	C	1.807607	-0.439662	-0.943947
C60	C	2.307607	0.060338	-0.443947
C61	C	1.807645	-0.439617	-1.063998
C62	C	2.307645	0.060383	-0.563998
C63	C	1.734497	-0.503356	-0.231917
C64	C	2.234497	-0.003356	0.268083
C65	C	1.734695	-0.503104	-0.115764
C66	C	2.234695	-0.003104	0.384236
H67	H	1.869825	-0.898048	-0.621425
H68	H	2.369825	-0.398048	-0.121425
C69	C	1.650231	-0.951271	-0.429929
C70	C	2.150231	-0.451271	0.070071
H71	H	1.604456	-0.903279	-0.390043
H72	H	2.104456	-0.403279	0.109957
H73	H	1.696240	-0.993853	-0.384481
H74	H	2.196240	-0.493853	0.115519
H75	H	1.597981	-0.993855	-0.469923
H76	H	2.097981	-0.493855	0.030077
H77	H	1.672214	-0.557498	-1.071226
H78	H	2.172214	-0.057498	-0.571226
C79	C	1.891975	-0.366224	-0.883805
C80	C	2.391975	0.133776	-0.383805
H81	H	1.937760	-0.326356	-0.931870
H82	H	2.437760	0.173644	-0.431870
H83	H	1.944195	-0.406249	-0.841216
H84	H	2.444195	0.093751	-0.341216
H85	H	1.846009	-0.320741	-0.841238
H86	H	2.346009	0.179259	-0.341238
C87	C	1.650249	-0.576619	-0.952292
C88	C	2.150249	-0.076619	-0.452292
H89	H	1.604450	-0.616475	-0.904228
H90	H	2.104450	-0.116475	-0.404228
H91	H	1.696196	-0.622097	-0.994870
H92	H	2.196196	-0.122097	-0.494870
H93	H	1.598023	-0.536578	-0.994872
H94	H	2.098023	-0.036578	-0.494872
H95	H	1.870131	-0.385233	-1.108543
H96	H	2.370131	0.114767	-0.608543
H97	H	1.672222	-1.070171	-0.449049
H98	H	2.172222	-0.570171	0.050951
C99	C	1.891886	-1.122760	-0.640574
C100	C	2.391886	-0.622760	-0.140574
H101	H	1.880869	-1.195571	-0.630952
H102	H	2.380869	-0.695571	-0.130952
H103	H	1.972541	-1.104872	-0.625356
H104	H	2.472541	-0.604872	-0.125356
H105	H	1.874273	-1.104885	-0.710790
H106	H	2.374273	-0.604885	-0.210790
