data_functionalizedCrystal
_audit_creation_method	'MofGen! by Chris Wilmer'
_symmetry_space_group_name_H-M	'P1'
_symmetry_Int_Tables_number	1
_symmetry_cell_setting	triclinic
loop_
_symmetry_equiv_pos_as_xyz
  x,y,z
_cell_length_a	16.625547
_cell_length_b	16.625545
_cell_length_c	16.625539
_cell_angle_alpha	90.028234
_cell_angle_beta	90.027058
_cell_angle_gamma	90.023223
loop_
_atom_site_label
_atom_site_type_symbol
_atom_site_fract_x
_atom_site_fract_y
_atom_site_fract_z
Zn1	Zn	-1.232672	0.321018	-0.456049
Zn2	Zn	-0.732672	0.821018	0.043951
Zn3	Zn	-1.232571	0.455861	-0.321217
Zn4	Zn	-0.732571	0.955861	0.178783
Zn5	Zn	-1.097834	0.321044	-0.321215
Zn6	Zn	-0.597834	0.821044	0.178785
Zn7	Zn	-1.097800	0.455810	-0.455991
Zn8	Zn	-0.597800	0.955810	0.044009
O9	O	-1.165219	0.388433	-0.388618
O10	O	-0.665219	0.888433	0.111382
O11	O	-1.345491	0.338915	-0.438189
O12	O	-0.845491	0.838915	0.061811
O13	O	-1.214670	0.438009	-0.208384
O14	O	-0.714670	0.938009	0.291616
O15	O	-1.115776	0.208208	-0.339124
O16	O	-0.615776	0.708208	0.160876
O17	O	-1.345417	0.437984	-0.339128
O18	O	-0.845417	0.937984	0.160872
O19	O	-1.214841	0.208189	-0.438187
O20	O	-0.714841	0.708189	0.061813
O21	O	-1.115679	0.338960	-0.208382
O22	O	-0.615679	0.838960	0.291618
O23	O	-0.984997	0.338911	-0.339068
O24	O	-0.484997	0.838911	0.160932
O25	O	-1.115719	0.437897	-0.568831
O26	O	-0.615719	0.937897	-0.068831
O27	O	-0.984972	0.437923	-0.438088
O28	O	-0.484972	0.937923	0.061912
O29	O	-1.214809	0.338866	-0.568874
O30	O	-0.714809	0.838866	-0.068874
O31	O	-1.214638	0.568686	-0.339071
O32	O	-0.714638	1.068686	0.160929
O33	O	-1.115622	0.568649	-0.438090
O34	O	-0.615622	1.068649	0.061910
C35	C	-0.955728	0.388415	-0.388572
C36	C	-0.455728	0.888415	0.111428
C37	C	-0.866107	0.388426	-0.388571
C38	C	-0.366107	0.888426	0.111429
C39	C	-0.793325	0.388427	-0.388578
C40	C	-0.293325	0.888427	0.111422
C41	C	-0.702016	0.388430	-0.388595
C42	C	-0.202016	0.888430	0.111405
C43	C	-0.629240	0.388436	-0.388612
C44	C	-0.129240	0.888436	0.111388
C45	C	-0.537926	0.388441	-0.388628
C46	C	-0.037926	0.888441	0.111372
C47	C	-1.165137	0.597924	-0.388592
C48	C	-0.665137	1.097924	0.111408
C49	C	-1.165176	0.687545	-0.388608
C50	C	-0.665176	1.187545	0.111392
C51	C	-0.375528	0.388449	-0.388655
C52	C	0.124472	0.888449	0.111345
C53	C	-0.465149	0.388447	-0.388646
C54	C	0.034851	0.888447	0.111354
C55	C	-1.165308	1.015721	-0.388704
C56	C	-0.665308	1.515721	0.111296
C57	C	-1.165268	0.924412	-0.388680
C58	C	-0.665268	1.424412	0.111320
C59	C	-1.165241	0.851636	-0.388656
C60	C	-0.665241	1.351636	0.111344
C61	C	-1.165203	0.760321	-0.388632
C62	C	-0.665203	1.260321	0.111368
C63	C	-1.165272	0.388373	-0.598927
C64	C	-0.665272	0.888373	-0.098927
C65	C	-1.165294	0.388347	-0.688548
C66	C	-0.665294	0.888347	-0.188548
C67	C	-1.165317	1.178124	-0.388671
C68	C	-0.665317	1.678124	0.111329
C69	C	-1.165341	1.088503	-0.388718
C70	C	-0.665341	1.588503	0.111282
C71	C	-1.165331	0.388257	-1.016724
C72	C	-0.665331	0.888257	-0.516724
C73	C	-1.165319	0.388285	-0.925416
C74	C	-0.665319	0.888285	-0.425416
C75	C	-1.165313	0.388303	-0.852639
C76	C	-0.665313	0.888303	-0.352639
C77	C	-1.165300	0.388329	-0.761325
C78	C	-0.665300	0.888329	-0.261325
C79	C	-1.165213	0.388435	-0.179127
C80	C	-0.665213	0.888435	0.320873
C81	C	-1.165347	0.388233	-0.089507
C82	C	-0.665347	0.888233	0.410493
