data_functionalizedCrystal
_audit_creation_method	'MofGen! by Chris Wilmer'
_symmetry_space_group_name_H-M	'P1'
_symmetry_Int_Tables_number	1
_symmetry_cell_setting	triclinic
loop_
_symmetry_equiv_pos_as_xyz
  x,y,z
_cell_length_a	21.295417
_cell_length_b	14.908792
_cell_length_c	14.909241
_cell_angle_alpha	96.416526
_cell_angle_beta	86.669119
_cell_angle_gamma	86.681052
loop_
_atom_site_label
_atom_site_type_symbol
_atom_site_fract_x
_atom_site_fract_y
_atom_site_fract_z
Zn1	Zn	-0.169969	-1.413369	-0.591800
Zn2	Zn	-0.281698	-1.404501	-0.440411
Zn3	Zn	-0.182876	-1.253256	-0.431695
Zn4	Zn	-0.281644	-1.261933	-0.582982
O5	O	-0.229047	-1.333265	-0.511722
O6	O	-0.179411	-1.538866	-0.579056
O7	O	-0.274013	-1.377096	-0.312584
O8	O	-0.093069	-1.274574	-0.452975
O9	O	-0.261498	-1.532351	-0.467832
O10	O	-0.083587	-1.392209	-0.570604
O11	O	-0.201409	-1.265976	-0.306180
O12	O	-0.201357	-1.127734	-0.444425
O13	O	-0.261406	-1.289364	-0.710823
O14	O	-0.273922	-1.134109	-0.555576
O15	O	-0.179359	-1.400623	-0.717301
O16	O	-0.369785	-1.385510	-0.459282
O17	O	-0.369746	-1.280766	-0.564028
C18	C	-0.239034	-1.098076	-0.498098
C19	C	-0.243321	-0.997463	-0.492291
C20	C	-0.292039	-0.852258	-0.426109
C21	C	-0.288013	-0.946793	-0.431565
C22	C	-0.202651	-0.953592	-0.547565
C23	C	-0.206676	-0.859056	-0.542109
C24	C	-0.251372	-0.808393	-0.481380
C25	C	-0.255400	-0.713856	-0.475930
C26	C	-0.170035	-0.720656	-0.591924
C27	C	-0.166009	-0.815191	-0.597380
C28	C	-0.392606	-1.333143	-0.511665
C29	C	-0.462572	-1.333176	-0.511676
C30	C	-0.495434	-1.387771	-0.457197
C31	C	-0.561173	-1.387815	-0.457219
C32	C	-0.594050	-1.333246	-0.511711
C33	C	-0.561180	-1.278648	-0.566201
C34	C	-0.495441	-1.278612	-0.566184
N35	N	-0.700389	-1.254457	-0.514025
N36	N	-0.762838	-1.254493	-0.514036
C37	C	-0.792118	-1.333351	-0.511769
N38	N	-0.756591	-1.412172	-0.509472
N39	N	-0.694135	-1.412135	-0.509455
C40	C	-0.665333	-1.333279	-0.511737
C41	C	-0.896263	-1.387998	-0.457312
C42	C	-0.962003	-1.388043	-0.457341
C43	C	-0.962009	-1.278868	-0.566317
C44	C	-0.896269	-1.278831	-0.566293
C45	C	-0.863400	-1.333394	-0.511785
C46	C	-0.064847	-1.333413	-0.511801
C47	C	0.005125	-1.333476	-0.511834
C48	C	-0.218937	-1.346951	-0.747825
C49	C	-0.214628	-1.352783	-0.848438
C50	C	-0.219016	-0.569371	-0.525393
C51	C	-0.214729	-0.669985	-0.531203
C52	C	-0.291983	-1.247890	-1.030757
C53	C	-0.287937	-1.253367	-1.125292
C54	C	-0.202494	-1.369217	-1.132044
C55	C	-0.206540	-1.363740	-1.037509
C56	C	-0.251285	-1.303074	-0.986869
C57	C	-0.255328	-1.297593	-0.892332
C58	C	-0.169888	-1.413447	-0.899087
C59	C	-0.165842	-1.418924	-0.993622
C60	C	-0.239070	-1.319684	-0.276541
C61	C	-0.243194	-1.314028	-0.175938
H62	H	-0.136922	-0.684932	-0.636931
H63	H	-0.321078	-1.208432	-1.161021
O64	O	-0.340246	-0.797611	-0.360613
H65	H	-0.336214	-0.724505	-0.366108
H66	H	-0.129414	-1.468319	-1.034866
O67	O	-0.459997	-1.219720	-0.624945
H68	H	-0.408761	-1.228866	-0.615780
O69	O	-0.117803	-0.869843	-0.662873
H70	H	-0.090199	-0.823456	-0.700386
O71	O	-0.340237	-1.182452	-0.976135
H72	H	-0.336209	-1.187910	-0.903025
H73	H	-0.587934	-1.432276	-0.412856
O74	O	-0.154441	-1.008248	-0.613050
H75	H	-0.163037	-0.994235	-0.683022
H76	H	-0.468673	-1.432202	-0.412816
O77	O	-0.860802	-1.446856	-0.398538
H78	H	-0.894699	-1.484842	-0.360670
H79	H	-0.321128	-0.982504	-0.386556
H80	H	-0.587953	-1.234220	-0.610570
H81	H	-0.988758	-1.432507	-0.412979
H82	H	-0.166069	-1.418616	-1.173292
H83	H	-0.136746	-1.458377	-0.863343
O84	O	-0.997464	-1.220014	-0.625092
H85	H	-0.963565	-1.182045	-0.662976
O86	O	-0.860821	-1.219921	-0.625028
H87	H	-0.894725	-1.181972	-0.662914
H88	H	-0.291756	-1.248186	-0.851101
H89	H	-0.291796	-0.672607	-0.426484
