data_functionalizedCrystal
_audit_creation_method	'MofGen! by Chris Wilmer'
_symmetry_space_group_name_H-M	'P1'
_symmetry_Int_Tables_number	1
_symmetry_cell_setting	triclinic
loop_
_symmetry_equiv_pos_as_xyz
  x,y,z
_cell_length_a	14.853566
_cell_length_b	16.109301
_cell_length_c	15.186229
_cell_angle_alpha	89.994833
_cell_angle_beta	90.000510
_cell_angle_gamma	96.452052
loop_
_atom_site_label
_atom_site_type_symbol
_atom_site_fract_x
_atom_site_fract_y
_atom_site_fract_z
O1	O	1.196185	-0.108541	0.073173
O2	O	0.933704	-0.121473	0.073188
O3	O	1.072155	0.006014	0.073171
O4	O	1.057734	-0.236028	0.073190
O5	O	1.072146	0.006015	-0.073286
O6	O	0.933695	-0.121471	-0.073269
O7	O	1.196176	-0.108540	-0.073284
Zn8	Zn	1.064934	-0.115005	-0.096530
Zn9	Zn	1.064946	-0.115008	0.096434
O10	O	1.057724	-0.236026	-0.073267
C11	C	0.900111	-0.120886	-0.000039
C12	C	0.800031	-0.119131	-0.000033
C13	C	0.376863	-0.111708	0.079784
C14	C	0.376874	-0.111706	-0.079889
C15	C	0.470906	-0.113355	-0.079886
C16	C	0.517920	-0.114181	-0.000047
C17	C	0.470903	-0.113359	0.079790
C18	C	0.517929	-0.114185	-0.159721
C19	C	0.611966	-0.115835	-0.159721
C20	C	0.658982	-0.116655	-0.079881
C21	C	0.611960	-0.115832	-0.000041
C22	C	0.658974	-0.116658	0.079798
C23	C	0.611953	-0.115829	0.159639
C24	C	0.517919	-0.114179	0.159630
C25	C	0.753016	-0.118305	-0.079873
C26	C	0.753013	-0.118309	0.079803
C27	C	1.071566	0.036990	-0.000058
C28	C	1.069815	0.129288	-0.000059
C29	C	1.229768	-0.109126	-0.000055
C30	C	1.329849	-0.110882	-0.000055
C31	C	1.058313	-0.267003	-0.000036
C32	C	1.060065	-0.359301	-0.000029
N33	N	1.064932	-0.115003	-0.228222
C34	C	1.147897	0.351451	-0.000049
C35	C	1.146244	0.438174	-0.000042
C36	C	0.981977	0.418529	-0.000036
C37	C	0.983630	0.331808	-0.000037
C38	C	1.066593	0.298272	-0.000048
C39	C	1.063287	0.471716	-0.000040
C40	C	1.061494	0.565744	-0.000032
C41	C	1.068386	0.204237	-0.000055
C42	C	1.126259	-0.058571	-0.453953
C43	C	1.126262	-0.058569	-0.546142
C44	C	1.003621	-0.171438	-0.546137
C45	C	1.003615	-0.171435	-0.453949
C46	C	1.064939	-0.115003	-0.407859
C47	C	1.064948	-0.115003	-0.592237
C48	C	1.064951	-0.115002	-0.692193
C49	C	1.064935	-0.115003	-0.307897
N50	N	1.064955	-0.115003	0.228127
H51	H	0.650244	-0.116507	0.224644
Br52	Br	0.313059	-0.110553	0.188135
H53	H	0.953694	-0.217385	-0.583672
H54	H	1.215450	0.324149	-0.000056
Br55	Br	0.873281	0.259630	-0.000024
Br56	Br	1.209482	0.018017	-0.391406
Br57	Br	1.256590	0.510343	-0.000038
H58	H	0.914431	0.445846	-0.000029
Br59	Br	0.313067	-0.110598	-0.188237
Br60	Br	1.209481	0.018024	-0.608697
H61	H	0.953676	-0.217389	-0.416417
H62	H	0.479627	-0.113503	0.224632
Br63	Br	0.454119	-0.113078	-0.268068
Br64	Br	0.675771	-0.116960	-0.268074
Br65	Br	0.816813	-0.119420	0.188163
H66	H	0.791295	-0.118988	-0.144878
