data_functionalizedCrystal
_audit_creation_method	'MofGen! by Chris Wilmer'
_symmetry_space_group_name_H-M	'P1'
_symmetry_Int_Tables_number	1
_symmetry_cell_setting	triclinic
loop_
_symmetry_equiv_pos_as_xyz
  x,y,z
_cell_length_a	10.686285
_cell_length_b	19.805407
_cell_length_c	19.805399
_cell_angle_alpha	89.978936
_cell_angle_beta	94.389466
_cell_angle_gamma	94.369619
loop_
_atom_site_label
_atom_site_type_symbol
_atom_site_fract_x
_atom_site_fract_y
_atom_site_fract_z
Zn1	Zn	-0.502409	-1.055501	0.362136
Zn2	Zn	-0.713420	-1.064138	0.240292
Zn3	Zn	-0.502440	-0.942317	0.248957
Zn4	Zn	-0.713349	-0.950998	0.353439
O5	O	-0.607905	-1.003239	0.301206
O6	O	-0.530417	-1.151364	0.345987
O7	O	-0.685476	-1.047959	0.146723
O8	O	-0.325861	-0.950084	0.271237
O9	O	-0.685446	-1.157709	0.256469
O10	O	-0.325838	-1.033240	0.354389
O11	O	-0.530470	-0.958458	0.153089
O12	O	-0.530401	-0.848752	0.262803
O13	O	-0.685325	-0.964879	0.449311
O14	O	-0.685355	-0.855129	0.339565
O15	O	-0.530348	-1.041657	0.455701
O16	O	-0.889986	-1.056377	0.248035
O17	O	-0.889934	-0.973254	0.331163
C18	C	-0.607875	-0.827381	0.301181
C19	C	-0.607892	-0.752150	0.301185
C20	C	-0.688697	-0.720150	0.341079
C21	C	-0.688697	-0.649461	0.341087
C22	C	-0.607898	-0.610775	0.301196
C23	C	-0.527084	-0.642780	0.261300
C24	C	-0.527078	-0.713467	0.261297
C25	C	-0.527102	-0.357707	0.261314
C26	C	-0.527116	-0.287016	0.261320
C27	C	-0.688721	-0.293702	0.341105
C28	C	-0.688716	-0.364389	0.341101
C29	C	-0.607898	-0.396387	0.301208
C30	C	-0.607897	-0.473036	0.301201
C31	C	-0.607904	-0.534128	0.301199
C32	C	-0.935744	-1.016713	0.287730
C33	C	-1.075995	-1.022539	0.281987
C34	C	-0.278786	-0.989730	0.314750
C35	C	-0.138535	-0.983974	0.320521
C36	C	-0.607825	-1.003273	0.477752
C37	C	-0.607791	-1.003288	0.552985
C38	C	-0.607927	-0.179782	0.301226
C39	C	-0.607916	-0.255014	0.301218
C40	C	-0.607893	-1.003239	0.125351
C41	C	-0.607571	-1.003341	0.050132
C42	C	-0.527091	-1.043267	0.591658
C43	C	-0.527054	-1.043273	0.662348
C44	C	-0.607725	-1.003302	0.694364
C45	C	-0.688430	-0.963318	0.655686
C46	C	-0.688459	-0.963310	0.584998
C47	C	-0.688312	-0.963352	0.940764
C48	C	-0.688279	-0.963365	1.011458
C49	C	-0.526907	-1.043315	1.018115
C50	C	-0.526937	-1.043306	0.947427
C51	C	-0.607635	-1.003320	0.908755
C52	C	-0.607672	-1.003313	0.832105
C53	C	-0.607696	-1.003312	0.771012
H54	H	-0.754498	-0.623410	0.373572
H55	H	-0.461290	-0.611276	0.228824
H56	H	-0.461312	-0.255519	0.228836
H57	H	-0.753974	-0.930813	1.037522
C58	C	-1.148616	-1.073163	0.231473
N59	N	-1.203316	-1.111293	0.193427
C60	C	-1.065918	-0.933351	0.371031
N61	N	-1.011215	-0.895221	0.409077
H62	H	-0.754522	-0.267640	0.373590
H63	H	-0.461403	-1.075818	0.565596
H64	H	-0.754498	-0.751644	0.373560
C65	C	-0.438190	-0.748667	0.217408
N66	N	-0.371233	-0.775179	0.184351
H67	H	-0.461343	-1.075829	0.693833
H68	H	-0.461250	-1.075857	0.921363
H69	H	-0.754515	-0.395884	0.373582
H70	H	-0.461305	-0.383752	0.228826
C71	C	-0.438121	-1.087292	1.060661
N72	N	-0.371248	-1.120414	1.092705
H73	H	-0.754040	-0.930803	0.909285
H74	H	-0.754109	-0.930771	0.681759
C75	C	-0.777238	-0.919331	0.542458
N76	N	-0.844107	-0.886203	0.510417
