data_functionalizedCrystal
_audit_creation_method	'MofGen! by Chris Wilmer'
_symmetry_space_group_name_H-M	'P1'
_symmetry_Int_Tables_number	1
_symmetry_cell_setting	triclinic
loop_
_symmetry_equiv_pos_as_xyz
  x,y,z
_cell_length_a	17.699112
_cell_length_b	17.699083
_cell_length_c	16.776229
_cell_angle_alpha	89.989561
_cell_angle_beta	90.010857
_cell_angle_gamma	96.711213
loop_
_atom_site_label
_atom_site_type_symbol
_atom_site_fract_x
_atom_site_fract_y
_atom_site_fract_z
O1	O	1.004064	-0.095811	0.066395
O2	O	1.504064	0.404189	0.566395
O3	O	0.783688	-0.108242	0.066377
O4	O	1.283688	0.391758	0.566377
O5	O	0.900102	0.008162	0.066367
O6	O	1.400102	0.508162	0.566367
O7	O	0.887650	-0.212215	0.066405
O8	O	1.387650	0.287785	0.566405
O9	O	0.900089	0.008162	-0.066210
O10	O	1.400089	0.508162	0.433790
O11	O	0.783675	-0.108241	-0.066199
O12	O	1.283675	0.391759	0.433801
O13	O	1.004051	-0.095811	-0.066182
O14	O	1.504051	0.404189	0.433818
Zn15	Zn	0.893861	-0.102026	-0.087240
Zn16	Zn	1.393861	0.397974	0.412760
Zn17	Zn	0.893878	-0.102027	0.087435
Zn18	Zn	1.393878	0.397973	0.587435
O19	O	0.887637	-0.212215	-0.066172
O20	O	1.387637	0.287785	0.433828
C21	C	0.755485	-0.107792	0.000086
C22	C	1.255485	0.392208	0.500086
C23	C	0.671468	-0.106445	0.000079
C24	C	1.171468	0.393555	0.500079
C25	C	0.899650	0.036359	0.000075
C26	C	1.399650	0.536359	0.500075
C27	C	0.898311	0.120377	0.000065
C28	C	1.398311	0.620377	0.500065
C29	C	1.032254	-0.096260	0.000111
C30	C	1.532254	0.403740	0.500111
C31	C	1.116271	-0.097607	0.000123
C32	C	1.616271	0.402393	0.500123
C33	C	1.631981	-0.105819	-0.072186
C34	C	2.131981	0.394181	0.427814
C35	C	1.553038	-0.104558	-0.072181
C36	C	2.053038	0.395442	0.427819
C37	C	1.513582	-0.103930	0.000091
C38	C	2.013582	0.396070	0.500091
C39	C	1.553075	-0.104554	0.072361
C40	C	2.053075	0.395446	0.572361
C41	C	1.632018	-0.105809	0.072355
C42	C	2.132018	0.394191	0.572355
C43	C	1.234707	-0.099492	0.072389
C44	C	1.734707	0.400508	0.572389
C45	C	1.155759	-0.098239	0.072389
C46	C	1.655759	0.401761	0.572389
C47	C	1.155727	-0.098241	-0.072147
C48	C	1.655727	0.401759	0.427853
C49	C	1.234670	-0.099496	-0.072154
C50	C	1.734670	0.400504	0.427846
C51	C	1.274157	-0.100116	0.000117
C52	C	1.774157	0.399884	0.500117
C53	C	1.359757	-0.101482	0.000110
C54	C	1.859757	0.398518	0.500110
C55	C	1.427983	-0.102570	0.000098
C56	C	1.927983	0.397430	0.500098
N57	N	0.893855	-0.102025	-0.206451
N58	N	1.393855	0.397975	0.293549
C59	C	0.966643	0.168992	0.000065
C60	C	1.466643	0.668992	0.500065
C61	C	0.965381	0.247935	0.000063
C62	C	1.465381	0.747935	0.500063
C63	C	0.895786	0.278263	0.000056
C64	C	1.395786	0.778263	0.500056
C65	C	0.827448	0.229643	0.000059
C66	C	1.327448	0.729643	0.500059
C67	C	0.828711	0.150701	0.000067
C68	C	1.328711	0.650701	0.500067
C69	C	0.822353	0.548006	0.000029
C70	C	1.322353	1.048006	0.500029
C71	C	0.821095	0.626954	0.000019
C72	C	1.321095	1.126954	0.500019
C73	C	0.959023	0.645240	0.000025
C74	C	1.459023	1.145240	0.500025
C75	C	0.960286	0.566299	0.000033
C76	C	1.460286	1.066299	0.500033
C77	C	0.891949	0.517685	0.000040
C78	C	1.391949	1.017685	0.500040
C79	C	0.893318	0.432086	0.000044
C80	C	1.393318	0.932086	0.500044
C81	C	0.894415	0.363861	0.000046
C82	C	1.394415	0.863861	0.500046
C83	C	0.888090	0.759588	0.000093
C84	C	1.388090	1.259588	0.500093
C85	C	0.889428	0.675570	0.000024
C86	C	1.389428	1.175570	0.500024
C87	C	0.939669	-0.147879	-0.248153
C88	C	1.439669	0.352121	0.251847
C89	C	0.939677	-0.147876	-0.331605
C90	C	1.439677	0.352124	0.168395
C91	C	0.893867	-0.102023	-0.373354
C92	C	1.393867	0.397977	0.126646
C93	C	0.848051	-0.056165	-0.331647
C94	C	1.348051	0.443835	0.168353
C95	C	0.848047	-0.056164	-0.248196
C96	C	1.348047	0.443836	0.251804
C97	C	0.848066	-0.056166	-0.668194
C98	C	1.348066	0.443834	-0.168194
C99	C	0.848072	-0.056171	-0.751651
C100	C	1.348072	0.443829	-0.251651
C101	C	0.939697	-0.147877	-0.751603
C102	C	1.439697	0.352123	-0.251603
C103	C	0.939693	-0.147877	-0.668152
C104	C	1.439693	0.352123	-0.168152
C105	C	0.893880	-0.102016	-0.626452
C106	C	1.393880	0.397984	-0.126452
C107	C	0.893872	-0.102018	-0.535964
C108	C	1.393872	0.397982	-0.035964
C109	C	0.893870	-0.102024	-0.463841
C110	C	1.393870	0.397976	0.036159
N111	N	0.893891	-0.102021	0.206647
N112	N	1.393891	0.397979	0.706647
H113	H	1.664099	-0.106337	-0.131038
H114	H	2.164099	0.393663	0.368962
H115	H	1.014666	0.684831	0.000023
H116	H	1.514666	1.184831	0.500023
H117	H	1.123568	-0.097733	-0.130993
H118	H	1.623568	0.402267	0.369007
C119	C	1.041725	0.488124	0.068200
C120	C	1.541725	0.988124	0.568200
C121	C	1.036786	0.532961	0.000043
C122	C	1.536786	1.032961	0.500043
H123	H	1.088953	0.467541	0.068204
H124	H	1.588953	0.967541	0.568204
H125	H	1.038373	0.518538	0.114419
H126	H	1.538373	1.018538	0.614419
H127	H	1.001205	0.447875	0.068190
H128	H	1.501205	0.947875	0.568190
H129	H	1.077304	0.573214	0.000055
H130	H	1.577304	1.073214	0.500055
H131	H	1.040146	0.502545	-0.046189
H132	H	1.540146	1.002545	0.453811
C133	C	1.560933	-0.104704	-0.215053
C134	C	2.060933	0.395296	0.284947
C135	C	1.509632	-0.103877	-0.151617
C136	C	2.009632	0.396123	0.348383
H137	H	1.534135	-0.104288	-0.264095
H138	H	2.034135	0.395712	0.235905
H139	H	1.597569	-0.061077	-0.212061
H140	H	2.097569	0.438923	0.287939
H141	H	1.585879	-0.149315	-0.212029
H142	H	2.085879	0.350685	0.287971
H143	H	1.484691	-0.059263	-0.154637
H144	H	1.984691	0.440737	0.345363
H145	H	1.472983	-0.147508	-0.154610
H146	H	1.972983	0.352492	0.345390
C147	C	1.455703	-0.168185	0.156231
C148	C	1.955703	0.331815	0.656231
C149	C	1.509706	-0.103866	0.151805
C150	C	2.009706	0.396134	0.651805
H151	H	1.428934	-0.167763	0.205279
H152	H	1.928934	0.332237	0.705279
H153	H	1.420892	-0.167626	0.113198
H154	H	1.920892	0.332374	0.613198
H155	H	1.480664	-0.212786	0.153231
H156	H	1.980664	0.287214	0.653231
H157	H	1.484745	-0.059265	0.154799
H158	H	1.984745	0.440735	0.654799
H159	H	1.544523	-0.104418	0.194849
H160	H	2.044523	0.395582	0.694849
H161	H	1.266848	-0.099995	0.131235
H162	H	1.766848	0.400005	0.631235
H163	H	0.773068	0.111119	0.000067
H164	H	1.273068	0.611119	0.500067
H165	H	0.810763	-0.018822	-0.634252
H166	H	1.310763	0.481178	-0.134252
H167	H	0.764419	0.651644	0.000012
H168	H	1.264419	1.151644	0.500012
C169	C	1.624123	-0.105695	0.215229
C170	C	2.124123	0.394305	0.715229
C171	C	1.675424	-0.106506	0.151791
C172	C	2.175424	0.393494	0.651791
H173	H	1.650921	-0.106129	0.264270
H174	H	2.150921	0.393871	0.764270
H175	H	1.599181	-0.061089	0.212220
H176	H	2.099181	0.438911	0.712220
H177	H	1.587482	-0.149327	0.212224
H178	H	2.087482	0.350673	0.712224
H179	H	1.712061	-0.062871	0.154793
H180	H	2.212061	0.437129	0.654793
H181	H	1.700379	-0.151117	0.154801
H182	H	2.200379	0.348883	0.654801
H183	H	0.976986	-0.185213	-0.365554
H184	H	1.476986	0.314787	0.134446
C185	C	1.226709	-0.099363	-0.215027
C186	C	1.726709	0.400637	0.284973
C187	C	1.278039	-0.100184	-0.151596
C188	C	1.778039	0.399816	0.348404
H189	H	1.253485	-0.099780	-0.264071
H190	H	1.753485	0.400220	0.235929
H191	H	1.190076	-0.142991	-0.212015
H192	H	1.690076	0.357009	0.287985
H193	H	1.201763	-0.054753	-0.212018
H194	H	1.701763	0.445247	0.287982
H195	H	1.302982	-0.144797	-0.154602
H196	H	1.802982	0.355203	0.345398
H197	H	1.314686	-0.056552	-0.154610
H198	H	1.814686	0.443448	0.345390
C199	C	1.030245	-0.238524	-0.256496
C200	C	1.530245	0.261476	0.243504
C201	C	0.990027	-0.198281	-0.202266
C202	C	1.490027	0.301719	0.297734
H203	H	1.061339	-0.269636	-0.228168
H204	H	1.561339	0.230364	0.271832
H205	H	0.995359	-0.269578	-0.289045
H206	H	1.495359	0.230422	0.210955
H207	H	1.061321	-0.203647	-0.289046
H208	H	1.561321	0.296353	0.210954
H209	H	0.958946	-0.233158	-0.169720
H210	H	1.458946	0.266842	0.330280
H211	H	1.024918	-0.167225	-0.169703
H212	H	1.524918	0.332775	0.330297
H213	H	0.810765	-0.018830	-0.785640
H214	H	1.310765	0.481170	-0.285640
C215	C	1.048086	0.090817	0.068229
C216	C	1.548086	0.590817	0.568229
C217	C	1.043145	0.135656	0.000073
C218	C	1.543145	0.635656	0.500073
H219	H	1.095314	0.070235	0.068232
H220	H	1.595314	0.570235	0.568232
H221	H	1.044734	0.121231	0.114449
H222	H	1.544734	0.621231	0.614449
H223	H	1.007566	0.050568	0.068219
H224	H	1.507566	0.550568	0.568219
H225	H	1.083661	0.175909	0.000085
H226	H	1.583661	0.675909	0.500085
H227	H	1.046504	0.105241	-0.046159
H228	H	1.546504	0.605241	0.453841
H229	H	1.021024	0.287514	0.000060
H230	H	1.521024	0.787514	0.500060
C231	C	1.163717	-0.098346	0.215270
C232	C	1.663717	0.401654	0.715270
C233	C	1.112388	-0.097541	0.151836
C234	C	1.612388	0.402459	0.651836
H235	H	1.136941	-0.097912	0.264313
H236	H	1.636941	0.402088	0.764313
H237	H	1.188661	-0.142951	0.212277
H238	H	1.688661	0.357049	0.712277
H239	H	1.200354	-0.054713	0.212246
H240	H	1.700354	0.445287	0.712246
H241	H	1.075754	-0.141178	0.154857
H242	H	1.575754	0.358822	0.654857
H243	H	1.087432	-0.052932	0.154831
H244	H	1.587432	0.447068	0.654831
C245	C	0.685888	0.537871	0.000004
C246	C	1.185888	1.037871	0.500004
C247	C	0.747237	0.494577	0.000022
C248	C	1.247237	0.994577	0.500022
H249	H	0.639513	0.504882	-0.000007
H250	H	1.139513	1.004882	0.499993
H251	H	0.688266	0.569035	0.046232
H252	H	1.188266	1.069035	0.546232
H253	H	0.688272	0.569050	-0.046233
H254	H	1.188272	1.069050	0.453767
H255	H	0.744856	0.463403	0.046262
H256	H	1.244856	0.963403	0.546262
H257	H	0.744858	0.463401	-0.046211
H258	H	1.244858	0.963401	0.453789
H259	H	0.976993	-0.185218	-0.634164
H260	H	1.476993	0.314782	-0.134164
C261	C	0.969175	-0.274638	-0.777264
C262	C	1.469175	0.225362	-0.277264
C263	C	0.990063	-0.198284	-0.797443
C264	C	1.490063	0.301716	-0.297443
H265	H	1.000265	-0.305756	-0.805567
H266	H	1.500265	0.194244	-0.305567
H267	H	0.975728	-0.281195	-0.721596
H268	H	1.475728	0.218805	-0.221596
H269	H	0.917366	-0.288749	-0.790959
H270	H	1.417366	0.211251	-0.290959
H271	H	1.041870	-0.184171	-0.783743
H272	H	1.541870	0.315829	-0.283743
H273	H	0.983516	-0.191723	-0.853123
H274	H	1.483516	0.308277	-0.353123
H275	H	0.770782	0.254342	0.000058
H276	H	1.270782	0.754342	0.500058
H277	H	0.810755	-0.018827	-0.365646
H278	H	1.310755	0.481173	0.134354
C279	C	0.843509	0.045631	-0.154375
C280	C	1.343509	0.545631	0.345625
C281	C	0.797684	-0.005762	-0.202355
C282	C	1.297684	0.494238	0.297645
H283	H	0.812417	0.076751	-0.126080
H284	H	1.312417	0.576751	0.373920
H285	H	0.870784	0.018322	-0.117573
H286	H	1.370784	0.518322	0.382427
H287	H	0.878395	0.076681	-0.186937
H288	H	1.378395	0.576681	0.313063
H289	H	0.762802	-0.036817	-0.169792
H290	H	1.262802	0.463183	0.330208
H291	H	0.770396	0.021549	-0.239161
H292	H	1.270396	0.521549	0.260839
