data_functionalizedCrystal
_audit_creation_method	'MofGen! by Chris Wilmer'
_symmetry_space_group_name_H-M	'P1'
_symmetry_Int_Tables_number	1
_symmetry_cell_setting	triclinic
loop_
_symmetry_equiv_pos_as_xyz
  x,y,z
_cell_length_a	10.540510
_cell_length_b	10.540510
_cell_length_c	15.186229
_cell_angle_alpha	89.996395
_cell_angle_beta	90.004286
_cell_angle_gamma	95.486689
loop_
_atom_site_label
_atom_site_type_symbol
_atom_site_fract_x
_atom_site_fract_y
_atom_site_fract_z
O1	O	-0.178721	1.685888	-0.073235
O2	O	-0.195617	1.316469	-0.073236
O3	O	-0.002459	1.509626	-0.073229
O4	O	-0.371879	1.492731	-0.073243
O5	O	-0.002456	1.509613	0.073229
O6	O	-0.195614	1.316456	0.073221
O7	O	-0.178718	1.685875	0.073222
Zn8	Zn	-0.187166	1.501163	0.096475
Zn9	Zn	-0.187169	1.501180	-0.096489
O10	O	-0.371876	1.492718	0.073214
C11	C	-0.194356	1.269159	-0.000007
C12	C	-0.190589	1.128209	-0.000007
C13	C	-0.324775	0.910739	-0.000349
C14	C	-0.328793	1.057334	-0.000014
C15	C	-0.119841	1.083449	0.083627
C16	C	-0.116801	0.936689	0.083692
C17	C	-0.113926	0.936898	-0.082857
C18	C	-0.120482	1.083238	-0.083957
C19	C	-0.419181	1.493983	-0.000016
C20	C	-0.560130	1.497750	-0.000022
C21	C	-0.777600	1.363564	0.000325
C22	C	-0.631005	1.359546	-0.000018
C23	C	-0.604900	1.568505	-0.083651
C24	C	-0.751661	1.571544	-0.083707
C25	C	-0.751431	1.574407	0.082842
C26	C	-0.605091	1.567851	0.083934
C27	C	0.044846	1.508361	-0.000000
C28	C	0.185795	1.504594	-0.000000
C29	C	-0.179979	1.733185	-0.000009
C30	C	-0.183746	1.874135	-0.000014
N31	N	-0.187162	1.501161	0.228167
N32	N	-0.187163	1.501193	-0.228182
C33	C	-0.101661	1.586721	0.453894
C34	C	-0.101658	1.586725	0.546083
C35	C	-0.272668	1.415624	0.546086
C36	C	-0.272663	1.415615	0.453898
C37	C	-0.187162	1.501170	0.407804
C38	C	-0.187163	1.501183	0.592182
C39	C	-0.187160	1.501187	0.692138
C40	C	-0.187162	1.501165	0.307842
H41	H	-0.384141	1.086680	-0.059969
C42	C	-0.186214	1.125098	0.167707
H43	H	-0.257030	1.169750	0.152021
H44	H	-0.127740	1.179236	0.201549
H45	H	-0.214850	1.051987	0.201415
C46	C	-0.190017	1.121892	-0.167544
H47	H	-0.261471	1.165264	-0.151358
H48	H	-0.218025	1.047758	-0.200383
H49	H	-0.133453	1.176529	-0.202451
C50	C	0.015830	1.149523	-0.090774
H51	H	0.031844	1.205735	-0.042291
H52	H	0.024536	1.196542	-0.144151
H53	H	0.075216	1.087174	-0.090063
H54	H	-0.157511	0.894350	-0.146248
C55	C	-0.563282	1.502131	-0.167738
H56	H	-0.590821	1.545649	-0.217996
H57	H	-0.600300	1.416353	-0.168476
H58	H	-0.473046	1.503454	-0.168624
H59	H	-0.793867	1.530722	0.146235
C60	C	-0.366685	1.321490	0.596787
H61	H	-0.417587	1.270518	0.556132
H62	H	-0.419982	1.367592	0.632755
H63	H	-0.320473	1.268253	0.632744
H64	H	-0.342289	1.345943	0.416369
C65	C	-0.566390	1.498334	0.167516
H66	H	-0.523009	1.426888	0.151324
H67	H	-0.640500	1.470316	0.200376
H68	H	-0.511745	1.554918	0.202405
H69	H	-0.378619	0.868785	-0.060329
C70	C	-0.397103	0.851961	0.080210
H71	H	-0.482224	0.874535	0.079499
H72	H	-0.355942	0.883257	0.132588
H73	H	-0.397780	0.761816	0.078231
C74	C	-0.403965	1.095706	0.081127
H75	H	-0.432155	1.021658	0.114016
H76	H	-0.475578	1.137028	0.062496
H77	H	-0.350511	1.152092	0.116944
H78	H	-0.556007	1.668748	0.088985
H79	H	-0.013434	0.913704	0.087495
C80	C	-0.592640	1.284353	-0.081151
H81	H	-0.502813	1.281628	-0.081635
H82	H	-0.618178	1.325033	-0.133170
H83	H	-0.633251	1.199993	-0.078694
C84	C	-0.182134	0.882329	0.168131
H85	H	-0.180856	0.792336	0.168916
H86	H	-0.267879	0.903001	0.169421
H87	H	-0.137958	0.918108	0.218153
C88	C	-0.806024	1.506227	-0.168151
H89	H	-0.738384	1.478083	-0.202097
H90	H	-0.849052	1.565102	-0.201586
H91	H	-0.864156	1.435174	-0.152864
H92	H	-0.010163	0.914755	-0.083418
H93	H	-0.601654	1.304174	0.059924
C94	C	-0.834275	1.290807	0.081345
H95	H	-0.880778	1.345781	0.115698
H96	H	-0.767369	1.262190	0.115777
H97	H	-0.889675	1.219571	0.062540
C98	C	-0.540865	1.705947	-0.087870
H99	H	-0.569275	1.746980	-0.138925
H100	H	-0.450981	1.704370	-0.090385
H101	H	-0.562856	1.751292	-0.036903
H102	H	-0.774646	1.674912	-0.087505
H103	H	-0.773578	1.678169	0.083412
H104	H	-0.032039	1.656383	0.416366
H105	H	-0.018098	1.130850	0.086742
C106	C	-0.836381	1.291245	-0.080237
H107	H	-0.813805	1.206124	-0.079533
H108	H	-0.805087	1.332414	-0.132613
H109	H	-0.926527	1.290565	-0.078258
H110	H	-0.032035	1.656386	0.583607
