data_functionalizedCrystal
_audit_creation_method	'MofGen! by Chris Wilmer'
_symmetry_space_group_name_H-M	'P1'
_symmetry_Int_Tables_number	1
_symmetry_cell_setting	triclinic
loop_
_symmetry_equiv_pos_as_xyz
  x,y,z
_cell_length_a	19.077105
_cell_length_b	16.625546
_cell_length_c	16.625539
_cell_angle_alpha	90.028532
_cell_angle_beta	92.314163
_cell_angle_gamma	87.718759
loop_
_atom_site_label
_atom_site_type_symbol
_atom_site_fract_x
_atom_site_fract_y
_atom_site_fract_z
Zn1	Zn	1.075977	-0.370618	0.505359
Zn2	Zn	1.325977	-0.120618	0.755359
Zn3	Zn	1.575977	0.129382	1.005359
Zn4	Zn	1.825977	0.379382	1.255359
Zn5	Zn	1.075900	-0.505453	0.370518
Zn6	Zn	1.325900	-0.255453	0.620518
Zn7	Zn	1.575900	-0.005453	0.870518
Zn8	Zn	1.825900	0.244547	1.120518
Zn9	Zn	0.958284	-0.365216	0.365129
Zn10	Zn	1.208284	-0.115216	0.615129
Zn11	Zn	1.458284	0.134784	0.865129
Zn12	Zn	1.708284	0.384784	1.115129
Zn13	Zn	0.958251	-0.499985	0.499900
Zn14	Zn	1.208251	-0.249985	0.749900
Zn15	Zn	1.458251	0.000015	0.999900
Zn16	Zn	1.708251	0.250015	1.249900
O17	O	1.017103	-0.435318	0.435227
O18	O	1.267103	-0.185318	0.685227
O19	O	1.517103	0.064682	0.935227
O20	O	1.767103	0.314682	1.185227
O21	O	1.174458	-0.393053	0.492012
O22	O	1.424458	-0.143053	0.742012
O23	O	1.674458	0.106947	0.992012
O24	O	1.924458	0.356947	1.242012
O25	O	1.060279	-0.486878	0.256970
O26	O	1.310279	-0.236878	0.506970
O27	O	1.560279	0.013122	0.756970
O28	O	1.810279	0.263122	1.006970
O29	O	0.973943	-0.253103	0.383761
O30	O	1.223943	-0.003103	0.633761
O31	O	1.473943	0.246897	0.883761
O32	O	1.723943	0.496897	1.133761
O33	O	1.174401	-0.492116	0.392945
O34	O	1.424401	-0.242116	0.642945
O35	O	1.674401	0.007884	0.892945
O36	O	1.924401	0.257884	1.142945
O37	O	1.060411	-0.257071	0.486787
O38	O	1.310411	-0.007071	0.736787
O39	O	1.560411	0.242929	0.986787
O40	O	1.810411	0.492929	1.236787
O41	O	0.973868	-0.383847	0.253011
O42	O	1.223868	-0.133847	0.503011
O43	O	1.473868	0.116153	0.753011
O44	O	1.723868	0.366153	1.003011
O45	O	0.859789	-0.378545	0.378467
O46	O	1.109789	-0.128545	0.628467
O47	O	1.359789	0.121455	0.878467
O48	O	1.609789	0.371455	1.128467
O49	O	0.973887	-0.482797	0.613457
O50	O	1.223887	-0.232797	0.863457
O51	O	1.473887	0.017203	1.113457
O52	O	1.723887	0.267203	1.363457
O53	O	0.859765	-0.477559	0.477482
O54	O	1.109765	-0.227559	0.727482
O55	O	1.359765	0.022441	0.977482
O56	O	1.609765	0.272441	1.227482
O57	O	1.060379	-0.387751	0.617468
O58	O	1.310379	-0.137751	0.867468
O59	O	1.560379	0.112249	1.117468
O60	O	1.810379	0.362249	1.367468
O61	O	1.060247	-0.617558	0.387651
O62	O	1.310247	-0.367558	0.637651
O63	O	1.560247	-0.117558	0.887651
O64	O	1.810247	0.132442	1.137651
O65	O	0.973812	-0.613541	0.482707
O66	O	1.223812	-0.363541	0.732707
O67	O	1.473812	-0.113541	0.982707
O68	O	1.723812	0.136459	1.232707
C69	C	0.834240	-0.426873	0.426798
C70	C	1.084240	-0.176873	0.676798
C71	C	1.334240	0.073127	0.926798
C72	C	1.584240	0.323127	1.176798
C73	C	0.756010	-0.423279	0.423211
C74	C	1.006010	-0.173279	0.673211
C75	C	1.256010	0.076721	0.923211
C76	C	1.506010	0.326721	1.173211
C77	C	1.017037	-0.644806	0.435190
C78	C	1.267037	-0.394806	0.685190
C79	C	1.517037	-0.144806	0.935190
C80	C	1.767037	0.105194	1.185190
C81	C	1.017072	-0.734429	0.435204
C82	C	1.267072	-0.484429	0.685204
C83	C	1.517072	-0.234429	0.935204
C84	C	1.767072	0.015571	1.185204
C85	C	0.719263	-0.473220	0.472997
C86	C	0.969263	-0.223220	0.722997
C87	C	1.219263	0.026780	0.972997
C88	C	1.469263	0.276780	1.222997
C89	C	0.645758	-0.469833	0.469631
C90	C	0.895758	-0.219833	0.719631
C91	C	1.145758	0.030167	0.969631
C92	C	1.395758	0.280167	1.219631
C93	C	0.609000	-0.416508	0.416474
C94	C	0.859000	-0.166508	0.666474
C95	C	1.109000	0.083492	0.916474
C96	C	1.359000	0.333492	1.166474
C97	C	0.645752	-0.366562	0.366687
C98	C	0.895752	-0.116562	0.616687
C99	C	1.145752	0.133438	0.866687
C100	C	1.395752	0.383438	1.116687
C101	C	0.719256	-0.369946	0.370057
C102	C	0.969256	-0.119946	0.620057
C103	C	1.219256	0.130054	0.870057
C104	C	1.469256	0.380054	1.120057
C105	C	0.389167	-0.400848	0.400878
C106	C	0.639167	-0.150848	0.650878
C107	C	0.889167	0.099152	0.900878
C108	C	1.139167	0.349152	1.150878
C109	C	0.315657	-0.397470	0.397509
C110	C	0.565657	-0.147470	0.647509
C111	C	0.815657	0.102530	0.897509
C112	C	1.065657	0.352530	1.147509
C113	C	0.315668	-0.500740	0.500455
C114	C	0.565668	-0.250740	0.750455
C115	C	0.815668	-0.000740	1.000455
C116	C	1.065668	0.249260	1.250455
C117	C	0.389173	-0.504122	0.503817
C118	C	0.639173	-0.254122	0.753817
C119	C	0.889173	-0.004122	1.003817
C120	C	1.139173	0.245878	1.253817
C121	C	0.425919	-0.454173	0.454033
C122	C	0.675919	-0.204173	0.704033
C123	C	0.925919	0.045827	0.954033
C124	C	1.175919	0.295827	1.204033
N125	N	0.533866	-0.413046	0.413030
N126	N	0.783866	-0.163046	0.663030
N127	N	1.033866	0.086954	0.913030
N128	N	1.283866	0.336954	1.163030
N129	N	0.501051	-0.457631	0.457481
N130	N	0.751051	-0.207631	0.707481
N131	N	1.001051	0.042369	0.957481
N132	N	1.251051	0.292369	1.207481
C133	C	1.017195	-1.062610	0.435294
C134	C	1.267195	-0.812610	0.685294
C135	C	1.517195	-0.562610	0.935294
C136	C	1.767195	-0.312610	1.185294
C137	C	1.017159	-0.971300	0.435271
C138	C	1.267159	-0.721300	0.685271
C139	C	1.517159	-0.471300	0.935271
C140	C	1.767159	-0.221300	1.185271
C141	C	1.017133	-0.898522	0.435248
C142	C	1.267133	-0.648522	0.685248
C143	C	1.517133	-0.398522	0.935248
C144	C	1.767133	-0.148522	1.185248
C145	C	1.017098	-0.807206	0.435226
C146	C	1.267098	-0.557206	0.685226
C147	C	1.517098	-0.307206	0.935226
C148	C	1.767098	-0.057206	1.185226
C149	C	1.200681	-0.443797	0.443689
C150	C	1.450681	-0.193797	0.693689
C151	C	1.700681	0.056203	0.943689
C152	C	1.950681	0.306203	1.193689
C153	C	1.278911	-0.447411	0.447294
C154	C	1.528911	-0.197411	0.697294
C155	C	1.778911	0.052589	0.947294
C156	C	2.028911	0.302589	1.197294
C157	C	1.017138	-0.435267	0.645537
C158	C	1.267138	-0.185267	0.895537
C159	C	1.517138	0.064733	1.145537
C160	C	1.767138	0.314733	1.395537
C161	C	1.017152	-0.435245	0.735159
C162	C	1.267152	-0.185245	0.985159
C163	C	1.517152	0.064755	1.235159
C164	C	1.767152	0.314755	1.485159
C165	C	1.017189	-0.225013	0.435282
C166	C	1.267189	0.024987	0.685282
C167	C	1.517189	0.274987	0.935282
C168	C	1.767189	0.524987	1.185282
C169	C	1.017226	-0.135394	0.435306
C170	C	1.267226	0.114606	0.685306
C171	C	1.517226	0.364606	0.935306
C172	C	1.767226	0.614606	1.185306
C173	C	1.017109	-0.435313	0.225736
C174	C	1.267109	-0.185313	0.475736
C175	C	1.517109	0.064687	0.725736
C176	C	1.767109	0.314687	0.975736
C177	C	1.017231	-0.435114	0.136121
C178	C	1.267231	-0.185114	0.386121
C179	C	1.517231	0.064886	0.636121
C180	C	1.767231	0.314886	0.886121
C181	C	1.017164	-0.435227	0.807942
C182	C	1.267164	-0.185227	1.057942
C183	C	1.517164	0.064773	1.307942
C184	C	1.767164	0.314773	1.557942
C185	C	1.017180	-0.435198	0.899251
C186	C	1.267180	-0.185198	1.149251
C187	C	1.517180	0.064802	1.399251
C188	C	1.767180	0.314802	1.649251
C189	C	1.017197	-0.435170	0.972029
C190	C	1.267197	-0.185170	1.222029
C191	C	1.517197	0.064830	1.472029
C192	C	1.767197	0.314830	1.722029
C193	C	1.017214	-0.435142	1.063344
C194	C	1.267214	-0.185142	1.313344
C195	C	1.517214	0.064858	1.563344
C196	C	1.767214	0.314858	1.813344
H197	H	0.749185	-0.516645	0.516280
H198	H	0.999185	-0.266645	0.766280
H199	H	1.249185	-0.016645	1.016280
H200	H	1.499185	0.233355	1.266280
H201	H	0.749175	-0.329274	0.329521
H202	H	0.999175	-0.079274	0.579521
H203	H	1.249175	0.170726	0.829521
H204	H	1.499175	0.420726	1.079521
Cl205	Cl	0.435377	-0.571164	0.570643
Cl206	Cl	0.685377	-0.321164	0.820643
Cl207	Cl	0.935377	-0.071164	1.070643
Cl208	Cl	1.185377	0.178836	1.320643
H209	H	0.615819	-0.323140	0.323409
H210	H	0.865819	-0.073140	0.573409
H211	H	1.115819	0.176860	0.823409
H212	H	1.365819	0.426860	1.073409
Cl213	Cl	0.599565	-0.532619	0.532222
Cl214	Cl	0.849565	-0.282619	0.782222
Cl215	Cl	1.099565	-0.032619	1.032222
Cl216	Cl	1.349565	0.217381	1.282222
H217	H	0.285742	-0.541405	0.540988
H218	H	0.535742	-0.291405	0.790988
H219	H	0.785742	-0.041405	1.040988
H220	H	1.035742	0.208595	1.290988
H221	H	0.285732	-0.354037	0.354227
H222	H	0.535732	-0.104037	0.604227
H223	H	0.785732	0.145963	0.854227
H224	H	1.035732	0.395963	1.104227
Cl225	Cl	0.435351	-0.338052	0.338293
Cl226	Cl	0.685351	-0.088052	0.588293
Cl227	Cl	0.935351	0.161948	0.838293
Cl228	Cl	1.185351	0.411948	1.088293
