data_functionalizedCrystal
_audit_creation_method	'MofGen! by Chris Wilmer'
_symmetry_space_group_name_H-M	'P1'
_symmetry_Int_Tables_number	1
_symmetry_cell_setting	triclinic
loop_
_symmetry_equiv_pos_as_xyz
  x,y,z
_cell_length_a	16.959455
_cell_length_b	16.625546
_cell_length_c	16.959447
_cell_angle_alpha	89.967784
_cell_angle_beta	89.979626
_cell_angle_gamma	90.019488
loop_
_atom_site_label
_atom_site_type_symbol
_atom_site_fract_x
_atom_site_fract_y
_atom_site_fract_z
Zn1	Zn	1.208371	-0.321050	-0.447026
Zn2	Zn	1.541704	0.012284	-0.113693
Zn3	Zn	1.875037	0.345617	0.219641
Zn4	Zn	1.208288	-0.455897	-0.314843
Zn5	Zn	1.541621	-0.122564	0.018490
Zn6	Zn	1.874954	0.210769	0.351824
Zn7	Zn	1.076199	-0.321075	-0.314849
Zn8	Zn	1.409532	0.012258	0.018484
Zn9	Zn	1.742866	0.345591	0.351817
Zn10	Zn	1.076158	-0.455837	-0.446968
Zn11	Zn	1.409492	-0.122504	-0.113634
Zn12	Zn	1.742825	0.210830	0.219699
O13	O	1.142254	-0.388465	-0.380921
O14	O	1.475587	-0.055131	-0.047588
O15	O	1.808921	0.278202	0.285745
O16	O	1.318971	-0.338952	-0.429513
O17	O	1.652304	-0.005619	-0.096180
O18	O	1.985637	0.327715	0.237153
O19	O	1.190748	-0.438049	-0.204233
O20	O	1.524082	-0.104715	0.129100
O21	O	1.857415	0.228618	0.462434
O22	O	1.093784	-0.208239	-0.332410
O23	O	1.427117	0.125094	0.000923
O24	O	1.760450	0.458427	0.334257
O25	O	1.318910	-0.438024	-0.332399
O26	O	1.652243	-0.104691	0.000934
O27	O	1.985576	0.228643	0.334268
O28	O	1.190890	-0.208221	-0.429520
O29	O	1.524223	0.125113	-0.096186
O30	O	1.857556	0.458446	0.237147
O31	O	1.093703	-0.338995	-0.204238
O32	O	1.427037	-0.005662	0.129096
O33	O	1.760370	0.327671	0.462429
O34	O	0.965583	-0.338937	-0.332354
O35	O	1.298916	-0.005604	0.000980
O36	O	1.632249	0.327729	0.334313
O37	O	1.093714	-0.437921	-0.557586
O38	O	1.427048	-0.104588	-0.224253
O39	O	1.760381	0.228745	0.109080
O40	O	0.965553	-0.437946	-0.429420
O41	O	1.298886	-0.104613	-0.096087
O42	O	1.632219	0.228721	0.237247
O43	O	1.190850	-0.338894	-0.557629
O44	O	1.524183	-0.005560	-0.224296
O45	O	1.857517	0.327773	0.109038
O46	O	1.190709	-0.568722	-0.332342
O47	O	1.524042	-0.235388	0.000991
O48	O	1.857375	0.097945	0.334324
O49	O	1.093634	-0.568677	-0.429414
O50	O	1.426967	-0.235344	-0.096081
O51	O	1.760300	0.097989	0.237253
C52	C	0.936888	-0.388439	-0.380882
C53	C	1.270221	-0.055105	-0.047548
C54	C	1.603554	0.278228	0.285785
C55	C	0.849031	-0.388447	-0.380883
C56	C	1.182364	-0.055113	-0.047550
C57	C	1.515698	0.278220	0.285783
C58	C	0.477513	-0.440000	-0.330328
C59	C	0.810846	-0.106667	0.003005
C60	C	1.144180	0.226666	0.336338
C61	C	0.477598	-0.336996	-0.431611
C62	C	0.810931	-0.003663	-0.098278
C63	C	1.144265	0.329670	0.235056
C64	C	0.560144	-0.336983	-0.431592
C65	C	0.893477	-0.003650	-0.098258
C66	C	1.226810	0.329684	0.235075
C67	C	0.601378	-0.388480	-0.380941
C68	C	0.934711	-0.055147	-0.047607
C69	C	1.268045	0.278187	0.285726
C70	C	0.560067	-0.439990	-0.330309
C71	C	0.893400	-0.106657	0.003024
C72	C	1.226733	0.226676	0.336357
C73	C	0.601461	-0.285479	-0.482228
C74	C	0.934795	0.047854	-0.148895
C75	C	1.268128	0.381187	0.184439
C76	C	0.684012	-0.285464	-0.482211
C77	C	1.017346	0.047869	-0.148878
C78	C	1.350679	0.381202	0.184455
C79	C	0.725248	-0.336958	-0.431556
C80	C	1.058582	-0.003625	-0.098223
C81	C	1.391915	0.329709	0.235111
C82	C	0.683932	-0.388470	-0.380922
C83	C	1.017265	-0.055137	-0.047588
C84	C	1.350598	0.278197	0.285745
C85	C	0.725166	-0.439967	-0.330271
C86	C	1.058499	-0.106634	0.003062
C87	C	1.391833	0.226700	0.336396
C88	C	0.683851	-0.491476	-0.279632
C89	C	1.017184	-0.158142	0.053701
C90	C	1.350518	0.175191	0.387035
C91	C	0.601302	-0.491484	-0.279654
C92	C	0.934636	-0.158151	0.053680
C93	C	1.267969	0.175183	0.387013
C94	C	0.807797	-0.336950	-0.431534
C95	C	1.141130	-0.003616	-0.098201
C96	C	1.474463	0.329717	0.235132
C97	C	0.807720	-0.439957	-0.330252
C98	C	1.141053	-0.106624	0.003082
C99	C	1.474386	0.226710	0.336415
C100	C	1.142179	-0.597956	-0.380888
C101	C	1.475512	-0.264622	-0.047555
C102	C	1.808846	0.068711	0.285778
C103	C	1.142219	-0.687577	-0.380901
C104	C	1.475553	-0.354243	-0.047567
C105	C	1.808886	-0.020910	0.285766
C106	C	1.142357	-1.015752	-0.380983
C107	C	1.475691	-0.682419	-0.047650
C108	C	1.809024	-0.349086	0.285684
C109	C	1.142316	-0.924444	-0.380962
C110	C	1.475650	-0.591111	-0.047629
C111	C	1.808983	-0.257777	0.285704
C112	C	1.142288	-0.851667	-0.380941
C113	C	1.475621	-0.518334	-0.047608
C114	C	1.808954	-0.185001	0.285725
C115	C	1.142248	-0.760353	-0.380922
C116	C	1.475581	-0.427020	-0.047588
C117	C	1.808915	-0.093687	0.285745
C118	C	1.348422	-0.388492	-0.380962
C119	C	1.681755	-0.055158	-0.047629
C120	C	2.015089	0.278175	0.285705
C121	C	1.436279	-0.388503	-0.380979
C122	C	1.769612	-0.055170	-0.047646
C123	C	2.102945	0.278163	0.285688
C124	C	1.142287	-0.388398	-0.587090
C125	C	1.475620	-0.055065	-0.253756
C126	C	1.808953	0.278269	0.079577
C127	C	1.142301	-0.388370	-0.674946
C128	C	1.475634	-0.055036	-0.341613
C129	C	1.808968	0.278297	-0.008280
C130	C	1.142351	-0.178156	-0.380972
C131	C	1.475684	0.155177	-0.047639
C132	C	1.809017	0.488511	0.285695
C133	C	1.142392	-0.088535	-0.380994
C134	C	1.475725	0.244799	-0.047660
C135	C	1.809058	0.578132	0.285673
C136	C	1.091821	-0.439844	-1.046402
C137	C	1.425154	-0.106510	-0.713069
C138	C	1.758488	0.226823	-0.379736
C139	C	1.192970	-0.336726	-1.046442
C140	C	1.526303	-0.003392	-0.713109
C141	C	1.859636	0.329941	-0.379775
C142	C	1.192949	-0.336743	-0.963896
C143	C	1.526282	-0.003409	-0.630563
C144	C	1.859615	0.329924	-0.297230
C145	C	1.142364	-0.388312	-0.922600
C146	C	1.475697	-0.054979	-0.589266
C147	C	1.809030	0.278355	-0.255933
C148	C	1.091800	-0.439864	-0.963849
C149	C	1.425133	-0.106531	-0.630516
C150	C	1.758467	0.226803	-0.297182
C151	C	1.243517	-0.285197	-0.922641
C152	C	1.576850	0.048136	-0.589307
C153	C	1.910184	0.381470	-0.255974
C154	C	1.243499	-0.285213	-0.840090
C155	C	1.576832	0.048121	-0.506756
C156	C	1.910165	0.381454	-0.173423
C157	C	1.192909	-0.336779	-0.798792
C158	C	1.526242	-0.003445	-0.465458
C159	C	1.859576	0.329888	-0.132125
C160	C	1.142343	-0.388332	-0.840046
C161	C	1.475676	-0.054999	-0.506713
C162	C	1.809010	0.278334	-0.173379
C163	C	1.091758	-0.439902	-0.798749
C164	C	1.425091	-0.106568	-0.465416
C165	C	1.758425	0.226765	-0.132083
C166	C	1.041187	-0.491452	-0.840002
C167	C	1.374521	-0.158118	-0.506669
C168	C	1.707854	0.175215	-0.173336
C169	C	1.041211	-0.491430	-0.922551
C170	C	1.374544	-0.158097	-0.589217
C171	C	1.707877	0.175237	-0.255884
C172	C	1.192886	-0.336800	-0.716243
C173	C	1.526219	-0.003467	-0.382910
C174	C	1.859552	0.329866	-0.049576
C175	C	1.091737	-0.439922	-0.716196
C176	C	1.425070	-0.106589	-0.382862
C177	C	1.758404	0.226745	-0.049529
C178	C	1.142267	-0.388473	-0.175555
C179	C	1.475600	-0.055140	0.157778
C180	C	1.808933	0.278194	0.491111
C181	C	1.142406	-0.388274	-0.087699
C182	C	1.475739	-0.054941	0.245634
C183	C	1.809072	0.278392	0.578968
H184	H	0.717435	-0.533409	-0.238396
H185	H	1.050768	-0.200075	0.094937
H186	H	1.384101	0.133258	0.428270
O187	O	0.852194	-0.495496	-0.275615
O188	O	1.185527	-0.162163	0.057718
O189	O	1.518860	0.171170	0.391051
H190	H	0.836348	-0.558799	-0.289063
H191	H	1.169681	-0.225466	0.044271
H192	H	1.503014	0.107868	0.377604
H193	H	0.567882	-0.243558	-0.523470
H194	H	0.901216	0.089775	-0.190137
H195	H	1.234549	0.423108	0.143197
H196	H	1.234158	-0.294745	-1.080071
H197	H	1.567491	0.038589	-0.746737
H198	H	1.900824	0.371922	-0.413404
O199	O	0.986625	-0.547071	-0.795460
O200	O	1.319959	-0.213737	-0.462126
O201	O	1.653292	0.119596	-0.128793
H202	H	0.995109	-0.538418	-0.731129
H203	H	1.328442	-0.205085	-0.397796
H204	H	1.661776	0.128249	-0.064462
H205	H	0.841432	-0.295014	-0.472765
H206	H	1.174765	0.038319	-0.139432
H207	H	1.508098	0.371653	0.193901
H208	H	1.050537	-0.481909	-0.682578
H209	H	1.383871	-0.148576	-0.349244
H210	H	1.717204	0.184757	-0.015911
O211	O	1.298036	-0.229609	-0.795602
O212	O	1.631370	0.103724	-0.462268
O213	O	1.964703	0.437057	-0.128935
H214	H	1.338229	-0.265711	-0.757987
H215	H	1.671562	0.067622	-0.424654
H216	H	2.004895	0.400956	-0.091321
H217	H	1.000041	-0.533402	-0.956146
H218	H	1.333375	-0.200069	-0.622813
H219	H	1.666708	0.133265	-0.289480
H220	H	1.234062	-0.294831	-0.682659
H221	H	1.567395	0.038502	-0.349325
H222	H	1.900728	0.371835	-0.015992
H223	H	0.567656	-0.533419	-0.238426
H224	H	0.900990	-0.200086	0.094907
H225	H	1.234323	0.133248	0.428241
H226	H	0.717644	-0.243523	-0.523444
H227	H	1.050978	0.089811	-0.190111
H228	H	1.384311	0.423144	0.143222
H229	H	0.443871	-0.481935	-0.289097
H230	H	0.777204	-0.148602	0.044236
H231	H	1.110537	0.184732	0.377569
O232	O	0.433130	-0.281449	-0.486235
O233	O	0.766463	0.051885	-0.152901
O234	O	1.099797	0.385218	0.180432
H235	H	0.368788	-0.290105	-0.477737
H236	H	0.702121	0.043229	-0.144404
H237	H	1.035454	0.376562	0.188930
O238	O	1.037274	-0.495440	-1.090888
O239	O	1.370607	-0.162107	-0.757554
O240	O	1.703941	0.171226	-0.424221
H241	H	1.045784	-0.486767	-1.155228
H242	H	1.379117	-0.153433	-0.821894
H243	H	1.712450	0.179900	-0.488561
O244	O	1.298045	-0.229549	-0.967177
O245	O	1.631379	0.103785	-0.633844
O246	O	1.964712	0.437118	-0.300511
H247	H	1.289545	-0.238178	-1.031509
H248	H	1.622878	0.095155	-0.698176
H249	H	1.956212	0.428489	-0.364842
