data_functionalizedCrystal
_audit_creation_method	'MofGen! by Chris Wilmer'
_symmetry_space_group_name_H-M	'P1'
_symmetry_Int_Tables_number	1
_symmetry_cell_setting	triclinic
loop_
_symmetry_equiv_pos_as_xyz
  x,y,z
_cell_length_a	13.032831
_cell_length_b	19.120786
_cell_length_c	13.032268
_cell_angle_alpha	85.590044
_cell_angle_beta	89.113023
_cell_angle_gamma	84.950973
loop_
_atom_site_label
_atom_site_type_symbol
_atom_site_fract_x
_atom_site_fract_y
_atom_site_fract_z
Zn1	Zn	1.472803	-0.469331	0.747724
Zn2	Zn	1.972803	0.030669	1.247724
Zn3	Zn	1.488880	-0.572874	0.568439
Zn4	Zn	1.988880	-0.072874	1.068439
Zn5	Zn	1.324249	-0.440300	0.556013
Zn6	Zn	1.824249	0.059700	1.056013
Zn7	Zn	1.295334	-0.569116	0.718829
Zn8	Zn	1.795334	-0.069116	1.218829
O9	O	1.395317	-0.512905	0.647751
O10	O	1.895317	-0.012905	1.147751
O11	O	1.618105	-0.496789	0.741234
O12	O	2.118105	0.003211	1.241234
O13	O	1.485871	-0.544710	0.423620
O14	O	1.985871	-0.044710	0.923620
O15	O	1.349328	-0.346908	0.588336
O16	O	1.849328	0.153092	1.088336
O17	O	1.629917	-0.572861	0.609514
O18	O	2.129917	-0.072861	1.109514
O19	O	1.458469	-0.368237	0.729185
O20	O	1.958469	0.131763	1.229185
O21	O	1.364918	-0.447309	0.414491
O22	O	1.864918	0.052691	0.914491
O23	O	1.177244	-0.443665	0.560318
O24	O	1.677244	0.056335	1.060318
O25	O	1.300046	-0.566457	0.865833
O26	O	1.800046	-0.066457	1.365833
O27	O	1.156000	-0.538306	0.679938
O28	O	1.656000	-0.038306	1.179938
O29	O	1.430431	-0.493145	0.887061
O30	O	1.930431	0.006855	1.387061
O31	O	1.457833	-0.669618	0.581496
O32	O	1.957833	-0.169618	1.081496
O33	O	1.315636	-0.666858	0.691987
O34	O	1.815636	-0.166858	1.191987
C35	C	1.129499	-0.487428	0.615645
C36	C	1.629499	0.012572	1.115645
C37	C	1.015777	-0.476548	0.601933
C38	C	1.515777	0.023452	1.101933
C39	C	0.954602	-0.518584	0.654907
C40	C	1.454602	-0.018584	1.154907
C41	C	0.837064	-0.507340	0.640737
C42	C	1.337064	-0.007340	1.140737
C43	C	1.385366	-0.693457	0.634980
C44	C	1.885366	-0.193457	1.134980
C45	C	1.381199	-0.770709	0.629562
C46	C	1.881199	-0.270709	1.129562
C47	C	1.436009	-0.818046	0.700397
C48	C	1.936009	-0.318046	1.200397
C49	C	1.432088	-0.890632	0.695308
C50	C	1.932088	-0.390632	1.195308
C51	C	1.373363	-0.915880	0.619378
C52	C	1.873363	-0.415880	1.119378
C53	C	1.318546	-0.868537	0.548540
C54	C	1.818546	-0.368537	1.048540
C55	C	1.322461	-0.795952	0.553635
C56	C	1.822461	-0.295952	1.053635
C57	C	1.358696	-1.134487	0.600329
C58	C	1.858696	-0.634487	1.100329
C59	C	1.354788	-1.207078	0.595237
C60	C	1.854788	-0.707078	1.095237
C61	C	1.468329	-1.229168	0.742006
C62	C	1.968329	-0.729168	1.242006
C63	C	1.472244	-1.156581	0.747090
C64	C	1.972244	-0.656581	1.247090
C65	C	1.417423	-1.109244	0.676256
C66	C	1.917423	-0.609244	1.176256
C67	C	1.369357	-0.990074	0.614172
C68	C	1.869357	-0.490074	1.114172
C69	C	1.421424	-1.035051	0.681467
C70	C	1.921424	-0.535051	1.181467
C71	C	1.662172	-0.538482	0.679983
C72	C	2.162172	-0.038482	1.179983
C73	C	1.775889	-0.549382	0.693719
C74	C	2.275889	-0.049382	1.193719
C75	C	1.360220	-0.532620	0.914607
C76	C	1.860220	-0.032620	1.414607
C77	C	1.345264	-0.541022	1.028326
C78	C	1.845264	-0.041022	1.528326
C79	C	1.405331	-0.331653	0.660597
C80	C	1.905331	0.168347	1.160597
C81	C	1.409598	-0.254415	0.666072
C82	C	1.909598	0.245585	1.166072
C83	C	1.430339	-0.493223	0.381944
C84	C	1.930339	0.006777	0.881944
C85	C	1.445504	-0.484644	0.268264
C86	C	1.945504	0.015356	0.768264
C87	C	1.403108	-0.508494	1.089528
C88	C	1.903108	-0.008494	1.589528
C89	C	1.387651	-0.517177	1.207062
C90	C	1.887651	-0.017177	1.707062
H91	H	0.810525	-0.593695	0.749574
H92	H	1.310525	-0.093695	1.249574
H93	H	0.802426	-0.463020	0.584893
H94	H	1.302426	0.036980	1.084893
C95	C	1.305284	-0.563484	1.253805
C96	C	1.805284	-0.063484	1.753805
H97	H	1.270992	-0.582761	1.200165
H98	H	1.770992	-0.082761	1.700165
H99	H	1.337302	-0.600569	1.298082
H100	H	1.837302	-0.100569	1.798082
H101	H	1.256728	-0.535680	1.291994
H102	H	1.756728	-0.035680	1.791994
H103	H	0.981135	-0.432232	0.546093
H104	H	1.481135	0.067768	1.046093
H105	H	1.483834	-0.797495	0.762223
H106	H	1.983834	-0.297495	1.262223
H107	H	1.506468	-0.450362	1.233654
H108	H	2.006468	0.049638	1.733654
C109	C	1.290192	-1.234852	0.511711
C110	C	1.790192	-0.734852	1.011711
H111	H	1.295726	-1.284861	0.518816
H112	H	1.795726	-0.784861	1.018816
H113	H	1.220113	-1.217515	0.519151
H114	H	1.720113	-0.717515	1.019151
H115	H	1.314909	-1.219324	0.445629
H116	H	1.814909	-0.719324	0.945629
H117	H	1.476730	-0.929172	0.752982
H118	H	1.976730	-0.429172	1.252982
H119	H	0.989243	-0.562896	0.710756
H120	H	1.489243	-0.062896	1.210756
H121	H	1.520063	-1.136026	0.808918
H122	H	2.020063	-0.636026	1.308918
C123	C	1.528616	-1.281238	0.819925
C124	C	2.028616	-0.781238	1.319925
H125	H	1.517869	-1.328083	0.806025
H126	H	2.017869	-0.828083	1.306025
H127	H	1.599976	-1.274791	0.814155
H128	H	2.099976	-0.774791	1.314155
H129	H	1.505178	-1.272970	0.887675
H130	H	2.005178	-0.772970	1.387675
H131	H	1.314061	-1.095951	0.542651
H132	H	1.814061	-0.595951	1.042651
H133	H	1.270726	-0.889099	0.486721
H134	H	1.770726	-0.389099	0.986721
H135	H	1.284292	-0.575292	1.062941
H136	H	1.784292	-0.075292	1.562941
C137	C	1.262171	-0.743881	0.475716
C138	C	1.762171	-0.243881	0.975716
H139	H	1.226642	-0.769312	0.429760
H140	H	1.726642	-0.269312	0.929760
H141	H	1.213947	-0.714199	0.511417
H142	H	1.713947	-0.214199	1.011417
H143	H	1.308736	-0.716015	0.437886
H144	H	1.808736	-0.216015	0.937886
H145	H	1.469234	-1.014492	0.743292
H146	H	1.969234	-0.514492	1.243292
H147	H	1.321546	-1.010639	0.552348
H148	H	1.821546	-0.510639	1.052348
H149	H	1.464070	-0.474215	1.054912
H150	H	1.964070	0.025785	1.554912
