data_functionalizedCrystal
_audit_creation_method	'MofGen! by Chris Wilmer'
_symmetry_space_group_name_H-M	'P1'
_symmetry_Int_Tables_number	1
_symmetry_cell_setting	triclinic
loop_
_symmetry_equiv_pos_as_xyz
  x,y,z
_cell_length_a	15.995343
_cell_length_b	15.995350
_cell_length_c	15.072220
_cell_angle_alpha	90.008851
_cell_angle_beta	89.994148
_cell_angle_gamma	96.509220
loop_
_atom_site_label
_atom_site_type_symbol
_atom_site_fract_x
_atom_site_fract_y
_atom_site_fract_z
O1	O	0.107921	-1.110993	-0.073717
O2	O	0.607921	-0.610993	0.426283
O3	O	0.121249	-0.867217	-0.073736
O4	O	0.621249	-0.367217	0.426264
O5	O	-0.007303	-0.995772	-0.073709
O6	O	0.492697	-0.495772	0.426291
O7	O	0.236473	-0.982438	-0.073743
O8	O	0.736473	-0.482438	0.426257
O9	O	-0.007296	-0.995740	0.073856
O10	O	0.492704	-0.495740	0.573856
O11	O	0.121256	-0.867185	0.073829
O12	O	0.621256	-0.367185	0.573829
O13	O	0.107929	-1.110961	0.073848
O14	O	0.607929	-0.610961	0.573848
Zn15	Zn	0.114593	-0.989068	0.097268
Zn16	Zn	0.614593	-0.489068	0.597268
Zn17	Zn	0.114584	-0.989110	-0.097156
Zn18	Zn	0.614584	-0.489110	0.402844
O19	O	0.236480	-0.982406	0.073822
O20	O	0.736480	-0.482406	0.573822
C21	C	0.120702	-0.836007	0.000044
C22	C	0.620702	-0.336007	0.500044
C23	C	0.119050	-0.743056	0.000037
C24	C	0.619050	-0.243056	0.500037
C25	C	-0.038494	-0.995206	0.000075
C26	C	0.461506	-0.495206	0.500075
C27	C	-0.131445	-0.993557	0.000082
C28	C	0.368555	-0.493557	0.500082
N29	N	0.114599	-0.989046	0.229957
N30	N	0.614599	-0.489046	0.729957
C31	C	-0.301631	-0.990563	0.000062
C32	C	0.198369	-0.490563	0.500062
C33	C	-0.324977	-0.897766	0.000052
C34	C	0.175023	-0.397766	0.500052
C35	C	-0.421655	-0.896021	-0.000293
C36	C	0.078345	-0.396021	0.499707
C37	C	-0.469191	-0.987615	0.000043
C38	C	0.030809	-0.487615	0.500043
C39	C	-0.440096	-1.034293	-0.084051
C40	C	0.059904	-0.534293	0.415949
C41	C	-0.343304	-1.035394	-0.084112
C42	C	0.156696	-0.535394	0.415888
C43	C	-0.343400	-1.036716	0.083703
C44	C	0.156600	-0.536716	0.583703
C45	C	-0.439895	-1.033290	0.084799
C46	C	0.060105	-0.533290	0.584799
C47	C	-0.563889	-0.985953	0.000029
C48	C	-0.063889	-0.485953	0.500029
C49	C	-0.206933	-0.992228	0.000070
C50	C	0.293067	-0.492228	0.500070
C51	C	0.267672	-0.982972	0.000035
C52	C	0.767672	-0.482972	0.500035
C53	C	0.360622	-0.984621	0.000022
C54	C	0.860622	-0.484621	0.500022
C55	C	0.108476	-1.142172	0.000066
C56	C	0.608476	-0.642172	0.500066
C57	C	0.110128	-1.235122	0.000067
C58	C	0.610128	-0.735122	0.500067
C59	C	0.113118	-0.405309	0.000057
C60	C	0.613118	0.094691	0.500057
C61	C	0.021565	-0.452745	0.000399
C62	C	0.521565	0.047255	0.500399
C63	C	0.023217	-0.549436	0.000060
C64	C	0.523217	-0.049436	0.500060
C65	C	0.116060	-0.572869	0.000048
C66	C	0.616060	-0.072869	0.500048
C67	C	0.161213	-0.531799	-0.084222
C68	C	0.661213	-0.031799	0.415778
C69	C	0.158913	-0.435163	-0.084286
C70	C	0.658913	0.064837	0.415714
C71	C	0.160812	-0.434788	0.083523
C72	C	0.660812	0.065212	0.583523
C73	C	0.160791	-0.531734	0.084630
C74	C	0.660791	-0.031734	0.584630
C75	C	0.117728	-0.667567	0.000040
C76	C	0.617728	-0.167567	0.500040
C77	C	0.111452	-0.310611	0.000059
C78	C	0.611452	0.189389	0.500059
N79	N	0.114572	-0.989139	-0.229844
N80	N	0.614572	-0.489139	0.270156
C81	C	0.114581	-0.989108	0.589158
C82	C	0.614581	-0.489108	1.089158
C83	C	0.183136	-0.920090	0.551537
C84	C	0.683136	-0.420090	1.051537
C85	C	0.183386	-0.920248	0.448711
C86	C	0.683386	-0.420248	0.948711
C87	C	0.114590	-0.989077	0.410954
C88	C	0.614590	-0.489077	0.910954
C89	C	0.133672	-1.076441	0.448249
C90	C	0.633672	-0.576441	0.948249
C91	C	0.134159	-1.076054	0.551107
C92	C	0.634159	-0.576054	1.051107
C93	C	0.026741	-0.971541	0.551269
C94	C	0.526741	-0.471541	1.051269
C95	C	0.027327	-0.969537	0.448405
C96	C	0.527327	-0.469537	0.948405
C97	C	0.114594	-0.989064	0.310241
C98	C	0.614594	-0.489064	0.810241
C99	C	0.114579	-0.989127	0.689871
C100	C	0.614579	-0.489127	1.189871
H101	H	-0.440676	-0.859475	0.059972
H102	H	0.059324	-0.359475	0.559972
H103	H	-0.012275	-0.577853	0.060468
H104	H	0.487725	-0.077853	0.560468
F105	F	0.121693	-0.407934	0.167011
F106	F	0.621693	0.092066	0.667011
F107	F	-0.026264	-0.428516	0.079390
F108	F	0.473736	0.071484	0.579390
F109	F	-0.042479	-1.030980	0.414826
F110	F	0.457521	-0.530980	0.914826
F111	F	0.216449	-1.097161	0.414559
F112	F	0.716449	-0.597161	0.914559
H113	H	-0.024275	-1.021873	0.575598
H114	H	0.475725	-0.521873	1.075598
H115	H	0.008392	-0.909219	0.577257
H116	H	0.508392	-0.409219	1.077257
H117	H	-0.315132	-1.007425	0.147467
H118	H	0.184868	-0.507425	0.647467
H119	H	0.127830	-0.559038	0.146973
H120	H	0.627830	-0.059038	0.646973
H121	H	0.226129	-0.402914	-0.088119
H122	H	0.726129	0.097086	0.411881
H123	H	0.171954	-0.854941	0.576295
H124	H	0.671954	-0.354941	1.076295
F125	F	0.115866	-0.411249	-0.166611
F126	F	0.615866	0.088751	0.333389
H127	H	0.248570	-0.931466	0.424089
H128	H	0.748570	-0.431466	0.924089
H129	H	0.172017	-0.855309	0.423497
H130	H	0.672017	-0.355309	0.923497
F131	F	0.250360	-0.550279	-0.088346
F132	F	0.750360	-0.050279	0.411654
H133	H	0.129846	-0.560188	-0.146929
H134	H	0.629846	-0.060188	0.353071
F135	F	0.249288	-0.551808	0.091271
F136	F	0.749288	-0.051808	0.591271
H137	H	0.228313	-0.403025	0.084084
H138	H	0.728313	0.096975	0.584084
H139	H	0.086196	-1.129016	0.575992
H140	H	0.586196	-0.629016	1.075992
F141	F	0.267860	-0.934557	0.585284
F142	F	0.767860	-0.434557	1.085284
F143	F	0.217891	-1.096288	0.582445
F144	F	0.717891	-0.596288	1.082445
H145	H	-0.460184	-1.002291	-0.146879
H146	H	0.039816	-0.502291	0.353121
H147	H	0.085068	-1.129026	0.423790
H148	H	0.585068	-0.629026	0.923790
F149	F	-0.464154	-0.988861	0.166119
F150	F	0.035846	-0.488861	0.666119
H151	H	0.012846	-0.905271	0.424030
H152	H	0.512846	-0.405271	0.924030
H153	H	-0.328730	-1.103445	-0.087691
H154	H	0.171270	-0.603445	0.412309
H155	H	-0.296971	-0.861784	0.060349
H156	H	0.203029	-0.361784	0.560349
H157	H	-0.440090	-0.859683	-0.060937
H158	H	0.059910	-0.359683	0.439063
F159	F	-0.287092	-0.851533	-0.078660
F160	F	0.212908	-0.351533	0.421340
F161	F	-0.325082	-1.125993	0.084775
F162	F	0.174918	-0.625993	0.584775
F163	F	-0.481719	-1.122405	-0.087827
F164	F	0.018281	-0.622405	0.412173
F165	F	-0.308287	-0.993669	-0.166596
F166	F	0.191713	-0.493669	0.333404
H167	H	-0.472843	-1.100125	0.090135
H168	H	0.027157	-0.600125	0.590135
H169	H	-0.014865	-0.433166	-0.059692
H170	H	0.485135	0.066834	0.440308
F171	F	-0.023306	-0.585845	-0.079149
F172	F	0.476694	-0.085845	0.420851
