data_functionalizedCrystal
_audit_creation_method	'MofGen! by Chris Wilmer'
_symmetry_space_group_name_H-M	'P1'
_symmetry_Int_Tables_number	1
_symmetry_cell_setting	triclinic
loop_
_symmetry_equiv_pos_as_xyz
  x,y,z
_cell_length_a	16.625547
_cell_length_b	21.295417
_cell_length_c	21.295411
_cell_angle_alpha	89.971282
_cell_angle_beta	89.979339
_cell_angle_gamma	90.030443
loop_
_atom_site_label
_atom_site_type_symbol
_atom_site_fract_x
_atom_site_fract_y
_atom_site_fract_z
Zn1	Zn	1.232602	-0.250638	-0.355982
Zn2	Zn	1.732602	0.249362	0.144018
Zn3	Zn	1.232496	-0.355903	-0.250708
Zn4	Zn	1.732496	0.144097	0.249292
Zn5	Zn	1.097774	-0.250651	-0.250719
Zn6	Zn	1.597774	0.249349	0.249281
Zn7	Zn	1.097716	-0.355873	-0.355932
Zn8	Zn	1.597716	0.144127	0.144068
O9	O	1.165147	-0.303266	-0.303335
O10	O	1.665147	0.196734	0.196665
O11	O	1.345421	-0.264608	-0.342034
O12	O	1.845421	0.235392	0.157966
O13	O	1.214605	-0.341959	-0.162620
O14	O	1.714605	0.158041	0.337380
O15	O	1.115728	-0.162560	-0.264709
O16	O	1.615728	0.337440	0.235291
O17	O	1.345343	-0.341946	-0.264689
O18	O	1.845343	0.158054	0.235311
O19	O	1.214786	-0.162550	-0.342045
O20	O	1.714786	0.337450	0.157955
O21	O	1.115625	-0.264631	-0.162628
O22	O	1.615625	0.235369	0.337372
O23	O	0.984934	-0.264602	-0.264660
O24	O	1.484934	0.235398	0.235340
O25	O	1.115629	-0.341896	-0.444028
O26	O	1.615629	0.158104	0.055972
O27	O	0.984891	-0.341908	-0.341959
O28	O	1.484891	0.158092	0.158041
O29	O	1.214729	-0.264580	-0.444065
O30	O	1.714729	0.235420	0.055935
O31	O	1.214549	-0.443988	-0.264640
O32	O	1.714549	0.056012	0.235360
O33	O	1.115526	-0.443967	-0.341947
O34	O	1.615526	0.056033	0.158053
C35	C	0.955656	-0.303254	-0.303305
C36	C	1.455656	0.196746	0.196695
C37	C	0.866035	-0.303264	-0.303308
C38	C	1.366035	0.196736	0.196692
C39	C	0.793253	-0.303265	-0.303315
C40	C	1.293253	0.196735	0.196685
C41	C	0.701944	-0.303269	-0.303331
C42	C	1.201944	0.196731	0.196669
C43	C	0.629168	-0.303274	-0.303347
C44	C	1.129168	0.196726	0.196653
C45	C	0.537854	-0.303279	-0.303362
C46	C	1.037854	0.196721	0.196638
C47	C	1.165041	-0.466818	-0.303300
C48	C	1.665041	0.033182	0.196700
C49	C	1.165070	-0.536786	-0.303306
C50	C	1.665070	-0.036786	0.196694
C51	C	1.216677	-0.569643	-0.263094
C52	C	1.716677	-0.069643	0.236906
C53	C	1.216715	-0.635386	-0.263108
C54	C	1.716715	-0.135386	0.236892
C55	C	1.165131	-0.668269	-0.303328
C56	C	1.665131	-0.168269	0.196672
C57	C	1.113520	-0.635404	-0.343549
C58	C	1.613520	-0.135404	0.156451
C59	C	1.113490	-0.569662	-0.343538
C60	C	1.613490	-0.069662	0.156462
N61	N	1.094596	-0.771535	-0.308117
N62	N	1.594596	-0.271535	0.191883
N63	N	1.094627	-0.833986	-0.308124
N64	N	1.594627	-0.333986	0.191876
C65	C	1.165221	-0.866343	-0.303364
C66	C	1.665221	-0.366343	0.196636
N67	N	1.235785	-0.833890	-0.298586
N68	N	1.735785	-0.333890	0.201414
N69	N	1.235753	-0.771433	-0.298576
N70	N	1.735753	-0.271433	0.201424
C71	C	1.165159	-0.739554	-0.303345
C72	C	1.665159	-0.239554	0.196655
C73	C	1.216874	-0.970486	-0.263165
C74	C	1.716874	-0.470486	0.236835
C75	C	1.216913	-1.036230	-0.263183
C76	C	1.716913	-0.536230	0.236817
C77	C	1.113711	-1.036246	-0.343621
C78	C	1.613711	-0.536246	0.156379
C79	C	1.113680	-0.970504	-0.343606
C80	C	1.613680	-0.470504	0.156394
C81	C	1.165260	-0.937628	-0.303374
C82	C	1.665260	-0.437628	0.196626
C83	C	1.375456	-0.303279	-0.303365
C84	C	1.875456	0.196721	0.196635
C85	C	1.465077	-0.303285	-0.303378
C86	C	1.965077	0.196715	0.196622
C87	C	1.165184	-0.303233	-0.467526
C88	C	1.665184	0.196767	0.032474
C89	C	1.165200	-0.303219	-0.537494
C90	C	1.665200	0.196781	-0.037494
C91	C	1.165275	-0.139076	-0.303384
C92	C	1.665275	0.360924	0.196616
C93	C	1.165330	-0.069108	-0.303405
C94	C	1.665330	0.430892	0.196595
C95	C	1.216829	-0.343353	-1.036948
C96	C	1.716829	0.156647	-0.536948
C97	C	1.216814	-0.343373	-0.971205
C98	C	1.716814	0.156627	-0.471205
C99	C	1.165276	-0.303120	-0.938333
C100	C	1.665276	0.196880	-0.438333
C101	C	1.113734	-0.262856	-0.971209
C102	C	1.613734	0.237144	-0.471209
C103	C	1.113745	-0.262842	-1.036951
C104	C	1.613745	0.237158	-0.536951
N105	N	1.159117	-0.248041	-0.835128
N106	N	1.659117	0.251959	-0.335128
N107	N	1.159112	-0.248057	-0.772676
N108	N	1.659112	0.251943	-0.272676
C109	C	1.165241	-0.303163	-0.740259
C110	C	1.665241	0.196837	-0.240259
N111	N	1.171390	-0.358254	-0.772652
N112	N	1.671390	0.141746	-0.272652
N113	N	1.171400	-0.358238	-0.835109
N114	N	1.671400	0.141762	-0.335109
C115	C	1.165259	-0.303132	-0.867048
C116	C	1.665259	0.196868	-0.367048
C117	C	1.216760	-0.343449	-0.636105
C118	C	1.716760	0.156551	-0.136105
C119	C	1.216740	-0.343470	-0.570361
C120	C	1.716740	0.156530	-0.070361
C121	C	1.113664	-0.262949	-0.570366
C122	C	1.613664	0.237051	-0.070366
C123	C	1.113680	-0.262933	-0.636109
C124	C	1.613680	0.237067	-0.136109
C125	C	1.165232	-0.303182	-0.668974
C126	C	1.665232	0.196818	-0.168974
C127	C	1.165156	-0.303254	-0.139784
C128	C	1.665156	0.196746	0.360216
C129	C	1.165297	-0.303091	-0.069816
C130	C	1.665297	0.196909	0.430184
H131	H	1.258678	-0.542877	-0.230336
H132	H	1.758678	-0.042877	0.269664
H133	H	1.071771	-0.230083	-0.944441
H134	H	1.571771	0.269917	-0.444441
H135	H	1.071698	-0.230176	-0.543603
H136	H	1.571698	0.269824	-0.043603
H137	H	1.071715	-1.063019	-0.376372
H138	H	1.571715	-0.563019	0.123628
F139	F	1.271768	-0.935494	-0.220347
F140	F	1.771768	-0.435494	0.279653
F141	F	1.271643	-0.670362	-0.220306
F142	F	1.771643	-0.170362	0.279694
H143	H	1.071653	-0.943750	-0.376348
H144	H	1.571653	-0.443750	0.123652
F145	F	1.271625	-0.386286	-0.671085
F146	F	1.771625	0.113714	-0.171085
H147	H	1.071522	-0.662181	-0.376298
H148	H	1.571522	-0.162181	0.123702
F149	F	1.271663	-0.386227	-0.936218
F150	F	1.771663	0.113773	-0.436218
F151	F	1.058823	-0.220087	-0.671091
F152	F	1.558823	0.279913	-0.171091
H153	H	1.258805	-0.376129	-1.063703
H154	H	1.758805	0.123871	-0.563703
H155	H	1.071465	-0.542909	-0.376285
H156	H	1.571465	-0.042909	0.123715
F157	F	1.271849	-1.071198	-0.220385
F158	F	1.771849	-0.571198	0.279615
F159	F	1.271587	-0.386327	-0.535381
F160	F	1.771587	0.113673	-0.035381
F161	F	1.058890	-0.219992	-1.071932
F162	F	1.558890	0.280008	-0.571932
