data_functionalizedCrystal
_audit_creation_method	'MofGen! by Chris Wilmer'
_symmetry_space_group_name_H-M	'P1'
_symmetry_Int_Tables_number	1
_symmetry_cell_setting	triclinic
loop_
_symmetry_equiv_pos_as_xyz
  x,y,z
_cell_length_a	19.288864
_cell_length_b	19.288865
_cell_length_c	14.048226
_cell_angle_alpha	89.988335
_cell_angle_beta	89.979690
_cell_angle_gamma	83.136245
loop_
_atom_site_label
_atom_site_type_symbol
_atom_site_fract_x
_atom_site_fract_y
_atom_site_fract_z
O1	O	0.921350	0.086649	-0.079477
O2	O	0.719089	0.098338	-0.079413
O3	O	0.826064	-0.008637	-0.079428
O4	O	0.814375	0.193624	-0.079462
O5	O	0.826051	-0.008643	0.078893
O6	O	0.719077	0.098332	0.078908
O7	O	0.921337	0.086643	0.078845
Zn8	Zn	0.820205	0.092486	0.104013
Zn9	Zn	0.820222	0.092495	-0.104582
O10	O	0.814363	0.193618	0.078859
C11	C	0.693207	0.097959	-0.000244
C12	C	0.616103	0.096830	-0.000219
C13	C	0.825682	-0.034516	-0.000264
C14	C	0.824553	-0.111620	-0.000256
C15	C	0.571407	0.159598	-0.000244
C16	C	0.498960	0.158537	-0.000255
C17	C	0.471212	0.094705	-0.000259
C18	C	0.515918	0.031929	-0.000228
C19	C	0.588364	0.032991	-0.000208
C20	C	0.362955	0.044528	-0.055749
C21	C	0.290510	0.043468	-0.055775
C22	C	0.247767	0.091425	-0.000316
C23	C	0.277475	0.140454	0.055157
C24	C	0.349920	0.141516	0.055177
C25	C	0.392658	0.093546	-0.000280
C26	C	0.124514	0.153047	-0.000351
C27	C	0.052066	0.151984	-0.000356
C28	C	0.069026	0.025374	-0.000338
C29	C	0.141473	0.026439	-0.000324
C30	C	0.169212	0.090278	-0.000335
C31	C	0.887321	-0.156316	-0.000271
C32	C	0.886260	-0.228763	-0.000285
C33	C	0.822428	-0.256511	-0.000266
C34	C	0.759652	-0.211805	-0.000256
C35	C	0.760714	-0.139359	-0.000251
C36	C	0.772244	-0.364800	0.055206
C37	C	0.771184	-0.437245	0.055207
C38	C	0.819148	-0.479956	-0.000286
C39	C	0.868184	-0.450216	-0.055768
C40	C	0.869246	-0.377771	-0.055763
C41	C	0.821269	-0.335065	-0.000272
C42	C	0.880770	-0.603209	-0.000319
C43	C	0.879707	-0.675657	-0.000339
C44	C	0.753097	-0.658697	-0.000300
C45	C	0.754162	-0.586250	-0.000289
C46	C	0.818001	-0.558511	-0.000294
C47	C	0.947220	0.087022	-0.000327
C48	C	1.024324	0.088151	-0.000358
C49	C	0.814745	0.219497	-0.000306
C50	C	0.815874	0.296601	-0.000321
N51	N	0.820199	0.092480	0.246374
N52	N	0.820234	0.092495	-0.246942
C53	C	0.867582	0.045131	0.296186
C54	C	0.867586	0.045131	0.395843
C55	C	0.820211	0.092483	0.445688
C56	C	0.772822	0.139835	0.395869
C57	C	0.772815	0.139831	0.296213
C58	C	0.772842	0.139839	0.603583
C59	C	0.772851	0.139844	0.703246
C60	C	0.867614	0.045139	0.703213
C61	C	0.867606	0.045136	0.603557
C62	C	0.820219	0.092488	0.553746
H63	H	0.593987	0.211580	-0.000255
O64	O	0.949621	-0.573284	-0.000335
H65	H	0.953133	-0.540665	-0.064857
O66	O	0.690801	-0.241726	-0.000224
H67	H	0.700607	-0.299611	-0.000217
H68	H	0.906186	0.006581	0.562974
O69	O	0.918704	-0.005925	0.449572
H70	H	0.951656	-0.038842	0.398170
H71	H	0.906163	0.006574	0.255609
O72	O	0.918724	-0.005930	0.756944
H73	H	0.972836	0.002796	0.737787
O74	O	0.684248	-0.688615	-0.000281
H75	H	0.654091	-0.670652	0.064255
O76	O	0.450737	0.226238	-0.000292
H77	H	0.482198	0.270807	-0.000304
H78	H	0.493322	-0.020044	-0.000244
H79	H	0.709599	-0.102967	-0.000238
H80	H	0.937375	-0.265162	-0.000301
O81	O	0.721740	0.190901	0.757013
H82	H	0.688776	0.223816	0.705636
H83	H	0.907241	-0.484991	-0.100956
O84	O	0.922120	-0.345688	-0.115613
H85	H	0.955292	-0.387553	-0.154213
O86	O	0.956171	-0.126394	-0.000284
H87	H	0.959685	-0.093779	-0.064809
O88	O	0.721736	0.190914	0.549852
H89	H	0.688800	0.223848	0.601252
H90	H	0.930822	-0.712049	-0.000357
O91	O	0.686462	-0.538034	-0.000249
H92	H	0.641896	-0.569498	-0.000227
O93	O	0.721727	0.190915	0.449623
H94	H	0.688069	0.161769	0.495069
H95	H	0.624756	-0.018124	-0.000188
O96	O	0.721713	0.190903	0.242480
H97	H	0.688775	0.223836	0.293880
O98	O	0.718302	-0.469321	0.115050
H99	H	0.664832	-0.448231	0.092224
O100	O	0.381955	0.194376	0.115044
H101	H	0.360871	0.247858	0.092231
O102	O	0.231386	0.192182	0.114987
H103	H	0.176020	0.183203	0.105667
O104	O	0.720512	-0.318736	0.115072
H105	H	0.666631	-0.325448	0.092267
O106	O	0.154439	0.221898	-0.000341
H107	H	0.136488	0.252059	-0.064870
O108	O	0.003852	0.219686	-0.000380
H109	H	0.035315	0.264252	-0.000392
H110	H	0.177866	-0.024674	-0.000309
O111	O	0.039113	-0.043478	-0.000336
H112	H	0.006542	-0.046995	-0.064875
O113	O	0.258469	-0.009417	-0.115590
H114	H	0.300362	-0.042598	-0.154131
H115	H	0.397751	0.005474	-0.100916
