data_functionalizedCrystal
_audit_creation_method	'MofGen! by Chris Wilmer'
_symmetry_space_group_name_H-M	'P1'
_symmetry_Int_Tables_number	1
_symmetry_cell_setting	triclinic
loop_
_symmetry_equiv_pos_as_xyz
  x,y,z
_cell_length_a	25.639239
_cell_length_b	17.077404
_cell_length_c	17.077396
_cell_angle_alpha	89.980499
_cell_angle_beta	90.031074
_cell_angle_gamma	89.961089
loop_
_atom_site_label
_atom_site_type_symbol
_atom_site_fract_x
_atom_site_fract_y
_atom_site_fract_z
Zn1	Zn	-0.208148	-1.199968	0.443829
Zn2	Zn	0.291852	-0.699968	0.943829
Zn3	Zn	-0.295585	-1.199839	0.312557
Zn4	Zn	0.204415	-0.699839	0.812557
Zn5	Zn	-0.208166	-1.068700	0.312576
Zn6	Zn	0.291834	-0.568700	0.812576
Zn7	Zn	-0.295554	-1.068632	0.443780
Zn8	Zn	0.204446	-0.568632	0.943780
O9	O	-0.251863	-1.134285	0.378185
O10	O	0.248137	-0.634285	0.878185
O11	O	-0.219752	-1.309798	0.426427
O12	O	0.280248	-0.809798	0.926427
O13	O	-0.284010	-1.182418	0.202712
O14	O	0.215990	-0.682418	0.702712
O15	O	-0.134998	-1.086196	0.330016
O16	O	0.365002	-0.586196	0.830016
O17	O	-0.283992	-1.309703	0.329982
O18	O	0.216008	-0.809703	0.829982
O19	O	-0.134985	-1.182638	0.426446
O20	O	0.365015	-0.682638	0.926446
O21	O	-0.219783	-1.086071	0.202727
O22	O	0.280217	-0.586071	0.702727
O23	O	-0.219753	-0.958844	0.329969
O24	O	0.280247	-0.458844	0.829969
O25	O	-0.283939	-1.086080	0.553634
O26	O	0.216061	-0.586080	1.053634
O27	O	-0.283957	-0.958794	0.426364
O28	O	0.216043	-0.458794	0.926364
O29	O	-0.219722	-1.182572	0.553669
O30	O	0.280278	-0.682572	1.053669
O31	O	-0.368746	-1.182352	0.329935
O32	O	0.131254	-0.682352	0.829935
O33	O	-0.368724	-1.085954	0.426345
O34	O	0.131276	-0.585954	0.926345
C35	C	-0.251854	-0.930337	0.378164
C36	C	0.248146	-0.430337	0.878164
C37	C	-0.251862	-0.843087	0.378173
C38	C	0.248138	-0.343087	0.878173
C39	C	-0.387706	-1.134153	0.378150
C40	C	0.112294	-0.634153	0.878150
C41	C	-0.445820	-1.134168	0.378160
C42	C	0.054180	-0.634168	0.878160
C43	C	-0.251825	-1.134333	0.582930
C44	C	0.248175	-0.634333	1.082930
C45	C	-0.251808	-1.134353	0.670180
C46	C	0.248192	-0.634353	1.170180
C47	C	-0.806182	-1.184610	0.328071
C48	C	-0.306182	-0.684610	0.828071
C49	C	-0.860787	-1.184641	0.328081
C50	C	-0.360787	-0.684641	0.828081
O51	O	-0.889023	-1.227391	0.285454
O52	O	-0.389023	-0.727391	0.785454
N53	N	-0.888102	-1.134423	0.378237
N54	N	-0.388102	-0.634423	0.878237
C55	C	-0.860811	-1.084177	0.428392
C56	C	-0.360811	-0.584177	0.928392
O57	O	-0.889059	-1.041467	0.471056
O58	O	-0.389059	-0.541467	0.971056
C59	C	-0.806208	-1.084151	0.428385
C60	C	-0.306208	-0.584151	0.928385
C61	C	-0.778895	-1.134367	0.378220
C62	C	-0.278895	-0.634367	0.878220
C63	C	-0.778869	-1.234822	0.277910
C64	C	-0.278869	-0.734822	0.777910
C65	C	-0.724269	-1.234790	0.277899
C66	C	-0.224269	-0.734790	0.777899
C67	C	-0.696981	-1.184547	0.328048
C68	C	-0.196981	-0.684547	0.828048
C69	C	-0.724294	-1.134335	0.378209
C70	C	-0.224294	-0.634335	0.878209
C71	C	-0.778917	-1.033910	0.478543
C72	C	-0.278917	-0.533910	0.978543
C73	C	-0.724310	-1.033889	0.478532
C74	C	-0.224310	-0.533889	0.978532
C75	C	-0.696997	-1.084104	0.428367
C76	C	-0.196997	-0.584104	0.928367
C77	C	-0.642406	-1.084060	0.428346
C78	C	-0.142406	-0.584060	0.928346
N79	N	-0.615090	-1.134278	0.378190
N80	N	-0.115090	-0.634278	0.878190
C81	C	-0.642378	-1.184521	0.328041
C82	C	-0.142378	-0.684521	0.828041
C83	C	-0.975482	-1.084236	0.428404
C84	C	-0.475482	-0.584236	0.928404
C85	C	-1.030084	-1.084258	0.428408
C86	C	-0.530084	-0.584258	0.928408
C87	C	-1.030056	-1.184722	0.328098
C88	C	-0.530056	-0.684722	0.828098
C89	C	-0.975452	-1.184696	0.328091
C90	C	-0.475452	-0.684696	0.828091
C91	C	-0.948166	-1.134454	0.378248
C92	C	-0.448166	-0.634454	0.878248
C93	C	-0.527713	-1.184450	0.328020
C94	C	-0.027713	-0.684450	0.828020
C95	C	-0.473107	-1.184412	0.328011
C96	C	0.026893	-0.684412	0.828011
C97	C	-0.473140	-1.083951	0.428324
C98	C	0.026860	-0.583951	0.928324
C99	C	-0.527741	-1.083986	0.428331
C100	C	-0.027741	-0.583986	0.928331
C101	C	-0.555026	-1.134242	0.378176
C102	C	-0.055026	-0.634242	0.878176
O103	O	-0.614135	-1.041334	0.470954
O104	O	-0.114135	-0.541334	0.970954
O105	O	-0.614123	-1.227232	0.285392
O106	O	-0.114123	-0.727232	0.785392
C107	C	-0.115490	-1.134439	0.378239
C108	C	0.384510	-0.634439	0.878239
C109	C	-0.057376	-1.134505	0.378261
C110	C	0.442624	-0.634505	0.878261
C111	C	-0.251873	-1.339029	0.378208
C112	C	0.248127	-0.839029	0.878208
C113	C	-0.251877	-1.426279	0.378217
C114	C	0.248123	-0.926279	0.878217
C115	C	-0.285344	-0.802092	0.428285
C116	C	0.214656	-0.302092	0.928285
C117	C	-0.285345	-0.720111	0.428298
C118	C	0.214655	-0.220111	0.928298
C119	C	-0.251867	-0.679128	0.378194
C120	C	0.248133	-0.179128	0.878194
C121	C	-0.218382	-0.720129	0.328079
C122	C	0.281618	-0.220129	0.828079
C123	C	-0.218378	-0.802108	0.328071
C124	C	0.281622	-0.302108	0.828071
C125	C	-0.218392	-0.549259	0.328098
C126	C	0.281608	-0.049259	0.828098
C127	C	-0.218396	-0.467275	0.328105
C128	C	0.281604	0.032725	0.828105
C129	C	-0.285358	-0.467262	0.428325
C130	C	0.214642	0.032738	0.928325
C131	C	-0.285355	-0.549241	0.428317
C132	C	0.214645	-0.049241	0.928317
C133	C	-0.251871	-0.590237	0.378201
C134	C	0.248129	-0.090237	0.878201
C135	C	-0.251864	-1.134283	0.174238
C136	C	0.248136	-0.634283	0.674238
C137	C	-0.251733	-1.134415	0.086988
C138	C	0.248267	-0.634415	0.586988
C139	C	-0.218368	-1.184598	0.711190
C140	C	0.281632	-0.684598	1.211190
C141	C	-0.218350	-1.184608	0.793170
C142	C	0.281650	-0.684608	1.293170
C143	C	-0.251777	-1.134375	0.834139
C144	C	0.248223	-0.634375	1.334139
C145	C	-0.285219	-1.084124	0.793123
C146	C	0.214781	-0.584124	1.293123
C147	C	-0.285233	-1.084111	0.711144
C148	C	0.214767	-0.584111	1.211144
C149	C	-0.285187	-1.084156	0.963994
C150	C	0.214813	-0.584156	1.463994
C151	C	-0.285174	-1.084169	1.045978
C152	C	0.214826	-0.584169	1.545978
C153	C	-0.218304	-1.184652	1.046019
C154	C	0.281696	-0.684652	1.546019
C155	C	-0.218319	-1.184639	0.964040
C156	C	0.281681	-0.684639	1.464040
C157	C	-0.251762	-1.134389	0.923030
C158	C	0.248238	-0.634389	1.423030
H159	H	-0.450871	-1.225303	0.287158
H160	H	0.049129	-0.725303	0.787158
H161	H	-0.191073	-1.225566	1.079414
H162	H	0.308927	-0.725566	1.579414
Cl163	Cl	-0.438826	-1.020795	0.491369
Cl164	Cl	0.061174	-0.520795	0.991369
H165	H	-0.191121	-0.686754	0.287287
H166	H	0.308879	-0.186754	0.787287
Cl167	Cl	-0.176346	-1.247755	0.659694
Cl168	Cl	0.323654	-0.747755	1.159694
H169	H	-1.052283	-1.225636	0.287266
H170	H	-0.552283	-0.725636	0.787266
Cl171	Cl	-0.327273	-1.020941	0.659589
Cl172	Cl	0.172727	-0.520941	1.159589
Cl173	Cl	-0.562005	-1.247629	0.264967
Cl174	Cl	-0.062005	-0.747629	0.764967
Cl175	Cl	-0.176332	-1.247811	0.844722
Cl176	Cl	0.323668	-0.747811	1.344722
Cl177	Cl	-0.176300	-1.247794	0.912537
Cl178	Cl	0.323700	-0.747794	1.412537
H179	H	-0.801081	-1.275740	0.237072
H180	H	-0.301081	-0.775740	0.737072
Cl181	Cl	-0.327190	-1.021010	1.097481
Cl182	Cl	0.172810	-0.521010	1.597481
H183	H	-0.702034	-1.275682	0.237052
H184	H	-0.202034	-0.775682	0.737052
H185	H	-0.312607	-0.835454	0.469084
H186	H	0.187393	-0.335454	0.969084
Cl187	Cl	-0.327446	-0.415725	0.491338
Cl188	Cl	0.172554	0.084275	0.991338
Cl189	Cl	-0.690011	-0.970724	0.541592
Cl190	Cl	-0.190011	-0.470724	1.041592
H191	H	-0.191129	-0.433908	0.287315
H192	H	0.308871	0.066092	0.787315
Cl193	Cl	-0.327230	-1.020982	0.912439
Cl194	Cl	0.172770	-0.520982	1.412439
Cl195	Cl	-0.327239	-1.020971	0.844628
Cl196	Cl	0.172761	-0.520971	1.344628
Cl197	Cl	-0.176297	-0.600796	0.265094
Cl198	Cl	0.323703	-0.100796	0.765094
H199	H	-0.953217	-1.225586	0.287242
H200	H	-0.453217	-0.725586	0.787242
Cl201	Cl	-0.327438	-0.668577	0.491299
Cl202	Cl	0.172562	-0.168577	0.991299
Cl203	Cl	-1.064413	-1.021118	0.491466
Cl204	Cl	-0.564413	-0.521118	0.991466
H205	H	-0.953267	-1.043317	0.469246
H206	H	-0.453267	-0.543317	0.969246
H207	H	-0.801146	-0.993016	0.519390
H208	H	-0.301146	-0.493016	1.019390
Cl209	Cl	-0.176285	-0.853646	0.265072
Cl210	Cl	0.323715	-0.353646	0.765072
H211	H	-0.549980	-1.043099	0.469182
H212	H	-0.049980	-0.543099	0.969182
H213	H	-0.312619	-0.582607	0.469112
H214	H	0.187381	-0.082607	0.969112
