data_functionalizedCrystal
_audit_creation_method	'MofGen! by Chris Wilmer'
_symmetry_space_group_name_H-M	'P1'
_symmetry_Int_Tables_number	1
_symmetry_cell_setting	triclinic
loop_
_symmetry_equiv_pos_as_xyz
  x,y,z
_cell_length_a	16.992694
_cell_length_b	16.109301
_cell_length_c	14.586319
_cell_angle_alpha	90.005214
_cell_angle_beta	90.002127
_cell_angle_gamma	92.935148
loop_
_atom_site_label
_atom_site_type_symbol
_atom_site_fract_x
_atom_site_fract_y
_atom_site_fract_z
O1	O	1.040345	-0.176288	-0.076131
O2	O	1.373679	0.157045	0.257203
O3	O	1.707012	0.490379	0.590536
O4	O	0.812060	-0.174354	-0.076158
O5	O	1.145394	0.158979	0.257176
O6	O	1.478727	0.492313	0.590509
O7	O	0.932474	-0.054709	-0.076134
O8	O	1.265807	0.278625	0.257199
O9	O	1.599141	0.611958	0.590533
O10	O	0.919932	-0.295934	-0.076154
O11	O	1.253265	0.037400	0.257179
O12	O	1.586598	0.370733	0.590513
O13	O	0.932466	-0.054706	0.076347
O14	O	1.265799	0.278627	0.409680
O15	O	1.599132	0.611961	0.743014
O16	O	0.812052	-0.174352	0.076323
O17	O	1.145385	0.158982	0.409657
O18	O	1.478719	0.492315	0.742990
O19	O	1.040337	-0.176286	0.076350
O20	O	1.373670	0.157048	0.409684
O21	O	1.707004	0.490381	0.743017
Cu22	Cu	0.926194	-0.175318	0.090259
Cu23	Cu	1.259527	0.158015	0.423593
Cu24	Cu	1.592860	0.491348	0.756926
Cu25	Cu	0.926204	-0.175321	-0.090067
Cu26	Cu	1.259537	0.158012	0.243267
Cu27	Cu	1.592870	0.491345	0.576600
O28	O	0.919923	-0.295931	0.076327
O29	O	1.253257	0.037402	0.409660
O30	O	1.586590	0.370736	0.742993
C31	C	0.782844	-0.171865	0.000080
C32	C	1.116178	0.161469	0.333413
C33	C	1.449511	0.494802	0.666746
C34	C	0.695802	-0.164441	0.000070
C35	C	1.029135	0.168892	0.333403
C36	C	1.362469	0.502225	0.666736
C37	C	0.931962	-0.023699	0.000107
C38	C	1.265295	0.309635	0.333440
C39	C	1.598628	0.642968	0.666773
C40	C	0.930439	0.068698	0.000108
C41	C	1.263772	0.402032	0.333441
C42	C	1.597105	0.735365	0.666775
N43	N	0.926192	-0.175316	0.217091
N44	N	1.259526	0.158017	0.550425
N45	N	1.592859	0.491350	0.883758
C46	C	0.645543	-0.236067	0.000064
C47	C	0.978877	0.097266	0.333398
C48	C	1.312210	0.430599	0.666731
C49	C	0.563758	-0.229087	0.000078
C50	C	0.897092	0.104246	0.333411
C51	C	1.230425	0.437579	0.666744
C52	C	0.532234	-0.150481	0.000090
C53	C	0.865567	0.182853	0.333423
C54	C	1.198901	0.516186	0.666756
C55	C	0.582499	-0.078849	0.000098
C56	C	0.915833	0.254484	0.333431
C57	C	1.249166	0.587818	0.666764
C58	C	0.664282	-0.085830	0.000091
C59	C	0.997616	0.247503	0.333424
C60	C	1.330949	0.580837	0.666758
C61	C	0.288644	-0.121548	0.000116
C62	C	0.621977	0.211786	0.333450
C63	C	0.955310	0.545119	0.666783
C64	C	0.206854	-0.114572	0.000120
C65	C	0.540187	0.218761	0.333454
C66	C	0.873521	0.552094	0.666787
C67	C	0.188119	-0.264811	0.000102
C68	C	0.521452	0.068522	0.333435
C69	C	0.854785	0.401855	0.666769
C70	C	0.269904	-0.271785	0.000090
C71	C	0.603238	0.061548	0.333423
C72	C	0.936571	0.394881	0.666757
C73	C	0.320163	-0.200154	0.000103
C74	C	0.653496	0.133180	0.333436
C75	C	0.986829	0.466513	0.666769
N76	N	0.448637	-0.143344	0.000100
N77	N	0.781970	0.189989	0.333433
N78	N	1.115304	0.523323	0.666767
N79	N	0.403758	-0.207291	0.000099
N80	N	0.737091	0.126042	0.333432
N81	N	1.070425	0.459376	0.666765
C82	C	1.069553	-0.178775	0.000111
C83	C	1.402886	0.154558	0.333444
C84	C	1.736220	0.487892	0.666778
C85	C	1.156595	-0.186198	0.000115
C86	C	1.489929	0.147135	0.333448
C87	C	1.823262	0.480468	0.666782
C88	C	0.920435	-0.326941	0.000084
C89	C	1.253769	0.006392	0.333417
C90	C	1.587102	0.339726	0.666751
C91	C	0.921959	-0.419338	0.000077
C92	C	1.255292	-0.086005	0.333410
C93	C	1.588625	0.247329	0.666743
C94	C	0.998348	0.286439	0.000101
C95	C	1.331681	0.619773	0.333435
C96	C	1.665015	0.953106	0.666768
C97	C	0.996911	0.373256	0.000094
C98	C	1.330244	0.706589	0.333427
C99	C	1.663577	1.039922	0.666760
C100	C	0.854044	0.362915	0.000080
C101	C	1.187377	0.696248	0.333414
C102	C	1.520711	1.029581	0.666747
C103	C	0.855482	0.276100	0.000082
C104	C	1.188815	0.609433	0.333415
C105	C	1.522149	0.942767	0.666748
C106	C	0.927636	0.237865	0.000097
C107	C	1.260970	0.571198	0.333430
C108	C	1.594303	0.904531	0.666763
C109	C	0.924761	0.411496	0.000088
C110	C	1.258094	0.744829	0.333421
C111	C	1.591428	1.078162	0.666755
C112	C	0.923202	0.505626	0.000080
C113	C	1.256535	0.838959	0.333413
C114	C	1.589869	1.172292	0.666746
C115	C	0.929196	0.143729	0.000103
C116	C	1.262529	0.477062	0.333437
C117	C	1.595862	0.810395	0.666770
N118	N	0.926211	-0.175317	-0.216898
N119	N	1.259544	0.158016	0.116435
N120	N	1.592878	0.491349	0.449768
C121	C	0.979529	-0.122357	0.452108
C122	C	1.312863	0.210976	0.785441
C123	C	1.646196	0.544309	1.118775
C124	C	0.979531	-0.122355	0.548089
C125	C	1.312865	0.210978	0.881423
C126	C	1.646198	0.544311	1.214756
C127	C	0.872869	-0.228278	0.548078
C128	C	1.206202	0.105055	0.881411
C129	C	1.539535	0.438388	1.214745
C130	C	0.872863	-0.228276	0.452098
C131	C	1.206197	0.105058	0.785432
C132	C	1.539530	0.438391	1.118765
C133	C	0.926198	-0.175316	0.404116
C134	C	1.259531	0.158017	0.737449
C135	C	1.592865	0.491350	1.070783
C136	C	0.926206	-0.175317	0.596077
C137	C	1.259539	0.158016	0.929410
C138	C	1.592872	0.491349	1.262743
C139	C	0.926208	-0.175316	0.700144
C140	C	1.259541	0.158018	1.033477
C141	C	1.592874	0.491351	1.366811
C142	C	0.926195	-0.175316	0.300042
C143	C	1.259528	0.158017	0.633376
C144	C	1.592862	0.491350	0.966709
H145	H	0.671204	-0.300077	0.000054
H146	H	1.004537	0.033256	0.333387
H147	H	1.337870	0.366589	0.666721
H148	H	1.054491	0.412802	0.000096
H149	H	1.387825	0.746135	0.333429
H150	H	1.721158	1.079468	0.666762
H151	H	0.829431	-0.271401	0.413021
H152	H	1.162764	0.061932	0.746354
H153	H	1.496097	0.395266	1.079687
H154	H	0.522840	-0.287413	0.000072
H155	H	0.856174	0.045920	0.333406
H156	H	1.189507	0.379254	0.666739
F157	F	0.816110	-0.284641	0.599150
F158	F	1.149444	0.048692	0.932484
F159	F	1.482777	0.382025	1.265817
F160	F	1.036291	-0.065991	0.401045
F161	F	1.369624	0.267342	0.734379
F162	F	1.702958	0.600676	1.067712
F163	F	1.036292	-0.065988	0.599163
F164	F	1.369625	0.267345	0.932496
F165	F	1.702959	0.600679	1.265830
H166	H	0.295565	-0.335795	0.000070
H167	H	0.628898	-0.002462	0.333403
H168	H	0.962232	0.330872	0.666736
H169	H	0.329554	-0.063220	0.000128
H170	H	0.662888	0.270113	0.333461
H171	H	0.996221	0.603447	0.666794
F172	F	0.173306	-0.030904	0.000149
F173	F	0.506639	0.302429	0.333482
F174	F	0.839973	0.635762	0.666816
F175	F	0.134626	-0.341041	0.000090
F176	F	0.467959	-0.007708	0.333424
F177	F	0.801292	0.325626	0.666757
H178	H	0.556826	-0.014846	0.000120
H179	H	0.890159	0.318488	0.333454
H180	H	1.223492	0.651821	0.666787
F181	F	0.717772	-0.009595	0.000100
F182	F	1.051105	0.323738	0.333433
F183	F	1.384438	0.657071	0.666766
F184	F	1.075141	0.245749	0.000117
F185	F	1.408474	0.579083	0.333450
F186	F	1.741807	0.912416	0.666783
H187	H	0.797897	0.236549	0.000075
H188	H	1.131230	0.569882	0.333408
H189	H	1.464563	0.903215	0.666742
F190	F	0.777256	0.403615	0.000064
F191	F	1.110590	0.736948	0.333397
F192	F	1.443923	1.070282	0.666731
