data_functionalizedCrystal
_audit_creation_method	'MofGen! by Chris Wilmer'
_symmetry_space_group_name_H-M	'P1'
_symmetry_Int_Tables_number	1
_symmetry_cell_setting	triclinic
loop_
_symmetry_equiv_pos_as_xyz
  x,y,z
_cell_length_a	10.654550
_cell_length_b	10.723024
_cell_length_c	9.130313
_cell_angle_alpha	89.999893
_cell_angle_beta	89.996220
_cell_angle_gamma	84.476386
loop_
_atom_site_label
_atom_site_type_symbol
_atom_site_fract_x
_atom_site_fract_y
_atom_site_fract_z
O1	O	1.667808	0.175269	-0.121916
O2	O	1.302327	0.191968	-0.121892
O3	O	1.493498	0.002044	-0.121899
O4	O	1.476637	0.365194	-0.121909
O5	O	1.493495	0.002049	0.121700
O6	O	1.302324	0.191973	0.121707
O7	O	1.667805	0.175274	0.121683
Cu8	Cu	1.485065	0.183624	0.143937
Cu9	Cu	1.485067	0.183618	-0.144146
O10	O	1.476634	0.365199	0.121690
C11	C	1.255528	0.190745	-0.000089
C12	C	1.116085	0.187076	-0.000080
C13	C	1.036583	0.298901	-0.000105
C14	C	0.905562	0.295446	-0.000130
C15	C	0.933560	0.068333	-0.000113
C16	C	1.064578	0.071789	-0.000077
C17	C	1.020417	0.430023	-0.000121
C18	C	0.889397	0.426568	-0.000146
C19	C	1.492269	-0.044454	-0.000101
C20	C	1.488598	-0.183008	-0.000106
C21	C	1.595568	-0.257975	-0.000115
C22	C	1.591776	-0.401179	-0.000120
C23	C	1.714604	0.176498	-0.000123
C24	C	1.854047	0.180166	-0.000141
C25	C	1.477863	0.411696	-0.000111
C26	C	1.481534	0.550251	-0.000116
N27	N	1.485072	0.183628	0.346560
N28	N	1.485070	0.183605	-0.346769
C29	C	1.569744	0.099558	0.423209
C30	C	1.569741	0.099543	0.576546
C31	C	1.400389	0.267679	0.576571
C32	C	1.400387	0.267687	0.423237
C33	C	1.667522	0.002490	0.423195
C34	C	1.667519	0.002475	0.576532
H35	H	1.129305	-0.019270	-0.000036
F36	F	1.793661	0.030412	0.630926
F37	F	1.067021	0.484591	-0.137588
H38	H	1.049740	0.481307	0.101829
H39	H	1.394211	-0.224844	-0.000110
F40	F	0.829685	0.478368	0.137309
F41	F	0.834835	0.491138	-0.133405
H42	H	1.683350	-0.465598	-0.000121
F43	F	1.718943	-0.203299	-0.000132
H44	H	1.331440	0.336116	0.639019
F45	F	1.361830	-0.365560	-0.000095
F46	F	1.310254	0.357148	0.341663
H47	H	1.646094	-0.093428	0.381580
F48	F	1.786692	0.042229	0.361016
H49	H	1.637019	-0.088166	0.624084
H50	H	0.891606	-0.025530	-0.000132
