data_functionalizedCrystal
_audit_creation_method	'MofGen! by Chris Wilmer'
_symmetry_space_group_name_H-M	'P1'
_symmetry_Int_Tables_number	1
_symmetry_cell_setting	triclinic
loop_
_symmetry_equiv_pos_as_xyz
  x,y,z
_cell_length_a	15.995350
_cell_length_b	15.995292
_cell_length_c	15.072220
_cell_angle_alpha	90.002061
_cell_angle_beta	89.991149
_cell_angle_gamma	83.480495
loop_
_atom_site_label
_atom_site_type_symbol
_atom_site_fract_x
_atom_site_fract_y
_atom_site_fract_z
O1	O	1.110973	0.107924	-0.073701
O2	O	1.610973	0.607924	0.426299
O3	O	0.867195	0.121252	-0.073718
O4	O	1.367195	0.621252	0.426282
O5	O	0.995774	-0.007303	-0.073711
O6	O	1.495774	0.492697	0.426289
O7	O	0.982395	0.236479	-0.073709
O8	O	1.482395	0.736479	0.426291
O9	O	0.995742	-0.007296	0.073855
O10	O	1.495742	0.492704	0.573855
O11	O	0.867164	0.121259	0.073847
O12	O	1.367164	0.621259	0.573847
O13	O	1.110942	0.107931	0.073864
O14	O	1.610942	0.607931	0.573864
Zn15	Zn	0.989048	0.114596	0.097285
Zn16	Zn	1.489048	0.614596	0.597285
Zn17	Zn	0.989089	0.114587	-0.097139
Zn18	Zn	1.489089	0.614587	0.402861
O19	O	0.982363	0.236486	0.073856
O20	O	1.482363	0.736486	0.573856
C21	C	0.835985	0.120704	0.000062
C22	C	1.335985	0.620704	0.500062
C23	C	0.743035	0.119053	0.000055
C24	C	1.243035	0.619053	0.500055
C25	C	0.405288	0.113120	0.000073
C26	C	0.905288	0.613120	0.500073
C27	C	0.452742	0.021566	0.000402
C28	C	0.952742	0.521566	0.500402
C29	C	0.549431	0.023218	0.000063
C30	C	1.049431	0.523218	0.500063
C31	C	0.572848	0.116063	0.000065
C32	C	1.072848	0.616063	0.500065
C33	C	0.531770	0.161216	-0.084198
C34	C	1.031770	0.661216	0.415802
C35	C	0.435135	0.158916	-0.084263
C36	C	0.935135	0.658916	0.415737
C37	C	0.434759	0.160816	0.083546
C38	C	0.934759	0.660816	0.583546
C39	C	0.531705	0.160795	0.084654
C40	C	1.031705	0.660795	0.584654
C41	C	0.667546	0.117731	0.000057
C42	C	1.167546	0.617731	0.500057
C43	C	0.310591	0.111455	0.000075
C44	C	0.810591	0.611455	0.500075
C45	C	0.995213	-0.038495	0.000070
C46	C	1.495213	0.461505	0.500070
C47	C	0.993581	-0.131448	0.000063
C48	C	1.493581	0.368552	0.500063
C49	C	0.987580	-0.469186	0.000071
C50	C	1.487580	0.030814	0.500071
C51	C	1.080384	-0.445874	0.000407
C52	C	1.580384	0.054126	0.500407
C53	C	1.082148	-0.349199	0.000071
C54	C	1.582148	0.150801	0.500071
C55	C	0.990557	-0.301631	0.000067
C56	C	1.490557	0.198369	0.500067
C57	C	0.944178	-0.330736	-0.084200
C58	C	1.444178	0.169264	0.415800
C59	C	0.943061	-0.427526	-0.084268
C60	C	1.443061	0.072474	0.415732
C61	C	0.941129	-0.427375	0.083541
C62	C	1.441129	0.072625	0.583541
C63	C	0.944568	-0.330883	0.084652
C64	C	1.444568	0.169117	0.584652
C65	C	0.992235	-0.206934	0.000062
C66	C	1.492235	0.293066	0.500062
C67	C	0.985899	-0.563882	0.000069
C68	C	1.485899	-0.063882	0.500069
C69	C	1.142152	0.108479	0.000082
C70	C	1.642152	0.608479	0.500082
C71	C	1.235102	0.110130	0.000083
C72	C	1.735102	0.610130	0.500083
C73	C	0.982924	0.267678	0.000074
C74	C	1.482924	0.767678	0.500074
C75	C	0.984556	0.360631	0.000075
C76	C	1.484556	0.860631	0.500075
N77	N	0.989025	0.114602	0.229973
N78	N	1.489025	0.614602	0.729973
N79	N	0.989118	0.114574	-0.229828
N80	N	1.489118	0.614574	0.270172
C81	C	0.989088	0.114584	0.589175
C82	C	1.489088	0.614584	1.089175
C83	C	0.920057	0.183140	0.551564
C84	C	1.420057	0.683140	1.051564
C85	C	0.920215	0.183390	0.448738
C86	C	1.420215	0.683390	0.948738
C87	C	0.989056	0.114593	0.410971
C88	C	1.489056	0.614593	0.910971
C89	C	1.076417	0.133675	0.448269
C90	C	1.576417	0.633675	0.948269
C91	C	1.076030	0.134162	0.551127
C92	C	1.576030	0.634162	1.051127
C93	C	0.971537	0.026742	0.551273
C94	C	1.471537	0.526742	1.051273
C95	C	0.969532	0.027328	0.448409
C96	C	1.469532	0.527328	0.948409
C97	C	0.989043	0.114596	0.310257
C98	C	1.489043	0.614596	0.810257
C99	C	0.989106	0.114582	0.689888
C100	C	1.489106	0.614582	1.189888
H101	H	0.434214	-0.015028	0.060830
H102	H	0.934214	0.484972	0.560830
H103	H	1.118472	-0.330170	0.060476
H104	H	1.618472	0.169830	0.560476
H105	H	0.877715	-0.297913	0.089738
H106	H	1.377715	0.202087	0.589738
H107	H	0.931421	0.248576	0.424126
H108	H	1.431421	0.748576	0.924126
N109	N	0.412173	0.117589	-0.163267
N110	N	0.912173	0.617589	0.336733
N111	N	0.336787	0.108415	-0.177596
N112	N	0.836787	0.608415	0.322404
H113	H	0.320573	0.079223	-0.233393
H114	H	0.820573	0.579223	0.266607
N115	N	0.859635	-0.290742	-0.088135
N116	N	1.359635	0.209258	0.411865
N117	N	0.845929	-0.212315	-0.091854
N118	N	1.345929	0.287685	0.408146
H119	H	0.786220	-0.184066	-0.094630
H120	H	1.286220	0.315934	0.405370
N121	N	0.567418	0.121883	-0.162865
N122	N	1.067418	0.621883	0.337135
N123	N	0.623064	0.060605	-0.157089
N124	N	1.123064	0.560605	0.342911
H125	H	0.648249	0.032828	-0.212645
H126	H	1.148249	0.532828	0.287355
N127	N	0.565925	0.119418	0.162858
N128	N	1.065925	0.619418	0.662858
N129	N	0.518638	0.087553	0.216067
N130	N	1.018638	0.587553	0.716067
H131	H	0.542806	0.058319	0.271295
H132	H	1.042806	0.558319	0.771295
H133	H	1.129011	0.085070	0.423803
H134	H	1.629011	0.585070	0.923803
N135	N	0.838753	0.169152	0.417083
N136	N	1.338753	0.669152	0.917083
N137	N	0.824931	0.166909	0.335543
N138	N	1.324931	0.666909	0.835543
H139	H	0.767393	0.156858	0.313189
H140	H	1.267393	0.656858	0.813189
H141	H	0.547054	0.228500	0.089745
H142	H	1.047054	0.728500	0.589745
H143	H	0.872818	-0.441366	0.084106
H144	H	1.372818	0.058634	0.584106
H145	H	1.091499	0.198225	0.575110
H146	H	1.591499	0.698225	1.075110
H147	H	1.129001	0.086198	0.576005
H148	H	1.629001	0.586198	1.076005
H149	H	0.854910	0.171958	0.576320
H150	H	1.354910	0.671958	1.076320
N151	N	0.585105	-0.021306	0.075832
N152	N	1.085105	0.478694	0.575832
N153	N	0.625324	0.015759	0.131752
N154	N	1.125324	0.515759	0.631752
H155	H	0.650516	-0.015691	0.185265
H156	H	1.150516	0.484309	0.685265
N157	N	1.034669	-0.037276	0.581786
N158	N	1.534669	0.462724	1.081786
N159	N	1.032135	-0.112089	0.559012
N160	N	1.532135	0.387911	1.059012
H161	H	1.076723	-0.157297	0.580566
H162	H	1.576723	0.342703	1.080566
H163	H	0.414216	0.130888	0.147416
H164	H	0.914216	0.630888	0.647416
N165	N	1.096282	0.213123	0.415937
N166	N	1.596282	0.713123	0.915937
N167	N	1.046246	0.255821	0.365437
N168	N	1.546246	0.755821	0.865437
H169	H	1.060271	0.311934	0.342603
H170	H	1.560271	0.811934	0.842603
H171	H	0.931108	0.247959	0.577404
H172	H	1.431108	0.747959	1.077404
H173	H	0.976411	-0.310678	-0.146908
H174	H	1.476411	0.189322	0.353092
N175	N	0.893337	0.003750	0.583841
N176	N	1.393337	0.503750	1.083841
N177	N	0.849588	0.051832	0.635389
N178	N	1.349588	0.551832	1.135389
H179	H	0.794353	0.035606	0.658388
H180	H	1.294353	0.535606	1.158388
N181	N	0.394896	0.245496	0.084254
N182	N	0.894896	0.745496	0.584254
N183	N	0.344986	0.270707	0.023614
N184	N	0.844986	0.770707	0.523614
H185	H	0.316828	0.330509	0.024106
H186	H	0.816828	0.830509	0.524106
N187	N	0.857710	-0.445802	-0.089094
N188	N	1.357710	0.054198	0.410906
N189	N	0.841682	-0.520484	-0.090010
N190	N	1.341682	-0.020484	0.409990
H191	H	0.781405	-0.533391	-0.093426
H192	H	1.281405	-0.033391	0.406574
H193	H	0.978340	-0.312314	0.146992
H194	H	1.478340	0.187686	0.646992
H195	H	0.402873	0.226134	-0.088086
H196	H	0.902873	0.726134	0.411914
N197	N	1.125238	-0.481000	0.076218
N198	N	1.625238	0.019000	0.576218
N199	N	1.089336	-0.523630	0.130885
N200	N	1.589336	-0.023630	0.630885
H201	H	1.121015	-0.548445	0.184428
H202	H	1.621015	-0.048445	0.684428
H203	H	0.545881	0.229427	-0.087331
H204	H	1.045881	0.729427	0.412669
H205	H	0.905268	0.012846	0.424032
H206	H	1.405268	0.512846	0.924032
N207	N	1.128018	-0.326093	-0.075826
N208	N	1.628018	0.173907	0.424174
N209	N	1.192570	-0.289754	-0.065956
N210	N	1.692570	0.210246	0.434044
H211	H	1.224967	-0.273436	-0.119562
H212	H	1.724967	0.226564	0.380438
H213	H	0.970342	-0.455461	0.147416
H214	H	1.470342	0.044539	0.647416
N215	N	1.028524	-0.039660	0.416165
N216	N	1.528524	0.460340	0.916165
N217	N	1.105206	-0.039881	0.432264
N218	N	1.605206	0.460119	0.932264
H219	H	1.146879	-0.087188	0.409492
H220	H	1.646879	0.412812	0.909492
N221	N	0.428173	-0.024135	-0.074981
N222	N	0.928173	0.475865	0.425019
N223	N	0.375867	0.010430	-0.128947
N224	N	0.875867	0.510430	0.371053
H225	H	0.358513	-0.021844	-0.182188
H226	H	0.858513	0.478156	0.317812
H227	H	0.577310	-0.012521	-0.060446
H228	H	1.077310	0.487479	0.439554
H229	H	1.115969	-0.474895	-0.059681
H230	H	1.615969	0.025105	0.440319
H231	H	0.975207	-0.454346	-0.147256
H232	H	1.475207	0.045654	0.352744
