data_functionalizedCrystal
_audit_creation_method	'MofGen! by Chris Wilmer'
_symmetry_space_group_name_H-M	'P1'
_symmetry_Int_Tables_number	1
_symmetry_cell_setting	triclinic
loop_
_symmetry_equiv_pos_as_xyz
  x,y,z
_cell_length_a	19.077105
_cell_length_b	16.625546
_cell_length_c	19.077174
_cell_angle_alpha	92.270997
_cell_angle_beta	85.483752
_cell_angle_gamma	87.718759
loop_
_atom_site_label
_atom_site_type_symbol
_atom_site_fract_x
_atom_site_fract_y
_atom_site_fract_z
Zn1	Zn	1.093718	-0.391770	-0.441833
Zn2	Zn	1.593718	0.108230	0.058167
Zn3	Zn	1.088907	-0.520961	-0.323942
Zn4	Zn	1.588907	-0.020961	0.176058
Zn5	Zn	0.971103	-0.380499	-0.319231
Zn6	Zn	1.471103	0.119501	0.180769
Zn7	Zn	0.975801	-0.520909	-0.437060
Zn8	Zn	1.475801	-0.020909	0.062940
O9	O	1.032382	-0.453535	-0.380517
O10	O	1.532382	0.046465	0.119483
O11	O	1.191730	-0.413647	-0.430164
O12	O	1.691730	0.086353	0.069836
O13	O	1.069300	-0.497634	-0.224668
O14	O	1.569300	0.002366	0.275332
O15	O	0.987415	-0.269165	-0.335520
O16	O	1.487415	0.230835	0.164480
O17	O	1.188196	-0.508563	-0.343550
O18	O	1.688196	-0.008563	0.156450
O19	O	1.077500	-0.277446	-0.425596
O20	O	1.577500	0.222554	0.074404
O21	O	0.982750	-0.394436	-0.221206
O22	O	1.482750	0.105564	0.278794
O23	O	0.873076	-0.394385	-0.330892
O24	O	1.373076	0.105615	0.169108
O25	O	0.995423	-0.508473	-0.536343
O26	O	1.495423	-0.008473	-0.036343
O27	O	0.876527	-0.497544	-0.417460
O28	O	1.376527	0.002456	0.082540
O29	O	1.082056	-0.413595	-0.539850
O30	O	1.582056	0.086405	-0.039850
O31	O	1.073856	-0.633783	-0.338921
O32	O	1.573856	-0.133783	0.161079
O33	O	0.990757	-0.633745	-0.422029
O34	O	1.490757	-0.133745	0.077971
C35	C	0.849223	-0.444736	-0.373147
C36	C	1.349223	0.055264	0.126853
C37	C	0.770867	-0.440993	-0.370012
C38	C	1.270867	0.059007	0.129988
C39	C	1.032314	-0.663021	-0.380484
C40	C	1.532314	-0.163021	0.119516
C41	C	1.032351	-0.752644	-0.380497
C42	C	1.532351	-0.252644	0.119503
C43	C	0.735868	-0.493017	-0.413539
C44	C	1.235868	0.006983	0.086461
C45	C	0.662244	-0.489489	-0.410596
C46	C	1.162244	0.010511	0.089404
C47	C	0.623621	-0.433940	-0.364122
C48	C	1.123621	0.066060	0.135878
C49	C	0.658625	-0.381910	-0.320592
C50	C	1.158625	0.118090	0.179408
C51	C	0.732248	-0.385434	-0.323539
C52	C	1.232248	0.114566	0.176461
C53	C	0.403240	-0.417627	-0.350485
C54	C	0.903240	0.082373	0.149515
C55	C	0.329612	-0.414107	-0.347540
C56	C	0.829612	0.085893	0.152460
C57	C	0.333237	-0.521686	-0.437545
C58	C	0.833237	-0.021686	0.062455
C59	C	0.406860	-0.525210	-0.440485
C60	C	0.906860	-0.025210	0.059515
C61	C	0.441858	-0.473177	-0.396959
C62	C	0.941858	0.026823	0.103041
N63	N	0.548366	-0.430334	-0.361111
N64	N	1.048366	0.069666	0.138889
N65	N	0.517112	-0.476779	-0.399974
N66	N	1.017112	0.023221	0.100026
C67	C	1.032477	-1.080829	-0.380575
C68	C	1.532477	-0.580829	0.119425
C69	C	1.032439	-0.989518	-0.380555
C70	C	1.532439	-0.489518	0.119445
C71	C	1.032413	-0.916740	-0.380536
C72	C	1.532413	-0.416740	0.119464
C73	C	1.032377	-0.825423	-0.380516
C74	C	1.532377	-0.325423	0.119484
C75	C	1.216257	-0.462368	-0.387915
C76	C	1.716257	0.037632	0.112085
C77	C	1.294613	-0.466132	-0.391068
C78	C	1.794613	0.033868	0.108932
C79	C	1.039800	-0.462286	-0.564390
C80	C	1.539800	0.037714	-0.064390
C81	C	1.042961	-0.466015	-0.642746
C82	C	1.542961	0.033985	-0.142746
C83	C	1.032470	-0.243232	-0.380565
C84	C	1.532470	0.256768	0.119435
C85	C	1.032508	-0.153614	-0.380586
C86	C	1.532508	0.346386	0.119414
C87	C	0.999386	-0.414038	-0.677755
C88	C	1.499386	0.085962	-0.177755
C89	C	1.002353	-0.417549	-0.751379
C90	C	1.502353	0.082451	-0.251379
C91	C	1.048900	-0.473032	-0.789992
C92	C	1.548900	0.026968	-0.289992
C93	C	1.092477	-0.525014	-0.754978
C94	C	1.592477	-0.025014	-0.254978
C95	C	1.089505	-0.521507	-0.681355
C96	C	1.589505	-0.021507	-0.181355
C97	C	1.062615	-0.489286	-1.010373
C98	C	1.562615	0.010714	-0.510373
C99	C	1.065585	-0.492788	-1.084001
C100	C	1.565585	0.007212	-0.584001
C101	C	0.975460	-0.385323	-1.080397
C102	C	1.475460	0.114677	-0.580397
C103	C	0.972496	-0.381818	-1.006773
C104	C	1.472496	0.118182	-0.506773
C105	C	1.016070	-0.433802	-0.971765
C106	C	1.516070	0.066198	-0.471765
N107	N	1.051935	-0.476620	-0.865247
N108	N	1.551935	0.023380	-0.365247
N109	N	1.013030	-0.430218	-0.896511
N110	N	1.513030	0.069782	-0.396511
C111	C	1.025034	-0.444761	-0.197360
C112	C	1.525034	0.055239	0.302640
C113	C	1.022010	-0.440812	-0.119010
C114	C	1.522010	0.059188	0.380990
H115	H	0.633752	-0.531854	-0.446040
H116	H	1.133752	-0.031854	0.053960
H117	H	0.961486	-0.368853	-0.646322
H118	H	1.461486	0.131147	-0.146322
H119	H	0.767310	-0.538254	-0.451381
H120	H	1.267310	-0.038254	0.048619
O121	O	0.444408	-0.579245	-0.485536
O122	O	0.944408	-0.079245	0.014464
C123	C	0.485364	-0.631361	-0.447026
C124	C	0.985364	-0.131361	0.052974
H125	H	0.460923	-0.632546	-0.390608
H126	H	0.960923	-0.132546	0.109392
H127	H	0.487220	-0.694704	-0.472463
H128	H	0.987220	-0.194704	0.027537
H129	H	0.541069	-0.608977	-0.446866
H130	H	1.041069	-0.108977	0.053134
H131	H	0.934591	-0.336640	-0.975339
H132	H	1.434591	0.163360	-0.475339
H133	H	0.304734	-0.564048	-0.472983
H134	H	0.804734	-0.064048	0.027017
H135	H	1.103492	-0.537970	-1.115438
H136	H	1.603492	-0.037970	-0.615438
H137	H	0.966867	-0.375227	-0.779880
H138	H	1.466867	0.124773	-0.279880
H139	H	0.939984	-0.343001	-1.108908
H140	H	1.439984	0.156999	-0.608908
H141	H	0.627172	-0.336677	-0.282755
H142	H	1.127172	0.163323	0.217245
O143	O	0.292201	-0.360070	-0.302376
O144	O	0.792201	0.139930	0.197624
C145	C	0.338876	-0.314912	-0.264577
C146	C	0.838876	0.185088	0.235423
H147	H	0.392529	-0.316054	-0.295557
H148	H	0.892529	0.183946	0.204443
H149	H	0.317316	-0.250002	-0.256310
H150	H	0.817316	0.249998	0.243690
H151	H	0.344526	-0.342163	-0.211302
H152	H	0.844526	0.157837	0.288698
H153	H	0.760743	-0.343066	-0.288098
H154	H	1.260743	0.156934	0.211902
O155	O	1.105021	-0.539806	-0.976484
O156	O	1.605021	-0.039806	-0.476484
C157	C	1.146732	-0.589535	-1.026355
C158	C	1.646732	-0.089535	-0.526355
H159	H	1.151296	-0.559125	-1.078942
H160	H	1.651296	-0.059125	-0.578942
H161	H	1.201417	-0.599782	-1.007320
H162	H	1.701417	-0.099782	-0.507320
H163	H	1.121214	-0.649908	-1.033130
H164	H	1.621214	-0.149908	-0.533130
O165	O	0.437303	-0.367201	-0.308168
O166	O	0.937303	0.132799	0.191832
C167	C	0.478014	-0.412888	-0.264252
C168	C	0.978014	0.087112	0.235748
H169	H	0.490039	-0.475741	-0.289461
H170	H	0.990039	0.024259	0.210539
H171	H	0.529408	-0.382052	-0.256923
H172	H	1.029408	0.117948	0.243077
H173	H	0.447515	-0.417814	-0.210863
H174	H	0.947515	0.082186	0.289137
H175	H	1.130372	-0.570194	-0.786422
H176	H	1.630372	-0.070194	-0.286422
O177	O	1.131903	-0.572032	-0.647457
O178	O	1.631903	-0.072032	-0.147457
C179	C	1.173611	-0.621771	-0.697322
C180	C	1.673611	-0.121771	-0.197322
H181	H	1.178190	-0.591361	-0.749909
H182	H	1.678190	-0.091361	-0.249909
H183	H	1.228290	-0.632034	-0.678279
H184	H	1.728290	-0.132034	-0.178279
H185	H	1.148080	-0.682135	-0.704101
H186	H	1.648080	-0.182135	-0.204101
