data_functionalizedCrystal
_audit_creation_method	'MofGen! by Chris Wilmer'
_symmetry_space_group_name_H-M	'P1'
_symmetry_Int_Tables_number	1
_symmetry_cell_setting	triclinic
loop_
_symmetry_equiv_pos_as_xyz
  x,y,z
_cell_length_a	12.759401
_cell_length_b	12.594516
_cell_length_c	12.759393
_cell_angle_alpha	89.969200
_cell_angle_beta	89.980903
_cell_angle_gamma	90.011799
loop_
_atom_site_label
_atom_site_type_symbol
_atom_site_fract_x
_atom_site_fract_y
_atom_site_fract_z
Zn1	Zn	1.606276	-0.423680	-0.594004
Zn2	Zn	1.606180	-0.601699	-0.418326
Zn3	Zn	1.430578	-0.423735	-0.418341
Zn4	Zn	1.430576	-0.601617	-0.593966
O5	O	1.518403	-0.512683	-0.506159
O6	O	1.753285	-0.447306	-0.570709
O7	O	1.582846	-0.578149	-0.271307
O8	O	1.453927	-0.274782	-0.441666
O9	O	1.753213	-0.578096	-0.441640
O10	O	1.583011	-0.274741	-0.570724
O11	O	1.453833	-0.447400	-0.271318
O12	O	1.283557	-0.447320	-0.441629
O13	O	1.453922	-0.577955	-0.740992
O14	O	1.283555	-0.578009	-0.570659
O15	O	1.583009	-0.447226	-0.741020
O16	O	1.582844	-0.750634	-0.441603
O17	O	1.453829	-0.750573	-0.570645
C18	C	1.245435	-0.512662	-0.506142
C19	C	1.128659	-0.512679	-0.506160
C20	C	0.964104	-0.444713	-0.573479
C21	C	1.073828	-0.444699	-0.573470
C22	C	1.073760	-0.580686	-0.438862
C23	C	0.964037	-0.580706	-0.438878
C24	C	0.909279	-0.376721	-0.640786
C25	C	0.964170	-0.308715	-0.708085
C26	C	1.073894	-0.308700	-0.708076
C27	C	1.128727	-0.376691	-0.640767
C28	C	1.518354	-0.789224	-0.506141
C29	C	1.518429	-0.907529	-0.506168
C30	C	1.588682	-0.976776	-0.436057
C31	C	1.614358	-1.047468	-0.531950
C32	C	1.492885	-1.047636	-0.410337
C33	C	1.544154	-0.976662	-0.602111
C34	C	1.422637	-0.976824	-0.480433
C35	C	1.448276	-1.047484	-0.576392
C36	C	1.792436	-0.512704	-0.506177
C37	C	1.909212	-0.512713	-0.506185
C38	C	1.518476	-0.512575	-0.780193
C39	C	1.518507	-0.512529	-0.896969
C40	C	1.518480	-0.235062	-0.506201
C41	C	1.518513	-0.116756	-0.506218
C42	C	1.585732	-0.444452	-0.951848
C43	C	1.585757	-0.444414	-1.061572
C44	C	1.451330	-0.580539	-1.061530
C45	C	1.451300	-0.580571	-0.951808
C46	C	1.652939	-0.376410	-0.897010
C47	C	1.720170	-0.308328	-0.951888
C48	C	1.720195	-0.308290	-1.061612
C49	C	1.652989	-0.376333	-1.116458
C50	C	1.518390	-0.512713	-0.233192
C51	C	1.518562	-0.512459	-0.116416
H52	H	1.118413	-0.636042	-0.384063
H53	H	0.919518	-0.253364	-0.762891
Cl54	Cl	1.266667	-0.376679	-0.640766
H55	H	0.919344	-0.636079	-0.384083
H56	H	1.648102	-0.945729	-0.376820
Cl57	Cl	0.771340	-0.376731	-0.640799
Cl58	Cl	1.142898	-0.223218	-0.792688
Cl59	Cl	1.366853	-0.666077	-1.130480
H60	H	1.388901	-1.078335	-0.635772
H61	H	1.341614	-0.945768	-0.458609
Cl62	Cl	1.577726	-0.928742	-0.727302
Cl63	Cl	1.652916	-0.376458	-0.759071
H64	H	1.471245	-1.078811	-0.329272
Cl65	Cl	1.739489	-1.095358	-0.565620
H66	H	1.774880	-0.252923	-0.907225
Cl67	Cl	1.804715	-0.222706	-1.130599
H68	H	1.653003	-0.376284	-1.205803
Cl69	Cl	1.366786	-0.666154	-0.882813
