data_functionalizedCrystal
_audit_creation_method	'MofGen! by Chris Wilmer'
_symmetry_space_group_name_H-M	'P1'
_symmetry_Int_Tables_number	1
_symmetry_cell_setting	triclinic
loop_
_symmetry_equiv_pos_as_xyz
  x,y,z
_cell_length_a	18.266242
_cell_length_b	10.723024
_cell_length_c	10.723022
_cell_angle_alpha	84.467548
_cell_angle_beta	89.994867
_cell_angle_gamma	89.991282
loop_
_atom_site_label
_atom_site_type_symbol
_atom_site_fract_x
_atom_site_fract_y
_atom_site_fract_z
O1	O	0.060874	-1.657196	-0.175029
O2	O	0.060877	-1.294043	-0.191783
O3	O	0.060873	-1.483997	-0.001830
O4	O	0.060878	-1.467242	-0.364982
O5	O	-0.060889	-1.483964	-0.001820
O6	O	-0.060885	-1.294010	-0.191773
O7	O	-0.060888	-1.657163	-0.175019
Zn8	Zn	-0.080219	-1.475582	-0.183394
Zn9	Zn	0.080208	-1.475624	-0.183408
O10	O	-0.060884	-1.467209	-0.364972
C11	C	-0.000004	-1.247527	-0.190558
C12	C	-0.000003	-1.108973	-0.186911
N13	N	-0.189706	-1.475561	-0.183384
C14	C	-0.000008	-1.482762	0.044675
C15	C	-0.000005	-1.479115	0.183229
C16	C	-0.228016	-1.559701	-0.099315
C17	C	-0.304661	-1.559709	-0.099309
C18	C	-0.342993	-1.475589	-0.183395
C19	C	-0.304673	-1.391434	-0.267470
C20	C	-0.228030	-1.391420	-0.267465
N21	N	-0.463323	-1.460650	-0.293680
N22	N	-0.536132	-1.460671	-0.293681
C23	C	-0.573915	-1.475624	-0.183413
N24	N	-0.536140	-1.490581	-0.073141
N25	N	-0.463326	-1.490567	-0.073141
C26	C	-0.426100	-1.475594	-0.183409
C27	C	-0.695333	-1.559777	-0.099331
C28	C	-0.771979	-1.559777	-0.099323
C29	C	-0.771989	-1.391507	-0.267495
C30	C	-0.695345	-1.391502	-0.267491
C31	C	-0.657021	-1.475644	-0.183411
N32	N	0.189695	-1.475654	-0.183408
C33	C	-0.000005	-1.703679	-0.176243
C34	C	-0.000002	-1.842233	-0.179891
C35	C	-0.000001	-1.033990	-0.293199
C36	C	-0.000000	-0.890786	-0.289431
C37	C	-0.000002	-1.468444	-0.411477
C38	C	0.000000	-1.472091	-0.550031
C39	C	-0.000002	-1.581631	0.401408
C40	C	-0.000005	-1.585403	0.258205
H41	H	-0.335860	-1.628228	-0.030847
H42	H	0.000020	-1.679190	0.216393
C43	C	-0.000004	-0.929260	-0.056955
C44	C	-0.063233	-1.022590	-0.028188
C45	C	-0.063235	-1.109628	0.094748
C46	C	-0.000009	-1.103335	0.188917
C47	C	0.063225	-1.010001	0.160153
C48	C	0.063227	-0.922964	0.037217
H49	H	-0.110041	-1.027252	-0.097900
H50	H	-0.110045	-1.178719	0.116041
H51	H	-0.000011	-1.167765	0.279922
H52	H	0.110033	-1.005340	0.229865
H53	H	0.110037	-0.853872	0.015925
H54	H	-0.000004	-1.075811	-0.386984
H55	H	-0.196816	-1.628211	-0.030849
C56	C	-0.000003	-1.352401	0.239693
C57	C	-0.063230	-1.259146	0.210451
C58	C	-0.063228	-1.132432	0.266926
C59	C	0.000002	-1.098973	0.352642
C60	C	0.063234	-1.192231	0.381889
C61	C	0.063232	-1.318945	0.325414
H62	H	-0.110041	-1.283912	0.146995
H63	H	-0.110037	-1.063396	0.245275
H64	H	0.000003	-1.005172	0.394448
H65	H	0.110044	-1.167465	0.445345
H66	H	0.110040	-1.387980	0.347065
H67	H	-0.664150	-1.322992	-0.335954
H68	H	-0.335886	-1.322940	-0.335932
H69	H	0.000004	-0.826353	-0.380421
H70	H	-0.196836	-1.322901	-0.335926
H71	H	0.000014	-1.067151	-0.093125
H72	H	-0.000006	-1.672620	0.465850
H73	H	-0.664129	-1.628287	-0.030863
C74	C	-0.814126	-1.652335	-0.006841
C75	C	-0.771970	-1.744911	0.085614
C76	C	-0.814119	-1.837470	0.178096
C77	C	-0.898424	-1.837454	0.178125
C78	C	-0.940584	-1.744874	0.085667
C79	C	-0.898436	-1.652315	-0.006816
H80	H	-0.709558	-1.744926	0.085596
H81	H	-0.782908	-1.906004	0.246540
H82	H	-0.929625	-1.905972	0.246586
H83	H	-1.002996	-1.744859	0.085684
H84	H	-0.929646	-1.583782	-0.075259
H85	H	-0.803198	-1.323010	-0.335954
H86	H	-0.000005	-1.381103	0.385526
