data_functionalizedCrystal
_audit_creation_method	'MofGen! by Chris Wilmer'
_symmetry_space_group_name_H-M	'P1'
_symmetry_Int_Tables_number	1
_symmetry_cell_setting	triclinic
loop_
_symmetry_equiv_pos_as_xyz
  x,y,z
_cell_length_a	25.639239
_cell_length_b	14.908780
_cell_length_c	14.908308
_cell_angle_alpha	89.787311
_cell_angle_beta	86.737723
_cell_angle_gamma	86.672354
loop_
_atom_site_label
_atom_site_type_symbol
_atom_site_fract_x
_atom_site_fract_y
_atom_site_fract_z
Zn1	Zn	-0.182898	-1.345213	0.587843
Zn2	Zn	0.317102	-0.845213	1.087843
Zn3	Zn	-0.265024	-1.353749	0.437473
Zn4	Zn	0.234976	-0.853749	0.937473
Zn5	Zn	-0.182329	-1.203527	0.428810
Zn6	Zn	0.317671	-0.703527	0.928810
Zn7	Zn	-0.275033	-1.194770	0.579089
Zn8	Zn	0.224967	-0.694770	1.079089
O9	O	-0.226321	-1.274315	0.508304
O10	O	0.273679	-0.774315	1.008304
O11	O	-0.189841	-1.472175	0.575184
O12	O	0.310159	-0.972175	1.075184
O13	O	-0.249628	-1.341059	0.310501
O14	O	0.250372	-0.841059	0.810501
O15	O	-0.109238	-1.222415	0.449944
O16	O	0.390762	-0.722415	0.949944
O17	O	-0.250179	-1.478447	0.464708
O18	O	0.249821	-0.978447	0.964708
O19	O	-0.109655	-1.326511	0.566785
O20	O	0.390345	-0.826511	1.066785
O21	O	-0.188872	-1.230692	0.304137
O22	O	0.311128	-0.730692	0.804137
O23	O	-0.198577	-1.076536	0.441456
O24	O	0.301423	-0.576536	0.941456
O25	O	-0.267238	-1.207489	0.706072
O26	O	0.232762	-0.707489	1.206072
O27	O	-0.266687	-1.070102	0.551865
O28	O	0.233313	-0.570102	1.051865
O29	O	-0.199546	-1.318019	0.712504
O30	O	0.300454	-0.818019	1.212504
O31	O	-0.339519	-1.332568	0.456220
O32	O	0.160481	-0.832568	0.956220
O33	O	-0.346872	-1.215766	0.560265
O34	O	0.153128	-0.715766	1.060265
C35	C	-0.233657	-1.040692	0.494771
C36	C	0.266343	-0.540692	0.994771
C37	C	-0.236808	-0.940746	0.489004
C38	C	0.263192	-0.440746	0.989004
C39	C	-0.179999	-0.746395	0.593380
C40	C	0.320001	-0.246395	1.093380
C41	C	-0.182958	-0.652487	0.587964
C42	C	0.317042	-0.152487	1.087964
C43	C	-0.245684	-0.659020	0.472751
C44	C	0.254316	-0.159020	0.972751
C45	C	-0.242724	-0.752928	0.478167
C46	C	0.257276	-0.252928	0.978167
C47	C	-0.209881	-0.796612	0.538485
C48	C	0.290119	-0.296612	1.038485
C49	C	-0.206925	-0.890522	0.543905
C50	C	0.293075	-0.390522	1.043905
C51	C	-0.269647	-0.897054	0.428688
C52	C	0.230353	-0.397054	0.928688
C53	C	-0.272607	-0.803146	0.423272
C54	C	0.227393	-0.303146	0.923272
C55	C	-0.362167	-1.274166	0.508254
C56	C	0.137833	-0.774166	1.008254
C57	C	-0.420281	-1.274183	0.508267
C58	C	0.079719	-0.774183	1.008267
C59	C	-0.776798	-1.335278	0.454234
C60	C	-0.276798	-0.835278	0.954234
C61	C	-0.831401	-1.335312	0.454248
C62	C	-0.331401	-0.835312	0.954248
O63	O	-0.856371	-1.387103	0.408253
O64	O	-0.356371	-0.887103	0.908253
N65	N	-0.862557	-1.274469	0.508372
N66	N	-0.362557	-0.774469	1.008372
C67	C	-0.839107	-1.213595	0.562493
C68	C	-0.339107	-0.713595	1.062493
O69	O	-0.870621	-1.161847	0.608531
O70	O	-0.370621	-0.661847	1.108531
C71	C	-0.784504	-1.213566	0.562483
C72	C	-0.284504	-0.713566	1.062483
C73	C	-0.753351	-1.274406	0.508348
C74	C	-0.253351	-0.774406	1.008348
C75	C	-0.745645	-1.396114	0.400105
C76	C	-0.245645	-0.896114	0.900105
C77	C	-0.691045	-1.396078	0.400090
C78	C	-0.191045	-0.896078	0.900090
C79	C	-0.667598	-1.335207	0.454204
C80	C	-0.167598	-0.835207	0.954204
C81	C	-0.698751	-1.274371	0.508333
C82	C	-0.198751	-0.774371	1.008333
C83	C	-0.761054	-1.152696	0.616607
C84	C	-0.261054	-0.652696	1.116607
C85	C	-0.706448	-1.152672	0.616593
C86	C	-0.206448	-0.652672	1.116593
C87	C	-0.675295	-1.213513	0.562459
C88	C	-0.175295	-0.713513	1.062459
C89	C	-0.620704	-1.213463	0.562432
C90	C	-0.120704	-0.713463	1.062432
N91	N	-0.589548	-1.274306	0.508308
N92	N	-0.089548	-0.774306	1.008308
C93	C	-0.612995	-1.335178	0.454194
C94	C	-0.112995	-0.835178	0.954194
C95	C	-0.953776	-1.213662	0.562510
C96	C	-0.453776	-0.713662	1.062510
C97	C	-1.008377	-1.213686	0.562516
C98	C	-0.508377	-0.713686	1.062516
C99	C	-1.000668	-1.335404	0.454273
C100	C	-0.500668	-0.835404	0.954273
C101	C	-0.946066	-1.335375	0.454263
C102	C	-0.446066	-0.835375	0.954263
C103	C	-0.922620	-1.274504	0.508386
C104	C	-0.422620	-0.774504	1.008386
C105	C	-0.498332	-1.335098	0.454166
C106	C	0.001668	-0.835098	0.954166
C107	C	-0.443728	-1.335054	0.454153
C108	C	0.056272	-0.835054	0.954153
C109	C	-0.451441	-1.213340	0.562400
C110	C	0.048559	-0.713340	1.062400
C111	C	-0.506041	-1.213379	0.562409
C112	C	-0.006041	-0.713379	1.062409
C113	C	-0.529485	-1.274266	0.508290
C114	C	-0.029485	-0.774266	1.008290
O115	O	-0.595698	-1.161701	0.608407
O116	O	-0.095698	-0.661701	1.108407
O117	O	-0.581475	-1.386924	0.408172
O118	O	-0.081475	-0.886924	0.908172
C119	C	-0.089944	-1.274488	0.508375
C120	C	0.410056	-0.774488	1.008375
C121	C	-0.031829	-1.274561	0.508405
C122	C	0.468171	-0.774561	1.008405
C123	C	-0.234572	-1.260825	0.742825
C124	C	0.265428	-0.760825	1.242825
C125	C	-0.238088	-1.255076	0.842764
C126	C	0.261912	-0.755076	1.342764
C127	C	-0.218952	-0.508850	0.521882
C128	C	0.281048	-0.008850	1.021882
C129	C	-0.215800	-0.608796	0.527652
C130	C	0.284200	-0.108796	1.027652
C131	C	-0.218063	-1.287804	0.274698
C132	C	0.281937	-0.787804	0.774698
C133	C	-0.214394	-1.293727	0.174769
C134	C	0.285606	-0.793727	0.674769
C135	C	-0.174196	-1.359367	1.037258
C136	C	0.325804	-0.859367	1.537258
C137	C	-0.177497	-1.353969	1.131160
C138	C	0.322503	-0.853969	1.631160
C139	C	-0.247990	-1.238877	1.124470
C140	C	0.252010	-0.738877	1.624470
C141	C	-0.244688	-1.244276	1.030569
C142	C	0.255312	-0.744276	1.530569
C143	C	-0.207791	-1.304524	0.986966
C144	C	0.292209	-0.804524	1.486966
C145	C	-0.204492	-1.309926	0.893063
C146	C	0.295508	-0.809926	1.393063
C147	C	-0.274982	-1.194831	0.886375
C148	C	0.225018	-0.694831	1.386375
C149	C	-0.278283	-1.189432	0.980276
C150	C	0.221717	-0.689432	1.480276
H151	H	-0.418364	-1.384598	0.410067
H152	H	0.081636	-0.884598	0.910067
N153	N	-0.141259	-1.413112	1.185405
N154	N	0.358741	-0.913112	1.685405
H155	H	-0.117384	-1.452094	1.143531
H156	H	0.382616	-0.952094	1.643531
H157	H	-0.162600	-1.452463	1.226768
H158	H	0.337400	-0.952463	1.726768
N159	N	-0.144588	-0.793514	0.658451
N160	N	0.355412	-0.293514	1.158451
H161	H	-0.147252	-0.860625	0.653558
H162	H	0.352748	-0.360625	1.153558
H163	H	-0.155571	-0.773406	0.721687
H164	H	0.344429	-0.273406	1.221687
N165	N	-0.301876	-0.951227	0.369476
N166	N	0.198124	-0.451227	0.869476
H167	H	-0.291956	-0.938573	0.304314
H168	H	0.208044	-0.438573	0.804314
H169	H	-0.340238	-0.934031	0.382457
H170	H	0.159762	-0.434031	0.882457
N171	N	-0.311223	-1.135679	0.832132
N172	N	0.188777	-0.635679	1.332132
H173	H	-0.303535	-1.148241	0.766029
H174	H	0.196465	-0.648241	1.266029
H175	H	-0.305682	-1.070524	0.844828
H176	H	0.194318	-0.570524	1.344828
N177	N	-0.281107	-0.611905	0.407696
N178	N	0.218893	-0.111905	0.907696
H179	H	-0.270156	-0.631938	0.344421
H180	H	0.229844	-0.131938	0.844421
H181	H	-0.278433	-0.544805	0.412667
H182	H	0.221567	-0.044805	0.912667
H183	H	-0.432342	-1.163776	0.606456
H184	H	0.067658	-0.663776	1.106456
N185	N	-0.164699	-1.374907	0.846030
N186	N	0.335301	-0.874907	1.346030
H187	H	-0.143917	-1.408829	0.892143
H188	H	0.356083	-0.908829	1.392143
H189	H	-0.140284	-1.340574	0.804961
H190	H	0.359716	-0.840574	1.304961
H191	H	-0.920704	-1.384917	0.410182
H192	H	-0.420704	-0.884917	0.910182
N193	N	-0.928490	-1.147997	0.620882
N194	N	-0.428490	-0.647997	1.120882
H195	H	-0.956516	-1.109461	0.655165
H196	H	-0.456516	-0.609461	1.155165
H197	H	-0.905886	-1.108507	0.581835
H198	H	-0.405886	-0.608507	1.081835
H199	H	-0.517413	-1.384679	0.410099
H200	H	-0.017413	-0.884679	0.910099
N201	N	-0.287785	-1.173904	1.171510
N202	N	0.212215	-0.673904	1.671510
H203	H	-0.308568	-1.139978	1.125403
H204	H	0.191432	-0.639978	1.625403
H205	H	-0.269177	-1.130078	1.208068
H206	H	0.230823	-0.630078	1.708068
N207	N	-0.134407	-1.424353	0.990222
N208	N	0.365593	-0.924353	1.490222
H209	H	-0.113627	-1.458282	1.036332
H210	H	0.386373	-0.958282	1.536332
H211	H	-0.109989	-1.390024	0.949153
H212	H	0.390011	-0.890024	1.449153
H213	H	-1.019768	-1.384973	0.410213
H214	H	-0.519768	-0.884973	0.910213
N215	N	-0.657449	-1.461715	0.341717
N216	N	-0.157449	-0.961715	0.841717
H217	H	-0.634503	-1.427608	0.297891
H218	H	-0.134503	-0.927608	0.797891
H219	H	-0.680632	-1.500263	0.307508
H220	H	-0.180632	-1.000263	0.807508
H221	H	-0.158623	-0.611603	0.632663
H222	H	0.341377	-0.111603	1.132663
H223	H	-0.299345	-0.767565	0.374160
H224	H	0.200655	-0.267565	0.874160
N225	N	-0.770928	-1.461775	0.341735
N226	N	-0.270928	-0.961775	0.841735
H227	H	-0.742900	-1.500304	0.307448
H228	H	-0.242900	-1.000304	0.807448
H229	H	-0.793296	-1.427615	0.297977
H230	H	-0.293296	-0.927615	0.797977
H231	H	-0.786410	-1.103149	0.660685
H232	H	-0.286410	-0.603149	1.160685
N233	N	-0.171507	-0.937643	0.608963
N234	N	0.328493	-0.437643	1.108963
H235	H	-0.134163	-0.922135	0.594172
H236	H	0.365837	-0.422135	1.094172
H237	H	-0.174213	-1.004738	0.604037
H238	H	0.325787	-0.504738	1.104037
N239	N	-1.041971	-1.148050	0.620893
N240	N	-0.541971	-0.648050	1.120893
H241	H	-1.034266	-1.158260	0.685949
H242	H	-0.534266	-0.658260	1.185949
H243	H	-1.080108	-1.157329	0.612623
H244	H	-0.580108	-0.657329	1.112623
N245	N	-0.681160	-1.087019	0.674973
N246	N	-0.181160	-0.587019	1.174973
H247	H	-0.709184	-1.048487	0.709265
H248	H	-0.209184	-0.548487	1.209265
H249	H	-0.658558	-1.047526	0.635929
H250	H	-0.158558	-0.547526	1.135929
N251	N	-0.539646	-1.147752	0.620785
N252	N	-0.039646	-0.647752	1.120785
H253	H	-0.516504	-1.109183	0.655060
H254	H	-0.016504	-0.609183	1.155060
H255	H	-0.562581	-1.181941	0.664552
H256	H	-0.062581	-0.681941	1.164552
H257	H	-0.308324	-1.140378	1.015791
H258	H	0.191676	-0.640378	1.515791
