data_functionalizedCrystal
_audit_creation_method	'MofGen! by Chris Wilmer'
_symmetry_space_group_name_H-M	'P1'
_symmetry_Int_Tables_number	1
_symmetry_cell_setting	triclinic
loop_
_symmetry_equiv_pos_as_xyz
  x,y,z
_cell_length_a	15.995292
_cell_length_b	15.995350
_cell_length_c	14.586319
_cell_angle_alpha	89.997955
_cell_angle_beta	90.007026
_cell_angle_gamma	83.480495
loop_
_atom_site_label
_atom_site_type_symbol
_atom_site_fract_x
_atom_site_fract_y
_atom_site_fract_z
O1	O	1.111018	0.107689	0.076261
O2	O	1.611018	0.607689	0.576261
O3	O	0.867236	0.121067	0.076256
O4	O	1.367236	0.621067	0.576256
O5	O	0.995791	-0.007511	0.076258
O6	O	1.495791	0.492489	0.576258
O7	O	0.982463	0.236267	0.076259
O8	O	1.482463	0.736267	0.576259
O9	O	0.995775	-0.007503	-0.076223
O10	O	1.495775	0.492497	0.423777
O11	O	0.867221	0.121075	-0.076224
O12	O	1.367221	0.621075	0.423776
O13	O	1.111002	0.107697	-0.076220
O14	O	1.611002	0.607697	0.423780
Cu15	Cu	0.989110	0.114386	-0.090145
Cu16	Cu	1.489110	0.614386	0.409855
Cu17	Cu	0.989129	0.114377	0.090181
Cu18	Cu	1.489129	0.614377	0.590181
O19	O	0.982448	0.236275	-0.076222
O20	O	1.482448	0.736275	0.423778
C21	C	0.836033	0.120527	0.000016
C22	C	1.336033	0.620527	0.500016
C23	C	0.743080	0.118894	0.000014
C24	C	1.243080	0.618894	0.500014
C25	C	0.405341	0.112893	0.000024
C26	C	0.905341	0.612893	0.500024
C27	C	0.428654	0.205697	0.000365
C28	C	0.928654	0.705697	0.500365
C29	C	0.525329	0.207461	0.000018
C30	C	1.025329	0.707461	0.500018
C31	C	0.572897	0.115871	0.000020
C32	C	1.072897	0.615871	0.500020
C33	C	0.543787	0.069477	-0.087051
C34	C	1.043787	0.569477	0.412949
C35	C	0.446996	0.068360	-0.087120
C36	C	0.946996	0.568360	0.412880
C37	C	0.447158	0.066456	0.086279
C38	C	0.947158	0.566456	0.586279
C39	C	0.543651	0.069896	0.087426
C40	C	1.043651	0.569896	0.587426
C41	C	0.667593	0.117549	0.000014
C42	C	1.167593	0.617549	0.500014
C43	C	0.310646	0.111212	0.000024
C44	C	0.810646	0.611212	0.500024
C45	C	0.995232	-0.038702	0.000019
C46	C	1.495232	0.461298	0.500019
C47	C	0.993580	-0.131652	0.000024
C48	C	1.493580	0.368348	0.500024
C49	C	0.987648	-0.469398	0.000021
C50	C	1.487648	0.030602	0.500021
C51	C	0.896094	-0.421945	0.000361
C52	C	1.396094	0.078055	0.500361
C53	C	0.897746	-0.325255	0.000018
C54	C	1.397746	0.174745	0.500018
C55	C	0.990591	-0.301838	0.000023
C56	C	1.490591	0.198162	0.500023
C57	C	1.035740	-0.342921	-0.087048
C58	C	1.535740	0.157079	0.412952
C59	C	1.033440	-0.439556	-0.087121
C60	C	1.533440	0.060444	0.412879
C61	C	1.035349	-0.439923	0.086278
C62	C	1.535349	0.060077	0.586278
C63	C	1.035327	-0.342978	0.087429
C64	C	1.535327	0.157022	0.587429
C65	C	0.992259	-0.207141	0.000021
C66	C	1.492259	0.292859	0.500021
C67	C	0.985983	-0.564095	0.000017
C68	C	1.485983	-0.064095	0.500017
C69	C	1.142206	0.108237	0.000023
C70	C	1.642206	0.608237	0.500023
C71	C	1.235159	0.109870	0.000030
C72	C	1.735159	0.609870	0.500030
C73	C	0.983006	0.267466	0.000019
C74	C	1.483006	0.767466	0.500019
C75	C	0.984658	0.360416	0.000020
C76	C	1.484658	0.860416	0.500020
N77	N	0.989103	0.114392	-0.216977
N78	N	1.489103	0.614392	0.283023
C79	C	1.039899	0.165182	-0.451982
C80	C	1.539899	0.665182	0.048018
C81	C	1.039908	0.165176	-0.547963
C82	C	1.539908	0.665176	-0.047963
C83	C	0.938345	0.063570	-0.547975
C84	C	1.438345	0.563570	-0.047975
C85	C	0.938341	0.063572	-0.451996
C86	C	1.438341	0.563572	0.048004
C87	C	0.989116	0.114382	-0.404002
C88	C	1.489116	0.614382	0.095998
C89	C	0.989129	0.114375	-0.595962
C90	C	1.489129	0.614375	-0.095962
C91	C	0.989138	0.114368	-0.700029
C92	C	1.489138	0.614368	-0.200029
C93	C	0.989109	0.114388	-0.299928
C94	C	1.489109	0.614388	0.200072
N95	N	0.989142	0.114365	0.217013
N96	N	1.489142	0.614365	0.717013
H97	H	0.563839	0.101701	-0.151851
H98	H	1.063839	0.601701	0.348149
O99	O	0.568251	0.114643	0.172751
O100	O	1.068251	0.614643	0.672751
H101	H	0.610740	0.070622	0.215185
H102	H	1.110740	0.570622	0.715185
O103	O	0.847820	-0.447876	-0.081887
O104	O	1.347820	0.052124	0.418113
H105	H	0.827783	-0.391692	-0.124544
H106	H	1.327783	0.108308	0.375456
H107	H	1.102852	-0.471698	0.086867
H108	H	1.602852	0.028302	0.586867
O109	O	0.883577	0.008778	-0.400221
O110	O	1.383577	0.508778	0.099779
H111	H	0.816650	0.026969	-0.418633
H112	H	1.316650	0.526969	0.081367
H113	H	1.081244	0.206555	-0.412908
H114	H	1.581244	0.706555	0.087092
O115	O	0.850419	-0.288329	-0.082814
O116	O	1.350419	0.211671	0.417186
H117	H	0.784311	-0.303041	-0.079791
H118	H	1.284311	0.196959	0.420209
H119	H	0.400664	0.241465	0.062809
H120	H	0.900664	0.741465	0.562809
O121	O	0.883571	0.008777	-0.599739
O122	O	1.383571	0.508777	-0.099739
H123	H	0.892096	0.017317	-0.674541
H124	H	1.392096	0.517317	-0.174541
O125	O	0.550550	0.255597	0.082684
O126	O	1.050550	0.755597	0.582684
H127	H	0.493646	0.277825	0.123269
H128	H	0.993646	0.777825	0.623269
H129	H	0.433165	-0.001854	0.086869
H130	H	0.933165	0.498146	0.586869
O131	O	0.390230	0.252825	-0.081891
O132	O	0.890230	0.752825	0.418109
H133	H	0.354602	0.210438	-0.123016
H134	H	0.854602	0.710438	0.376984
O135	O	0.587316	-0.018662	0.094388
O136	O	1.087316	0.481338	0.594388
H137	H	0.656346	-0.016675	0.098639
H138	H	1.156346	0.483325	0.598639
H139	H	1.103034	-0.327630	0.092690
H140	H	1.603034	0.172370	0.592690
O141	O	0.549724	0.255783	-0.082868
O142	O	1.049724	0.755783	0.417132
H143	H	0.492436	0.277985	-0.122857
H144	H	0.992436	0.777985	0.377143
O145	O	0.411453	0.110937	-0.173329
O146	O	0.911453	0.610937	0.326671
H147	H	0.463421	0.132132	-0.214574
H148	H	0.963421	0.632132	0.285426
H149	H	1.100657	-0.471818	-0.091068
H150	H	1.600657	0.028182	0.408932
O151	O	1.094682	0.219970	-0.599707
O152	O	1.594682	0.719970	-0.099707
H153	H	1.139693	0.179842	-0.643414
H154	H	1.639693	0.679842	-0.143414
O155	O	1.126089	-0.324220	-0.091348
O156	O	1.626089	0.175780	0.408652
H157	H	1.160090	-0.349890	-0.029325
H158	H	1.660090	0.150110	0.470675
O159	O	0.409738	0.104947	0.173706
O160	O	0.909738	0.604947	0.673706
H161	H	0.460033	0.129013	0.215203
H162	H	0.960033	0.629013	0.715203
H163	H	0.575654	0.002079	-0.090288
H164	H	1.075654	0.502079	0.409712
O165	O	0.427710	-0.021766	-0.092371
O166	O	0.927710	0.478234	0.407629
H167	H	0.487493	-0.064360	-0.094857
H168	H	0.987493	0.435640	0.405143
H169	H	0.859507	-0.440472	0.062802
H170	H	1.359507	0.059528	0.562802
O171	O	0.850719	-0.287588	0.082680
O172	O	1.350719	0.212412	0.582680
H173	H	0.826587	-0.338428	0.123261
H174	H	1.326587	0.161572	0.623261
H175	H	1.000504	-0.457847	-0.152213
H176	H	1.500504	0.042153	0.347787
O177	O	0.994195	-0.305319	-0.172890
O178	O	1.494195	0.194681	0.327110
H179	H	0.941397	-0.257384	-0.153759
H180	H	1.441397	0.242616	0.346241
H181	H	1.005422	-0.460460	0.152273
H182	H	1.505422	0.039540	0.652273
H183	H	1.002318	-0.315725	0.151842
H184	H	1.502318	0.184275	0.651842
