data_functionalizedCrystal
_audit_creation_method	'MofGen! by Chris Wilmer'
_symmetry_space_group_name_H-M	'P1'
_symmetry_Int_Tables_number	1
_symmetry_cell_setting	triclinic
loop_
_symmetry_equiv_pos_as_xyz
  x,y,z
_cell_length_a	13.032831
_cell_length_b	13.032721
_cell_length_c	13.032268
_cell_angle_alpha	76.710373
_cell_angle_beta	89.113023
_cell_angle_gamma	90.902885
loop_
_atom_site_label
_atom_site_type_symbol
_atom_site_fract_x
_atom_site_fract_y
_atom_site_fract_z
Zn1	Zn	-1.399428	0.702884	-0.857492
Zn2	Zn	-0.899428	1.202884	-0.357492
Zn3	Zn	-1.399318	0.857952	-0.702424
Zn4	Zn	-0.899318	1.357952	-0.202424
Zn5	Zn	-1.255414	0.659406	-0.658991
Zn6	Zn	-0.755414	1.159406	-0.158991
Zn7	Zn	-1.206359	0.852325	-0.851935
Zn8	Zn	-0.706359	1.352325	-0.351935
O9	O	-1.315130	0.768142	-0.767710
O10	O	-0.815130	1.268142	-0.267710
O11	O	-1.540438	0.744005	-0.857424
O12	O	-1.040438	1.244005	-0.357424
O13	O	-1.400712	0.815774	-0.551018
O14	O	-0.900712	1.315774	-0.051018
O15	O	-1.295093	0.519539	-0.669471
O16	O	-0.795093	1.019539	-0.169471
O17	O	-1.540357	0.857933	-0.743496
O18	O	-1.040357	1.357933	-0.243496
O19	O	-1.400900	0.551483	-0.815309
O20	O	-0.900900	1.051483	-0.315309
O21	O	-1.294986	0.669903	-0.519108
O22	O	-0.794986	1.169903	-0.019108
O23	O	-1.107882	0.664446	-0.664083
O24	O	-0.607882	1.164446	-0.164083
O25	O	-1.211487	0.848342	-0.998317
O26	O	-0.711487	1.348342	-0.498317
O27	O	-1.071842	0.806183	-0.805839
O28	O	-0.571842	1.306183	-0.305839
O29	O	-1.353334	0.738549	-1.002399
O30	O	-0.853334	1.238549	-0.502399
O31	O	-1.353146	1.002840	-0.738108
O32	O	-0.853146	1.502840	-0.238108
O33	O	-1.211380	0.998706	-0.847953
O34	O	-0.711380	1.498706	-0.347953
C35	C	-1.276952	1.038540	-0.797167
C36	C	-0.776952	1.538540	-0.297167
C37	C	-1.260707	1.154235	-0.809817
C38	C	-0.760707	1.654235	-0.309817
C39	C	-1.053296	0.729987	-0.729646
C40	C	-0.553296	1.229987	-0.229646
C41	C	-0.941275	0.713692	-0.713389
C42	C	-0.441275	1.213692	-0.213389
C43	C	-1.276951	0.797668	-1.039178
C44	C	-0.776951	1.297668	-0.539178
C45	C	-1.260681	0.810250	-1.154861
C46	C	-0.760681	1.310250	-0.654861
C47	C	-1.577986	0.806447	-0.805925
C48	C	-1.077986	1.306447	-0.305925
C49	C	-1.690000	0.822770	-0.822209
C50	C	-1.190000	1.322770	-0.322209
C51	C	-0.873527	0.776647	-0.776195
C52	C	-0.373527	1.276647	-0.276195
C53	C	-0.757747	0.759806	-0.759394
C54	C	-0.257747	1.259806	-0.259394
C55	C	-1.353481	0.496694	-0.738165
C56	C	-0.853481	0.996694	-0.238165
C57	C	-1.369823	0.381019	-0.725575
C58	C	-0.869823	0.881019	-0.225575
C59	C	-1.323655	1.207840	-0.761163
C60	C	-0.823655	1.707840	-0.261163
C61	C	-1.306867	1.327417	-0.774236
C62	C	-0.806867	1.827417	-0.274236
C63	C	-1.323611	0.761535	-1.208456
C64	C	-0.823611	1.261535	-0.708456
C65	C	-1.306797	0.774538	-1.328021
C66	C	-0.806797	1.274538	-0.828021
C67	C	-1.353229	0.738664	-0.497299
C68	C	-0.853229	1.238664	0.002701
C69	C	-1.369735	0.725817	-0.381613
C70	C	-0.869735	1.225817	0.118387
H71	H	-0.901241	0.843009	-0.842407
H72	H	-0.401241	1.343009	-0.342407
H73	H	-1.240544	1.370047	-0.825578
H74	H	-0.740544	1.870047	-0.325578
Br75	Br	-1.480380	1.309981	-0.640017
Br76	Br	-0.980380	1.809981	-0.140017
H77	H	-0.913561	0.647322	-0.647184
H78	H	-0.413561	1.147322	-0.147184
H79	H	-0.730039	0.693432	-0.693185
H80	H	-0.230039	1.193432	-0.193185
H81	H	-1.194352	0.861574	-1.197492
H82	H	-0.694352	1.361574	-0.697492
Br83	Br	-1.434208	1.136795	-0.675611
Br84	Br	-0.934208	1.636795	-0.175611
H85	H	-1.194390	1.196870	-0.861155
H86	H	-0.694390	1.696870	-0.361155
Br87	Br	-0.736171	0.933376	-0.932590
Br88	Br	-0.236171	1.433376	-0.432590
H89	H	-1.389932	0.710199	-1.165823
H90	H	-0.889932	1.210199	-0.665823
Br91	Br	-1.196236	0.860093	-1.399060
Br92	Br	-0.696236	1.360093	-0.899060
Br93	Br	-1.480301	0.640267	-1.310578
Br94	Br	-0.980301	1.140267	-0.810578
