data_functionalizedCrystal
_audit_creation_method	'MofGen! by Chris Wilmer'
_symmetry_space_group_name_H-M	'P1'
_symmetry_Int_Tables_number	1
_symmetry_cell_setting	triclinic
loop_
_symmetry_equiv_pos_as_xyz
  x,y,z
_cell_length_a	10.654550
_cell_length_b	23.532407
_cell_length_c	9.730223
_cell_angle_alpha	89.990960
_cell_angle_beta	89.999957
_cell_angle_gamma	83.666804
loop_
_atom_site_label
_atom_site_type_symbol
_atom_site_fract_x
_atom_site_fract_y
_atom_site_fract_z
O1	O	1.665305	0.079985	-0.114203
O2	O	1.299585	0.087605	-0.114230
O3	O	1.493473	0.000935	-0.114191
O4	O	1.471417	0.166655	-0.114242
O5	O	1.493461	0.000933	0.114389
O6	O	1.299573	0.087603	0.114350
O7	O	1.665293	0.079982	0.114377
Zn8	Zn	1.482431	0.083792	0.150655
Zn9	Zn	1.482447	0.083795	-0.150508
O10	O	1.471404	0.166652	0.114337
C11	C	1.252799	0.087044	0.000057
C12	C	1.113408	0.085370	0.000048
C13	C	1.032306	0.136400	0.000036
C14	C	0.901335	0.134824	0.000060
C15	C	0.932582	0.031183	0.000103
C16	C	1.063550	0.032760	0.000089
C17	C	1.492905	-0.020286	0.000103
C18	C	1.491217	-0.083514	0.000113
C19	C	1.595364	-0.481938	0.000046
C20	C	1.593795	-0.541349	0.000035
O21	O	1.690341	-0.577464	-0.000009
N22	N	1.478529	-0.564726	0.000028
C23	C	1.364824	-0.528689	0.000017
O24	O	1.266636	-0.554029	0.000008
C25	C	1.366394	-0.469280	0.000018
C26	C	1.481668	-0.445906	0.000039
C27	C	1.710629	-0.458564	0.000066
C28	C	1.712197	-0.399158	0.000079
C29	C	1.598500	-0.363126	0.000072
C30	C	1.483236	-0.386500	0.000052
C31	C	1.252690	-0.433244	-0.000003
C32	C	1.254270	-0.373831	-0.000003
C33	C	1.369544	-0.350458	0.000018
C34	C	1.371107	-0.291061	0.000058
N35	N	1.486374	-0.267684	0.000066
C36	C	1.600070	-0.303716	0.000073
C37	C	1.361535	-0.653453	0.000013
C38	C	1.359964	-0.712861	0.000022
C39	C	1.588936	-0.725517	0.000038
C40	C	1.590506	-0.666108	0.000038
C41	C	1.476802	-0.630076	0.000020
C42	C	1.603355	-0.178958	0.000101
C43	C	1.604913	-0.119546	0.000120
C44	C	1.375942	-0.106896	0.000097
C45	C	1.374383	-0.166303	0.000086
C46	C	1.488100	-0.202333	0.000083
O47	O	1.274613	-0.254911	0.000096
O48	O	1.698241	-0.278369	0.000063
C49	C	1.712079	0.080543	0.000087
C50	C	1.851469	0.082217	0.000087
C51	C	1.471972	0.187873	0.000041
C52	C	1.473661	0.251101	0.000022
N53	N	1.482429	0.083790	0.356192
N54	N	1.482459	0.083793	-0.356045
C55	C	1.568311	0.045429	0.428135
C56	C	1.568324	0.045429	0.572018
C57	C	1.396567	0.122156	0.572002
C58	C	1.396550	0.122153	0.428121
H59	H	1.695954	-0.208288	0.000094
C60	C	1.662771	0.003232	0.349011
H61	H	1.650473	0.008728	0.253016
H62	H	1.649625	-0.034833	0.372609
H63	H	1.746500	0.009779	0.372581
H64	H	1.684372	-0.647081	0.000055
C65	C	0.877739	-0.026685	0.000131
H66	H	0.944802	-0.056850	0.000148
H67	H	0.827292	-0.029454	-0.079575
H68	H	0.827305	-0.029454	0.079857
C69	C	0.812122	0.190955	0.000040
H70	H	0.726980	0.182484	0.000069
H71	H	0.827158	0.212504	-0.079684
H72	H	0.827178	0.212506	0.079748
H73	H	1.129588	-0.008797	0.000102
H74	H	1.638255	0.014191	0.630591
C75	C	1.302120	0.164358	0.651128
H76	H	1.314438	0.158870	0.747123
H77	H	1.218389	0.157821	0.627569
H78	H	1.315286	0.202423	0.627521
C79	C	1.236452	-0.613823	0.000019
H80	H	1.167587	-0.636259	0.000027
H81	H	1.232294	-0.590376	-0.079688
H82	H	1.232300	-0.590392	0.079744
H83	H	1.326608	0.153391	0.369541
H84	H	1.158822	-0.452264	-0.000029
H85	H	1.161675	-0.344497	-0.000020
H86	H	1.072896	0.179239	0.000013
C87	C	1.233166	-0.738569	0.000014
H88	H	1.248503	-0.779112	0.000018
H89	H	1.186389	-0.726222	-0.079697
H90	H	1.186386	-0.726237	0.079735
H91	H	1.280517	-0.185334	0.000106
C92	C	1.838996	-0.373451	0.000094
H93	H	1.823664	-0.332908	0.000108
H94	H	1.885780	-0.385785	-0.079613
H95	H	1.885766	-0.385798	0.079819
H96	H	1.681514	-0.754865	0.000038
H97	H	1.698787	-0.100519	0.000141
C98	C	1.835706	-0.498191	0.000084
H99	H	1.904567	-0.475753	0.000106
H100	H	1.839880	-0.521628	-0.079621
H101	H	1.839849	-0.521631	0.079811
C102	C	1.250886	-0.067253	0.000082
H103	H	1.268339	-0.028525	0.000075
H104	H	1.203570	-0.074390	0.079780
H105	H	1.203604	-0.074381	-0.079652
