data_functionalizedCrystal
_audit_creation_method	'MofGen! by Chris Wilmer'
_symmetry_space_group_name_H-M	'P1'
_symmetry_Int_Tables_number	1
_symmetry_cell_setting	triclinic
loop_
_symmetry_equiv_pos_as_xyz
  x,y,z
_cell_length_a	19.805407
_cell_length_b	12.759394
_cell_length_c	19.805399
_cell_angle_alpha	90.022004
_cell_angle_beta	90.019573
_cell_angle_gamma	90.014642
loop_
_atom_site_label
_atom_site_type_symbol
_atom_site_fract_x
_atom_site_fract_y
_atom_site_fract_z
Zn1	Zn	1.034791	-0.418291	0.382746
Zn2	Zn	1.534791	0.081709	0.882746
Zn3	Zn	1.034729	-0.593984	0.269569
Zn4	Zn	1.534729	-0.093984	0.769569
Zn5	Zn	0.921606	-0.418320	0.269570
Zn6	Zn	1.421606	0.081680	0.769570
Zn7	Zn	0.921592	-0.593928	0.382715
Zn8	Zn	1.421592	-0.093928	0.882715
O9	O	0.978180	-0.506131	0.326150
O10	O	1.478180	-0.006131	0.826150
O11	O	1.129499	-0.441608	0.367745
O12	O	1.629499	0.058392	0.867745
O13	O	1.019703	-0.570717	0.174852
O14	O	1.519703	-0.070717	0.674852
O15	O	0.936651	-0.271295	0.284597
O16	O	1.436651	0.228705	0.784597
O17	O	1.129454	-0.570689	0.284594
O18	O	1.629454	-0.070689	0.784594
O19	O	1.019808	-0.271274	0.367746
O20	O	1.519808	0.228726	0.867746
O21	O	0.936591	-0.441658	0.174854
O22	O	1.436591	0.058342	0.674854
O23	O	0.826887	-0.441603	0.284567
O24	O	1.326887	0.058397	0.784567
O25	O	0.936629	-0.570594	0.477436
O26	O	1.436629	-0.070594	0.977436
O27	O	0.826878	-0.570622	0.367695
O28	O	1.326878	-0.070622	0.867695
O29	O	1.019795	-0.441554	0.477458
O30	O	1.519795	0.058446	0.977458
O31	O	1.019690	-0.740998	0.284564
O32	O	1.519690	-0.240998	0.784564
O33	O	0.936569	-0.740957	0.367693
O34	O	1.436569	-0.240957	0.867693
C35	C	0.802324	-0.506111	0.326128
C36	C	1.302324	-0.006111	0.826128
C37	C	0.727092	-0.506127	0.326135
C38	C	1.227092	-0.006127	0.826135
C39	C	0.978140	-0.779098	0.326140
C40	C	1.478140	-0.279098	0.826140
C41	C	0.978184	-0.895875	0.326158
C42	C	1.478184	-0.395875	0.826158
C43	C	0.691760	-0.573409	0.369349
C44	C	1.191760	-0.073409	0.869349
C45	C	0.621072	-0.573411	0.369359
C46	C	1.121072	-0.073411	0.869359
C47	C	0.585716	-0.506136	0.326150
C48	C	1.085716	-0.006136	0.826150
C49	C	0.621052	-0.438847	0.282934
C50	C	1.121052	0.061153	0.782934
C51	C	0.691740	-0.438841	0.282928
C52	C	1.191740	0.061159	0.782928
C53	C	0.335979	-0.438870	0.282956
C54	C	0.835979	0.061130	0.782956
C55	C	0.265287	-0.438884	0.282964
C56	C	0.765287	0.061116	0.782964
C57	C	0.265311	-0.573440	0.369387
C58	C	0.765311	-0.073440	0.869387
C59	C	0.335998	-0.573434	0.369381
C60	C	0.835998	-0.073434	0.869381
C61	C	0.371329	-0.506142	0.326168
C62	C	0.871329	-0.006142	0.826168
C63	C	0.447977	-0.506139	0.326159
C64	C	0.947977	-0.006139	0.826159
C65	C	0.509069	-0.506143	0.326155
C66	C	1.009069	-0.006143	0.826155
C67	C	1.064882	-1.115288	0.239689
C68	C	1.564882	-0.615288	0.739689
C69	C	1.108175	-1.060411	0.196436
C70	C	1.608175	-0.560411	0.696436
C71	C	1.108140	-0.950689	0.196423
C72	C	1.608140	-0.450689	0.696423
C73	C	1.064806	-0.895842	0.239666
C74	C	1.564806	-0.395842	0.739666
C75	C	1.021513	-0.950719	0.282918
C76	C	1.521513	-0.450719	0.782918
C77	C	1.021554	-1.060443	0.282929
C78	C	1.521554	-0.560443	0.782929
C79	C	0.934891	-0.950752	0.369411
C80	C	1.434891	-0.450752	0.869411
C81	C	0.934929	-1.060474	0.369429
C82	C	1.434929	-0.560474	0.869429
C83	C	0.891557	-0.895905	0.412654
C84	C	1.391557	-0.395905	0.912654
C85	C	0.848266	-0.950782	0.455911
C86	C	1.348266	-0.450782	0.955911
C87	C	0.848304	-1.060511	0.455923
C88	C	1.348304	-0.560511	0.955923
C89	C	0.891636	-1.115351	0.412682
C90	C	1.391636	-0.615351	0.912682
C91	C	1.154722	-0.506152	0.326172
C92	C	1.654722	-0.006152	0.826172
C93	C	1.229954	-0.506161	0.326182
C94	C	1.729954	-0.006161	0.826182
C95	C	0.978218	-0.506065	0.502693
C96	C	1.478218	-0.006065	1.002693
C97	C	0.978234	-0.506036	0.577925
C98	C	1.478234	-0.006036	1.077925
C99	C	0.978238	-0.232097	0.326175
C100	C	1.478238	0.267903	0.826175
C101	C	0.978263	-0.115321	0.326186
C102	C	1.478263	0.384679	0.826186
C103	C	0.978181	-0.506121	0.150294
C104	C	1.478181	-0.006121	0.650294
C105	C	0.978296	-0.505853	0.075063
C106	C	1.478296	-0.005853	0.575063
C107	C	1.021539	-0.438842	0.613282
C108	C	1.521539	0.061158	1.113282
C109	C	1.021546	-0.438811	0.683970
C110	C	1.521546	0.061189	1.183970
C111	C	0.978251	-0.505982	0.719301
C112	C	1.478251	-0.005982	1.219301
C113	C	0.934940	-0.573179	0.683939
C114	C	1.434940	-0.073179	1.183939
C115	C	0.934930	-0.573203	0.613252
C116	C	1.434930	-0.073203	1.113252
C117	C	0.934978	-0.573081	0.969012
C118	C	1.434978	-0.073081	1.469012
C119	C	0.934993	-0.573054	1.039704
C120	C	1.434993	-0.073054	1.539704
C121	C	1.021594	-0.438689	1.039731
C122	C	1.521594	0.061311	1.539731
C123	C	1.021585	-0.438713	0.969044
C124	C	1.521585	0.061287	1.469044
C125	C	0.978272	-0.505907	0.933688
C126	C	1.478272	-0.005907	1.433688
C127	C	0.978264	-0.505937	0.857040
C128	C	1.478264	-0.005937	1.357040
C129	C	0.978261	-0.505957	0.795948
C130	C	1.478261	-0.005957	1.295948
H131	H	0.720542	-0.628195	0.404532
H132	H	1.220542	-0.128195	0.904532
F133	F	0.373623	-0.645041	0.415367
F134	F	0.873623	-0.145041	0.915367
F135	F	0.888836	-0.644719	0.575622
F136	F	1.388836	-0.144719	1.075622
F137	F	1.067690	-0.367172	1.077365
F138	F	1.567690	0.132828	1.577365
F139	F	1.067625	-0.367354	0.575687
F140	F	1.567625	0.132646	1.075687
F141	F	0.583472	-0.645020	0.415354
F142	F	1.083472	-0.145020	0.915354
H143	H	0.364737	-0.384085	0.247764
H144	H	0.864737	0.115915	0.747764
H145	H	1.056843	-0.384020	0.940281
H146	H	1.556843	0.115980	1.440281
H147	H	1.056812	-0.384097	0.712755
H148	H	1.556812	0.115903	1.212755
F149	F	0.802220	-1.118907	0.501956
F150	F	1.302220	-0.618907	1.001956
H151	H	0.812984	-0.906119	0.491113
H152	H	1.312984	-0.406119	0.991113
H153	H	0.899733	-0.627754	1.068468
H154	H	1.399733	-0.127754	1.568468
H155	H	0.899685	-0.627866	0.712710
H156	H	1.399685	-0.127866	1.212710
F157	F	0.227705	-0.645058	0.415379
F158	F	0.727705	-0.145058	0.915379
H159	H	1.064775	-0.806501	0.239645
H160	H	1.564775	-0.306501	0.739645
F161	F	1.064717	-1.232063	0.239494
F162	F	1.564717	-0.732063	0.739494
H163	H	0.899720	-0.627809	0.940234
H164	H	1.399720	-0.127809	1.440234
F165	F	0.729342	-0.367229	0.236935
F166	F	1.229342	0.132771	0.736935
F167	F	1.154212	-0.892283	0.150384
F168	F	1.654212	-0.392283	0.650384
H169	H	0.236502	-0.384094	0.247778
H170	H	0.736502	0.115906	0.747778
H171	H	0.592260	-0.384066	0.247756
H172	H	1.092260	0.115934	0.747756
F173	F	1.154293	-1.118790	0.150417
F174	F	1.654293	-0.618790	0.650417
H175	H	0.891529	-0.806564	0.412637
H176	H	1.391529	-0.306564	0.912637
H177	H	0.891673	-1.204692	0.412690
H178	H	1.391673	-0.704692	0.912690
