data_functionalizedCrystal
_audit_creation_method	'MofGen! by Chris Wilmer'
_symmetry_space_group_name_H-M	'P1'
_symmetry_Int_Tables_number	1
_symmetry_cell_setting	triclinic
loop_
_symmetry_equiv_pos_as_xyz
  x,y,z
_cell_length_a	19.121324
_cell_length_b	19.077105
_cell_length_c	19.077068
_cell_angle_alpha	89.884684
_cell_angle_beta	89.730754
_cell_angle_gamma	89.971547
loop_
_atom_site_label
_atom_site_type_symbol
_atom_site_fract_x
_atom_site_fract_y
_atom_site_fract_z
Zn1	Zn	-0.451074	-1.044503	-0.302975
Zn2	Zn	-0.338520	-1.044303	-0.425476
Zn3	Zn	-0.329161	-0.931991	-0.303676
Zn4	Zn	-0.450654	-0.922255	-0.415735
O5	O	-0.392352	-0.985763	-0.361965
O6	O	-0.440237	-1.142640	-0.323008
O7	O	-0.239329	-1.033395	-0.413689
O8	O	-0.341592	-0.951075	-0.205419
O9	O	-0.357544	-1.142493	-0.413009
O10	O	-0.431161	-1.033736	-0.204904
O11	O	-0.232453	-0.950881	-0.324203
O12	O	-0.341184	-0.832536	-0.314758
O13	O	-0.548659	-0.934480	-0.396407
O14	O	-0.430444	-0.825383	-0.397087
O15	O	-0.548968	-1.024295	-0.313563
O16	O	-0.357136	-1.023954	-0.522348
O17	O	-0.439520	-0.934286	-0.515191
C18	C	-0.384753	-0.803507	-0.354942
C19	C	-0.381520	-0.725535	-0.351954
C20	C	-0.399314	-0.978060	-0.544222
C21	C	-0.402318	-0.974828	-0.622194
C22	C	-0.574921	-0.978324	-0.353820
C23	C	-0.652720	-0.975154	-0.350349
C24	C	-0.692854	-1.016622	-0.395306
C25	C	-0.765955	-1.013644	-0.392036
C26	C	-0.798921	-0.969193	-0.343812
C27	C	-0.758782	-0.927723	-0.298850
C28	C	-0.685683	-0.930706	-0.302117
C29	C	-1.019455	-0.958042	-0.331614
C30	C	-1.092559	-0.955061	-0.328352
C31	C	-1.099727	-1.040983	-0.421537
C32	C	-1.026626	-1.043958	-0.424803
C33	C	-0.986493	-1.002492	-0.379838
C34	C	-0.873641	-0.966146	-0.340470
C35	C	-0.911774	-1.005543	-0.383178
C36	C	-0.210494	-0.993215	-0.370030
C37	C	-0.132693	-0.996530	-0.373309
C38	C	-0.399981	-1.168731	-0.369016
C39	C	-0.403232	-1.246701	-0.372021
C40	C	-0.426406	-0.685198	-0.393485
C41	C	-0.423371	-0.611936	-0.390668
C42	C	-0.375446	-0.579012	-0.346323
C43	C	-0.330557	-0.619355	-0.304787
C44	C	-0.333597	-0.692616	-0.307601
C45	C	-0.361383	-0.360304	-0.333299
C46	C	-0.358346	-0.287038	-0.330490
C47	C	-0.451161	-0.279624	-0.416370
C48	C	-0.454193	-0.352886	-0.419184
C49	C	-0.409307	-0.393223	-0.377645
N50	N	-0.372340	-0.504127	-0.343444
N51	N	-0.412416	-0.468107	-0.380521
C52	C	-0.360876	-1.020028	-0.662527
C53	C	-0.363706	-1.016993	-0.735790
C54	C	-0.407975	-0.968753	-0.768717
C55	C	-0.449423	-0.923551	-0.728378
C56	C	-0.446596	-0.926590	-0.655117
C57	C	-0.421029	-0.954655	-0.987427
C58	C	-0.423851	-0.951617	-1.060693
C59	C	-0.338134	-1.045060	-1.068100
C60	C	-0.335308	-1.048093	-0.994837
C61	C	-0.376758	-1.002893	-0.954504
N62	N	-0.410868	-0.965647	-0.843603
N63	N	-0.373869	-1.006003	-0.879620
C64	C	-0.385379	-0.993514	-0.178997
C65	C	-0.382408	-0.996817	-0.101027
H66	H	-0.666018	-1.052821	-0.434573
H67	H	-0.465430	-0.711999	-0.429598
H68	H	-0.324823	-1.059308	-0.635723
H69	H	-0.324829	-0.393137	-0.299481
F70	F	-0.279556	-0.584313	-0.257587
F71	F	-0.285824	-0.735545	-0.263396
H72	H	-0.900491	-0.929953	-0.301207
H73	H	-0.480344	-0.889784	-0.622278
F74	F	-1.127643	-0.907772	-0.277001
F75	F	-0.876688	-1.052852	-0.434496
F76	F	-0.319598	-1.065103	-0.778713
F77	F	-0.471145	-0.569009	-0.434871
F78	F	-0.288198	-1.099444	-0.959799
F79	F	-1.142443	-1.085113	-0.469387
F80	F	-0.496542	-0.872213	-0.763424
F81	F	-0.307331	-0.252000	-0.283294
F82	F	-0.498927	-0.236691	-0.460577
F83	F	-0.294026	-1.093164	-1.111029
H84	H	-0.493217	-0.379688	-0.455296
H85	H	-0.986787	-0.924274	-0.295003
H86	H	-0.459913	-0.912342	-1.087500
H87	H	-0.653007	-0.896940	-0.265507
F88	F	-0.465143	-0.906548	-0.944511
H89	H	-0.785629	-0.891534	-0.259582
F90	F	-0.808664	-1.057777	-0.439889
H91	H	-0.999790	-1.080143	-0.464083
