data_functionalizedCrystal
_audit_creation_method	'MofGen! by Chris Wilmer'
_symmetry_space_group_name_H-M	'P1'
_symmetry_Int_Tables_number	1
_symmetry_cell_setting	triclinic
loop_
_symmetry_equiv_pos_as_xyz
  x,y,z
_cell_length_a	16.625548
_cell_length_b	16.120484
_cell_length_c	16.120704
_cell_angle_alpha	84.364775
_cell_angle_beta	87.110717
_cell_angle_gamma	92.926626
loop_
_atom_site_label
_atom_site_type_symbol
_atom_site_fract_x
_atom_site_fract_y
_atom_site_fract_z
Zn1	Zn	1.191057	-0.356910	0.489465
Zn2	Zn	1.524390	-0.023576	0.822799
Zn3	Zn	1.857723	0.309757	1.156132
Zn4	Zn	1.190983	-0.489549	0.356773
Zn5	Zn	1.524316	-0.156216	0.690106
Zn6	Zn	1.857649	0.177117	1.023439
Zn7	Zn	1.063450	-0.349795	0.349708
Zn8	Zn	1.396783	-0.016462	0.683041
Zn9	Zn	1.730116	0.316871	1.016375
Zn10	Zn	1.048983	-0.496646	0.496498
Zn11	Zn	1.382316	-0.163312	0.829832
Zn12	Zn	1.715649	0.170021	1.163165
O13	O	1.123618	-0.423225	0.423111
O14	O	1.456951	-0.089892	0.756444
O15	O	1.790285	0.243442	1.089778
O16	O	1.303878	-0.374512	0.471876
O17	O	1.637211	-0.041179	0.805210
O18	O	1.970545	0.292155	1.138543
O19	O	1.180089	-0.465063	0.238871
O20	O	1.513422	-0.131730	0.572204
O21	O	1.846755	0.201603	0.905538
O22	O	1.086463	-0.233771	0.362347
O23	O	1.419796	0.099562	0.695681
O24	O	1.753129	0.432895	1.029014
O25	O	1.303824	-0.471962	0.374388
O26	O	1.637157	-0.138628	0.707721
O27	O	1.970490	0.194705	1.041055
O28	O	1.180215	-0.238998	0.465026
O29	O	1.513548	0.094335	0.798360
O30	O	1.846881	0.427668	1.131693
O31	O	1.086391	-0.362387	0.233681
O32	O	1.419724	-0.029053	0.567014
O33	O	1.753057	0.304280	0.900347
O34	O	0.948699	-0.369268	0.369167
O35	O	1.282033	-0.035935	0.702500
O36	O	1.615366	0.297399	1.035834
O37	O	1.061806	-0.484057	0.612530
O38	O	1.395139	-0.150723	0.945863
O39	O	1.728472	0.182610	1.279197
O40	O	0.938070	-0.477158	0.477013
O41	O	1.271404	-0.143825	0.810346
O42	O	1.604737	0.189508	1.143680
O43	O	1.166187	-0.381393	0.607363
O44	O	1.499520	-0.048060	0.940696
O45	O	1.832853	0.285274	1.274029
O46	O	1.166061	-0.607458	0.381208
O47	O	1.499394	-0.274125	0.714541
O48	O	1.832727	0.059209	1.047874
O49	O	1.061734	-0.612672	0.483863
O50	O	1.395067	-0.279339	0.817197
O51	O	1.728400	0.053995	1.150530
C52	C	0.914129	-0.423212	0.423087
C53	C	1.247462	-0.089878	0.756420
C54	C	1.580796	0.243455	1.089754
C55	C	0.824506	-0.423227	0.423098
C56	C	1.157840	-0.089894	0.756431
C57	C	1.491173	0.243439	1.089764
C58	C	0.496329	-0.423235	0.423134
C59	C	0.829662	-0.089901	0.756467
C60	C	1.162995	0.243432	1.089800
C61	C	0.587638	-0.423230	0.423121
C62	C	0.920971	-0.089897	0.756454
C63	C	1.254305	0.243437	1.089788
C64	C	0.660415	-0.423231	0.423115
C65	C	0.993748	-0.089898	0.756448
C66	C	1.327081	0.243435	1.089782
C67	C	0.751730	-0.423226	0.423104
C68	C	1.085063	-0.089893	0.756437
C69	C	1.418396	0.243441	1.089770
C70	C	1.112340	-0.640394	0.434083
C71	C	1.445674	-0.307061	0.767417
C72	C	1.779007	0.026272	1.100750
C73	C	1.107588	-0.733302	0.438805
C74	C	1.440921	-0.399968	0.772139
C75	C	1.774255	-0.066635	1.105472
C76	C	1.098915	-0.903405	0.447444
C77	C	1.432248	-0.570072	0.780777
C78	C	1.765582	-0.236739	1.114110
C79	C	1.148464	-0.942205	0.398792
C80	C	1.481798	-0.608871	0.732125
C81	C	1.815131	-0.275538	1.065459
C82	C	1.143639	-1.036856	0.403599
C83	C	1.476972	-0.703523	0.736932
C84	C	1.810306	-0.370190	1.070265
C85	C	1.103740	-0.808745	0.442638
C86	C	1.437073	-0.475412	0.775972
C87	C	1.770406	-0.142079	1.109305
C88	C	1.333925	-0.423239	0.423136
C89	C	1.667258	-0.089905	0.756469
C90	C	2.000592	0.243428	1.089802
C91	C	1.423545	-0.423245	0.423146
C92	C	1.756879	-0.089911	0.756479
C93	C	2.090212	0.243422	1.089813
C94	C	1.112391	-0.434310	0.641122
C95	C	1.445724	-0.100977	0.974455
C96	C	1.779057	0.232357	1.307788
C97	C	1.107606	-0.439034	0.734025
C98	C	1.440940	-0.105701	1.067358
C99	C	1.774273	0.227633	1.400692
C100	C	1.134961	-0.205208	0.412114
C101	C	1.468294	0.128125	0.745447
C102	C	1.801627	0.461458	1.078781
C103	C	1.139794	-0.112303	0.407428
C104	C	1.473128	0.221031	0.740761
C105	C	1.806461	0.554364	1.074095
C106	C	1.148361	-0.398917	0.942954
C107	C	1.481694	-0.065584	1.276288
C108	C	1.815028	0.267750	1.609621
C109	C	1.098846	-0.447624	0.904113
C110	C	1.432179	-0.114290	1.237446
C111	C	1.765513	0.219043	1.570779
C112	C	1.103722	-0.442843	0.809467
C113	C	1.437055	-0.109510	1.142800
C114	C	1.770388	0.223824	1.476134
C115	C	1.143486	-0.403697	1.037609
C116	C	1.476820	-0.070363	1.370942
C117	C	1.810153	0.262970	1.704275
C118	C	1.134799	-0.412210	1.205950
C119	C	1.468133	-0.078876	1.539283
C120	C	1.801466	0.254457	1.872616
C121	C	1.139598	-0.407509	1.113048
C122	C	1.472931	-0.074176	1.446381
C123	C	1.806265	0.259157	1.779714
H124	H	1.052874	-0.941271	0.492701
H125	H	1.386207	-0.607938	0.826034
H126	H	1.719540	-0.274604	1.159368
C127	C	1.255379	-0.293669	0.946161
C128	C	1.588713	0.039664	1.279494
C129	C	1.922046	0.372997	1.612827
C130	C	1.210533	-0.337784	0.891896
C131	C	1.543866	-0.004450	1.225230
C132	C	1.877199	0.328883	1.558563
H133	H	1.293758	-0.255928	0.914630
H134	H	1.627091	0.077406	1.247964
H135	H	1.960425	0.410739	1.581297
H136	H	1.282602	-0.331776	0.982063
H137	H	1.615936	0.001557	1.315396
H138	H	1.949269	0.334891	1.648729
H139	H	1.220190	-0.263375	0.978581
H140	H	1.553523	0.069958	1.311914
H141	H	1.886856	0.403292	1.645248
H142	H	1.245722	-0.368083	0.859480
H143	H	1.579055	-0.034750	1.192814
H144	H	1.912389	0.298584	1.526147
H145	H	1.183308	-0.299672	0.855980
H146	H	1.516642	0.033662	1.189313
H147	H	1.849975	0.366995	1.522646
H148	H	1.052788	-0.492909	0.941940
H149	H	1.386122	-0.159576	1.275274
H150	H	1.719455	0.173758	1.608607
H151	H	1.194508	-0.904336	0.353530
H152	H	1.527842	-0.571003	0.686863
H153	H	1.861175	-0.237670	1.020197
