data_functionalizedCrystal
_audit_creation_method	'MofGen! by Chris Wilmer'
_symmetry_space_group_name_H-M	'P1'
_symmetry_Int_Tables_number	1
_symmetry_cell_setting	triclinic
loop_
_symmetry_equiv_pos_as_xyz
  x,y,z
_cell_length_a	18.215407
_cell_length_b	12.759400
_cell_length_c	12.759393
_cell_angle_alpha	90.031769
_cell_angle_beta	89.979286
_cell_angle_gamma	89.984868
loop_
_atom_site_label
_atom_site_type_symbol
_atom_site_fract_x
_atom_site_fract_y
_atom_site_fract_z
Zn1	Zn	1.125131	0.418190	-0.594075
Zn2	Zn	1.125059	0.593909	-0.418395
Zn3	Zn	1.002061	0.418246	-0.418404
Zn4	Zn	1.002051	0.593828	-0.594026
O5	O	1.063575	0.506043	-0.506225
O6	O	1.228105	0.441509	-0.570787
O7	O	1.108717	0.570664	-0.271375
O8	O	1.018421	0.271218	-0.441731
O9	O	1.228053	0.570610	-0.441716
O10	O	1.108839	0.271176	-0.570796
O11	O	1.018351	0.441606	-0.271382
O12	O	0.899076	0.441527	-0.441684
O13	O	1.018403	0.570472	-0.741054
O14	O	0.899068	0.570527	-0.570713
O15	O	1.108829	0.441431	-0.741090
O16	O	1.108707	0.740919	-0.441669
O17	O	1.018334	0.740860	-0.570704
C18	C	0.872369	0.506025	-0.506195
C19	C	0.790570	0.506043	-0.506207
C20	C	1.063532	0.779011	-0.506203
C21	C	1.063580	0.895787	-0.506229
C22	C	1.063623	0.505936	-0.780258
C23	C	1.063644	0.505891	-0.897035
C24	C	0.602392	0.573319	-0.573308
C25	C	0.525533	0.573322	-0.573321
C26	C	0.525511	0.438787	-0.439165
C27	C	0.602369	0.438779	-0.439158
C28	C	0.640807	0.506051	-0.506228
C29	C	0.487091	0.506062	-0.506248
C30	C	0.403757	0.506065	-0.506262
C31	C	0.724146	0.506047	-0.506216
C32	C	1.255528	0.506062	-0.506256
C33	C	1.337327	0.506070	-0.506269
C34	C	1.063639	0.232010	-0.506270
C35	C	1.063667	0.115233	-0.506289
C36	C	1.110690	0.950645	-0.439114
C37	C	1.110735	1.060369	-0.439147
C38	C	1.016555	1.060368	-0.573411
C39	C	1.016514	0.950646	-0.573383
C40	C	1.165062	0.950647	-0.361595
C41	C	1.165107	1.060371	-0.361627
C42	C	1.016610	0.438677	-0.951907
C43	C	1.016632	0.438646	-1.061631
C44	C	1.110728	0.573044	-1.061602
C45	C	1.110701	0.573080	-0.951880
C46	C	0.962287	0.361080	-0.951924
C47	C	0.962309	0.361049	-1.061648
C48	C	1.063570	0.506074	-0.233258
C49	C	1.063692	0.505824	-0.116482
H50	H	0.633686	0.628093	-0.627923
F51	F	1.145208	1.099409	-0.255258
F52	F	1.235878	1.104744	-0.399829
F53	F	0.891544	0.399134	-1.106122
H54	H	0.978235	1.105047	-0.628087
F55	F	0.643255	0.367174	-0.367764
H56	H	0.905276	0.382870	-0.922142
H57	H	1.222041	0.920789	-0.383451
H58	H	0.978160	0.905981	-0.628042
F59	F	1.138384	0.906271	-0.260531
F60	F	1.160807	0.644549	-1.119981
F61	F	0.988988	0.260074	-0.907459
H62	H	1.148990	0.627827	-0.907208
H63	H	0.977591	0.279667	-1.091447
H64	H	0.494259	0.628097	-0.627946
H65	H	0.494205	0.384018	-0.384558
