data_functionalizedCrystal
_audit_creation_method	'MofGen! by Chris Wilmer'
_symmetry_space_group_name_H-M	'P1'
_symmetry_Int_Tables_number	1
_symmetry_cell_setting	triclinic
loop_
_symmetry_equiv_pos_as_xyz
  x,y,z
_cell_length_a	23.532407
_cell_length_b	23.532407
_cell_length_c	12.503572
_cell_angle_alpha	93.496478
_cell_angle_beta	86.509276
_cell_angle_gamma	82.848678
loop_
_atom_site_label
_atom_site_type_symbol
_atom_site_fract_x
_atom_site_fract_y
_atom_site_fract_z
O1	O	0.758558	0.065826	-0.089196
O2	O	1.091891	0.399159	0.244137
O3	O	1.425224	0.732493	0.577470
O4	O	0.592696	0.075828	-0.089229
O5	O	0.926029	0.409161	0.244104
O6	O	1.259362	0.742495	0.577437
O7	O	0.680627	-0.012104	-0.089192
O8	O	1.013961	0.321229	0.244141
O9	O	1.347294	0.654563	0.577475
O10	O	0.670626	0.153758	-0.089233
O11	O	1.003959	0.487091	0.244100
O12	O	1.337292	0.820425	0.577433
O13	O	0.674014	-0.005480	0.089447
O14	O	1.007348	0.327853	0.422780
O15	O	1.340681	0.661187	0.756114
O16	O	0.586082	0.082452	0.089410
O17	O	0.919416	0.415785	0.422743
O18	O	1.252749	0.749119	0.756076
O19	O	0.751945	0.072450	0.089443
O20	O	1.085278	0.405783	0.422776
O21	O	1.418611	0.739117	0.756110
Cu22	Cu	0.668410	0.078056	0.105738
Cu23	Cu	1.001743	0.411389	0.439071
Cu24	Cu	1.335076	0.744722	0.772404
Cu25	Cu	0.676230	0.070222	-0.105524
Cu26	Cu	1.009564	0.403556	0.227809
Cu27	Cu	1.342897	0.736889	0.561143
O28	O	0.664013	0.160382	0.089406
O29	O	0.997346	0.493715	0.422739
O30	O	1.330679	0.827049	0.756072
C31	C	0.568173	0.078885	0.000086
C32	C	0.901506	0.412218	0.333420
C33	C	1.234840	0.745552	0.666753
C34	C	0.504957	0.078119	0.000075
C35	C	0.838290	0.411452	0.333408
C36	C	1.171623	0.744786	0.666741
C37	C	0.105852	0.125354	0.000111
C38	C	0.439185	0.458687	0.333445
C39	C	0.772519	0.792020	0.666778
C40	C	0.046452	0.124642	0.000118
C41	C	0.379785	0.457976	0.333451
C42	C	0.713118	0.791309	0.666785
O43	O	0.009706	0.168429	0.000146
O44	O	0.343039	0.501763	0.333480
O45	O	0.676373	0.835096	0.666813
N46	N	0.023825	0.072367	0.000129
N47	N	0.357158	0.405700	0.333463
N48	N	0.690492	0.739033	0.666796
C49	C	0.060602	0.020799	0.000145
C50	C	0.393935	0.354132	0.333478
C51	C	0.727269	0.687466	0.666811
O52	O	0.035902	-0.023731	0.000156
O53	O	0.369235	0.309602	0.333489
O54	O	0.702569	0.642936	0.666823
C55	C	0.120001	0.021511	0.000146
C56	C	0.453334	0.354844	0.333479
C57	C	0.786668	0.688178	0.666812
C58	C	0.142625	0.073790	0.000124
C59	C	0.475958	0.407123	0.333457
C60	C	0.809291	0.740457	0.666790
C61	C	0.128476	0.177628	0.000090
C62	C	0.461809	0.510962	0.333424
C63	C	0.795143	0.844295	0.666757
C64	C	0.187873	0.178339	0.000082
C65	C	0.521206	0.511673	0.333415
C66	C	0.854539	0.845006	0.666748
C67	C	0.224645	0.126775	0.000094
C68	C	0.557978	0.460109	0.333427
C69	C	0.891312	0.793442	0.666761
C70	C	0.202021	0.074501	0.000115
C71	C	0.535354	0.407834	0.333448
C72	C	0.868688	0.741167	0.666782
C73	C	0.156777	-0.030056	0.000169
C74	C	0.490110	0.303278	0.333502
C75	C	0.823443	0.636611	0.666836
C76	C	0.216179	-0.029339	0.000171
C77	C	0.549512	0.303994	0.333504
C78	C	0.882846	0.637328	0.666837
C79	C	0.238803	0.022940	0.000148
C80	C	0.572136	0.356273	0.333482
C81	C	0.905469	0.689606	0.666815
C82	C	0.298190	0.023648	0.000118
C83	C	0.631523	0.356981	0.333452
C84	C	0.964857	0.690315	0.666785
N85	N	0.320817	0.075924	0.000107
N86	N	0.654150	0.409257	0.333440
N87	N	0.987483	0.742590	0.666774
C88	C	0.284044	0.127488	0.000095
C89	C	0.617377	0.460821	0.333428
C90	C	0.950711	0.794154	0.666762
C91	C	-0.064140	0.019307	0.000145
C92	C	0.269193	0.352641	0.333478
C93	C	0.602526	0.685974	0.666811
C94	C	-0.123538	0.018595	0.000136
C95	C	0.209795	0.351928	0.333469
C96	C	0.543129	0.685261	0.666803
C97	C	-0.137685	0.122438	0.000111
C98	C	0.195649	0.455772	0.333445
C99	C	0.528982	0.789105	0.666778
C100	C	-0.078286	0.123151	0.000112
C101	C	0.255048	0.456484	0.333446
C102	C	0.588381	0.789817	0.666779
C103	C	-0.041514	0.071583	0.000133
C104	C	0.291819	0.404917	0.333467
C105	C	0.625153	0.738250	0.666800
C106	C	0.408782	0.128976	0.000076
C107	C	0.742115	0.462310	0.333409
C108	C	1.075448	0.795643	0.666742
C109	C	0.468184	0.129683	0.000062
C110	C	0.801517	0.463016	0.333396
C111	C	1.134851	0.796349	0.666729
C112	C	0.482325	0.025839	0.000093
C113	C	0.815658	0.359173	0.333426
C114	C	1.148992	0.692506	0.666759
C115	C	0.422928	0.025133	0.000100
C116	C	0.756261	0.358466	0.333434
C117	C	1.089595	0.691799	0.666767
C118	C	0.386157	0.076706	0.000095
C119	C	0.719490	0.410039	0.333429
C120	C	1.052824	0.743373	0.666762
O121	O	0.334970	-0.020116	0.000095
O122	O	0.668303	0.313217	0.333428
O123	O	1.001637	0.646551	0.666761
O124	O	0.308752	0.172011	0.000098
O125	O	0.642085	0.505344	0.333431
O126	O	0.975419	0.838677	0.666764
C127	C	0.677066	-0.030008	0.000130
C128	C	1.010399	0.303325	0.333463
C129	C	1.343733	0.636659	0.666797
C130	C	0.676300	-0.093225	0.000138
C131	C	1.009633	0.240109	0.333472
C132	C	1.342967	0.573442	0.666805
C133	C	0.723535	-0.492329	0.000089
C134	C	1.056869	-0.158996	0.333422
C135	C	1.390202	0.174337	0.666755
C136	C	0.722824	-0.551730	0.000080
C137	C	1.056157	-0.218397	0.333414
C138	C	1.389491	0.114937	0.666747
O139	O	0.766611	-0.588476	0.000050
O140	O	1.099944	-0.255142	0.333383
O141	O	1.433278	0.078191	0.666716
N142	N	0.670548	-0.574357	0.000071
N143	N	1.003881	-0.241023	0.333404
N144	N	1.337215	0.092310	0.666738
C145	C	0.618980	-0.537579	0.000059
C146	C	0.952314	-0.204246	0.333392
C147	C	1.285647	0.129087	0.666725
O148	O	0.574450	-0.562279	0.000049
O149	O	0.907784	-0.228946	0.333382
O150	O	1.241117	0.104387	0.666715
C151	C	0.619692	-0.478180	0.000059
C152	C	0.953026	-0.144847	0.333393
C153	C	1.286359	0.188486	0.666726
C154	C	0.671971	-0.455557	0.000080
C155	C	1.005305	-0.122224	0.333413
C156	C	1.338638	0.211110	0.666746
C157	C	0.775810	-0.469706	0.000108
C158	C	1.109143	-0.136372	0.333441
C159	C	1.442477	0.196961	0.666775
C160	C	0.776521	-0.410309	0.000118
C161	C	1.109854	-0.076976	0.333452
C162	C	1.443187	0.256358	0.666785
C163	C	0.724957	-0.373536	0.000109
C164	C	1.058290	-0.040203	0.333443
C165	C	1.391624	0.293130	0.666776
C166	C	0.672682	-0.396160	0.000090
C167	C	1.006015	-0.062827	0.333423
C168	C	1.339349	0.270506	0.666757
C169	C	0.568126	-0.441405	0.000039
C170	C	0.901459	-0.108071	0.333373
C171	C	1.234792	0.225262	0.666706
C172	C	0.568842	-0.382002	0.000039
C173	C	0.902175	-0.048669	0.333372
C174	C	1.235509	0.284665	0.666706
C175	C	0.621121	-0.359379	0.000060
C176	C	0.954454	-0.026045	0.333393
C177	C	1.287788	0.307288	0.666726
C178	C	0.621829	-0.299991	0.000091
C179	C	0.955162	0.033342	0.333425
C180	C	1.288496	0.366675	0.666758
N181	N	0.674105	-0.277365	0.000101
N182	N	1.007438	0.055969	0.333434
N183	N	1.340772	0.389302	0.666768
C184	C	0.725669	-0.314137	0.000110
C185	C	1.059002	0.019196	0.333443
C186	C	1.392336	0.352529	0.666777
C187	C	0.617489	-0.662322	0.000055
C188	C	0.950822	-0.328989	0.333389
C189	C	1.284156	0.004345	0.666722
C190	C	0.616776	-0.721720	0.000062
C191	C	0.950109	-0.388386	0.333396
C192	C	1.283443	-0.055053	0.666729
C193	C	0.720620	-0.735866	0.000082
C194	C	1.053954	-0.402533	0.333416
C195	C	1.387287	-0.069200	0.666749
C196	C	0.721332	-0.676467	0.000083
C197	C	1.054666	-0.343134	0.333416
C198	C	1.387999	-0.009801	0.666750
C199	C	0.669765	-0.639696	0.000065
C200	C	1.003098	-0.306362	0.333398
C201	C	1.336432	0.026971	0.666732
C202	C	0.727158	-0.189400	0.000133
C203	C	1.060491	0.143934	0.333466
C204	C	1.393824	0.477267	0.666799
C205	C	0.727864	-0.129997	0.000147
C206	C	1.061197	0.203336	0.333481
C207	C	1.394531	0.536670	0.666814
C208	C	0.624020	-0.115856	0.000122
C209	C	0.957354	0.217477	0.333455
C210	C	1.290687	0.550811	0.666788
C211	C	0.623314	-0.175253	0.000113
C212	C	0.956647	0.158080	0.333446
C213	C	1.289980	0.491414	0.666779
C214	C	0.674887	-0.212024	0.000114
C215	C	1.008221	0.121309	0.333448
C216	C	1.341554	0.454642	0.666781
O217	O	0.578065	-0.263211	0.000118
O218	O	0.911399	0.070122	0.333451
O219	O	1.244732	0.403456	0.666784
O220	O	0.770192	-0.289430	0.000106
O221	O	1.103526	0.043904	0.333439
O222	O	1.436859	0.377237	0.666772
C223	C	0.776467	0.069393	0.000125
C224	C	1.109800	0.402726	0.333458
C225	C	1.443134	0.736059	0.666792
C226	C	0.839684	0.070159	0.000130
C227	C	1.173017	0.403492	0.333463
C228	C	1.506351	0.736826	0.666796
C229	C	0.667574	0.178286	0.000081
C230	C	1.000907	0.511619	0.333414
C231	C	1.334241	0.844952	0.666748
C232	C	0.668341	0.241502	0.000066
C233	C	1.001674	0.574836	0.333399
C234	C	1.335007	0.908169	0.666733
N235	N	0.662913	0.083565	0.254327
N236	N	0.996247	0.416898	0.587661
N237	N	1.329580	0.750232	0.920994
N238	N	0.681732	0.064708	-0.254114
N239	N	1.015065	0.398042	0.079219
N240	N	1.348398	0.731375	0.412553
C241	C	0.654828	0.091674	0.473439
C242	C	0.988161	0.425008	0.806773
C243	C	1.321494	0.758341	1.140106
C244	C	0.689815	0.056601	0.526781
C245	C	1.023149	0.389934	0.860115
C246	C	1.356482	0.723268	1.193448
C247	C	0.685316	0.061113	0.648702
C248	C	1.018650	0.394447	0.982036
C249	C	1.351983	0.727780	1.315369
C250	C	0.659326	0.087163	0.351507
C251	C	0.992659	0.420496	0.684840
C252	C	1.325992	0.753830	1.018174
H253	H	0.486600	0.172256	0.000044
H254	H	0.819934	0.505589	0.333377
H255	H	1.153267	0.838923	0.666710
H256	H	0.621497	0.125088	0.519333
H257	H	0.954831	0.458422	0.852666
H258	H	1.288164	0.791755	1.185999
C259	C	0.131903	-0.087563	0.000208
C260	C	0.465237	0.245771	0.333541
C261	C	0.798570	0.579104	0.666875
H262	H	0.162318	-0.118164	0.000231
H263	H	0.495651	0.215169	0.333565
H264	H	0.828984	0.548502	0.666898
H265	H	0.111326	-0.092321	-0.062080
H266	H	0.444660	0.241012	0.271253
H267	H	0.777993	0.574345	0.604587
H268	H	0.106727	-0.087686	0.062519
H269	H	0.440061	0.245648	0.395852
H270	H	0.773394	0.578981	0.729185
H271	H	0.512276	-0.016143	0.000099
H272	H	0.845609	0.317191	0.333432
H273	H	1.178943	0.650524	0.666765
H274	H	0.378849	0.170973	0.000075
H275	H	0.712182	0.504306	0.333408
H276	H	1.045515	0.837639	0.666742
H277	H	0.769154	-0.219333	0.000130
H278	H	1.102487	0.114001	0.333463
H279	H	1.435821	0.447334	0.666796
C280	C	0.777341	-0.776324	0.000072
C281	C	1.110674	-0.442991	0.333406
C282	C	1.444008	-0.109658	0.666739
H283	H	0.769426	-0.814940	0.000054
H284	H	1.102759	-0.481606	0.333388
H285	H	1.436092	-0.148273	0.666721
H286	H	0.796493	-0.767200	0.062367
H287	H	1.129826	-0.433866	0.395700
H288	H	1.463159	-0.100533	0.729034
H289	H	0.801092	-0.771801	-0.062232
H290	H	1.134425	-0.438467	0.271102
H291	H	1.467758	-0.105134	0.604435
H292	H	0.206287	0.220910	0.000063
H293	H	0.539620	0.554243	0.333397
H294	H	0.872953	0.887577	0.666730
C295	C	0.510618	-0.466278	0.000007
C296	C	0.843952	-0.132944	0.333341
C297	C	1.177285	0.200389	0.666674
H298	H	0.480016	-0.435863	-0.000012
H299	H	0.813350	-0.102530	0.333321
H300	H	1.146683	0.230803	0.666655
H301	H	0.505865	-0.486852	0.062297
H302	H	0.839199	-0.153518	0.395630
H303	H	1.172532	0.179815	0.728963
H304	H	0.510490	-0.491457	-0.062302
H305	H	0.843823	-0.158123	0.271031
H306	H	1.177156	0.175210	0.604365
C307	C	0.734862	0.011476	0.464784
C308	C	1.068196	0.344810	0.798117
C309	C	1.401529	0.678143	1.131451
H310	H	0.732027	0.014333	0.389784
H311	H	1.065360	0.347667	0.723118
H312	H	1.398693	0.681000	1.056451
H313	H	0.728181	-0.025823	0.483141
H314	H	1.061514	0.307511	0.816474
H315	H	1.394847	0.640844	1.149807
H316	H	0.772180	0.018094	0.483165
H317	H	1.105513	0.351428	0.816498
H318	H	1.438846	0.684761	1.149831
H319	H	0.574205	-0.740133	0.000064
H320	H	0.907538	-0.406800	0.333398
H321	H	1.240871	-0.073467	0.666731
H322	H	0.098541	0.219620	0.000084
H323	H	0.431874	0.552954	0.333418
H324	H	0.765208	0.886287	0.666751
C325	C	0.560761	-0.621877	0.000056
C326	C	0.894094	-0.288544	0.333389
C327	C	1.227427	0.044790	0.666723
H328	H	0.529528	-0.643864	0.000060
H329	H	0.862862	-0.310530	0.333393
H330	H	1.196195	0.022803	0.666727
H331	H	0.561179	-0.600714	-0.062236
H332	H	0.894512	-0.267380	0.271097
H333	H	1.227846	0.065953	0.604430
H334	H	0.556573	-0.596108	0.062362
H335	H	0.889907	-0.262775	0.395696
H336	H	1.223240	0.070558	0.729029
C337	C	0.512116	-0.341556	0.000024
C338	C	0.845450	-0.008223	0.333357
C339	C	1.178783	0.325110	0.666690
H340	H	0.480883	-0.363541	0.000019
H341	H	0.814216	-0.030208	0.333352
H342	H	1.147549	0.303126	0.666685
H343	H	0.512541	-0.320393	-0.062268
H344	H	0.845874	0.012941	0.271065
H345	H	1.179207	0.346274	0.604399
H346	H	0.507926	-0.315788	0.062331
H347	H	0.841260	0.017545	0.395664
H348	H	1.174593	0.350879	0.728997
H349	H	0.817802	-0.499641	0.000112
H350	H	1.151135	-0.166307	0.333445
H351	H	1.484469	0.167026	0.666778
C352	C	0.567305	-0.075399	0.000106
C353	C	0.900638	0.257934	0.333439
C354	C	1.233972	0.591267	0.666772
H355	H	0.575221	-0.036785	0.000101
H356	H	0.908554	0.296548	0.333434
H357	H	1.241887	0.629882	0.666768
H358	H	0.543542	-0.079918	0.062390
H359	H	0.876875	0.253415	0.395723
H360	H	1.210209	0.586749	0.729056
H361	H	0.548166	-0.084531	-0.062209
H362	H	0.881500	0.248802	0.271124
H363	H	1.214833	0.582136	0.604458
C364	C	-0.053405	0.180657	0.000098
C365	C	0.279928	0.513990	0.333431
C366	C	0.613261	0.847323	0.666764
H367	H	-0.083818	0.211262	0.000095
H368	H	0.249516	0.544595	0.333429
H369	H	0.582849	0.877928	0.666762
H370	H	-0.028223	0.180786	-0.062195
H371	H	0.305110	0.514120	0.271138
H372	H	0.638443	0.847453	0.604471
H373	H	-0.032835	0.185405	0.062403
H374	H	0.300499	0.518739	0.395737
H375	H	0.633832	0.852072	0.729070
H376	H	-0.167636	0.164425	0.000107
H377	H	0.165697	0.497758	0.333440
H378	H	0.499031	0.831091	0.666773
C379	C	0.256625	-0.086065	0.000182
C380	C	0.589959	0.247268	0.333515
C381	C	0.923292	0.580602	0.666848
H382	H	0.234640	-0.117299	0.000185
H383	H	0.567974	0.216035	0.333518
H384	H	0.901307	0.549368	0.666852
H385	H	0.277793	-0.085640	0.062472
H386	H	0.611126	0.247694	0.395805
H387	H	0.944460	0.581027	0.729138
H388	H	0.282389	-0.090256	-0.062127
H389	H	0.615723	0.243077	0.271206
H390	H	0.949056	0.576410	0.604540
C391	C	-0.148417	-0.038912	0.000150
C392	C	0.184916	0.294421	0.333483
C393	C	0.518250	0.627754	0.666817
H394	H	-0.118005	-0.069517	0.000163
H395	H	0.215328	0.263817	0.333497
H396	H	0.548662	0.597150	0.666830
H397	H	-0.168995	-0.043662	-0.062140
H398	H	0.164339	0.289671	0.271193
H399	H	0.497672	0.623004	0.604527
H400	H	-0.173594	-0.039040	0.062459
H401	H	0.159740	0.294294	0.395792
H402	H	0.493073	0.627627	0.729125
H403	H	-0.034203	-0.022688	0.000152
H404	H	0.299130	0.310646	0.333486
H405	H	0.632464	0.643979	0.666819
C406	C	0.398041	-0.032373	0.000113
C407	C	0.731374	0.300961	0.333446
C408	C	1.064708	0.634294	0.666780
H409	H	0.428451	-0.062980	0.000122
H410	H	0.761784	0.270354	0.333455
H411	H	1.095118	0.603687	0.666788
H412	H	0.377461	-0.037119	-0.062174
H413	H	0.710794	0.296214	0.271159
H414	H	1.044128	0.629547	0.604492
H415	H	0.372866	-0.032498	0.062424
H416	H	0.706200	0.300835	0.395758
H417	H	1.039533	0.634168	0.729091
H418	H	0.770437	-0.111581	0.000167
H419	H	1.103771	0.221752	0.333500
H420	H	1.437104	0.555086	0.666833
H421	H	0.763902	-0.658052	0.000099
H422	H	1.097236	-0.324719	0.333432
H423	H	1.430569	0.008615	0.666765
H424	H	0.819092	-0.391895	0.000131
H425	H	1.152425	-0.058562	0.333464
H426	H	1.485758	0.274771	0.666797
H427	H	0.580743	-0.193673	0.000126
H428	H	0.914076	0.139661	0.333459
H429	H	1.247410	0.472994	0.666792
