data_functionalizedCrystal
_audit_creation_method	'MofGen! by Chris Wilmer'
_symmetry_space_group_name_H-M	'P1'
_symmetry_Int_Tables_number	1
_symmetry_cell_setting	triclinic
loop_
_symmetry_equiv_pos_as_xyz
  x,y,z
_cell_length_a	19.121063
_cell_length_b	19.121274
_cell_length_c	13.032268
_cell_angle_alpha	80.115375
_cell_angle_beta	99.247498
_cell_angle_gamma	90.075254
loop_
_atom_site_label
_atom_site_type_symbol
_atom_site_fract_x
_atom_site_fract_y
_atom_site_fract_z
Zn1	Zn	-0.369692	-1.010918	-0.550121
Zn2	Zn	-0.473170	-1.020828	-0.381306
Zn3	Zn	-0.350901	-0.908743	-0.380690
Zn4	Zn	-0.483109	-0.887317	-0.565095
O5	O	-0.419218	-0.956951	-0.469303
O6	O	-0.387124	-1.110868	-0.521719
O7	O	-0.444928	-1.019074	-0.233401
O8	O	-0.254758	-0.927116	-0.396641
O9	O	-0.463149	-1.118149	-0.397691
O10	O	-0.268564	-1.002184	-0.521121
O11	O	-0.355097	-0.936725	-0.232948
O12	O	-0.364734	-0.807265	-0.411161
O13	O	-0.480088	-0.890599	-0.710932
O14	O	-0.461867	-0.791524	-0.546642
O15	O	-0.396761	-0.981408	-0.699931
O16	O	-0.573124	-0.998297	-0.412210
O17	O	-0.580426	-0.900208	-0.547239
C18	C	-0.602353	-0.948020	-0.481438
C19	C	-0.680704	-0.944260	-0.486661
C20	C	-0.412340	-0.773819	-0.480460
C21	C	-0.409417	-0.695472	-0.485259
C22	C	-0.441629	-0.932508	-0.744832
C23	C	-0.451179	-0.922091	-0.862247
C24	C	-0.713694	-0.993594	-0.418866
C25	C	-0.787314	-0.990062	-0.423784
C26	C	-0.827942	-0.937192	-0.496493
C27	C	-0.794947	-0.887856	-0.564295
C28	C	-0.721329	-0.891392	-0.559381
C29	C	-1.050413	-0.923962	-0.514848
C30	C	-1.124036	-0.920429	-0.519755
C31	C	-1.116398	-1.022637	-0.379245
C32	C	-1.042779	-1.026165	-0.374334
C33	C	-1.009790	-0.976831	-0.442139
C34	C	-0.903194	-0.933579	-0.501519
C35	C	-0.934541	-0.980448	-0.437117
C36	C	-0.235371	-0.965935	-0.457142
C37	C	-0.157026	-0.969763	-0.451960
C38	C	-0.447544	-0.662464	-0.422834
C39	C	-0.444799	-0.588847	-0.427357
C40	C	-0.403922	-0.548239	-0.494301
C41	C	-0.365793	-0.581251	-0.556733
C42	C	-0.368543	-0.654867	-0.552215
C43	C	-0.393646	-0.325778	-0.511184
C44	C	-0.390897	-0.252158	-0.515696
C45	C	-0.469904	-0.259758	-0.386320
C46	C	-0.472647	-0.333375	-0.381803
C47	C	-0.434522	-0.366380	-0.444240
C48	C	-0.401113	-0.472991	-0.498923
C49	C	-0.437335	-0.441627	-0.439622
C50	C	-0.426113	-0.140800	-0.458088
C51	C	-0.429025	-0.219150	-0.453270
C52	C	-0.414208	-0.962378	-0.909150
C53	C	-0.424078	-0.951613	-1.030504
C54	C	-0.396845	-0.981343	-0.194840
C55	C	-0.387102	-0.991905	-0.077404
H56	H	-0.680619	-1.036644	-0.359655
Cl57	Cl	-0.484228	-0.886048	-1.107202
H58	H	-0.348136	-1.034365	-1.027724
H59	H	-0.936281	-0.890531	-0.560717
Cl60	Cl	-0.991710	-1.092641	-0.282939
Cl61	Cl	-0.314410	-0.530201	-0.640900
H62	H	-0.480828	-0.695522	-0.368317
H63	H	-0.500945	-0.232876	-0.335490
Cl64	Cl	-0.828785	-1.052087	-0.338556
H65	H	-0.505933	-0.366433	-0.327289
Cl66	Cl	-0.883465	-1.046913	-0.345719
H67	H	-0.337495	-0.681740	-0.603047
Cl68	Cl	-1.157874	-1.084656	-0.294016
H69	H	-0.375247	-1.004836	-0.859465
Cl70	Cl	-0.511327	-0.856530	-0.938949
Cl71	Cl	-0.492715	-0.547357	-0.348850
H72	H	-1.157116	-0.877383	-0.578981
Cl73	Cl	-0.339501	-0.201109	-0.599854
H74	H	-0.828033	-0.844811	-0.623500
Cl75	Cl	-1.008952	-0.861941	-0.600089
H76	H	-0.470621	-0.474692	-0.385122
H77	H	-0.362602	-0.352641	-0.562026
Cl78	Cl	-0.679856	-0.829371	-0.644616
Cl79	Cl	-0.349727	-0.421935	-0.583081
