data_functionalizedCrystal
_audit_creation_method	'MofGen! by Chris Wilmer'
_symmetry_space_group_name_H-M	'P1'
_symmetry_Int_Tables_number	1
_symmetry_cell_setting	triclinic
loop_
_symmetry_equiv_pos_as_xyz
  x,y,z
_cell_length_a	12.759401
_cell_length_b	17.637651
_cell_length_c	12.759393
_cell_angle_alpha	101.250165
_cell_angle_beta	90.018496
_cell_angle_gamma	101.219542
loop_
_atom_site_label
_atom_site_type_symbol
_atom_site_fract_x
_atom_site_fract_y
_atom_site_fract_z
Zn1	Zn	1.521690	-0.314720	0.509310
Zn2	Zn	1.486052	-0.446958	0.298053
Zn3	Zn	1.345981	-0.314761	0.333638
Zn4	Zn	1.310465	-0.446897	0.473711
O5	O	1.416047	-0.380834	0.403678
O6	O	1.663982	-0.332270	0.481292
O7	O	1.467420	-0.429465	0.155741
O8	O	1.399068	-0.204114	0.386732
O9	O	1.637798	-0.429425	0.326083
O10	O	1.528160	-0.204083	0.515798
O11	O	1.364511	-0.332340	0.181885
O12	O	1.194251	-0.332281	0.352213
O13	O	1.338535	-0.429321	0.625466
O14	O	1.168157	-0.429361	0.455124
O15	O	1.493722	-0.332211	0.651620
O16	O	1.432982	-0.557592	0.291564
O17	O	1.303978	-0.557547	0.420619
C18	C	1.143084	-0.380820	0.403668
C19	C	1.026304	-0.380832	0.403683
C20	C	0.957860	-0.431463	0.457136
C21	C	0.848133	-0.431473	0.457145
C22	C	0.875304	-0.330220	0.350239
C23	C	0.985029	-0.330206	0.350238
C24	C	0.942172	-0.489923	0.518853
C25	C	0.832445	-0.489933	0.518862
C26	C	1.360787	-0.586258	0.348390
C27	C	1.337243	-0.674139	0.324772
C28	C	1.595593	-0.962796	0.583429
C29	C	1.573436	-1.045373	0.561218
C30	C	1.439101	-1.045512	0.426693
C31	C	1.461250	-0.962933	0.448889
C32	C	1.539496	-0.921581	0.527259
C33	C	1.405154	-0.921718	0.392718
C34	C	1.427298	-0.839146	0.414916
C35	C	1.505538	-0.797788	0.493285
C36	C	1.561640	-0.839009	0.549457
C37	C	1.326903	-0.963072	0.314354
C38	C	1.270807	-0.921857	0.258183
C39	C	1.292955	-0.839283	0.280376
C40	C	1.371196	-0.797926	0.358744
C41	C	1.236853	-0.798063	0.224204
C42	C	1.258997	-0.715491	0.246402
C43	C	1.393339	-0.715354	0.380942
C44	C	1.690076	-0.380849	0.403689
C45	C	1.806851	-0.380856	0.403694
C46	C	1.416142	-0.380754	0.677733
C47	C	1.416183	-0.380720	0.794519
C48	C	1.471551	-0.174608	0.459206
C49	C	1.495204	-0.086727	0.482868
C50	C	1.416028	-0.380857	0.130705
C51	C	1.416251	-0.380668	0.013979
C52	C	1.496999	-0.330150	0.863003
C53	C	1.497031	-0.330122	0.972734
C54	C	1.335427	-0.431240	0.945487
C55	C	1.335391	-0.431264	0.835759
C56	C	1.590302	-0.271772	0.878734
C57	C	1.590335	-0.271744	0.988466
H58	H	0.804321	-0.468076	0.602094
O59	O	1.248177	-0.485779	0.761921
H60	H	1.249457	-0.547839	0.766248
O61	O	1.248289	-0.485755	0.989966
H62	H	1.261891	-0.477244	1.077772
O63	O	1.583263	-0.190669	0.861122
H64	H	1.579832	-0.150945	0.939522
H65	H	1.625364	-0.805338	0.613266
H66	H	1.661676	-0.293723	0.838792
O67	O	0.987483	-0.468280	0.632499
H68	H	0.946715	-0.512000	0.678583
H69	H	1.659317	-0.929125	0.647238
O70	O	0.966553	-0.566929	0.459352
H71	H	0.890741	-0.607767	0.427813
H72	H	1.576854	-0.213564	1.038166
H73	H	0.786200	-0.551153	0.480459
H74	H	1.457063	-0.681683	0.444752
O75	O	1.692270	-0.293476	1.022080
H76	H	1.742143	-0.304146	0.951511
O77	O	1.529436	-0.708727	0.517224
H78	H	1.456015	-0.686976	0.544226
H79	H	1.207096	-0.955537	0.194377
O80	O	1.354727	-1.090122	0.342155
H81	H	1.291157	-1.127752	0.379003
H82	H	1.308866	-1.030307	0.296293
O83	O	1.058840	-0.275601	0.292570
H84	H	1.054458	-0.213566	0.327414
O85	O	0.830767	-0.275639	0.292573
H86	H	0.791582	-0.235464	0.350491
O87	O	1.633950	-1.089830	0.621799
H88	H	1.692083	-1.047200	0.680015
O89	O	1.152470	-0.842666	0.139670
H90	H	1.146503	-0.907008	0.133666
H91	H	1.213316	-0.681934	0.200663
