data_functionalizedCrystal
_audit_creation_method	'MofGen! by Chris Wilmer'
_symmetry_space_group_name_H-M	'P1'
_symmetry_Int_Tables_number	1
_symmetry_cell_setting	triclinic
loop_
_symmetry_equiv_pos_as_xyz
  x,y,z
_cell_length_a	10.489741
_cell_length_b	19.288864
_cell_length_c	17.766277
_cell_angle_alpha	89.976755
_cell_angle_beta	90.004879
_cell_angle_gamma	96.162290
loop_
_atom_site_label
_atom_site_type_symbol
_atom_site_fract_x
_atom_site_fract_y
_atom_site_fract_z
O1	O	0.159108	-0.922420	0.062835
O2	O	0.180571	-0.720303	0.062784
O3	O	-0.015862	-0.825961	0.062806
O4	O	0.355541	-0.816763	0.062813
O5	O	-0.015868	-0.825942	-0.062382
O6	O	0.180566	-0.720284	-0.062405
O7	O	0.159102	-0.922401	-0.062353
Cu8	Cu	0.169833	-0.821341	-0.073810
Cu9	Cu	0.169840	-0.821364	0.074240
O10	O	0.355536	-0.816744	-0.062375
C11	C	-0.063381	-0.825257	0.000212
C12	C	-0.204964	-0.823178	0.000213
C13	C	0.179878	-0.694413	0.000183
C14	C	0.177805	-0.617295	0.000163
C15	C	0.159796	-0.948292	0.000249
C16	C	0.161869	-1.025409	0.000274
C17	C	-0.271583	-0.755951	0.000202
C18	C	-0.364427	-0.787699	-0.061515
C19	C	-0.364396	-0.787734	0.061911
C20	C	-0.295942	-0.854954	-0.061554
C21	C	-0.295902	-0.854979	0.061927
C22	C	-0.388719	-0.886776	0.000196
C23	C	0.403055	-0.817448	0.000220
C24	C	0.544637	-0.819526	0.000224
N25	N	0.169828	-0.821330	-0.177940
C26	C	0.293063	-0.573372	0.000177
C27	C	0.291115	-0.500912	0.000186
C28	C	0.173903	-0.472378	0.000195
C29	C	0.058629	-0.516311	0.000177
C30	C	0.060580	-0.588770	0.000161
C31	C	0.081763	-0.363505	0.044078
C32	C	0.079816	-0.291048	0.044098
C33	C	0.167880	-0.248892	0.000240
C34	C	0.257912	-0.279202	-0.043628
C35	C	0.259863	-0.351661	-0.043644
C36	C	0.171774	-0.393810	0.000212
C37	C	0.281035	-0.126399	0.000262
C38	C	0.279082	-0.053938	0.000266
C39	C	0.046593	-0.069339	0.000265
C40	C	0.048549	-0.141798	0.000254
C41	C	0.165773	-0.170324	0.000256
C42	C	0.246995	-0.863835	-0.217308
C43	C	0.246991	-0.863846	-0.296109
C44	C	0.169835	-0.821339	-0.335540
C45	C	0.092653	-0.778832	-0.296163
C46	C	0.092649	-0.778827	-0.217363
C47	C	0.166609	-0.758705	-0.460416
C48	C	0.166622	-0.758708	-0.539215
C49	C	0.169839	-0.821354	-0.578587
C50	C	0.173070	-0.883997	-0.539150
C51	C	0.173067	-0.883993	-0.460350
C52	C	0.169830	-0.821340	-0.420986
C53	C	0.247006	-0.863874	-0.703400
C54	C	0.246993	-0.863886	-0.782204
C55	C	0.092663	-0.778865	-0.782256
C56	C	0.092668	-0.778860	-0.703454
C57	C	0.169847	-0.821363	-0.664031
N58	N	0.169835	-0.821380	0.178371
H59	H	-0.220682	-0.700678	0.000125
Cl60	Cl	-0.466964	-0.972189	0.000168
Cl61	Cl	0.177126	-0.962740	-0.410775
H62	H	-0.394797	-0.759246	-0.113706
H63	H	0.163998	-0.707687	-0.428366
H64	H	0.175697	-0.935009	-0.571205
Cl65	Cl	-0.004361	-0.725383	-0.167869
Cl66	Cl	0.440431	-0.609229	0.000177
H67	H	-0.045307	-0.177562	0.000246
H68	H	0.006512	-0.266375	0.079822
H69	H	0.029840	-0.744256	-0.814360
H70	H	0.029831	-0.744223	-0.328273
Cl71	Cl	0.423993	0.001282	0.000280
H72	H	0.384976	-0.465143	0.000195
H73	H	0.163998	-0.707700	-0.571318
H74	H	0.333166	-0.376336	-0.079366
H75	H	0.309849	-0.898483	-0.671301
H76	H	-0.394714	-0.759288	0.114092
H77	H	-0.265755	-0.883366	-0.113789
Cl78	Cl	0.344044	-0.917254	-0.167751
Cl79	Cl	-0.028958	-0.416493	0.099219
H80	H	0.309828	-0.898504	-0.814256
H81	H	-0.265498	-0.883408	0.114121
Cl82	Cl	0.368630	-0.226215	-0.098767
Cl83	Cl	0.344007	-0.917285	-0.345611
Cl84	Cl	0.428399	-0.162263	0.000258
H85	H	-0.048844	-0.046108	0.000319
H86	H	-0.036806	-0.493075	0.000195
Cl87	Cl	-0.084328	-0.643991	0.000144
Cl88	Cl	-0.004322	-0.725408	-0.653960
