data_functionalizedCrystal
_audit_creation_method	'MofGen! by Chris Wilmer'
_symmetry_space_group_name_H-M	'P1'
_symmetry_Int_Tables_number	1
_symmetry_cell_setting	triclinic
loop_
_symmetry_equiv_pos_as_xyz
  x,y,z
_cell_length_a	16.625546
_cell_length_b	11.169417
_cell_length_c	11.169409
_cell_angle_alpha	90.021649
_cell_angle_beta	89.961577
_cell_angle_gamma	89.979310
loop_
_atom_site_label
_atom_site_type_symbol
_atom_site_fract_x
_atom_site_fract_y
_atom_site_fract_z
Zn1	Zn	-0.320975	-1.834861	-0.678550
Zn2	Zn	0.179025	-1.334861	-0.178550
Zn3	Zn	-0.455837	-1.834708	-0.477846
Zn4	Zn	0.044163	-1.334708	0.022154
Zn5	Zn	-0.321017	-1.634147	-0.477878
Zn6	Zn	0.178983	-1.134147	0.022122
Zn7	Zn	-0.455765	-1.634112	-0.678484
Zn8	Zn	0.044235	-1.134112	-0.178484
O9	O	-0.388398	-1.734457	-0.578190
O10	O	0.111602	-1.234457	-0.078190
O11	O	-0.338876	-2.002791	-0.651940
O12	O	0.161124	-1.502791	-0.151940
O13	O	-0.438001	-1.808054	-0.309900
O14	O	0.061999	-1.308054	0.190100
O15	O	-0.208179	-1.660851	-0.504539
O16	O	0.291821	-1.160851	-0.004539
O17	O	-0.437959	-2.002678	-0.504484
O18	O	0.062041	-1.502678	-0.004484
O19	O	-0.208148	-1.808315	-0.651972
O20	O	0.291852	-1.308315	-0.151972
O21	O	-0.338950	-1.660702	-0.309924
O22	O	0.161050	-1.160702	0.190076
O23	O	-0.338880	-1.466193	-0.504475
O24	O	0.161120	-0.966193	-0.004475
O25	O	-0.437836	-1.660791	-0.846443
O26	O	0.062164	-1.160791	-0.346443
O27	O	-0.437878	-1.466167	-0.651860
O28	O	0.062122	-0.966167	-0.151860
O29	O	-0.338807	-1.808281	-0.846491
O30	O	0.161193	-1.308281	-0.346491
O31	O	-0.568659	-1.808020	-0.504420
O32	O	-0.068659	-1.308020	-0.004420
O33	O	-0.568607	-1.660643	-0.651828
O34	O	-0.068607	-1.160643	-0.151828
C35	C	-0.388376	-1.422632	-0.578164
C36	C	0.111624	-0.922632	-0.078164
C37	C	-0.388386	-1.289232	-0.578182
C38	C	0.111614	-0.789232	-0.078182
C39	C	-0.597889	-1.734343	-0.578140
C40	C	-0.097889	-1.234343	-0.078140
C41	C	-0.687510	-1.734405	-0.578158
C42	C	-0.187510	-1.234405	-0.078158
C43	C	-1.015686	-1.734614	-0.578283
C44	C	-0.515686	-1.234614	-0.078283
C45	C	-0.924377	-1.734552	-0.578252
C46	C	-0.424377	-1.234552	-0.078252
C47	C	-0.851601	-1.734508	-0.578220
C48	C	-0.351601	-1.234508	-0.078220
C49	C	-0.760287	-1.734448	-0.578190
C50	C	-0.260287	-1.234448	-0.078190
C51	C	-0.178089	-1.734604	-0.578266
C52	C	0.321911	-1.234604	-0.078266
C53	C	-0.088468	-1.734666	-0.578299
C54	C	0.411532	-1.234666	-0.078299
C55	C	-0.388309	-1.734549	-0.891232
C56	C	0.111691	-1.234549	-0.391232
C57	C	-0.388271	-1.734589	-1.024632
C58	C	0.111729	-1.234589	-0.524632
C59	C	-0.388413	-1.047499	-0.578208
C60	C	0.111587	-0.547499	-0.078208
C61	C	-0.388399	-1.180899	-0.578195
C62	C	0.111601	-0.680899	-0.078195
C63	C	-0.388429	-1.734434	-0.266365
C64	C	0.111571	-1.234434	0.233635
C65	C	-0.388240	-1.734628	-0.132966
C66	C	0.111760	-1.234628	0.367034
