data_functionalizedCrystal
_audit_creation_method	'MofGen! by Chris Wilmer'
_symmetry_space_group_name_H-M	'P1'
_symmetry_Int_Tables_number	1
_symmetry_cell_setting	triclinic
loop_
_symmetry_equiv_pos_as_xyz
  x,y,z
_cell_length_a	19.805407
_cell_length_b	19.805404
_cell_length_c	19.805399
_cell_angle_alpha	90.025147
_cell_angle_beta	89.982197
_cell_angle_gamma	89.971921
loop_
_atom_site_label
_atom_site_type_symbol
_atom_site_fract_x
_atom_site_fract_y
_atom_site_fract_z
Zn1	Zn	1.034715	0.269527	-0.382699
Zn2	Zn	1.534715	0.769527	0.117301
Zn3	Zn	1.034621	0.382716	-0.269516
Zn4	Zn	1.534621	0.882716	0.230484
Zn5	Zn	0.921530	0.269541	-0.269527
Zn6	Zn	1.421530	0.769541	0.230473
Zn7	Zn	0.921485	0.382674	-0.382666
Zn8	Zn	1.421485	0.882674	0.117334
O9	O	0.978088	0.326115	-0.326102
O10	O	1.478088	0.826115	0.173898
O11	O	1.129419	0.284554	-0.367694
O12	O	1.629419	0.784554	0.132306
O13	O	1.019599	0.367726	-0.174801
O14	O	1.519599	0.867726	0.325199
O15	O	0.936602	0.174822	-0.284558
O16	O	1.436602	0.674822	0.215442
O17	O	1.129350	0.367713	-0.284539
O18	O	1.629350	0.867713	0.215461
O19	O	1.019759	0.174813	-0.367705
O20	O	1.519759	0.674813	0.132295
O21	O	0.936511	0.284576	-0.174809
O22	O	1.436511	0.784576	0.325191
O23	O	0.826807	0.284536	-0.284526
O24	O	1.326807	0.784536	0.215474
O25	O	0.936525	0.367642	-0.477387
O26	O	1.436525	0.867642	0.022613
O27	O	0.826774	0.367655	-0.367649
O28	O	1.326774	0.867655	0.132351
O29	O	1.019715	0.284514	-0.477411
O30	O	1.519715	0.784514	0.022589
O31	O	1.019555	0.477427	-0.284507
O32	O	1.519555	0.977427	0.215493
O33	O	0.936434	0.477397	-0.367638
O34	O	1.436434	0.977397	0.132362
C35	C	0.802232	0.326093	-0.326086
C36	C	1.302232	0.826093	0.173914
C37	C	0.727000	0.326101	-0.326095
C38	C	1.227000	0.826101	0.173905
C39	C	0.691692	0.282876	-0.369459
C40	C	1.191692	0.782876	0.130541
C41	C	0.621004	0.282880	-0.369462
C42	C	1.121004	0.782880	0.130538
C43	C	0.585624	0.326112	-0.326103
C44	C	1.085624	0.826112	0.173897
C45	C	0.620937	0.369338	-0.282733
C46	C	1.120937	0.869338	0.217267
C47	C	0.691624	0.369330	-0.282728
C48	C	1.191624	0.869330	0.217272
C49	C	0.335864	0.369368	-0.282754
C50	C	0.835864	0.869368	0.217246
C51	C	0.265171	0.369374	-0.282764
C52	C	0.765171	0.869374	0.217236
C53	C	0.265243	0.282918	-0.369488
C54	C	0.765243	0.782918	0.130512
C55	C	0.335930	0.282910	-0.369483
C56	C	0.835930	0.782910	0.130517
C57	C	0.371237	0.326134	-0.326111
C58	C	0.871237	0.826134	0.173889
C59	C	0.447885	0.326128	-0.326108
C60	C	0.947885	0.826128	0.173892
C61	C	0.508977	0.326121	-0.326109
C62	C	1.008977	0.826121	0.173891
C63	C	0.977998	0.501971	-0.326082
C64	C	1.477998	1.001971	0.173918
C65	C	0.978022	0.577203	-0.326096
C66	C	1.478022	1.077203	0.173904
C67	C	1.021521	1.038987	-0.282935
C68	C	1.521521	1.538987	0.217065
C69	C	1.021490	0.968298	-0.282919
C70	C	1.521490	1.468298	0.217081
C71	C	0.978164	0.932964	-0.326159
C72	C	1.478164	1.432964	0.173841
C73	C	0.934861	0.968322	-0.369412
C74	C	1.434861	1.468322	0.130588
C75	C	0.934888	1.039009	-0.369423
C76	C	1.434888	1.539009	0.130577
C77	C	0.934749	0.683249	-0.369365
C78	C	1.434749	1.183249	0.130635
C79	C	0.934726	0.612557	-0.369351
C80	C	1.434726	1.112557	0.130649
C81	C	1.021351	0.612538	-0.282861
C82	C	1.521351	1.112538	0.217139
C83	C	1.021378	0.683225	-0.282872
C84	C	1.521378	1.183225	0.217128
C85	C	0.978073	0.718577	-0.326122
C86	C	1.478073	1.218577	0.173878
C87	C	0.978105	0.795225	-0.326138
C88	C	1.478105	1.295225	0.173862
C89	C	0.978135	0.856317	-0.326147
C90	C	1.478135	1.356317	0.173853
C91	C	1.154630	0.326136	-0.326119
C92	C	1.654630	0.826136	0.173881
C93	C	1.229862	0.326146	-0.326126
C94	C	1.729862	0.826146	0.173874
C95	C	0.978126	0.326072	-0.502645
C96	C	1.478126	0.826072	-0.002645
C97	C	0.978142	0.326054	-0.577877
C98	C	1.478142	0.826054	-0.077877
C99	C	0.978191	1.149572	-0.326145
C100	C	1.478191	1.649572	0.173855
C101	C	0.978222	1.074340	-0.326186
C102	C	1.478222	1.574340	0.173814
C103	C	1.021460	0.282767	-0.613235
C104	C	1.521460	0.782767	-0.113235
C105	C	1.021467	0.282747	-0.683923
C106	C	1.521467	0.782747	-0.183923
C107	C	0.978159	0.326018	-0.719252
C108	C	1.478159	0.826018	-0.219252
C109	C	0.934836	0.369308	-0.683890
C110	C	1.434836	0.869308	-0.183890
C111	C	0.934826	0.369323	-0.613202
C112	C	1.434826	0.869323	-0.113202
C113	C	0.934874	0.369244	-0.968963
C114	C	1.434874	0.869244	-0.468963
C115	C	0.934889	0.369227	-1.039655
C116	C	1.434889	0.869227	-0.539655
C117	C	1.021515	0.282668	-1.039684
C118	C	1.521515	0.782668	-0.539684
C119	C	1.021505	0.282684	-0.968997
C120	C	1.521505	0.782684	-0.468997
C121	C	0.978180	0.325970	-0.933640
C122	C	1.478180	0.825970	-0.433640
C123	C	0.978172	0.325990	-0.856991
C124	C	1.478172	0.825990	-0.356991
C125	C	0.978170	0.326002	-0.795900
C126	C	1.478170	0.826002	-0.295900
C127	C	0.978089	0.326108	-0.150246
C128	C	1.478089	0.826108	0.349754
C129	C	0.978204	0.325936	-0.075014
C130	C	1.478204	0.825936	0.424986
H131	H	0.720493	0.247674	-0.404769
H132	H	1.220493	0.747674	0.095231
H133	H	0.899580	0.939549	-0.404616
H134	H	1.399580	1.439549	0.095384
H135	H	1.056661	0.711991	-0.247665
H136	H	1.556661	1.211991	0.252335
H137	H	1.056729	0.247532	-0.584475
H138	H	1.556729	0.747532	-0.084475
H139	H	0.899633	1.067793	-0.404646
H140	H	1.399633	1.567793	0.095354
H141	H	1.056806	1.067751	-0.247728
H142	H	1.556806	1.567751	0.252272
H143	H	1.056773	0.247450	-0.940235
H144	H	1.556773	0.747450	-0.440235
H145	H	1.056790	0.247420	-1.068480
H146	H	1.556790	0.747420	-0.568480
H147	H	1.056747	0.939514	-0.247700
H148	H	1.556747	1.439514	0.252300
H149	H	1.056611	0.583747	-0.247642
H150	H	1.556611	1.083747	0.252358
H151	H	1.056742	0.247500	-0.712709
H152	H	1.556742	0.747500	-0.212709
H153	H	0.899442	0.583789	-0.404563
H154	H	1.399442	1.083789	0.095437
H155	H	0.592259	0.247684	-0.404775
H156	H	1.092259	0.747684	0.095225
H157	H	0.899619	0.404465	-1.068418
H158	H	1.399619	0.904465	-0.568418
H159	H	0.899571	0.404538	-0.712660
H160	H	1.399571	0.904538	-0.212660
H161	H	0.899481	0.712024	-0.404577
H162	H	1.399481	1.212024	0.095423
H163	H	0.899545	0.404565	-0.584415
H164	H	1.399545	0.904565	-0.084415
H165	H	0.236488	0.247721	-0.404801
H166	H	0.736488	0.747721	0.095199
H167	H	0.364733	0.247709	-0.404793
H168	H	0.864733	0.747709	0.095207
H169	H	0.236367	0.404580	-0.247453
H170	H	0.736367	0.904580	0.252547
H171	H	0.364601	0.404564	-0.247438
H172	H	0.864601	0.904564	0.252562
H173	H	0.592125	0.404535	-0.247426
H174	H	1.092125	0.904535	0.252574
H175	H	0.720371	0.404528	-0.247415
H176	H	1.220371	0.904528	0.252585
H177	H	0.899606	0.404501	-0.940184
H178	H	1.399606	0.904501	-0.440184
