data_functionalizedCrystal
_audit_creation_method	'MofGen! by Chris Wilmer'
_symmetry_space_group_name_H-M	'P1'
_symmetry_Int_Tables_number	1
_symmetry_cell_setting	triclinic
loop_
_symmetry_equiv_pos_as_xyz
  x,y,z
_cell_length_a	10.654534
_cell_length_b	13.930277
_cell_length_c	10.654550
_cell_angle_alpha	90.004374
_cell_angle_beta	95.518333
_cell_angle_gamma	89.991994
loop_
_atom_site_label
_atom_site_type_symbol
_atom_site_fract_x
_atom_site_fract_y
_atom_site_fract_z
O1	O	-1.667858	0.079849	0.176303
O2	O	-1.302377	0.079847	0.193130
O3	O	-1.493520	0.079842	0.001977
O4	O	-1.476714	0.079854	0.367456
O5	O	-1.493494	-0.079820	0.001972
O6	O	-1.302350	-0.079815	0.193125
O7	O	-1.667831	-0.079813	0.176298
Zn8	Zn	-1.485086	-0.105164	0.184711
Zn9	Zn	-1.485122	0.105197	0.184717
O10	O	-1.476688	-0.079808	0.367452
C11	C	-1.255565	0.000015	0.191896
C12	C	-1.116121	0.000015	0.188212
N13	N	-1.485071	-0.248730	0.184707
C14	C	-1.050601	-0.087019	0.186476
C15	C	-0.919581	-0.087021	0.182993
C16	C	-0.919611	0.087051	0.182990
C17	C	-1.050630	0.087052	0.186463
C18	C	-1.400480	-0.700997	0.269326
C19	C	-1.569798	-0.700971	0.100098
C20	C	-1.569783	-0.600475	0.100094
C21	C	-1.485116	-0.550236	0.184709
C22	C	-1.400465	-0.600492	0.269327
C23	C	-1.654442	-0.550211	0.015486
C24	C	-1.654431	-0.449709	0.015479
C25	C	-1.569758	-0.399468	0.100089
C26	C	-1.485101	-0.449731	0.184710
C27	C	-1.400435	-0.399491	0.269324
C28	C	-1.315771	-0.449752	0.353940
C29	C	-1.315791	-0.550251	0.353936
C30	C	-1.569738	-0.298969	0.100092
C31	C	-1.400420	-0.298986	0.269325
C32	C	-0.714642	0.000016	0.177542
C33	C	-0.854082	0.000011	0.181257
C34	C	-1.492273	0.000011	-0.044824
C35	C	-1.488581	0.000013	-0.184267
N36	N	-1.485146	0.248764	0.184712
C37	C	-1.601123	0.000014	-0.263759
C38	C	-1.597647	0.000025	-0.394779
C39	C	-1.369076	0.000031	-0.366803
C40	C	-1.372554	0.000026	-0.235785
C41	C	-1.477935	0.000024	0.414252
C42	C	-1.481627	0.000029	0.553695
H43	H	-1.103920	-0.157891	0.187900
F44	F	-1.744532	-0.396225	-0.074576
F45	F	-1.120366	0.179690	0.188303
F46	F	-1.245598	0.000046	-0.421644
F47	F	-1.310297	-0.245525	0.359379
F48	F	-0.849856	-0.179654	0.181146
F49	F	-1.659844	-0.245484	0.010051
F50	F	-1.310374	-0.754486	0.359372
F51	F	-1.724610	0.000000	-0.208933
H52	H	-1.246840	-0.408836	0.422839
F53	F	-1.225696	-0.603745	0.443986
H54	H	-1.280902	0.000028	-0.171059
H55	H	-0.866272	0.157914	0.181567
H56	H	-1.689291	0.000028	-0.459497
H57	H	-1.638738	-0.741879	0.031214
F58	F	-1.744554	-0.603679	-0.074555
