data_functionalizedCrystal
_audit_creation_method	'MofGen! by Chris Wilmer'
_symmetry_space_group_name_H-M	'P1'
_symmetry_Int_Tables_number	1
_symmetry_cell_setting	triclinic
loop_
_symmetry_equiv_pos_as_xyz
  x,y,z
_cell_length_a	16.625548
_cell_length_b	13.897441
_cell_length_c	13.897448
_cell_angle_alpha	90.030599
_cell_angle_beta	90.018760
_cell_angle_gamma	90.021870
loop_
_atom_site_label
_atom_site_type_symbol
_atom_site_fract_x
_atom_site_fract_y
_atom_site_fract_z
Zn1	Zn	1.232718	0.545410	-0.383957
Zn2	Zn	1.482718	0.795410	-0.133957
Zn3	Zn	1.732718	1.045410	0.116043
Zn4	Zn	1.982718	1.295410	0.366043
Zn5	Zn	1.232629	0.384112	-0.545278
Zn6	Zn	1.482629	0.634112	-0.295278
Zn7	Zn	1.732629	0.884112	-0.045278
Zn8	Zn	1.982629	1.134112	0.204722
Zn9	Zn	1.097876	0.384126	-0.384002
Zn10	Zn	1.347876	0.634126	-0.134002
Zn11	Zn	1.597876	0.884126	0.115998
Zn12	Zn	1.847876	1.134126	0.365998
Zn13	Zn	1.097861	0.545361	-0.545214
Zn14	Zn	1.347861	0.795361	-0.295214
Zn15	Zn	1.597861	1.045361	-0.045214
Zn16	Zn	1.847861	1.295361	0.204786
O17	O	1.165271	0.464752	-0.464613
O18	O	1.415271	0.714752	-0.214613
O19	O	1.665271	0.964752	0.035387
O20	O	1.915271	1.214752	0.285387
O21	O	1.345538	0.524029	-0.405364
O22	O	1.595538	0.774029	-0.155364
O23	O	1.845538	1.024029	0.094636
O24	O	2.095538	1.274029	0.344636
O25	O	1.214723	0.249132	-0.523930
O26	O	1.464723	0.499132	-0.273930
O27	O	1.714723	0.749132	-0.023930
O28	O	1.964723	0.999132	0.226070
O29	O	1.115807	0.405547	-0.249014
O30	O	1.365807	0.655547	0.000986
O31	O	1.615807	0.905547	0.250986
O32	O	1.865807	1.155547	0.500986
O33	O	1.345473	0.405523	-0.523886
O34	O	1.595473	0.655523	-0.273886
O35	O	1.845473	0.905523	-0.023886
O36	O	2.095473	1.155523	0.226114
O37	O	1.214874	0.524042	-0.248981
O38	O	1.464874	0.774042	0.001019
O39	O	1.714874	1.024042	0.251019
O40	O	1.964874	1.274042	0.501019
O41	O	1.115721	0.249142	-0.405441
O42	O	1.365721	0.499142	-0.155441
O43	O	1.615721	0.749142	0.094559
O44	O	1.865721	0.999142	0.344559
O45	O	0.985042	0.405499	-0.405379
O46	O	1.235042	0.655499	-0.155379
O47	O	1.485042	0.905499	0.094621
O48	O	1.735042	1.155499	0.344621
O49	O	1.115781	0.680349	-0.523777
O50	O	1.365781	0.930349	-0.273777
O51	O	1.615781	1.180349	-0.023777
O52	O	1.865781	1.430349	0.226223
O53	O	0.985031	0.523958	-0.523821
O54	O	1.235031	0.773958	-0.273821
O55	O	1.485031	1.023958	-0.023821
O56	O	1.735031	1.273958	0.226179
O57	O	1.214859	0.680386	-0.405302
O58	O	1.464859	0.930386	-0.155302
O59	O	1.714859	1.180386	0.094698
O60	O	1.964859	1.430386	0.344698
O61	O	1.214708	0.405476	-0.680251
O62	O	1.464708	0.655476	-0.430251
O63	O	1.714708	0.905476	-0.180251
O64	O	1.964708	1.155476	0.069749
O65	O	1.115695	0.523945	-0.680204
O66	O	1.365695	0.773945	-0.430204
O67	O	1.615695	1.023945	-0.180204
O68	O	1.865695	1.273945	0.069796
C69	C	0.955780	0.464725	-0.464599
C70	C	1.205780	0.714725	-0.214599
C71	C	1.455780	0.964725	0.035401
C72	C	1.705780	1.214725	0.285401
C73	C	0.866159	0.464737	-0.464616
C74	C	1.116159	0.714737	-0.214616
C75	C	1.366159	0.964737	0.035384
C76	C	1.616159	1.214737	0.285384
C77	C	1.165328	0.716345	-0.464528
C78	C	1.415328	0.966345	-0.214528
C79	C	1.665328	1.216345	0.035472
C80	C	1.915328	1.466345	0.285472
C81	C	1.165353	0.823559	-0.464491
C82	C	1.415353	1.073559	-0.214491
C83	C	1.665353	1.323559	0.035509
C84	C	1.915353	1.573559	0.285509
C85	C	1.165212	0.464724	-0.715227
C86	C	1.415212	0.714724	-0.465227
C87	C	1.665212	0.964724	-0.215227
C88	C	1.915212	1.214724	0.034773
C89	C	1.165261	0.464745	-0.822441
C90	C	1.415261	0.714745	-0.572441
C91	C	1.665261	0.964745	-0.322441
C92	C	1.915261	1.214745	-0.072441
C93	C	0.537983	0.464778	-0.464623
C94	C	0.787983	0.714778	-0.214623
C95	C	1.037983	0.964778	0.035377
C96	C	1.287983	1.214778	0.285377
C97	C	0.629292	0.464763	-0.464618
C98	C	0.879292	0.714763	-0.214618
C99	C	1.129292	0.964763	0.035382
C100	C	1.379292	1.214763	0.285382
C101	C	0.702068	0.464757	-0.464620
C102	C	0.952068	0.714757	-0.214620
C103	C	1.202068	0.964757	0.035380
C104	C	1.452068	1.214757	0.285380
C105	C	0.793383	0.464743	-0.464615
C106	C	1.043383	0.714743	-0.214615
C107	C	1.293383	0.964743	0.035385
C108	C	1.543383	1.214743	0.285385
C109	C	1.375580	0.464780	-0.464627
C110	C	1.625580	0.714780	-0.214627
C111	C	1.875580	0.964780	0.035373
C112	C	2.125580	1.214780	0.285373
C113	C	1.465201	0.464792	-0.464634
C114	C	1.715201	0.714792	-0.214634
C115	C	1.965201	0.964792	0.035366
C116	C	2.215201	1.214792	0.285366
C117	C	1.165260	0.214138	-0.464628
C118	C	1.415260	0.464138	-0.214628
C119	C	1.665260	0.714138	0.035372
C120	C	1.915260	0.964138	0.285372
C121	C	1.165392	0.106925	-0.464393
C122	C	1.415392	0.356925	-0.214393
C123	C	1.665392	0.606925	0.035607
C124	C	1.915392	0.856925	0.285607
C125	C	1.165374	1.019855	-0.464426
C126	C	1.415374	1.269855	-0.214426
C127	C	1.665374	1.519855	0.035574
C128	C	1.915374	1.769855	0.285574
C129	C	1.165360	0.910622	-0.464465
C130	C	1.415360	1.160622	-0.214465
C131	C	1.665360	1.410622	0.035535
C132	C	1.915360	1.660622	0.285535
C133	C	1.165345	0.464805	-1.018736
C134	C	1.415345	0.714805	-0.768736
C135	C	1.665345	0.964805	-0.518736
C136	C	1.915345	1.214805	-0.268736
C137	C	1.165296	0.464774	-0.909504
C138	C	1.415296	0.714774	-0.659504
C139	C	1.665296	0.964774	-0.409504
C140	C	1.915296	1.214774	-0.159504
C141	C	1.165352	0.464801	-0.213020
C142	C	1.415352	0.714801	0.036980
C143	C	1.665352	0.964801	0.286980
C144	C	1.915352	1.214801	0.536980
C145	C	1.165387	0.464822	-0.105806
C146	C	1.415387	0.714822	0.144194
C147	C	1.665387	0.964822	0.394194
C148	C	1.915387	1.214822	0.644194
