data_functionalizedCrystal
_audit_creation_method	'MofGen! by Chris Wilmer'
_symmetry_space_group_name_H-M	'P1'
_symmetry_Int_Tables_number	1
_symmetry_cell_setting	triclinic
loop_
_symmetry_equiv_pos_as_xyz
  x,y,z
_cell_length_a	21.395364
_cell_length_b	19.120786
_cell_length_c	21.395355
_cell_angle_alpha	92.459295
_cell_angle_beta	90.024552
_cell_angle_gamma	92.480057
loop_
_atom_site_label
_atom_site_type_symbol
_atom_site_fract_x
_atom_site_fract_y
_atom_site_fract_z
Zn1	Zn	0.947247	-0.279432	0.343622
Zn2	Zn	0.942690	-0.396873	0.234373
Zn3	Zn	0.842461	-0.279463	0.238857
Zn4	Zn	0.837971	-0.396885	0.339112
O5	O	0.892592	-0.338163	0.288991
O6	O	1.034321	-0.294993	0.329140
O7	O	0.929366	-0.381306	0.147289
O8	O	0.860148	-0.181168	0.256519
O9	O	1.030973	-0.381276	0.248875
O10	O	0.937134	-0.181146	0.333489
O11	O	0.855728	-0.295045	0.150584
O12	O	0.754187	-0.295057	0.252146
O13	O	0.852495	-0.381297	0.427389
O14	O	0.750888	-0.381327	0.325803
O15	O	0.932780	-0.295005	0.430702
O16	O	0.925012	-0.495165	0.244503
O17	O	0.848076	-0.495174	0.321454
C18	C	0.729803	-0.338197	0.288972
C19	C	0.660161	-0.338229	0.288978
C20	C	0.629211	-0.293375	0.330831
C21	C	0.563776	-0.293356	0.330835
C22	C	0.529294	-0.338204	0.288991
C23	C	0.560251	-0.383061	0.247130
C24	C	0.625685	-0.383074	0.247124
C25	C	0.423167	-0.401459	0.281545
C26	C	0.357734	-0.401447	0.281555
C27	C	0.327474	-0.338165	0.289006
C28	C	0.362655	-0.274893	0.296460
C29	C	0.428088	-0.274905	0.296454
C30	C	0.458341	-0.338195	0.288992
C31	C	0.225573	-0.293287	0.330865
C32	C	0.160137	-0.293268	0.330864
C33	C	0.156613	-0.382979	0.247162
C34	C	0.222048	-0.382992	0.247160
C35	C	0.256524	-0.338148	0.289015
C36	C	0.885579	-0.520655	0.282016
C37	C	0.882636	-0.598726	0.279053
C38	C	0.921306	-0.635331	0.317768
C39	C	0.918538	-0.708687	0.314985
C40	C	0.877103	-0.745436	0.273484
C41	C	0.838429	-0.708825	0.234768
C42	C	0.841194	-0.635471	0.237554
C43	C	0.866748	-0.966923	0.263067
C44	C	0.863987	-1.040282	0.260282
C45	C	0.944096	-1.040139	0.340501
C46	C	0.946860	-0.966783	0.343281
C47	C	0.908184	-0.930179	0.304567
C48	C	0.874275	-0.820417	0.270637
C49	C	0.911010	-0.855199	0.307417
C50	C	1.056017	-0.338129	0.289010
C51	C	1.125659	-0.338115	0.289019
C52	C	0.892645	-0.338149	0.452415
C53	C	0.892667	-0.338143	0.522057
C54	C	0.899650	-0.154959	0.296007
C55	C	0.902657	-0.076888	0.298997
C56	C	0.892578	-0.338127	0.126205
C57	C	0.892684	-0.337935	0.056571
C58	C	0.934470	-0.293209	0.556496
C59	C	0.934470	-0.293179	0.621932
C60	C	0.892674	-0.338095	0.652927
C61	C	0.850863	-0.383032	0.618479
C62	C	0.850860	-0.383056	0.553044
C63	C	0.885296	-0.401340	0.754184
C64	C	0.885304	-0.401318	0.819618
C65	C	0.892681	-0.338021	0.854750
C66	C	0.900063	-0.274745	0.824441
C67	C	0.900060	-0.274769	0.759006
C68	C	0.892673	-0.338074	0.723880
C69	C	0.934486	-0.293050	0.960144
C70	C	0.934482	-0.293019	1.025582
C71	C	0.850878	-0.382879	1.022127
C72	C	0.850879	-0.382904	0.956691
C73	C	0.892686	-0.337991	0.925703
H74	H	0.338019	-0.223363	0.302527
N75	N	0.796117	-0.746350	0.192354
N76	N	0.761603	-0.713655	0.157782
H77	H	0.731725	-0.740155	0.127820
H78	H	0.247247	-0.419520	0.213081
N79	N	0.128533	-0.247442	0.373624
N80	N	0.135686	-0.252200	0.431249
H81	H	0.113367	-0.219833	0.461450
N82	N	0.958054	-0.746075	0.354519
N83	N	0.996450	-0.786965	0.330954
H84	H	1.024361	-0.813369	0.358876
N85	N	0.808180	-0.428799	0.921500
N86	N	0.769205	-0.404103	0.885913
H87	H	0.739044	-0.436515	0.861060
H88	H	0.253645	-0.256768	0.364942
N89	N	0.321811	-0.466082	0.273950
N90	N	0.348834	-0.522579	0.267291
H91	H	0.323465	-0.568230	0.261921
N92	N	0.821680	-1.077811	0.217860
N93	N	0.787167	-1.045121	0.183282
H94	H	0.757298	-1.071625	0.153313
N95	N	0.989191	-0.929259	0.385675
N96	N	1.023716	-0.961951	0.420239
H97	H	1.053616	-0.935450	0.450179
N98	N	0.877758	-0.465942	0.850585
N99	N	0.877762	-0.465913	0.909009
H100	H	0.872431	-0.511556	0.930880
H101	H	0.809704	-0.605667	0.206029
H102	H	0.840540	-0.850347	0.236845
H103	H	0.975584	-1.069950	0.372020
H104	H	0.447799	-0.452994	0.275476
N105	N	0.907598	-0.210146	0.728035
N106	N	0.952727	-0.200315	0.691910
H107	H	0.958049	-0.154675	0.670035
N108	N	0.827229	-0.929549	0.223528
N109	N	0.769103	-0.937831	0.227324
H110	H	0.741187	-0.911437	0.199398
H111	H	0.879122	-0.452871	0.725585
H112	H	0.532171	-0.419576	0.213060
N113	N	0.977179	-0.247330	0.524854
N114	N	1.014501	-0.207213	0.555616
H115	H	1.044665	-0.174810	0.533268
N116	N	0.657303	-0.428886	0.204363
N117	N	0.650155	-0.424126	0.146738
H118	H	0.672486	-0.456481	0.116538
H119	H	0.944744	-0.825276	0.341210
N120	N	0.121389	-0.428777	0.204415
N121	N	0.062967	-0.428757	0.204422
H122	H	0.038086	-0.461100	0.174228
N123	N	0.464034	-0.210285	0.304052
N124	N	0.522456	-0.210309	0.304041
H125	H	0.547843	-0.164670	0.309404
H126	H	0.816841	-0.419444	1.047362
H127	H	0.955050	-0.605415	0.351560
H128	H	0.968510	-0.256584	0.649978
N129	N	0.907598	-0.210089	0.860328
N130	N	0.907594	-0.210073	0.918752
H131	H	0.912915	-0.164411	0.944100
N132	N	0.977190	-0.247167	0.928496
N133	N	1.014507	-0.207043	0.959257
H134	H	1.044667	-0.174637	0.936907
H135	H	0.968522	-0.256424	1.053621
H136	H	0.816831	-0.419601	0.643719
N137	N	0.808151	-0.428960	0.517872
N138	N	0.770831	-0.469057	0.545549
H139	H	0.740667	-0.501478	0.520708
H140	H	0.538572	-0.256827	0.364915
N141	N	0.664416	-0.247567	0.373590
N142	N	0.636769	-0.207522	0.410957
H143	H	0.661633	-0.175170	0.441157
