data_functionalizedCrystal
_audit_creation_method	'MofGen! by Chris Wilmer'
_symmetry_space_group_name_H-M	'P1'
_symmetry_Int_Tables_number	1
_symmetry_cell_setting	triclinic
loop_
_symmetry_equiv_pos_as_xyz
  x,y,z
_cell_length_a	15.995300
_cell_length_b	15.995350
_cell_length_c	17.766277
_cell_angle_alpha	89.995869
_cell_angle_beta	89.989053
_cell_angle_gamma	83.482091
loop_
_atom_site_label
_atom_site_type_symbol
_atom_site_fract_x
_atom_site_fract_y
_atom_site_fract_z
O1	O	1.111018	0.107727	-0.062618
O2	O	1.611018	0.607727	0.437382
O3	O	0.867237	0.121099	-0.062613
O4	O	1.367237	0.621099	0.437387
O5	O	0.995791	-0.007476	-0.062615
O6	O	1.495791	0.492524	0.437385
O7	O	0.982463	0.236302	-0.062616
O8	O	1.482463	0.736302	0.437384
O9	O	0.995768	-0.007482	0.062574
O10	O	1.495768	0.492518	0.562574
O11	O	0.867214	0.121092	0.062575
O12	O	1.367214	0.621092	0.562575
O13	O	1.110995	0.107721	0.062570
O14	O	1.610995	0.607721	0.562570
Cu15	Cu	0.989102	0.114406	0.074004
Cu16	Cu	1.489102	0.614406	0.574004
Cu17	Cu	0.989129	0.114414	-0.074046
Cu18	Cu	1.489129	0.614414	0.425954
O19	O	0.982441	0.236295	0.062572
O20	O	1.482441	0.736295	0.562572
C21	C	0.836030	0.120550	-0.000018
C22	C	1.336030	0.620550	0.499982
C23	C	0.743077	0.118915	-0.000016
C24	C	1.243077	0.618915	0.499984
C25	C	0.572894	0.115896	-0.000022
C26	C	1.072894	0.615896	0.499978
C27	C	0.525428	0.207443	-0.000021
C28	C	1.025428	0.707443	0.499979
C29	C	0.428740	0.205773	-0.000307
C30	C	0.928740	0.705773	0.499693
C31	C	0.405337	0.112924	-0.000027
C32	C	0.905337	0.612924	0.499973
C33	C	0.446483	0.067507	-0.071375
C34	C	0.946483	0.567507	0.428625
C35	C	0.543116	0.069824	-0.071432
C36	C	1.043116	0.569824	0.428568
C37	C	0.543370	0.068461	0.070935
C38	C	1.043370	0.568461	0.570935
C39	C	0.446425	0.068469	0.071871
C40	C	0.946425	0.568469	0.571871
C41	C	0.310642	0.111239	-0.000032
C42	C	0.810642	0.611239	0.499968
C43	C	0.667590	0.117577	-0.000022
C44	C	1.167590	0.617577	0.499978
C45	C	0.995229	-0.038674	-0.000022
C46	C	1.495229	0.461326	0.499978
C47	C	0.993577	-0.131624	-0.000026
C48	C	1.493577	0.368376	0.499974
C49	C	0.987644	-0.469370	-0.000024
C50	C	1.487644	0.030630	0.499976
C51	C	0.896090	-0.421920	-0.000303
C52	C	1.396090	0.078080	0.499697
C53	C	0.897743	-0.325230	-0.000020
C54	C	1.397743	0.174770	0.499980
C55	C	0.990587	-0.301810	-0.000025
C56	C	1.490587	0.198190	0.499975
C57	C	1.035732	-0.342900	0.071461
C58	C	1.535732	0.157100	0.571461
C59	C	1.033432	-0.439535	0.071521
C60	C	1.533432	0.060465	0.571521
C61	C	1.035349	-0.439886	-0.070842
C62	C	1.535349	0.060114	0.429158
C63	C	1.035327	-0.342941	-0.071787
C64	C	1.535327	0.157059	0.428213
C65	C	0.992255	-0.207113	-0.000024
C66	C	1.492255	0.292887	0.499976
C67	C	0.985979	-0.564068	-0.000020
C68	C	1.485979	-0.064068	0.499980
C69	C	1.142202	0.108269	-0.000026
C70	C	1.642202	0.608269	0.499974
C71	C	1.235154	0.109904	-0.000033
C72	C	1.735154	0.609904	0.499967
C73	C	0.983003	0.267493	-0.000022
C74	C	1.483003	0.767493	0.499978
C75	C	0.984655	0.360443	-0.000023
C76	C	1.484655	0.860443	0.499977
N77	N	0.989090	0.114400	0.178134
N78	N	1.489090	0.614400	0.678134
N79	N	0.989148	0.114413	-0.178177
N80	N	1.489148	0.614413	0.321823
C81	C	1.046032	0.057495	0.217520
C82	C	1.546032	0.557495	0.717520
C83	C	1.046037	0.057491	0.296322
C84	C	1.546037	0.557491	0.796322
C85	C	0.989107	0.114406	0.335735
C86	C	1.489107	0.614406	0.835735
C87	C	0.932154	0.171316	0.296339
C88	C	1.432154	0.671316	0.796339
C89	C	0.932145	0.171312	0.217539
C90	C	1.432145	0.671312	0.717539
C91	C	0.978136	0.190665	0.460572
C92	C	1.478136	0.690665	0.960572
C93	C	0.978151	0.190669	0.539371
C94	C	1.478151	0.690669	1.039371
C95	C	0.989130	0.114417	0.578781
C96	C	1.489130	0.614417	1.078781
C97	C	1.000112	0.038156	0.539382
C98	C	1.500112	0.538156	1.039382
C99	C	1.000103	0.038153	0.460582
C100	C	1.500103	0.538153	0.960582
C101	C	0.989110	0.114416	0.421180
C102	C	1.489110	0.614416	0.921180
C103	C	1.046080	0.057503	0.703613
C104	C	1.546080	0.557503	1.203613
C105	C	1.046079	0.057498	0.782416
C106	C	1.546079	0.557498	1.282416
C107	C	0.932201	0.171330	0.782432
C108	C	1.432201	0.671330	1.282432
C109	C	0.932198	0.171328	0.703630
C110	C	1.432198	0.671328	1.203630
C111	C	0.989142	0.114415	0.664225
C112	C	1.489142	0.614415	1.164225
H113	H	0.419076	0.101635	0.124655
H114	H	0.919076	0.601635	0.624655
H115	H	0.543910	0.244231	0.051135
H116	H	1.043910	0.744231	0.551135
H117	H	1.092408	0.011150	0.328396
H118	H	1.592408	0.511150	0.828396
H119	H	1.002321	-0.315683	-0.124670
H120	H	1.502321	0.184317	0.375330
F121	F	0.392350	0.252223	-0.067548
F122	F	0.892350	0.752223	0.432452
H123	H	1.009042	-0.023941	0.428507
H124	H	1.509042	0.476059	0.928507
H125	H	1.103034	-0.327591	-0.076107
H126	H	1.603034	0.172409	0.423893
H127	H	0.885775	0.217652	0.185470
H128	H	1.385775	0.717652	0.685470
H129	H	0.885833	0.217668	0.671560
H130	H	1.385833	0.717668	1.171560
F131	F	0.551066	0.254821	-0.066796
F132	F	1.051066	0.754821	0.433204
H133	H	1.100649	-0.471795	0.074761
H134	H	1.600649	0.028205	0.574761
F135	F	0.426372	-0.020011	0.077784
F136	F	0.926372	0.479989	0.577784
F137	F	1.106683	-0.003075	0.824335
F138	F	1.606683	0.496925	1.324335
F139	F	0.567076	0.112612	-0.141408
F140	F	1.067076	0.612612	0.358592
H141	H	0.575390	0.002600	-0.074481
H142	H	1.075390	0.502600	0.425519
F143	F	0.584922	-0.019757	0.071842
F144	F	1.084922	0.480243	0.571842
F145	F	0.966469	0.271831	0.581295
F146	F	1.466469	0.771831	1.081295
F147	F	1.123579	-0.481416	-0.071476
F148	F	1.623579	0.018584	0.428524
H149	H	0.859650	-0.441510	0.050678
H150	H	1.359650	0.058490	0.550678
H151	H	0.969182	0.252763	0.428491
H152	H	1.469182	0.752763	0.928491
H153	H	0.432384	-0.000716	-0.073827
H154	H	0.932384	0.499284	0.426173
H155	H	0.861998	-0.297361	0.051313
H156	H	1.361998	0.202639	0.551313
H157	H	1.004358	-0.314515	0.124662
H158	H	1.504358	0.185485	0.624662
H159	H	1.103942	-0.328786	0.074116
H160	H	1.603942	0.171214	0.574116
F161	F	0.409461	0.108267	-0.141039
F162	F	0.909461	0.608267	0.358961
H163	H	0.862255	-0.296799	-0.051265
H164	H	1.362255	0.203201	0.448735
H165	H	1.009051	-0.023936	0.571468
H166	H	1.509051	0.476064	1.071468
F167	F	0.391522	0.252424	0.066525
F168	F	0.891522	0.752424	0.566525
F169	F	0.570152	0.107852	0.141642
F170	F	1.070152	0.607852	0.641642
H171	H	1.000493	-0.457833	0.124962
H172	H	1.500493	0.042167	0.624962
H173	H	1.092397	0.011151	0.185439
H174	H	1.592397	0.511151	0.685439
H175	H	0.885800	0.217656	0.328433
H176	H	1.385800	0.717656	0.828433
H177	H	0.859506	-0.440442	-0.051567
H178	H	1.359506	0.059558	0.448433
F179	F	0.996231	-0.466713	-0.141663
F180	F	1.496231	0.033287	0.358337
H181	H	0.885845	0.217668	0.814521
H182	H	1.385845	0.717668	1.314521
H183	H	1.092446	0.011158	0.671528
H184	H	1.592446	0.511158	1.171528
