data_functionalizedCrystal
_audit_creation_method	'MofGen! by Chris Wilmer'
_symmetry_space_group_name_H-M	'P1'
_symmetry_Int_Tables_number	1
_symmetry_cell_setting	triclinic
loop_
_symmetry_equiv_pos_as_xyz
  x,y,z
_cell_length_a	16.120444
_cell_length_b	12.645331
_cell_length_c	16.120297
_cell_angle_alpha	92.874661
_cell_angle_beta	84.384883
_cell_angle_gamma	87.078945
loop_
_atom_site_label
_atom_site_type_symbol
_atom_site_fract_x
_atom_site_fract_y
_atom_site_fract_z
Zn1	Zn	-0.356878	-1.566060	0.489551
Zn2	Zn	-0.489568	-1.565924	0.356863
Zn3	Zn	-0.349800	-1.398252	0.349787
Zn4	Zn	-0.496594	-1.379268	0.496574
O5	O	-0.423210	-1.477376	0.423194
O6	O	-0.374501	-1.714387	0.471971
O7	O	-0.465125	-1.551569	0.238963
O8	O	-0.233774	-1.428514	0.362426
O9	O	-0.471988	-1.714286	0.374486
O10	O	-0.238974	-1.551802	0.465110
O11	O	-0.362438	-1.428382	0.233764
O12	O	-0.369251	-1.247389	0.369237
O13	O	-0.483963	-1.396159	0.612604
O14	O	-0.477100	-1.233442	0.477081
O15	O	-0.381314	-1.533394	0.607444
O16	O	-0.607465	-1.533161	0.381297
O17	O	-0.612627	-1.396026	0.483942
C18	C	-0.423170	-1.201952	0.423154
C19	C	-0.423175	-1.084121	0.423157
C20	C	-0.355037	-0.925293	0.355644
C21	C	-0.355198	-1.047860	0.355377
C22	C	-0.510001	-1.035251	0.403550
C23	C	-0.509616	-0.912707	0.403087
C24	C	-0.405311	-0.912487	0.510547
C25	C	-0.403328	-1.035259	0.509963
C26	C	-0.640375	-1.462547	0.434168
C27	C	-0.733280	-1.456298	0.438890
C28	C	-0.942195	-1.510041	0.398874
C29	C	-0.903375	-1.444907	0.447522
C30	C	-0.808725	-1.451247	0.442718
C31	C	-1.036853	-1.503703	0.403677
C32	C	-0.205198	-1.492291	0.412195
C33	C	-0.112294	-1.498647	0.407508
C34	C	-0.434212	-1.462674	0.641199
C35	C	-0.438900	-1.456409	0.734100
C36	C	-0.423234	-0.753878	0.423221
C37	C	-0.423200	-0.871712	0.423198
C38	C	-0.412191	-1.492086	0.206034
C39	C	-0.407267	-1.498572	0.113121
C40	C	-0.447441	-1.444933	0.904189
C41	C	-0.398729	-1.510045	0.943037
C42	C	-0.403481	-1.503659	1.037681
C43	C	-0.442690	-1.451317	0.809537
H44	H	-0.290302	-0.899267	0.367248
H45	H	-0.455014	-0.877050	0.560825
N46	N	-0.341935	-1.585983	0.895586
N47	N	-0.338105	-1.591127	0.817656
H48	H	-0.297997	-1.644757	0.784139
H49	H	-0.904350	-1.570559	0.353620
H50	H	-0.941223	-1.384384	0.492778
H51	H	-0.525312	-0.887159	0.339363
N52	N	-0.504219	-1.368982	0.951634
N53	N	-0.477190	-1.300229	0.998860
H54	H	-0.517287	-1.246589	1.032379
N55	N	-0.274242	-1.089895	0.370127
N56	N	-0.217226	-1.028703	0.380691
H57	H	-0.160043	-1.058386	0.391097
H58	H	-0.366356	-0.897872	0.291202
H59	H	-0.366666	-1.080579	0.290560
H60	H	-0.561882	-0.876630	0.450386
N61	N	-0.323193	-1.075729	0.528605
N62	N	-0.259487	-1.060544	0.480938
H63	H	-0.202890	-1.089131	0.494099
N64	N	-0.575172	-1.063755	0.463590
N65	N	-0.558313	-1.120543	0.521638
H66	H	-0.604339	-1.140676	0.564045
H67	H	-0.526063	-1.068934	0.340540
H68	H	-0.343334	-0.884393	0.529235
H69	H	-0.449715	-1.059518	0.562630
