data_functionalizedCrystal
_audit_creation_method	'MofGen! by Chris Wilmer'
_symmetry_space_group_name_H-M	'P1'
_symmetry_Int_Tables_number	1
_symmetry_cell_setting	triclinic
loop_
_symmetry_equiv_pos_as_xyz
  x,y,z
_cell_length_a	23.532407
_cell_length_b	23.532407
_cell_length_c	22.010155
_cell_angle_alpha	90.000423
_cell_angle_beta	89.996931
_cell_angle_gamma	97.151322
loop_
_atom_site_label
_atom_site_type_symbol
_atom_site_fract_x
_atom_site_fract_y
_atom_site_fract_z
O1	O	0.755264	-0.069127	-0.050455
O2	O	1.255264	0.430873	0.449545
O3	O	0.589400	-0.079130	-0.050474
O4	O	1.089400	0.420870	0.449526
O5	O	0.677334	0.008803	-0.050453
O6	O	1.177334	0.508803	0.449547
O7	O	0.667330	-0.157060	-0.050476
O8	O	1.167330	0.342940	0.449524
O9	O	0.677318	0.008790	0.050597
O10	O	1.177318	0.508790	0.550597
O11	O	0.589384	-0.079143	0.050576
O12	O	1.089384	0.420857	0.550576
O13	O	0.755248	-0.069140	0.050595
O14	O	1.255248	0.430860	0.550595
Cu15	Cu	0.672315	-0.074143	0.059812
Cu16	Cu	1.172315	0.425857	0.559812
Cu17	Cu	0.672333	-0.074127	-0.059691
Cu18	Cu	1.172333	0.425873	0.440309
O19	O	0.667314	-0.157073	0.050574
O20	O	1.167314	0.342927	0.550574
C21	C	0.568176	-0.078882	0.000049
C22	C	1.068176	0.421118	0.500049
C23	C	0.504959	-0.078116	0.000042
C24	C	1.004959	0.421884	0.500042
C25	C	0.105856	-0.125350	0.000063
C26	C	0.605856	0.374650	0.500063
C27	C	0.046456	-0.124638	0.000067
C28	C	0.546456	0.375362	0.500067
O29	O	0.009711	-0.168424	0.000083
O30	O	0.509711	0.331576	0.500083
N31	N	0.023830	-0.072362	0.000073
N32	N	0.523830	0.427638	0.500073
C33	C	0.060607	-0.020794	0.000082
C34	C	0.560607	0.479206	0.500082
O35	O	0.035908	0.023737	0.000088
O36	O	0.535908	0.523737	0.500088
C37	C	0.120006	-0.021506	0.000082
C38	C	0.620006	0.478494	0.500082
C39	C	0.142629	-0.073785	0.000070
C40	C	0.642629	0.426215	0.500070
C41	C	0.128479	-0.177625	0.000051
C42	C	0.628479	0.322375	0.500051
C43	C	0.187876	-0.178336	0.000046
C44	C	0.687876	0.321664	0.500046
C45	C	0.224649	-0.126772	0.000053
C46	C	0.724649	0.373228	0.500053
C47	C	0.202025	-0.074497	0.000065
C48	C	0.702025	0.425503	0.500065
C49	C	0.156783	0.030062	0.000096
C50	C	0.656783	0.530062	0.500096
C51	C	0.216185	0.029345	0.000097
C52	C	0.716185	0.529345	0.500097
C53	C	0.238808	-0.022934	0.000084
C54	C	0.738808	0.477066	0.500084
C55	C	0.298194	-0.023643	0.000067
C56	C	0.798194	0.476357	0.500067
N57	N	0.320820	-0.075920	0.000061
N58	N	0.820820	0.424080	0.500061
C59	C	0.284048	-0.127484	0.000054
C60	C	0.784048	0.372516	0.500054
C61	C	-0.064135	-0.019302	0.000082
C62	C	0.435865	0.480698	0.500082
C63	C	-0.123533	-0.018589	0.000077
C64	C	0.376467	0.481411	0.500077
C65	C	-0.137680	-0.122434	0.000063
C66	C	0.362320	0.377566	0.500063
C67	C	-0.078281	-0.123146	0.000064
C68	C	0.421719	0.376854	0.500064
C69	C	-0.041509	-0.071578	0.000076
C70	C	0.458491	0.428422	0.500076
C71	C	0.408784	-0.128974	0.000043
C72	C	0.908784	0.371026	0.500043
C73	C	0.468186	-0.129680	0.000035
C74	C	0.968186	0.370320	0.500035
C75	C	0.482329	-0.025836	0.000052
C76	C	0.982329	0.474164	0.500052
C77	C	0.422932	-0.025129	0.000057
C78	C	0.922932	0.474871	0.500057
C79	C	0.386160	-0.076702	0.000054
C80	C	0.886160	0.423298	0.500054
O81	O	0.334974	0.020119	0.000054
O82	O	0.834974	0.520119	0.500054
O83	O	0.308755	-0.172007	0.000055
O84	O	0.808755	0.327993	0.500055
C85	C	0.677071	0.030013	0.000074
C86	C	1.177071	0.530013	0.500074
C87	C	0.676305	0.093230	0.000078
C88	C	1.176305	0.593230	0.500078
C89	C	0.776472	-0.069388	0.000071
C90	C	1.276472	0.430612	0.500071
C91	C	0.839689	-0.070154	0.000073
C92	C	1.339689	0.429846	0.500073
C93	C	0.667577	-0.178283	0.000046
C94	C	1.167577	0.321717	0.500046
C95	C	0.668343	-0.241500	0.000037
C96	C	1.168343	0.258500	0.500037
N97	N	0.672305	-0.074153	0.143865
N98	N	1.172305	0.425847	0.643865
C99	C	0.723539	0.492333	0.000050
C100	C	1.223539	0.992333	0.500050
C101	C	0.722827	0.551733	0.000046
C102	C	1.222827	1.051733	0.500046
O103	O	0.766613	0.588478	0.000028
O104	O	1.266613	1.088478	0.500028
N105	N	0.670551	0.574359	0.000040
N106	N	1.170551	1.074359	0.500040
C107	C	0.618983	0.537582	0.000033
C108	C	1.118983	1.037582	0.500033
O109	O	0.574452	0.562281	0.000027
O110	O	1.074452	1.062281	0.500027
C111	C	0.619695	0.478182	0.000033
C112	C	1.119695	0.978182	0.500033
C113	C	0.671974	0.455560	0.000045
C114	C	1.171974	0.955560	0.500045
C115	C	0.775814	0.469710	0.000061
C116	C	1.275814	0.969710	0.500061
C117	C	0.776525	0.410313	0.000067
C118	C	1.276525	0.910313	0.500067
C119	C	0.724961	0.373540	0.000062
C120	C	1.224961	0.873540	0.500062
C121	C	0.672685	0.396164	0.000051
C122	C	1.172685	0.896164	0.500051
C123	C	0.568127	0.441406	0.000022
C124	C	1.068127	0.941406	0.500022
C125	C	0.568844	0.382004	0.000022
C126	C	1.068844	0.882004	0.500022
C127	C	0.621123	0.359381	0.000034
C128	C	1.121123	0.859381	0.500034
C129	C	0.621832	0.299995	0.000052
C130	C	1.121832	0.799995	0.500052
N131	N	0.674109	0.277368	0.000057
N132	N	1.174109	0.777368	0.500057
C133	C	0.725673	0.314141	0.000062
C134	C	1.225673	0.814141	0.500062
C135	C	0.617491	0.662324	0.000031
C136	C	1.117491	1.162324	0.500031
C137	C	0.616778	0.721722	0.000035
C138	C	1.116778	1.221722	0.500035
C139	C	0.720623	0.735869	0.000047
C140	C	1.220623	1.235869	0.500047
C141	C	0.721335	0.676470	0.000047
C142	C	1.221335	1.176470	0.500047
C143	C	0.669767	0.639698	0.000037
C144	C	1.169767	1.139698	0.500037
C145	C	0.727163	0.189405	0.000075
C146	C	1.227163	0.689405	0.500075
C147	C	0.727869	0.130003	0.000083
C148	C	1.227869	0.630003	0.500083
C149	C	0.624025	0.115860	0.000069
C150	C	1.124025	0.615860	0.500069
C151	C	0.623318	0.175257	0.000064
C152	C	1.123318	0.675257	0.500064
C153	C	0.674891	0.212029	0.000065
C154	C	1.174891	0.712029	0.500065
O155	O	0.578070	0.263215	0.000067
O156	O	1.078070	0.763215	0.500067
O157	O	0.770196	0.289433	0.000060
O158	O	1.270196	0.789433	0.500060
N159	N	0.672347	-0.074112	-0.143744
N160	N	1.172347	0.425888	0.356256
C161	C	0.711273	-0.035196	0.563653
C162	C	1.211273	0.464804	1.063653
C163	C	0.711275	-0.035192	0.627261
C164	C	1.211275	0.464808	1.127261
O165	O	0.744384	-0.002076	0.660160
O166	O	1.244384	0.497924	1.160160
N167	N	0.672333	-0.074115	0.659072
N168	N	1.172333	0.425885	1.159072
C169	C	0.633382	-0.113041	0.627272
C170	C	1.133382	0.386959	1.127272
O171	O	0.600259	-0.146148	0.660170
O172	O	1.100259	0.353852	1.160170
C173	C	0.633377	-0.113042	0.563665
C174	C	1.133377	0.386958	1.063665
C175	C	0.672326	-0.074120	0.531858
C176	C	1.172326	0.425880	1.031858
C177	C	0.750217	0.003723	0.531846
C178	C	1.250217	0.503723	1.031846
C179	C	0.750215	0.003719	0.468243
C180	C	1.250215	0.503719	0.968243
C181	C	0.711268	-0.035205	0.436447
C182	C	1.211268	0.464795	0.936447
C183	C	0.672324	-0.074125	0.468255
C184	C	1.172324	0.425875	0.968255
C185	C	0.594424	-0.151965	0.531866
C186	C	1.094424	0.348035	1.031866
C187	C	0.594422	-0.151962	0.468256
C188	C	1.094422	0.348038	0.968256
C189	C	0.633370	-0.113040	0.436448
C190	C	1.133370	0.386960	0.936448
C191	C	0.633374	-0.113054	0.372856
C192	C	1.133374	0.386946	0.872856
N193	N	0.672317	-0.074130	0.341045
N194	N	1.172317	0.425870	0.841045
C195	C	0.711263	-0.035206	0.372841
C196	C	1.211263	0.464794	0.872841
C197	C	0.633395	-0.113036	0.760850
C198	C	1.133395	0.386964	1.260850
C199	C	0.633402	-0.113039	0.824455
C200	C	1.133402	0.386961	1.324455
C201	C	0.711294	-0.035188	0.824440
C202	C	1.211294	0.464812	1.324440
C203	C	0.711290	-0.035189	0.760833
C204	C	1.211290	0.464811	1.260833
C205	C	0.672337	-0.074113	0.729039
C206	C	1.172337	0.425887	1.229039
C207	C	0.711256	-0.035220	0.239269
C208	C	1.211256	0.464780	0.739269
C209	C	0.711252	-0.035229	0.175660
C210	C	1.211252	0.464771	0.675660
C211	C	0.633358	-0.113077	0.175681
C212	C	1.133358	0.386923	0.675681
C213	C	0.633364	-0.113070	0.239284
C214	C	1.133364	0.386930	0.739284
C215	C	0.672315	-0.074136	0.271077
C216	C	1.172315	0.425864	0.771077
O217	O	0.600282	-0.146151	0.339916
O218	O	1.100282	0.353849	0.839916
O219	O	0.744376	-0.002100	0.339935
O220	O	1.244376	0.497900	0.839935
H221	H	-0.141947	0.023982	0.000078
H222	H	0.358053	0.523982	0.500078
C223	C	0.291194	0.088802	-0.051840
C224	C	0.791194	0.588802	0.448160
C225	C	0.256607	0.086031	0.000107
C226	C	0.756607	0.586031	0.500107
H227	H	0.316150	0.123795	-0.051832
H228	H	0.816150	0.623795	0.448168
H229	H	0.267728	0.086929	-0.087071
H230	H	0.767728	0.586929	0.412929
H231	H	0.313168	0.057565	-0.051841
H232	H	0.813168	0.557565	0.448159
H233	H	0.234630	0.117266	0.000106
H234	H	0.734630	0.617266	0.500106
H235	H	0.280076	0.087909	0.035346
H236	H	0.780076	0.587909	0.535346
C237	C	0.788842	-0.022453	0.310780
C238	C	1.288842	0.477547	0.810780
C239	C	0.754074	0.007575	0.274209
C240	C	1.254074	0.507575	0.774209
H241	H	0.815274	0.003966	0.332352
H242	H	1.315274	0.503966	0.832352
H243	H	0.809184	-0.046056	0.285966
H244	H	1.309184	0.453944	0.785966
H245	H	0.765646	-0.045625	0.338832
H246	H	1.265646	0.454375	0.838832
H247	H	0.777270	0.030744	0.246154
H248	H	1.277270	0.530744	0.746154
H249	H	0.733730	0.031188	0.299026
H250	H	1.233730	0.531188	0.799026
H251	H	0.601654	-0.144769	0.265183
H252	H	1.101654	0.355231	0.765183
C253	C	0.010866	0.040152	0.052030
C254	C	0.510866	0.540152	0.552030
C255	C	-0.023717	0.037387	0.000085
C256	C	0.476283	0.537387	0.500085
H257	H	0.035812	0.075151	0.052033
H258	H	0.535812	0.575151	0.552033
H259	H	0.032844	0.008925	0.052023
H260	H	0.532844	0.508925	0.552023
H261	H	-0.012608	0.038266	0.087265
H262	H	0.487392	0.538266	0.587265
H263	H	-0.000244	0.039270	-0.035151
H264	H	0.499756	0.539270	0.464849
H265	H	-0.045698	0.068623	0.000087
H266	H	0.454302	0.568623	0.500087
C267	C	0.558039	0.587322	-0.051918
C268	C	1.058039	1.087322	0.448082
C269	C	0.560802	0.621907	0.000028
C270	C	1.060802	1.121907	0.500028
H271	H	0.523040	0.562375	-0.051921
H272	H	1.023040	1.062375	0.448079
H273	H	0.589267	0.565342	-0.051910
H274	H	1.089267	1.065342	0.448090
H275	H	0.559929	0.610794	-0.087152
H276	H	1.059929	1.110794	0.412848
H277	H	0.558917	0.598434	0.035263
H278	H	1.058917	1.098434	0.535263
H279	H	0.529566	0.643888	0.000026
H280	H	1.029566	1.143888	0.500026
H281	H	0.582043	0.085909	0.000067
H282	H	1.082043	0.585909	0.500067
C283	C	-0.168040	-0.210735	0.052002
C284	C	0.331960	0.289265	0.552002
C285	C	-0.178109	-0.179117	0.000060
C286	C	0.321891	0.320883	0.500060
H287	H	-0.192998	-0.245727	0.051996
H288	H	0.307002	0.254273	0.551996
H289	H	-0.174868	-0.189286	0.087236
H290	H	0.325132	0.310714	0.587236
H291	H	-0.129426	-0.218642	0.051992
H292	H	0.370574	0.281358	0.551992
H293	H	-0.216721	-0.171206	0.000072
H294	H	0.283279	0.328794	0.500072
H295	H	-0.171286	-0.200570	-0.035183
H296	H	0.328714	0.299430	0.464817
C297	C	0.782391	0.617885	-0.051892
C298	C	1.282391	1.117885	0.448108
C299	C	0.778801	0.651604	0.000054
C300	C	1.278801	1.151604	0.500054
H301	H	0.817868	0.602534	-0.051886
H302	H	1.317868	1.102534	0.448114
H303	H	0.779961	0.640765	-0.087123
H304	H	1.279961	1.140765	0.412877
H305	H	0.751782	0.587482	-0.051890
H306	H	1.251782	1.087482	0.448110
H307	H	0.809407	0.682010	0.000049
H308	H	1.309407	1.182010	0.500049
H309	H	0.781237	0.628722	0.035294
H310	H	1.281237	1.128722	0.535294
H311	H	0.404512	0.017441	0.000058
H312	H	0.904512	0.517441	0.500058
C313	C	0.835255	0.544712	0.052014
C314	C	1.335255	1.044712	0.552014
C315	C	0.832499	0.510127	0.000068
C316	C	1.332499	1.010127	0.500068
H317	H	0.870251	0.569663	0.052018
H318	H	1.370251	1.069663	0.552018
H319	H	0.833365	0.521244	0.087245
H320	H	1.333365	1.021244	0.587245
H321	H	0.804021	0.566691	0.052002
H322	H	1.304021	1.066691	0.552002
H323	H	0.863730	0.488145	0.000082
H324	H	1.363730	0.988145	0.500082
H325	H	0.834394	0.533598	-0.035172
H326	H	1.334394	1.033598	0.464828
H327	H	0.781933	0.035423	0.557728
H328	H	1.281933	0.535423	1.057728
H329	H	0.762610	0.765821	0.000048
H330	H	1.262610	1.265821	0.500048
C331	C	0.333785	-0.188417	-0.051910
C332	C	0.833785	0.311583	0.448090
C333	C	0.368369	-0.185663	0.000035
C334	C	0.868369	0.314337	0.500035
H335	H	0.308833	-0.223413	-0.051915
H336	H	0.808833	0.276587	0.448085
H337	H	0.357254	-0.186528	-0.087142
H338	H	0.857254	0.313472	0.412858
H339	H	0.311807	-0.157183	-0.051895
H340	H	0.811807	0.342817	0.448105
H341	H	0.390351	-0.216895	0.000017
H342	H	0.890351	0.283105	0.500017
H343	H	0.344898	-0.187558	0.035276
H344	H	0.844898	0.312442	0.535276
H345	H	0.138375	0.072634	0.000106
H346	H	0.638375	0.572634	0.500106
C347	C	0.724044	0.042419	0.689352
C348	C	1.224044	0.542419	1.189352
C349	C	0.754080	0.007633	0.725893
C350	C	1.254080	0.507633	1.225893
H351	H	0.750458	0.068865	0.667788
H352	H	1.250458	0.568865	1.167788
H353	H	0.700442	0.062745	0.714186
H354	H	1.200442	0.562745	1.214186
H355	H	0.700870	0.019236	0.661293
H356	H	1.200870	0.519236	1.161293
H357	H	0.777252	0.030816	0.753956
H358	H	1.277252	0.530816	1.253956
H359	H	0.777692	-0.012694	0.701058
H360	H	1.277692	0.487306	1.201058
H361	H	0.206289	-0.220908	0.000036
H362	H	0.706289	0.279092	0.500036
C363	C	0.559821	-0.186538	0.370760
C364	C	1.059821	0.313462	0.870760
C365	C	0.551604	-0.194750	0.433307
C366	C	1.051604	0.305250	0.933307
H367	H	0.533385	-0.212952	0.349186
H368	H	1.033385	0.287048	0.849186
H369	H	0.597787	-0.192535	0.360334
H370	H	1.097787	0.307465	0.860334
H371	H	0.553853	-0.148558	0.360339
H372	H	1.053853	0.351442	0.860339
H373	H	0.557576	-0.232729	0.443729
H374	H	1.057576	0.267271	0.943729
H375	H	0.513629	-0.188757	0.443737
H376	H	1.013629	0.311243	0.943737
H377	H	0.580748	0.193677	0.000071
H378	H	1.080748	0.693677	0.500071
H379	H	0.486602	-0.172255	0.000025
H380	H	0.986602	0.327745	0.500025
H381	H	0.512280	0.016146	0.000056
H382	H	1.012280	0.516146	0.500056
H383	H	0.769159	0.219337	0.000073
H384	H	1.269159	0.719337	0.500073
H385	H	0.601692	-0.144738	0.850348
H386	H	1.101692	0.355262	1.350348
H387	H	0.574207	0.740136	0.000036
H388	H	1.074207	1.240136	0.500036
H389	H	-0.059867	-0.165717	0.000057
H390	H	0.440133	0.334283	0.500057
H391	H	0.781929	0.035414	0.442349
H392	H	1.281929	0.535414	0.942349
C393	C	0.479412	0.447611	-0.051952
C394	C	0.979412	0.947611	0.448048
C395	C	0.510658	0.466261	0.000003
C396	C	1.010658	0.966261	0.500003
H397	H	0.443933	0.462958	-0.051965
H398	H	0.943933	0.962958	0.448035
H399	H	0.472468	0.406977	-0.051945
H400	H	0.972468	0.906977	0.448055
H401	H	0.500644	0.460260	-0.087181
H402	H	1.000644	0.960260	0.412819
H403	H	0.489428	0.453609	0.035232
H404	H	0.989428	0.953609	0.535232
H405	H	0.517601	0.506904	0.000002
H406	H	1.017601	1.006904	0.500002
H407	H	0.770443	0.111587	0.000094
H408	H	1.270443	0.611587	0.500094
C409	C	0.599347	-0.211842	0.156087
C410	C	1.099347	0.288158	0.656087
C411	C	0.590549	-0.155860	0.140721
C412	C	1.090549	0.344140	0.640721
H413	H	0.572919	-0.238251	0.134500
H414	H	1.072919	0.261749	0.634500
H415	H	0.593769	-0.217412	0.198515
H416	H	1.093769	0.282588	0.698515
H417	H	0.637321	-0.217830	0.145659
H418	H	1.137321	0.282170	0.645659
H419	H	0.552577	-0.149871	0.151154
H420	H	1.052577	0.350129	0.651154
H421	H	0.596123	-0.150288	0.098284
H422	H	1.096123	0.349712	0.598284
H423	H	0.562708	-0.183658	0.557755
H424	H	1.062708	0.316342	1.057755
H425	H	0.601676	-0.144737	0.734966
H426	H	1.101676	0.355263	1.234966
C427	C	0.745299	0.063581	0.844022
C428	C	1.245299	0.563581	1.344022
C429	C	0.754105	0.007603	0.859396
C430	C	1.254105	0.507603	1.359396
H431	H	0.771730	0.089996	0.865601
H432	H	1.271730	0.589996	1.365601
H433	H	0.707331	0.069567	0.854450
H434	H	1.207331	0.569567	1.354450
H435	H	0.750875	0.069145	0.801588
H436	H	1.250875	0.569145	1.301588
H437	H	0.748524	0.002038	0.901829
H438	H	1.248524	0.502038	1.401829
H439	H	0.792082	0.001615	0.848972
H440	H	1.292082	0.501615	1.348972
H441	H	0.526850	0.352066	0.000013
H442	H	1.026850	0.852066	0.500013
H443	H	0.742971	-0.003534	0.149765
H444	H	1.242971	0.496466	0.649765
H445	H	0.098544	-0.219617	0.000048
H446	H	0.598544	0.280383	0.500048
H447	H	0.819097	0.391900	0.000074
H448	H	1.319097	0.891900	0.500074
