data_functionalizedCrystal
_audit_creation_method	'MofGen! by Chris Wilmer'
_symmetry_space_group_name_H-M	'P1'
_symmetry_Int_Tables_number	1
_symmetry_cell_setting	triclinic
loop_
_symmetry_equiv_pos_as_xyz
  x,y,z
_cell_length_a	18.101397
_cell_length_b	21.395362
_cell_length_c	18.101390
_cell_angle_alpha	89.957156
_cell_angle_beta	90.035542
_cell_angle_gamma	89.961273
loop_
_atom_site_label
_atom_site_type_symbol
_atom_site_fract_x
_atom_site_fract_y
_atom_site_fract_z
Zn1	Zn	-0.294440	-0.957872	0.419184
Zn2	Zn	-0.418297	-0.957803	0.295337
Zn3	Zn	-0.294514	-0.853096	0.295306
Zn4	Zn	-0.418284	-0.853075	0.419086
O5	O	-0.356384	-0.905462	0.357229
O6	O	-0.310845	-1.045541	0.402810
O7	O	-0.401913	-0.943893	0.191700
O8	O	-0.190871	-0.867033	0.311767
O9	O	-0.401842	-1.045490	0.311820
O10	O	-0.190817	-0.944011	0.402780
O11	O	-0.310970	-0.866966	0.191677
O12	O	-0.310957	-0.765416	0.311672
O13	O	-0.401819	-0.866996	0.522732
O14	O	-0.401891	-0.765400	0.402613
O15	O	-0.310832	-0.943990	0.522804
O16	O	-0.521928	-0.943872	0.311725
O17	O	-0.521919	-0.866929	0.402643
C18	C	-0.356431	-0.742674	0.357129
C19	C	-0.356469	-0.673033	0.357104
C20	C	-0.403882	-0.640328	0.404383
C21	C	-0.403867	-0.574892	0.404410
C22	C	-0.356447	-0.542164	0.357146
C23	C	-0.309024	-0.574877	0.309863
C24	C	-0.309035	-0.640311	0.309842
C25	C	-0.350504	-0.438444	0.290467
C26	C	-0.350498	-0.373011	0.290487
C27	C	-0.356408	-0.340344	0.357210
C28	C	-0.362340	-0.373117	0.423916
C29	C	-0.362351	-0.438551	0.423895
C30	C	-0.356429	-0.471212	0.357163
C31	C	-0.403808	-0.236686	0.404523
C32	C	-0.403788	-0.171249	0.404552
C33	C	-0.308949	-0.171236	0.309998
C34	C	-0.308965	-0.236671	0.309976
C35	C	-0.356399	-0.269392	0.357237
C36	C	-0.548794	-0.905408	0.357193
C37	C	-0.631108	-0.905442	0.357202
C38	C	-0.930199	-0.905522	0.357270
C39	C	-0.898849	-0.953798	0.299913
C40	C	-0.813231	-0.953965	0.300062
C41	C	-0.781817	-0.905483	0.357236
C42	C	-0.812810	-0.923382	0.435305
C43	C	-0.898455	-0.923755	0.434993
C44	C	-0.898735	-0.839219	0.337232
C45	C	-0.813085	-0.839546	0.335490
C46	C	-0.697957	-0.905459	0.357221
C47	C	-1.014059	-0.905547	0.357289
C48	C	-0.163222	-0.905532	0.357281
C49	C	-0.080908	-0.905563	0.357303
C50	C	-0.356316	-0.905499	0.550391
C51	C	-0.356287	-0.905515	0.632705
C52	C	-0.356349	-0.068885	0.357308
C53	C	-0.356366	-0.138526	0.357287
C54	C	-0.356398	-0.905460	0.164818
C55	C	-0.356218	-0.905566	0.082504
C56	C	-0.356241	-0.905548	0.931796
C57	C	-0.299196	-0.954150	0.900516
C58	C	-0.298984	-0.953999	0.814898
C59	C	-0.356264	-0.905532	0.783413
C60	C	-0.335086	-0.839523	0.814456
C61	C	-0.334658	-0.839814	0.900101
C62	C	-0.434612	-0.922374	0.900213
C63	C	-0.434212	-0.923822	0.814563
C64	C	-0.356278	-0.905519	0.699554
C65	C	-0.356225	-0.905557	1.015655
H66	H	-0.270413	-0.548226	0.271381
H67	H	-0.442396	-0.144622	0.443057
H68	H	-0.278435	-0.825002	0.793013
H69	H	-0.375357	-0.802328	0.794057
H70	H	-0.453901	-0.969664	0.921879
H71	H	-0.345688	-0.465036	0.236130
H72	H	-0.919011	-0.803250	0.379007
O73	O	-0.785988	-1.019021	0.317629
H74	H	-0.724671	-1.019370	0.317789
O75	O	-0.786264	-0.821659	0.259390
H76	H	-0.724979	-0.820005	0.259234
H77	H	-0.270423	-0.666939	0.271342
H78	H	-0.270359	-0.263300	0.271472
H79	H	-0.442477	-0.548259	0.442914
O80	O	-0.927425	-0.817651	0.263123
H81	H	-0.988635	-0.814958	0.264906
H82	H	-0.374401	-0.802370	0.920789
O83	O	-0.926524	-0.939036	0.223148
H84	H	-0.878873	-0.929580	0.186242
H85	H	-0.792460	-0.889295	0.479191
H86	H	-0.367151	-0.346521	0.478248
O87	O	-0.344097	-0.337663	0.218546
H88	H	-0.339972	-0.371369	0.172147
O89	O	-0.784771	-0.789333	0.386764
H90	H	-0.802105	-0.800077	0.444190
O91	O	-0.927243	-1.018505	0.317276
H92	H	-0.963585	-1.016432	0.366580
O93	O	-0.924824	-0.987952	0.457460
H94	H	-0.876405	-1.018439	0.468443
H95	H	-0.792278	-0.942767	0.242176
H96	H	-0.241460	-0.943153	0.922051
H97	H	-0.919191	-0.890134	0.479202
O98	O	-0.454939	-0.271990	0.455517
H99	H	-0.492591	-0.301750	0.422307
O100	O	-0.455373	-0.988169	0.787700
H101	H	-0.410570	-1.007049	0.752305
H102	H	-0.791283	-0.971304	0.452560
O103	O	-0.222079	-0.939254	0.787765
H104	H	-0.184896	-0.932196	0.835816
H105	H	-0.312244	-1.002946	0.793913
O106	O	-0.257806	-0.135947	0.259010
H107	H	-0.265768	-0.084951	0.266962
O108	O	-0.493541	-0.880342	0.786183
H109	H	-0.468284	-0.844855	0.749273
H110	H	-0.367179	-0.465233	0.478209
O111	O	-0.490920	-0.875491	0.927004
H112	H	-0.463270	-0.840373	0.962641
H113	H	-0.277370	-0.825552	0.920088
O114	O	-0.455030	-0.675622	0.455366
H115	H	-0.487992	-0.641882	0.488253
O116	O	-0.316520	-1.019199	0.927850
H117	H	-0.365972	-1.017587	0.964025
