data_functionalizedCrystal
_audit_creation_method	'MofGen! by Chris Wilmer'
_symmetry_space_group_name_H-M	'P1'
_symmetry_Int_Tables_number	1
_symmetry_cell_setting	triclinic
loop_
_symmetry_equiv_pos_as_xyz
  x,y,z
_cell_length_a	14.853567
_cell_length_b	15.995350
_cell_length_c	13.930277
_cell_angle_alpha	89.997676
_cell_angle_beta	89.995755
_cell_angle_gamma	83.563653
loop_
_atom_site_label
_atom_site_type_symbol
_atom_site_fract_x
_atom_site_fract_y
_atom_site_fract_z
O1	O	1.196221	0.109317	-0.079760
O2	O	0.933744	0.122339	-0.079776
O3	O	1.072157	-0.006051	-0.079766
O4	O	1.057808	0.237707	-0.079769
O5	O	1.072138	-0.006054	0.079895
O6	O	0.933725	0.122336	0.079886
O7	O	1.196202	0.109314	0.079902
Zn8	Zn	1.064960	0.115825	0.105244
Zn9	Zn	1.064986	0.115828	-0.105117
O10	O	1.057788	0.237705	0.079893
C11	C	0.900146	0.121748	0.000053
C12	C	0.800065	0.119980	0.000047
C13	C	0.387644	0.036238	0.000069
C14	C	0.366158	0.188769	0.000067
C15	C	0.460189	0.190432	0.000064
C16	C	0.517953	0.114996	0.000062
C17	C	0.481685	0.037899	0.000063
C18	C	0.496464	0.267528	0.000053
C19	C	0.590501	0.269194	0.000048
C20	C	0.648266	0.193758	0.000054
C21	C	0.611993	0.116657	0.000056
C22	C	0.669757	0.041221	0.000054
C23	C	0.633485	-0.035880	0.000064
C24	C	0.539450	-0.037538	0.000069
C25	C	0.742302	0.195415	0.000049
C26	C	0.763797	0.042882	0.000048
C27	C	1.071555	-0.037248	0.000063
C28	C	1.069776	-0.130201	0.000057
C29	C	1.063389	-0.467956	0.000060
C30	C	0.964813	-0.420636	-0.000304
C31	C	0.966592	-0.323944	0.000056
C32	C	1.066557	-0.300391	0.000058
C33	C	1.115167	-0.341414	0.091234
C34	C	1.112691	-0.438052	0.091310
C35	C	1.114749	-0.438405	-0.090255
C36	C	1.114726	-0.341460	-0.091460
C37	C	1.068353	-0.205692	0.000060
C38	C	1.061596	-0.562655	0.000064
C39	C	1.229799	0.109906	0.000071
C40	C	1.329881	0.111674	0.000071
C41	C	1.058391	0.268901	0.000062
C42	C	1.060170	0.361854	0.000061
N43	N	1.064950	0.115822	0.248810
N44	N	1.065003	0.115825	-0.248684
C45	C	1.003694	0.172657	0.701075
C46	C	1.126302	0.058993	0.701053
C47	C	1.126292	0.058990	0.600557
C48	C	1.064982	0.115823	0.550316
C49	C	1.003683	0.172658	0.600570
C50	C	1.187595	0.002162	0.550295
C51	C	1.187588	0.002158	0.449793
C52	C	1.126273	0.058987	0.399550
C53	C	1.064971	0.115824	0.449811
C54	C	1.003661	0.172656	0.399569
C55	C	0.942354	0.229490	0.449828
C56	C	0.942368	0.229487	0.550327
C57	C	1.126259	0.058989	0.299051
C58	C	1.003651	0.172657	0.299064
H59	H	0.928381	-0.295565	-0.065303
H60	H	1.081389	-0.313073	0.159082
F61	F	1.211161	-0.322841	0.095671
H62	H	0.953776	0.218928	0.741998
F63	F	0.877111	0.289978	0.396347
H64	H	0.771830	0.258190	0.000043
F65	F	0.913401	-0.446589	0.084442
F66	F	0.877127	0.289971	0.603819
H67	H	0.319121	0.250185	0.000060
H68	H	1.176223	0.012726	0.741962
H69	H	1.077228	-0.456396	0.159464
F70	F	0.349042	-0.045815	0.000084
H71	H	0.509909	-0.100310	0.000099
F72	F	0.434985	0.347806	0.000040
F73	F	1.252848	-0.058316	0.603765
F74	F	0.629095	0.351251	0.000040
H75	H	1.237506	-0.044120	0.408879
F76	F	0.938391	0.233144	0.245602
H77	H	0.928108	-0.296125	0.065521
F78	F	1.191508	-0.001489	0.245568
F79	F	0.913322	-0.444914	-0.085767
F80	F	1.072628	-0.465290	-0.180582
H81	H	1.079186	-0.314251	-0.158910
F82	F	0.825267	-0.037409	0.000053
F83	F	1.210010	-0.321266	-0.098660
F84	F	1.207284	-0.480096	0.096729
F85	F	0.694972	-0.116161	0.000055
F86	F	1.209745	-0.479809	-0.091056
