data_functionalizedCrystal
_audit_creation_method	'MofGen! by Chris Wilmer'
_symmetry_space_group_name_H-M	'P1'
_symmetry_Int_Tables_number	1
_symmetry_cell_setting	triclinic
loop_
_symmetry_equiv_pos_as_xyz
  x,y,z
_cell_length_a	10.540539
_cell_length_b	19.188930
_cell_length_c	9.016244
_cell_angle_alpha	89.992636
_cell_angle_beta	89.994699
_cell_angle_gamma	83.835137
loop_
_atom_site_label
_atom_site_type_symbol
_atom_site_fract_x
_atom_site_fract_y
_atom_site_fract_z
O1	O	1.683725	0.098388	-0.123289
O2	O	1.314108	0.107659	-0.123309
O3	O	1.509583	0.001439	-0.123270
O4	O	1.488250	0.204608	-0.123329
O5	O	1.509554	0.001441	0.123411
O6	O	1.314079	0.107661	0.123372
O7	O	1.683697	0.098391	0.123392
Cu8	Cu	1.498885	0.103026	0.145905
Cu9	Cu	1.498919	0.103023	-0.145823
O10	O	1.488222	0.204611	0.123352
C11	C	1.266806	0.106965	0.000029
C12	C	1.125904	0.104885	0.000023
C13	C	0.944233	0.025184	0.000622
C14	C	1.090805	0.027292	0.000050
C15	C	1.063424	0.142224	-0.140849
C16	C	0.916938	0.139576	-0.140951
C17	C	0.916383	0.141157	0.139570
C18	C	1.063349	0.141872	0.141417
C19	C	1.508878	-0.024575	0.000075
C20	C	1.506804	-0.102094	0.000088
C21	C	1.621502	-0.146253	0.000101
C22	C	1.619554	-0.219090	0.000077
C23	C	1.502901	-0.247764	0.000070
C24	C	1.388187	-0.203595	0.000048
C25	C	1.390139	-0.130760	0.000057
N26	N	1.413724	-0.356363	0.084015
N27	N	1.411878	-0.425553	0.084010
C28	C	1.497014	-0.467212	0.000039
N29	N	1.584085	-0.437067	-0.083907
N30	N	1.585935	-0.367870	-0.083895
C31	C	1.500772	-0.326741	0.000059
C32	C	1.609608	-0.590350	0.000025
C33	C	1.607655	-0.663188	-0.000008
C34	C	1.376285	-0.647691	-0.000023
C35	C	1.378241	-0.574855	-0.000004
C36	C	1.494906	-0.546189	0.000026
C37	C	1.730998	0.099085	0.000050
C38	C	1.871901	0.101165	0.000047
C39	C	1.488927	0.230625	0.000004
C40	C	1.491000	0.308143	-0.000018
N41	N	1.498871	0.103028	0.351092
N42	N	1.498944	0.103016	-0.351009
C43	C	1.393992	0.159658	0.586103
C44	C	1.394216	0.159870	0.414212
C45	C	1.631229	0.119601	0.413432
C46	C	1.630654	0.120002	0.585376
C47	C	1.472714	0.029640	0.585655
C48	C	1.469658	0.030115	0.413700
H49	H	0.885377	0.116048	0.246350
N50	N	1.118377	0.105740	0.279469
H51	H	1.077784	0.129762	0.370041
H52	H	1.100627	0.055058	0.278454
N53	N	1.743264	-0.266735	0.000117
H54	H	1.747631	-0.297296	-0.091326
H55	H	1.817397	-0.237478	0.000195
H56	H	1.653829	0.173535	0.625451
N57	N	1.347658	0.008761	0.643153
H58	H	1.288800	0.002298	0.557015
H59	H	1.363754	-0.036644	0.700138
N60	N	1.262367	-0.234517	0.000032
H61	H	1.278534	-0.287359	0.000033
H62	H	1.212179	-0.218408	0.091475
N63	N	1.662665	0.189713	0.356373
H64	H	1.748000	0.199908	0.397107
H65	H	1.666446	0.188571	0.244461
N66	N	1.747330	-0.115337	0.000090
H67	H	1.731167	-0.062495	0.000087
H68	H	1.797503	-0.131456	0.091535
N69	N	1.093775	0.216808	0.152672
H70	H	1.148782	0.227892	0.065883
H71	H	1.011826	0.249334	0.151462
N72	N	1.737138	0.067459	0.640493
H73	H	1.784251	0.044144	0.553090
H74	H	1.798168	0.092282	0.702580
H75	H	1.284841	-0.538899	-0.000007
N76	N	1.416353	0.231977	0.359677
H77	H	1.416590	0.232415	0.247662
H78	H	1.346000	0.267420	0.397428
H79	H	0.889348	0.111977	-0.246239
N80	N	1.737126	0.066448	0.359288
H81	H	1.700232	0.031030	0.293668
H82	H	1.800886	0.091092	0.300959
H83	H	1.296735	-0.094804	0.000047
H84	H	1.372297	0.017553	0.372957
H85	H	1.541159	-0.014060	0.370740
N86	N	1.250465	-0.678610	-0.000007
H87	H	1.178098	-0.639579	-0.000002
H88	H	1.244617	-0.708486	-0.091455
N89	N	1.574094	-0.026208	0.639516
H90	H	1.636718	-0.004125	0.704624
H91	H	1.532751	-0.062466	0.698317
H92	H	1.704603	-0.567009	0.000043
N93	N	0.907259	-0.015421	0.134450
H94	H	0.843257	0.015039	0.196006
H95	H	0.868178	-0.058542	0.100745
N96	N	1.731371	-0.710821	-0.000000
H97	H	1.805568	-0.681606	0.000025
H98	H	1.735578	-0.741386	0.091442
H99	H	1.295820	0.149898	0.372066
H100	H	0.914710	-0.005341	-0.099826
N101	N	1.148106	-0.011620	0.133815
H102	H	1.078159	-0.030301	0.193683
H103	H	1.211031	-0.051908	0.100073
H104	H	1.295283	0.149839	0.627495
N105	N	0.852170	0.215389	0.140835
H106	H	0.881107	0.240826	0.230714
H107	H	0.875837	0.240368	0.047875
N108	N	1.415844	0.231368	0.643220
H109	H	1.493427	0.227323	0.709663
H110	H	1.429970	0.263088	0.556733
H111	H	1.133214	-0.002297	-0.101092
H112	H	0.867740	0.195380	-0.147361
N113	N	1.091379	0.217701	-0.147842
H114	H	1.144941	0.228441	-0.059547
H115	H	1.139325	0.225675	-0.242260
H116	H	1.106597	0.116284	-0.245674
