data_functionalizedCrystal
_audit_creation_method	'MofGen! by Chris Wilmer'
_symmetry_space_group_name_H-M	'P1'
_symmetry_Int_Tables_number	1
_symmetry_cell_setting	triclinic
loop_
_symmetry_equiv_pos_as_xyz
  x,y,z
_cell_length_a	17.699083
_cell_length_b	17.019234
_cell_length_c	16.176319
_cell_angle_alpha	86.125122
_cell_angle_beta	90.002310
_cell_angle_gamma	83.335110
loop_
_atom_site_label
_atom_site_type_symbol
_atom_site_fract_x
_atom_site_fract_y
_atom_site_fract_z
O1	O	-1.004138	-0.099742	0.075734
O2	O	-0.783768	-0.112721	0.076685
O3	O	-0.900108	0.008613	0.068025
O4	O	-0.887797	-0.221076	0.084395
O5	O	-0.900097	0.008591	-0.069467
O6	O	-0.783756	-0.112743	-0.060806
O7	O	-1.004127	-0.099764	-0.061758
Cu8	Cu	-0.893941	-0.106255	-0.073836
Cu9	Cu	-0.893954	-0.106230	0.088764
O10	O	-0.887786	-0.221098	-0.053097
C11	C	-0.755565	-0.112267	0.007910
C12	C	-0.671546	-0.110872	0.007821
C13	C	-0.899638	0.037991	-0.002814
C14	C	-0.898246	0.125558	-0.009049
C15	C	-1.032330	-0.100218	0.007020
C16	C	-1.116349	-0.101613	0.007114
C17	C	-0.888256	-0.250476	0.017743
C18	C	-0.889649	-0.338043	0.023984
C19	C	-0.622969	-0.182092	0.012896
C20	C	-0.544025	-0.180777	0.012792
C21	C	-0.513659	-0.108240	0.007618
C22	C	-0.562242	-0.037014	0.002539
C23	C	-0.641185	-0.038330	0.002638
C24	C	-0.243876	-0.031703	0.002140
C25	C	-0.164927	-0.030392	0.002044
C26	C	-0.146716	-0.174150	0.012294
C27	C	-0.225658	-0.175466	0.012393
C28	C	-0.274235	-0.104240	0.007310
C29	C	-0.359835	-0.105668	0.007422
C30	C	-0.428061	-0.106811	0.007512
C31	C	-0.890300	0.620816	-0.048037
C32	C	-0.891616	0.538537	-0.042182
C33	C	-0.892286	0.497402	0.035693
C34	C	-0.891632	0.538549	0.107719
C35	C	-0.890311	0.620825	0.101864
C36	C	-0.896271	0.248981	0.057122
C37	C	-0.897594	0.166699	0.062972
C38	C	-0.897577	0.166694	-0.086931
C39	C	-0.896260	0.248972	-0.092779
C40	C	-0.895602	0.290111	-0.020753
C41	C	-0.893633	0.413301	0.041680
C42	C	-0.894249	0.374210	-0.026740
N43	N	-0.893937	-0.106273	-0.188200
C44	C	-0.848116	-0.058428	-0.756994
C45	C	-0.848115	-0.058434	-0.670447
C46	C	-0.893957	-0.106223	-0.623779
C47	C	-0.939809	-0.154002	-0.663664
C48	C	-0.939814	-0.153991	-0.750210
C49	C	-0.939791	-0.154047	-0.314632
C50	C	-0.939780	-0.154056	-0.228080
C51	C	-0.848091	-0.058489	-0.234869
C52	C	-0.848096	-0.058478	-0.321415
C53	C	-0.893951	-0.106255	-0.361292
C54	C	-0.893953	-0.106246	-0.455137
C55	C	-0.893951	-0.106236	-0.529935
N56	N	-0.893964	-0.106205	0.203127
H57	H	-0.647686	-0.241160	0.017111
H58	H	-0.893700	0.407705	-0.090146
H59	H	-0.810784	-0.019526	-0.637982
H60	H	-0.895742	0.282467	0.115771
C61	C	-0.895519	0.294214	-0.178442
H62	H	-0.896089	0.257927	-0.220498
H63	H	-0.939118	0.332418	-0.184285
H64	H	-0.850882	0.320201	-0.183397
H65	H	-0.977139	-0.192909	-0.625660
C66	C	-0.797672	-0.005909	-0.372745
H67	H	-0.770372	0.022552	-0.336599
H68	H	-0.762805	-0.038274	-0.404213
H69	H	-0.828740	0.030443	-0.409083
C70	C	-0.528846	0.042778	-0.003152
H71	H	-0.569085	0.085006	-0.006168
H72	H	-0.498427	0.046288	0.044544
H73	H	-0.498432	0.046271	-0.051355
C74	C	-0.797655	-0.005928	-0.191006
H75	H	-0.770348	0.022526	-0.231196
H76	H	-0.828706	0.030416	-0.159824
H77	H	-0.762781	-0.038311	-0.154948
H78	H	-0.977113	-0.192973	-0.190085
H79	H	-0.680736	0.019665	-0.001495
H80	H	-0.889758	0.654302	-0.111452
H81	H	-0.977128	-0.192950	-0.347090
C82	C	-0.797683	-0.005866	-0.808321
H83	H	-0.770381	0.022591	-0.772172
H84	H	-0.762816	-0.038237	-0.839782
H85	H	-0.828742	0.030489	-0.844663
C86	C	-0.894379	0.368054	0.127340
H87	H	-0.893801	0.404337	0.169400
H88	H	-0.939010	0.342064	0.132289
H89	H	-0.850774	0.329852	0.133183
C90	C	-0.990242	-0.206551	-0.794076
H91	H	-1.017538	-0.235020	-0.753888
H92	H	-1.025114	-0.174176	-0.830136
H93	H	-0.959181	-0.242895	-0.825257
H94	H	-0.898111	0.133189	-0.145570
C95	C	-0.898326	0.121448	0.148637
H96	H	-0.899215	0.066557	0.141805
H97	H	-0.853996	0.128822	0.178915
H98	H	-0.942232	0.141041	0.178033
C99	C	-0.490593	-0.259119	0.018378
H100	H	-0.519984	-0.302507	0.021484
H101	H	-0.459423	-0.261606	-0.029394
H102	H	-0.459415	-0.261583	0.066504
C103	C	-0.892370	0.493306	0.193383
H104	H	-0.891786	0.529594	0.235437
H105	H	-0.937002	0.467319	0.198340
H106	H	-0.848766	0.455103	0.199226
C107	C	-0.892341	0.493286	-0.121405
H108	H	-0.891764	0.529570	-0.168623
H109	H	-0.848742	0.455083	-0.121802
H110	H	-0.936978	0.467300	-0.122674
C111	C	-0.131527	0.049402	-0.003656
H112	H	-0.171763	0.091634	-0.006677
H113	H	-0.101107	0.052916	0.044039
H114	H	-0.101112	0.052886	-0.051859
C115	C	-0.259057	-0.255256	0.018081
H116	H	-0.218818	-0.297485	0.021081
H117	H	-0.289472	-0.258753	0.066277
H118	H	-0.289474	-0.258761	-0.029622
C119	C	-0.093280	-0.252498	0.017874
H120	H	-0.041915	-0.241329	0.017066
H121	H	-0.102471	-0.282239	0.067943
H122	H	-0.102482	-0.282254	-0.027956
C123	C	-0.889595	0.666084	0.181084
H124	H	-0.888704	0.720974	0.166444
H125	H	-0.933929	0.658711	0.212400
H126	H	-0.845693	0.646492	0.213278
H127	H	-0.283418	0.026293	-0.001999
