data_functionalizedCrystal
_audit_creation_method	'MofGen! by Chris Wilmer'
_symmetry_space_group_name_H-M	'P1'
_symmetry_Int_Tables_number	1
_symmetry_cell_setting	triclinic
loop_
_symmetry_equiv_pos_as_xyz
  x,y,z
_cell_length_a	14.044220
_cell_length_b	19.188930
_cell_length_c	13.101039
_cell_angle_alpha	93.345801
_cell_angle_beta	86.340132
_cell_angle_gamma	88.166830
loop_
_atom_site_label
_atom_site_type_symbol
_atom_site_fract_x
_atom_site_fract_y
_atom_site_fract_z
O1	O	1.262233	0.164759	-0.085127
O2	O	1.762233	0.664759	0.414873
O3	O	0.986290	0.158685	-0.085152
O4	O	1.486290	0.658685	0.414848
O5	O	1.132223	0.060581	-0.085119
O6	O	1.632223	0.560581	0.414881
O7	O	1.116300	0.262863	-0.085160
O8	O	1.616300	0.762863	0.414840
O9	O	1.121753	0.067633	0.085309
O10	O	1.621753	0.567633	0.585309
O11	O	0.975820	0.165737	0.085275
O12	O	1.475820	0.665737	0.585275
O13	O	1.251762	0.171810	0.085300
O14	O	1.751762	0.671810	0.585300
Zn15	Zn	1.112128	0.169893	0.112347
Zn16	Zn	1.612128	0.669893	0.612347
Zn17	Zn	1.125924	0.160602	-0.112199
Zn18	Zn	1.625924	0.660602	0.387801
O19	O	1.105829	0.269914	0.085267
O20	O	1.605829	0.769914	0.585267
C21	C	0.945752	0.159553	0.000059
C22	C	1.445752	0.659553	0.500059
C23	C	0.840559	0.151623	0.000050
C24	C	1.340559	0.651623	0.500050
C25	C	0.647957	0.137129	0.000073
C26	C	1.147957	0.637129	0.500073
C27	C	0.590091	0.193363	0.000066
C28	C	1.090091	0.693363	0.500066
C29	C	0.482920	0.185298	0.000079
C30	C	0.982920	0.685298	0.500079
C31	C	0.755137	0.145193	0.000060
C32	C	1.255137	0.645193	0.500060
C33	C	1.126472	0.038063	0.000098
C34	C	1.626472	0.538063	0.500098
C35	C	1.124923	-0.039541	0.000106
C36	C	1.624923	0.460459	0.500106
C37	C	1.210553	-0.078939	0.000119
C38	C	1.710553	0.421061	0.500119
C39	C	1.209099	-0.151857	0.000103
C40	C	1.709099	0.348143	0.500103
C41	C	1.122010	-0.185374	0.000094
C42	C	1.622010	0.314626	0.500094
C43	C	1.036370	-0.145968	0.000075
C44	C	1.536370	0.354032	0.500075
C45	C	1.037827	-0.073051	0.000082
C46	C	1.537827	0.426949	0.500082
N47	N	1.051878	-0.295275	0.058088
N48	N	1.551878	0.204725	0.558088
N49	N	1.050500	-0.364543	0.058084
N50	N	1.550500	0.135457	0.558084
C51	C	1.117617	-0.405067	0.000073
C52	C	1.617617	0.094933	0.500073
N53	N	1.186177	-0.373707	-0.057921
N54	N	1.686177	0.126293	0.442079
N55	N	1.187558	-0.304433	-0.057913
N56	N	1.687558	0.195567	0.442087
C57	C	1.120421	-0.264440	0.000086
C58	C	1.620421	0.235560	0.500086
C59	C	1.201676	-0.523532	0.000066
C60	C	1.701676	-0.023532	0.500066
C61	C	1.200219	-0.596452	0.000043
C62	C	1.700219	-0.096452	0.500043
C63	C	1.027487	-0.590560	0.000026
C64	C	1.527487	-0.090560	0.500026
C65	C	1.028947	-0.517642	0.000039
C66	C	1.528947	-0.017642	0.500039
C67	C	1.116043	-0.484132	0.000064
C68	C	1.616043	0.015868	0.500064
C69	C	1.292301	0.170943	0.000087
C70	C	1.792301	0.670943	0.500087
C71	C	1.397494	0.178872	0.000089
C72	C	1.897494	0.678872	0.500089
C73	C	1.111580	0.292433	0.000048
C74	C	1.611580	0.792433	0.500048
C75	C	1.113129	0.370037	0.000033
C76	C	1.613129	0.870037	0.500033
N77	N	1.102720	0.176234	0.265593
N78	N	1.602720	0.676234	0.765593
N79	N	1.135340	0.154257	-0.265445
N80	N	1.635340	0.654257	0.234555
C81	C	1.089920	0.184867	0.474633
C82	C	1.589920	0.684867	0.974633
C83	C	1.148137	0.145626	0.525522
C84	C	1.648137	0.645626	1.025522
C85	C	1.141014	0.150429	0.641839
C86	C	1.641014	0.650429	1.141839
C87	C	1.097041	0.180064	0.358306
C88	C	1.597041	0.680064	0.858306
H89	H	0.617011	0.082932	0.000090
H90	H	1.117011	0.582932	0.500090
O91	O	1.295107	-0.046318	-0.000006
O92	O	1.795107	0.453682	0.499994
C93	C	1.402456	0.028903	-0.088321
C94	C	1.902456	0.528903	0.411679
C95	C	1.306663	-0.007988	-0.088290
C96	C	1.806663	0.492012	0.411710
H97	H	1.411838	0.059890	-0.159702
H98	H	1.911838	0.559890	0.340298
H99	H	1.403097	0.065882	-0.017045
H100	H	1.903097	0.565882	0.482955
H101	H	1.463386	-0.011799	-0.088267
H102	H	1.963386	0.488201	0.411733
H103	H	1.245679	0.032664	-0.088380
H104	H	1.745679	0.532664	0.411620
H105	H	1.306104	-0.044980	-0.159560
H106	H	1.806104	0.455020	0.340440
O107	O	0.951704	-0.178438	0.000204
O108	O	1.451704	0.321562	0.500204
C109	C	0.798223	-0.192102	0.088505
C110	C	1.298223	0.307898	0.588505
C111	C	0.894059	-0.155270	0.088482
C112	C	1.394059	0.344730	0.588482
H113	H	0.751598	-0.173396	0.159881
H114	H	1.251598	0.326604	0.659881
H115	H	0.760237	-0.179239	0.017224
H116	H	1.260237	0.320761	0.517224
H117	H	0.811915	-0.250985	0.088455
H118	H	1.311915	0.249015	0.588455
H119	H	0.880451	-0.096380	0.088568
H120	H	1.380451	0.403620	0.588568
H121	H	0.932014	-0.168191	0.159757
H122	H	1.432014	0.331809	0.659757
O123	O	0.626953	0.258046	0.000215
O124	O	1.126953	0.758046	0.500215
C125	C	0.632243	0.371481	0.088417
C126	C	1.132243	0.871481	0.588417
C127	C	0.590432	0.298255	0.088397
C128	C	1.090432	0.798255	0.588397
H129	H	0.602717	0.404016	0.159694
H130	H	1.102717	0.904016	0.659694
H131	H	0.713353	0.366589	0.088471
H132	H	1.213353	0.866589	0.588471
H133	H	0.611561	0.398065	0.017050
H134	H	1.111561	0.898065	0.517050
H135	H	0.611042	0.271630	0.159752
H136	H	1.111042	0.771630	0.659752
H137	H	0.509330	0.303195	0.088290
H138	H	1.009330	0.803195	0.588290
H139	H	1.034735	0.222068	0.518417
H140	H	1.534735	0.722068	1.018417
H141	H	1.203327	0.108423	0.481732
H142	H	1.703327	0.608423	0.981732
O143	O	1.292367	-0.190031	0.000164
O144	O	1.792367	0.309969	0.500164
C145	C	1.463847	-0.188187	0.000139
C146	C	1.963847	0.311813	0.500139
C147	C	1.369617	-0.144873	0.000093
C148	C	1.869617	0.355127	0.500093
H149	H	1.526330	-0.151696	0.000060
H150	H	2.026330	0.348304	0.500060
H151	H	1.463156	-0.219511	0.071478
H152	H	1.963156	0.280489	0.571478
H153	H	1.471815	-0.225432	-0.071169
H154	H	1.971815	0.274568	0.428831
H155	H	1.361589	-0.107590	0.071352
H156	H	1.861589	0.392410	0.571352
H157	H	1.370350	-0.113596	-0.071294
H158	H	1.870350	0.386404	0.428706
O159	O	0.954588	-0.034857	-0.000061
O160	O	1.454588	0.465143	0.499939
C161	C	0.812858	-0.011119	-0.088400
C162	C	1.312858	0.488881	0.411600
C163	C	0.907088	-0.054434	-0.088356
C164	C	1.407088	0.445566	0.411644
H165	H	0.774437	-0.026920	-0.159789
H166	H	1.274437	0.473080	0.340211
H167	H	0.765537	-0.021078	-0.017132
H168	H	1.265537	0.478922	0.482868
H169	H	0.828879	0.046751	-0.088339
H170	H	1.328879	0.546751	0.411661
H171	H	0.891156	-0.112317	-0.088453
H172	H	1.391156	0.387683	0.411547
H173	H	0.954381	-0.044416	-0.159617
H174	H	1.454381	0.455584	0.340383
H175	H	1.272595	-0.496247	0.000082
H176	H	1.772595	0.003753	0.500082
H177	H	1.269952	-0.628529	0.000048
H178	H	1.769952	-0.128529	0.500048
H179	H	0.956578	-0.617849	0.000014
H180	H	1.456578	-0.117849	0.500014
H181	H	0.959218	-0.485564	0.000034
H182	H	1.459218	0.014436	0.500034
