data_functionalizedCrystal
_audit_creation_method	'MofGen! by Chris Wilmer'
_symmetry_space_group_name_H-M	'P1'
_symmetry_Int_Tables_number	1
_symmetry_cell_setting	triclinic
loop_
_symmetry_equiv_pos_as_xyz
  x,y,z
_cell_length_a	16.109301
_cell_length_b	12.837942
_cell_length_c	15.186229
_cell_angle_alpha	89.996774
_cell_angle_beta	89.999362
_cell_angle_gamma	89.145211
loop_
_atom_site_label
_atom_site_type_symbol
_atom_site_fract_x
_atom_site_fract_y
_atom_site_fract_z
O1	O	1.113716	0.133240	-0.073172
O2	O	0.872971	0.149822	-0.073186
O3	O	0.988005	-0.009370	-0.073174
O4	O	0.998681	0.292432	-0.073184
O5	O	0.987996	-0.009372	0.073283
O6	O	0.872962	0.149820	0.073271
O7	O	1.113707	0.133238	0.073285
Zn8	Zn	0.993333	0.141528	0.096532
Zn9	Zn	0.993345	0.141531	-0.096432
O10	O	0.998673	0.292430	0.073273
C11	C	0.841938	0.149149	0.000041
C12	C	0.749483	0.147135	0.000036
C13	C	0.534343	0.236914	0.000043
C14	C	0.447471	0.235014	0.000049
C15	C	0.452341	0.046138	0.000051
C16	C	0.539211	0.048040	0.000052
C17	C	0.580209	0.143431	0.000043
C18	C	0.406468	0.139629	0.000048
C19	C	0.312278	0.137568	0.000055
C20	C	0.674405	0.145492	0.000039
C21	C	0.984394	-0.047991	0.000054
C22	C	0.973637	-0.163064	0.000052
C23	C	1.102954	-0.404066	0.000041
C24	C	1.092851	-0.512188	0.000039
C25	C	0.943328	-0.487433	0.000040
C26	C	0.953431	-0.379311	0.000042
C27	C	1.033247	-0.337632	0.000044
C28	C	1.043349	-0.229507	0.000052
C29	C	0.893827	-0.204754	0.000046
C30	C	0.883724	-0.312876	0.000044
C31	C	1.144739	0.133911	0.000056
C32	C	1.237195	0.135924	0.000056
C33	C	1.002284	0.331050	0.000043
C34	C	1.013041	0.446124	0.000040
N35	N	0.993331	0.141526	0.228224
N36	N	0.993352	0.141526	-0.228125
C37	C	1.044289	0.071059	0.453952
C38	C	1.044292	0.071057	0.546142
C39	C	0.942388	0.211996	0.546141
C40	C	0.942382	0.211992	0.453953
C41	C	0.993337	0.141525	0.407861
C42	C	0.993346	0.141526	0.592239
C43	C	0.993348	0.141524	0.692195
C44	C	0.993334	0.141526	0.307898
H45	H	0.418949	-0.031526	0.000064
O46	O	1.093834	0.002750	0.591012
C47	C	1.149538	0.058284	0.644315
H48	H	1.122849	0.139386	0.658126
H49	H	1.159267	0.015020	0.709143
H50	H	1.211539	0.065351	0.608782
H51	H	0.576557	-0.028091	0.000055
O52	O	0.574206	0.329547	-0.000115
C53	C	0.624325	0.336296	-0.075957
H54	H	0.599529	0.282136	-0.128972
H55	H	0.623154	0.419843	-0.101417
H56	H	0.690817	0.312369	-0.058809
H57	H	1.108339	-0.195574	0.000057
H58	H	1.167943	-0.370130	0.000051
O59	O	0.402880	0.325796	0.000198
C60	C	0.352470	0.330339	0.076039
H61	H	0.380030	0.277324	0.129059
H62	H	0.349331	0.413842	0.101493
H63	H	0.287287	0.303527	0.058893
O64	O	1.093642	0.002520	0.409101
C65	C	1.044016	-0.061460	0.355830
H66	H	0.982249	-0.020157	0.342000
H67	H	1.077408	-0.077918	0.291010
H68	H	1.032260	-0.138040	0.391400
O69	O	1.160653	-0.576576	0.000078
C70	C	1.233262	-0.516597	0.000056
H71	H	1.218546	-0.435898	0.027785
H72	H	1.282630	-0.556497	0.042574
H73	H	1.257323	-0.508897	-0.070208
H74	H	0.900903	0.269370	0.583678
H75	H	0.900887	0.269374	0.416422
H76	H	0.878346	-0.521388	0.000028
H77	H	0.818741	-0.346827	0.000039
H78	H	0.837067	-0.150651	0.000055
