data_functionalizedCrystal
_audit_creation_method	'MofGen! by Chris Wilmer'
_symmetry_space_group_name_H-M	'P1'
_symmetry_Int_Tables_number	1
_symmetry_cell_setting	triclinic
loop_
_symmetry_equiv_pos_as_xyz
  x,y,z
_cell_length_a	14.971486
_cell_length_b	14.971482
_cell_length_c	14.048226
_cell_angle_alpha	89.994098
_cell_angle_beta	89.993360
_cell_angle_gamma	83.613368
loop_
_atom_site_label
_atom_site_type_symbol
_atom_site_fract_x
_atom_site_fract_y
_atom_site_fract_z
O1	O	0.116549	1.186949	-0.079149
O2	O	0.130511	0.926548	-0.079153
O3	O	-0.006670	1.063728	-0.079144
O4	O	0.253730	1.049769	-0.079158
O5	O	-0.006678	1.063712	0.079177
O6	O	0.130503	0.926532	0.079168
O7	O	0.116541	1.186933	0.079173
Zn8	Zn	0.123521	1.056730	0.104307
Zn9	Zn	0.123531	1.056751	-0.104288
O10	O	0.253722	1.049753	0.079163
C11	C	0.129883	0.893215	0.000007
C12	C	0.128014	0.793918	0.000005
C13	C	0.127129	0.747265	0.086307
C14	C	0.125358	0.653966	0.086308
C15	C	0.124479	0.607322	0.000006
C16	C	0.125361	0.653983	-0.086302
C17	C	0.127125	0.747280	-0.086303
C18	C	0.121686	0.459521	-0.086296
C19	C	0.119923	0.366216	-0.086296
C20	C	0.119918	0.366207	0.086315
C21	C	0.121683	0.459504	0.086315
C22	C	0.122567	0.506158	0.000005
C23	C	-0.039999	1.063096	0.000016
C24	C	-0.139296	1.061225	0.000015
C25	C	-0.196522	1.141814	0.000017
C26	C	-0.289822	1.140051	0.000008
C27	C	-0.325893	1.057698	0.000003
C28	C	-0.268659	0.977102	-0.000002
C29	C	-0.175362	0.978866	0.000001
C30	C	-0.463122	0.973431	-0.000006
C31	C	-0.556426	0.971667	-0.000007
C32	C	-0.577582	1.134616	0.000001
C33	C	-0.484284	1.136380	0.000004
C34	C	-0.427057	1.055784	0.000001
C35	C	0.287051	1.050385	0.000001
C36	C	0.386348	1.052256	-0.000005
C37	C	0.117168	1.220266	0.000010
C38	C	0.119038	1.319563	0.000006
N39	N	0.123513	1.056721	0.246668
N40	N	0.123532	1.056767	-0.246649
C41	C	0.062794	1.117484	0.296490
C42	C	0.062793	1.117490	0.396148
C43	C	0.123517	1.056737	0.445981
C44	C	0.184238	0.995968	0.396152
C45	C	0.184234	0.995959	0.296496
C46	C	0.184245	0.995994	0.603866
C47	C	0.184251	0.996005	0.703529
C48	C	0.062804	1.117525	0.703518
C49	C	0.062800	1.117515	0.603862
C50	C	0.123523	1.056748	0.554040
H51	H	-0.167161	1.208876	0.000027
C52	C	-0.400168	0.884777	-0.000009
C53	C	-0.404255	0.817325	-0.082220
C54	C	-0.341300	0.728674	-0.082218
C55	C	-0.274259	0.707475	-0.000006
C56	C	-0.270169	0.774928	0.082212
C57	C	-0.333124	0.863579	0.082210
H58	H	-0.453886	0.833017	-0.143084
H59	H	-0.344328	0.678741	-0.143082
H60	H	-0.227656	0.641850	-0.000004
H61	H	-0.220539	0.759237	0.143076
H62	H	-0.330096	0.913512	0.143073
C63	C	0.124394	0.602675	-0.181236
C64	C	0.045575	0.548612	-0.204965
C65	C	0.044611	0.497306	-0.299901
C66	C	0.122466	0.500063	-0.371107
C67	C	0.201291	0.554128	-0.347379
C68	C	0.202254	0.605435	-0.252443
H69	H	-0.012063	0.546569	-0.152253
H70	H	-0.013740	0.457283	-0.317465
H71	H	0.121752	0.462083	-0.441383
H72	H	0.258929	0.556171	-0.400091
H73	H	0.260606	0.645458	-0.234879
C74	C	0.122645	0.510826	0.181239
C75	C	0.046242	0.585047	0.204955
C76	C	0.047199	0.636375	0.299878
C77	C	0.124558	0.613482	0.371085
C78	C	0.200966	0.539257	0.347370
C79	C	0.200010	0.487929	0.252448
H80	H	-0.011028	0.601997	0.152242
H81	H	-0.009364	0.691322	0.317432
H82	H	0.125266	0.651478	0.441352
H83	H	0.258237	0.522307	0.400084
H84	H	0.256572	0.432983	0.234894
H85	H	0.233677	0.946498	0.436733
H86	H	0.013351	1.166966	0.436712
C87	C	-0.112408	0.890217	0.000001
C88	C	-0.045351	0.869033	-0.082213
C89	C	0.017602	0.780381	-0.082218
C90	C	0.013499	0.712914	-0.000008
C91	C	-0.053560	0.734096	0.082212
C92	C	-0.116514	0.822748	0.082217
H93	H	-0.042311	0.918978	-0.143075
H94	H	0.067244	0.764701	-0.143083
H95	H	0.060101	0.647289	-0.000012
H96	H	-0.056600	0.684151	0.143074
H97	H	-0.166156	0.838428	0.143082
C98	C	0.251028	0.929120	0.241689
C99	C	0.317854	0.862324	0.296501
C100	C	0.384647	0.795480	0.241695
C101	C	0.384613	0.795433	0.132077
C102	C	0.317784	0.862231	0.077260
C103	C	0.250992	0.929075	0.132065
H104	H	0.317881	0.862357	0.377652
H105	H	0.434118	0.746032	0.282275
H106	H	0.434057	0.745951	0.091507
H107	H	0.317757	0.862198	-0.003891
H108	H	0.201521	0.978524	0.091485
H109	H	0.119207	0.328241	-0.156571
H110	H	0.013362	1.167004	0.744089
H111	H	-0.454919	1.203439	0.000015
C112	C	-0.004004	1.184314	0.241678
C113	C	-0.070797	1.251147	0.296487
C114	C	-0.137600	1.317977	0.241679
C115	C	-0.137610	1.317974	0.132061
C116	C	-0.070814	1.251139	0.077246
C117	C	-0.004012	1.184309	0.132054
H118	H	-0.070792	1.251151	0.377638
H119	H	-0.187046	1.367453	0.282257
H120	H	-0.187061	1.367446	0.091489
H121	H	-0.070819	1.251135	-0.003905
H122	H	0.045435	1.134833	0.091476
H123	H	0.013359	1.166989	0.563287
H124	H	-0.298036	0.910049	-0.000012
H125	H	0.233697	0.946532	0.744099
C126	C	-0.352775	1.228699	0.000019
C127	C	-0.419814	1.249911	-0.082194
C128	C	-0.482769	1.338562	-0.082182
C129	C	-0.478685	1.406000	0.000042
C130	C	-0.411643	1.384790	0.082260
C131	C	-0.348688	1.296139	0.082249
H132	H	-0.422840	1.199987	-0.143066
H133	H	-0.532398	1.354263	-0.143046
H134	H	-0.525288	1.471625	0.000050
H135	H	-0.408617	1.434713	0.143133
H136	H	-0.299059	1.280438	0.143113
H137	H	0.127852	0.785234	0.156584
H138	H	0.127847	0.785264	-0.156579
H139	H	0.233689	0.946507	0.563304
H140	H	-0.624181	1.200240	0.000001
C141	C	0.118941	0.314896	0.181259
C142	C	0.195333	0.240671	0.204992
C143	C	0.194361	0.189358	0.299934
C144	C	0.116995	0.212269	0.371142
C145	C	0.040596	0.286497	0.347411
C146	C	0.041569	0.337811	0.252470
H147	H	0.252609	0.223708	0.152278
H148	H	0.250916	0.134409	0.317501
H149	H	0.116275	0.174283	0.441424
H150	H	-0.016679	0.303461	0.400126
H151	H	-0.014986	0.392760	0.234903
H152	H	0.122406	0.497503	-0.156578
H153	H	0.124623	0.615987	0.156584
H154	H	-0.585792	0.904607	0.000005
