data_functionalizedCrystal
_audit_creation_method	'MofGen! by Chris Wilmer'
_symmetry_space_group_name_H-M	'P1'
_symmetry_Int_Tables_number	1
_symmetry_cell_setting	triclinic
loop_
_symmetry_equiv_pos_as_xyz
  x,y,z
_cell_length_a	16.992694
_cell_length_b	19.188930
_cell_length_c	15.455313
_cell_angle_alpha	92.650876
_cell_angle_beta	87.142206
_cell_angle_gamma	86.906503
loop_
_atom_site_label
_atom_site_type_symbol
_atom_site_fract_x
_atom_site_fract_y
_atom_site_fract_z
O1	O	1.043326	0.145160	-0.072038
O2	O	1.543326	0.645160	0.427962
O3	O	0.815047	0.143535	-0.072064
O4	O	1.315047	0.643535	0.427936
O5	O	0.935773	0.043078	-0.072033
O6	O	1.435773	0.543078	0.427967
O7	O	0.922600	0.245617	-0.072069
O8	O	1.422600	0.745617	0.427931
O9	O	0.928870	0.048798	0.072227
O10	O	1.428870	0.548798	0.572227
O11	O	0.808144	0.149255	0.072197
O12	O	1.308144	0.649255	0.572197
O13	O	1.036422	0.150879	0.072222
O14	O	1.536422	0.650879	0.572222
Cu15	Cu	0.921653	0.150589	0.085382
Cu16	Cu	1.421653	0.650589	0.585382
Cu17	Cu	0.929817	0.143825	-0.085223
Cu18	Cu	1.429817	0.643825	0.414777
O19	O	0.915696	0.251336	0.072192
O20	O	1.415696	0.751336	0.572192
C21	C	0.782390	0.144306	0.000064
C22	C	1.282390	0.644306	0.500064
C23	C	0.695368	0.138072	0.000055
C24	C	1.195368	0.638072	0.500055
C25	C	0.644922	0.198212	0.000045
C26	C	1.144922	0.698212	0.500045
C27	C	0.563155	0.192351	0.000058
C28	C	1.063155	0.692351	0.500058
C29	C	0.531836	0.126351	0.000075
C30	C	1.031836	0.626351	0.500075
C31	C	0.582288	0.066208	0.000087
C32	C	1.082288	0.566208	0.500087
C33	C	0.664053	0.072069	0.000080
C34	C	1.164053	0.572069	0.500080
C35	C	0.288320	0.102059	0.000102
C36	C	0.788320	0.602059	0.500102
C37	C	0.206548	0.096203	0.000106
C38	C	0.706548	0.596203	0.500106
C39	C	0.187420	0.222347	0.000079
C40	C	0.687420	0.722347	0.500079
C41	C	0.269188	0.228202	0.000067
C42	C	0.769188	0.728202	0.500067
C43	C	0.319633	0.168059	0.000084
C44	C	0.819633	0.668059	0.500084
N45	N	0.448257	0.120360	0.000085
N46	N	0.948257	0.620360	0.500085
N47	N	0.403210	0.174051	0.000079
N48	N	0.903210	0.674051	0.500079
C49	C	0.931895	0.019902	0.000099
C50	C	1.431895	0.519902	0.500099
C51	C	0.930614	-0.057677	0.000107
C52	C	1.430614	0.442323	0.500107
C53	C	1.001452	-0.098455	0.000119
C54	C	1.501452	0.401545	0.500119
C55	C	1.000250	-0.171350	0.000105
C56	C	1.500250	0.328650	0.500105
C57	C	0.928204	-0.203463	0.000096
C58	C	1.428204	0.296537	0.500096
C59	C	0.857356	-0.162676	0.000079
C60	C	1.357356	0.337324	0.500079
C61	C	0.858561	-0.089783	0.000085
C62	C	1.358561	0.410217	0.500085
N63	N	0.870784	-0.312744	0.049185
N64	N	1.370784	0.187256	0.549185
N65	N	0.869644	-0.381990	0.049181
N66	N	1.369644	0.118010	0.549181
C67	C	0.924569	-0.423085	0.000078
C68	C	1.424569	0.076915	0.500078
N69	N	0.980688	-0.392319	-0.049011
N70	N	1.480688	0.107681	0.450989
N71	N	0.981830	-0.323067	-0.049004
N72	N	1.481830	0.176933	0.450996
C73	C	0.926889	-0.282503	0.000090
C74	C	1.426889	0.217497	0.500090
C75	C	0.994108	-0.542904	0.000074
C76	C	1.494108	-0.042904	0.500074
C77	C	0.992903	-0.615801	0.000054
C78	C	1.492903	-0.115801	0.500054
C79	C	0.850007	-0.607124	0.000038
C80	C	1.350007	-0.107124	0.500038
C81	C	0.851215	-0.534230	0.000048
C82	C	1.351215	-0.034230	0.500048
C83	C	0.923267	-0.502124	0.000070
C84	C	1.423267	-0.002124	0.500070
C85	C	1.069079	0.150109	0.000093
C86	C	1.569079	0.650109	0.500093
C87	C	1.156102	0.156342	0.000096
C88	C	1.656102	0.656342	0.500096
C89	C	0.919575	0.274513	0.000057
C90	C	1.419575	0.774513	0.500057
C91	C	0.920856	0.352092	0.000044
C92	C	1.420856	0.852092	0.500044
N93	N	0.915916	0.155346	0.205376
N94	N	1.415916	0.655346	0.705376
N95	N	0.935560	0.139063	-0.205217
N96	N	1.435560	0.639063	0.294783
C97	C	0.967222	0.112686	0.250783
C98	C	1.467222	0.612686	0.750783
C99	C	0.962891	0.116291	0.341590
C100	C	1.462891	0.616291	0.841590
C101	C	0.907257	0.162559	0.386988
C102	C	1.407257	0.662559	0.886988
C103	C	0.855945	0.205221	0.341574
C104	C	1.355945	0.705221	0.841574
C105	C	0.860273	0.201613	0.250769
C106	C	1.360273	0.701613	0.750769
C107	C	0.888576	0.178116	0.658564
C108	C	1.388576	0.678116	1.158564
C109	C	0.884253	0.181723	0.749376
C110	C	1.384253	0.681723	1.249376
C111	C	0.991199	0.092792	0.749385
C112	C	1.491199	0.592792	1.249385
C113	C	0.995525	0.089190	0.658578
C114	C	1.495525	0.589190	1.158578
C115	C	0.944211	0.131849	0.613173
C116	C	1.444211	0.631849	1.113173
N117	N	0.902830	0.166246	0.479807
N118	N	1.402830	0.666246	0.979807
N119	N	0.948634	0.128158	0.520355
N120	N	1.448634	0.628158	1.020355
H121	H	0.146339	0.271312	0.000067
H122	H	0.646339	0.771312	0.500067
O123	O	0.787304	-0.193756	0.000033
O124	O	1.287304	0.306244	0.500033
C125	C	0.725034	-0.142128	0.000046
C126	C	1.225034	0.357872	0.500046
H127	H	0.748146	-0.092518	-0.027260
H128	H	1.248146	0.407482	0.472740
H129	H	0.676724	-0.161811	-0.041846
H130	H	1.176724	0.338189	0.458154
H131	H	0.699880	-0.130307	0.069251
H132	H	1.199880	0.369693	0.569251
H133	H	1.040827	0.051515	0.621617
H134	H	1.540827	0.551515	1.121617
O135	O	1.012822	0.074832	0.385563
O136	O	1.512822	0.574832	0.885563
C137	C	1.062848	0.033216	0.326022
C138	C	1.562848	0.533216	0.826022
H139	H	1.066707	0.059313	0.261282
H140	H	1.566707	0.559313	0.761282
H141	H	1.124240	0.027148	0.352249
H142	H	1.624240	0.527148	0.852249
H143	H	1.038049	-0.020465	0.316389
H144	H	1.538049	0.479535	0.816389
H145	H	0.294682	0.281946	0.000043
H146	H	0.794682	0.781946	0.500043
H147	H	0.181052	0.042455	0.000119
H148	H	0.681052	0.542455	0.500119
O149	O	1.069008	-0.211040	0.000238
O150	O	1.569008	0.288960	0.500238
C151	C	1.069008	-0.250497	0.074963
C152	C	1.569008	0.249503	0.574963
H153	H	1.005601	-0.256664	0.099855
H154	H	1.505601	0.243336	0.599855
H155	H	1.099202	-0.304256	0.058167
H156	H	1.599202	0.195744	0.558167
H157	H	1.102220	-0.222477	0.127291
H158	H	1.602220	0.277523	0.627291
O159	O	0.779967	-0.638226	0.000143
O160	O	1.279967	-0.138226	0.500143
C161	C	0.733227	-0.614842	0.074864
C162	C	1.233227	-0.114842	0.574864
H163	H	0.753223	-0.562166	0.099782
H164	H	1.253223	-0.062166	0.599782
H165	H	0.668714	-0.609044	0.058051
H166	H	1.168714	-0.109044	0.558051
H167	H	0.739949	-0.654404	0.127177
H168	H	1.239949	-0.154404	0.627177
O169	O	0.838699	0.219628	0.614600
O170	O	1.338699	0.719628	1.114600
C171	C	0.788658	0.261228	0.674145
C172	C	1.288658	0.761228	1.174145
H173	H	0.817715	0.266397	0.738866
H174	H	1.317715	0.766397	1.238866
H175	H	0.777754	0.315260	0.647895
H176	H	1.277754	0.815260	1.147895
H177	H	0.730043	0.235666	0.683822
H178	H	1.230043	0.735666	1.183822
O179	O	0.337343	0.043666	0.000261
O180	O	0.837343	0.543666	0.500261
C181	C	0.381663	0.046248	0.074960
C182	C	0.881663	0.546248	0.574960
H183	H	0.349103	0.082341	0.127180
H184	H	0.849103	0.582341	0.627180
H185	H	0.389855	-0.008475	0.100043
H186	H	0.889855	0.491525	0.600043
H187	H	0.441867	0.066965	0.058061
H188	H	0.941867	0.566965	0.558061
H189	H	1.052778	-0.516763	0.000088
H190	H	1.552778	-0.016763	0.500088
H191	H	1.050591	-0.649002	0.000059
H192	H	1.550591	-0.149002	0.500059
H193	H	0.793530	-0.501027	0.000043
H194	H	1.293530	-0.001027	0.500043
O195	O	0.551739	0.002147	0.000066
O196	O	1.051739	0.502147	0.500066
C197	C	0.468752	0.009868	0.000089
C198	C	0.968752	0.509868	0.500089
H199	H	0.450666	0.062188	-0.027233
H200	H	0.950666	0.562188	0.472767
H201	H	0.445786	-0.034301	-0.041783
H202	H	0.945786	0.465699	0.458217
H203	H	0.442699	0.007961	0.069300
H204	H	0.942699	0.507961	0.569300
O205	O	1.041006	0.051248	0.793399
O206	O	1.541006	0.551248	1.293399
C207	C	1.029539	-0.019452	0.771248
C208	C	1.529539	0.480548	1.271248
H209	H	1.002467	-0.023683	0.705320
H210	H	1.502467	0.476317	1.205320
H211	H	1.088727	-0.050641	0.768146
H212	H	1.588727	0.449359	1.268146
H213	H	0.988152	-0.041203	0.822363
H214	H	1.488152	0.458797	1.322363
O215	O	0.713169	0.013722	0.000125
O216	O	1.213169	0.513722	0.500125
C217	C	0.792054	0.033046	0.000095
C218	C	1.292054	0.533046	0.500095
H219	H	0.793696	0.089134	0.027395
H220	H	1.293696	0.589134	0.527395
H221	H	0.827240	-0.003345	0.041984
H222	H	1.327240	0.496655	0.541984
H223	H	0.819014	0.028974	-0.069115
H224	H	1.319014	0.528974	0.430885
H225	H	0.838947	0.219403	0.786335
H226	H	1.338947	0.719403	1.286335
O227	O	0.801971	0.250150	0.385806
O228	O	1.301971	0.750150	0.885806
C229	C	0.809140	0.244178	0.475690
C230	C	1.309140	0.744178	0.975690
H231	H	0.870963	0.222090	0.488091
H232	H	1.370963	0.722090	0.988091
H233	H	0.798590	0.297923	0.510183
H234	H	1.298590	0.797923	1.010183
H235	H	0.763663	0.207692	0.501479
H236	H	1.263663	0.707692	1.001479
H237	H	0.818493	0.236350	0.213800
H238	H	1.318493	0.736350	0.713800
H239	H	0.670415	0.251956	0.000031
H240	H	1.170415	0.751956	0.500031
O241	O	1.021147	0.067674	0.206611
O242	O	1.521147	0.567674	0.706611
C243	C	0.981788	0.020148	0.154150
C244	C	1.481788	0.520148	0.654150
H245	H	0.921015	0.043982	0.140526
H246	H	1.421015	0.543982	0.640526
H247	H	1.017589	0.008365	0.090303
H248	H	1.517589	0.508365	0.590303
H249	H	0.974932	-0.030331	0.189198
H250	H	1.474932	0.469669	0.689198
H251	H	0.522084	0.241323	0.000049
H252	H	1.022084	0.741323	0.500049
H253	H	0.800874	-0.056581	0.000075
H254	H	1.300874	0.443419	0.500075
O255	O	1.071512	-0.067383	0.000096
O256	O	1.571512	0.432617	0.500096
C257	C	1.133778	-0.119012	0.000127
C258	C	1.633778	0.380988	0.500127
H259	H	1.113280	-0.170779	-0.027192
H260	H	1.613280	0.329221	0.472808
H261	H	1.186102	-0.102640	-0.041745
H262	H	1.686102	0.397360	0.458255
H263	H	1.152301	-0.125364	0.069340
H264	H	1.652301	0.374636	0.569340
