data_functionalizedCrystal
_audit_creation_method	'MofGen! by Chris Wilmer'
_symmetry_space_group_name_H-M	'P1'
_symmetry_Int_Tables_number	1
_symmetry_cell_setting	triclinic
loop_
_symmetry_equiv_pos_as_xyz
  x,y,z
_cell_length_a	11.792241
_cell_length_b	10.654550
_cell_length_c	9.130313
_cell_angle_alpha	90.000276
_cell_angle_beta	89.995332
_cell_angle_gamma	95.660827
loop_
_atom_site_label
_atom_site_type_symbol
_atom_site_fract_x
_atom_site_fract_y
_atom_site_fract_z
O1	O	0.159420	-1.667388	-0.121691
O2	O	0.174608	-1.301867	-0.121718
O3	O	0.001864	-1.493498	-0.121693
O4	O	0.332164	-1.475758	-0.121715
O5	O	0.001859	-1.493485	0.121906
O6	O	0.174603	-1.301854	0.121881
O7	O	0.159415	-1.667375	0.121908
Cu8	Cu	0.167009	-1.484613	0.144137
Cu9	Cu	0.167015	-1.484629	-0.143947
O10	O	0.332159	-1.475744	0.121884
C11	C	-0.040432	-1.492377	0.000106
C12	C	-0.166453	-1.489042	0.000104
C13	C	0.173491	-1.255066	0.000078
C14	C	0.170154	-1.115632	0.000068
N15	N	0.167004	-1.484612	0.346760
C16	C	-0.397180	-1.482908	0.000079
C17	C	-0.268787	-1.486316	0.000093
C18	C	0.374455	-1.476865	0.000082
C19	C	0.500477	-1.480201	0.000074
C20	C	0.160533	-1.714177	0.000109
C21	C	0.163869	-1.853611	0.000109
C22	C	0.271863	-1.035859	0.000066
C23	C	0.268721	-0.904847	0.000092
C24	C	0.062152	-0.933394	0.000116
C25	C	0.065295	-1.064403	0.000101
N26	N	0.167011	-1.484641	-0.346569
C27	C	0.090545	-1.569495	0.423422
C28	C	0.090545	-1.569507	0.576759
C29	C	0.243473	-1.399749	0.576757
C30	C	0.243466	-1.399732	0.423423
H31	H	0.357246	-1.077564	0.000050
H32	H	-0.023220	-0.891668	0.000152
H33	H	-0.017534	-1.129359	0.000107
H34	H	0.028283	-1.638607	0.361007
H35	H	0.028284	-1.638624	0.639174
F36	F	0.376974	-0.819951	0.000091
H37	H	0.305729	-1.330643	0.639192
F38	F	0.324843	-1.309378	0.341827
