data_functionalizedCrystal
_audit_creation_method	'MofGen! by Chris Wilmer'
_symmetry_space_group_name_H-M	'P1'
_symmetry_Int_Tables_number	1
_symmetry_cell_setting	triclinic
loop_
_symmetry_equiv_pos_as_xyz
  x,y,z
_cell_length_a	18.050589
_cell_length_b	12.759401
_cell_length_c	12.759393
_cell_angle_alpha	90.017606
_cell_angle_beta	90.029546
_cell_angle_gamma	90.032494
loop_
_atom_site_label
_atom_site_type_symbol
_atom_site_fract_x
_atom_site_fract_y
_atom_site_fract_z
Zn1	Zn	-0.295539	1.606168	0.593934
Zn2	Zn	-0.419747	1.606017	0.418257
Zn3	Zn	-0.295584	1.430466	0.418279
Zn4	Zn	-0.419701	1.430417	0.593904
O5	O	-0.357643	1.518267	0.506093
O6	O	-0.312016	1.753169	0.570633
O7	O	-0.403315	1.582688	0.271239
O8	O	-0.191654	1.453857	0.441602
O9	O	-0.403271	1.753058	0.441564
O10	O	-0.191620	1.582944	0.570654
O11	O	-0.312093	1.453711	0.271255
O12	O	-0.312048	1.283439	0.441573
O13	O	-0.403192	1.453773	0.740929
O14	O	-0.403236	1.283402	0.570604
O15	O	-0.311971	1.582896	0.740951
O16	O	-0.523665	1.582640	0.441535
O17	O	-0.523632	1.453627	0.570582
C18	C	-0.357643	1.245300	0.506088
C19	C	-0.357661	1.128523	0.506111
C20	C	-0.550595	1.518140	0.506076
C21	C	-0.633141	1.518182	0.506104
C22	C	-0.357571	1.518346	0.780127
C23	C	-0.357541	1.518379	0.896904
C24	C	-0.832600	1.448094	0.576255
C25	C	-0.882049	1.422478	0.480388
C26	C	-0.784271	1.518285	0.506117
C27	C	-0.881904	1.543953	0.601996
C28	C	-0.930256	1.518383	0.506139
C29	C	-0.832632	1.492619	0.410199
C30	C	-0.832483	1.614139	0.531872
C31	C	-0.881910	1.588559	0.435938
C32	C	-0.700173	1.518226	0.506106
C33	C	-1.014353	1.518442	0.506139
C34	C	-0.163937	1.518423	0.506134
C35	C	-0.081391	1.518489	0.506151
C36	C	-0.357643	1.792300	0.506099
C37	C	-0.357643	1.909077	0.506101
C38	C	-0.310135	1.963998	0.573300
C39	C	-0.310145	2.073722	0.573308
C40	C	-0.405175	2.073594	0.438910
C41	C	-0.405167	1.963872	0.438908
C42	C	-0.283587	2.223733	0.697221
C43	C	-0.236066	2.278658	0.764410
C44	C	-0.163595	2.243119	0.780553
C45	C	-0.138630	2.152658	0.729491
C46	C	-0.186146	2.097739	0.662294
C47	C	-0.258627	2.133276	0.646171
C48	C	-0.431718	1.813859	0.314994
C49	C	-0.479231	1.758938	0.247791
C50	C	-0.551703	1.794474	0.231637
C51	C	-0.576666	1.884939	0.282680
C52	C	-0.529153	1.939861	0.349883
C53	C	-0.456682	1.904317	0.366038
C54	C	-0.357660	1.518249	0.233126
C55	C	-0.357481	1.518419	0.116350
C56	C	-0.310035	1.585619	0.951779
C57	C	-0.310003	1.585637	1.061503
C58	C	-0.404990	1.451172	1.061467
C59	C	-0.405018	1.451150	0.951745
C60	C	-0.222380	1.623278	1.211477
C61	C	-0.174880	1.690534	1.266355
C62	C	-0.163489	1.793050	1.230758
C63	C	-0.199608	1.828332	1.140283
C64	C	-0.247113	1.761082	1.085410
C65	C	-0.258491	1.658550	1.121006
C66	C	-0.492641	1.413520	0.801769
C67	C	-0.540151	1.346274	0.746894
C68	C	-0.551550	1.243755	0.782490
C69	C	-0.515444	1.208478	0.872968
C70	C	-0.467934	1.275723	0.927843
C71	C	-0.456534	1.378241	0.892240
H72	H	-0.810948	1.388648	0.635484
O73	O	-0.806454	1.710796	0.557700
C74	C	-0.763498	1.750543	0.474433
H75	H	-0.780436	1.710360	0.398285
H76	H	-0.702373	1.734838	0.490523
C77	C	-0.755461	1.918811	0.558130
C78	C	-0.776269	1.869463	0.464603
H79	H	-0.763335	1.992166	0.552069
H80	H	-0.784399	1.892032	0.614231
H81	H	-0.704525	1.905712	0.571528
H82	H	-0.827206	1.882551	0.451214
H83	H	-0.747340	1.896247	0.408499
H84	H	-0.635678	1.913877	0.269524
O85	O	-0.907710	1.659409	0.365191
C86	C	-0.985814	1.659265	0.366561
H87	H	-1.006131	1.627992	0.445145
H88	H	-1.007449	1.607097	0.300751
C89	C	-0.989508	1.810236	0.254282
C90	C	-1.014461	1.771834	0.350805
H91	H	-1.007179	1.879672	0.244559
H92	H	-0.936888	1.810331	0.253356
H93	H	-1.007539	1.766753	0.199452
H94	H	-0.996422	1.815309	0.405634
H95	H	-1.067079	1.771749	0.351741
H96	H	-0.124813	1.847811	1.275448
H97	H	-0.190334	1.911815	1.111312
H98	H	-0.443645	1.396439	1.106133
H99	H	-0.458993	1.685046	0.206550
O100	O	-0.451262	2.126987	0.373668
C101	C	-0.441094	2.235608	0.388093
H102	H	-0.383773	2.250657	0.422514
H103	H	-0.485131	2.266723	0.444032
C104	C	-0.518332	2.273418	0.239513
C105	C	-0.447927	2.291901	0.281781
H106	H	-0.522551	2.308144	0.173936
H107	H	-0.525186	2.200238	0.229796
H108	H	-0.555023	2.299347	0.286139
H109	H	-0.411239	2.265961	0.235162
H110	H	-0.441068	2.365079	0.291488
H111	H	-0.903547	1.565624	0.683070
H112	H	-0.438534	1.246992	1.001515
H113	H	-0.271437	1.919387	0.628013
O114	O	-0.161796	2.009862	0.612816
C115	C	-0.087631	1.990286	0.641444
H116	H	-0.075361	2.029539	0.719830
H117	H	-0.049041	2.023302	0.578914
C118	C	-0.090394	1.823066	0.555021
C119	C	-0.075325	1.871270	0.651301
H120	H	-0.082800	1.749652	0.561097
H121	H	-0.140359	1.836256	0.535730
H122	H	-0.058233	1.850591	0.502923
H123	H	-0.107491	1.843755	0.703394
H124	H	-0.025364	1.858073	0.670601
O125	O	-0.907990	1.325762	0.454573
C126	C	-0.882856	1.251938	0.528687
H127	H	-0.868933	1.293669	0.605221
H128	H	-0.831227	1.211138	0.497399
C129	C	-0.961054	1.118785	0.454523
C130	C	-0.943959	1.170039	0.548526
H131	H	-0.998743	1.068263	0.466758
H132	H	-0.977985	1.168520	0.404588
H133	H	-0.918024	1.084794	0.428460
H134	H	-0.986986	1.204040	0.574581
H135	H	-0.927036	1.120307	0.598466
O136	O	-0.553531	2.027691	0.399428
C137	C	-0.627680	2.047300	0.370742
H138	H	-0.654595	1.971314	0.343095
H139	H	-0.629146	2.107385	0.304664
C140	C	-0.637283	2.183530	0.499972
C141	C	-0.670342	2.090200	0.466024
H142	H	-0.663599	2.209997	0.558744
H143	H	-0.587327	2.170322	0.519296
H144	H	-0.638507	2.233589	0.444898
H145	H	-0.669110	2.040139	0.521093
H146	H	-0.720300	2.103400	0.446712
O147	O	-0.597772	1.740975	0.166354
C148	C	-0.560196	1.653528	0.124731
H149	H	-0.512552	1.631128	0.178945
H150	H	-0.537392	1.673955	0.043969
C151	C	-0.672828	1.588184	0.048539
C152	C	-0.614315	1.560666	0.115130
H153	H	-0.706211	1.530903	0.042612
H154	H	-0.698144	1.647100	0.076577
H155	H	-0.653815	1.605207	-0.018755
H156	H	-0.633326	1.543656	0.182426
H157	H	-0.589003	1.501744	0.087103
H158	H	-0.811079	1.470854	0.329102
H159	H	-0.524728	1.125000	0.901953
O160	O	-0.597797	1.178450	0.729326
C161	C	-0.655933	1.146522	0.795833
H162	H	-0.663060	1.206308	0.861464
H163	H	-0.642241	1.066709	0.830979
C164	C	-0.719553	1.065268	0.651739
C165	C	-0.728310	1.138704	0.732344
H166	H	-0.764198	1.060440	0.612577
H167	H	-0.680384	1.086775	0.606932
H168	H	-0.708141	0.998765	0.681040
H169	H	-0.739712	1.205207	0.703042
H170	H	-0.767482	1.117208	0.777145
H171	H	-0.231645	1.539798	1.240464
H172	H	-0.569557	1.375010	0.673229
O173	O	-0.068215	2.118260	0.745318
C174	C	-0.031623	2.186146	0.815555
H175	H	-0.074328	2.229413	0.865110
H176	H	0.002729	2.245302	0.769497
C177	C	0.072081	2.068799	0.826689
C178	C	0.019630	2.121935	0.887560
H179	H	0.103700	2.029193	0.871103
H180	H	0.047431	2.023064	0.779366
H181	H	0.100701	2.118105	0.788311
H182	H	-0.008994	2.072628	0.925927
H183	H	0.044277	2.167659	0.934892
O184	O	-0.117541	2.296567	0.845892
C185	C	-0.155107	2.384044	0.887471
H186	H	-0.217402	2.369696	0.884007
H187	H	-0.140787	2.456727	0.839633
C188	C	-0.054828	2.418417	1.006446
C189	C	-0.131339	2.400791	1.002199
H190	H	-0.040164	2.428752	1.077214
H191	H	-0.029517	2.359485	0.978431
H192	H	-0.042903	2.478985	0.966575
H193	H	-0.143261	2.340217	1.042059
H194	H	-0.156651	2.459714	1.030224
O195	O	-0.481697	1.513169	0.767274
C196	C	-0.549888	1.566987	0.765765
H197	H	-0.590001	1.527977	0.822671
H198	H	-0.574080	1.564532	0.683248
C199	C	-0.488242	1.729700	0.728821
C200	C	-0.537508	1.681793	0.798721
H201	H	-0.480606	1.800518	0.749145
H202	H	-0.442301	1.693441	0.729834
H203	H	-0.508409	1.727644	0.660063
H204	H	-0.517337	1.683837	0.867475
H205	H	-0.583446	1.718054	0.797721
O206	O	-0.263805	1.650803	0.898554
C207	C	-0.189783	1.627920	0.925403
H208	H	-0.186029	1.543996	0.955555
H209	H	-0.170356	1.684273	0.989106
C210	C	-0.144852	1.743244	0.790917
C211	C	-0.140239	1.640164	0.827942
H212	H	-0.114289	1.750801	0.730801
H213	H	-0.194721	1.758665	0.772830
H214	H	-0.128663	1.790193	0.844012
H215	H	-0.156436	1.593218	0.774852
H216	H	-0.090371	1.624736	0.846018
O217	O	-0.282114	1.795494	0.997522
C218	C	-0.261895	1.900414	0.977885
H219	H	-0.206478	1.917801	1.017115
H220	H	-0.306092	1.955004	1.010882
C221	C	-0.323028	1.896442	0.810681
C222	C	-0.254961	1.917794	0.858858
H223	H	-0.318754	1.907165	0.737260
H224	H	-0.336654	1.825756	0.823912
H225	H	-0.359853	1.941936	0.838190
H226	H	-0.218140	1.872291	0.831358
H227	H	-0.241329	1.988473	0.845619
H228	H	-0.256400	2.352312	0.805984
H229	H	-0.342600	2.252671	0.684092
H230	H	-0.372706	1.784914	0.328144
H231	H	-0.145472	1.661798	1.340020
