data_functionalizedCrystal
_audit_creation_method	'MofGen! by Chris Wilmer'
_symmetry_space_group_name_H-M	'P1'
_symmetry_Int_Tables_number	1
_symmetry_cell_setting	triclinic
loop_
_symmetry_equiv_pos_as_xyz
  x,y,z
_cell_length_a	27.731988
_cell_length_b	26.210047
_cell_length_c	14.519731
_cell_angle_alpha	89.996472
_cell_angle_beta	96.846389
_cell_angle_gamma	89.996586
loop_
_atom_site_label
_atom_site_type_symbol
_atom_site_fract_x
_atom_site_fract_y
_atom_site_fract_z
O1	O	-0.641478	0.042364	0.109455
O2	O	-0.500761	0.042380	0.126197
O3	O	-0.574845	0.042367	-0.016477
O4	O	-0.567394	0.042377	0.252130
O5	O	-0.574830	-0.042491	-0.016455
O6	O	-0.500746	-0.042478	0.126220
O7	O	-0.641463	-0.042494	0.109478
Cu8	Cu	-0.571104	-0.050235	0.117851
Cu9	Cu	-0.571120	0.050120	0.117824
O10	O	-0.567379	-0.042481	0.252152
C11	C	-0.482744	-0.000047	0.125865
C12	C	-0.429083	-0.000042	0.124833
C13	C	-0.096325	-0.046321	0.118340
C14	C	0.105353	-0.046329	0.114415
O15	O	0.131435	-0.085668	0.113878
N16	N	0.130562	-0.000073	0.113915
C17	C	0.105349	0.046188	0.114391
O18	O	0.131418	0.085531	0.113866
C19	C	-0.096328	0.046195	0.118310
C20	C	-0.121534	-0.000064	0.118819
C21	C	-0.121531	-0.092576	0.118848
C22	C	-0.171947	-0.092574	0.119835
C23	C	-0.197157	-0.046316	0.120313
C24	C	-0.171950	-0.000061	0.119805
C25	C	-0.121541	0.092456	0.118779
C26	C	-0.171964	0.092454	0.119756
C27	C	-0.197170	0.046195	0.120266
C28	C	-0.247576	0.046199	0.121270
N29	N	-0.272786	-0.000057	0.121770
C30	C	-0.247576	-0.046314	0.121292
C31	C	0.211233	0.046181	0.112335
C32	C	0.261652	0.046179	0.111357
C33	C	0.261652	-0.046338	0.111379
C34	C	0.211233	-0.046336	0.112364
C35	C	0.186023	-0.000075	0.112835
C36	C	-0.353453	-0.046306	0.123364
C37	C	-0.403873	-0.046299	0.124354
C38	C	-0.403870	0.046218	0.124327
C39	C	-0.353453	0.046211	0.123342
C40	C	-0.328247	-0.000054	0.122857
O41	O	-0.273690	0.085518	0.121797
O42	O	-0.273655	-0.085652	0.121796
C43	C	-0.045909	-0.046323	0.117354
C44	C	-0.020702	-0.000068	0.116846
C45	C	-0.045912	0.046189	0.117325
C46	C	0.029717	-0.000070	0.115868
C47	C	0.054927	-0.046328	0.115389
C48	C	0.029717	-0.092583	0.115889
C49	C	-0.020699	-0.092581	0.116876
C50	C	-0.020702	0.092445	0.116825
C51	C	0.029714	0.092439	0.115839
C52	C	0.054923	0.046181	0.115361
N53	N	-0.571095	-0.120818	0.117869
C54	C	0.340521	-0.000069	0.109818
C55	C	0.286861	-0.000078	0.110878
C56	C	-0.603922	-0.473338	0.054662
C57	C	-0.603932	-0.686997	0.054649
O58	O	-0.631824	-0.714624	0.000913
N59	N	-0.571123	-0.713712	0.117804
C60	C	-0.538307	-0.687010	0.180962
O61	O	-0.510397	-0.714636	0.234673
C62	C	-0.538294	-0.473352	0.180970
C63	C	-0.571109	-0.446640	0.117818
C64	C	-0.636733	-0.446625	-0.008486
C65	C	-0.636732	-0.393214	-0.008479
C66	C	-0.603919	-0.366515	0.054677
C67	C	-0.571108	-0.393228	0.117825
C68	C	-0.505476	-0.446651	0.244123
C69	C	-0.505475	-0.393233	0.244118
C70	C	-0.538290	-0.366520	0.180966
C71	C	-0.538294	-0.313118	0.180987
N72	N	-0.571103	-0.286403	0.117833
C73	C	-0.603915	-0.313101	0.054677
C74	C	-0.538316	-0.799183	0.180955
C75	C	-0.538320	-0.852598	0.180954
C76	C	-0.603945	-0.852581	0.054640
C77	C	-0.603943	-0.799165	0.054646
C78	C	-0.571125	-0.772468	0.117800
C79	C	-0.603911	-0.200933	0.054698
C80	C	-0.603908	-0.147517	0.054713
C81	C	-0.538282	-0.147539	0.181024
C82	C	-0.538286	-0.200950	0.181012
C83	C	-0.571102	-0.227646	0.117841
O84	O	-0.510413	-0.285458	0.234688
O85	O	-0.631813	-0.285466	0.000961
C86	C	-0.603923	-0.526750	0.054655
C87	C	-0.571111	-0.553463	0.117803
C88	C	-0.538298	-0.526764	0.180959
C89	C	-0.571115	-0.606877	0.117802
C90	C	-0.603928	-0.633575	0.054647
C91	C	-0.636737	-0.606860	-0.008508
C92	C	-0.636736	-0.553448	-0.008500
C93	C	-0.505489	-0.553479	0.244113
C94	C	-0.505494	-0.606891	0.244102
C95	C	-0.538306	-0.633590	0.180946
C96	C	-0.574488	-0.000062	-0.050819
C97	C	-0.573442	-0.000063	-0.153181
N98	N	-0.571133	0.120704	0.117799
C99	C	-0.572592	-0.000061	-0.236310
C100	C	-0.571530	-0.000057	-0.340600
C101	C	-0.570687	-0.000054	-0.423724
C102	C	-0.569625	-0.000051	-0.528020
C103	C	-0.567736	-0.000051	0.286494
C104	C	-0.568782	-0.000048	0.388856
H105	H	-0.101011	-0.130247	0.118457
N106	N	-0.327710	0.093466	0.122816
N107	N	-0.337750	0.124433	0.057885
H108	H	-0.319571	0.157808	0.057504
H109	H	0.190712	0.083854	0.112718
H110	H	-0.192466	-0.130242	0.120244
H111	H	-0.511567	-0.125792	0.232447
H112	H	-0.663456	-0.531703	-0.059925
H113	H	-0.478755	-0.468393	0.295547
H114	H	-0.663453	-0.468359	-0.059919
H115	H	-0.511604	-0.874343	0.232388
N116	N	-0.471965	-0.634165	0.308617
N117	N	-0.427290	-0.628195	0.307947
H118	H	-0.403608	-0.647455	0.353505
N119	N	0.055467	0.139690	0.115327
N120	N	0.088004	0.150019	0.179798
H121	H	0.106192	0.183389	0.179430
H122	H	-0.630663	-0.874328	0.003217
H123	H	0.282187	-0.084003	0.110992
H124	H	-0.192487	0.130126	0.120140
N125	N	-0.637441	-0.771889	-0.009916
N126	N	-0.666718	-0.795740	-0.066325
H127	H	-0.690368	-0.776479	-0.111944
N128	N	-0.471973	-0.526203	0.308621
N129	N	-0.441942	-0.496396	0.279783
H130	H	-0.418271	-0.477132	0.325348
N131	N	-0.429633	0.093462	0.124830
N132	N	-0.474649	0.093451	0.125712
H133	H	-0.492846	0.126818	0.126065
H134	H	-0.041217	-0.130250	0.117290
H135	H	-0.424394	-0.083970	0.124772
N136	N	-0.637417	-0.120228	-0.009815
N137	N	-0.622025	-0.090422	-0.066845
H138	H	-0.645688	-0.071148	-0.112419
N139	N	-0.637433	-0.228189	-0.009838
N140	N	-0.666724	-0.204324	-0.066211
H141	H	-0.690401	-0.223573	-0.111787
H142	H	-0.511591	-0.777450	0.232386
H143	H	-0.663451	-0.371467	-0.059905
H144	H	-0.478749	-0.371499	0.295546
H145	H	-0.663456	-0.628606	-0.059928
N146	N	-0.504766	-0.228232	0.245529
N147	N	-0.475471	-0.204385	0.301912
H148	H	-0.451793	-0.223649	0.347472
H149	H	-0.332935	-0.083980	0.122978
H150	H	-0.101027	0.130125	0.118363
H151	H	0.282171	0.083848	0.110957
N152	N	0.185496	-0.093592	0.112896
N153	N	0.208017	-0.134888	0.112481
H154	H	0.189843	-0.168265	0.112860
N155	N	0.055482	-0.139830	0.115411
N156	N	0.100498	-0.139819	0.114535
H157	H	0.118697	-0.173185	0.114195
H158	H	-0.041223	0.130114	0.117212
