data_functionalizedCrystal
_audit_creation_method	'MofGen! by Chris Wilmer'
_symmetry_space_group_name_H-M	'P1'
_symmetry_Int_Tables_number	1
_symmetry_cell_setting	triclinic
loop_
_symmetry_equiv_pos_as_xyz
  x,y,z
_cell_length_a	12.759401
_cell_length_b	12.827892
_cell_length_c	12.759393
_cell_angle_alpha	89.969144
_cell_angle_beta	89.981433
_cell_angle_gamma	90.014436
loop_
_atom_site_label
_atom_site_type_symbol
_atom_site_fract_x
_atom_site_fract_y
_atom_site_fract_z
Zn1	Zn	1.606250	-0.415998	-0.593988
Zn2	Zn	2.106250	0.084002	-0.093988
Zn3	Zn	1.606143	-0.590779	-0.418311
Zn4	Zn	2.106143	-0.090779	0.081689
Zn5	Zn	1.430552	-0.416049	-0.418328
Zn6	Zn	1.930552	0.083951	0.081672
Zn7	Zn	1.430539	-0.590695	-0.593952
Zn8	Zn	1.930539	-0.090695	-0.093952
O9	O	1.518371	-0.503380	-0.506145
O10	O	2.018371	-0.003380	-0.006145
O11	O	1.753257	-0.439197	-0.570693
O12	O	2.253257	0.060803	-0.070693
O13	O	1.582811	-0.567657	-0.271292
O14	O	2.082811	-0.067657	0.228708
O15	O	1.453910	-0.269807	-0.441652
O16	O	1.953910	0.230193	0.058348
O17	O	1.753178	-0.567607	-0.441623
O18	O	2.253178	-0.067607	0.058377
O19	O	1.582994	-0.269769	-0.570709
O20	O	2.082994	0.230231	-0.070709
O21	O	1.453805	-0.439284	-0.271304
O22	O	1.953805	0.060716	0.228696
O23	O	1.283530	-0.439203	-0.441616
O24	O	1.783530	0.060797	0.058384
O25	O	1.453887	-0.567464	-0.740978
O26	O	1.953887	-0.067464	-0.240978
O27	O	1.283520	-0.567514	-0.570647
O28	O	1.783520	-0.067514	-0.070647
O29	O	1.582981	-0.439115	-0.741005
O30	O	2.082981	0.060885	-0.241005
O31	O	1.582798	-0.737004	-0.441588
O32	O	2.082798	-0.237004	0.058412
O33	O	1.453782	-0.736942	-0.570631
O34	O	1.953782	-0.236942	-0.070631
C35	C	1.245404	-0.503356	-0.506130
C36	C	1.745404	-0.003356	-0.006130
C37	C	1.128627	-0.503370	-0.506149
C38	C	1.628627	-0.003370	-0.006149
C39	C	1.073799	-0.436633	-0.573460
C40	C	1.573799	0.063367	-0.073460
C41	C	0.964075	-0.436653	-0.573466
C42	C	1.464075	0.063347	-0.073466
C43	C	0.964016	-0.570157	-0.438848
C44	C	1.464016	-0.070157	0.061152
C45	C	1.073738	-0.570131	-0.438837
C46	C	1.573738	-0.070131	0.061163
C47	C	1.073832	-0.359559	-0.651183
C48	C	1.573832	0.140441	-0.151183
C49	C	0.964108	-0.359579	-0.651190
C50	C	1.464108	0.140421	-0.151190
C51	C	1.518305	-0.774890	-0.506126
C52	C	2.018305	-0.274890	-0.006126
C53	C	1.518373	-0.891043	-0.506153
C54	C	2.018373	-0.391043	-0.006153
C55	C	1.582290	-0.942824	-0.442370
C56	C	2.082290	-0.442824	0.057630
C57	C	1.582362	-1.062874	-0.442396
C58	C	2.082362	-0.562874	0.057604
C59	C	1.792404	-0.503406	-0.506160
C60	C	2.292404	-0.003406	-0.006160
C61	C	1.909181	-0.503416	-0.506167
C62	C	2.409181	-0.003416	-0.006167
C63	C	1.518445	-0.503275	-0.780178
C64	C	2.018445	-0.003275	-0.280178
C65	C	1.518476	-0.503230	-0.896955
C66	C	2.018476	-0.003230	-0.396955
C67	C	1.518466	-0.230810	-0.506186
C68	C	2.018466	0.269190	-0.006186
C69	C	1.518506	-0.114657	-0.506204
C70	C	2.018506	0.385343	-0.006204
C71	C	1.585705	-0.436392	-0.951833
C72	C	2.085705	0.063608	-0.451833
C73	C	1.585730	-0.436354	-1.061557
C74	C	2.085730	0.063646	-0.561557
C75	C	1.451294	-0.570001	-1.061516
C76	C	1.951294	-0.070001	-0.561516
C77	C	1.451265	-0.570033	-0.951794
C78	C	1.951265	-0.070033	-0.451794
C79	C	1.663323	-0.359235	-0.951857
C80	C	2.163323	0.140765	-0.451857
C81	C	1.663348	-0.359198	-1.061581
C82	C	2.163348	0.140802	-0.561581
C83	C	1.518358	-0.503410	-0.233177
C84	C	2.018358	-0.003410	0.266823
C85	C	1.518530	-0.503160	-0.116401
C86	C	2.018530	-0.003160	0.383599
H87	H	0.930068	-0.282664	-0.622189
H88	H	1.430068	0.217336	-0.122189
O89	O	1.113265	-0.252312	-0.622489
O90	O	1.613265	0.247688	-0.122489
H91	H	1.161601	-0.221013	-0.687649
H92	H	1.661601	0.278987	-0.187649
H93	H	1.396571	-0.624387	-1.106179
H94	H	1.896571	-0.124387	-0.606179
H95	H	1.118375	-0.624465	-0.384017
H96	H	1.618375	-0.124465	0.115983
O97	O	1.654872	-1.121845	-0.370074
O98	O	2.154872	-0.621845	0.129926
H99	H	1.643564	-1.206883	-0.381459
H100	H	2.143564	-0.706883	0.118541
O101	O	0.904808	-0.642161	-0.366256
O102	O	1.404808	-0.142161	0.133744
H103	H	0.925831	-0.624125	-0.283830
H104	H	1.425831	-0.124125	0.216170
H105	H	1.634235	-0.282301	-1.095628
H106	H	2.134235	0.217699	-0.595628
H107	H	1.463777	-1.070135	-0.560811
H108	H	1.963777	-0.570135	-0.060811
H109	H	1.107897	-0.388635	-0.728422
H110	H	1.607897	0.111365	-0.228422
O111	O	0.924691	-0.388438	-0.758918
O112	O	1.424691	0.111562	-0.258918
H113	H	0.992411	-0.402562	-0.811651
H114	H	1.492411	0.097438	-0.311651
H115	H	1.463709	-0.935589	-0.560785
H116	H	1.963709	-0.435589	-0.060785
H117	H	1.636963	-0.898281	-0.387746
H118	H	2.136963	-0.398281	0.112254
O119	O	1.378701	-0.642067	-0.892599
O120	O	1.878701	-0.142067	-0.392599
H121	H	1.331962	-0.688500	-0.949168
H122	H	1.831962	-0.188500	-0.449168
O123	O	1.634493	-0.252041	-0.912424
O124	O	2.134493	0.247959	-0.412424
H125	H	1.620388	-0.199537	-0.980137
H126	H	2.120388	0.300463	-0.480137
H127	H	1.740595	-0.388250	-0.917822
H128	H	2.240595	0.111750	-0.417822
O129	O	1.771122	-0.387923	-1.101043
O130	O	2.271122	0.112077	-0.601043
H131	H	1.823862	-0.402027	-1.033344
H132	H	2.323862	0.097973	-0.533344
