data_functionalizedCrystal
_audit_creation_method	'MofGen! by Chris Wilmer'
_symmetry_space_group_name_H-M	'P1'
_symmetry_Int_Tables_number	1
_symmetry_cell_setting	triclinic
loop_
_symmetry_equiv_pos_as_xyz
  x,y,z
_cell_length_a	12.827893
_cell_length_b	18.101395
_cell_length_c	12.827885
_cell_angle_alpha	89.967625
_cell_angle_beta	89.980728
_cell_angle_gamma	90.031075
loop_
_atom_site_label
_atom_site_type_symbol
_atom_site_fract_x
_atom_site_fract_y
_atom_site_fract_z
Zn1	Zn	1.597556	-0.294794	-0.590830
Zn2	Zn	2.097556	0.205206	-0.090830
Zn3	Zn	1.597402	-0.418654	-0.416082
Zn4	Zn	2.097402	0.081346	0.083918
Zn5	Zn	1.422797	-0.294830	-0.416103
Zn6	Zn	1.922797	0.205170	0.083897
Zn7	Zn	1.422734	-0.418598	-0.590782
Zn8	Zn	1.922734	0.081402	-0.090782
O9	O	1.510122	-0.356719	-0.503449
O10	O	2.010122	0.143281	-0.003449
O11	O	1.743771	-0.311233	-0.567660
O12	O	2.243771	0.188767	-0.067660
O13	O	1.574202	-0.402266	-0.269849
O14	O	2.074202	0.097734	0.230151
O15	O	1.446070	-0.191193	-0.439310
O16	O	1.946070	0.308807	0.060690
O17	O	1.743658	-0.402231	-0.439274
O18	O	2.243658	0.097769	0.060726
O19	O	1.574464	-0.191166	-0.567681
O20	O	2.074464	0.308834	-0.067681
O21	O	1.445920	-0.311294	-0.269865
O22	O	1.945920	0.188706	0.230135
O23	O	1.276553	-0.311241	-0.439264
O24	O	1.776553	0.188759	0.060736
O25	O	1.445963	-0.402137	-0.737025
O26	O	1.945963	0.097863	-0.237025
O27	O	1.276507	-0.402172	-0.567600
O28	O	1.776507	0.097828	-0.067600
O29	O	1.574403	-0.311179	-0.737060
O30	O	2.074403	0.188821	-0.237060
O31	O	1.574141	-0.522279	-0.439228
O32	O	2.074141	-0.022279	0.060772
O33	O	1.445814	-0.522239	-0.567579
O34	O	1.945814	-0.022239	-0.067579
C35	C	1.238612	-0.356705	-0.503430
C36	C	1.738612	0.143295	-0.003430
C37	C	1.122459	-0.356717	-0.503446
C38	C	1.622459	0.143283	-0.003446
C39	C	1.070679	-0.401783	-0.566852
C40	C	1.570679	0.098217	-0.066852
C41	C	0.950629	-0.401796	-0.566871
C42	C	1.450629	0.098204	-0.066871
C43	C	1.509982	-0.549130	-0.503419
C44	C	2.009982	-0.049130	-0.003419
C45	C	1.510018	-0.631444	-0.503440
C46	C	2.010018	-0.131444	-0.003440
C47	C	1.510247	-0.930535	-0.503497
C48	C	2.010247	-0.430535	-0.003497
C49	C	1.429695	-0.899215	-0.584452
C50	C	1.929695	-0.399215	-0.084452
C51	C	1.429312	-0.813597	-0.584199
C52	C	1.929312	-0.313597	-0.084199
C53	C	1.510134	-0.782152	-0.503470
C54	C	2.010134	-0.282152	-0.003470
C55	C	1.480314	-0.813311	-0.393335
C56	C	1.980314	-0.313311	0.106665
C57	C	1.479795	-0.898956	-0.393820
C58	C	1.979795	-0.398956	0.106180
C59	C	1.620796	-0.898877	-0.531706
C60	C	2.120796	-0.398877	-0.031706
C61	C	1.620146	-0.813226	-0.534121
C62	C	2.120146	-0.313226	-0.034121
C63	C	1.510071	-0.698293	-0.503448
C64	C	2.010071	-0.198293	-0.003448
C65	C	1.510307	-1.014394	-0.503511
C66	C	2.010307	-0.514394	-0.003511
C67	C	1.782692	-0.356734	-0.503470
C68	C	2.282692	0.143266	-0.003470
C69	C	1.898845	-0.356740	-0.503479
C70	C	2.398845	0.143260	-0.003479
C71	C	1.510193	-0.356648	-0.776020
C72	C	2.010193	0.143352	-0.276020
C73	C	1.510224	-0.356618	-0.892173
C74	C	2.010224	0.143382	-0.392173
C75	C	1.510291	-0.163557	-0.503503
C76	C	2.010291	0.336443	-0.003503
C77	C	1.510363	-0.081243	-0.503526
C78	C	2.010363	0.418757	-0.003526
C79	C	1.573787	-0.311600	-0.943975
C80	C	2.073787	0.188400	-0.443975
C81	C	1.573820	-0.311568	-1.064025
C82	C	2.073820	0.188432	-0.564025
C83	C	1.510111	-0.356737	-0.231940
C84	C	2.010111	0.143263	0.268060
C85	C	1.510284	-0.356558	-0.115787
C86	C	2.010284	0.143442	0.384213
H87	H	1.447969	-0.792528	-0.665863
H88	H	1.947969	-0.292528	-0.165863
N89	N	1.438188	-0.407605	-1.056781
N90	N	1.938188	0.092395	-0.556781
H91	H	1.363522	-0.396101	-1.075719
H92	H	1.863522	0.103899	-0.575719
H93	H	1.454438	-0.460510	-1.075722
H94	H	1.954438	0.039490	-0.575722
N95	N	0.891653	-0.452905	-0.638782
N96	N	1.391653	0.047095	-0.138782
H97	H	0.942710	-0.482971	-0.681083
H98	H	1.442710	0.017029	-0.181083
H99	H	0.846329	-0.487117	-0.596122
H100	H	1.346329	0.012883	-0.096122
H101	H	1.115225	-0.440353	-0.621127
H102	H	1.615225	0.059647	-0.121127
H103	H	1.455822	-0.395130	-0.936700
H104	H	1.955822	0.104870	-0.436700
H105	H	1.448166	-0.919757	-0.666380
H106	H	1.948166	-0.419757	-0.166380
H107	H	1.628178	-0.273080	-0.899448
H108	H	2.128178	0.226920	-0.399448
H109	H	0.943368	-0.318158	-0.449188
H110	H	1.443368	0.181842	0.050812
H111	H	1.348251	-0.920803	-0.566002
H112	H	1.848251	-0.420803	-0.066002
N113	N	1.063463	-0.305623	-0.431548
N114	N	1.563463	0.194377	0.068452
H115	H	1.082366	-0.317052	-0.356837
H116	H	1.582366	0.182948	0.143163
H117	H	1.082464	-0.252729	-0.447973
H118	H	1.582464	0.247271	0.052027
N119	N	1.645895	-0.260504	-1.123027
N120	N	2.145895	0.239496	-0.623027
H121	H	1.688288	-0.230482	-1.071984
H122	H	2.188288	0.269518	-0.571984
H123	H	1.694205	-0.290663	-1.168312
H124	H	2.194205	0.209337	-0.668312
H125	H	1.398984	-0.919000	-0.369923
H126	H	1.898984	-0.419000	0.130077
H127	H	1.347370	-0.793175	-0.565514
H128	H	1.847370	-0.293175	-0.065514
H129	H	1.535921	-0.919677	-0.331445
H130	H	2.035921	-0.419677	0.168555
N131	N	1.555578	-0.786339	-0.311250
N132	N	2.055578	-0.286339	0.188750
H133	H	1.609859	-0.753583	-0.344747
H134	H	2.109859	-0.253583	0.155253
H135	H	1.516302	-0.757358	-0.256654
H136	H	2.016302	-0.257358	0.243346
N137	N	1.374408	-0.784989	-0.361103
N138	N	1.874408	-0.284989	0.138897
H139	H	1.345594	-0.751984	-0.417673
H140	H	1.845594	-0.251984	0.082327
H141	H	1.325721	-0.828122	-0.349786
H142	H	1.825721	-0.328122	0.150214
H143	H	1.647982	-0.920420	-0.610647
H144	H	2.147982	-0.420420	-0.110647
H145	H	1.642633	-0.792857	-0.615174
H146	H	2.142633	-0.292857	-0.115174
H147	H	1.683338	-0.791817	-0.479455
H148	H	2.183338	-0.291817	0.020545
N149	N	1.700298	-0.925699	-0.453608
N150	N	2.200298	-0.425699	0.046392
H151	H	1.664937	-0.958198	-0.400208
H152	H	2.164937	-0.458198	0.099792
H153	H	1.756046	-0.954915	-0.490868
H154	H	2.256046	-0.454915	0.009132
