data_functionalizedCrystal
_audit_creation_method	'MofGen! by Chris Wilmer'
_symmetry_space_group_name_H-M	'P1'
_symmetry_Int_Tables_number	1
_symmetry_cell_setting	triclinic
loop_
_symmetry_equiv_pos_as_xyz
  x,y,z
_cell_length_a	21.395362
_cell_length_b	12.645330
_cell_length_c	21.395356
_cell_angle_alpha	89.978499
_cell_angle_beta	89.957023
_cell_angle_gamma	90.033572
loop_
_atom_site_label
_atom_site_type_symbol
_atom_site_fract_x
_atom_site_fract_y
_atom_site_fract_z
Zn1	Zn	0.957910	-0.421617	-0.354613
Zn2	Zn	1.457910	0.078383	0.145387
Zn3	Zn	0.957838	-0.598894	-0.249846
Zn4	Zn	1.457838	-0.098894	0.250154
Zn5	Zn	0.853127	-0.421695	-0.249814
Zn6	Zn	1.353127	0.078305	0.250186
Zn7	Zn	0.853118	-0.598888	-0.354551
Zn8	Zn	1.353118	-0.098888	0.145449
O9	O	0.905498	-0.510273	-0.302206
O10	O	1.405498	-0.010273	0.197794
O11	O	1.045579	-0.445103	-0.340754
O12	O	1.545579	0.054897	0.159246
O13	O	0.943922	-0.575424	-0.162164
O14	O	1.443922	-0.075424	0.337836
O15	O	0.867060	-0.273337	-0.263728
O16	O	1.367060	0.226663	0.236272
O17	O	1.045526	-0.575348	-0.263783
O18	O	1.545526	-0.075348	0.236217
O19	O	0.944044	-0.273280	-0.340723
O20	O	1.444044	0.226720	0.159277
O21	O	0.866991	-0.445236	-0.162140
O22	O	1.366991	0.054764	0.337860
O23	O	0.765448	-0.445229	-0.263668
O24	O	1.265448	0.054771	0.236332
O25	O	0.867045	-0.575337	-0.442237
O26	O	1.367045	-0.075337	0.057763
O27	O	0.765441	-0.575413	-0.340618
O28	O	1.265441	-0.075413	0.159382
O29	O	0.944036	-0.445097	-0.442282
O30	O	1.444036	0.054903	0.057718
O31	O	0.943913	-0.747241	-0.263724
O32	O	1.443913	-0.247241	0.236276
O33	O	0.866976	-0.747236	-0.340650
O34	O	1.366976	-0.247236	0.159350
C35	C	0.742711	-0.510329	-0.302133
C36	C	1.242711	-0.010329	0.197867
C37	C	0.673069	-0.510379	-0.302117
C38	C	1.173069	-0.010379	0.197883
C39	C	0.905453	-0.785703	-0.302197
C40	C	1.405453	-0.285703	0.197803
C41	C	0.905490	-0.903533	-0.302214
C42	C	1.405490	-0.403533	0.197786
C43	C	0.640369	-0.578255	-0.342125
C44	C	1.140369	-0.078255	0.157875
C45	C	0.574934	-0.578229	-0.342153
C46	C	1.074934	-0.078229	0.157847
C47	C	0.542201	-0.510338	-0.302162
C48	C	1.042201	-0.010338	0.197838
C49	C	0.574909	-0.442449	-0.262151
C50	C	1.074909	0.057551	0.237849
C51	C	0.640343	-0.442469	-0.262129
C52	C	1.140343	0.057531	0.237871
C53	C	0.438476	-0.501813	-0.245756
C54	C	0.938476	-0.001813	0.254244
C55	C	0.373043	-0.501800	-0.245777
C56	C	0.873043	-0.001800	0.254223
C57	C	0.340380	-0.510269	-0.302231
C58	C	0.840380	-0.010269	0.197769
C59	C	0.373159	-0.518773	-0.358665
C60	C	0.873159	-0.018773	0.141335
C61	C	0.438593	-0.518793	-0.358643
C62	C	0.938593	-0.018793	0.141357
C63	C	0.471249	-0.510308	-0.302182
C64	C	0.971249	-0.010308	0.197818
C65	C	0.236728	-0.578121	-0.342272
C66	C	0.736728	-0.078121	0.157728
C67	C	0.171291	-0.578087	-0.342301
C68	C	0.671291	-0.078087	0.157699
C69	C	0.171268	-0.442312	-0.262294
C70	C	0.671268	0.057688	0.237706
C71	C	0.236703	-0.442340	-0.262271
C72	C	0.736703	0.057660	0.237729
C73	C	0.269429	-0.510250	-0.302259
C74	C	0.769429	-0.010250	0.197741
C75	C	0.857289	-1.071138	-0.350758
C76	C	1.357289	-0.571138	0.149242
C77	C	0.857042	-0.948579	-0.350602
C78	C	1.357042	-0.448579	0.149398
C79	C	0.887613	-0.948129	-0.236177
C80	C	1.387613	-0.448129	0.263823
C81	C	0.887319	-1.070728	-0.236472
C82	C	1.387319	-0.570728	0.263528
C83	C	0.971864	-1.070593	-0.319173
C84	C	1.471864	-0.570593	0.180827
C85	C	0.971458	-0.947986	-0.320616
C86	C	1.471458	-0.447986	0.179384
C87	C	1.068922	-0.510218	-0.302279
C88	C	1.568922	-0.010218	0.197721
C89	C	1.138563	-0.510194	-0.302311
C90	C	1.638563	-0.010194	0.197689
C91	C	0.905548	-0.510208	-0.465629
C92	C	1.405548	-0.010208	0.034371
C93	C	0.905569	-0.510180	-0.535271
C94	C	1.405569	-0.010180	-0.035271
C95	C	0.905561	-0.233768	-0.302228
C96	C	1.405561	0.266232	0.197772
C97	C	0.905588	-0.115938	-0.302238
C98	C	1.405588	0.384062	0.197762
C99	C	0.865521	-0.442383	-0.567961
C100	C	1.365521	0.057617	-0.067961
C101	C	0.865519	-0.442364	-0.633397
C102	C	1.365519	0.057636	-0.133397
C103	C	0.905576	-0.510129	-0.666139
C104	C	1.405576	-0.010129	-0.166139
C105	C	0.945626	-0.577939	-0.633440
C106	C	1.445626	-0.077939	-0.133440
C107	C	0.945622	-0.577964	-0.568006
C108	C	1.445622	-0.077964	-0.068006
C109	C	0.962029	-0.518437	-0.769845
C110	C	1.462029	-0.018437	-0.269845
C111	C	0.962033	-0.518405	-0.835278
C112	C	1.462033	-0.018405	-0.335278
C113	C	0.905586	-0.510058	-0.867960
C114	C	1.405586	-0.010058	-0.367960
C115	C	0.849132	-0.501721	-0.835201
C116	C	1.349132	-0.001721	-0.335201
C117	C	0.849129	-0.501746	-0.769767
C118	C	1.349129	-0.001746	-0.269767
C119	C	0.905584	-0.510110	-0.737091
C120	C	1.405584	-0.010110	-0.237091
C121	C	0.865533	-0.442236	-0.971603
C122	C	1.365533	0.057764	-0.471603
C123	C	0.865530	-0.442224	-1.037040
C124	C	1.365530	0.057776	-0.537040
C125	C	0.945642	-0.577794	-1.037082
C126	C	1.445642	-0.077794	-0.537082
C127	C	0.945639	-0.577812	-0.971647
C128	C	1.445639	-0.077812	-0.471647
C129	C	0.905586	-0.510027	-0.938911
C130	C	1.405586	-0.010027	-0.438911
C131	C	0.905485	-0.510262	-0.139418
C132	C	1.405485	-0.010262	0.360582
C133	C	0.905586	-0.509992	-0.069778
C134	C	1.405586	-0.009992	0.430222
H135	H	0.667011	-0.633551	-0.374688
H136	H	1.167011	-0.133551	0.125312
C137	C	0.821456	-0.367826	-0.531956
C138	C	1.321456	0.132174	-0.031956
N139	N	0.788264	-0.311672	-0.504836
N140	N	1.288264	0.188328	-0.004836
H141	H	0.346566	-0.525667	-0.404635
H142	H	0.846566	-0.025667	0.095365
H143	H	0.548304	-0.633502	-0.374734
H144	H	1.048304	-0.133502	0.125266
H145	H	0.978240	-0.633114	-0.660103
H146	H	1.478240	-0.133114	-0.160103
C147	C	0.474399	-0.492501	-0.183648
C148	C	0.974399	0.007499	0.316352
N149	N	0.501455	-0.485489	-0.136870
N150	N	1.001455	0.014511	0.363130
H151	H	1.007999	-0.525225	-0.743241
H152	H	1.507999	-0.025225	-0.243241
H153	H	0.978236	-0.633171	-0.541390
H154	H	1.478236	-0.133171	-0.041390
C155	C	0.790653	-0.909109	-0.335488
C156	C	1.290653	-0.409109	0.164512
N157	N	0.740643	-0.879381	-0.324120
N158	N	1.240643	-0.379381	0.175880
C159	C	0.787034	-0.492549	-0.871146
C160	C	1.287034	0.007451	-0.371146
N161	N	0.740264	-0.485643	-0.898223
N162	N	1.240264	0.014357	-0.398223
H163	H	0.832909	-0.387150	-0.660019
H164	H	1.332909	0.112850	-0.160019
H165	H	0.465278	-0.525714	-0.404593
H166	H	0.965278	-0.025714	0.095407
H167	H	0.978252	-0.633016	-0.945029
H168	H	1.478252	-0.133016	-0.445029
H169	H	0.832919	-0.387043	-0.944949
H170	H	1.332919	0.112957	-0.444949
H171	H	0.808462	-1.102061	-0.339680
H172	H	1.308462	-0.602061	0.160320
H173	H	0.666967	-0.387193	-0.229549
H174	H	1.166967	0.112807	0.270451
C175	C	0.989687	-0.908559	-0.386260
C176	C	1.489687	-0.408559	0.113740
N177	N	1.003420	-0.878842	-0.435698
N178	N	1.503420	-0.378842	0.064302
C179	C	0.821474	-0.367635	-1.073000
C180	C	1.321474	0.132365	-0.573000
N181	N	0.788292	-0.311450	-1.100085
N182	N	1.288292	0.188550	-0.600085
H183	H	0.263375	-0.633411	-0.374837
H184	H	0.763375	-0.133411	0.125163
H185	H	0.978258	-0.632968	-1.063740
H186	H	1.478258	-0.132968	-0.563740
H187	H	1.007848	-1.099561	-0.283834
H188	H	1.507848	-0.599561	0.216166
C189	C	0.821866	-1.109520	-0.217099
C190	C	1.321866	-0.609520	0.282901
N191	N	0.772565	-1.138733	-0.202509
N192	N	1.272565	-0.638733	0.297491
C193	C	0.932774	-1.110770	-0.185961
C194	C	1.432774	-0.610770	0.314039
N195	N	0.967007	-1.140925	-0.147913
N196	N	1.467007	-0.640925	0.352087
H197	H	1.009338	-0.917315	-0.287852
H198	H	1.509338	-0.417315	0.212148
C199	C	0.933627	-0.908704	-0.186000
C200	C	1.433627	-0.408704	0.314000
N201	N	0.968285	-0.879005	-0.148207
N202	N	1.468285	-0.379005	0.351793
C203	C	0.336994	-0.492438	-0.183699
C204	C	0.836994	0.007562	0.316301
N205	N	0.309842	-0.485381	-0.136941
N206	N	0.809842	0.014619	0.363059
C207	C	0.822840	-0.906815	-0.216452
C208	C	1.322840	-0.406815	0.283548
N209	N	0.774052	-0.875700	-0.201599
N210	N	1.274052	-0.375700	0.298401
C211	C	0.993893	-1.112251	-0.383125
C212	C	1.493893	-0.612251	0.116875
N213	N	1.010478	-1.143626	-0.431297
N214	N	1.510478	-0.643626	0.068703
H215	H	0.548254	-0.387169	-0.229591
H216	H	1.048254	0.112831	0.270409
H217	H	0.144668	-0.633358	-0.374884
H218	H	0.644668	-0.133358	0.125116
C219	C	0.872256	-1.110880	-0.417126
C220	C	1.372256	-0.610880	0.082874
N221	N	0.883529	-1.140824	-0.467116
N222	N	1.383529	-0.640824	0.032884
C223	C	0.135265	-0.367630	-0.218303
C224	C	0.635265	0.132370	0.281697
N225	N	0.108145	-0.311376	-0.185169
N226	N	0.608145	0.188624	0.314831
C227	C	0.787031	-0.492587	-0.733734
C228	C	1.287031	0.007413	-0.233734
N229	N	0.740257	-0.485694	-0.706594
N230	N	1.240257	0.014306	-0.206594
H231	H	0.263328	-0.387073	-0.229689
H232	H	0.763328	0.112927	0.270311
C233	C	0.872151	-0.907839	-0.416753
C234	C	1.372151	-0.407839	0.083247
N235	N	0.883528	-0.877159	-0.466581
N236	N	1.383528	-0.377159	0.033419
H237	H	1.008001	-0.525188	-0.861945
H238	H	1.508001	-0.025188	-0.361945
