data_functionalizedCrystal
_audit_creation_method	'MofGen! by Chris Wilmer'
_symmetry_space_group_name_H-M	'P1'
_symmetry_Int_Tables_number	1
_symmetry_cell_setting	triclinic
loop_
_symmetry_equiv_pos_as_xyz
  x,y,z
_cell_length_a	19.077105
_cell_length_b	21.295417
_cell_length_c	21.295412
_cell_angle_alpha	90.030668
_cell_angle_beta	92.320544
_cell_angle_gamma	87.726672
loop_
_atom_site_label
_atom_site_type_symbol
_atom_site_fract_x
_atom_site_fract_y
_atom_site_fract_z
Zn1	Zn	1.075981	-0.289351	0.394524
Zn2	Zn	1.325981	-0.039351	0.644524
Zn3	Zn	1.575981	0.210649	0.894524
Zn4	Zn	1.825981	0.460649	1.144524
Zn5	Zn	1.075874	-0.394616	0.289246
Zn6	Zn	1.325874	-0.144616	0.539246
Zn7	Zn	1.575874	0.105384	0.789246
Zn8	Zn	1.825874	0.355384	1.039246
Zn9	Zn	0.958275	-0.285132	0.285045
Zn10	Zn	1.208275	-0.035132	0.535045
Zn11	Zn	1.458275	0.214868	0.785045
Zn12	Zn	1.708275	0.464868	1.035045
Zn13	Zn	0.958239	-0.390349	0.390256
Zn14	Zn	1.208239	-0.140349	0.640256
Zn15	Zn	1.458239	0.109651	0.890256
Zn16	Zn	1.708239	0.359651	1.140256
O17	O	1.017092	-0.339862	0.339768
O18	O	1.267092	-0.089862	0.589768
O19	O	1.517092	0.160138	0.839768
O20	O	1.767092	0.410138	1.089768
O21	O	1.174458	-0.306866	0.384103
O22	O	1.424458	-0.056866	0.634103
O23	O	1.674458	0.193134	0.884103
O24	O	1.924458	0.443134	1.134103
O25	O	1.060245	-0.380112	0.200598
O26	O	1.310245	-0.130112	0.450598
O27	O	1.560245	0.119888	0.700598
O28	O	1.810245	0.369888	0.950598
O29	O	0.973949	-0.197604	0.299596
O30	O	1.223949	0.052396	0.549596
O31	O	1.473949	0.302396	0.799596
O32	O	1.723949	0.552396	1.049596
O33	O	1.174379	-0.384204	0.306755
O34	O	1.424379	-0.134204	0.556755
O35	O	1.674379	0.115796	0.806755
O36	O	1.924379	0.365796	1.056755
O37	O	1.060427	-0.200704	0.380030
O38	O	1.310427	0.049296	0.630030
O39	O	1.560427	0.299296	0.880030
O40	O	1.810427	0.549296	1.130030
O41	O	0.973846	-0.299675	0.197512
O42	O	1.223846	-0.049675	0.447512
O43	O	1.473846	0.200325	0.697512
O44	O	1.723846	0.450325	0.947512
O45	O	0.859780	-0.295537	0.295457
O46	O	1.109780	-0.045537	0.545457
O47	O	1.359780	0.204463	0.795457
O48	O	1.609780	0.454463	1.045457
O49	O	0.973887	-0.376931	0.478913
O50	O	1.223887	-0.126931	0.728913
O51	O	1.473887	0.123069	0.978913
O52	O	1.723887	0.373069	1.228913
O53	O	0.859753	-0.372840	0.372755
O54	O	1.109753	-0.122840	0.622755
O55	O	1.359753	0.127160	0.872755
O56	O	1.609753	0.377160	1.122755
O57	O	1.060392	-0.302729	0.482048
O58	O	1.310392	-0.052729	0.732048
O59	O	1.560392	0.197271	0.982048
O60	O	1.810392	0.447271	1.232048
O61	O	1.060209	-0.482137	0.302616
O62	O	1.310209	-0.232137	0.552616
O63	O	1.560209	0.017863	0.802616
O64	O	1.810209	0.267863	1.052616
O65	O	0.973784	-0.479002	0.376828
O66	O	1.223784	-0.229002	0.626828
O67	O	1.473784	0.020998	0.876828
O68	O	1.723784	0.270998	1.126828
C69	C	0.834229	-0.333268	0.333188
C70	C	1.084229	-0.083268	0.583188
C71	C	1.334229	0.166732	0.833188
C72	C	1.584229	0.416732	1.083188
C73	C	0.755999	-0.330463	0.330388
C74	C	1.005999	-0.080463	0.580388
C75	C	1.255999	0.169537	0.830388
C76	C	1.505999	0.419537	1.080388
C77	C	1.017000	-0.503410	0.339729
C78	C	1.267000	-0.253410	0.589729
C79	C	1.517000	-0.003410	0.839729
C80	C	1.767000	0.246590	1.089729
C81	C	1.017025	-0.573379	0.339736
C82	C	1.267025	-0.323379	0.589736
C83	C	1.517025	-0.073379	0.839736
C84	C	1.767025	0.176621	1.089736
C85	C	0.719251	-0.369453	0.369254
C86	C	0.969251	-0.119453	0.619254
C87	C	1.219251	0.130547	0.869254
C88	C	1.469251	0.380547	1.119254
C89	C	0.645746	-0.366808	0.366626
C90	C	0.895746	-0.116808	0.616626
C91	C	1.145746	0.133192	0.866626
C92	C	1.395746	0.383192	1.116626
C93	C	0.608990	-0.325176	0.325128
C94	C	0.858990	-0.075176	0.575128
C95	C	1.108990	0.174824	0.825128
C96	C	1.358990	0.424824	1.075128
C97	C	0.645743	-0.286182	0.286261
C98	C	0.895743	-0.036182	0.536261
C99	C	1.145743	0.213818	0.786261
C100	C	1.395743	0.463818	1.036261
C101	C	0.719247	-0.288824	0.288892
C102	C	0.969247	-0.038824	0.538892
C103	C	1.219247	0.211176	0.788892
C104	C	1.469247	0.461176	1.038892
C105	C	0.389157	-0.312950	0.312952
C106	C	0.639157	-0.062950	0.562952
C107	C	0.889157	0.187050	0.812952
C108	C	1.139157	0.437050	1.062952
C109	C	0.315648	-0.310313	0.310323
C110	C	0.565648	-0.060313	0.560323
C111	C	0.815648	0.189687	0.810323
C112	C	1.065648	0.439687	1.060323
C113	C	0.315655	-0.390938	0.390689
C114	C	0.565655	-0.140938	0.640689
C115	C	0.815655	0.109062	0.890689
C116	C	1.065655	0.359062	1.140689
C117	C	0.389161	-0.393579	0.393314
C118	C	0.639161	-0.143579	0.643314
C119	C	0.889161	0.106421	0.893314
C120	C	1.139161	0.356421	1.143314
C121	C	0.425907	-0.354582	0.354449
C122	C	0.675907	-0.104582	0.604449
C123	C	0.925907	0.145418	0.854449
C124	C	1.175907	0.395418	1.104449
N125	N	0.533856	-0.322474	0.322440
N126	N	0.783856	-0.072474	0.572440
N127	N	1.033856	0.177526	0.822440
N128	N	1.283856	0.427526	1.072440
N129	N	0.501040	-0.357282	0.357141
N130	N	0.751040	-0.107282	0.607141
N131	N	1.001040	0.142718	0.857141
N132	N	1.251040	0.392718	1.107141
C133	C	1.062067	-0.607859	0.301137
C134	C	1.312067	-0.357859	0.551137
C135	C	1.562067	-0.107859	0.801137
C136	C	1.812067	0.142141	1.051137
C137	C	1.062100	-0.673602	0.301152
C138	C	1.312100	-0.423602	0.551152
C139	C	1.562100	-0.173602	0.801152
C140	C	1.812100	0.076398	1.051152
C141	C	1.017078	-0.704864	0.339760
C142	C	1.267078	-0.454864	0.589760
C143	C	1.517078	-0.204864	0.839760
C144	C	1.767078	0.045136	1.089760
C145	C	0.972033	-0.670376	0.378367
C146	C	1.222033	-0.420376	0.628367
C147	C	1.472033	-0.170376	0.878367
C148	C	1.722033	0.079624	1.128367
C149	C	0.972007	-0.604634	0.378355
C150	C	1.222007	-0.354634	0.628355
C151	C	1.472007	-0.104634	0.878355
C152	C	1.722007	0.145366	1.128355
N153	N	0.955509	-0.805913	0.342344
N154	N	1.205509	-0.555913	0.592344
N155	N	1.455509	-0.305913	0.842344
N156	N	1.705509	-0.055913	1.092344
N157	N	0.955537	-0.868366	0.342351
N158	N	1.205537	-0.618366	0.592351
N159	N	1.455537	-0.368366	0.842351
N160	N	1.705537	-0.118366	1.092351
C161	C	1.017157	-0.902941	0.339799
C162	C	1.267157	-0.652941	0.589799
C163	C	1.517157	-0.402941	0.839799
C164	C	1.767157	-0.152941	1.089799
N165	N	1.078751	-0.872705	0.337227
N166	N	1.328751	-0.622705	0.587227
N167	N	1.578751	-0.372705	0.837227
N168	N	1.828751	-0.122705	1.087227
N169	N	1.078723	-0.810246	0.337216
N170	N	1.328723	-0.560246	0.587216
N171	N	1.578723	-0.310246	0.837216
N172	N	1.828723	-0.060246	1.087216
C173	C	1.017103	-0.776150	0.339778
C174	C	1.267103	-0.526150	0.589778
C175	C	1.517103	-0.276150	0.839778
C176	C	1.767103	-0.026150	1.089778
C177	C	1.062239	-1.008708	0.301214
C178	C	1.312239	-0.758708	0.551214
C179	C	1.562239	-0.508708	0.801214
C180	C	1.812239	-0.258708	1.051214
C181	C	1.062273	-1.074453	0.301234
C182	C	1.312273	-0.824453	0.551234
C183	C	1.562273	-0.574453	0.801234
C184	C	1.812273	-0.324453	1.051234
C185	C	0.972200	-1.071225	0.378445
C186	C	1.222200	-0.821225	0.628445
C187	C	1.472200	-0.571225	0.878445
C188	C	1.722200	-0.321225	1.128445
C189	C	0.972172	-1.005481	0.378429
C190	C	1.222172	-0.755481	0.628429
C191	C	1.472172	-0.505481	0.878429
C192	C	1.722172	-0.255481	1.128429
C193	C	1.017191	-0.974227	0.339810
C194	C	1.267191	-0.724227	0.589810
C195	C	1.517191	-0.474227	0.839810
C196	C	1.767191	-0.224227	1.089810
C197	C	1.200670	-0.346482	0.346374
C198	C	1.450670	-0.096482	0.596374
C199	C	1.700670	0.153518	0.846374
C200	C	1.950670	0.403518	1.096374
C201	C	1.278900	-0.349303	0.349189
C202	C	1.528900	-0.099303	0.599189
C203	C	1.778900	0.150697	0.849189
C204	C	2.028900	0.400697	1.099189
C205	C	1.017147	-0.339825	0.503960
C206	C	1.267147	-0.089825	0.753960
C207	C	1.517147	0.160175	1.003960
C208	C	1.767147	0.410175	1.253960
C209	C	1.017171	-0.339809	0.573929
C210	C	1.267171	-0.089809	0.823929
C211	C	1.517171	0.160191	1.073929
C212	C	1.767171	0.410191	1.323929
C213	C	1.017204	-0.175676	0.339820
C214	C	1.267204	0.074324	0.589820
C215	C	1.517204	0.324324	0.839820
C216	C	1.767204	0.574324	1.089820
C217	C	1.017252	-0.105709	0.339843
C218	C	1.267252	0.144291	0.589843
C219	C	1.517252	0.394291	0.839843
C220	C	1.767252	0.644291	1.089843
C221	C	1.017078	-0.339855	0.176216
C222	C	1.267078	-0.089855	0.426216
C223	C	1.517078	0.160145	0.676216
C224	C	1.767078	0.410145	0.926216
C225	C	1.017191	-0.339698	0.106252
C226	C	1.267191	-0.089698	0.356252
C227	C	1.517191	0.160302	0.606252
C228	C	1.767191	0.410302	0.856252
C229	C	0.972195	-0.297921	0.605179
C230	C	1.222195	-0.047921	0.855179
C231	C	1.472195	0.202079	1.105179
C232	C	1.722195	0.452079	1.355179
C233	C	0.972192	-0.297909	0.670922
C234	C	1.222192	-0.047909	0.920922
C235	C	1.472192	0.202091	1.170922
C236	C	1.722192	0.452091	1.420922
C237	C	1.017178	-0.339779	0.705412
C238	C	1.267178	-0.089779	0.955412
C239	C	1.517178	0.160221	1.205412
C240	C	1.767178	0.410221	1.455412
C241	C	1.062158	-0.381675	0.674154
C242	C	1.312158	-0.131675	0.924154
C243	C	1.562158	0.118325	1.174154
C244	C	1.812158	0.368325	1.424154
C245	C	1.062154	-0.381690	0.608412
C246	C	1.312154	-0.131690	0.858412
C247	C	1.562154	0.118310	1.108412
C248	C	1.812154	0.368310	1.358412
N249	N	1.078790	-0.346804	0.810861
N250	N	1.328790	-0.096804	1.060861
N251	N	1.578790	0.153196	1.310861
N252	N	1.828790	0.403196	1.560861
N253	N	1.078791	-0.346786	0.873313
N254	N	1.328791	-0.096786	1.123313
N255	N	1.578791	0.153214	1.373313
N256	N	1.828791	0.403214	1.623313
C257	C	1.017191	-0.339738	0.903487
C258	C	1.267191	-0.089738	1.153487
C259	C	1.517191	0.160262	1.403487
C260	C	1.767191	0.410262	1.653487
N261	N	0.955589	-0.332695	0.868851
N262	N	1.205589	-0.082695	1.118851
N263	N	1.455589	0.167305	1.368851
N264	N	1.705589	0.417305	1.618851
N265	N	0.955588	-0.332710	0.806394
N266	N	1.205588	-0.082710	1.056394
N267	N	1.455588	0.167290	1.306394
N268	N	1.705588	0.417290	1.556394
C269	C	1.017187	-0.339768	0.776697
C270	C	1.267187	-0.089768	1.026697
C271	C	1.517187	0.160232	1.276697
C272	C	1.767187	0.410232	1.526697
C273	C	0.972209	-0.297835	1.006023
C274	C	1.222209	-0.047835	1.256023
C275	C	1.472209	0.202165	1.506023
C276	C	1.722209	0.452165	1.756023
C277	C	0.972205	-0.297827	1.071766
C278	C	1.222205	-0.047827	1.321766
C279	C	1.472205	0.202173	1.571766
C280	C	1.722205	0.452173	1.821766
C281	C	1.062177	-0.381590	1.074997
C282	C	1.312177	-0.131590	1.324997
C283	C	1.562177	0.118410	1.574997
C284	C	1.812177	0.368410	1.824997
C285	C	1.062174	-0.381600	1.009255
C286	C	1.312174	-0.131600	1.259255
C287	C	1.562174	0.118400	1.509255
C288	C	1.812174	0.368400	1.759255
C289	C	1.017191	-0.339720	0.974771
C290	C	1.267191	-0.089720	1.224771
C291	C	1.517191	0.160280	1.474771
C292	C	1.767191	0.410280	1.724771
H293	H	0.749172	-0.403356	0.403044
H294	H	0.999172	-0.153356	0.653044
H295	H	1.249172	0.096644	0.903044
H296	H	1.499172	0.346644	1.153044
Cl297	Cl	1.118908	-1.117799	0.252709
Cl298	Cl	1.368908	-0.867799	0.502709
Cl299	Cl	1.618908	-0.617799	0.752709
Cl300	Cl	1.868908	-0.367799	1.002709
Cl301	Cl	0.435343	-0.263924	0.264094
Cl302	Cl	0.685343	-0.013924	0.514094
Cl303	Cl	0.935343	0.236076	0.764094
Cl304	Cl	1.185343	0.486076	1.014094
Cl305	Cl	0.599551	-0.415826	0.415489
Cl306	Cl	0.849551	-0.165826	0.665489
Cl307	Cl	1.099551	0.084174	0.915489
Cl308	Cl	1.349551	0.334174	1.165489
H309	H	1.098786	-0.415766	0.702240
H310	H	1.348786	-0.165766	0.952240
H311	H	1.598786	0.084234	1.202240
H312	H	1.848786	0.334234	1.452240
Cl313	Cl	0.765445	-0.239805	0.240031
Cl314	Cl	1.015445	0.010195	0.490031
Cl315	Cl	1.265445	0.260195	0.740031
Cl316	Cl	1.515445	0.510195	0.990031
Cl317	Cl	1.118701	-0.434352	0.569124
Cl318	Cl	1.368701	-0.184352	0.819124
Cl319	Cl	1.618701	0.065648	1.069124
Cl320	Cl	1.868701	0.315648	1.319124
H321	H	0.419082	-0.427481	0.427105
H322	H	0.669082	-0.177481	0.677105
H323	H	0.919082	0.072519	0.927105
H324	H	1.169082	0.322519	1.177105
Cl325	Cl	0.599536	-0.233841	0.234096
Cl326	Cl	0.849536	0.016159	0.484096
Cl327	Cl	1.099536	0.266159	0.734096
Cl328	Cl	1.349536	0.516159	0.984096
H329	H	0.935546	-1.096677	0.409883
H330	H	1.185546	-0.846677	0.659883
H331	H	1.435546	-0.596677	0.909883
H332	H	1.685546	-0.346677	1.159883
H333	H	0.935581	-0.263733	0.977945
H334	H	1.185581	-0.013733	1.227945
H335	H	1.435581	0.236267	1.477945
H336	H	1.685581	0.486267	1.727945
Cl337	Cl	1.118672	-0.568571	0.252597
Cl338	Cl	1.368672	-0.318571	0.502597
Cl339	Cl	1.618672	-0.068571	0.752597
Cl340	Cl	1.868672	0.181429	1.002597
Cl341	Cl	0.915638	-0.245180	1.111052
Cl342	Cl	1.165638	0.004820	1.361052
Cl343	Cl	1.415638	0.254820	1.611052
Cl344	Cl	1.665638	0.504820	1.861052
H345	H	0.285728	-0.422686	0.422332
H346	H	0.535728	-0.172686	0.672332
H347	H	0.785728	0.077314	0.922332
H348	H	1.035728	0.327314	1.172332
H349	H	0.935492	-0.977406	0.409858
H350	H	1.185492	-0.727406	0.659858
H351	H	1.435492	-0.477406	0.909858
H352	H	1.685492	-0.227406	1.159858
H353	H	1.098800	-0.415709	0.983811
H354	H	1.348800	-0.165709	1.233811
H355	H	1.598800	0.084291	1.483811
H356	H	1.848800	0.334291	1.733811
H357	H	1.098807	-0.415680	1.103079
H358	H	1.348807	-0.165680	1.353079
H359	H	1.598807	0.084320	1.603079
H360	H	1.848807	0.334320	1.853079
H361	H	0.285723	-0.276404	0.276534
H362	H	0.535723	-0.026404	0.526534
H363	H	0.785723	0.223596	0.776534
H364	H	1.035723	0.473596	1.026534
H365	H	1.098781	-0.701681	0.269720
H366	H	1.348781	-0.451681	0.519720
H367	H	1.598781	-0.201681	0.769720
H368	H	1.848781	0.048319	1.019720
H369	H	0.935378	-0.695833	0.409803
H370	H	1.185378	-0.445833	0.659803
H371	H	1.435378	-0.195833	0.909803
H372	H	1.685378	0.054167	1.159803
H373	H	0.935327	-0.576560	0.409788
H374	H	1.185327	-0.326560	0.659788
H375	H	1.435327	-0.076560	0.909788
H376	H	1.685327	0.173440	1.159788
Cl377	Cl	0.915641	-0.245274	0.561832
Cl378	Cl	1.165641	0.004726	0.811832
Cl379	Cl	1.415641	0.254726	1.061832
Cl380	Cl	1.665641	0.504726	1.311832
Cl381	Cl	1.118832	-0.969413	0.252666
Cl382	Cl	1.368832	-0.719413	0.502666
Cl383	Cl	1.618832	-0.469413	0.752666
Cl384	Cl	1.868832	-0.219413	1.002666
H385	H	0.935569	-0.263796	0.696371
H386	H	1.185569	-0.013796	0.946371
H387	H	1.435569	0.236204	1.196371
H388	H	1.685569	0.486204	1.446371
