data_functionalizedCrystal
_audit_creation_method	'MofGen! by Chris Wilmer'
_symmetry_space_group_name_H-M	'P1'
_symmetry_Int_Tables_number	1
_symmetry_cell_setting	triclinic
loop_
_symmetry_equiv_pos_as_xyz
  x,y,z
_cell_length_a	14.971486
_cell_length_b	10.654550
_cell_length_c	13.448316
_cell_angle_alpha	89.994587
_cell_angle_beta	89.998199
_cell_angle_gamma	84.049516
loop_
_atom_site_label
_atom_site_type_symbol
_atom_site_fract_x
_atom_site_fract_y
_atom_site_fract_z
O1	O	1.187838	0.163659	-0.082575
O2	O	0.927544	0.183258	-0.082602
O3	O	1.063676	-0.009345	-0.082584
O4	O	1.051707	0.356262	-0.082593
O5	O	1.063659	-0.009357	0.082800
O6	O	0.927527	0.183246	0.082782
O7	O	1.187821	0.163647	0.082809
Cu8	Cu	1.057672	0.173445	0.097896
Cu9	Cu	1.057693	0.173460	-0.097689
O10	O	1.051689	0.356250	0.082791
C11	C	0.894206	0.182375	0.000087
C12	C	0.794895	0.179749	0.000077
C13	C	0.738285	0.292898	0.000075
C14	C	0.644972	0.290422	0.000090
C15	C	0.608271	0.174797	0.000099
C16	C	0.664888	0.061639	0.000104
C17	C	0.758199	0.064116	0.000096
C18	C	0.470397	0.056485	0.000117
C19	C	0.377080	0.054007	0.000123
C20	C	0.357171	0.282791	0.000112
C21	C	0.450482	0.285268	0.000104
C22	C	0.507092	0.172110	0.000106
C23	C	1.062788	-0.056139	0.000107
C24	C	1.060159	-0.195555	0.000103
C25	C	1.140311	-0.275900	0.000114
C26	C	1.137835	-0.406894	0.000107
C27	C	0.975048	-0.377185	0.000081
C28	C	0.977525	-0.246193	0.000082
C29	C	1.222945	-0.225262	0.000136
C30	C	1.303104	-0.305609	0.000148
C31	C	1.300628	-0.436603	0.000141
C32	C	1.217993	-0.487250	0.000121
C33	C	1.221159	0.164530	0.000118
C34	C	1.320470	0.167156	0.000122
C35	C	1.052577	0.403044	0.000098
C36	C	1.055206	0.542460	0.000096
N37	N	1.057664	0.173435	0.235461
N38	N	1.057708	0.173460	-0.235253
C39	C	1.117962	0.088185	0.287509
C40	C	1.117968	0.088184	0.391612
C41	C	1.057679	0.173440	0.443665
C42	C	0.997375	0.258693	0.391610
C43	C	0.997365	0.258687	0.287509
C44	C	0.997400	0.258702	0.608590
C45	C	0.997410	0.258710	0.712698
C46	C	1.118002	0.088199	0.712694
C47	C	1.117993	0.088193	0.608592
C48	C	1.057689	0.173448	0.556544
H49	H	0.347201	-0.040145	0.000132
H50	H	1.370382	-0.264362	0.000139
C51	C	0.490861	0.412452	0.000101
C52	C	0.552274	0.445618	-0.085779
C53	C	0.592655	0.572802	-0.085775
C54	C	0.571622	0.666818	0.000109
C55	C	0.510206	0.633654	0.085996
C56	C	0.469825	0.506471	0.085992
H57	H	0.567846	0.376020	-0.149362
H58	H	0.638120	0.597352	-0.149354
H59	H	0.601515	0.760967	0.000113
H60	H	0.494633	0.703253	0.149579
H61	H	0.424360	0.481921	0.149571
H62	H	0.948282	0.328106	0.433998
H63	H	1.167067	0.018767	0.433989
H64	H	0.912258	-0.180773	0.000074
C65	C	0.931038	0.352466	0.230252
C66	C	0.864752	0.446290	0.287505
C67	C	0.798419	0.540067	0.230251
C68	C	0.798372	0.540020	0.115743
C69	C	0.864660	0.446193	0.058484
C70	C	0.930993	0.352416	0.115738
H71	H	0.864785	0.446328	0.372276
H72	H	0.749348	0.609524	0.272638
H73	H	0.749268	0.609440	0.073360
H74	H	0.864627	0.446155	-0.026287
H75	H	0.980064	0.282959	0.073351
C76	C	1.184310	-0.005585	0.551328
C77	C	1.181931	-0.148599	0.565648
C78	C	1.248246	-0.242379	0.508383
C79	C	1.316940	-0.193145	0.436798
C80	C	1.319322	-0.050123	0.422474
C81	C	1.253007	0.043657	0.479740
H82	H	1.131077	-0.185052	0.618643
H83	H	1.246483	-0.348254	0.518986
H84	H	1.366031	-0.262566	0.394406
H85	H	1.370176	-0.013670	0.369480
H86	H	1.254770	0.149532	0.469136
H87	H	0.768160	0.387053	0.000067
H88	H	0.598884	0.382560	0.000088
H89	H	1.167103	0.018781	0.755077
H90	H	1.215983	-0.593916	0.000105
H91	H	0.311074	0.374929	0.000114
H92	H	0.516488	-0.035661	0.000121
H93	H	0.634998	-0.032505	0.000125
H94	H	0.804290	-0.028022	0.000096
H95	H	0.907771	-0.418433	0.000067
H96	H	1.224970	-0.118601	0.000145
H97	H	1.365897	-0.502018	0.000141
H98	H	1.167060	0.018766	0.245134
H99	H	0.948315	0.328132	0.755075
H100	H	0.948291	0.328122	0.566216
