data_functionalizedCrystal
_audit_creation_method	'MofGen! by Chris Wilmer'
_symmetry_space_group_name_H-M	'P1'
_symmetry_Int_Tables_number	1
_symmetry_cell_setting	triclinic
loop_
_symmetry_equiv_pos_as_xyz
  x,y,z
_cell_length_a	12.759401
_cell_length_b	19.077068
_cell_length_c	12.759393
_cell_angle_alpha	92.261180
_cell_angle_beta	89.980163
_cell_angle_gamma	92.328499
loop_
_atom_site_label
_atom_site_type_symbol
_atom_site_fract_x
_atom_site_fract_y
_atom_site_fract_z
Zn1	Zn	1.589362	-0.280130	-0.610770
Zn2	Zn	1.582158	-0.397846	-0.442129
Zn3	Zn	1.413662	-0.280170	-0.435108
Zn4	Zn	1.406558	-0.397794	-0.617763
O5	O	1.497935	-0.338985	-0.526442
O6	O	1.735428	-0.295750	-0.588411
O7	O	1.559765	-0.382274	-0.294179
O8	O	1.442957	-0.181674	-0.452545
O9	O	1.730135	-0.382235	-0.464511
O10	O	1.572044	-0.181644	-0.581603
O11	O	1.435972	-0.295818	-0.289020
O12	O	1.265699	-0.295768	-0.459325
O13	O	1.430849	-0.382148	-0.763854
O14	O	1.260479	-0.382186	-0.593521
O15	O	1.565155	-0.295700	-0.758716
O16	O	1.552876	-0.496330	-0.471292
O17	O	1.423863	-0.496292	-0.600330
C18	C	1.224968	-0.338976	-0.526421
C19	C	1.108191	-0.338990	-0.526438
C20	C	1.050634	-0.384056	-0.596212
C21	C	0.940910	-0.384059	-0.596233
C22	C	0.946309	-0.293926	-0.456696
C23	C	1.056031	-0.293921	-0.456681
C24	C	1.486846	-0.521848	-0.537354
C25	C	1.482198	-0.600078	-0.542058
C26	C	1.547236	-0.636827	-0.477140
C27	C	1.542871	-0.710332	-0.481570
C28	C	1.473461	-0.747087	-0.550913
C29	C	1.408419	-0.710333	-0.615838
C30	C	1.412791	-0.636829	-0.611412
C31	C	1.453183	-0.966920	-0.571352
C32	C	1.448814	-1.040429	-0.575770
C33	C	1.583268	-1.040423	-0.441503
C34	C	1.587629	-0.966918	-0.437079
C35	C	1.522591	-0.930170	-0.502008
N36	N	1.468995	-0.822221	-0.555440
N37	N	1.527063	-0.855037	-0.497485
C38	C	1.771968	-0.338994	-0.526464
C39	C	1.888744	-0.338998	-0.526474
C40	C	1.498013	-0.338914	-0.800472
C41	C	1.498046	-0.338883	-0.917246
C42	C	1.509097	-0.155407	-0.515511
C43	C	1.513853	-0.077178	-0.510852
C44	C	1.433611	-0.293857	-0.969421
C45	C	1.433637	-0.293836	-1.079144
C46	C	1.562541	-0.383868	-1.084508
C47	C	1.562509	-0.383893	-0.974787
C48	C	1.497921	-0.339005	-0.253476
C49	C	1.498104	-0.338837	-0.136690
H50	H	1.093100	-0.420752	-0.653015
H51	H	1.381167	-0.257172	-1.121620
H52	H	0.894052	-0.420755	-0.653052
C53	C	1.372461	-1.080858	-0.652063
N54	N	1.314956	-1.111309	-0.709524
H55	H	0.903827	-0.257234	-0.399902
H56	H	1.102895	-0.257218	-0.399862
C57	C	1.623591	-0.596403	-0.400854
N58	N	1.681107	-0.565958	-0.343396
H59	H	1.615025	-0.420512	-1.131370
H60	H	1.614982	-0.420561	-0.932305
C61	C	1.614413	-0.750752	-0.410148
N62	N	1.668299	-0.781196	-0.356349
H63	H	1.359831	-0.606909	-0.664276
H64	H	1.381121	-0.257208	-0.922575
C65	C	1.654807	-1.080851	-0.370090
N66	N	1.708696	-1.111302	-0.316301
C67	C	1.663958	-0.926493	-0.360770
N68	N	1.721439	-0.896045	-0.303280
H69	H	1.351909	-0.740265	-0.672303
C70	C	1.381693	-0.926507	-0.642829
N71	N	1.327863	-0.896066	-0.696690
