data_functionalizedCrystal
_audit_creation_method	'MofGen! by Chris Wilmer'
_symmetry_space_group_name_H-M	'P1'
_symmetry_Int_Tables_number	1
_symmetry_cell_setting	triclinic
loop_
_symmetry_equiv_pos_as_xyz
  x,y,z
_cell_length_a	19.805407
_cell_length_b	16.625546
_cell_length_c	19.805399
_cell_angle_alpha	89.972133
_cell_angle_beta	89.980427
_cell_angle_gamma	90.022468
loop_
_atom_site_label
_atom_site_type_symbol
_atom_site_fract_x
_atom_site_fract_y
_atom_site_fract_z
Zn1	Zn	1.034754	-0.321020	-0.382718
Zn2	Zn	1.034677	-0.455857	-0.269529
Zn3	Zn	0.921569	-0.321043	-0.269543
Zn4	Zn	0.921540	-0.455815	-0.382676
O5	O	0.978135	-0.388434	-0.326117
O6	O	1.129461	-0.338915	-0.367716
O7	O	1.019652	-0.438001	-0.174815
O8	O	0.936628	-0.208207	-0.284579
O9	O	1.129404	-0.437980	-0.284556
O10	O	1.019784	-0.208191	-0.367729
O11	O	0.936553	-0.338953	-0.174825
O12	O	0.826848	-0.338912	-0.284538
O13	O	0.936579	-0.437907	-0.477398
O14	O	0.826827	-0.437928	-0.367657
O15	O	1.019756	-0.338874	-0.477429
O16	O	1.019625	-0.568684	-0.284515
O17	O	0.936504	-0.568653	-0.367644
C18	C	0.802279	-0.388418	-0.326095
C19	C	0.727047	-0.388431	-0.326102
C20	C	0.978071	-0.597925	-0.326088
C21	C	0.978105	-0.687546	-0.326099
C22	C	0.691710	-0.440067	-0.369311
C23	C	0.621021	-0.440068	-0.369321
C24	C	0.585671	-0.388437	-0.326117
C25	C	0.621014	-0.336796	-0.282905
C26	C	0.691701	-0.336791	-0.282899
C27	C	0.335941	-0.336814	-0.282927
C28	C	0.265248	-0.336825	-0.282935
C29	C	0.265261	-0.440091	-0.369349
C30	C	0.335948	-0.440086	-0.369343
C31	C	0.371284	-0.388442	-0.326134
C32	C	0.447932	-0.388440	-0.326125
C33	C	0.509024	-0.388443	-0.326122
C34	C	0.978224	-1.015721	-0.326169
C35	C	0.978189	-0.924413	-0.326152
C36	C	0.978164	-0.851636	-0.326134
C37	C	0.978130	-0.760322	-0.326117
C38	C	1.154678	-0.388450	-0.326139
C39	C	1.229910	-0.388457	-0.326149
C40	C	0.978173	-0.388383	-0.502660
C41	C	0.978189	-0.388361	-0.577892
C42	C	0.978218	-0.178125	-0.326160
C43	C	0.978253	-0.088504	-0.326178
C44	C	1.021501	-0.336792	-0.613253
C45	C	1.021508	-0.336769	-0.683941
C46	C	0.978206	-0.388319	-0.719267
C47	C	0.934889	-0.439890	-0.683901
C48	C	0.934880	-0.439909	-0.613214
C49	C	0.934928	-0.439815	-0.968974
C50	C	0.934942	-0.439794	-1.039667
C51	C	1.021556	-0.336675	-1.039702
C52	C	1.021546	-0.336694	-0.969015
C53	C	0.978227	-0.388262	-0.933655
C54	C	0.978219	-0.388285	-0.857006
C55	C	0.978217	-0.388300	-0.795914
C56	C	0.978136	-0.388426	-0.150261
C57	C	0.978251	-0.388221	-0.075029
H58	H	0.592253	-0.482116	-0.404506
O59	O	1.063672	-0.286726	-0.934665
C60	C	1.107354	-0.332634	-0.893754
H61	H	1.111530	-0.396132	-0.915043
H62	H	1.086407	-0.335431	-0.840181
C63	C	1.172594	-0.215240	-0.866528
C64	C	1.177728	-0.293227	-0.892679
H65	H	1.216004	-0.190930	-0.865862
H66	H	1.143164	-0.184310	-0.894088
H67	H	1.155136	-0.217581	-0.821886
H68	H	1.195178	-0.290884	-0.937322
H69	H	1.207164	-0.324156	-0.865126
H70	H	1.056826	-0.294683	-1.068501
H71	H	0.236481	-0.482139	-0.404534
O72	O	0.892762	-0.489993	-0.718110
C73	C	0.854544	-0.535528	-0.671738
H74	H	0.852204	-0.502513	-0.621358
H75	H	0.879306	-0.596769	-0.664209
C76	C	0.785380	-0.587688	-0.761189
C77	C	0.782502	-0.547135	-0.699312
H78	H	0.740943	-0.594851	-0.778198
H79	H	0.811130	-0.557013	-0.792431
H80	H	0.806018	-0.638717	-0.754906
H81	H	0.761872	-0.496102	-0.705597
H82	H	0.756747	-0.577801	-0.668071
H83	H	0.899678	-0.481774	-1.068427
O84	O	0.231013	-0.286587	-0.240946
C85	C	0.277359	-0.241016	-0.202796
H86	H	0.327760	-0.238262	-0.230518
H87	H	0.284847	-0.270455	-0.151342
C88	C	0.187880	-0.158572	-0.159132
C89	C	0.249783	-0.155184	-0.193183
H90	H	0.170870	-0.105627	-0.153199
H91	H	0.156656	-0.189276	-0.184832
H92	H	0.194129	-0.183108	-0.116258
H93	H	0.243532	-0.130658	-0.236060
H94	H	0.281006	-0.124474	-0.167490
O95	O	0.892820	-0.489972	-0.934736
C96	C	0.854589	-0.535446	-0.981076
H97	H	0.882329	-0.538244	-1.031463
H98	H	0.803206	-0.505893	-0.988604
C99	C	0.810696	-0.617824	-0.891576
C100	C	0.844769	-0.621266	-0.953461
H101	H	0.804636	-0.670761	-0.874541
H102	H	0.836451	-0.587186	-0.860355
H103	H	0.767881	-0.593193	-0.897857
H104	H	0.887587	-0.645887	-0.947177
H105	H	0.819021	-0.651911	-0.984680
O106	O	0.370181	-0.490265	-0.411376
C107	C	0.323833	-0.535855	-0.449506
H108	H	0.273454	-0.502838	-0.451903
H109	H	0.316289	-0.597056	-0.424630
C110	C	0.413325	-0.588135	-0.518579
C111	C	0.351450	-0.547580	-0.521528
H112	H	0.430361	-0.595371	-0.563005
H113	H	0.444551	-0.557423	-0.492889
H114	H	0.407030	-0.639131	-0.497846
H115	H	0.357747	-0.496581	-0.542253
H116	H	0.320225	-0.578284	-0.547224
H117	H	0.899604	-0.481894	-0.584423
O118	O	1.063470	-0.286673	-0.578867
C119	C	1.024946	-0.234590	-0.537997
H120	H	0.973642	-0.263029	-0.527388
H121	H	1.017533	-0.174832	-0.565254
C122	C	1.125197	-0.185074	-0.483894
C123	C	1.062186	-0.220006	-0.470859
H124	H	1.148169	-0.176074	-0.442481
H125	H	1.151152	-0.220161	-0.511431
H126	H	1.119010	-0.135279	-0.506610
H127	H	1.068374	-0.269804	-0.448152
H128	H	1.036233	-0.184927	-0.443317
H129	H	0.720486	-0.482113	-0.404491
H130	H	0.364703	-0.294769	-0.247739
O131	O	0.586573	-0.286713	-0.240961
C132	C	0.516604	-0.297774	-0.250243
H133	H	0.506941	-0.360037	-0.272312
H134	H	0.496575	-0.250009	-0.286365
C135	C	0.492154	-0.213800	-0.154668
C136	C	0.480285	-0.290275	-0.181769
H137	H	0.469749	-0.209170	-0.112431
H138	H	0.539293	-0.206345	-0.148416
H139	H	0.475462	-0.174004	-0.184776
H140	H	0.496984	-0.330068	-0.151665
H141	H	0.433148	-0.297736	-0.188014
H142	H	0.720472	-0.294740	-0.247717
H143	H	1.056778	-0.294778	-0.712729
