data_functionalizedCrystal
_audit_creation_method	'MofGen! by Chris Wilmer'
_symmetry_space_group_name_H-M	'P1'
_symmetry_Int_Tables_number	1
_symmetry_cell_setting	triclinic
loop_
_symmetry_equiv_pos_as_xyz
  x,y,z
_cell_length_a	14.853569
_cell_length_b	10.654546
_cell_length_c	9.730223
_cell_angle_alpha	89.996430
_cell_angle_beta	90.001765
_cell_angle_gamma	95.940456
loop_
_atom_site_label
_atom_site_type_symbol
_atom_site_fract_x
_atom_site_fract_y
_atom_site_fract_z
O1	O	1.197235	-0.163965	-0.114212
O2	O	0.934880	-0.183495	-0.114226
O3	O	1.072091	0.009072	-0.114227
O4	O	1.060024	-0.356532	-0.114211
O5	O	1.072090	0.009067	0.114353
O6	O	0.934879	-0.183500	0.114354
O7	O	1.197234	-0.163970	0.114368
Zn8	Zn	1.066056	-0.173735	0.150653
Zn9	Zn	1.066058	-0.173729	-0.150511
O10	O	1.060022	-0.356537	0.114369
C11	C	0.901286	-0.182612	0.000062
C12	C	0.801188	-0.179959	0.000055
C13	C	0.764194	-0.064326	0.000045
C14	C	0.744127	-0.293100	0.000070
C15	C	0.650079	-0.290612	0.000072
C16	C	0.613085	-0.174978	0.000062
C17	C	0.670138	-0.061833	0.000051
C18	C	0.593020	-0.403755	0.000097
C19	C	0.498966	-0.401271	0.000100
C20	C	0.461970	-0.285636	0.000081
C21	C	0.519029	-0.172486	0.000068
C22	C	0.482034	-0.056853	0.000058
C23	C	0.539092	0.056298	0.000036
C24	C	0.633141	0.053802	0.000031
C25	C	0.367920	-0.283139	0.000085
C26	C	0.387978	-0.054360	0.000064
C27	C	1.071205	0.055859	0.000058
C28	C	1.068556	0.195275	0.000043
C29	C	1.230828	-0.164853	0.000078
C30	C	1.330926	-0.167506	0.000075
N31	N	1.066061	-0.173739	0.356189
C32	C	1.149343	0.275599	0.000047
C33	C	1.146849	0.406594	0.000027
C34	C	0.982773	0.376928	0.000007
C35	C	0.985268	0.245935	0.000017
C36	C	1.232632	0.224939	0.000073
C37	C	1.313426	0.305265	0.000078
C38	C	1.310931	0.436260	0.000059
C39	C	1.227643	0.486929	0.000035
C40	C	1.060911	0.596677	0.000063
C41	C	1.063566	0.457262	0.000015
N42	N	1.066060	-0.173716	-0.356047
C43	C	1.126834	-0.088499	0.428115
C44	C	1.126831	-0.088484	0.571998
C45	C	1.005280	-0.258960	0.572017
C46	C	1.005279	-0.258968	0.428136
C47	C	1.187616	-0.003270	0.356168
C48	C	1.248394	0.081975	0.428094
C49	C	1.248392	0.081991	0.571977
C50	C	1.187611	-0.003240	0.643934
H51	H	0.508958	0.150448	0.000019
H52	H	1.381236	0.264001	0.000063
C53	C	1.224903	0.631029	0.000006
N54	N	1.222842	0.739564	-0.000009
H55	H	1.234672	0.118278	0.000093
H56	H	0.919484	0.180532	0.000016
H57	H	0.321468	-0.375265	0.000115
H58	H	0.955792	-0.328377	0.369574
C59	C	0.938427	-0.352708	0.651175
N60	N	0.888074	-0.423323	0.710797
H61	H	1.187625	-0.003278	0.239012
H62	H	0.357865	0.039804	0.000048
H63	H	0.679605	0.145923	0.000016
H64	H	0.810654	0.027799	0.000022
H65	H	0.623148	-0.497898	0.000114
H66	H	0.774254	-0.387244	0.000088
C67	C	0.891162	0.432670	0.000003
N68	N	0.822159	0.474655	0.000009
C69	C	1.315237	0.175740	0.348939
N70	N	1.365583	0.246369	0.289321
C71	C	1.315236	0.175779	0.651092
N72	N	1.365585	0.246423	0.710678
C73	C	1.187612	-0.003218	0.802211
N74	N	1.187618	-0.003206	0.921423
H75	H	0.452517	-0.493405	0.000116
H76	H	1.376717	0.501658	0.000049
