data_functionalizedCrystal
_audit_creation_method	'MofGen! by Chris Wilmer'
_symmetry_space_group_name_H-M	'P1'
_symmetry_Int_Tables_number	1
_symmetry_cell_setting	triclinic
loop_
_symmetry_equiv_pos_as_xyz
  x,y,z
_cell_length_a	10.489741
_cell_length_b	8.965430
_cell_length_c	10.489741
_cell_angle_alpha	90.000707
_cell_angle_beta	95.460826
_cell_angle_gamma	90.001157
loop_
_atom_site_label
_atom_site_type_symbol
_atom_site_fract_x
_atom_site_fract_y
_atom_site_fract_z
O1	O	1.694053	0.123946	-0.179958
O2	O	1.322858	0.123969	-0.196851
O3	O	1.516902	0.123948	-0.002807
O4	O	1.500009	0.123967	-0.374003
O5	O	1.516886	-0.124130	-0.002820
O6	O	1.322841	-0.124110	-0.196864
O7	O	1.694037	-0.124133	-0.179971
Cu8	Cu	1.508438	-0.146773	-0.188419
Cu9	Cu	1.508457	0.146609	-0.188404
O10	O	1.499993	-0.124112	-0.374016
C11	C	1.275318	-0.000067	-0.195582
C12	C	1.133688	-0.000059	-0.191765
N13	N	1.508433	-0.353122	-0.188429
C14	C	1.065548	-0.000079	-0.068300
C15	C	0.973430	0.122237	-0.126617
C16	C	0.973447	-0.122349	-0.126659
C17	C	1.043435	0.122358	-0.250133
C18	C	1.043462	-0.122338	-0.250158
C19	C	0.951371	0.000007	-0.308564
C20	C	1.418666	-0.450418	-0.278138
C21	C	1.534163	-0.549838	-0.303949
C22	C	1.392986	-0.549830	-0.162629
C23	C	1.623988	-0.450352	-0.214298
C24	C	1.482735	-0.450336	-0.072927
C25	C	1.598314	-0.549711	-0.098690
C26	C	1.741577	-0.000093	-0.181241
C27	C	1.883206	-0.000092	-0.185058
C28	C	1.515618	-0.000090	0.044718
C29	C	1.511801	-0.000087	0.186348
N30	N	1.508471	0.352958	-0.188384
C31	C	1.501277	-0.000070	-0.421541
C32	C	1.505094	-0.000063	-0.563170
C33	C	1.388336	-0.000069	0.254488
C34	C	1.446652	-0.122388	0.346604
C35	C	1.446697	0.122198	0.346591
C36	C	1.570167	-0.122508	0.276599
C37	C	1.570195	0.122189	0.276576
C38	C	1.628600	-0.000161	0.368665
H39	H	1.115238	0.000069	0.033196
Br40	Br	1.570441	-0.622682	-0.466715
Br41	Br	1.095201	-0.294697	-0.337170
H42	H	1.342824	-0.406821	-0.354072
Br43	Br	1.786784	-0.377841	-0.250823
H44	H	1.730204	-0.000235	0.418089
Br45	Br	0.921803	-0.294705	-0.039565
H46	H	1.074270	0.225883	-0.302327
H47	H	1.674327	-0.593034	-0.022803
Br48	Br	1.359575	-0.294742	0.398282
H49	H	1.460937	-0.406596	0.024699
Br50	Br	0.921753	0.294593	-0.039545
H51	H	1.622355	-0.226035	0.245761
Br52	Br	1.219144	-0.000249	0.171734
Br53	Br	1.230236	-0.622669	-0.126289
Br54	Br	1.657208	0.294549	0.224839
H55	H	0.901947	0.000079	-0.410168
Br56	Br	1.359601	0.294546	0.398249
