data_functionalizedCrystal
_audit_creation_method	'MofGen! by Chris Wilmer'
_symmetry_space_group_name_H-M	'P1'
_symmetry_Int_Tables_number	1
_symmetry_cell_setting	triclinic
loop_
_symmetry_equiv_pos_as_xyz
  x,y,z
_cell_length_a	29.839134
_cell_length_b	16.959455
_cell_length_c	16.959447
_cell_angle_alpha	89.985678
_cell_angle_beta	90.020456
_cell_angle_gamma	89.997040
loop_
_atom_site_label
_atom_site_type_symbol
_atom_site_fract_x
_atom_site_fract_y
_atom_site_fract_z
Zn1	Zn	0.178881	1.208461	-0.446963
Zn2	Zn	0.254014	1.208416	-0.314807
Zn3	Zn	0.178895	1.076289	-0.314800
Zn4	Zn	0.253981	1.076287	-0.446946
O5	O	0.216443	1.142363	-0.380879
O6	O	0.188856	1.319066	-0.429442
O7	O	0.244069	1.190871	-0.204195
O8	O	0.116026	1.093842	-0.332336
O9	O	0.244056	1.319033	-0.332348
O10	O	0.116016	1.190948	-0.429436
O11	O	0.188880	1.093799	-0.204190
O12	O	0.188847	0.965678	-0.332320
O13	O	0.243999	1.093837	-0.557559
O14	O	0.244012	0.965676	-0.429406
O15	O	0.188823	1.190945	-0.557572
O16	O	0.316877	1.190869	-0.332331
O17	O	0.316852	1.093794	-0.429413
C18	C	0.216428	0.936997	-0.380861
C19	C	0.216432	0.849140	-0.380872
C20	C	0.187695	0.477641	-0.330432
C21	C	0.245228	0.477688	-0.431372
C22	C	0.245221	0.560234	-0.431367
C23	C	0.216452	0.601487	-0.380893
C24	C	0.187688	0.560195	-0.330424
C25	C	0.273987	0.601533	-0.481829
C26	C	0.273982	0.684084	-0.481826
C27	C	0.245210	0.725339	-0.431355
C28	C	0.216445	0.684041	-0.380885
C29	C	0.187676	0.725294	-0.330411
C30	C	0.158908	0.683998	-0.279943
C31	C	0.158916	0.601450	-0.279953
C32	C	0.245202	0.807887	-0.431346
C33	C	0.187669	0.807848	-0.330403
C34	C	0.099264	1.142401	-0.380887
C35	C	0.049330	1.142417	-0.380891
C36	C	-0.260311	1.091840	-0.330355
C37	C	-0.447984	1.091845	-0.330362
O38	O	-0.472247	1.048826	-0.287394
N39	N	-0.471455	1.142405	-0.380915
C40	C	-0.448005	1.192964	-0.431474
O41	O	-0.472275	1.235963	-0.474478
C42	C	-0.260333	1.192955	-0.431470
C43	C	-0.236864	1.142397	-0.380908
C44	C	-0.236842	1.041286	-0.279798
C45	C	-0.189927	1.041288	-0.279793
C46	C	-0.166480	1.091845	-0.330346
C47	C	-0.189949	1.142399	-0.380903
C48	C	-0.236884	1.243509	-0.482031
C49	C	-0.189963	1.243501	-0.482027
C50	C	-0.166494	1.192943	-0.431465
C51	C	-0.119586	1.192958	-0.431452
N52	N	-0.096115	1.142398	-0.380899
C53	C	-0.119562	1.091841	-0.330346
C54	C	-0.546536	1.192966	-0.431471
C55	C	-0.593453	1.192970	-0.431471
C56	C	-0.593429	1.091849	-0.330361
C57	C	-0.546511	1.091851	-0.330357
C58	C	-0.523065	1.142406	-0.380918
C59	C	-0.021036	1.091851	-0.330340
C60	C	0.025883	1.091860	-0.330338
C61	C	0.025855	1.192977	-0.431451
C62	C	-0.021061	1.192971	-0.431451
C63	C	-0.044505	1.142402	-0.380893
O64	O	-0.095295	1.235948	-0.474403
O65	O	-0.095284	1.048837	-0.287360
C66	C	-0.307226	1.091838	-0.330359
C67	C	-0.330695	1.142392	-0.380916
C68	C	-0.307248	1.192949	-0.431469
C69	C	-0.377613	1.142395	-0.380917
C70	C	-0.401060	1.091839	-0.330364
C71	C	-0.377589	1.041279	-0.279811
C72	C	-0.330673	1.041281	-0.279806
C73	C	-0.330719	1.243509	-0.482022
C74	C	-0.377635	1.243503	-0.482022
C75	C	-0.401082	1.192946	-0.431469
C76	C	0.333165	1.142347	-0.380888
C77	C	0.383100	1.142413	-0.380918
C78	C	0.216406	1.142396	-0.587047
C79	C	0.216390	1.142410	-0.674904
C80	C	0.216458	1.348531	-0.380898
C81	C	0.216464	1.436388	-0.380906
C82	C	0.245070	1.091945	-1.046376
C83	C	0.187615	1.193064	-1.046384
C84	C	0.187625	1.193043	-0.963838
C85	C	0.216358	1.142473	-0.922557
C86	C	0.245081	1.091924	-0.963822
C87	C	0.158905	1.243597	-0.922567
C88	C	0.158914	1.243579	-0.840016
C89	C	0.187645	1.193004	-0.798733
C90	C	0.216369	1.142452	-0.840003
C91	C	0.245102	1.091882	-0.798723
C92	C	0.273824	1.041326	-0.839991
C93	C	0.273812	1.041349	-0.922540
C94	C	0.187657	1.192980	-0.716185
C95	C	0.245113	1.091861	-0.716169
C96	C	0.216447	1.142376	-0.175513
C97	C	0.216337	1.142515	-0.087657
H98	H	0.135486	0.717598	-0.238844
H99	H	0.297413	0.567938	-0.522917
C100	C	-0.619264	1.248599	-0.487082
N101	N	-0.638702	1.290498	-0.528972
H102	H	0.135496	0.567819	-0.238864
H103	H	-0.040120	1.050672	-0.289172
C104	C	0.156008	1.248683	-1.091796
N105	N	0.132197	1.290573	-1.126003
H106	H	-0.527450	1.234139	-0.472644
H107	H	-0.255985	1.284677	-0.523204
H108	H	0.164272	0.444015	-0.289345
H109	H	0.297406	0.717700	-0.522920
H110	H	0.268507	1.050673	-0.682564
H111	H	0.268625	0.841506	-0.472433
C112	C	-0.403389	0.985664	-0.224204
N113	N	-0.422825	0.943774	-0.182328
H114	H	-0.255929	1.000113	-0.238632
C115	C	0.305429	0.985700	-0.794572
N116	N	0.329233	0.943803	-0.760358
C117	C	-0.520700	1.036228	-0.274741
N118	N	-0.501261	0.994329	-0.232851
C119	C	-0.164175	1.299120	-0.537647
N120	N	-0.144753	1.341016	-0.579537
C121	C	0.276874	0.432307	-0.486888
N122	N	0.300710	0.398122	-0.528707
C123	C	0.127296	1.299212	-0.967980
N124	N	0.103484	1.341098	-1.002190
C125	C	0.051696	1.036237	-0.274716
N126	N	0.071136	0.994342	-0.232825
H127	H	-0.040169	1.234148	-0.472615
H128	H	0.164238	0.841431	-0.289305
C129	C	0.305401	0.985738	-0.967941
N130	N	0.329194	0.943851	-1.002141
C131	C	-0.164118	0.985662	-0.224179
N132	N	-0.144681	0.943758	-0.182290
C133	C	0.156065	1.248590	-0.670793
N134	N	0.132267	1.290476	-0.636605
H135	H	0.135526	1.284744	-0.806422
C136	C	-0.619229	1.036232	-0.274757
N137	N	-0.638664	0.994339	-0.232883
H138	H	-0.311569	1.000111	-0.238634
C139	C	-0.304934	1.299137	-0.537629
N140	N	-0.285515	1.341045	-0.579510
H141	H	0.268453	1.050781	-1.079980
H142	H	0.044954	1.234141	-0.472607
H143	H	-0.396740	1.284680	-0.523194
