data_functionalizedCrystal
_audit_creation_method	'MofGen! by Chris Wilmer'
_symmetry_space_group_name_H-M	'P1'
_symmetry_Int_Tables_number	1
_symmetry_cell_setting	triclinic
loop_
_symmetry_equiv_pos_as_xyz
  x,y,z
_cell_length_a	11.169417
_cell_length_b	13.031981
_cell_length_c	11.169409
_cell_angle_alpha	97.219778
_cell_angle_beta	90.019824
_cell_angle_gamma	97.192872
loop_
_atom_site_label
_atom_site_type_symbol
_atom_site_fract_x
_atom_site_fract_y
_atom_site_fract_z
Zn1	Zn	1.774260	-0.416011	0.617790
Zn2	Zn	2.274260	0.083989	1.117790
Zn3	Zn	1.748640	-0.590835	0.391577
Zn4	Zn	2.248640	-0.090835	0.891577
Zn5	Zn	1.573537	-0.416075	0.417115
Zn6	Zn	2.073537	0.083925	0.917115
Zn7	Zn	1.548056	-0.590750	0.592234
Zn8	Zn	2.048056	-0.090750	1.092234
O9	O	1.661123	-0.503418	0.504679
O10	O	2.161123	-0.003418	1.004679
O11	O	1.938810	-0.439211	0.587790
O12	O	2.438810	0.060789	1.087790
O13	O	1.725354	-0.567715	0.227006
O14	O	2.225354	-0.067715	0.727006
O15	O	1.621549	-0.269800	0.465119
O16	O	2.121549	0.230200	0.965119
O17	O	1.919987	-0.567653	0.421592
O18	O	2.419987	-0.067653	0.921592
O19	O	1.769019	-0.269753	0.612554
O20	O	2.269019	0.230247	1.112554
O21	O	1.596706	-0.439319	0.245769
O22	O	2.096706	0.060681	0.745769
O23	O	1.402208	-0.439237	0.440338
O24	O	1.902208	0.060763	0.940338
O25	O	1.578121	-0.567508	0.763583
O26	O	2.078121	-0.067508	1.263583
O27	O	1.383488	-0.567570	0.568997
O28	O	1.883488	-0.067570	1.068997
O29	O	1.744312	-0.439128	0.782359
O30	O	2.244312	0.060872	1.282359
O31	O	1.700646	-0.737091	0.396811
O32	O	2.200646	-0.237091	0.896811
O33	O	1.553279	-0.737028	0.544233
O34	O	2.053279	-0.237028	1.044233
C35	C	1.349301	-0.503402	0.504666
C36	C	1.849301	-0.003402	1.004666
C37	C	1.215898	-0.503420	0.504685
C38	C	1.715898	-0.003420	1.004685
C39	C	1.621450	-0.774985	0.465004
C40	C	2.121450	-0.274985	0.965004
C41	C	1.604587	-0.891162	0.448071
C42	C	2.104587	-0.391162	0.948071
C43	C	1.669988	-0.942851	0.513541
C44	C	2.169988	-0.442851	1.013541
C45	C	1.652561	-1.062927	0.496041
C46	C	2.152561	-0.562927	0.996041
C47	C	1.974163	-0.503435	0.504693
C48	C	2.474163	-0.003435	1.004693
C49	C	2.107562	-0.503442	0.504699
C50	C	2.607562	-0.003442	1.004699
C51	C	1.661232	-0.503302	0.817739
C52	C	2.161232	-0.003302	1.317739
C53	C	1.661279	-0.503252	0.951146
C54	C	2.161279	-0.003252	1.451146
C55	C	1.700984	-0.230791	0.544536
C56	C	2.200984	0.269209	1.044536
C57	C	1.717970	-0.114613	0.561520
C58	C	2.217970	0.385387	1.061520
C59	C	1.661095	-0.503458	0.192849
C60	C	2.161095	-0.003458	0.692849
C61	C	1.661324	-0.503213	0.059485
C62	C	2.161324	-0.003213	0.559485
H63	H	1.738877	-0.898211	0.582553
H64	H	2.238877	-0.398211	1.082553
H65	H	1.786864	-1.069976	0.630537
H66	H	2.286864	-0.569976	1.130537
H67	H	1.583658	-1.107565	0.427035
H68	H	2.083658	-0.607565	0.927035
H69	H	1.535689	-0.935805	0.379069
H70	H	2.035689	-0.435805	0.879069
