data_functionalizedCrystal
_audit_creation_method	'MofGen! by Chris Wilmer'
_symmetry_space_group_name_H-M	'P1'
_symmetry_Int_Tables_number	1
_symmetry_cell_setting	triclinic
loop_
_symmetry_equiv_pos_as_xyz
  x,y,z
_cell_length_a	16.625546
_cell_length_b	17.077404
_cell_length_c	17.077396
_cell_angle_alpha	89.981638
_cell_angle_beta	89.969785
_cell_angle_gamma	90.020438
loop_
_atom_site_label
_atom_site_type_symbol
_atom_site_fract_x
_atom_site_fract_y
_atom_site_fract_z
Zn1	Zn	-0.321045	1.200057	-0.443809
Zn2	Zn	-0.455888	1.199965	-0.312539
Zn3	Zn	-0.321068	1.068789	-0.312560
Zn4	Zn	-0.455835	1.068758	-0.443766
O5	O	-0.388459	1.134392	-0.378169
O6	O	-0.338945	1.309892	-0.426406
O7	O	-0.438036	1.182539	-0.202695
O8	O	-0.208233	1.086253	-0.329997
O9	O	-0.438013	1.309824	-0.329962
O10	O	-0.208216	1.182695	-0.426426
O11	O	-0.338984	1.086164	-0.202710
O12	O	-0.338933	0.958938	-0.329955
O13	O	-0.437923	1.086200	-0.553618
O14	O	-0.437945	0.958915	-0.426351
O15	O	-0.338894	1.182665	-0.553651
O16	O	-0.568713	1.182509	-0.329920
O17	O	-0.568674	1.086111	-0.426331
C18	C	-0.388436	0.930444	-0.378151
C19	C	-0.388446	0.843194	-0.378162
C20	C	-0.336953	0.802240	-0.428457
C21	C	-0.336958	0.720260	-0.428460
C22	C	-0.388461	0.679235	-0.378173
C23	C	-0.439956	0.720195	-0.327872
C24	C	-0.439947	0.802174	-0.327865
C25	C	-0.439975	0.549325	-0.327892
C26	C	-0.439986	0.467340	-0.327900
C27	C	-0.336986	0.467411	-0.428487
C28	C	-0.336976	0.549390	-0.428480
C29	C	-0.388473	0.590344	-0.378180
C30	C	-0.597950	1.134318	-0.378136
C31	C	-0.687571	1.134358	-0.378148
C32	C	-1.015747	1.134495	-0.378230
C33	C	-0.924438	1.134454	-0.378209
C34	C	-0.851662	1.134426	-0.378188
C35	C	-0.760348	1.134386	-0.378169
C36	C	-0.178150	1.134488	-0.378219
C37	C	-0.088529	1.134529	-0.378240
C38	C	-0.388400	1.134440	-0.582913
C39	C	-0.388374	1.134460	-0.670163
C40	C	-0.388483	1.339136	-0.378187
C41	C	-0.388493	1.426386	-0.378194
C42	C	-0.336806	1.184691	-0.711171
C43	C	-0.336779	1.184700	-0.793151
C44	C	-0.388325	1.134482	-0.834122
C45	C	-0.439896	1.084245	-0.793108
C46	C	-0.439919	1.084233	-0.711129
C47	C	-0.439848	1.084277	-0.963979
C48	C	-0.439827	1.084291	-1.045963
C49	C	-0.336708	1.184745	-1.046001
C50	C	-0.336730	1.184732	-0.964022
C51	C	-0.388303	1.134496	-0.923013
C52	C	-0.388460	1.134390	-0.174221
C53	C	-0.388258	1.134522	-0.086971
H54	H	-0.295054	0.434062	-0.469441
H55	H	-0.481925	0.433940	-0.286951
O56	O	-0.490099	1.035423	-0.671413
C57	C	-0.535583	0.991092	-0.725152
H58	H	-0.538353	1.023249	-0.783596
H59	H	-0.506056	0.931484	-0.733862
C60	C	-0.618006	0.940256	-0.621355
C61	C	-0.621415	0.979754	-0.693136
H62	H	-0.670951	0.933258	-0.601605
H63	H	-0.587362	0.970120	-0.585149
H64	H	-0.593398	0.890587	-0.628623
H65	H	-0.646014	1.029426	-0.685864
H66	H	-0.652066	0.949898	-0.729339
O67	O	-0.286871	0.589121	-0.477354
C68	C	-0.241434	0.535397	-0.521763
H69	H	-0.238604	0.476945	-0.489626
H70	H	-0.271038	0.526699	-0.581331
C71	C	-0.159106	0.639213	-0.572694
C72	C	-0.155625	0.567423	-0.533218
H73	H	-0.106176	0.658969	-0.579763
H74	H	-0.189720	0.675409	-0.542777
H75	H	-0.183780	0.631955	-0.622329
H76	H	-0.130961	0.574684	-0.483580
H77	H	-0.125005	0.531229	-0.563127
H78	H	-0.295029	0.686918	-0.469417
O79	O	-0.490078	0.588988	-0.279009
C80	C	-0.535528	0.535201	-0.234615
H81	H	-0.538363	0.476775	-0.266765
H82	H	-0.505930	0.526469	-0.175047
C83	C	-0.617844	0.638929	-0.183671
C84	C	-0.621332	0.567171	-0.223161
H85	H	-0.670772	0.658650	-0.176602
H86	H	-0.587222	0.675167	-0.213578
H87	H	-0.593176	0.631643	-0.134035
H88	H	-0.645991	0.574460	-0.272800
H89	H	-0.651961	0.530935	-0.193262
H90	H	-0.481887	0.686786	-0.286923
O91	O	-0.490046	0.841838	-0.278987
C92	C	-0.535494	0.788052	-0.234590
H93	H	-0.538335	0.729626	-0.266742
H94	H	-0.505891	0.779316	-0.175025
C95	C	-0.617802	0.891781	-0.183634
C96	C	-0.621297	0.820024	-0.223127
H97	H	-0.670727	0.911504	-0.176560
H98	H	-0.587181	0.928019	-0.213543
H99	H	-0.593129	0.884491	-0.134001
H100	H	-0.645960	0.827316	-0.272763
H101	H	-0.651924	0.783788	-0.193227
H102	H	-0.294833	1.225587	-0.677818
O103	O	-0.287038	0.842124	-0.477391
C104	C	-0.333003	0.889568	-0.527995
H105	H	-0.396516	0.864850	-0.532735
H106	H	-0.335741	0.951688	-0.503715
C107	C	-0.215707	0.921228	-0.603844
C108	C	-0.293714	0.890865	-0.609671
H109	H	-0.191471	0.922032	-0.654225
H110	H	-0.184739	0.889267	-0.569750
H111	H	-0.218000	0.972992	-0.583607
H112	H	-0.291420	0.839099	-0.629898
H113	H	-0.324681	0.922818	-0.643770
H114	H	-0.481799	1.043397	-1.079319
H115	H	-0.481831	1.043357	-0.930592
O116	O	-0.286662	1.233572	-0.832865
C117	C	-0.241162	1.277883	-0.779124
H118	H	-0.274206	1.280574	-0.720680
H119	H	-0.179921	1.249170	-0.770414
C120	C	-0.188962	1.358135	-0.882918
C121	C	-0.229551	1.361445	-0.811137
H122	H	-0.181796	1.409678	-0.902665
H123	H	-0.219614	1.328280	-0.919125
H124	H	-0.137932	1.334203	-0.875650
H125	H	-0.280584	1.385367	-0.818408
H126	H	-0.198907	1.391306	-0.774932
O127	O	-0.286625	1.233461	-1.085953
C128	C	-0.297663	1.222713	-1.167095
H129	H	-0.324066	1.162126	-1.178273
H130	H	-0.340591	1.269261	-1.190365
C131	C	-0.183635	1.304352	-1.195468
C132	C	-0.216057	1.229935	-1.209197
H133	H	-0.133298	1.308810	-1.221440
H134	H	-0.176200	1.311596	-1.140801
H135	H	-0.219417	1.343133	-1.214859
H136	H	-0.180280	1.191156	-1.189797
H137	H	-0.223484	1.222685	-1.263862
H138	H	-0.481864	1.043354	-0.826473
H139	H	-0.294761	1.225629	-0.930665
