data_functionalizedCrystal
_audit_creation_method	'MofGen! by Chris Wilmer'
_symmetry_space_group_name_H-M	'P1'
_symmetry_Int_Tables_number	1
_symmetry_cell_setting	triclinic
loop_
_symmetry_equiv_pos_as_xyz
  x,y,z
_cell_length_a	15.500227
_cell_length_b	12.837943
_cell_length_c	17.038272
_cell_angle_alpha	87.029752
_cell_angle_beta	86.966746
_cell_angle_gamma	86.856663
loop_
_atom_site_label
_atom_site_type_symbol
_atom_site_fract_x
_atom_site_fract_y
_atom_site_fract_z
O1	O	0.071931	-1.398028	0.201307
O2	O	0.071936	-1.095331	0.191200
O3	O	0.071926	-1.244880	0.082304
O4	O	0.071940	-1.248479	0.310203
O5	O	-0.071962	-1.235803	0.088883
O6	O	-0.071952	-1.086254	0.197779
O7	O	-0.071957	-1.388950	0.207886
Cu8	Cu	-0.085093	-1.236773	0.203434
Cu9	Cu	0.085071	-1.247509	0.195653
O10	O	-0.071948	-1.239402	0.316782
C11	C	-0.000008	-1.051871	0.191075
C12	C	-0.000006	-0.935896	0.180892
N13	N	-0.204778	-1.229230	0.208906
C14	C	-0.000018	-1.237069	0.056221
C15	C	-0.000017	-1.227306	-0.031301
C16	C	-0.250058	-1.292625	0.162784
C17	C	-0.340631	-1.286930	0.166931
C18	C	-0.385921	-1.217846	0.217205
C19	C	-0.340634	-1.154445	0.263329
C20	C	-0.250063	-1.160135	0.259177
C21	C	-0.659387	-1.197348	0.232147
C22	C	-0.749964	-1.191665	0.236297
C23	C	-0.749954	-1.324150	0.139897
C24	C	-0.659381	-1.329838	0.135754
C25	C	-0.614103	-1.266433	0.181875
C26	C	-0.478500	-1.212026	0.221446
C27	C	-0.521525	-1.272248	0.177628
N28	N	0.204756	-1.255059	0.190174
C29	C	-0.000012	-1.432411	0.208011
C30	C	-0.000008	-1.548386	0.218194
C31	C	-0.000011	-0.705733	0.303310
C32	C	-0.000010	-0.596764	0.293746
C33	C	-0.000009	-0.608986	0.152201
C34	C	-0.000010	-0.717955	0.161765
C35	C	-0.000010	-0.766325	0.237322
C36	C	-0.000005	-0.875296	0.246885
C37	C	-0.000010	-0.887516	0.105341
C38	C	-0.000009	-0.778547	0.095777
C39	C	-0.000020	-1.316945	-0.074719
C40	C	-0.000011	-1.307766	-0.156956
C41	C	-0.000007	-1.208945	-0.195773
C42	C	-0.000002	-1.119299	-0.152349
C43	C	-0.000004	-1.128480	-0.070114
C44	C	0.000006	-1.176511	-0.443954
C45	C	0.000005	-1.167337	-0.526195
C46	C	-0.000003	-1.355805	-0.530796
C47	C	-0.000010	-1.364977	-0.448559
C48	C	-0.000000	-1.275331	-0.405143
C49	C	-0.000001	-1.199560	-0.279832
C50	C	-0.000000	-1.284718	-0.321086
C51	C	-0.000002	-1.247213	0.342865
C52	C	0.000003	-1.256977	0.430387
H53	H	-0.213189	-1.348885	0.121849
F54	F	-0.000000	-0.757215	0.383721
H55	H	-0.000019	-0.739148	0.034261
H56	H	-0.000003	-0.936862	0.051609
H57	H	-0.000005	-1.086860	-0.557796
H58	H	-0.000014	-0.547434	0.347480
F59	F	-0.388822	-1.354400	0.117841
H60	H	0.000001	-1.119099	-0.311445
F61	F	-0.388836	-1.080914	0.316831
F62	F	-0.000033	-1.422124	-0.033414
H63	H	-0.000081	-0.569580	0.090689
H64	H	-0.000015	-1.380761	-0.192303
F65	F	-0.000001	-0.926774	0.327298
F66	F	-0.201873	-1.092658	0.308265
F67	F	-0.473322	-1.345766	0.124121
H68	H	-0.515383	-1.155778	0.262382
F69	F	0.000007	-1.470157	-0.407255
H70	H	-0.622508	-1.386092	0.094817
F71	F	-0.798159	-1.118133	0.289810
H72	H	-0.786828	-1.375770	0.102347
F73	F	-0.000011	-1.451206	-0.577009
F74	F	0.000018	-1.081101	-0.397758
H75	H	0.000007	-1.038837	-0.183960
H76	H	-0.000002	-1.055485	-0.034764
F77	F	0.000000	-1.389887	-0.279773
H78	H	-0.622527	-1.145723	0.269702
