data_functionalizedCrystal
_audit_creation_method	'MofGen! by Chris Wilmer'
_symmetry_space_group_name_H-M	'P1'
_symmetry_Int_Tables_number	1
_symmetry_cell_setting	triclinic
loop_
_symmetry_equiv_pos_as_xyz
  x,y,z
_cell_length_a	17.699083
_cell_length_b	10.654541
_cell_length_c	16.176319
_cell_angle_alpha	89.993456
_cell_angle_beta	89.998611
_cell_angle_gamma	83.883472
loop_
_atom_site_label
_atom_site_type_symbol
_atom_site_fract_x
_atom_site_fract_y
_atom_site_fract_z
O1	O	1.005088	0.158809	-0.068630
O2	O	1.505088	0.658809	0.431370
O3	O	0.784840	0.179471	-0.068657
O4	O	1.284840	0.679471	0.431343
O5	O	0.900029	-0.013688	-0.068638
O6	O	1.400029	0.486312	0.431362
O7	O	0.889899	0.351968	-0.068649
O8	O	1.389899	0.851968	0.431351
O9	O	0.900013	-0.013701	0.068855
O10	O	1.400013	0.486299	0.568855
O11	O	0.784824	0.179458	0.068836
O12	O	1.284824	0.679458	0.568836
O13	O	1.005072	0.158797	0.068863
O14	O	1.505072	0.658797	0.568863
Cu15	Cu	0.894946	0.169126	0.081404
Cu16	Cu	1.394946	0.669126	0.581404
Cu17	Cu	0.894965	0.169141	-0.081198
Cu18	Cu	1.394965	0.669141	0.418802
O19	O	0.889883	0.351956	0.068844
O20	O	1.389883	0.851956	0.568844
C21	C	0.756631	0.178724	0.000086
C22	C	1.256631	0.678724	0.500086
C23	C	0.672599	0.176503	0.000076
C24	C	1.172599	0.676503	0.500076
C25	C	0.624698	0.289883	0.000072
C26	C	1.124698	0.789883	0.500072
C27	C	0.545741	0.287789	0.000083
C28	C	1.045741	0.787789	0.500083
C29	C	0.514687	0.172313	0.000091
C30	C	1.014687	0.672313	0.500091
C31	C	0.562594	0.058924	0.000097
C32	C	1.062594	0.558924	0.500097
C33	C	0.641549	0.061020	0.000092
C34	C	1.141549	0.561020	0.500092
C35	C	0.244177	0.050470	0.000118
C36	C	0.744177	0.550470	0.500118
C37	C	0.165216	0.048383	0.000120
C38	C	0.665216	0.548383	0.500120
C39	C	0.148369	0.277239	0.000109
C40	C	0.648369	0.777239	0.500109
C41	C	0.227324	0.279335	0.000104
C42	C	0.727324	0.779335	0.500104
C43	C	0.275224	0.165946	0.000114
C44	C	0.775224	0.665946	0.500114
C45	C	0.360838	0.168219	0.000104
C46	C	0.860838	0.668219	0.500104
C47	C	0.429075	0.170039	0.000096
C48	C	0.929075	0.670039	0.500096
C49	C	0.899277	-0.060480	0.000108
C50	C	1.399277	0.439520	0.500108
C51	C	0.897053	-0.199884	0.000106
C52	C	1.397053	0.300116	0.500106
C53	C	1.034792	-0.230266	0.000134
C54	C	1.534792	0.269734	0.500134
C55	C	1.102614	-0.310947	0.000149
C56	C	1.602614	0.189053	0.500149
C57	C	1.100519	-0.441929	0.000146
C58	C	1.600519	0.058071	0.500146
C59	C	1.030596	-0.492230	0.000126
C60	C	1.530596	0.007770	0.500126
C61	C	0.962775	-0.411549	0.000110
C62	C	1.462775	0.088451	0.500110
C63	C	0.964876	-0.280566	0.000116
C64	C	1.464876	0.219434	0.500116
C65	C	0.825037	-0.381167	0.000077
C66	C	1.325037	0.118833	0.500077
C67	C	0.827130	-0.250185	0.000086
C68	C	1.327130	0.249815	0.500086
C69	C	0.755114	-0.431468	0.000056
C70	C	1.255114	0.068532	0.500056
C71	C	0.687291	-0.350786	0.000047
C72	C	1.187291	0.149214	0.500047
C73	C	0.689388	-0.219798	0.000051
C74	C	1.189388	0.280202	0.500051
C75	C	0.759308	-0.169504	0.000071
C76	C	1.259308	0.330496	0.500071
C77	C	1.033281	0.159543	0.000118
C78	C	1.533281	0.659543	0.500118
C79	C	1.117313	0.161764	0.000123
C80	C	1.617313	0.661764	0.500123
C81	C	0.890634	0.398747	0.000096
C82	C	1.390634	0.898747	0.500096
C83	C	0.892859	0.538151	0.000092
C84	C	1.392859	1.038151	0.500092
N85	N	0.894939	0.169115	0.195769
N86	N	1.394939	0.669115	0.695769
N87	N	0.894979	0.169142	-0.195563
N88	N	1.394979	0.669142	0.304437
C89	C	0.945960	0.083620	0.239042
C90	C	1.445960	0.583620	0.739042
C91	C	0.945964	0.083618	0.325589
C92	C	1.445964	0.583618	0.825589
C93	C	0.894949	0.169120	0.368862
C94	C	1.394949	0.669120	0.868862
C95	C	0.843923	0.254620	0.325583
C96	C	1.343923	0.754620	0.825583
C97	C	0.843916	0.254614	0.239037
C98	C	1.343916	0.754614	0.739037
C99	C	0.843949	0.254643	0.674611
C100	C	1.343949	0.754643	1.174611
C101	C	0.843961	0.254645	0.761163
C102	C	1.343961	0.754645	1.261163
C103	C	0.945997	0.083647	0.761162
C104	C	1.445997	0.583647	1.261162
C105	C	0.945990	0.083642	0.674617
C106	C	1.445990	0.583642	1.174617
C107	C	0.894961	0.169137	0.631346
C108	C	1.394961	0.669137	1.131346
C109	C	0.894956	0.169136	0.537502
C110	C	1.394956	0.669136	1.037502
C111	C	0.894957	0.169128	0.462704
C112	C	1.394957	0.669128	0.962704
H113	H	0.649976	0.383917	0.000065
H114	H	1.149976	0.883917	0.500065
O115	O	1.028340	-0.633504	0.000113
O116	O	1.528340	-0.133504	0.500113
H117	H	0.968327	-0.654927	0.000092
H118	H	1.468327	-0.154927	0.500092
O119	O	0.752849	-0.572740	0.000051
O120	O	1.252849	-0.072740	0.500051
H121	H	0.722546	-0.600720	0.056079
H122	H	1.222546	-0.100720	0.556079
H123	H	0.630364	-0.391753	0.000025
H124	H	1.130364	0.108247	0.500025
O125	O	0.529106	-0.065631	0.000109
O126	O	1.029106	0.434369	0.500109
H127	H	0.466155	-0.048043	0.000104
H128	H	0.966155	0.451957	0.500104
O129	O	1.178030	-0.256699	0.000173
O130	O	1.678030	0.243301	0.500173
H131	H	1.168097	-0.152065	0.000180
H132	H	1.668097	0.347935	0.500180
O133	O	0.693212	-0.061274	0.000095
O134	O	1.193212	0.438726	0.500095
H135	H	0.729581	-0.065799	0.056140
H136	H	1.229581	0.434201	0.556140
H137	H	0.802368	0.324232	0.203805
H138	H	1.302368	0.824232	0.703805
O139	O	0.616237	-0.132776	0.000041
O140	O	1.116237	0.367224	0.500041
H141	H	0.567269	-0.189764	0.000034
H142	H	1.067269	0.310236	0.500034
H143	H	1.155746	-0.507621	0.000152
H144	H	1.655746	-0.007621	0.500152
H145	H	0.987505	0.014000	0.203815
H146	H	1.487505	0.514000	0.703815
H147	H	0.761023	-0.062854	0.000079
H148	H	1.261023	0.437146	0.500079
H149	H	0.802416	0.324273	0.796394
H150	H	1.302416	0.824273	1.296394
O151	O	1.001007	-0.008572	0.372265
O152	O	1.501007	0.491428	0.872265
H153	H	1.036490	-0.068008	0.327635
H154	H	1.536490	0.431992	0.827635
O155	O	0.295834	-0.071823	0.000120
O156	O	0.795834	0.428177	0.500120
H157	H	0.332204	-0.076354	0.056164
H158	H	0.832204	0.423646	0.556164
H159	H	0.987533	0.014023	0.639387
H160	H	1.487533	0.514023	1.139387
O161	O	0.788921	0.346862	0.627944
O162	O	1.288921	0.846862	1.127944
H163	H	0.753457	0.406326	0.672577
H164	H	1.253457	0.906326	1.172577
H165	H	0.987545	0.014029	0.796403
H166	H	1.487545	0.514029	1.296403
H167	H	1.036505	-0.123616	0.000147
H168	H	1.536505	0.376384	0.500147
O169	O	0.788904	0.346853	0.372250
O170	O	1.288904	0.846853	0.872250
H171	H	0.751851	0.294078	0.411700
H172	H	1.251851	0.794078	0.911700
O173	O	0.494074	0.410076	0.000080
O174	O	0.994074	0.910076	0.500080
H175	H	0.528932	0.490725	0.000064
H176	H	1.028932	0.990725	0.500064
O177	O	0.260821	0.403882	0.000107
O178	O	0.760821	0.903882	0.500107
H179	H	0.214247	0.482373	0.000119
H180	H	0.714247	0.982373	0.500119
O181	O	0.096705	0.399543	0.000106
O182	O	0.596705	0.899543	0.500106
H183	H	0.107831	0.454817	0.056137
H184	H	0.607831	0.954817	0.556137
H185	H	0.139935	-0.045657	0.000128
H186	H	0.639935	0.454343	0.500128
