data_functionalizedCrystal
_audit_creation_method	'MofGen! by Chris Wilmer'
_symmetry_space_group_name_H-M	'P1'
_symmetry_Int_Tables_number	1
_symmetry_cell_setting	triclinic
loop_
_symmetry_equiv_pos_as_xyz
  x,y,z
_cell_length_a	12.759401
_cell_length_b	15.299816
_cell_length_c	15.298025
_cell_angle_alpha	91.618140
_cell_angle_beta	99.681260
_cell_angle_gamma	80.350473
loop_
_atom_site_label
_atom_site_type_symbol
_atom_site_fract_x
_atom_site_fract_y
_atom_site_fract_z
Zn1	Zn	1.771079	-0.263084	0.555625
Zn2	Zn	2.271079	0.236916	1.055625
Zn3	Zn	1.781178	-0.434834	0.434517
Zn4	Zn	2.281178	0.065166	0.934517
Zn5	Zn	1.571000	-0.288413	0.409171
Zn6	Zn	2.071000	0.211587	0.909171
Zn7	Zn	1.629947	-0.409486	0.580950
Zn8	Zn	2.129947	0.090514	1.080950
O9	O	1.688301	-0.348954	0.495066
O10	O	2.188301	0.151046	0.995066
O11	O	1.919443	-0.285875	0.539568
O12	O	2.419443	0.214125	1.039568
O13	O	1.732854	-0.436618	0.308580
O14	O	2.232854	0.063382	0.808580
O15	O	1.568644	-0.162506	0.407392
O16	O	2.068644	0.337494	0.907392
O17	O	1.926862	-0.412059	0.450590
O18	O	2.426862	0.087941	0.950590
O19	O	1.715642	-0.143897	0.514991
O20	O	2.215642	0.356103	1.014991
O21	O	1.578437	-0.329044	0.289959
O22	O	2.078437	0.170956	0.789959
O23	O	1.431795	-0.304466	0.431950
O24	O	1.931795	0.195534	0.931950
O25	O	1.669112	-0.368858	0.700165
O26	O	2.169112	0.131142	1.200165
O27	O	1.475104	-0.393418	0.558155
O28	O	1.975104	0.106582	1.058155
O29	O	1.772801	-0.261297	0.681559
O30	O	2.272801	0.238703	1.181559
O31	O	1.790013	-0.554019	0.475147
O32	O	2.290013	-0.054019	0.975147
O33	O	1.678905	-0.535396	0.582732
O34	O	2.178905	-0.035396	1.082732
C35	C	1.415328	-0.348940	0.495051
C36	C	1.915328	0.151060	0.995051
C37	C	1.298557	-0.348952	0.495069
C38	C	1.798557	0.151048	0.995069
C39	C	1.266279	-0.395375	0.560707
C40	C	1.766279	0.104625	1.060707
C41	C	1.156559	-0.395384	0.560719
C42	C	1.656559	0.104616	1.060719
C43	C	1.111403	-0.302546	0.429446
C44	C	1.611403	0.197454	0.929446
C45	C	1.221121	-0.302532	0.429439
C46	C	1.721121	0.197468	0.929439
C47	C	1.343715	-0.441794	0.626337
C48	C	1.843715	0.058206	1.126337
C49	C	1.311439	-0.488222	0.691980
C50	C	1.811439	0.011778	1.191980
C51	C	1.201719	-0.488231	0.691992
C52	C	1.701719	0.011769	1.191992
C53	C	1.124275	-0.441813	0.626360
C54	C	1.624275	0.058187	1.126360
C55	C	1.741983	-0.576479	0.534457
C56	C	2.241983	-0.076479	1.034457
C57	C	1.765049	-0.673810	0.551338
C58	C	2.265049	-0.173810	1.051338
C59	C	1.524180	-0.987245	0.374711
C60	C	2.024180	-0.487245	0.874711
C61	C	1.502503	-0.895797	0.358853
C62	C	2.002503	-0.395797	0.858853
C63	C	1.568138	-0.840296	0.406973
C64	C	2.068138	-0.340296	0.906973
C65	C	1.655453	-0.876252	0.470954
C66	C	2.155453	-0.376252	0.970954
C67	C	1.677127	-0.967708	0.486819
C68	C	2.177127	-0.467708	0.986819
C69	C	1.721085	-0.820759	0.519080
C70	C	2.221085	-0.320759	1.019080
C71	C	1.808400	-0.856714	0.583062
C72	C	2.308400	-0.356714	1.083062
C73	C	1.830071	-0.948161	0.598923
C74	C	2.330071	-0.448161	1.098923
C75	C	1.764436	-1.003662	0.550804
C76	C	2.264436	-0.503662	1.050804
C77	C	1.699411	-0.729303	0.503215
C78	C	2.199411	-0.229303	1.003215
C79	C	1.852358	-0.709765	0.615323
C80	C	2.352358	-0.209765	1.115323
C81	C	1.874035	-0.801213	0.631181
C82	C	2.374035	-0.301213	1.131181
C83	C	1.962340	-0.348969	0.495081
C84	C	2.462340	0.151031	0.995081
C85	C	2.079119	-0.348975	0.495088
C86	C	2.579119	0.151025	0.995088
C87	C	1.726406	-0.309425	0.723533
C88	C	2.226406	0.190575	1.223533
C89	C	1.742643	-0.292580	0.820892
C90	C	2.242643	0.207420	1.320892
C91	C	1.634441	-0.120538	0.455540
C92	C	2.134441	0.379462	0.955540
C93	C	1.611489	-0.023200	0.438696
C94	C	2.111489	0.476800	0.938696
C95	C	1.572478	-0.469104	1.134081
C96	C	2.072478	0.030896	1.634081
C97	C	1.557210	-0.484926	1.042607
C98	C	2.057210	0.015074	1.542607
C99	C	1.603567	-0.436841	0.987174
C100	C	2.103567	0.063159	1.487174
C101	C	1.665194	-0.372931	1.023224
C102	C	2.165194	0.127069	1.523224
C103	C	1.680457	-0.357102	1.114706
C104	C	2.180457	0.142898	1.614706
C105	C	1.711546	-0.324839	0.967799
C106	C	2.211546	0.175161	1.467799
C107	C	1.773173	-0.260929	1.003849
C108	C	2.273173	0.239071	1.503849
C109	C	1.788433	-0.245104	1.095323
C110	C	2.288433	0.254896	1.595323
C111	C	1.742076	-0.293189	1.150756
C112	C	2.242076	0.206811	1.650756
C113	C	1.696284	-0.340668	0.876316
C114	C	2.196284	0.159332	1.376316
C115	C	1.804263	-0.228666	0.856941
C116	C	2.304263	0.271334	1.356941
C117	C	1.819531	-0.212844	0.948416
C118	C	2.319531	0.287156	1.448416
C119	C	1.650340	-0.388348	1.267490
C120	C	2.150340	0.111652	1.767490
C121	C	1.634097	-0.405190	1.170131
C122	C	2.134097	0.094810	1.670131
H123	H	1.175443	-0.526028	0.745446
H124	H	1.675443	-0.026028	1.245446
N125	N	1.462057	-0.441787	0.626335
N126	N	1.962057	0.058213	1.126335
H127	H	1.477019	-0.378935	0.632141
H128	H	1.977019	0.121065	1.132141
H129	H	1.482148	-0.468225	0.568980
H130	H	1.982148	0.031775	1.068980
H131	H	1.754508	-0.280313	1.225243
H132	H	2.254508	0.219687	1.725243
H133	H	1.550484	-0.765836	0.394056
H134	H	2.050484	-0.265836	0.894056
H135	H	1.507043	-0.536969	1.013263
H136	H	2.007043	-0.036969	1.513263
N137	N	1.885993	-0.143909	0.987295
N138	N	2.385993	0.356091	1.487295
H139	H	1.949403	-0.172936	1.031409
H140	H	2.449403	0.327064	1.531409
H141	H	1.839980	-0.096776	1.018177
H142	H	2.339980	0.403224	1.518177
N143	N	1.854879	-0.176154	1.134192
N144	N	2.354879	0.323846	1.634192
H145	H	1.930499	-0.192508	1.120629
H146	H	2.430499	0.307492	1.620629
H147	H	1.857429	-0.173442	1.200542
H148	H	2.357429	0.326558	1.700542
H149	H	1.034935	-0.441816	0.626381
H150	H	1.534935	0.058184	1.126381
H151	H	1.534736	-0.508245	1.179222
H152	H	2.034736	-0.008245	1.679222
N153	N	1.453401	-1.047105	0.322813
N154	N	1.953401	-0.547105	0.822813
H155	H	1.376821	-1.028897	0.333611
H156	H	1.876821	-0.528897	0.833611
H157	H	1.480475	-1.110472	0.342601
H158	H	1.980475	-0.610472	0.842601
H159	H	1.431411	-0.866526	0.306761
H160	H	1.931411	-0.366526	0.806761
N161	N	1.629810	-0.409592	0.837449
N162	N	2.129810	0.090408	1.337449
H163	H	1.663530	-0.469410	0.864198
H164	H	2.163530	0.030590	1.364198
H165	H	1.627181	-0.412252	0.771090
H166	H	2.127181	0.087748	1.271090
H167	H	1.374500	-0.526007	0.745419
H168	H	1.874500	-0.026007	1.245419
N169	N	1.787807	-1.102300	0.567899
N170	N	2.287807	-0.602300	1.067899
H171	H	1.723624	-1.121595	0.587772
H172	H	2.223624	-0.621595	1.087772
H173	H	1.853103	-1.116597	0.615715
H174	H	2.353103	-0.616597	1.115715
H175	H	1.591134	-0.449729	0.912692
H176	H	2.091134	0.050271	1.412692
H177	H	1.628318	-0.700036	0.451121
H178	H	2.128318	-0.200036	0.951121
N179	N	1.854272	-0.176800	0.797165
N180	N	2.354272	0.323200	1.297165
H181	H	1.835258	-0.196528	0.733745
H182	H	2.335258	0.303472	1.233745
H183	H	1.935188	-0.187673	0.815519
H184	H	2.435188	0.312327	1.315519
H185	H	1.945128	-0.830501	0.683276
H186	H	2.445128	-0.330501	1.183276
N187	N	1.027883	-0.252503	0.358649
N188	N	1.527883	0.247497	0.858649
H189	H	0.953480	-0.259564	0.368608
H190	H	1.453480	0.240436	0.868608
H191	H	1.039826	-0.276874	0.298418
H192	H	1.539826	0.223126	0.798418
H193	H	1.905802	-0.664576	0.654508
H194	H	2.405802	-0.164576	1.154508
H195	H	1.247400	-0.264723	0.375996
H196	H	1.747400	0.235277	0.875996
H197	H	1.901165	-0.977432	0.651025
H198	H	2.401165	-0.477432	1.151025
