data_functionalizedCrystal
_audit_creation_method	'MofGen! by Chris Wilmer'
_symmetry_space_group_name_H-M	'P1'
_symmetry_Int_Tables_number	1
_symmetry_cell_setting	triclinic
loop_
_symmetry_equiv_pos_as_xyz
  x,y,z
_cell_length_a	19.188930
_cell_length_b	19.188930
_cell_length_c	17.666332
_cell_angle_alpha	90.023234
_cell_angle_beta	89.988397
_cell_angle_gamma	96.855221
loop_
_atom_site_label
_atom_site_type_symbol
_atom_site_fract_x
_atom_site_fract_y
_atom_site_fract_z
O1	O	0.087169	-0.926150	-0.063200
O2	O	0.420502	-0.592816	0.270133
O3	O	0.753835	-0.259483	0.603467
O4	O	0.098903	-0.722838	-0.063149
O5	O	0.432236	-0.389505	0.270184
O6	O	0.765570	-0.056172	0.603517
O7	O	-0.008620	-0.830361	-0.063161
O8	O	0.324714	-0.497028	0.270172
O9	O	0.658047	-0.163694	0.603505
O10	O	0.194692	-0.818627	-0.063188
O11	O	0.528025	-0.485294	0.270145
O12	O	0.861358	-0.151960	0.603479
O13	O	-0.008625	-0.830342	0.062735
O14	O	0.324708	-0.497009	0.396069
O15	O	0.658041	-0.163676	0.729402
O16	O	0.098897	-0.722820	0.062747
O17	O	0.432231	-0.389486	0.396081
O18	O	0.765564	-0.056153	0.729414
O19	O	0.087163	-0.926131	0.062697
O20	O	0.420496	-0.592797	0.396030
O21	O	0.753830	-0.259464	0.729363
Cu22	Cu	0.093030	-0.824473	0.074217
Cu23	Cu	0.426363	-0.491140	0.407551
Cu24	Cu	0.759696	-0.157807	0.740884
Cu25	Cu	0.093036	-0.824496	-0.074670
Cu26	Cu	0.426370	-0.491162	0.258663
Cu27	Cu	0.759703	-0.157829	0.591997
O28	O	0.194686	-0.818608	0.062709
O29	O	0.528019	-0.485275	0.396042
O30	O	0.861353	-0.151941	0.729375
C31	C	0.098520	-0.696818	-0.000194
C32	C	0.431854	-0.363485	0.333139
C33	C	0.765187	-0.030151	0.666472
C34	C	0.097380	-0.619313	-0.000174
C35	C	0.430713	-0.285980	0.333159
C36	C	0.764046	0.047353	0.666492
C37	C	-0.034634	-0.829972	-0.000211
C38	C	0.298700	-0.496638	0.333123
C39	C	0.632033	-0.163305	0.666456
C40	C	-0.112138	-0.828831	-0.000204
C41	C	0.221195	-0.495498	0.333129
C42	C	0.554529	-0.162164	0.666463
C43	C	0.087546	-0.952151	-0.000260
C44	C	0.420879	-0.618818	0.333073
C45	C	0.754213	-0.285485	0.666407
C46	C	0.088687	-1.029656	-0.000285
C47	C	0.422020	-0.696322	0.333048
C48	C	0.755353	-0.362989	0.666382
C49	C	-0.157062	-0.891922	-0.000216
C50	C	0.176271	-0.558589	0.333117
C51	C	0.509605	-0.225255	0.666451
C52	C	-0.229886	-0.890850	-0.000228
C53	C	0.103448	-0.557517	0.333105
C54	C	0.436781	-0.224184	0.666439
C55	C	-0.257782	-0.826684	-0.000212
C56	C	0.075551	-0.493351	0.333121
C57	C	0.408884	-0.160017	0.666454
C58	C	-0.212849	-0.763585	-0.000205
C59	C	0.120485	-0.430252	0.333129
C60	C	0.453818	-0.096918	0.666462
C61	C	-0.140026	-0.764658	-0.000200
C62	C	0.193307	-0.431325	0.333133
C63	C	0.526640	-0.097992	0.666466
N64	N	-0.365789	-0.777630	0.042645
N65	N	-0.032456	-0.444297	0.375978
N66	N	0.300877	-0.110964	0.709311
N67	N	-0.434968	-0.776615	0.042642
N68	N	-0.101635	-0.443282	0.375976
N69	N	0.231699	-0.109948	0.709309
C70	C	-0.477191	-0.823446	-0.000227
C71	C	-0.143858	-0.490113	0.333106
C72	C	0.189476	-0.156779	0.666440
N73	N	-0.447624	-0.871341	-0.043084
N74	N	-0.114290	-0.538008	0.290249
N75	N	0.219043	-0.204675	0.623582
N76	N	-0.378439	-0.872359	-0.043079
N77	N	-0.045106	-0.539026	0.290255
N78	N	0.288228	-0.205692	0.623588
C79	C	-0.336745	-0.825513	-0.000218
C80	C	-0.003412	-0.492180	0.333116
C81	C	0.329922	-0.158846	0.666449
C82	C	-0.601079	-0.885379	-0.000253
C83	C	-0.267746	-0.552046	0.333080
C84	C	0.065587	-0.218712	0.666414
C85	C	-0.673904	-0.884305	-0.000270
C86	C	-0.340571	-0.550971	0.333064
C87	C	-0.007238	-0.217638	0.666397
C88	C	-0.656865	-0.757038	-0.000239
C89	C	-0.323532	-0.423704	0.333095
C90	C	0.009801	-0.090371	0.666428
C91	C	-0.584042	-0.758114	-0.000230
C92	C	-0.250709	-0.424781	0.333104
C93	C	0.082624	-0.091447	0.666437
C94	C	-0.556154	-0.822287	-0.000233
C95	C	-0.222821	-0.488953	0.333100
C96	C	0.110513	-0.155620	0.666433
C97	C	0.220700	-0.818997	-0.000244
C98	C	0.554033	-0.485664	0.333090
C99	C	0.887366	-0.152331	0.666423
C100	C	0.298204	-0.820138	-0.000255
C101	C	0.631538	-0.486805	0.333078
C102	C	0.964871	-0.153471	0.666411
N103	N	0.093025	-0.824463	0.178937
N104	N	0.426358	-0.491130	0.512270
N105	N	0.759691	-0.157796	0.845603
C106	C	0.160470	-0.574389	-0.000194
C107	C	0.493804	-0.241056	0.333139
C108	C	0.827137	0.092277	0.666472
C109	C	0.159399	-0.501566	-0.000203
C110	C	0.492732	-0.168232	0.333131
C111	C	0.826065	0.165101	0.666464
C112	C	0.095233	-0.473669	-0.000206
C113	C	0.428566	-0.140336	0.333128
C114	C	0.761899	0.192998	0.666461
C115	C	0.032133	-0.518603	-0.000181
C116	C	0.365467	-0.185270	0.333152
C117	C	0.698800	0.148064	0.666485
C118	C	0.033207	-0.591425	-0.000166
C119	C	0.366540	-0.258092	0.333168
C120	C	0.699874	0.075242	0.666501
N121	N	0.046188	-0.365695	-0.043078
N122	N	0.379521	-0.032362	0.290255
N123	N	0.712854	0.300971	0.623589
N124	N	0.045172	-0.296517	-0.043095
N125	N	0.378505	0.036817	0.290239
N126	N	0.711839	0.370150	0.623572
C127	C	0.091994	-0.254260	-0.000252
C128	C	0.425328	0.079073	0.333082
C129	C	0.758661	0.412406	0.666415
N130	N	0.139881	-0.283795	0.042599
N131	N	0.473215	0.049539	0.375932
N132	N	0.806548	0.382872	0.709266
N133	N	0.140899	-0.352979	0.042612
N134	N	0.474232	-0.019646	0.375946
N135	N	0.807565	0.313687	0.709279
C136	C	0.094062	-0.394707	-0.000222
C137	C	0.427395	-0.061373	0.333111
C138	C	0.760728	0.271960	0.666444
C139	C	0.153928	-0.130372	-0.000280
C140	C	0.487261	0.202961	0.333054
C141	C	0.820594	0.536295	0.666387
C142	C	0.152853	-0.057547	-0.000283
C143	C	0.486187	0.275786	0.333050
C144	C	0.819520	0.609119	0.666384
C145	C	0.025586	-0.074586	-0.000270
C146	C	0.358920	0.258747	0.333064
C147	C	0.692253	0.592081	0.666397
C148	C	0.026662	-0.147409	-0.000258
C149	C	0.359996	0.185924	0.333075
C150	C	0.693329	0.519257	0.666408
C151	C	0.090835	-0.175298	-0.000267
C152	C	0.424168	0.158036	0.333066
C153	C	0.757502	0.491369	0.666400
N154	N	0.093036	-0.824512	-0.179390
N155	N	0.426369	-0.491178	0.153944
N156	N	0.759703	-0.157845	0.487277
C157	C	0.045437	-0.872089	0.218541
C158	C	0.378770	-0.538756	0.551875
C159	C	0.712103	-0.205423	0.885208
C160	C	0.045433	-0.872093	0.297789
C161	C	0.378767	-0.538760	0.631122
C162	C	0.712100	-0.205427	0.964455
C163	C	0.093030	-0.824478	0.337429
C164	C	0.426363	-0.491144	0.670762
C165	C	0.759697	-0.157811	1.004096
C166	C	0.140621	-0.776842	0.297815
C167	C	0.473955	-0.443509	0.631148
C168	C	0.807288	-0.110176	0.964482
C169	C	0.140619	-0.776835	0.218569
C170	C	0.473952	-0.443502	0.551902
C171	C	0.807285	-0.110168	0.885236
N172	N	0.154837	-0.815401	0.461841
N173	N	0.488171	-0.482068	0.795174
N174	N	0.821504	-0.148735	1.128508
N175	N	0.154837	-0.815413	0.537121
N176	N	0.488171	-0.482079	0.870455
N177	N	0.821504	-0.148746	1.203788
C178	C	0.093040	-0.824496	0.576193
C179	C	0.426373	-0.491163	0.909526
C180	C	0.759706	-0.157829	1.242860
N181	N	0.031239	-0.833582	0.537140
N182	N	0.364573	-0.500248	0.870474
N183	N	0.697906	-0.166915	1.203807
N184	N	0.031240	-0.833574	0.461853
N185	N	0.364573	-0.500241	0.795186
N186	N	0.697906	-0.166907	1.128520
C187	C	0.093038	-0.824480	0.423358
C188	C	0.426371	-0.491147	0.756691
C189	C	0.759704	-0.157813	1.090025
C190	C	0.045444	-0.872130	0.701727
C191	C	0.378777	-0.538796	1.035060
C192	C	0.712111	-0.205463	1.368393
C193	C	0.045440	-0.872129	0.780976
C194	C	0.378773	-0.538795	1.114309
C195	C	0.712106	-0.205462	1.447642
C196	C	0.140634	-0.776881	0.781000
C197	C	0.473967	-0.443548	1.114334
C198	C	0.807301	-0.110214	1.447667
C199	C	0.140632	-0.776878	0.701753
C200	C	0.473966	-0.443545	1.035086
C201	C	0.807299	-0.110212	1.368420
C202	C	0.093038	-0.824506	0.662121
C203	C	0.426371	-0.491173	0.995454
C204	C	0.759705	-0.157840	1.328787
H205	H	-0.134360	-0.944176	-0.000222
H206	H	0.198973	-0.610843	0.333112
H207	H	0.532306	-0.277509	0.666445
H208	H	-0.266470	-0.942228	-0.000241
H209	H	0.066863	-0.608895	0.333092
H210	H	0.400197	-0.275561	0.666426
Cl211	Cl	-0.014398	-0.931959	0.168719
Cl212	Cl	0.318935	-0.598626	0.502052
Cl213	Cl	0.652269	-0.265293	0.835385
Cl214	Cl	0.234600	-0.165435	-0.000283
Cl215	Cl	0.567933	0.167898	0.333050
Cl216	Cl	0.901267	0.501231	0.666384
Cl217	Cl	-0.048533	-0.483534	-0.000181
Cl218	Cl	0.284801	-0.150201	0.333152
Cl219	Cl	0.618134	0.183133	0.666486
Cl220	Cl	0.232175	-0.001070	-0.000305
Cl221	Cl	0.565509	0.332264	0.333029
Cl222	Cl	0.898842	0.665597	0.666362
Cl223	Cl	-0.566016	-0.966051	-0.000253
Cl224	Cl	-0.232683	-0.632718	0.333080
Cl225	Cl	0.100650	-0.299385	0.666413
Cl226	Cl	-0.247918	-0.682919	-0.000191
Cl227	Cl	0.085416	-0.349586	0.333142
Cl228	Cl	0.418749	-0.016252	0.666475
Cl229	Cl	-0.055081	-0.039523	-0.000265
Cl230	Cl	0.278253	0.293810	0.333069
Cl231	Cl	0.611586	0.627144	0.666402
H232	H	0.006680	-0.910878	0.330041
H233	H	0.340013	-0.577544	0.663374
H234	H	0.673347	-0.244211	0.996707
H235	H	0.210776	-0.464982	-0.000217
H236	H	0.544110	-0.131648	0.333116
H237	H	0.877443	0.201685	0.666450
H238	H	-0.024713	-0.183988	-0.000246
H239	H	0.308620	0.149346	0.333087
H240	H	0.641954	0.482679	0.666420
H241	H	-0.679578	-0.704792	-0.000230
H242	H	-0.346245	-0.371459	0.333104
H243	H	-0.012911	-0.038126	0.666437
Cl244	Cl	-0.083547	-0.685337	-0.000185
Cl245	Cl	0.249786	-0.352004	0.333149
Cl246	Cl	0.583119	-0.018671	0.666482
Cl247	Cl	-0.014392	-0.932000	0.651902
Cl248	Cl	0.318942	-0.598667	0.985236
Cl249	Cl	0.652275	-0.265334	1.318569
H250	H	0.006684	-0.910910	0.813222
H251	H	0.340018	-0.577576	1.146556
H252	H	0.673351	-0.244243	1.479889
H253	H	0.179374	-0.738072	0.330094
H254	H	0.512707	-0.404738	0.663427
H255	H	0.846041	-0.071405	0.996761
H256	H	0.179385	-0.738109	0.813275
H257	H	0.512719	-0.404775	1.146608
H258	H	0.846052	-0.071442	1.479942
Cl259	Cl	0.200449	-0.716958	0.168777
Cl260	Cl	0.533782	-0.383624	0.502111
Cl261	Cl	0.867116	-0.050291	0.835444
H262	H	-0.547464	-0.706738	-0.000216
H263	H	-0.214131	-0.373405	0.333118
H264	H	0.119203	-0.040072	0.666451
Cl265	Cl	0.200463	-0.717006	0.651960
Cl266	Cl	0.533797	-0.383673	0.985293
Cl267	Cl	0.867130	-0.050339	1.318626
H268	H	-0.710481	-0.935683	-0.000284
H269	H	-0.377148	-0.602350	0.333050
H270	H	-0.043815	-0.269017	0.666383
H271	H	-0.018171	-0.628003	-0.000150
H272	H	0.315162	-0.294670	0.333184
H273	H	0.648496	0.038664	0.666517
Cl274	Cl	0.241144	-0.609445	-0.000202
Cl275	Cl	0.574478	-0.276112	0.333132
Cl276	Cl	0.907811	0.057221	0.666465
