data_functionalizedCrystal
_audit_creation_method	'MofGen! by Chris Wilmer'
_symmetry_space_group_name_H-M	'P1'
_symmetry_Int_Tables_number	1
_symmetry_cell_setting	triclinic
loop_
_symmetry_equiv_pos_as_xyz
  x,y,z
_cell_length_a	17.038272
_cell_length_b	17.038272
_cell_length_c	7.540329
_cell_angle_alpha	89.996089
_cell_angle_beta	90.002667
_cell_angle_gamma	91.111556
loop_
_atom_site_label
_atom_site_type_symbol
_atom_site_fract_x
_atom_site_fract_y
_atom_site_fract_z
O1	O	1.048753	0.170536	-0.147262
O2	O	0.820941	0.167828	-0.147314
O3	O	0.933493	0.055276	-0.147274
O4	O	0.936201	0.283087	-0.147302
O5	O	0.933486	0.055274	0.147691
O6	O	0.820934	0.167826	0.147651
O7	O	1.048746	0.170534	0.147703
Cu8	Cu	0.934839	0.169179	0.174610
Cu9	Cu	0.934848	0.169182	-0.174221
O10	O	0.936194	0.283085	0.147663
C11	C	0.791645	0.165364	0.000162
C12	C	0.704361	0.158016	0.000142
C13	C	0.931027	0.025982	0.000207
C14	C	0.923679	-0.061301	0.000205
C15	C	0.658752	0.225479	0.000135
C16	C	0.576740	0.218570	0.000161
C17	C	0.540339	0.144197	0.000180
C18	C	0.585954	0.076728	0.000192
C19	C	0.667965	0.083638	0.000180
C20	C	0.292951	0.119787	0.000230
C21	C	0.210935	0.112882	0.000238
C22	C	0.201726	0.254725	0.000210
C23	C	0.283739	0.261628	0.000186
C24	C	0.329347	0.194159	0.000208
C25	C	0.456510	0.137133	0.000200
C26	C	0.413174	0.201224	0.000200
C27	C	0.991142	-0.106911	0.000222
C28	C	0.984233	-0.188923	0.000204
C29	C	0.909860	-0.225324	0.000181
C30	C	0.842391	-0.179708	0.000158
C31	C	0.849301	-0.097698	0.000164
C32	C	0.885449	-0.472712	0.000151
C33	C	0.878545	-0.554728	0.000151
C34	C	1.020387	-0.563937	0.000193
C35	C	1.027291	-0.481924	0.000209
C36	C	0.959822	-0.436316	0.000177
C37	C	0.902796	-0.309153	0.000168
C38	C	0.966886	-0.352488	0.000178
C39	C	1.078042	0.172997	0.000223
C40	C	1.165326	0.180346	0.000231
C41	C	0.938660	0.312379	0.000177
C42	C	0.946008	0.399663	0.000168
N43	N	0.934839	0.169178	0.419958
N44	N	0.934854	0.169178	-0.419569
H45	H	0.688384	0.286042	0.000118
Br46	Br	0.462577	0.302156	0.000185
H47	H	0.794365	-0.060564	0.000150
Br48	Br	1.092082	-0.057517	0.000279
Br49	Br	0.729865	-0.007923	0.000204
Br50	Br	0.333134	0.362567	0.000140
H51	H	1.039170	-0.226054	0.000222
H52	H	0.330076	0.064848	0.000249
H53	H	1.087853	-0.452293	0.000228
H54	H	0.164583	0.309653	0.000196
H55	H	0.817978	-0.584363	0.000161
H56	H	0.539608	0.273507	0.000153
H57	H	0.842241	-0.338800	0.000153
Br58	Br	0.161534	0.011940	0.000302
H59	H	0.830511	-0.435587	0.000126
Br60	Br	0.536554	-0.024208	0.000236
H61	H	1.075316	-0.601079	0.000216
Br62	Br	0.407102	0.036200	0.000224
H63	H	0.781835	-0.209353	0.000129
Br64	Br	1.067819	-0.303086	0.000194
