data_functionalizedCrystal
_audit_creation_method	'MofGen! by Chris Wilmer'
_symmetry_space_group_name_H-M	'P1'
_symmetry_Int_Tables_number	1
_symmetry_cell_setting	triclinic
loop_
_symmetry_equiv_pos_as_xyz
  x,y,z
_cell_length_a	10.540514
_cell_length_b	15.944493
_cell_length_c	9.616153
_cell_angle_alpha	90.003613
_cell_angle_beta	89.992599
_cell_angle_gamma	83.995102
loop_
_atom_site_label
_atom_site_type_symbol
_atom_site_fract_x
_atom_site_fract_y
_atom_site_fract_z
O1	O	1.684263	0.118272	-0.115643
O2	O	1.314690	0.129447	-0.115640
O3	O	1.509607	0.001641	-0.115653
O4	O	1.489346	0.246078	-0.115630
O5	O	1.509581	0.001644	0.115638
O6	O	1.314664	0.129450	0.115651
O7	O	1.684237	0.118274	0.115648
Zn8	Zn	1.499446	0.123862	0.152372
Zn9	Zn	1.499481	0.123859	-0.152364
O10	O	1.489320	0.246080	0.115661
C11	C	1.267385	0.128615	0.000006
C12	C	1.126470	0.126121	0.000006
C13	C	1.508766	-0.029657	-0.000013
C14	C	1.506283	-0.122921	-0.000031
C15	C	1.054491	0.217526	0.000012
C16	C	0.907914	0.214963	-0.000521
C17	C	0.934840	0.076409	-0.131829
C18	C	1.081335	0.079620	-0.131932
C19	C	1.081726	0.078271	0.131099
C20	C	0.934759	0.077389	0.132824
C21	C	1.621016	-0.358003	-0.000006
C22	C	1.559158	-0.408938	-0.114043
C23	C	1.501683	-0.293669	-0.000014
C24	C	1.559104	-0.408911	0.113992
C25	C	1.497248	-0.458605	0.000009
C26	C	1.439857	-0.343375	-0.114146
C27	C	1.439821	-0.343345	0.113992
C28	C	1.377875	-0.394247	-0.000073
C29	C	1.504241	-0.198654	-0.000028
C30	C	1.494681	-0.553617	0.000013
C31	C	1.731542	0.119107	-0.000000
C32	C	1.872457	0.121601	-0.000010
C33	C	1.490161	0.277379	0.000019
C34	C	1.492644	0.370642	0.000027
N35	N	1.499431	0.123864	0.360347
N36	N	1.499506	0.123850	-0.360339
C37	C	1.394851	0.192003	0.580724
C38	C	1.395076	0.192258	0.419556
C39	C	1.631878	0.143795	0.418798
C40	C	1.631307	0.144278	0.580016
C41	C	1.472889	0.035571	0.580250
C42	C	1.469834	0.036144	0.419023
H43	H	0.864744	0.250508	0.093951
C44	C	1.662972	0.231292	0.630807
N45	N	1.686813	0.296836	0.669056
H46	H	1.411611	0.257127	0.621228
C47	C	1.094647	0.266886	-0.127499
N48	N	1.124893	0.304060	-0.223544
H49	H	1.412063	0.257753	0.380983
H50	H	1.711614	0.096638	0.618999
H51	H	1.711607	0.095512	0.380440
H52	H	0.893293	0.110415	0.230346
H53	H	1.082504	0.254607	0.094527
C54	C	1.664310	0.229827	0.364260
N55	N	1.688728	0.294631	0.323189
C56	C	1.371844	-0.304848	-0.244542
N57	N	1.320623	-0.275828	-0.342758
H58	H	1.723806	-0.341768	-0.000121
C59	C	0.903356	-0.014545	0.144109
N60	N	0.879701	-0.083792	0.152601
C61	C	1.146840	-0.012811	0.132813
N62	N	1.195889	-0.081411	0.134093
C63	C	1.627257	-0.447650	-0.244285
N64	N	1.678559	-0.476809	-0.342377
H65	H	1.109111	0.112625	-0.230839
C66	C	0.850881	0.262767	-0.128928
N67	N	0.807926	0.298771	-0.225655
H68	H	1.275005	-0.410320	-0.000135
H69	H	1.389457	-0.314680	0.210408
H70	H	1.609514	-0.437544	0.210396
C71	C	1.345230	0.009960	0.635231
N72	N	1.249071	-0.009321	0.676642
H73	H	1.130277	0.012477	-0.137566
H74	H	1.296625	0.180267	0.380041
H75	H	1.372405	0.021037	0.380822
H76	H	1.296090	0.180196	0.619534
H77	H	1.549208	-0.015154	0.618361
C78	C	0.905980	-0.016228	-0.137966
N79	N	0.884238	-0.086002	-0.142587
C80	C	0.876707	0.118249	-0.264857
N81	N	0.832900	0.149755	-0.365052
H82	H	1.541102	-0.017007	0.378723
C83	C	1.123677	0.119382	0.266121
N84	N	1.155272	0.150355	0.367814
