data_functionalizedCrystal
_audit_creation_method	'MofGen! by Chris Wilmer'
_symmetry_space_group_name_H-M	'P1'
_symmetry_Int_Tables_number	1
_symmetry_cell_setting	triclinic
loop_
_symmetry_equiv_pos_as_xyz
  x,y,z
_cell_length_a	11.169416
_cell_length_b	11.169417
_cell_length_c	11.169409
_cell_angle_alpha	90.022388
_cell_angle_beta	89.969184
_cell_angle_gamma	89.991438
loop_
_atom_site_label
_atom_site_type_symbol
_atom_site_fract_x
_atom_site_fract_y
_atom_site_fract_z
Zn1	Zn	-0.477768	-1.834971	-0.678613
Zn2	Zn	-0.227768	-1.584971	-0.428613
Zn3	Zn	0.022232	-1.334971	-0.178613
Zn4	Zn	0.272232	-1.084971	0.071387
Zn5	Zn	-0.678508	-1.834858	-0.477935
Zn6	Zn	-0.428508	-1.584858	-0.227935
Zn7	Zn	-0.178508	-1.334858	0.022065
Zn8	Zn	0.071492	-1.084858	0.272065
Zn9	Zn	-0.477831	-1.634254	-0.477941
Zn10	Zn	-0.227831	-1.384254	-0.227941
Zn11	Zn	0.022169	-1.134254	0.022059
Zn12	Zn	0.272169	-0.884254	0.272059
Zn13	Zn	-0.678401	-1.634264	-0.678574
Zn14	Zn	-0.428401	-1.384264	-0.428574
Zn15	Zn	-0.178401	-1.134264	-0.178574
Zn16	Zn	0.071599	-0.884264	0.071426
O17	O	-0.578127	-1.734587	-0.578266
O18	O	-0.328127	-1.484587	-0.328266
O19	O	-0.078127	-1.234587	-0.078266
O20	O	0.171873	-0.984587	0.171734
O21	O	-0.504414	-2.002906	-0.652007
O22	O	-0.254414	-1.752906	-0.402007
O23	O	-0.004414	-1.502906	-0.152007
O24	O	0.245586	-1.252906	0.097993
O25	O	-0.651959	-1.808196	-0.309986
O26	O	-0.401959	-1.558196	-0.059986
O27	O	-0.151959	-1.308196	0.190014
O28	O	0.098041	-1.058196	0.440014
O29	O	-0.309873	-1.660923	-0.504580
O30	O	-0.059873	-1.410923	-0.254580
O31	O	0.190127	-1.160923	-0.004580
O32	O	0.440127	-0.910923	0.245420
O33	O	-0.651897	-2.002823	-0.504570
O34	O	-0.401897	-1.752823	-0.254570
O35	O	-0.151897	-1.502823	-0.004570
O36	O	0.098103	-1.252823	0.245430
O37	O	-0.309826	-1.808389	-0.652013
O38	O	-0.059826	-1.558389	-0.402013
O39	O	0.190174	-1.308389	-0.152013
O40	O	0.440174	-1.058389	0.097987
O41	O	-0.504523	-1.660813	-0.309991
O42	O	-0.254523	-1.410813	-0.059991
O43	O	-0.004523	-1.160813	0.190009
O44	O	0.245477	-0.910813	0.440009
O45	O	-0.504419	-1.466306	-0.504542
O46	O	-0.254419	-1.216306	-0.254542
O47	O	-0.004419	-0.966306	-0.004542
O48	O	0.245581	-0.716306	0.245458
O49	O	-0.651715	-1.660940	-0.846529
O50	O	-0.401715	-1.410940	-0.596529
O51	O	-0.151715	-1.160940	-0.346529
O52	O	0.098285	-0.910940	-0.096529
O53	O	-0.651777	-1.466313	-0.651945
O54	O	-0.401777	-1.216313	-0.401945
O55	O	-0.151777	-0.966313	-0.151945
O56	O	0.098223	-0.716313	0.098055
O57	O	-0.504311	-1.808399	-0.846558
O58	O	-0.254311	-1.558399	-0.596558
O59	O	-0.004311	-1.308399	-0.346558
O60	O	0.245689	-1.058399	-0.096558
O61	O	-0.846443	-1.808206	-0.504531
O62	O	-0.596443	-1.558206	-0.254531
O63	O	-0.346443	-1.308206	-0.004531
O64	O	-0.096443	-1.058206	0.245469
O65	O	-0.846365	-1.660830	-0.651940
O66	O	-0.596365	-1.410830	-0.401940
O67	O	-0.346365	-1.160830	-0.151940
O68	O	-0.096365	-0.910830	0.098060
C69	C	-0.889952	-1.734539	-0.578257
C70	C	-0.639952	-1.484539	-0.328257
C71	C	-0.389952	-1.234539	-0.078257
C72	C	-0.139952	-0.984539	0.171743
C73	C	-1.023352	-1.734629	-0.578293
C74	C	-0.773352	-1.484629	-0.328293
C75	C	-0.523352	-1.234629	-0.078293
C76	C	-0.273352	-0.984629	0.171707
C77	C	-0.578094	-1.422762	-0.578241
C78	C	-0.328094	-1.172762	-0.328241
C79	C	-0.078094	-0.922762	-0.078241
C80	C	0.171906	-0.672762	0.171759
C81	C	-0.578109	-1.289362	-0.578258
C82	C	-0.328109	-1.039362	-0.328258
C83	C	-0.078109	-0.789362	-0.078258
C84	C	0.171891	-0.539362	0.171742
C85	C	-0.577994	-1.734683	-0.891309
C86	C	-0.327994	-1.484683	-0.641309
C87	C	-0.077994	-1.234683	-0.391309
C88	C	0.172006	-0.984683	-0.141309
C89	C	-0.577937	-1.734724	-1.024709
C90	C	-0.327937	-1.484724	-0.774709
C91	C	-0.077937	-1.234724	-0.524709
C92	C	0.172063	-0.984724	-0.274709
C93	C	-0.265085	-1.734667	-0.578301
C94	C	-0.015085	-1.484667	-0.328301
C95	C	0.234915	-1.234667	-0.078301
C96	C	0.484915	-0.984667	0.171699
C97	C	-0.131685	-1.734702	-0.578316
C98	C	0.118315	-1.484702	-0.328316
C99	C	0.368315	-1.234702	-0.078316
C100	C	0.618315	-0.984702	0.171684
C101	C	-0.578149	-1.047629	-0.578284
C102	C	-0.328149	-0.797629	-0.328284
C103	C	-0.078149	-0.547629	-0.078284
C104	C	0.171851	-0.297629	0.171716
C105	C	-0.578129	-1.181029	-0.578271
C106	C	-0.328129	-0.931029	-0.328271
C107	C	-0.078129	-0.681029	-0.078271
C108	C	0.171871	-0.431029	0.171729
C109	C	-0.578173	-1.734560	-0.266441
C110	C	-0.328173	-1.484560	-0.016441
C111	C	-0.078173	-1.234560	0.233559
C112	C	0.171827	-0.984560	0.483559
C113	C	-0.577891	-1.734752	-0.133042
C114	C	-0.327891	-1.484752	0.116958
C115	C	-0.077891	-1.234752	0.366958
C116	C	0.172109	-0.984752	0.616958
