data_functionalizedCrystal
_audit_creation_method	'MofGen! by Chris Wilmer'
_symmetry_space_group_name_H-M	'P1'
_symmetry_Int_Tables_number	1
_symmetry_cell_setting	triclinic
loop_
_symmetry_equiv_pos_as_xyz
  x,y,z
_cell_length_a	12.477989
_cell_length_b	18.426585
_cell_length_c	12.478026
_cell_angle_alpha	63.149406
_cell_angle_beta	95.275423
_cell_angle_gamma	64.368471
loop_
_atom_site_label
_atom_site_type_symbol
_atom_site_fract_x
_atom_site_fract_y
_atom_site_fract_z
Zr1	Zr	0.955297	0.878825	-0.203834
O2	O	0.780061	1.014729	-0.364191
O3	O	1.009016	0.732176	-0.154681
O4	O	0.989586	0.881857	-0.377937
O5	O	0.814817	0.866403	0.035179
O6	O	1.154863	0.896472	-0.388774
O7	O	0.799491	0.865047	-0.140935
O8	O	1.189620	0.628720	0.010590
O9	O	0.780061	1.134155	-0.364184
O10	O	1.155271	0.807382	-0.141799
O11	O	1.043365	0.797486	-0.002279
O12	O	1.020488	0.973716	-0.265134
O13	O	0.908582	0.963821	-0.125614
Zr14	Zr	1.243339	0.904296	0.059765
Zr15	Zr	1.218895	0.902134	-0.221117
Zr16	Zr	0.979741	0.880986	0.077048
Zr17	Zr	0.955296	1.069296	-0.203823
Zr18	Zr	1.243339	0.713824	0.059755
O19	O	1.189619	1.050945	0.010613
O20	O	1.154863	1.047871	-0.388765
O21	O	0.814817	1.017802	0.035188
O22	O	1.418575	0.768392	0.220122
O23	O	1.383819	0.765319	-0.179256
O24	O	1.043773	0.735249	0.244697
O25	O	1.383818	0.916718	-0.179247
O26	O	1.209049	0.901264	0.233869
O27	O	1.043772	0.886649	0.244705
O28	O	1.399145	0.918073	-0.003133
O29	O	0.989586	1.152683	-0.377922
O30	O	1.209050	0.630438	0.233854
O31	O	1.418575	0.648966	0.220116
O32	O	1.399146	0.647248	-0.003148
O33	O	0.799490	1.135873	-0.140920
O34	O	1.009015	1.154401	-0.154658
O35	O	1.178147	0.809404	0.121066
O36	O	1.290054	0.819300	-0.018454
O37	O	1.155271	0.985635	-0.141789
O38	O	1.043364	0.975739	-0.002269
C39	C	0.769597	0.862404	-0.050416
C40	C	0.657693	0.852508	-0.043078
C41	C	1.099318	0.653310	-0.072047
C42	C	1.099319	0.572450	-0.072052
C43	C	1.099315	0.276339	-0.072013
C44	C	1.099313	0.358726	-0.072021
C45	C	1.099316	0.424392	-0.072033
C46	C	1.099316	0.506783	-0.072039
C47	C	1.429039	0.920717	-0.093653
C48	C	1.540943	0.930612	-0.100990
C49	C	1.068742	0.888857	-0.423375
C50	C	1.058365	0.887939	-0.542617
C51	C	1.099317	1.129811	-0.072021
C52	C	1.099317	1.210671	-0.072016
C53	C	1.129894	0.894264	0.279307
C54	C	1.140271	0.895182	0.398548
C55	C	1.429039	0.682466	-0.093666
C56	C	1.540944	0.611501	-0.101008
C57	C	1.129894	0.656013	0.279293
C58	C	1.140272	0.576071	0.398531
C59	C	1.459615	0.685170	0.257675
C60	C	1.581897	0.615123	0.369575
C61	C	0.739021	1.097951	-0.401743
C62	C	0.616739	1.167998	-0.513643
C63	C	0.769597	1.100655	-0.050402
C64	C	0.657692	1.171619	-0.043061
C65	C	1.068742	1.127107	-0.423362
C66	C	1.058364	1.207050	-0.542599
C67	C	1.523139	0.571954	-0.168852
C68	C	1.628273	0.505285	-0.175776
C69	C	1.751211	0.478159	-0.114847
C70	C	1.769013	0.517713	-0.047000
C71	C	1.663880	0.584387	-0.040085
C72	C	1.215501	0.544751	0.518922
C73	C	1.225248	0.469646	0.630970
C74	C	1.159771	0.425859	0.622622
C75	C	1.084533	0.457186	0.502218
C76	C	1.074780	0.532294	0.390174
C77	C	1.697746	0.587394	0.349296
C78	C	1.812652	0.521589	0.454427
C79	C	1.811705	0.483508	0.579835
C80	C	1.695843	0.511243	0.600113
C81	C	1.580940	0.577052	0.494983
C82	C	0.500889	1.195735	-0.493364
C83	C	0.385984	1.261564	-0.598495
C84	C	0.386931	1.299649	-0.723904
C85	C	0.502793	1.271909	-0.744181
C86	C	0.617696	1.206087	-0.639051
C87	C	0.675496	1.211174	0.024772
C88	C	0.570359	1.277864	0.031665
C89	C	0.447421	1.304993	-0.029268
C90	C	0.429619	1.265435	-0.097109
C91	C	0.534754	1.198751	-0.104009
C92	C	1.123857	1.250814	-0.534210
C93	C	1.114131	1.325921	-0.646237
C94	C	1.038905	1.357266	-0.766651
C95	C	0.973411	1.313494	-0.775038
C96	C	0.983144	1.238384	-0.663012
H97	H	0.672035	0.778065	0.012113
O98	O	1.243704	0.904302	-0.547333
H99	H	1.235907	0.903609	-0.459023
H100	H	1.030990	1.418426	-0.857859
H101	H	0.329509	1.287534	-0.146718
O102	O	1.864593	0.406241	-0.122312
H103	H	1.916374	0.439979	-0.168897
H104	H	0.980299	0.881030	-0.583469
H105	H	1.185113	1.225305	-0.436173
H106	H	1.486615	0.599619	0.511513
H107	H	1.167465	1.361553	-0.639383
O108	O	1.390546	0.601214	-0.234587
H109	H	1.395848	0.562516	-0.282937
H110	H	1.613753	0.473087	-0.231023
H111	H	1.869123	0.495617	0.002604
O112	O	1.683091	0.627025	0.033116
H113	H	1.786244	0.596946	0.074330
O114	O	0.742658	1.176180	-0.660911
H115	H	0.797818	1.097247	-0.616499
O116	O	1.286122	0.591975	0.527942
H117	H	1.340053	0.557575	0.630491
O118	O	1.935645	0.412514	0.693217
H119	H	1.940753	0.442113	0.752393
H120	H	1.013524	0.557785	0.292149
O121	O	1.306422	0.435851	0.760824
H122	H	1.350332	0.478906	0.747792
O123	O	1.170318	0.344835	0.743473
H124	H	1.233650	0.330408	0.828585
H125	H	0.526598	1.005051	-0.156192
H126	H	0.584879	1.310062	0.086913
O127	O	1.013954	0.409931	0.493218
H128	H	1.033409	0.352429	0.591360
H129	H	1.906981	0.499015	0.437894
O130	O	0.808081	1.181942	0.090479
H131	H	0.827955	1.149103	0.195220
H132	H	1.698541	0.618391	0.247191
H133	H	1.695091	0.480228	0.702234
H134	H	0.500094	1.164729	-0.391259
H135	H	0.291656	1.284138	-0.581960
H136	H	0.293360	1.353245	-0.809496
H137	H	0.503549	1.302927	-0.846301
H138	H	0.361825	1.359292	-0.023640
O139	O	0.912503	1.191182	-0.672065
H140	H	0.845493	1.199836	-0.619640
O141	O	0.515546	1.156080	-0.177161
H142	H	0.412396	1.186145	-0.218355
O143	O	0.892261	1.347315	-0.904915
H144	H	0.896491	1.406904	-0.981392
