data_functionalizedCrystal
_audit_creation_method	'MofGen! by Chris Wilmer'
_symmetry_space_group_name_H-M	'P1'
_symmetry_Int_Tables_number	1
_symmetry_cell_setting	triclinic
loop_
_symmetry_equiv_pos_as_xyz
  x,y,z
_cell_length_a	10.908878
_cell_length_b	10.065918
_cell_length_c	8.597304
_cell_angle_alpha	107.280233
_cell_angle_beta	72.824569
_cell_angle_gamma	101.450495
loop_
_atom_site_label
_atom_site_type_symbol
_atom_site_fract_x
_atom_site_fract_y
_atom_site_fract_z
O1	O	1.713816	0.086499	-0.229396
O2	O	1.343681	0.101112	-0.105173
O3	O	1.531936	0.066255	-0.401555
O4	O	1.525561	0.121356	0.066986
O5	O	1.497239	-0.164567	-0.434158
O6	O	1.308985	-0.129710	-0.137776
O7	O	1.679119	-0.144323	-0.261998
Zn8	Zn	1.488543	-0.173665	-0.205064
Zn9	Zn	1.534257	0.130453	-0.162108
O10	O	1.490865	-0.109466	0.034383
C11	C	1.278840	-0.012934	-0.109866
C12	C	1.137326	-0.008866	-0.075293
N13	N	1.457353	-0.381218	-0.234383
C14	C	1.084530	-0.023700	-0.201441
C15	C	0.938268	-0.019497	-0.165712
C16	C	1.523397	-0.441698	-0.172307
C17	C	1.499403	-0.601520	-0.194890
C18	C	1.743961	-0.030275	-0.257306
C19	C	1.885477	-0.034333	-0.291878
C20	C	1.511971	-0.056096	-0.476898
C21	C	1.504158	-0.076776	-0.652817
N22	N	1.565457	0.338004	-0.132804
C23	C	1.510830	0.012888	0.109726
C24	C	1.518644	0.033576	0.285647
H25	H	1.147613	-0.039506	-0.335892
O26	O	1.062276	0.010072	0.085221
C27	C	1.139757	0.023012	0.195572
H28	H	1.244318	0.058866	0.135066
H29	H	1.103737	0.103378	0.318569
H30	H	1.133871	-0.082742	0.222314
O31	O	1.611956	-0.362449	-0.088731
C32	C	1.576548	-0.377735	0.077141
H33	H	1.511592	-0.480905	0.082449
H34	H	1.667139	-0.377707	0.117522
H35	H	1.522284	-0.286955	0.165578
H36	H	1.383051	-0.447760	-0.304253
H37	H	0.875190	-0.003678	-0.031250
O38	O	1.540371	0.165126	-0.616431
C39	C	1.435979	0.189361	-0.472386
H40	H	1.384099	0.084834	-0.447397
H41	H	1.473778	0.254947	-0.359226
H42	H	1.365647	0.247901	-0.494053
O43	O	1.654198	-0.582845	-0.049468
C44	C	1.710920	-0.670109	0.003904
H45	H	1.700761	-0.781689	-0.078454
H46	H	1.817719	-0.630018	-0.007315
H47	H	1.660148	-0.669185	0.140633
O48	O	0.960874	-0.053004	-0.452197
C49	C	1.056381	0.063315	-0.462903
H50	H	1.072757	0.117815	-0.332741
H51	H	1.150478	0.026346	-0.552455
H52	H	1.023141	0.139840	-0.512171
H53	H	1.425096	-0.668058	-0.264764
H54	H	1.485761	-0.187088	-0.734721
