data_functionalizedCrystal
_audit_creation_method	'MofGen! by Chris Wilmer'
_symmetry_space_group_name_H-M	'P1'
_symmetry_Int_Tables_number	1
_symmetry_cell_setting	triclinic
loop_
_symmetry_equiv_pos_as_xyz
  x,y,z
_cell_length_a	13.897449
_cell_length_b	16.625546
_cell_length_c	13.897441
_cell_angle_alpha	89.967525
_cell_angle_beta	89.981404
_cell_angle_gamma	90.023748
loop_
_atom_site_label
_atom_site_type_symbol
_atom_site_fract_x
_atom_site_fract_y
_atom_site_fract_z
Zn1	Zn	1.474650	-0.320956	-0.545362
Zn2	Zn	1.474537	-0.455804	-0.384055
Zn3	Zn	1.313345	-0.320992	-0.384080
Zn4	Zn	1.313308	-0.455753	-0.545308
O5	O	1.393960	-0.388376	-0.464702
O6	O	1.609617	-0.338850	-0.523977
O7	O	1.453123	-0.437957	-0.249077
O8	O	1.334806	-0.208155	-0.405508
O9	O	1.609533	-0.437922	-0.405465
O10	O	1.453316	-0.208129	-0.524001
O11	O	1.334696	-0.338912	-0.249095
O12	O	1.178359	-0.338862	-0.405455
O13	O	1.334742	-0.437836	-0.680297
O14	O	1.178331	-0.437871	-0.523909
O15	O	1.453279	-0.338801	-0.680337
O16	O	1.453086	-0.568630	-0.405413
O17	O	1.334632	-0.568593	-0.523884
C18	C	1.143346	-0.388366	-0.464680
C19	C	1.036132	-0.388381	-0.464693
C20	C	0.839837	-0.388383	-0.464718
C21	C	0.949069	-0.388379	-0.464702
C22	C	1.393869	-0.597867	-0.464661
C23	C	1.393918	-0.687488	-0.464676
C24	C	1.394086	-1.015664	-0.464777
C25	C	1.394036	-0.924356	-0.464751
C26	C	1.394001	-0.851579	-0.464726
C27	C	1.393953	-0.760265	-0.464702
C28	C	1.645553	-0.388388	-0.464724
C29	C	1.752767	-0.388393	-0.464734
C30	C	1.394019	-0.388309	-0.716295
C31	C	1.394044	-0.388280	-0.823509
C32	C	1.394078	-0.178068	-0.464763
C33	C	1.394128	-0.088446	-0.464789
C34	C	1.394064	-0.388257	-0.910578
C35	C	1.394092	-0.388221	-1.019811
C36	C	1.393957	-0.388386	-0.214087
C37	C	1.394118	-0.388187	-0.106874
