data_functionalizedCrystal
_audit_creation_method	'MofGen! by Chris Wilmer'
_symmetry_space_group_name_H-M	'P1'
_symmetry_Int_Tables_number	1
_symmetry_cell_setting	triclinic
loop_
_symmetry_equiv_pos_as_xyz
  x,y,z
_cell_length_a	15.455313
_cell_length_b	16.109301
_cell_length_c	16.109298
_cell_angle_alpha	96.539166
_cell_angle_beta	87.330355
_cell_angle_gamma	87.322220
loop_
_atom_site_label
_atom_site_type_symbol
_atom_site_fract_x
_atom_site_fract_y
_atom_site_fract_z
O1	O	0.072066	-1.106773	0.103233
O2	O	0.572066	-0.606773	0.603233
O3	O	0.072078	-0.864711	0.116532
O4	O	0.572078	-0.364711	0.616532
O5	O	0.072078	-0.992393	-0.011149
O6	O	0.572078	-0.492393	0.488851
O7	O	0.072066	-0.979090	0.230914
O8	O	0.572066	-0.479090	0.730914
O9	O	-0.072184	-0.985092	-0.003878
O10	O	0.427816	-0.485092	0.496122
O11	O	-0.072184	-0.857410	0.123803
O12	O	0.427816	-0.357410	0.623803
O13	O	-0.072196	-1.099471	0.110504
O14	O	0.427804	-0.599471	0.610504
Cu15	Cu	-0.085362	-0.977774	0.117818
Cu16	Cu	0.414638	-0.477774	0.617818
Cu17	Cu	0.085244	-0.986408	0.109218
Cu18	Cu	0.585244	-0.486408	0.609218
O19	O	-0.072196	-0.971789	0.238185
O20	O	0.427804	-0.471789	0.738185
C21	C	-0.000051	-0.830086	0.119629
C22	C	0.499949	-0.330086	0.619629
C23	C	-0.000046	-0.737791	0.118013
C24	C	0.499954	-0.237791	0.618013
N25	N	-0.205358	-0.971707	0.123865
N26	N	0.294642	-0.471707	0.623865
C27	C	-0.000050	-0.988204	-0.038489
C28	C	0.499950	-0.488204	0.461511
C29	C	-0.000040	-0.986591	-0.130785
C30	C	0.499960	-0.486591	0.369215
C31	C	-0.250752	-1.025969	0.069642
C32	C	0.249248	-0.525969	0.569642
C33	C	-0.341560	-1.021389	0.074223
C34	C	0.158440	-0.521389	0.574223
C35	C	-0.386972	-0.962549	0.133032
C36	C	0.113028	-0.462549	0.633032
C37	C	-0.341571	-0.908280	0.187258
C38	C	0.158429	-0.408280	0.687258
C39	C	-0.250765	-0.912857	0.182672
C40	C	0.249235	-0.412857	0.682672
C41	C	-0.658553	-0.942791	0.152804
C42	C	-0.158553	-0.442791	0.652804
C43	C	-0.749366	-0.938220	0.157388
C44	C	-0.249366	-0.438220	0.657388
C45	C	-0.749349	-1.051327	0.044351
C46	C	-0.249349	-0.551327	0.544351
C47	C	-0.658541	-1.055903	0.039774
C48	C	-0.158541	-0.555903	0.539774
C49	C	-0.613148	-1.001632	0.093996
C50	C	-0.113148	-0.501632	0.593996
N51	N	-0.479792	-0.957867	0.137718
N52	N	0.020208	-0.457867	0.637718
N53	N	-0.520329	-1.006310	0.089306
N54	N	-0.020329	-0.506310	0.589306
N55	N	0.205240	-0.992482	0.103164
N56	N	0.705240	-0.492482	0.603164
C57	C	-0.000065	-1.134097	0.107407
C58	C	0.499935	-0.634097	0.607407
C59	C	-0.000065	-1.226392	0.109022
C60	C	0.499935	-0.726392	0.609022
C61	C	-0.000059	-0.515517	0.190022
C62	C	0.499941	-0.015517	0.690022
C63	C	-0.000065	-0.428796	0.188498
C64	C	0.499935	0.071204	0.688498
C65	C	-0.000054	-0.448673	0.037008
C66	C	0.499946	0.051327	0.537008
C67	C	-0.000055	-0.535391	0.038533
C68	C	0.499945	-0.035391	0.538533
C69	C	-0.000053	-0.568811	0.115042
C70	C	0.499947	-0.068811	0.615042
C71	C	-0.000058	-0.395372	0.111993
C72	C	0.499942	0.104628	0.611993
C73	C	-0.000064	-0.301345	0.110341
C74	C	0.499936	0.198655	0.610341
C75	C	-0.000049	-0.662843	0.116695
C76	C	0.499951	-0.162843	0.616695
C77	C	0.078580	-0.985302	-0.433816
C78	C	0.578580	-0.485302	0.066184
C79	C	0.078586	-0.986831	-0.347096
C80	C	0.578586	-0.486831	0.152904
C81	C	-0.078697	-0.978882	-0.339154
C82	C	0.421303	-0.478882	0.160846
C83	C	-0.078702	-0.977360	-0.425873
C84	C	0.421298	-0.477360	0.074127
C85	C	-0.000061	-0.980566	-0.473201
C86	C	0.499939	-0.480566	0.026799
C87	C	-0.000050	-0.983616	-0.299763
C88	C	0.499950	-0.483616	0.200237
C89	C	-0.000044	-0.985273	-0.205738
C90	C	0.499956	-0.485273	0.294262
C91	C	-0.000067	-0.978911	-0.567233
C92	C	0.499933	-0.478911	-0.067233
C93	C	-0.000067	-0.975978	0.265524
C94	C	0.499933	-0.475978	0.765524
C95	C	-0.000071	-0.977592	0.357820
C96	C	0.499929	-0.477592	0.857820
H97	H	-0.213784	-1.073886	0.021757
H98	H	0.286216	-0.573886	0.521757
Br99	Br	-0.185418	-0.974528	-0.274918
Br100	Br	0.314582	-0.474528	0.225082
H101	H	-0.142744	-0.973505	-0.457942
H102	H	0.357256	-0.473505	0.042058
H103	H	-0.000072	-0.385407	0.249554
H104	H	0.499928	0.114593	0.749554
Br105	Br	-0.403170	-1.095029	0.000630
Br106	Br	0.096830	-0.595029	0.500630
Br107	Br	-0.596954	-0.869141	0.226391
Br108	Br	-0.096954	-0.369141	0.726391
Br109	Br	-0.596909	-1.135761	-0.040036
Br110	Br	-0.096909	-0.635761	0.459964
H111	H	-0.000061	-0.421451	-0.025282
H112	H	0.499939	0.078549	0.474718
H113	H	-0.786316	-1.095512	0.000204
H114	H	-0.286316	-0.595512	0.500204
Br115	Br	-0.000060	-0.560870	0.293854
Br116	Br	0.499940	-0.060870	0.793854
H117	H	-0.378551	-0.860367	0.235139
H118	H	0.121449	-0.360367	0.735139
H119	H	-0.000052	-0.578786	-0.022528
H120	H	0.499948	-0.078786	0.477472
H121	H	-0.786336	-0.890302	0.205280
H122	H	-0.286336	-0.390302	0.705280
H123	H	-0.213806	-0.868670	0.226826
H124	H	0.286194	-0.368670	0.726826
Br125	Br	0.185306	-0.989656	-0.498045
Br126	Br	0.685306	-0.489656	0.001955
Br127	Br	0.185317	-0.993265	-0.293649
Br128	Br	0.685317	-0.493265	0.206351
