data_functionalizedCrystal
_audit_creation_method	'MofGen! by Chris Wilmer'
_symmetry_space_group_name_H-M	'P1'
_symmetry_Int_Tables_number	1
_symmetry_cell_setting	triclinic
loop_
_symmetry_equiv_pos_as_xyz
  x,y,z
_cell_length_a	15.538191
_cell_length_b	17.038272
_cell_length_c	14.750779
_cell_angle_alpha	76.426773
_cell_angle_beta	97.572172
_cell_angle_gamma	69.191825
loop_
_atom_site_label
_atom_site_type_symbol
_atom_site_fract_x
_atom_site_fract_y
_atom_site_fract_z
O1	O	1.211348	-0.226027	-0.079834
O2	O	0.944163	-0.137757	-0.079834
O3	O	1.076169	-0.295259	-0.079826
O4	O	1.079341	-0.068524	-0.079842
O5	O	1.113486	-0.339779	0.079826
O6	O	0.981480	-0.182277	0.079818
O7	O	1.248665	-0.270547	0.079819
Zn8	Zn	1.120997	-0.233481	0.105167
Zn9	Zn	1.071830	-0.174823	-0.105182
O10	O	1.116658	-0.113045	0.079811
C11	C	0.928466	-0.150782	-0.000008
C12	C	0.826097	-0.123272	-0.000008
C13	C	0.516405	-0.396569	-0.000005
C14	C	0.420212	-0.370700	-0.000007
C15	C	0.409427	-0.225194	-0.000017
C16	C	0.505622	-0.251052	-0.000010
C17	C	0.559104	-0.336740	-0.000005
C18	C	0.548321	-0.191224	-0.000010
C19	C	0.644507	-0.217079	-0.000007
C20	C	0.697994	-0.302762	-0.000005
C21	C	0.655290	-0.362595	-0.000003
C22	C	0.494837	-0.105535	-0.000021
C23	C	0.537536	-0.045706	-0.000021
C24	C	0.633725	-0.071563	-0.000012
C25	C	0.687212	-0.157246	-0.000010
C26	C	0.676429	-0.011730	-0.000015
C27	C	0.772615	-0.037585	-0.000013
C28	C	0.783398	-0.183101	-0.000008
C29	C	1.091939	-0.345828	-0.000000
C30	C	1.083321	-0.430177	-0.000001
C31	C	1.162445	-0.502729	0.000001
C32	C	1.154339	-0.581979	-0.000008
C33	C	1.067111	-0.588678	-0.000012
C34	C	0.987981	-0.516117	-0.000016
C35	C	0.996085	-0.436867	-0.000014
C36	C	1.038479	-0.826313	-0.000025
C37	C	1.030381	-0.905573	-0.000025
C38	C	1.196740	-0.971428	-0.000019
C39	C	1.204838	-0.892175	-0.000011
C40	C	1.125706	-0.819621	-0.000020
C41	C	1.058825	-0.669684	-0.000018
C42	C	1.133992	-0.738614	-0.000020
C43	C	1.264361	-0.257522	-0.000009
C44	C	1.366729	-0.285029	-0.000016
C45	C	1.100888	-0.062475	-0.000017
C46	C	1.109505	0.021876	-0.000023
N47	N	1.154558	-0.273515	0.248725
N48	N	1.038276	-0.134797	-0.248740
C49	C	0.944540	-0.023020	0.600530
C50	C	0.968065	-0.051070	0.701031
C51	C	1.084986	-0.190507	0.701000
C52	C	1.061467	-0.162470	0.600498
C53	C	0.991244	-0.078725	0.550271
C54	C	1.108172	-0.218176	0.550238
C55	C	1.084658	-0.190139	0.449744
C56	C	1.014440	-0.106396	0.399510
C57	C	0.967731	-0.050688	0.449777
C58	C	1.178399	-0.301918	0.600467
C59	C	1.225103	-0.357624	0.550208
C60	C	1.201585	-0.329589	0.449712
C61	C	1.131367	-0.245847	0.399478
C62	C	1.248294	-0.385297	0.399446
C63	C	1.224781	-0.357260	0.298952
C64	C	1.107854	-0.217810	0.298984
H65	H	0.493977	0.024062	-0.000029
H66	H	1.233477	-0.497286	0.000009
H67	H	0.987804	-0.675148	-0.000019
H68	H	0.930027	-0.005700	0.741947
C69	C	0.668647	-0.500816	0.000015
C70	C	0.575205	-0.490762	0.000011
H71	H	0.704947	-0.558966	0.000031
H72	H	0.669175	-0.459641	-0.055661
H73	H	0.695193	-0.490674	0.055688
H74	H	0.548656	-0.500898	-0.055666
H75	H	0.574672	-0.531950	0.055693
H76	H	0.910542	0.017502	0.408880
C77	C	1.260905	-0.732206	0.082054
C78	C	1.241310	-0.661733	-0.000009
H79	H	1.314595	-0.781444	0.082046
H80	H	1.273627	-0.715453	0.137722
H81	H	1.207786	-0.747523	0.082038
H82	H	1.294427	-0.646410	0.000010
H83	H	1.228594	-0.678488	-0.055692
H84	H	0.416516	-0.084486	-0.000026
H85	H	1.197543	-0.324741	0.682296
H86	H	0.698839	-0.432372	0.000007
H87	H	1.275868	-0.886730	-0.000008
H88	H	1.050665	-0.149620	0.258087
H89	H	0.995300	-0.083568	0.317682
C90	C	0.773868	0.101370	-0.082077
C91	C	0.819560	0.028175	-0.000008
H92	H	0.802848	0.141969	-0.082071
H93	H	0.778838	0.082762	-0.137741
H94	H	0.708931	0.129027	-0.082068
H95	H	0.884496	0.000514	-0.000021
H96	H	0.814599	0.046783	0.055670
H97	H	0.776312	-0.323808	-0.000017
H98	H	1.305477	-0.453480	0.440354
H99	H	1.261164	-1.030509	-0.000013
C100	C	0.837606	-0.333446	-0.082086
C101	C	0.909110	-0.357115	-0.000014
H102	H	0.783907	-0.284212	-0.082084
H103	H	0.860102	-0.318461	-0.137748
H104	H	0.820305	-0.381610	-0.082075
H105	H	0.926415	-0.308952	-0.000029
H106	H	0.886610	-0.372096	0.055663
C107	C	1.342710	-0.497920	0.309006
C108	C	1.276113	-0.418492	0.243699
H109	H	1.374397	-0.535723	0.274893
H110	H	1.387559	-0.486420	0.348191
H111	H	1.311332	-0.525492	0.348214
H112	H	1.307491	-0.390917	0.204495
H113	H	1.231257	-0.429992	0.204497
C114	C	0.831312	0.112014	0.610644
C115	C	0.867348	0.069035	0.545310
H116	H	0.783665	0.168844	0.576551
H117	H	0.804804	0.078642	0.649844
H118	H	0.881029	0.117716	0.649835
H119	H	0.817632	0.063327	0.506124
H120	H	0.893855	0.102415	0.506093
H121	H	1.282282	-0.425809	0.591114
C122	C	0.656796	0.097385	0.082038
C123	C	0.617637	0.082459	-0.000029
H124	H	0.620503	0.155537	0.082023
H125	H	0.656246	0.056211	0.137703
H126	H	0.720193	0.090543	0.082036
H127	H	0.554242	0.089294	-0.000023
H128	H	0.618177	0.123645	-0.055709
H129	H	0.959349	-0.911023	-0.000012
C130	C	0.380610	-0.463887	-0.082074
C131	C	0.373276	-0.436470	-0.000005
H132	H	0.351637	-0.504492	-0.082071
H133	H	0.349618	-0.414230	-0.137738
H134	H	0.445552	-0.491546	-0.082062
H135	H	0.308332	-0.408805	-0.000022
H136	H	0.404265	-0.486136	0.055673
C137	C	0.351435	-0.070314	-0.082094
C138	C	0.350633	-0.131009	-0.000023
H139	H	0.315134	-0.012169	-0.082097
H140	H	0.414825	-0.077151	-0.082082
H141	H	0.324874	-0.080454	-0.137762
H142	H	0.377200	-0.120873	0.055646
H143	H	0.287230	-0.124169	-0.000026
C144	C	1.248064	-0.289212	0.731900
C145	C	1.162165	-0.282563	0.756212
H146	H	1.295709	-0.346045	0.765988
H147	H	1.240737	-0.280485	0.664864
H148	H	1.266008	-0.245623	0.748378
H149	H	1.144218	-0.326148	0.739728
H150	H	1.169492	-0.291299	0.823263
H151	H	0.826947	-0.252878	0.000001
H152	H	0.974043	-0.767247	-0.000032
H153	H	0.916956	-0.521575	-0.000025
H154	H	1.205008	-0.733150	-0.000039
