data_functionalizedCrystal
_audit_creation_method	'MofGen! by Chris Wilmer'
_symmetry_space_group_name_H-M	'P1'
_symmetry_Int_Tables_number	1
_symmetry_cell_setting	triclinic
loop_
_symmetry_equiv_pos_as_xyz
  x,y,z
_cell_length_a	13.031981
_cell_length_b	13.032831
_cell_length_c	13.032268
_cell_angle_alpha	89.113023
_cell_angle_beta	89.068348
_cell_angle_gamma	90.897759
loop_
_atom_site_label
_atom_site_type_symbol
_atom_site_fract_x
_atom_site_fract_y
_atom_site_fract_z
Zn1	Zn	0.684142	1.423902	0.684409
Zn2	Zn	0.835076	1.429191	0.491156
Zn3	Zn	0.641823	1.278373	0.496615
Zn4	Zn	0.829599	1.236036	0.642053
O5	O	0.747660	1.341876	0.578558
O6	O	0.724167	1.566344	0.674215
O7	O	0.794022	1.429117	0.350137
O8	O	0.505686	1.313183	0.541537
O9	O	0.835057	1.570230	0.532233
O10	O	0.536778	1.420102	0.679509
O11	O	0.652040	1.318311	0.354147
O12	O	0.646729	1.131017	0.500466
O13	O	0.825722	1.241025	0.789415
O14	O	0.784687	1.099912	0.607319
O15	O	0.718856	1.379049	0.820534
O16	O	0.976100	1.388064	0.491162
O17	O	0.972076	1.246154	0.602026
C18	C	0.710522	1.078713	0.549889
C19	C	0.694662	0.966125	0.537645
C20	C	1.010849	1.313113	0.541431
C21	C	1.123459	1.300896	0.525591
C22	C	0.483450	1.370775	0.615856
C23	C	0.370859	1.383090	0.631750
C24	C	0.755938	0.900569	0.584949
C25	C	0.739547	0.784203	0.572295
C26	C	1.188965	1.348303	0.586851
C27	C	1.305354	1.335677	0.570482
C28	C	0.776399	1.304725	0.842755
C29	C	0.788645	1.288893	0.955340
C30	C	0.784944	1.606066	0.607340
C31	C	0.800832	1.718648	0.619605
C32	C	0.718969	1.378948	0.315406
C33	C	0.706464	1.395007	0.202883
C34	C	0.741230	1.350126	1.020931
C35	C	0.753886	1.333765	1.137293
H36	H	0.820531	0.930593	0.634819
H37	H	1.158884	1.398232	0.651421
H38	H	1.340782	1.433023	0.696324
H39	H	0.656490	1.459544	1.172898
C40	C	0.652273	0.743651	0.504923
N41	N	0.586540	0.713106	0.454178
C42	C	0.607392	0.925568	0.470276
N43	N	0.541660	0.895023	0.419532
C44	C	0.821386	1.246569	1.177801
N45	N	0.872226	1.180893	1.208313
C46	C	0.888105	0.759197	0.686979
N47	N	0.953840	0.789739	0.737722
H48	H	1.335432	1.285735	0.505916
C49	C	1.164096	1.233464	0.438342
N50	N	1.194702	1.182684	0.372615
H51	H	0.691262	1.414660	0.990939
C52	C	0.856142	1.201701	0.995852
N53	N	0.906982	1.136026	1.026364
