data_functionalizedCrystal
_audit_creation_method	'MofGen! by Chris Wilmer'
_symmetry_space_group_name_H-M	'P1'
_symmetry_Int_Tables_number	1
_symmetry_cell_setting	triclinic
loop_
_symmetry_equiv_pos_as_xyz
  x,y,z
_cell_length_a	14.044220
_cell_length_b	13.101039
_cell_length_c	11.026607
_cell_angle_alpha	94.101887
_cell_angle_beta	79.112553
_cell_angle_gamma	93.659868
loop_
_atom_site_label
_atom_site_type_symbol
_atom_site_fract_x
_atom_site_fract_y
_atom_site_fract_z
O1	O	1.312709	0.085096	-0.291828
O2	O	1.034906	0.085122	-0.281070
O3	O	1.150783	0.085107	-0.107304
O4	O	1.196832	0.085110	-0.465594
O5	O	1.142473	-0.085321	-0.119794
O6	O	1.026596	-0.085307	-0.293560
O7	O	1.304399	-0.085333	-0.304318
Zn8	Zn	1.164178	-0.112379	-0.300922
Zn9	Zn	1.175127	0.112168	-0.284466
O10	O	1.188522	-0.085318	-0.478084
C11	C	0.994633	-0.000089	-0.282607
C12	C	0.887012	-0.000079	-0.268562
C13	C	0.689968	-0.000099	-0.242889
C14	C	0.649331	-0.000103	-0.342493
C15	C	0.539689	-0.000114	-0.328208
C16	C	0.799620	-0.000088	-0.257172
N17	N	1.156712	-0.265627	-0.312153
C18	C	1.146557	-0.474668	-0.327445
C19	C	1.192751	-0.525550	-0.257938
C20	C	1.187101	-0.641867	-0.266447
C21	C	1.152207	-0.358340	-0.318938
C22	C	1.344672	-0.000120	-0.302781
C23	C	1.452294	-0.000123	-0.316825
C24	C	1.138133	-0.000105	-0.067418
C25	C	1.112809	-0.000099	0.070038
N26	N	1.182598	0.265416	-0.273226
C27	C	1.201172	-0.000104	-0.517970
C28	C	1.226496	-0.000103	-0.655425
C29	C	1.182733	-0.000104	0.136274
C30	C	1.156562	-0.000098	0.278341
H31	H	0.696883	-0.000097	-0.438496
C32	C	0.626408	-0.000045	-0.114986
C33	C	0.528726	-0.000026	-0.126067
C34	C	0.470136	0.000042	-0.008270
H35	H	0.636739	-0.059456	-0.075580
H36	H	0.642587	0.059416	-0.066973
H37	H	0.512552	-0.059481	-0.174061
H38	H	0.518365	0.059380	-0.165452
H39	H	0.486315	0.059503	0.039743
H40	H	0.480474	-0.059370	0.031127
H41	H	0.403852	0.000064	-0.015772
C42	C	1.332192	0.000095	0.280052
C43	C	1.382281	0.087785	0.320928
C44	C	1.479644	0.088009	0.261505
H45	H	1.360664	-0.059271	0.298910
H46	H	1.335787	0.000149	0.193148
H47	H	1.378691	0.087723	0.407812
H48	H	1.353838	0.147165	0.302070
H49	H	1.483239	0.088063	0.174602
H50	H	1.508106	0.028640	0.280367
H51	H	1.513639	0.147510	0.289223
C52	C	1.050949	-0.000136	0.343177
C53	C	1.045985	-0.000156	0.471194
C54	C	0.948714	-0.000204	0.530960
H55	H	1.022503	0.059282	0.324421
H56	H	1.016781	-0.059590	0.315647
H57	H	1.080139	0.059292	0.498714
H58	H	1.074411	-0.059570	0.489986
H59	H	0.914545	-0.059658	0.503430
H60	H	0.920276	0.059215	0.512194
H61	H	0.945332	-0.000227	0.617824
C62	C	1.007141	0.000126	0.134602
C63	C	0.965606	0.087824	0.106569
C64	C	0.868268	0.088074	0.166033
H65	H	0.972875	-0.059234	0.107055
H66	H	1.003555	0.000185	0.221513
H67	H	0.969185	0.087756	0.019677
H68	H	0.999844	0.147198	0.134119
H69	H	0.864682	0.088133	0.252944
H70	H	0.834011	0.028709	0.138481
H71	H	0.840077	0.147580	0.147031
C72	C	1.250884	-0.466976	-0.169907
C73	C	1.244868	-0.361578	-0.178703
C74	C	1.298302	-0.307585	-0.097516
H75	H	1.225235	-0.484498	-0.087578
H76	H	1.316871	-0.484312	-0.191214
H77	H	1.178894	-0.344249	-0.157389
H78	H	1.270523	-0.344025	-0.261014
H79	H	1.364289	-0.324920	-0.118823
H80	H	1.272649	-0.325115	-0.015193
H81	H	1.294235	-0.236067	-0.103481
C82	C	1.288335	-0.000168	0.071426
C83	C	1.293297	-0.000197	-0.056595
C84	C	1.390563	-0.000270	-0.116370
H85	H	1.322579	0.059244	0.098882
H86	H	1.316702	-0.059628	0.090250
H87	H	1.264944	0.059257	-0.075410
H88	H	1.259075	-0.059605	-0.084086
H89	H	1.418930	-0.059730	-0.097545
H90	H	1.424798	0.059144	-0.088904
H91	H	1.393942	-0.000299	-0.203238
H92	H	1.102769	-0.518460	-0.393337
