data_functionalizedCrystal
_audit_creation_method	'MofGen! by Chris Wilmer'
_symmetry_space_group_name_H-M	'P1'
_symmetry_Int_Tables_number	1
_symmetry_cell_setting	triclinic
loop_
_symmetry_equiv_pos_as_xyz
  x,y,z
_cell_length_a	25.639243
_cell_length_b	25.639239
_cell_length_c	25.639233
_cell_angle_alpha	89.981253
_cell_angle_beta	90.015962
_cell_angle_gamma	89.958590
loop_
_atom_site_label
_atom_site_type_symbol
_atom_site_fract_x
_atom_site_fract_y
_atom_site_fract_z
Zn1	Zn	0.799225	0.208176	0.295656
Zn2	Zn	1.299225	0.708176	0.795656
Zn3	Zn	0.799149	0.295595	0.208220
Zn4	Zn	1.299149	0.795595	0.708220
Zn5	Zn	0.711801	0.208180	0.208229
Zn6	Zn	1.211801	0.708180	0.708229
Zn7	Zn	0.711746	0.295587	0.295619
Zn8	Zn	1.211746	0.795587	0.795619
O9	O	0.755480	0.251885	0.251931
O10	O	1.255480	0.751885	0.751931
O11	O	0.872380	0.219775	0.284069
O12	O	1.372380	0.719775	0.784069
O13	O	0.787553	0.284004	0.135056
O14	O	1.287553	0.784004	0.635056
O15	O	0.723453	0.135014	0.219846
O16	O	1.223453	0.635014	0.719846
O17	O	0.872324	0.284001	0.219830
O18	O	1.372324	0.784001	0.719830
O19	O	0.787683	0.135012	0.284077
O20	O	1.287683	0.635012	0.784077
O21	O	0.723379	0.219781	0.135063
O22	O	1.223379	0.719781	0.635063
O23	O	0.638629	0.219772	0.219810
O24	O	1.138629	0.719772	0.719810
O25	O	0.723360	0.283987	0.368789
O26	O	1.223360	0.783987	0.868789
O27	O	0.638589	0.283990	0.284016
O28	O	1.138589	0.783990	0.784016
O29	O	0.787630	0.219767	0.368816
O30	O	1.287630	0.719767	0.868816
O31	O	0.787499	0.368759	0.219795
O32	O	1.287499	0.868759	0.719795
O33	O	0.723286	0.368753	0.284007
O34	O	1.223286	0.868753	0.784007
C35	C	0.619638	0.251881	0.251910
C36	C	1.119638	0.751881	0.751910
C37	C	0.561524	0.251892	0.251914
C38	C	1.061524	0.751892	0.751914
C39	C	0.201184	0.218495	0.285436
C40	C	0.701184	0.718495	0.785436
C41	C	0.146580	0.218494	0.285439
C42	C	0.646580	0.718494	0.785439
O43	O	0.118363	0.190088	0.313915
O44	O	0.618363	0.690088	0.813915
N45	N	0.119241	0.251883	0.251945
N46	N	0.619241	0.751883	0.751945
C47	C	0.146510	0.285271	0.218443
C48	C	0.646510	0.785271	0.718443
O49	O	0.118242	0.313670	0.189954
O50	O	0.618242	0.813670	0.689954
C51	C	0.201113	0.285268	0.218437
C52	C	0.701113	0.785268	0.718437
C53	C	0.228449	0.251881	0.251937
C54	C	0.728449	0.751881	0.751937
C55	C	0.228520	0.185109	0.318932
C56	C	0.728520	0.685109	0.818932
C57	C	0.283121	0.185111	0.318930
C58	C	0.783121	0.685111	0.818930
C59	C	0.310385	0.218497	0.285431
C60	C	0.810385	0.718497	0.785431
C61	C	0.283049	0.251882	0.251934
C62	C	0.783049	0.751882	0.751934
C63	C	0.228380	0.318653	0.184932
C64	C	0.728380	0.818653	0.684932
C65	C	0.282987	0.318647	0.184929
C66	C	0.782987	0.818647	0.684929
C67	C	0.310323	0.285260	0.218429
C68	C	0.810323	0.785260	0.718429
C69	C	0.364915	0.285270	0.218432
C70	C	0.864915	0.785270	0.718432
N71	N	0.392253	0.251881	0.251926
N72	N	0.892253	0.751881	0.751926
C73	C	0.364989	0.218494	0.285425
C74	C	0.864989	0.718494	0.785425
C75	C	0.031839	0.285273	0.218456
C76	C	0.531839	0.785273	0.718456
C77	C	-0.022763	0.285279	0.218464
C78	C	0.477237	0.785279	0.718464
C79	C	-0.022689	0.218501	0.285460
C80	C	0.477311	0.718501	0.785460
C81	C	0.031914	0.218499	0.285454
C82	C	0.531914	0.718499	0.785454
C83	C	0.059178	0.251884	0.251950
C84	C	0.559178	0.751884	0.751950
C85	C	0.479654	0.218500	0.285417
C86	C	0.979654	0.718500	0.785417
C87	C	0.534259	0.218506	0.285413
C88	C	1.034259	0.718506	0.785413
C89	C	0.534180	0.285281	0.218415
C90	C	1.034180	0.785281	0.718415
C91	C	0.479580	0.285278	0.218421
C92	C	0.979580	0.785278	0.718421
C93	C	0.452318	0.251883	0.251924
C94	C	0.952318	0.751883	0.751924
O95	O	0.393166	0.313659	0.189969
O96	O	0.893166	0.813659	0.689969
O97	O	0.393263	0.190095	0.313904
O98	O	0.893263	0.690095	0.813904
C99	C	0.755392	0.387727	0.251907
C100	C	1.255392	0.887727	0.751907
C101	C	0.755403	0.445841	0.251914
C102	C	1.255403	0.945841	0.751914
C103	C	0.755497	0.251875	0.388304
C104	C	1.255497	0.751875	0.888304
C105	C	0.755504	0.251871	0.446418
C106	C	1.255504	0.751871	0.946418
C107	C	0.891853	0.251888	0.251952
C108	C	1.391853	0.751888	0.751952
C109	C	0.949967	0.251890	0.251961
C110	C	1.449967	0.751890	0.751961
C111	C	0.755583	0.115512	0.251967
C112	C	1.255583	0.615512	0.751967
C113	C	0.755627	0.057397	0.251982
C114	C	1.255627	0.557397	0.751982
C115	C	0.789004	0.806195	0.218553
C116	C	1.289004	1.306195	0.718553
C117	C	0.789024	0.860799	0.218560
C118	C	1.289024	1.360799	0.718560
O119	O	0.817502	0.889028	0.190169
O120	O	1.317502	1.389028	0.690169
N121	N	0.755572	0.888124	0.251966
N122	N	1.255572	1.388124	0.751966
C123	C	0.722102	0.860841	0.285371
C124	C	1.222102	1.360841	0.785371
O125	O	0.693651	0.889096	0.313786
O126	O	1.193651	1.389096	0.813786
C127	C	0.722085	0.806238	0.285366
C128	C	1.222085	1.306238	0.785366
C129	C	0.755535	0.778916	0.251954
C130	C	1.255535	1.278916	0.751954
C131	C	0.822452	0.778873	0.185144
C132	C	1.322452	1.278873	0.685144
C133	C	0.822431	0.724273	0.185137
C134	C	1.322431	1.224273	0.685137
C135	C	0.788962	0.696994	0.218538
C136	C	1.288962	1.196994	0.718538
C137	C	0.755514	0.724315	0.251946
C138	C	1.255514	1.224315	0.751946
C139	C	0.688617	0.778956	0.318773
C140	C	1.188617	1.278956	0.818773
C141	C	0.688603	0.724349	0.318765
C142	C	1.188603	1.224349	0.818765
C143	C	0.722053	0.697027	0.285354
C144	C	1.222053	1.197027	0.785354
C145	C	0.722024	0.642436	0.285340
C146	C	1.222024	1.142436	0.785340
N147	N	0.755475	0.615112	0.251934
N148	N	1.255475	1.115112	0.751934
C149	C	0.788944	0.642390	0.218533
C150	C	1.288944	1.142390	0.718533
C151	C	0.722141	0.975511	0.285379
C152	C	1.222141	1.475511	0.785379
C153	C	0.722155	1.030114	0.285381
C154	C	1.222155	1.530114	0.785381
C155	C	0.789078	1.030068	0.218571
C156	C	1.289078	1.530068	0.718571
C157	C	0.789061	0.975465	0.218566
C158	C	1.289061	1.475465	0.718566
C159	C	0.755593	0.948187	0.251973
C160	C	1.255593	1.448187	0.751973
C161	C	0.788897	0.527725	0.218519
C162	C	1.288897	1.027725	0.718519
C163	C	0.788872	0.473120	0.218513
C164	C	1.288872	0.973120	0.718513
C165	C	0.721951	0.473170	0.285325
C166	C	1.221951	0.973170	0.785325
C167	C	0.721974	0.527771	0.285329
C168	C	1.221974	1.027771	0.785329
C169	C	0.755452	0.555047	0.251925
C170	C	1.255452	1.055047	0.751925
O171	O	0.693562	0.614173	0.313718
O172	O	1.193562	1.114173	0.813718
O173	O	0.817396	0.614128	0.190127
O174	O	1.317396	1.114128	0.690127
C175	C	0.755494	0.251856	0.116089
C176	C	1.255494	0.751856	0.616089
C177	C	0.755588	0.251713	0.057975
C178	C	1.255588	0.751713	0.557975
C179	C	0.789012	0.218333	0.806801
C180	C	1.289012	0.718333	1.306801
C181	C	0.789019	0.218318	0.861405
C182	C	1.289019	0.718318	1.361405
O183	O	0.817466	0.189864	0.889659
O184	O	1.317466	0.689864	1.389659
N185	N	0.755562	0.251749	0.888701
N186	N	1.255562	0.751749	1.388701
C187	C	0.722093	0.285192	0.861389
C188	C	1.222093	0.785192	1.361389
O189	O	0.693636	0.313626	0.889620
O190	O	1.193636	0.813626	1.389620
C191	C	0.722084	0.285204	0.806786
C192	C	1.222084	0.785204	1.306786
C193	C	0.755547	0.251775	0.779493
C194	C	1.255547	0.751775	1.279493
C195	C	0.822472	0.184906	0.779508
C196	C	1.322472	0.684906	1.279508
C197	C	0.822466	0.184921	0.724908
C198	C	1.322466	0.684921	1.224908
C199	C	0.789001	0.218363	0.697600
C200	C	1.289001	0.718363	1.197600
C201	C	0.755541	0.251790	0.724893
C202	C	1.255541	0.751790	1.224893
C203	C	0.688613	0.318644	0.779475
C204	C	1.188613	0.818644	1.279475
C205	C	0.688607	0.318653	0.724868
C206	C	1.188607	0.818653	1.224868
C207	C	0.722069	0.285223	0.697576
C208	C	1.222069	0.785223	1.197576
C209	C	0.722070	0.285247	0.642984
C210	C	1.222070	0.785247	1.142984
N211	N	0.755526	0.251817	0.615689
N212	N	1.255526	0.751817	1.115689
C213	C	0.788992	0.218375	0.642996
C214	C	1.288992	0.718375	1.142996
C215	C	0.722113	0.285165	0.976060
C216	C	1.222113	0.785165	1.476060
C217	C	0.722124	0.285157	1.030662
C218	C	1.222124	0.785157	1.530662
C219	C	0.789049	0.218282	1.030675
C220	C	1.289049	0.718282	1.530675
C221	C	0.789041	0.218293	0.976071
C222	C	1.289041	0.718293	1.476071
C223	C	0.755570	0.251735	0.948764
C224	C	1.255570	0.751735	1.448764
C225	C	0.788977	0.218410	0.528331
C226	C	1.288977	0.718410	1.028331
C227	C	0.788970	0.218429	0.473726
C228	C	1.288970	0.718429	0.973726
C229	C	0.722043	0.285302	0.473719
C230	C	1.222043	0.785302	0.973719
C231	C	0.722052	0.285285	0.528319
C232	C	1.222052	0.785285	1.028319
C233	C	0.755521	0.251834	0.555624
C234	C	1.255521	0.751834	1.055624
O235	O	0.693635	0.313686	0.614696
O236	O	1.193635	0.813686	1.114696
O237	O	0.817439	0.189941	0.614759
O238	O	1.317439	0.689941	1.114759
H239	H	0.556514	0.191317	0.312694
H240	H	1.056514	0.691317	0.812694
O241	O	0.854908	0.152361	0.806052
O242	O	1.354908	0.652361	1.306052
C243	C	0.825180	0.118586	0.837646
C244	C	1.325180	0.618586	1.337646
H245	H	0.783997	0.115360	0.821195
H246	H	1.283997	0.615360	1.321195
H247	H	0.844122	0.078350	0.838261
H248	H	1.344122	0.578350	1.338261
H249	H	0.823382	0.134735	0.879031
H250	H	1.323382	0.634735	1.379031
H251	H	0.305373	0.157922	0.346208
H252	H	0.805373	0.657922	0.846208
H253	H	0.661345	0.345880	0.702638
H254	H	1.161345	0.845880	1.202638
H255	H	0.816298	0.191050	1.052918
H256	H	1.316298	0.691050	1.552918
O257	O	0.656108	0.805407	0.351281
O258	O	1.156108	1.305407	0.851281
C259	C	0.626562	0.769610	0.380749
C260	C	1.126562	1.269610	0.880749
H261	H	0.647968	0.730665	0.382566
H262	H	1.147968	1.230665	0.882566
H263	H	0.620965	0.785366	0.421943
H264	H	1.120965	1.285366	0.921943
H265	H	0.586863	0.763852	0.361567
H266	H	1.086863	1.263852	0.861567
H267	H	0.457322	0.312470	0.191149
H268	H	0.957322	0.812470	0.691149
O269	O	0.656165	0.697827	0.351272
O270	O	1.156165	1.197827	0.851272
C271	C	0.685898	0.666185	0.385057
C272	C	1.185898	1.166185	0.885057
H273	H	0.727082	0.682593	0.388326
H274	H	1.227082	1.182593	0.888326
H275	H	0.666962	0.665569	0.425276
H276	H	1.166962	1.165569	0.925276
H277	H	0.687693	0.624807	0.368888
H278	H	1.187693	1.124807	0.868888
H279	H	0.816333	1.052289	0.191376
H280	H	1.316333	1.552289	0.691376
H281	H	0.816288	0.191071	0.953853
H282	H	1.316288	0.691071	1.453853
H283	H	-0.045016	0.312472	0.191191
H284	H	0.454984	0.812472	0.691191
H285	H	0.206327	0.157919	0.346212
H286	H	0.706327	0.657919	0.846212
O287	O	0.854984	0.152394	0.698480
O288	O	1.354984	0.652394	1.198480
C289	C	0.884527	0.122887	0.734301
C290	C	1.384527	0.622887	1.234301
H291	H	0.863114	0.121075	0.773219
H292	H	1.363114	0.621075	1.273219
H293	H	0.890131	0.081693	0.718536
H294	H	1.390131	0.581693	1.218536
H295	H	0.924223	0.142030	0.740112
H296	H	1.424223	0.642030	1.240112
H297	H	0.816111	0.450876	0.191304
H298	H	1.316111	0.950876	0.691304
H299	H	0.694809	0.312510	0.550542
H300	H	1.194809	0.812510	1.050542
O301	O	0.689648	0.317708	1.057112
O302	O	1.189648	0.817708	1.557112
C303	C	0.701046	0.369820	1.043772
C304	C	1.201046	0.869820	1.543772
H305	H	0.721145	0.370909	1.004132
H306	H	1.221145	0.870909	1.504132
H307	H	0.663295	0.393265	1.041889
H308	H	1.163295	0.893265	1.541889
H309	H	0.727913	0.387426	1.074508
H310	H	1.227913	0.887426	1.574508
O311	O	0.689676	0.317684	0.949478
O312	O	1.189676	0.817684	1.449478
C313	C	0.719415	0.351471	0.917905
C314	C	1.219415	0.851471	1.417905
H315	H	0.759048	0.333031	0.909727
H316	H	1.259048	0.833031	1.409727
H317	H	0.698106	0.358492	0.879506
H318	H	1.198106	0.858492	1.379506
H319	H	0.725138	0.390210	0.938949
H320	H	1.225138	0.890210	1.438949
H321	H	0.661364	0.345866	0.801688
H322	H	1.161364	0.845866	1.301688
H323	H	0.694738	0.550017	0.312538
H324	H	1.194738	1.050017	0.812538
H325	H	0.556389	0.312465	0.191142
H326	H	1.056389	0.812465	0.691142
H327	H	0.816300	0.953223	0.191360
H328	H	1.316300	1.453223	0.691360
O329	O	0.453258	0.186047	0.318013
O330	O	0.953258	0.686047	0.818013
C331	C	0.489103	0.156576	0.347565
C332	C	0.989103	0.656576	0.847565
H333	H	0.528009	0.177999	0.349326
H334	H	1.028009	0.677999	0.849326
H335	H	0.473351	0.151063	0.388774
H336	H	0.973351	0.651063	0.888774
H337	H	0.494934	0.116837	0.328494
H338	H	0.994934	0.616837	0.828494
O339	O	0.058385	0.186015	0.318011
O340	O	0.558385	0.686015	0.818011
C341	C	0.022605	0.156563	0.347588
C342	C	0.522605	0.656563	0.847588
H343	H	-0.016324	0.154725	0.326177
H344	H	0.483676	0.654725	0.826177
H345	H	0.038407	0.115375	0.353241
H346	H	0.538407	0.615375	0.853241
H347	H	0.016799	0.175771	0.387261
H348	H	0.516799	0.675771	0.887261
H349	H	0.694883	0.953304	0.312581
H350	H	1.194883	1.453304	0.812581
O351	O	-0.049236	0.186138	0.318025
O352	O	0.450764	0.686138	0.818025
C353	C	-0.080822	0.215957	0.351750
C354	C	0.419178	0.715957	0.851750
H355	H	-0.089032	0.255554	0.333240
H356	H	0.410968	0.755554	0.833240
H357	H	-0.119203	0.194674	0.358794
H358	H	0.380797	0.694674	0.858794
H359	H	-0.059771	0.221755	0.390487
H360	H	0.440229	0.721755	0.890487
O361	O	0.689612	0.317811	0.447124
O362	O	1.189612	0.817811	0.947124
C363	C	0.719356	0.351592	0.415550
C364	C	1.219356	0.851592	0.915550
H365	H	0.758994	0.333156	0.407390
H366	H	1.258994	0.833156	0.907390
H367	H	0.698057	0.358599	0.377143
H368	H	1.198057	0.858599	0.877143
H369	H	0.725067	0.390338	0.436585
H370	H	1.225067	0.890338	0.936585
H371	H	0.694699	0.450951	0.312518
H372	H	1.194699	0.950951	0.812518
O373	O	0.821493	0.185904	0.447295
O374	O	1.321493	0.685904	0.947295
C375	C	0.851038	0.156394	0.483111
C376	C	1.351038	0.656394	0.983111
H377	H	0.829626	0.154574	0.522030
H378	H	1.329626	0.654574	1.022030
H379	H	0.856645	0.115203	0.467340
H380	H	1.356645	0.615203	0.967340
H381	H	0.890733	0.175539	0.488925
H382	H	1.390733	0.675539	0.988925
O383	O	0.689641	1.056570	0.317882
O384	O	1.189641	1.556570	0.817882
C385	C	0.660089	1.020777	0.347349
C386	C	1.160089	1.520777	0.847349
H387	H	0.681491	0.981831	0.349171
H388	H	1.181491	1.481831	0.849171
H389	H	0.654487	1.036537	0.388541
H390	H	1.154487	1.536537	0.888541
H391	H	0.620391	1.015021	0.328162
H392	H	1.120391	1.515021	0.828162
H393	H	0.816159	0.549927	0.191319
H394	H	1.316159	1.049927	0.691319
H395	H	0.054034	0.312464	0.191174
H396	H	0.554034	0.812464	0.691174
H397	H	0.816229	0.191169	0.550557
H398	H	1.316229	0.691169	1.050557
H399	H	0.206133	0.345840	0.157652
H400	H	0.706133	0.845840	0.657652
H401	H	0.305183	0.345834	0.157644
H402	H	0.805183	0.845834	0.657644
O403	O	0.854979	0.697817	0.152669
O404	O	1.354979	1.197817	0.652669
C405	C	0.884513	0.733612	0.123187
C406	C	1.384513	1.233612	0.623187
H407	H	0.886312	0.772523	0.144611
H408	H	1.386312	1.272523	0.644611
H409	H	0.925709	0.717802	0.117652
H410	H	1.425709	1.217802	0.617652
H411	H	0.865400	0.739457	0.083458
H412	H	1.365400	1.239457	0.583458
H413	H	0.849709	0.801078	0.157945
H414	H	1.349709	1.301078	0.657945
