data_functionalizedCrystal
_audit_creation_method	'MofGen! by Chris Wilmer'
_symmetry_space_group_name_H-M	'P1'
_symmetry_Int_Tables_number	1
_symmetry_cell_setting	triclinic
loop_
_symmetry_equiv_pos_as_xyz
  x,y,z
_cell_length_a	14.971482
_cell_length_b	14.971486
_cell_length_c	13.448316
_cell_angle_alpha	89.993189
_cell_angle_beta	89.993798
_cell_angle_gamma	83.613368
loop_
_atom_site_label
_atom_site_type_symbol
_atom_site_fract_x
_atom_site_fract_y
_atom_site_fract_z
O1	O	1.186949	0.116549	-0.082679
O2	O	1.686949	0.616549	0.417321
O3	O	0.926549	0.130511	-0.082684
O4	O	1.426549	0.630511	0.417316
O5	O	1.063729	-0.006670	-0.082675
O6	O	1.563729	0.493330	0.417325
O7	O	1.049770	0.253730	-0.082689
O8	O	1.549770	0.753730	0.417311
O9	O	1.063711	-0.006679	0.082709
O10	O	1.563711	0.493321	0.582709
O11	O	0.926532	0.130503	0.082699
O12	O	1.426532	0.630503	0.582699
O13	O	1.186932	0.116540	0.082704
O14	O	1.686932	0.616540	0.582704
Cu15	Cu	1.056730	0.123521	0.097803
Cu16	Cu	1.556730	0.623521	0.597803
Cu17	Cu	1.056751	0.123531	-0.097783
Cu18	Cu	1.556751	0.623531	0.402217
O19	O	1.049752	0.253722	0.082695
O20	O	1.549752	0.753722	0.582695
C21	C	0.893215	0.129883	0.000007
C22	C	1.393215	0.629883	0.500007
C23	C	0.793918	0.128014	0.000005
C24	C	1.293918	0.628014	0.500005
C25	C	0.747264	0.127129	0.090157
C26	C	1.247264	0.627129	0.590157
C27	C	0.653966	0.125358	0.090158
C28	C	1.153966	0.625358	0.590158
C29	C	0.607322	0.124479	0.000007
C30	C	1.107322	0.624479	0.500007
C31	C	0.653983	0.125361	-0.090152
C32	C	1.153983	0.625361	0.409848
C33	C	0.747281	0.127125	-0.090152
C34	C	1.247281	0.627125	0.409848
C35	C	0.459521	0.121686	-0.090146
C36	C	0.959521	0.621686	0.409854
C37	C	0.366217	0.119923	-0.090146
C38	C	0.866217	0.619923	0.409854
C39	C	0.366206	0.119918	0.090165
C40	C	0.866206	0.619918	0.590165
C41	C	0.459504	0.121683	0.090165
C42	C	0.959504	0.621683	0.590165
C43	C	0.506158	0.122567	0.000006
C44	C	1.006158	0.622567	0.500006
C45	C	1.063096	-0.039999	0.000017
C46	C	1.563096	0.460001	0.500017
C47	C	1.061225	-0.139296	0.000016
C48	C	1.561225	0.360704	0.500016
C49	C	1.141814	-0.196522	0.000018
C50	C	1.641814	0.303478	0.500018
C51	C	1.140051	-0.289822	0.000008
C52	C	1.640051	0.210178	0.500008
C53	C	1.057698	-0.325893	0.000003
C54	C	1.557698	0.174107	0.500003
C55	C	0.977102	-0.268659	-0.000002
C56	C	1.477102	0.231341	0.499998
C57	C	0.978866	-0.175362	0.000001
C58	C	1.478866	0.324638	0.500001
C59	C	0.973431	-0.463122	-0.000006
C60	C	1.473431	0.036878	0.499994
C61	C	0.971667	-0.556426	-0.000007
C62	C	1.471667	-0.056426	0.499993
C63	C	1.134616	-0.577582	0.000002
C64	C	1.634616	-0.077582	0.500002
C65	C	1.136380	-0.484284	0.000004
C66	C	1.636380	0.015716	0.500004
C67	C	1.055784	-0.427057	0.000001
C68	C	1.555784	0.072943	0.500001
C69	C	1.220266	0.117168	0.000011
C70	C	1.720266	0.617168	0.500011
C71	C	1.319563	0.119038	0.000006
C72	C	1.819563	0.619038	0.500006
C73	C	1.050385	0.287051	0.000001
C74	C	1.550385	0.787051	0.500001
C75	C	1.052256	0.386348	-0.000005
C76	C	1.552256	0.886348	0.499995
N77	N	1.056722	0.123513	0.235367
N78	N	1.556722	0.623513	0.735367
N79	N	1.056766	0.123531	-0.235347
N80	N	1.556766	0.623531	0.264653
C81	C	1.117485	0.062794	0.287412
C82	C	1.617485	0.562794	0.787412
C83	C	1.117490	0.062794	0.391515
C84	C	1.617490	0.562794	0.891515
C85	C	1.056737	0.123517	0.443572
C86	C	1.556737	0.623517	0.943572
C87	C	0.995969	0.184239	0.391520
C88	C	1.495969	0.684239	0.891520
C89	C	0.995960	0.184234	0.287418
C90	C	1.495960	0.684234	0.787418
C91	C	0.995994	0.184245	0.608500
C92	C	1.495994	0.684245	1.108500
C93	C	0.996004	0.184250	0.712608
C94	C	1.496004	0.684250	1.212608
C95	C	1.117524	0.062804	0.712596
C96	C	1.617524	0.562804	1.212596
C97	C	1.117515	0.062800	0.608495
C98	C	1.617515	0.562800	1.108495
C99	C	1.056747	0.123523	0.556450
C100	C	1.556747	0.623523	1.056450
H101	H	0.497504	0.122406	-0.163563
H102	H	0.997504	0.622406	0.336437
O103	O	0.603686	0.124409	-0.187394
O104	O	1.103686	0.624409	0.312606
H105	H	0.553275	0.184527	-0.191721
H106	H	1.053275	0.684527	0.308279
O107	O	0.797564	0.128082	0.187398
O108	O	1.297564	0.628082	0.687398
H109	H	0.870277	0.129468	0.172256
H110	H	1.370277	0.629468	0.672256
H111	H	0.328242	0.119208	-0.163555
H112	H	0.828242	0.619208	0.336445
H113	H	0.785265	0.127848	-0.163563
H114	H	1.285265	0.627848	0.336437
H115	H	0.904607	-0.585792	0.000005
H116	H	1.404607	-0.085792	0.500005
H117	H	0.946498	0.233678	0.433910
H118	H	1.446498	0.733678	0.933910
O119	O	0.930478	0.249737	0.768766
O120	O	1.430478	0.749737	1.268766
H121	H	0.886992	0.212001	0.816221
H122	H	1.386992	0.712001	1.316221
O123	O	1.183045	-0.002686	0.447641
O124	O	1.683045	0.497314	0.947641
H125	H	1.171596	-0.072438	0.427667
H126	H	1.671596	0.427562	0.927667
O127	O	1.183065	-0.002686	0.768736
O128	O	1.683065	0.497314	1.268736
H129	H	1.252797	0.008843	0.748745
H130	H	1.752797	0.508843	1.248745
O131	O	0.930428	0.249727	0.231276
O132	O	1.430428	0.749727	0.731276
H133	H	0.888190	0.291960	0.284962
H134	H	1.388190	0.791960	0.784962
H135	H	0.615986	0.124622	0.163569
H136	H	1.115986	0.624622	0.663569
H137	H	0.913242	-0.128768	-0.000001
H138	H	1.413242	0.371232	0.499999
H139	H	1.200240	-0.624181	0.000001
H140	H	1.700240	-0.124181	0.500001
H141	H	1.166989	0.013359	0.566111
H142	H	1.666989	0.513359	1.066111
O143	O	0.886505	-0.401393	-0.000000
O144	O	1.386505	0.098607	0.500000
H145	H	0.828943	-0.442147	0.000010
H146	H	1.328943	0.057853	0.500010
H147	H	0.328216	0.119199	0.163576
H148	H	0.828216	0.619199	0.663576
H149	H	0.910049	-0.298036	-0.000013
H150	H	1.410049	0.201964	0.499987
H151	H	0.946507	0.233689	0.566128
H152	H	1.446507	0.733689	1.066128
O153	O	1.225201	-0.445373	-0.000002
O154	O	1.725201	0.054627	0.499998
H155	H	1.280948	-0.500838	-0.000015
H156	H	1.780948	-0.000838	0.499985
H157	H	1.208876	-0.167161	0.000029
H158	H	1.708876	0.332839	0.500029
H159	H	0.497478	0.122404	0.163574
H160	H	0.997478	0.622404	0.663574
H161	H	1.205675	-0.336413	0.000012
H162	H	1.705675	0.163587	0.500012
H163	H	1.166960	0.013350	0.245034
H164	H	1.666960	0.513350	0.745034
