data_functionalizedCrystal
_audit_creation_method	'MofGen! by Chris Wilmer'
_symmetry_space_group_name_H-M	'P1'
_symmetry_Int_Tables_number	1
_symmetry_cell_setting	triclinic
loop_
_symmetry_equiv_pos_as_xyz
  x,y,z
_cell_length_a	19.288859
_cell_length_b	11.792254
_cell_length_c	18.366186
_cell_angle_alpha	89.993617
_cell_angle_beta	89.990083
_cell_angle_gamma	83.666162
loop_
_atom_site_label
_atom_site_type_symbol
_atom_site_fract_x
_atom_site_fract_y
_atom_site_fract_z
O1	O	0.922163	0.141548	-0.060564
O2	O	1.422163	0.641548	0.439436
O3	O	0.720011	0.160654	-0.060563
O4	O	1.220011	0.660654	0.439437
O5	O	0.825988	-0.014143	-0.060558
O6	O	1.325988	0.485857	0.439442
O7	O	0.816186	0.316345	-0.060569
O8	O	1.316186	0.816345	0.439431
O9	O	0.825970	-0.014152	0.060541
O10	O	1.325970	0.485848	0.560541
O11	O	0.719993	0.160646	0.060537
O12	O	1.219993	0.660646	0.560537
O13	O	0.922145	0.141539	0.060535
O14	O	1.422145	0.641539	0.560535
Zn15	Zn	0.821066	0.151091	0.079763
Zn16	Zn	1.321066	0.651091	0.579763
Zn17	Zn	0.821090	0.151102	-0.079791
Zn18	Zn	1.321090	0.651102	0.420209
O19	O	0.816168	0.316337	0.060531
O20	O	1.316168	0.816337	0.560531
C21	C	0.694122	0.160036	-0.000013
C22	C	1.194122	0.660036	0.499987
C23	C	0.617008	0.158194	-0.000012
C24	C	1.117008	0.658194	0.499988
C25	C	0.825362	-0.056429	-0.000009
C26	C	1.325362	0.443571	0.499991
C27	C	0.823514	-0.182413	-0.000010
C28	C	1.323514	0.317587	0.499990
C29	C	0.053482	0.248297	-0.000016
C30	C	0.553482	0.748297	0.499984
C31	C	0.125938	0.250038	-0.000020
C32	C	0.625938	0.750038	0.499980
C33	C	0.170059	0.147475	-0.000015
C34	C	0.670059	0.647475	0.499985
C35	C	0.141719	0.043163	-0.000025
C36	C	0.641719	0.543163	0.499975
C37	C	0.069263	0.041425	-0.000029
C38	C	0.569263	0.541425	0.499971
C39	C	0.290886	0.070980	0.042416
C40	C	0.790886	0.570980	0.542416
C41	C	0.363340	0.072722	0.042424
C42	C	0.863340	0.572722	0.542424
C43	C	0.393536	0.152830	-0.000008
C44	C	0.893536	0.652830	0.499992
C45	C	0.351267	0.231214	-0.042439
C46	C	0.851267	0.731214	0.457561
C47	C	0.278812	0.229477	-0.042442
C48	C	0.778812	0.729477	0.457558
C49	C	0.248626	0.149347	-0.000012
C50	C	0.748626	0.649347	0.499988
C51	C	0.500433	0.259022	-0.000007
C52	C	1.000433	0.759022	0.499993
C53	C	0.572891	0.260759	-0.000015
C54	C	1.072891	0.760759	0.499985
C55	C	0.588671	0.053881	-0.000014
C56	C	1.088671	0.553881	0.499986
C57	C	0.516214	0.052148	-0.000013
C58	C	1.016214	0.552148	0.499987
C59	C	0.472099	0.154722	-0.000006
C60	C	0.972099	0.654722	0.499994
C61	C	0.822012	-0.284727	-0.000012
C62	C	1.322012	0.215273	0.499988
C63	C	0.820134	-0.413085	-0.000019
C64	C	1.320134	0.086915	0.499981
C65	C	0.948034	0.142157	-0.000016
C66	C	1.448034	0.642157	0.499984
C67	C	1.025149	0.143999	-0.000022
C68	C	1.525149	0.643999	0.499978
C69	C	0.816795	0.358622	-0.000020
C70	C	1.316795	0.858622	0.499980
C71	C	0.818643	0.484607	-0.000024
C72	C	1.318643	0.984607	0.499976
N73	N	0.821055	0.151083	0.188654
N74	N	1.321055	0.651083	0.688654
N75	N	0.821107	0.151102	-0.188682
N76	N	1.321107	0.651102	0.311318
C77	C	0.867997	0.073720	0.226756
C78	C	1.367997	0.573720	0.726756
C79	C	0.868002	0.073715	0.302984
C80	C	1.368002	0.573715	0.802984
C81	C	0.821071	0.151092	0.341107
C82	C	1.321071	0.651092	0.841107
C83	C	0.774119	0.228460	0.302995
C84	C	1.274119	0.728460	0.802995
C85	C	0.774112	0.228456	0.226769
C86	C	1.274112	0.728456	0.726769
C87	C	0.812363	0.254503	0.461864
C88	C	1.312363	0.754503	0.961864
C89	C	0.812375	0.254509	0.538089
C90	C	1.312375	0.754509	1.038089
C91	C	0.821090	0.151106	0.576214
C92	C	1.321090	0.651106	1.076214
C93	C	0.829808	0.047693	0.538105
C94	C	1.329808	0.547693	1.038105
C95	C	0.829800	0.047688	0.461879
C96	C	1.329800	0.547688	0.961879
C97	C	0.821073	0.151105	0.423762
C98	C	1.321073	0.651105	0.923762
C99	C	0.868040	0.073732	0.696972
C100	C	1.368040	0.573732	1.196972
C101	C	0.868040	0.073726	0.773201
C102	C	1.368040	0.573726	1.273201
C103	C	0.774160	0.228480	0.773211
C104	C	1.274160	0.728480	1.273211
C105	C	0.774158	0.228477	0.696983
C106	C	1.274158	0.728477	1.196983
C107	C	0.821101	0.151104	0.658868
C108	C	1.321101	0.651104	1.158868
H109	H	0.017567	0.331821	-0.000014
H110	H	0.517567	0.831821	0.499986
H111	H	0.266308	0.005742	0.076971
H112	H	0.766308	0.505742	0.576971
Cl113	Cl	0.927007	-0.023552	0.178841
Cl114	Cl	1.427007	0.476448	0.678841
Cl115	Cl	0.801470	0.384511	0.413943
Cl116	Cl	1.301470	0.884511	0.913943
H117	H	0.735906	0.291460	0.334039
H118	H	1.235906	0.791460	0.834039
Cl119	Cl	0.840750	-0.082310	0.413973
Cl120	Cl	1.340750	0.417690	0.913973
H121	H	0.149011	0.334972	-0.000008
H122	H	0.649011	0.834972	0.499992
H123	H	0.493146	-0.032783	-0.000013
H124	H	0.993146	0.467217	0.499987
H125	H	0.735945	0.291478	0.804249
H126	H	1.235945	0.791478	1.304249
H127	H	0.624594	-0.029628	-0.000016
H128	H	1.124594	0.470372	0.499984
H129	H	0.836904	-0.036508	0.569145
H130	H	1.336904	0.463492	1.069145
Cl131	Cl	0.927050	-0.023542	0.649055
Cl132	Cl	1.427050	0.476458	1.149055
Cl133	Cl	0.927053	-0.023545	0.821104
Cl134	Cl	1.427053	0.476455	1.321104
Cl135	Cl	0.715094	0.325720	0.178866
Cl136	Cl	1.215094	0.825720	0.678866
Cl137	Cl	0.715145	0.325743	0.649078
Cl138	Cl	1.215145	0.825743	1.149078
H139	H	0.397749	0.008903	0.076978
H140	H	0.897749	0.508903	0.576978
H141	H	0.177647	-0.040344	-0.000024
H142	H	0.677647	0.459656	0.499976
H143	H	0.805282	0.338714	0.569111
H144	H	1.305282	0.838714	1.069111
H145	H	0.375850	0.296448	-0.076989
H146	H	0.875850	0.796448	0.423011
Cl147	Cl	0.225678	0.328005	-0.095785
Cl148	Cl	0.725678	0.828005	0.404215
Cl149	Cl	0.444972	0.387969	-0.000001
Cl150	Cl	0.944972	0.887969	0.499999
H151	H	0.595958	0.345694	-0.000016
H152	H	1.095958	0.845694	0.499984
H153	H	0.046196	-0.043509	-0.000034
H154	H	0.546196	0.456491	0.499966
H155	H	0.906229	0.010715	0.334013
H156	H	1.406229	0.510715	0.834013
