data_functionalizedCrystal
_audit_creation_method	'MofGen! by Chris Wilmer'
_symmetry_space_group_name_H-M	'P1'
_symmetry_Int_Tables_number	1
_symmetry_cell_setting	triclinic
loop_
_symmetry_equiv_pos_as_xyz
  x,y,z
_cell_length_a	14.519709
_cell_length_b	10.654550
_cell_length_c	9.730223
_cell_angle_alpha	89.999807
_cell_angle_beta	90.005407
_cell_angle_gamma	84.082524
loop_
_atom_site_label
_atom_site_type_symbol
_atom_site_fract_x
_atom_site_fract_y
_atom_site_fract_z
O1	O	1.224716	0.164618	-0.114107
O2	O	0.956339	0.184004	-0.114149
O3	O	1.096698	-0.008488	-0.114122
O4	O	1.084357	0.357109	-0.114134
O5	O	1.096696	-0.008483	0.114458
O6	O	0.956338	0.184009	0.114431
O7	O	1.224714	0.164622	0.114473
Zn8	Zn	1.090526	0.174316	0.150744
Zn9	Zn	1.090528	0.174310	-0.150420
O10	O	1.084355	0.357114	0.114446
C11	C	1.095791	-0.055275	0.000166
C12	C	1.093080	-0.194692	0.000161
C13	C	0.921974	0.183103	0.000136
C14	C	0.819579	0.180396	0.000120
C15	C	1.175721	-0.274972	0.000178
C16	C	1.173168	-0.405968	0.000168
C17	C	1.005326	-0.376391	0.000130
C18	C	1.007880	-0.245397	0.000130
C19	C	1.272623	-0.292049	0.000206
C20	C	1.270070	-0.423046	0.000196
C21	C	0.444631	0.170428	0.000183
C22	C	0.548954	0.173196	0.000165
C23	C	0.632102	0.175412	0.000150
C24	C	0.736431	0.178180	0.000135
C25	C	1.259079	0.165524	0.000185
C26	C	1.361475	0.168231	0.000192
C27	C	1.085262	0.403901	0.000155
C28	C	1.087973	0.543318	0.000151
N29	N	1.090531	0.174320	0.356280
N30	N	1.090530	0.174297	-0.355956
C31	C	1.152698	0.089113	0.428218
C32	C	1.152695	0.089098	0.572101
C33	C	1.028356	0.259507	0.572096
C34	C	1.028355	0.259516	0.428215
C35	C	1.224487	-0.009267	0.428223
C36	C	1.224485	-0.009283	0.572106
H37	H	0.940586	-0.180037	0.000097
H38	H	1.310526	-0.263058	-0.095442
C39	C	1.320202	0.018963	0.624882
N40	N	1.392285	0.040275	0.664632
C41	C	1.309652	-0.485100	-0.133114
N42	N	1.339469	-0.531842	-0.233518
H43	H	1.306581	-0.465155	0.095860
C44	C	1.314309	-0.244311	0.133545
N45	N	1.345706	-0.208353	0.233978
C46	C	0.960038	0.353345	0.349089
N47	N	0.908607	0.424060	0.289491
C48	C	0.959965	0.353215	0.651237
N49	N	0.908451	0.423798	0.710846
H50	H	1.208741	-0.105648	0.389169
H51	H	1.291445	0.020677	0.383606
C52	C	1.194204	-0.132220	0.632385
N53	N	1.171391	-0.224811	0.677789
H54	H	0.935959	-0.417692	0.000103
