data_functionalizedCrystal
_audit_creation_method	'MofGen! by Chris Wilmer'
_symmetry_space_group_name_H-M	'P1'
_symmetry_Int_Tables_number	1
_symmetry_cell_setting	triclinic
loop_
_symmetry_equiv_pos_as_xyz
  x,y,z
_cell_length_a	15.944551
_cell_length_b	15.944551
_cell_length_c	12.503572
_cell_angle_alpha	93.522593
_cell_angle_beta	86.485927
_cell_angle_gamma	83.498738
loop_
_atom_site_label
_atom_site_type_symbol
_atom_site_fract_x
_atom_site_fract_y
_atom_site_fract_z
O1	O	1.119362	0.103479	-0.089210
O2	O	0.874813	0.116834	-0.089237
O3	O	1.003765	-0.012118	-0.089213
O4	O	0.990410	0.232431	-0.089234
O5	O	0.994067	-0.002404	0.089427
O6	O	0.865115	0.126548	0.089403
O7	O	1.109664	0.113193	0.089430
Cu8	Cu	0.986504	0.120757	0.105728
Cu9	Cu	0.997973	0.109269	-0.105535
O10	O	0.980712	0.242145	0.089406
C11	C	0.838671	0.121136	0.000079
C12	C	0.745425	0.119473	0.000069
C13	C	0.530567	0.035570	0.000097
C14	C	0.474329	0.069743	-0.087985
C15	C	0.574699	0.116467	0.000082
C16	C	0.464789	0.079340	0.088140
C17	C	0.409785	0.113557	0.000100
C18	C	0.519692	0.150658	-0.088073
C19	C	0.510155	0.160247	0.088132
C20	C	0.453936	0.194477	0.000028
C21	C	0.669702	0.118141	0.000071
C22	C	0.314784	0.111889	0.000103
C23	C	0.998362	-0.038555	0.000107
C24	C	0.996699	-0.131801	0.000107
C25	C	0.912796	-0.346659	0.000083
C26	C	0.946977	-0.402886	0.088168
C27	C	0.993693	-0.302527	0.000099
C28	C	0.956557	-0.412447	-0.087957
C29	C	0.990782	-0.467441	0.000086
C30	C	1.027891	-0.357522	0.088256
C31	C	1.037465	-0.367081	-0.087948
C32	C	1.071703	-0.423290	0.000158
C33	C	0.995367	-0.207524	0.000107
C34	C	0.989114	-0.562442	0.000085
C35	C	1.145807	0.108891	0.000111
C36	C	1.239052	0.110553	0.000114
C37	C	0.986116	0.268581	0.000083
C38	C	0.987778	0.361827	0.000076
N39	N	0.978444	0.128837	0.254318
N40	N	1.006040	0.101183	-0.254126
C41	C	0.966586	0.140729	0.473431
C42	C	1.017895	0.089294	0.526768
C43	C	1.011297	0.095911	0.648690
C44	C	0.973183	0.134113	0.351498
H45	H	0.845644	-0.313347	0.000164
H46	H	1.058031	-0.333478	0.162807
O47	O	0.529245	0.205975	0.176934
C48	C	0.488635	0.289312	0.177680
H49	H	0.431626	0.289973	0.126862
H50	H	0.466686	0.313428	0.263695
H51	H	0.534754	0.331924	0.143087
O52	O	0.908316	0.199300	0.528063
C53	C	0.923593	0.280957	0.500695
H54	H	0.960325	0.276452	0.419006
H55	H	0.860717	0.322190	0.496991
H56	H	0.962088	0.310258	0.563955
H57	H	0.563905	-0.031573	-0.000006
H58	H	0.440661	0.049158	0.162604
O59	O	0.901414	-0.421958	0.177110
C60	C	0.938346	-0.392706	0.269834
H61	H	0.977329	-0.339464	0.249313
H62	H	0.886436	-0.368096	0.334575
H63	H	0.981137	-0.446904	0.300595
O64	O	0.455204	0.023966	-0.176736
C65	C	0.494607	-0.059761	-0.176433
H66	H	0.508205	-0.074594	-0.090719
H67	H	0.450962	-0.105393	-0.209698
H68	H	0.556516	-0.067001	-0.228636
O69	O	1.151878	-0.462804	0.000411
C70	C	1.189161	-0.434617	0.093389
H71	H	1.137431	-0.409199	0.157998
H72	H	1.230834	-0.489636	0.124135
H73	H	1.229367	-0.382227	0.073220
H74	H	1.075694	-0.351000	-0.162413
O75	O	0.920435	-0.441126	-0.176767
C76	C	0.836663	-0.401712	-0.176424
H77	H	0.829838	-0.339510	-0.124859
H78	H	0.821179	-0.388660	-0.262085
H79	H	0.791233	-0.445094	-0.142053
H80	H	1.066777	0.040290	0.480864
H81	H	0.420780	0.261682	-0.000027
O82	O	0.548505	0.186553	-0.176980
C83	C	0.636745	0.187671	-0.175924
H84	H	0.664109	0.136589	-0.123721
H85	H	0.666828	0.175086	-0.261323
H86	H	0.650651	0.252239	-0.141877
