data_functionalizedCrystal
_audit_creation_method	'MofGen! by Chris Wilmer'
_symmetry_space_group_name_H-M	'P1'
_symmetry_Int_Tables_number	1
_symmetry_cell_setting	triclinic
loop_
_symmetry_equiv_pos_as_xyz
  x,y,z
_cell_length_a	14.971506
_cell_length_b	15.712078
_cell_length_c	14.048226
_cell_angle_alpha	89.996372
_cell_angle_beta	89.993237
_cell_angle_gamma	101.601768
loop_
_atom_site_label
_atom_site_type_symbol
_atom_site_fract_x
_atom_site_fract_y
_atom_site_fract_z
O1	O	1.223702	0.112768	-0.079166
O2	O	0.967698	0.126243	-0.079166
O3	O	1.061643	-0.006360	-0.079161
O4	O	1.129757	0.245371	-0.079171
O5	O	1.061624	-0.006368	0.079160
O6	O	0.967679	0.126236	0.079155
O7	O	1.223683	0.112760	0.079155
Zn8	Zn	1.095678	0.119496	0.104292
Zn9	Zn	1.095703	0.119507	-0.104303
O10	O	1.129738	0.245363	0.079150
C11	C	0.934167	0.125634	-0.000006
C12	C	0.834279	0.123818	-0.000006
C13	C	0.419136	0.194792	-0.000018
C14	C	0.512990	0.196491	-0.000022
C15	C	0.544809	0.118582	-0.000015
C16	C	0.482767	0.038968	-0.000013
C17	C	0.388915	0.037270	-0.000016
C18	C	0.678386	0.042513	-0.000006
C19	C	0.772245	0.044211	-0.000001
C20	C	0.802461	0.201734	-0.000012
C21	C	0.708609	0.200036	-0.000014
C22	C	0.646574	0.120422	-0.000011
C23	C	1.050506	-0.038579	-0.000001
C24	C	1.017338	-0.134571	-0.000004
C25	C	1.298938	-0.501357	-0.000013
C26	C	1.267751	-0.591553	-0.000013
C27	C	1.111484	-0.571109	-0.000013
C28	C	1.142657	-0.480909	-0.000009
C29	C	1.236385	-0.446041	-0.000010
C30	C	1.080105	-0.425593	-0.000006
C31	C	1.111276	-0.335402	-0.000007
C32	C	1.205000	-0.300526	-0.000010
C33	C	1.267557	-0.355849	-0.000011
C34	C	0.986377	-0.460464	-0.000012
C35	C	0.923824	-0.405148	-0.000009
C36	C	0.954995	-0.314955	-0.000003
C37	C	1.048719	-0.280079	-0.000006
C38	C	0.892439	-0.259631	-0.000002
C39	C	0.923610	-0.169440	-0.000003
C40	C	1.079891	-0.189887	-0.000007
C41	C	1.257214	0.113369	-0.000007
C42	C	1.357102	0.115185	-0.000014
C43	C	1.140875	0.277582	-0.000012
C44	C	1.174043	0.373574	-0.000015
N45	N	1.095667	0.119489	0.246653
N46	N	1.095719	0.119507	-0.246664
C47	C	1.137293	0.060796	0.296473
C48	C	1.137299	0.060796	0.396131
C49	C	1.095684	0.119493	0.445966
C50	C	1.054053	0.178188	0.396139
C51	C	1.054042	0.178184	0.296483
C52	C	1.054081	0.178194	0.603853
C53	C	1.054093	0.178200	0.703516
C54	C	1.137338	0.060806	0.703501
C55	C	1.137327	0.060802	0.603845
C56	C	1.095697	0.119499	0.554025
H57	H	0.798148	-0.019230	-0.000003
Cl58	Cl	0.774614	-0.303478	-0.000020
Cl59	Cl	0.379146	0.292742	-0.000020
Cl60	Cl	0.844972	-0.099895	0.000001
H61	H	1.020205	0.225996	0.744087
H62	H	1.171185	0.013002	0.255903
H63	H	1.375260	-0.472965	-0.000004
H64	H	0.847510	-0.433551	-0.000012
Cl65	Cl	1.189628	-0.012991	0.458764
Cl66	Cl	1.189649	-0.012983	0.541192
Cl67	Cl	0.993658	-0.614953	-0.000020
H68	H	1.020164	0.225977	0.436721
Cl69	Cl	1.001705	0.251969	0.233853
H70	H	1.020177	0.225989	0.563293
Cl71	Cl	0.590972	0.296574	-0.000033
Cl72	Cl	1.197723	-0.146045	0.000024
Cl73	Cl	1.189673	-0.012981	0.766135
H74	H	0.961000	-0.533905	-0.000017
Cl75	Cl	0.600401	-0.057575	0.000006
Cl76	Cl	0.310929	-0.062812	-0.000010
H77	H	1.318697	-0.636589	-0.000021
H78	H	1.230378	-0.227085	-0.000011
Cl79	Cl	0.522768	-0.058976	-0.000007
H80	H	0.852975	0.266559	-0.000014
Cl81	Cl	0.668610	0.297981	-0.000019
H82	H	1.343879	-0.327457	-0.000001
