data_functionalizedCrystal
_audit_creation_method	'MofGen! by Chris Wilmer'
_symmetry_space_group_name_H-M	'P1'
_symmetry_Int_Tables_number	1
_symmetry_cell_setting	triclinic
loop_
_symmetry_equiv_pos_as_xyz
  x,y,z
_cell_length_a	14.853558
_cell_length_b	14.853559
_cell_length_c	13.330367
_cell_angle_alpha	89.997552
_cell_angle_beta	89.992972
_cell_angle_gamma	83.631294
loop_
_atom_site_label
_atom_site_type_symbol
_atom_site_fract_x
_atom_site_fract_y
_atom_site_fract_z
O1	O	1.196370	0.117664	-0.083406
O2	O	0.933909	0.131694	-0.083410
O3	O	1.072155	-0.006551	-0.083407
O4	O	1.058125	0.255910	-0.083409
O5	O	1.072135	-0.006554	0.083440
O6	O	0.933889	0.131691	0.083437
O7	O	1.196350	0.117661	0.083441
Cu8	Cu	1.065118	0.124676	0.098673
Cu9	Cu	1.065142	0.124680	-0.098643
O10	O	1.058105	0.255907	0.083438
C11	C	0.900310	0.131059	0.000013
C12	C	0.800226	0.129158	0.000011
C13	C	1.071510	-0.040142	0.000015
C14	C	1.069609	-0.140226	0.000009
C15	C	0.753217	0.128269	-0.090941
C16	C	0.753194	0.128254	0.090962
C17	C	0.659160	0.126464	0.090964
C18	C	0.612151	0.125574	0.000011
C19	C	0.659175	0.126475	-0.090942
C20	C	0.612130	0.125554	0.181916
C21	C	0.518091	0.123762	0.181921
C22	C	0.471079	0.122879	0.090968
C23	C	0.518109	0.123781	0.000010
C24	C	0.471100	0.122891	-0.090942
C25	C	0.518127	0.123800	-0.181900
C26	C	0.612163	0.125592	-0.181896
C27	C	0.377042	0.121087	0.090963
C28	C	0.377058	0.121098	-0.090943
C29	C	1.061557	-0.563399	-0.090940
C30	C	1.061535	-0.563397	0.090963
C31	C	1.063328	-0.469364	0.090964
C32	C	1.064234	-0.422343	0.000012
C33	C	1.063347	-0.469356	-0.090942
C34	C	1.064206	-0.422342	0.181916
C35	C	1.065998	-0.328303	0.181921
C36	C	1.066911	-0.281282	0.090967
C37	C	1.066025	-0.328301	0.000010
C38	C	1.066932	-0.281281	-0.090943
C39	C	1.066052	-0.328299	-0.181901
C40	C	1.064260	-0.422335	-0.181895
C41	C	1.068703	-0.187246	0.090961
C42	C	1.068722	-0.187239	-0.090945
C43	C	1.229949	0.118297	0.000016
C44	C	1.330033	0.120197	0.000011
C45	C	1.058749	0.289497	0.000014
C46	C	1.060650	0.389581	0.000013
N47	N	1.065108	0.124673	0.237455
N48	N	1.065159	0.124676	-0.237424
C49	C	1.003924	0.185871	0.710076
C50	C	1.126384	0.063481	0.710047
C51	C	1.126373	0.063479	0.605029
C52	C	1.065139	0.124674	0.552529
C53	C	1.003914	0.185872	0.605048
C54	C	1.187603	0.002288	0.552502
C55	C	1.187596	0.002284	0.447477
C56	C	1.126356	0.063475	0.394976
C57	C	1.065128	0.124675	0.447501
C58	C	1.003893	0.185870	0.395002
C59	C	0.942660	0.247066	0.447525
C60	C	0.942674	0.247063	0.552547
C61	C	1.126343	0.063478	0.289954
C62	C	1.003883	0.185871	0.289974
H63	H	0.479841	0.123071	-0.255954
N64	N	1.060615	-0.614103	-0.189041
H65	H	1.059346	-0.680811	-0.175245
H66	H	1.005089	-0.590425	-0.228761
N67	N	1.069643	-0.136531	0.189052
H68	H	1.068791	-0.180587	0.246670
H69	H	1.126230	-0.104759	0.193021
N70	N	1.253637	-0.063731	0.609108
H71	H	1.317634	-0.053240	0.590823
H72	H	1.244274	-0.054428	0.683593
N73	N	1.063284	-0.473032	-0.279999
H74	H	1.119439	-0.463916	-0.319773
H75	H	1.061968	-0.539718	-0.266122
N76	N	0.467371	0.122784	0.280019
H77	H	0.511500	0.122992	0.337634
H78	H	0.421540	0.178206	0.284286
N79	N	0.937889	0.251877	0.766721
H80	H	0.899099	0.290642	0.717523
H81	H	0.897996	0.217289	0.810304
N82	N	0.326324	0.120098	0.189056
H83	H	0.370454	0.120314	0.246669
H84	H	0.280482	0.175512	0.193326
H85	H	1.176244	0.013662	0.752796
H86	H	1.237454	-0.047546	0.404719
H87	H	1.176202	0.013657	0.247194
N88	N	1.066960	-0.277603	0.280023
H89	H	1.123548	-0.245834	0.284074
H90	H	1.011826	-0.231387	0.284023
N91	N	0.662892	0.126560	-0.279989
H92	H	0.653772	0.070408	-0.319753
H93	H	0.639270	0.182129	-0.319674
H94	H	1.066783	-0.290002	-0.255954
H95	H	1.063463	-0.460632	0.255965
N96	N	0.803931	0.129251	-0.189043
H97	H	0.870636	0.130524	-0.175248
H98	H	0.794742	0.073096	-0.228763
N99	N	0.803888	0.129214	0.189058
H100	H	0.850147	0.074116	0.193111
H101	H	0.835604	0.185837	0.193051
N102	N	0.937827	0.251873	0.233360
H103	H	0.948281	0.315879	0.251634
H104	H	0.947140	0.242514	0.158876
N105	N	0.326356	0.120144	-0.189043
H106	H	0.370419	0.120991	-0.246659
H107	H	0.294588	0.063554	-0.193011
N108	N	0.662829	0.126513	0.280008
H109	H	0.729535	0.127794	0.266205
H110	H	0.639139	0.182041	0.319726
H111	H	1.069465	-0.148962	-0.165010
H112	H	1.060791	-0.601686	0.165013
H113	H	0.892806	0.296895	0.404768
H114	H	0.892821	0.296887	0.595318
