data_functionalizedCrystal
_audit_creation_method	'MofGen! by Chris Wilmer'
_symmetry_space_group_name_H-M	'P1'
_symmetry_Int_Tables_number	1
_symmetry_cell_setting	triclinic
loop_
_symmetry_equiv_pos_as_xyz
  x,y,z
_cell_length_a	21.395364
_cell_length_b	25.639240
_cell_length_c	21.395356
_cell_angle_alpha	89.963811
_cell_angle_beta	89.983542
_cell_angle_gamma	90.028522
loop_
_atom_site_label
_atom_site_type_symbol
_atom_site_fract_x
_atom_site_fract_y
_atom_site_fract_z
Zn1	Zn	0.957800	-0.208221	-0.354226
Zn2	Zn	1.207800	0.041779	-0.104226
Zn3	Zn	1.457800	0.291779	0.145774
Zn4	Zn	1.707800	0.541779	0.395774
Zn5	Zn	0.957714	-0.295655	-0.249434
Zn6	Zn	1.207714	-0.045655	0.000566
Zn7	Zn	1.457714	0.204345	0.250566
Zn8	Zn	1.707714	0.454345	0.500566
Zn9	Zn	0.853030	-0.208229	-0.249463
Zn10	Zn	1.103030	0.041771	0.000537
Zn11	Zn	1.353030	0.291771	0.250537
Zn12	Zn	1.603030	0.541771	0.500537
Zn13	Zn	0.852981	-0.295620	-0.354174
Zn14	Zn	1.102981	-0.045620	-0.104174
Zn15	Zn	1.352981	0.204380	0.145826
Zn16	Zn	1.602981	0.454380	0.395826
O17	O	0.905381	-0.251931	-0.301824
O18	O	1.155381	-0.001931	-0.051824
O19	O	1.405381	0.248069	0.198176
O20	O	1.655381	0.498069	0.448176
O21	O	1.045467	-0.219830	-0.340335
O22	O	1.295467	0.030170	-0.090335
O23	O	1.545467	0.280170	0.159665
O24	O	1.795467	0.530170	0.409665
O25	O	0.943812	-0.284076	-0.161760
O26	O	1.193812	-0.034076	0.088240
O27	O	1.443812	0.215924	0.338240
O28	O	1.693812	0.465924	0.588240
O29	O	0.866985	-0.135063	-0.263394
O30	O	1.116985	0.114937	-0.013394
O31	O	1.366985	0.364937	0.236606
O32	O	1.616985	0.614937	0.486606
O33	O	1.045403	-0.284068	-0.263344
O34	O	1.295403	-0.034068	-0.013344
O35	O	1.545403	0.215932	0.236656
O36	O	1.795403	0.465932	0.486656
O37	O	0.943959	-0.135056	-0.340363
O38	O	1.193959	0.114944	-0.090363
O39	O	1.443959	0.364944	0.159637
O40	O	1.693959	0.614944	0.409637
O41	O	0.866901	-0.219844	-0.161781
O42	O	1.116901	0.030156	0.088219
O43	O	1.366901	0.280156	0.338219
O44	O	1.616901	0.530156	0.588219
O45	O	0.765346	-0.219811	-0.263343
O46	O	1.015346	0.030189	-0.013343
O47	O	1.265346	0.280189	0.236657
O48	O	1.515346	0.530189	0.486657
O49	O	0.866901	-0.284009	-0.441859
O50	O	1.116901	-0.034009	-0.191859
O51	O	1.366901	0.215991	0.058141
O52	O	1.616901	0.465991	0.308141
O53	O	0.765309	-0.284017	-0.340274
O54	O	1.015309	-0.034017	-0.090274
O55	O	1.265309	0.215983	0.159726
O56	O	1.515309	0.465983	0.409726
O57	O	0.943911	-0.219796	-0.441897
O58	O	1.193911	0.030204	-0.191897
O59	O	1.443911	0.280204	0.058103
O60	O	1.693911	0.530204	0.308103
O61	O	0.943764	-0.368816	-0.263294
O62	O	1.193764	-0.118816	-0.013294
O63	O	1.443764	0.131184	0.236706
O64	O	1.693764	0.381184	0.486706
O65	O	0.866817	-0.368790	-0.340246
O66	O	1.116817	-0.118790	-0.090246
O67	O	1.366817	0.131210	0.159754
O68	O	1.616817	0.381210	0.409754
C69	C	0.742594	-0.251911	-0.301807
C70	C	0.992594	-0.001911	-0.051807
C71	C	1.242594	0.248089	0.198193
C72	C	1.492594	0.498089	0.448193
C73	C	0.672952	-0.251915	-0.301814
C74	C	0.922952	-0.001915	-0.051814
C75	C	1.172952	0.248085	0.198186
C76	C	1.422952	0.498085	0.448186
C77	C	0.171189	-0.218562	-0.341987
C78	C	0.421189	0.031438	-0.091987
C79	C	0.671189	0.281438	0.158013
C80	C	0.921189	0.531438	0.408013
C81	C	0.236624	-0.218558	-0.341987
C82	C	0.486624	0.031442	-0.091987
C83	C	0.736624	0.281442	0.158013
C84	C	0.986624	0.531442	0.408013
C85	C	0.269314	-0.251947	-0.301838
C86	C	0.519314	-0.001947	-0.051838
C87	C	0.769314	0.248053	0.198162
C88	C	1.019314	0.498053	0.448162
C89	C	0.236563	-0.285353	-0.261698
C90	C	0.486563	-0.035353	-0.011698
C91	C	0.736563	0.214647	0.238302
C92	C	0.986563	0.464647	0.488302
C93	C	0.171129	-0.285359	-0.261704
C94	C	0.421129	-0.035359	-0.011704
C95	C	0.671129	0.214641	0.238296
C96	C	0.921129	0.464641	0.488296
C97	C	0.372958	-0.256004	-0.245370
C98	C	0.622958	-0.006004	0.004630
C99	C	0.872958	0.243996	0.254630
C100	C	1.122958	0.493996	0.504630
C101	C	0.438391	-0.255994	-0.245364
C102	C	0.688391	-0.005994	0.004636
C103	C	0.938391	0.244006	0.254636
C104	C	1.188391	0.494006	0.504636
C105	C	0.471135	-0.251930	-0.301821
C106	C	0.721135	-0.001930	-0.051821
C107	C	0.971135	0.248070	0.198179
C108	C	1.221135	0.498070	0.448179
C109	C	0.438437	-0.247865	-0.358287
C110	C	0.688437	0.002135	-0.108287
C111	C	0.938437	0.252135	0.141713
C112	C	1.188437	0.502135	0.391713
C113	C	0.373003	-0.247872	-0.358293
C114	C	0.623003	0.002128	-0.108293
C115	C	0.873003	0.252128	0.141707
C116	C	1.123003	0.502128	0.391707
C117	C	0.340266	-0.251944	-0.301828
C118	C	0.590266	-0.001944	-0.051828
C119	C	0.840266	0.248056	0.198172
C120	C	1.090266	0.498056	0.448172
C121	C	0.574830	-0.218525	-0.341962
C122	C	0.824830	0.031475	-0.091962
C123	C	1.074830	0.281475	0.158038
C124	C	1.324830	0.531475	0.408038
C125	C	0.640267	-0.218525	-0.341962
C126	C	0.890267	0.031475	-0.091962
C127	C	1.140267	0.281475	0.158038
C128	C	1.390267	0.531475	0.408038
C129	C	0.640205	-0.285317	-0.261668
C130	C	0.890205	-0.035317	-0.011668
C131	C	1.140205	0.214683	0.238332
C132	C	1.390205	0.464683	0.488332
C133	C	0.574769	-0.285320	-0.261673
C134	C	0.824769	-0.035320	-0.011673
C135	C	1.074769	0.214680	0.238327
C136	C	1.324769	0.464680	0.488327
C137	C	0.542086	-0.251921	-0.301819
C138	C	0.792086	-0.001921	-0.051819
C139	C	1.042086	0.248079	0.198181
C140	C	1.292086	0.498079	0.448181
C141	C	0.905293	-0.387774	-0.301775
C142	C	1.155293	-0.137774	-0.051775
C143	C	1.405293	0.112226	0.198225
C144	C	1.655293	0.362226	0.448225
C145	C	0.905312	-0.445888	-0.301775
C146	C	1.155312	-0.195888	-0.051775
C147	C	1.405312	0.054112	0.198225
C148	C	1.655312	0.304112	0.448225
C149	C	0.945482	-0.806209	-0.341974
C150	C	1.195482	-0.556209	-0.091974
C151	C	1.445482	-0.306209	0.158026
C152	C	1.695482	-0.056209	0.408026
C153	C	0.945500	-0.860813	-0.341987
C154	C	1.195500	-0.610813	-0.091987
C155	C	1.445500	-0.360813	0.158013
C156	C	1.695500	-0.110813	0.408013
O157	O	0.979548	-0.889015	-0.376115
O158	O	1.229548	-0.639015	-0.126115
O159	O	1.479548	-0.389015	0.123885
O160	O	1.729548	-0.139015	0.373885
N161	N	0.905468	-0.888170	-0.301885
N162	N	1.155468	-0.638170	-0.051885
N163	N	1.405468	-0.388170	0.198115
N164	N	1.655468	-0.138170	0.448115
C165	C	0.865411	-0.860920	-0.261772
C166	C	1.115411	-0.610920	-0.011772
C167	C	1.365411	-0.360920	0.238228
C168	C	1.615411	-0.110920	0.488228
O169	O	0.831362	-0.889203	-0.227663
O170	O	1.081362	-0.639203	0.022337
O171	O	1.331362	-0.389203	0.272337
O172	O	1.581362	-0.139203	0.522337
C173	C	0.865389	-0.806317	-0.261762
C174	C	1.115389	-0.556317	-0.011762
C175	C	1.365389	-0.306317	0.238238
C176	C	1.615389	-0.056317	0.488238
C177	C	0.905428	-0.778963	-0.301863
C178	C	1.155428	-0.528963	-0.051863
C179	C	1.405428	-0.278963	0.198137
C180	C	1.655428	-0.028963	0.448137
C181	C	0.985517	-0.778855	-0.382072
C182	C	1.235517	-0.528855	-0.132072
C183	C	1.485517	-0.278855	0.117928
C184	C	1.735517	-0.028855	0.367928
C185	C	0.985499	-0.724255	-0.382058
C186	C	1.235499	-0.474255	-0.132058
C187	C	1.485499	-0.224255	0.117942
C188	C	1.735499	0.025745	0.367942
C189	C	0.945446	-0.697008	-0.341947
C190	C	1.195446	-0.447008	-0.091947
C191	C	1.445446	-0.197008	0.158053
C192	C	1.695446	0.052992	0.408053
C193	C	0.905411	-0.724362	-0.301849
C194	C	1.155411	-0.474362	-0.051849
C195	C	1.405411	-0.224362	0.198151
C196	C	1.655411	0.025638	0.448151
C197	C	0.825329	-0.779067	-0.221653
C198	C	1.075329	-0.529067	0.028347
C199	C	1.325329	-0.279067	0.278347
C200	C	1.575329	-0.029067	0.528347
C201	C	0.825311	-0.724460	-0.221648
C202	C	1.075311	-0.474460	0.028352
C203	C	1.325311	-0.224460	0.278352
C204	C	1.575311	0.025540	0.528352
C205	C	0.865350	-0.697106	-0.261748
C206	C	1.115350	-0.447106	-0.011748
C207	C	1.365350	-0.197106	0.238252
C208	C	1.615350	0.052894	0.488252
C209	C	0.865340	-0.642515	-0.261724
C210	C	1.115340	-0.392515	-0.011724
C211	C	1.365340	-0.142515	0.238276
C212	C	1.615340	0.107485	0.488276
N213	N	0.905372	-0.615158	-0.301826
N214	N	1.155372	-0.365158	-0.051826
N215	N	1.405372	-0.115158	0.198174
N216	N	1.655372	0.134842	0.448174
C217	C	0.945425	-0.642405	-0.341938
C218	C	1.195425	-0.392405	-0.091938
C219	C	1.445425	-0.142405	0.158062
C220	C	1.695425	0.107595	0.408062
C221	C	0.865457	-0.975590	-0.261795
C222	C	1.115457	-0.725590	-0.011795
C223	C	1.365457	-0.475590	0.238205
C224	C	1.615457	-0.225590	0.488205
C225	C	0.865481	-1.030193	-0.261800
C226	C	1.115481	-0.780193	-0.011800
C227	C	1.365481	-0.530193	0.238200
C228	C	1.615481	-0.280193	0.488200
C229	C	0.945570	-1.030083	-0.342016
C230	C	1.195570	-0.780083	-0.092016
C231	C	1.445570	-0.530083	0.157984
C232	C	1.695570	-0.280083	0.407984
C233	C	0.945549	-0.975479	-0.342007
C234	C	1.195549	-0.725479	-0.092007
C235	C	1.445549	-0.475479	0.157993
C236	C	1.695549	-0.225479	0.407993
C237	C	0.905489	-0.948234	-0.301897
C238	C	1.155489	-0.698234	-0.051897
C239	C	1.405489	-0.448234	0.198103
C240	C	1.655489	-0.198234	0.448103
C241	C	0.945385	-0.527740	-0.341905
C242	C	1.195385	-0.277740	-0.091905
C243	C	1.445385	-0.027740	0.158095
C244	C	1.695385	0.222260	0.408095
C245	C	0.945365	-0.473134	-0.341886
C246	C	1.195365	-0.223134	-0.091886
C247	C	1.445365	0.026866	0.158114
C248	C	1.695365	0.276866	0.408114
C249	C	0.865274	-0.473249	-0.261673
C250	C	1.115274	-0.223249	-0.011673
C251	C	1.365274	0.026751	0.238327
C252	C	1.615274	0.276751	0.488327
C253	C	0.865296	-0.527850	-0.261689
C254	C	1.115296	-0.277850	-0.011689
C255	C	1.365296	-0.027850	0.238311
C256	C	1.615296	0.222150	0.488311
C257	C	0.905353	-0.555094	-0.301811
C258	C	1.155353	-0.305094	-0.051811
C259	C	1.405353	-0.055094	0.198189
C260	C	1.655353	0.194906	0.448189
O261	O	0.831307	-0.614279	-0.227615
O262	O	1.081307	-0.364279	0.022385
O263	O	1.331307	-0.114279	0.272385
O264	O	1.581307	0.135721	0.522385
O265	O	0.979462	-0.614115	-0.376046
O266	O	1.229462	-0.364115	-0.126046
O267	O	1.479462	-0.114115	0.123954
O268	O	1.729462	0.135885	0.373954
C269	C	1.068804	-0.251952	-0.301842
C270	C	1.318804	-0.001952	-0.051842
C271	C	1.568804	0.248048	0.198158
C272	C	1.818804	0.498048	0.448158
C273	C	1.138446	-0.251960	-0.301850
C274	C	1.388446	-0.001960	-0.051850
C275	C	1.638446	0.248040	0.198150
C276	C	1.888446	0.498040	0.448150
C277	C	0.905410	-0.251898	-0.465247
C278	C	1.155410	-0.001898	-0.215247
C279	C	1.405410	0.248102	0.034753
C280	C	1.655410	0.498102	0.284753
C281	C	0.905423	-0.251883	-0.534889
C282	C	1.155423	-0.001883	-0.284889
C283	C	1.405423	0.248117	-0.034889
C284	C	1.655423	0.498117	0.215111
C285	C	0.905487	-0.115558	-0.301887
C286	C	1.155487	0.134442	-0.051887
C287	C	1.405487	0.384442	0.198113
C288	C	1.655487	0.634442	0.448113
C289	C	0.905532	-0.057444	-0.301914
C290	C	1.155532	0.192556	-0.051914
C291	C	1.405532	0.442556	0.198086
C292	C	1.655532	0.692556	0.448086
C293	C	0.945581	-0.218365	-1.036706
C294	C	1.195581	0.031635	-0.786706
C295	C	1.445581	0.281635	-0.536706
C296	C	1.695581	0.531635	-0.286706
C297	C	0.945576	-0.218377	-0.971271
C298	C	1.195576	0.031623	-0.721271
C299	C	1.445576	0.281623	-0.471271
C300	C	1.695576	0.531623	-0.221271
C301	C	0.905476	-0.251814	-0.938527
C302	C	1.155476	-0.001814	-0.688527
C303	C	1.405476	0.248186	-0.438527
C304	C	1.655476	0.498186	-0.188527
C305	C	0.865390	-0.285249	-0.971225
C306	C	1.115390	-0.035249	-0.721225
C307	C	1.365390	0.214751	-0.471225
C308	C	1.615390	0.464751	-0.221225
C309	C	0.865401	-0.285240	-1.036659
C310	C	1.115401	-0.035240	-0.786659
C311	C	1.365401	0.214760	-0.536659
C312	C	1.615401	0.464760	-0.286659
C313	C	0.849007	-0.255951	-0.834851
C314	C	1.099007	-0.005951	-0.584851
C315	C	1.349007	0.244049	-0.334851
C316	C	1.599007	0.494049	-0.084851
C317	C	0.848996	-0.255957	-0.769418
C318	C	1.098996	-0.005957	-0.519418
C319	C	1.348996	0.244043	-0.269418
C320	C	1.598996	0.494043	-0.019418
C321	C	0.905444	-0.251847	-0.736706
C322	C	1.155444	-0.001847	-0.486706
C323	C	1.405444	0.248153	-0.236706
C324	C	1.655444	0.498153	0.013294
C325	C	0.961906	-0.247720	-0.769436
C326	C	1.211906	0.002280	-0.519436
C327	C	1.461906	0.252280	-0.269436
C328	C	1.711906	0.502280	-0.019436
C329	C	0.961917	-0.247710	-0.834870
C330	C	1.211917	0.002290	-0.584870
C331	C	1.461917	0.252290	-0.334870
C332	C	1.711917	0.502290	-0.084870
C333	C	0.905461	-0.251828	-0.867575
C334	C	1.155461	-0.001828	-0.617575
C335	C	1.405461	0.248172	-0.367575
C336	C	1.655461	0.498172	-0.117575
C337	C	0.945526	-0.218430	-0.633064
C338	C	1.195526	0.031570	-0.383064
C339	C	1.445526	0.281570	-0.133064
C340	C	1.695526	0.531570	0.116936
C341	C	0.945522	-0.218446	-0.567628
C342	C	1.195522	0.031554	-0.317628
C343	C	1.445522	0.281554	-0.067628
C344	C	1.695522	0.531554	0.182372
C345	C	0.865330	-0.285315	-0.567583
C346	C	1.115330	-0.035315	-0.317583
C347	C	1.365330	0.214685	-0.067583
C348	C	1.615330	0.464685	0.182417
C349	C	0.865340	-0.285302	-0.633018
C350	C	1.115340	-0.035302	-0.383018
C351	C	1.365340	0.214698	-0.133018
C352	C	1.615340	0.464698	0.116982
C353	C	0.905437	-0.251856	-0.665755
C354	C	1.155437	-0.001856	-0.415755
C355	C	1.405437	0.248144	-0.165755
C356	C	1.655437	0.498144	0.084245
C357	C	0.905388	-0.251927	-0.139037
C358	C	1.155388	-0.001927	0.110963
C359	C	1.405388	0.248073	0.360963
C360	C	1.655388	0.498073	0.610963
C361	C	0.905497	-0.251794	-0.069396
C362	C	1.155497	-0.001794	0.180604
C363	C	1.405497	0.248206	0.430604
C364	C	1.655497	0.498206	0.680604
H365	H	0.263288	-0.191358	-0.374671
H366	H	0.513288	0.058642	-0.124671
H367	H	0.763288	0.308642	0.125329
H368	H	1.013288	0.558642	0.375329
H369	H	0.465008	-0.259300	-0.199386
H370	H	0.715008	-0.009300	0.050614
H371	H	0.965008	0.240700	0.300614
H372	H	1.215008	0.490700	0.550614
Cl373	Cl	0.331802	-0.261121	-0.174389
Cl374	Cl	0.581802	-0.011121	0.075611
Cl375	Cl	0.831802	0.238879	0.325611
Cl376	Cl	1.081802	0.488879	0.575611
H377	H	0.978216	-0.191153	-0.944649
H378	H	1.228216	0.058847	-0.694649
H379	H	1.478216	0.308847	-0.444649
H380	H	1.728216	0.558847	-0.194649
H381	H	0.832683	-0.312542	-0.540924
H382	H	1.082683	-0.062542	-0.290924
H383	H	1.332683	0.187458	-0.040924
H384	H	1.582683	0.437458	0.209076
H385	H	0.792725	-0.801329	-0.188999
H386	H	1.042725	-0.551329	0.061001
H387	H	1.292725	-0.301329	0.311001
H388	H	1.542725	-0.051329	0.561001
Cl389	Cl	0.479593	-0.242749	-0.429266
Cl390	Cl	0.729593	0.007251	-0.179266
Cl391	Cl	0.979593	0.257251	0.070734
Cl392	Cl	1.229593	0.507251	0.320734
Cl393	Cl	0.277658	-0.327330	-0.211228
Cl394	Cl	0.527658	-0.077330	0.038772
Cl395	Cl	0.777658	0.172670	0.288772
Cl396	Cl	1.027658	0.422670	0.538772
H397	H	0.832884	-1.052460	-0.229139
H398	H	1.082884	-0.802460	0.020861
H399	H	1.332884	-0.552460	0.270861
H400	H	1.582884	-0.302460	0.520861
Cl401	Cl	0.331900	-0.242767	-0.429275
Cl402	Cl	0.581900	0.007233	-0.179275
Cl403	Cl	0.831900	0.257233	0.070725
Cl404	Cl	1.081900	0.507233	0.320725
H405	H	0.792688	-0.702279	-0.188985
H406	H	1.042688	-0.452279	0.061015
H407	H	1.292688	-0.202279	0.311015
H408	H	1.542688	0.047721	0.561015
H409	H	0.978182	-1.052277	-0.374678
H410	H	1.228182	-0.802277	-0.124678
H411	H	1.478182	-0.552277	0.125322
H412	H	1.728182	-0.302277	0.375322
H413	H	0.977999	-0.549915	-0.374581
H414	H	1.227999	-0.299915	-0.124581
H415	H	1.477999	-0.049915	0.125419
H416	H	1.727999	0.200085	0.375419
Cl417	Cl	0.129964	-0.327347	-0.211238
Cl418	Cl	0.379964	-0.077347	0.038762
Cl419	Cl	0.629964	0.172653	0.288762
Cl420	Cl	0.879964	0.422653	0.538762
Cl421	Cl	0.681295	-0.327297	-0.211200
Cl422	Cl	0.931295	-0.077297	0.038800
Cl423	Cl	1.181295	0.172703	0.288800
Cl424	Cl	1.431295	0.422703	0.538800
H425	H	0.832698	-0.550123	-0.229031
H426	H	1.082698	-0.300123	0.020969
H427	H	1.332698	-0.050123	0.270969
H428	H	1.582698	0.199877	0.520969
H429	H	0.832697	-0.312521	-0.659635
H430	H	1.082697	-0.062521	-0.409635
H431	H	1.332697	0.187479	-0.159635
H432	H	1.582697	0.437479	0.090365
H433	H	0.548110	-0.312515	-0.228985
H434	H	0.798110	-0.062515	0.021015
H435	H	1.048110	0.187485	0.271015
H436	H	1.298110	0.437485	0.521015
H437	H	1.018100	-0.701986	-0.414713
H438	H	1.268100	-0.451986	-0.164713
H439	H	1.518100	-0.201986	0.085287
H440	H	1.768100	0.048014	0.335287
H441	H	1.007890	-0.244351	-0.861516
H442	H	1.257890	0.005649	-0.611516
H443	H	1.507890	0.255649	-0.361516
H444	H	1.757890	0.505649	-0.111516
H445	H	0.144582	-0.191368	-0.374680
H446	H	0.394582	0.058632	-0.124680
H447	H	0.644582	0.308632	0.125320
H448	H	0.894582	0.558632	0.375320
H449	H	0.977972	-0.450864	-0.374541
H450	H	1.227972	-0.200864	-0.124541
H451	H	1.477972	0.049136	0.125459
H452	H	1.727972	0.299136	0.375459
H453	H	0.832838	-0.953410	-0.229127
H454	H	1.082838	-0.703410	0.020873
H455	H	1.332838	-0.453410	0.270873
H456	H	1.582838	-0.203410	0.520873
Cl457	Cl	0.815005	-0.327269	-1.077757
Cl458	Cl	1.065005	-0.077269	-0.827757
Cl459	Cl	1.315005	0.172731	-0.577757
Cl460	Cl	1.565005	0.422731	-0.327757
Cl461	Cl	1.032876	-0.242563	-0.728321
Cl462	Cl	1.282876	0.007437	-0.478321
Cl463	Cl	1.532876	0.257437	-0.228321
Cl464	Cl	1.782876	0.507437	0.021679
H465	H	0.803021	-0.259317	-0.742774
H466	H	1.053021	-0.009317	-0.492774
H467	H	1.303021	0.240683	-0.242774
H468	H	1.553021	0.490683	0.007226
H469	H	0.832665	-0.451057	-0.229012
H470	H	1.082665	-0.201057	0.020988
H471	H	1.332665	0.048943	0.270988
H472	H	1.582665	0.298943	0.520988
H473	H	1.018133	-0.801034	-0.414739
H474	H	1.268133	-0.551034	-0.164739
H475	H	1.518133	-0.301034	0.085261
H476	H	1.768133	-0.051034	0.335261
H477	H	0.978152	-0.953211	-0.374661
H478	H	1.228152	-0.703211	-0.124661
H479	H	1.478152	-0.453211	0.125339
H480	H	1.728152	-0.203211	0.375339
Cl481	Cl	0.996013	-0.176340	-1.077857
Cl482	Cl	1.246013	0.073660	-0.827857
Cl483	Cl	1.496013	0.323660	-0.577857
Cl484	Cl	1.746013	0.573660	-0.327857
H485	H	0.978175	-0.191196	-0.659720
H486	H	1.228175	0.058804	-0.409720
H487	H	1.478175	0.308804	-0.159720
H488	H	1.728175	0.558804	0.090280
Cl489	Cl	0.995921	-0.176420	-0.526531
Cl490	Cl	1.245921	0.073580	-0.276531
Cl491	Cl	1.495921	0.323580	-0.026531
Cl492	Cl	1.745921	0.573580	0.223469
Cl493	Cl	0.778035	-0.261110	-0.875966
Cl494	Cl	1.028035	-0.011110	-0.625966
Cl495	Cl	1.278035	0.238890	-0.375966
Cl496	Cl	1.528035	0.488890	-0.125966
H497	H	0.832742	-0.312474	-0.944561
H498	H	1.082742	-0.062474	-0.694561
H499	H	1.332742	0.187526	-0.444561
H500	H	1.582742	0.437526	-0.194561
H501	H	0.548218	-0.191330	-0.374651
H502	H	0.798218	0.058670	-0.124651
H503	H	1.048218	0.308670	0.125349
H504	H	1.298218	0.558670	0.375349
H505	H	0.666925	-0.191329	-0.374652
H506	H	0.916925	0.058671	-0.124652
H507	H	1.166925	0.308671	0.125348
H508	H	1.416925	0.558671	0.375348
