data_functionalizedCrystal
_audit_creation_method	'MofGen! by Chris Wilmer'
_symmetry_space_group_name_H-M	'P1'
_symmetry_Int_Tables_number	1
_symmetry_cell_setting	triclinic
loop_
_symmetry_equiv_pos_as_xyz
  x,y,z
_cell_length_a	14.971506
_cell_length_b	11.792254
_cell_length_c	14.048226
_cell_angle_alpha	89.993407
_cell_angle_beta	89.993237
_cell_angle_gamma	83.910493
loop_
_atom_site_label
_atom_site_type_symbol
_atom_site_fract_x
_atom_site_fract_y
_atom_site_fract_z
O1	O	1.187534	0.148018	-0.079168
O2	O	0.927208	0.165706	-0.079168
O3	O	1.063683	-0.008348	-0.079161
O4	O	1.051060	0.322071	-0.079175
O5	O	1.063666	-0.008358	0.079160
O6	O	0.927191	0.165696	0.079153
O7	O	1.187518	0.148007	0.079154
Zn8	Zn	1.057352	0.156850	0.104290
Zn9	Zn	1.057374	0.156863	-0.104305
O10	O	1.051043	0.322061	0.079147
C11	C	0.893872	0.164906	-0.000008
C12	C	0.794566	0.162523	-0.000008
C13	C	0.356660	0.255683	-0.000021
C14	C	0.449970	0.257913	-0.000025
C15	C	0.506776	0.155649	-0.000017
C16	C	0.470269	0.051149	-0.000014
C17	C	0.376962	0.048920	-0.000017
C18	C	0.664751	0.055802	-0.000006
C19	C	0.758065	0.058031	-0.000002
C20	C	0.737759	0.264794	-0.000015
C21	C	0.644451	0.262566	-0.000018
C22	C	0.607951	0.158065	-0.000013
C23	C	1.062879	-0.050639	-0.000001
C24	C	1.060499	-0.176637	-0.000002
C25	C	1.058565	-0.278961	-0.000005
C26	C	1.056147	-0.407332	-0.000014
C27	C	1.220854	0.148808	-0.000009
C28	C	1.320159	0.151191	-0.000015
C29	C	1.051846	0.364352	-0.000016
C30	C	1.054227	0.490350	-0.000021
N31	N	1.057344	0.156840	0.246651
N32	N	1.057389	0.156864	-0.246666
C33	C	1.117794	0.079801	0.296472
C34	C	1.117800	0.079800	0.396130
C35	C	1.057359	0.156845	0.445964
C36	C	0.996903	0.233888	0.396136
C37	C	0.996893	0.233882	0.296480
C38	C	0.996928	0.233896	0.603851
C39	C	0.996939	0.233904	0.703513
C40	C	1.117835	0.079814	0.703500
C41	C	1.117826	0.079808	0.603844
C42	C	1.057370	0.156853	0.554023
H43	H	0.635036	-0.029293	-0.000007
C44	C	0.930398	0.318629	0.241674
C45	C	0.863945	0.403418	0.296487
C46	C	0.797445	0.488163	0.241682
C47	C	0.797397	0.488121	0.132065
C48	C	0.863852	0.403329	0.077246
C49	C	0.930353	0.318584	0.132050
H50	H	0.863979	0.403452	0.377638
H51	H	0.748251	0.550932	0.282263
H52	H	0.748169	0.550855	0.091495
H53	H	0.863819	0.403295	-0.003905
H54	H	0.979547	0.255815	0.091469
C55	C	1.184309	-0.004938	0.549021
C56	C	1.182186	-0.134189	0.562732
C57	C	1.248668	-0.218938	0.507907
C58	C	1.317274	-0.174435	0.439371
C59	C	1.319399	-0.045178	0.425657
C60	C	1.252917	0.039571	0.480482
H61	H	1.131398	-0.167138	0.613469
H62	H	1.247094	-0.314623	0.518060
H63	H	1.366488	-0.237171	0.398786
H64	H	1.370187	-0.012229	0.374920
H65	H	1.254491	0.135256	0.470329
H66	H	1.167022	0.017068	0.436694
C67	C	0.336806	-0.066022	-0.000007
C68	C	0.275435	-0.095988	0.082201
C69	C	0.235280	-0.210934	0.082205
C70	C	0.256496	-0.295914	0.000000
C71	C	0.317870	-0.265950	-0.082215
C72	C	0.358025	-0.151004	-0.082219
H73	H	0.259727	-0.033079	0.143060
H74	H	0.189847	-0.233115	0.143067
H75	H	0.226771	-0.381003	0.000003
H76	H	0.333578	-0.328859	-0.143073
H77	H	0.403458	-0.128823	-0.143080
H78	H	0.947721	0.296640	0.744084
H79	H	0.947686	0.296615	0.436717
H80	H	1.167015	0.017067	0.255903
H81	H	0.310414	0.338958	-0.000021
H82	H	1.167060	0.017082	0.744070
C83	C	0.532755	-0.061342	-0.000006
C84	C	0.599679	-0.088244	0.082213
C85	C	0.662164	-0.200738	0.082224
C86	C	0.657724	-0.286330	0.000016
C87	C	0.590798	-0.259430	-0.082209
C88	C	0.528313	-0.146936	-0.082220
H89	H	0.602968	-0.024882	0.143073
H90	H	0.711707	-0.220651	0.143093
H91	H	0.703979	-0.369605	0.000025
H92	H	0.587509	-0.322792	-0.143069
H93	H	0.478769	-0.127024	-0.143088
H94	H	0.804315	-0.025241	-0.000003
C95	C	0.581964	0.375056	-0.000023
C96	C	0.586425	0.460654	-0.082240
C97	C	0.523938	0.573146	-0.082246
C98	C	0.456990	0.600040	-0.000035
C99	C	0.452527	0.514440	0.082188
C100	C	0.515014	0.401948	0.082194
H101	H	0.635985	0.440747	-0.143103
H102	H	0.527242	0.636513	-0.143114
H103	H	0.410734	0.683313	-0.000040
H104	H	0.402966	0.534346	0.143051
H105	H	0.511710	0.338581	0.143062
H106	H	0.947696	0.296630	0.563289
H107	H	0.767482	0.349883	-0.000018
H108	H	0.479684	0.343000	-0.000039
