data_functionalizedCrystal
_audit_creation_method	'MofGen! by Chris Wilmer'
_symmetry_space_group_name_H-M	'P1'
_symmetry_Int_Tables_number	1
_symmetry_cell_setting	triclinic
loop_
_symmetry_equiv_pos_as_xyz
  x,y,z
_cell_length_a	19.121385
_cell_length_b	17.638656
_cell_length_c	17.640968
_cell_angle_alpha	87.858322
_cell_angle_beta	98.350924
_cell_angle_gamma	103.141524
loop_
_atom_site_label
_atom_site_type_symbol
_atom_site_fract_x
_atom_site_fract_y
_atom_site_fract_z
Zn1	Zn	-1.119415	0.174250	-0.428637
Zn2	Zn	-1.073828	0.328610	-0.329820
Zn3	Zn	-0.975007	0.205274	-0.309639
Zn4	Zn	-0.984162	0.306200	-0.461722
O5	O	-1.038103	0.253583	-0.382455
O6	O	-1.211328	0.191121	-0.410129
O7	O	-1.037810	0.334611	-0.222141
O8	O	-1.009410	0.094320	-0.303133
O9	O	-1.177836	0.304528	-0.337529
O10	O	-1.115505	0.071527	-0.390560
O11	O	-0.965206	0.243997	-0.207314
O12	O	-0.878261	0.222267	-0.335213
O13	O	-1.025013	0.266334	-0.562336
O14	O	-0.884987	0.296417	-0.446948
O15	O	-1.124383	0.169391	-0.538029
O16	O	-1.046687	0.432475	-0.369609
O17	O	-0.980810	0.416011	-0.466517
C18	C	-0.856224	0.260277	-0.392481
C19	C	-0.778416	0.263156	-0.396792
C20	C	-0.338545	0.281339	-0.424144
C21	C	-0.411649	0.278643	-0.420081
C22	C	-0.444705	0.238594	-0.359938
C23	C	-0.404650	0.201245	-0.303851
C24	C	-0.331546	0.203945	-0.307912
C25	C	-0.665257	0.228507	-0.344766
C26	C	-0.738368	0.225807	-0.340711
C27	C	-0.745361	0.303207	-0.456940
C28	C	-0.672256	0.305901	-0.460998
C29	C	-0.632207	0.268555	-0.404909
C30	C	-0.519430	0.235835	-0.355784
C31	C	-0.557482	0.271318	-0.409060
C32	C	-1.009818	0.451941	-0.423858
C33	C	-0.997787	0.536791	-0.441593
C34	C	-0.220691	0.246861	-0.372380
C35	C	-0.298496	0.243990	-0.368062
C36	C	-1.129954	0.858529	-0.247821
C37	C	-1.118640	0.938257	-0.264498
C38	C	-1.049950	0.921176	-0.365336
C39	C	-1.061256	0.841446	-0.348664
C40	C	-1.101259	0.810129	-0.289907
C41	C	-1.032561	0.793046	-0.390751
C42	C	-1.043869	0.713322	-0.374083
C43	C	-1.083872	0.681998	-0.315330
C44	C	-1.112567	0.730405	-0.273239
C45	C	-0.992562	0.824363	-0.449512
C46	C	-0.963867	0.775963	-0.491598
C47	C	-0.975170	0.696239	-0.474927
C48	C	-1.015174	0.664915	-0.416174
C49	C	-0.946475	0.647832	-0.517018
C50	C	-0.957783	0.568108	-0.500350
C51	C	-1.026482	0.585191	-0.399507
C52	C	-1.080804	0.211902	-0.578169
C53	C	-1.099001	0.194140	-0.661571
C54	C	-1.066525	1.054445	-0.340916
C55	C	-1.078647	0.969577	-0.323245
C56	C	-0.900192	0.388094	-0.999146
C57	C	-0.917307	0.371394	-1.077512
C58	C	-1.020771	0.270456	-1.052193
C59	C	-1.003663	0.287145	-0.973823
C60	C	-0.943373	0.345966	-0.947306
C61	C	-1.046844	0.245016	-0.921983
C62	C	-1.029739	0.261707	-0.843620
C63	C	-0.969453	0.320527	-0.817097
C64	C	-0.926268	0.362657	-0.868944
C65	C	-1.107137	0.186199	-0.948502
C66	C	-1.150318	0.144071	-0.896662
C67	C	-1.133211	0.160758	-0.818297
C68	C	-1.072925	0.219578	-0.791774
C69	C	-1.176396	0.118628	-0.766450
C70	C	-1.159291	0.135319	-0.688088
C71	C	-1.055820	0.236269	-0.713411
C72	C	-0.995616	0.295046	-0.187488
C73	C	-0.977585	0.312588	-0.104034
H74	H	-0.765282	0.193184	-0.291739
C75	C	-1.096310	0.594299	-0.296995
N76	N	-1.105677	0.528244	-0.283184
C77	C	-0.902474	0.682292	-0.581650
N78	N	-0.869331	0.708247	-0.630331
C79	C	-1.156576	0.695952	-0.208605
N80	N	-1.189726	0.670000	-0.159928
H81	H	-0.777977	0.333613	-0.502604
H82	H	-0.632656	0.198101	-0.299092
H83	H	-0.431569	0.168640	-0.254879
H84	H	-1.162523	0.833032	-0.199969
C85	C	-1.150208	0.991496	-0.218193
N86	N	-1.173986	1.031596	-0.183317
C87	C	-0.287493	0.162857	-0.246219
N88	N	-0.254313	0.131909	-0.199749
H89	H	-1.017381	0.946685	-0.413178
H90	H	-0.955530	0.334119	-0.753289
H91	H	-0.983360	0.889279	-0.463083
H92	H	-0.931298	0.801472	-0.539440
C93	C	-0.635894	0.349979	-0.527147
N94	N	-0.608505	0.383184	-0.576967
C95	C	-0.555803	0.191766	-0.289639
N96	N	-0.583203	0.158570	-0.239820
H97	H	-0.530564	0.303929	-0.458026
H98	H	-1.069861	0.222566	-1.073794
C99	C	-0.926204	0.514868	-0.546637
N100	N	-0.902415	0.474767	-0.581499
H101	H	-1.059050	0.559694	-0.351655
C102	C	-0.989497	0.300974	-0.684239
N103	N	-0.939546	0.349710	-0.662266
C104	C	-0.859945	0.427362	-0.839771
N105	N	-0.809994	0.476098	-0.817799
C106	C	-0.833869	0.452800	-0.969974
N107	N	-0.783918	0.501536	-0.948001
C108	C	-0.869797	0.417742	-1.134535
N109	N	-0.834014	0.452651	-1.177485
C110	C	-1.125950	0.167839	-1.034704
N111	N	-1.140119	0.154010	-1.099632
C112	C	-1.216630	0.079363	-0.925839
N113	N	-1.266575	0.030621	-0.947813
H114	H	-1.225488	0.070742	-0.788054
H115	H	-1.194453	0.101013	-0.645878
H116	H	-0.444253	0.309058	-0.465747
C117	C	-0.302190	0.325398	-0.490305
N118	N	-0.274808	0.358589	-0.540137
