data_functionalizedCrystal
_audit_creation_method	'MofGen! by Chris Wilmer'
_symmetry_space_group_name_H-M	'P1'
_symmetry_Int_Tables_number	1
_symmetry_cell_setting	triclinic
loop_
_symmetry_equiv_pos_as_xyz
  x,y,z
_cell_length_a	12.827893
_cell_length_b	15.297327
_cell_length_c	12.827885
_cell_angle_alpha	99.642748
_cell_angle_beta	89.980538
_cell_angle_gamma	99.706564
loop_
_atom_site_label
_atom_site_type_symbol
_atom_site_fract_x
_atom_site_fract_y
_atom_site_fract_z
Zn1	Zn	1.525604	-0.359117	-0.662774
Zn2	Zn	1.495218	-0.510002	-0.518254
Zn3	Zn	1.350836	-0.359161	-0.488057
Zn4	Zn	1.320564	-0.509935	-0.692941
O5	O	1.423055	-0.434554	-0.590506
O6	O	1.667807	-0.379142	-0.643616
O7	O	1.476017	-0.490040	-0.368022
O8	O	1.399404	-0.232910	-0.485971
O9	O	1.645482	-0.489997	-0.537438
O10	O	1.527806	-0.232878	-0.614335
O11	O	1.369940	-0.379217	-0.345836
O12	O	1.200586	-0.379152	-0.515222
O13	O	1.347811	-0.489883	-0.835166
O14	O	1.178346	-0.489925	-0.665749
O15	O	1.498453	-0.379077	-0.813003
O16	O	1.446664	-0.636239	-0.566689
O17	O	1.318347	-0.636189	-0.695031
C18	C	1.151549	-0.434537	-0.590483
C19	C	1.035393	-0.434551	-0.590502
C20	C	0.972613	-0.489451	-0.664907
C21	C	0.852560	-0.489467	-0.664929
C22	C	1.375952	-0.668948	-0.637433
C23	C	1.355896	-0.769223	-0.657544
C24	C	1.566826	-1.051858	-0.447130
C25	C	1.585669	-0.957645	-0.428230
C26	C	1.528228	-0.910535	-0.485557
C27	C	1.451940	-0.957647	-0.561787
C28	C	1.433089	-1.051869	-0.580683
C29	C	1.394491	-0.910546	-0.619110
C30	C	1.318203	-0.957658	-0.695340
C31	C	1.299357	-1.051871	-0.714233
C32	C	1.356798	-1.098981	-0.656906
C33	C	1.413341	-0.816324	-0.600214
C34	C	1.279605	-0.816335	-0.733767
C35	C	1.260762	-0.910548	-0.752667
C36	C	1.695622	-0.434572	-0.590531
C37	C	1.811773	-0.434580	-0.590541
C38	C	1.423145	-0.434468	-0.863059
C39	C	1.423183	-0.434431	-0.979205
C40	C	1.470371	-0.199245	-0.543419
C41	C	1.490535	-0.098970	-0.523353
C42	C	1.370715	-0.379581	-1.020009
C43	C	1.370753	-0.379542	-1.140052
C44	C	1.423039	-0.434575	-0.319001
C45	C	1.423255	-0.434358	-0.202805
H46	H	0.865713	-0.387579	-0.526834
O47	O	1.225366	-1.097595	-0.788418
C48	C	1.252760	-1.074472	-0.887952
H49	H	1.341435	-1.048511	-0.888093
H50	H	1.207657	-1.019803	-0.904255
C51	C	1.114911	-1.190015	-0.974289
C52	C	1.223826	-1.158137	-0.974466
H53	H	1.097060	-1.241622	-1.027657
H54	H	1.096453	-1.205592	-0.907231
H55	H	1.077339	-1.144449	-0.987872
H56	H	1.261396	-1.203698	-0.960870
H57	H	1.242290	-1.142570	-1.041524
H58	H	1.468129	-0.481361	-1.033142
O59	O	1.186649	-0.956178	-0.826781
C60	C	1.139967	-0.894404	-0.873314
H61	H	1.196205	-0.827207	-0.863495
H62	H	1.062606	-0.884468	-0.832986
C63	C	1.048436	-1.013650	-1.003942
C64	C	1.117512	-0.931120	-0.991891
H65	H	1.034579	-1.036299	-1.077085
H66	H	1.079883	-1.055269	-0.972591
H67	H	0.983976	-1.005359	-0.970330
H68	H	1.181974	-0.939414	-1.025492
H69	H	1.086075	-0.889503	-1.023251
H70	H	1.543573	-0.833822	-0.470163
H71	H	1.000262	-0.387558	-0.526821
O72	O	1.476770	-0.490511	-1.161048
C73	C	1.435859	-0.580438	-1.205616
H74	H	1.395397	-0.582340	-1.285268
H75	H	1.375956	-0.610789	-1.150278
C76	C	1.576444	-0.632760	-1.123624
C77	C	1.526755	-0.635098	-1.221459
H78	H	1.632511	-0.666479	-1.133393
H79	H	1.604005	-0.572176	-1.093594
H80	H	1.526515	-0.658052	-1.077520
H81	H	1.576681	-0.609796	-1.267557
H82	H	1.499205	-0.695679	-1.251497
H83	H	1.007745	-0.536437	-0.728595
H84	H	0.798613	-0.536471	-0.728627
O85	O	1.487374	-0.770664	-0.526048
C86	C	1.459951	-0.793755	-0.426506
H87	H	1.406086	-0.862191	-0.438033
H88	H	1.416840	-0.740788	-0.380639
C89	C	1.627150	-0.714029	-0.350003
C90	C	1.561000	-0.798087	-0.364161
H91	H	1.689481	-0.716698	-0.311542
H92	H	1.645625	-0.698469	-0.417064
H93	H	1.591213	-0.669899	-0.311783
H94	H	1.596932	-0.842213	-0.402390
H95	H	1.542533	-0.813655	-0.297103
H96	H	1.647780	-0.919290	-0.366164
O97	O	1.317182	-0.323621	-0.955517
C98	C	1.329047	-0.336130	-0.850020
H99	H	1.403757	-0.365699	-0.841142
H100	H	1.257414	-0.384202	-0.828660
C101	C	1.246090	-0.208594	-0.786530
C102	C	1.337855	-0.244905	-0.775624
H103	H	1.251519	-0.152324	-0.740638
H104	H	1.238093	-0.200168	-0.857605
H105	H	1.186405	-0.248663	-0.768732
H106	H	1.397536	-0.204841	-0.793435
H107	H	1.345863	-0.253322	-0.704550
O108	O	1.622523	-1.097759	-0.391544
C109	C	1.589485	-1.191019	-0.424531
H110	H	1.552691	-1.203864	-0.507742
H111	H	1.528461	-1.217808	-0.367898
C112	C	1.730722	-1.223574	-0.322464
C113	C	1.685540	-1.239351	-0.424668
H114	H	1.789971	-1.253390	-0.322544
H115	H	1.752979	-1.160744	-0.300236
H116	H	1.679859	-1.245899	-0.275280
H117	H	1.736398	-1.217017	-0.471847
H118	H	1.663294	-1.302179	-0.446904
H119	H	1.341463	-1.175698	-0.672293
H120	H	1.325839	-0.332580	-1.175184
O121	O	1.223960	-0.770542	-0.789566
C122	C	1.294345	-0.715943	-0.846145
H123	H	1.370976	-0.744277	-0.858354
H124	H	1.312246	-0.644556	-0.799520
C125	C	1.149410	-0.679657	-0.939443
C126	C	1.243527	-0.714463	-0.954447
H127	H	1.118063	-0.678740	-1.006246
H128	H	1.101990	-0.716439	-0.901322
H129	H	1.164341	-0.620172	-0.900586
H130	H	1.228593	-0.773951	-0.993291
H131	H	1.290944	-0.677691	-0.992577
