data_functionalizedCrystal
_audit_creation_method	'MofGen! by Chris Wilmer'
_symmetry_space_group_name_H-M	'P1'
_symmetry_Int_Tables_number	1
_symmetry_cell_setting	triclinic
loop_
_symmetry_equiv_pos_as_xyz
  x,y,z
_cell_length_a	12.759401
_cell_length_b	16.625546
_cell_length_c	12.759393
_cell_angle_alpha	89.964881
_cell_angle_beta	89.979062
_cell_angle_gamma	90.023993
loop_
_atom_site_label
_atom_site_type_symbol
_atom_site_fract_x
_atom_site_fract_y
_atom_site_fract_z
Zn1	Zn	1.606210	-0.320930	-0.593986
Zn2	Zn	1.606077	-0.455784	-0.418292
Zn3	Zn	1.430508	-0.320973	-0.418322
Zn4	Zn	1.430476	-0.455728	-0.593930
O5	O	1.518318	-0.388354	-0.506132
O6	O	1.753213	-0.338824	-0.570692
O7	O	1.582745	-0.437943	-0.271275
O8	O	1.453884	-0.208135	-0.441660
O9	O	1.753116	-0.437901	-0.441610
O10	O	1.582971	-0.208103	-0.570720
O11	O	1.453756	-0.338897	-0.271297
O12	O	1.283483	-0.338843	-0.441605
O13	O	1.453830	-0.437805	-0.740958
O14	O	1.283460	-0.437847	-0.570623
O15	O	1.582940	-0.338770	-0.741000
O16	O	1.582714	-0.568609	-0.441555
O17	O	1.453701	-0.568568	-0.570595
C18	C	1.245350	-0.388344	-0.506112
C19	C	1.128574	-0.388359	-0.506128
C20	C	1.073727	-0.439989	-0.573202
C21	C	0.964003	-0.439992	-0.573223
C22	C	0.963982	-0.336733	-0.439086
C23	C	1.073704	-0.336726	-0.439071
C24	C	0.814102	-0.468924	-0.697080
C25	C	0.759252	-0.520566	-0.764145
C26	C	0.794835	-0.599254	-0.780084
C27	C	0.885268	-0.626316	-0.728944
C28	C	0.940113	-0.574678	-0.661871
C29	C	0.904530	-0.495979	-0.645952
C30	C	1.223607	-0.307803	-0.315212
C31	C	1.278454	-0.256168	-0.248134
C32	C	1.242872	-0.177479	-0.232183
C33	C	1.152436	-0.150420	-0.283306
C34	C	1.097590	-0.202055	-0.350384
C35	C	1.133179	-0.280743	-0.366336
C36	C	1.518218	-0.597844	-0.506088
C37	C	1.518272	-0.687466	-0.506105
C38	C	1.518455	-1.015641	-0.506214
C39	C	1.518401	-0.924333	-0.506187
C40	C	1.518363	-0.851556	-0.506159
C41	C	1.518310	-0.760242	-0.506132
C42	C	1.792351	-0.388364	-0.506154
C43	C	1.909128	-0.388369	-0.506163
C44	C	1.518396	-0.388276	-0.780166
C45	C	1.518430	-0.388243	-0.896943
C46	C	1.518446	-0.178045	-0.506200
C47	C	1.518501	-0.088424	-0.506228
C48	C	1.585663	-0.336667	-0.951828
C49	C	1.585681	-0.336632	-1.061552
C50	C	1.451230	-0.439757	-1.061496
C51	C	1.451208	-0.439787	-0.951774
C52	C	1.623309	-0.241501	-1.211540
C53	C	1.690559	-0.189932	-1.266429
C54	C	1.793074	-0.177568	-1.230839
C55	C	1.828360	-0.216784	-1.140362
C56	C	1.761117	-0.268359	-1.085478
C57	C	1.658587	-0.280708	-1.121067
C58	C	1.413589	-0.534919	-0.801784
C59	C	1.346350	-0.586499	-0.746898
C60	C	1.243834	-0.598871	-0.782486
C61	C	1.208551	-0.559669	-0.872967
C62	C	1.275790	-0.508089	-0.927853
C63	C	1.378306	-0.495716	-0.892257
C64	C	1.518300	-0.388372	-0.233165
C65	C	1.518470	-0.388178	-0.116389
H66	H	1.252593	-0.371876	-0.328203
H67	H	1.287534	-0.135441	-0.177553
N68	N	1.384387	-0.628780	-0.649299
H69	H	1.379865	-0.688902	-0.659673
H70	H	1.459516	-0.613053	-0.635115
N71	N	1.097973	-0.573009	-0.911343
H72	H	1.059252	-0.520043	-0.912491
H73	H	1.099931	-0.596321	-0.984393
N74	N	0.661719	-0.491376	-0.819299
H75	H	0.679727	-0.443734	-0.865048
H76	H	0.632412	-0.536080	-0.864141
H77	H	1.247054	-0.476169	-1.001527
N78	N	1.375995	-0.285351	-0.192988
H79	H	1.390222	-0.343034	-0.213275
H80	H	1.437493	-0.250675	-0.214113
H81	H	0.919294	-0.294697	-0.384490
N82	N	1.000045	-0.172874	-0.405525
H83	H	0.985822	-0.115189	-0.385244
H84	H	1.010548	-0.176444	-0.483842
H85	H	1.013740	-0.596711	-0.620233
H86	H	1.118399	-0.482029	-0.627806
N87	N	1.938937	-0.203448	-1.101983
H88	H	1.937060	-0.180170	-1.028910
H89	H	1.977593	-0.256440	-1.100908
N90	N	0.923635	-0.711196	-0.746117
H91	H	0.875168	-0.739802	-0.796365
H92	H	0.996743	-0.709720	-0.776427
N93	N	1.171312	-0.654512	-0.723298
H94	H	1.209217	-0.677478	-0.660583
H95	H	1.107779	-0.623498	-0.698933
H96	H	1.789848	-0.300292	-1.011816
N97	N	1.658162	-0.281076	-0.892686
H98	H	1.700754	-0.248397	-0.944110
H99	H	1.615411	-0.243772	-0.847166
H100	H	1.497065	-0.524843	-0.772793
H101	H	1.661819	-0.158002	-1.340096
N102	N	1.865611	-0.121952	-1.290040
H103	H	1.827704	-0.098988	-1.352755
H104	H	1.888550	-0.076719	-1.242477
N105	N	1.378713	-0.495336	-1.120635
H106	H	1.388924	-0.487489	-1.198473
H107	H	1.395006	-0.552932	-1.101448
H108	H	0.750169	-0.641302	-0.834692
H109	H	0.785128	-0.404847	-0.684119
H110	H	1.123453	-0.086349	-0.270302
H111	H	1.539831	-0.251557	-1.240521
