data_functionalizedCrystal
_audit_creation_method	'MofGen! by Chris Wilmer'
_symmetry_space_group_name_H-M	'P1'
_symmetry_Int_Tables_number	1
_symmetry_cell_setting	triclinic
loop_
_symmetry_equiv_pos_as_xyz
  x,y,z
_cell_length_a	23.532355
_cell_length_b	23.532407
_cell_length_c	17.666332
_cell_angle_alpha	90.009886
_cell_angle_beta	90.003432
_cell_angle_gamma	82.838088
loop_
_atom_site_label
_atom_site_type_symbol
_atom_site_fract_x
_atom_site_fract_y
_atom_site_fract_z
O1	O	0.755283	0.068994	0.062853
O2	O	0.589415	0.079028	0.062878
O3	O	0.677351	-0.008922	0.062851
O4	O	0.667347	0.156944	0.062880
O5	O	0.677335	-0.008924	-0.063046
O6	O	0.589400	0.079026	-0.063019
O7	O	0.755267	0.068992	-0.063044
Cu8	Cu	0.672332	0.074008	-0.074527
Cu9	Cu	0.672350	0.074011	0.074361
O10	O	0.667332	0.156941	-0.063017
C11	C	0.568191	0.078776	-0.000067
C12	C	0.504972	0.078022	-0.000058
C13	C	0.677088	-0.030139	-0.000099
C14	C	0.676322	-0.093356	-0.000105
C15	C	0.112950	0.073283	-0.068717
C16	C	0.053550	0.072565	-0.068720
O17	O	0.022825	0.072174	-0.127083
N18	N	0.023850	0.072211	-0.000094
C19	C	0.053554	0.072568	0.068539
O20	O	0.022837	0.072200	0.126911
C21	C	0.112952	0.073281	0.068542
C22	C	0.142649	0.073641	-0.000089
C23	C	0.142646	0.073642	-0.137342
C24	C	0.202041	0.074361	-0.137339
C25	C	0.231740	0.074719	-0.068710
C26	C	0.202044	0.074360	-0.000085
C27	C	0.142655	0.073634	0.137174
C28	C	0.202058	0.074347	0.137171
C29	C	0.231754	0.074708	0.068540
C30	C	0.291138	0.075437	0.068546
N31	N	0.320838	0.075792	-0.000080
C32	C	0.291139	0.075433	-0.068708
C33	C	-0.071188	0.071069	0.068529
C34	C	-0.130586	0.070360	0.068528
C35	C	-0.130585	0.070356	-0.068732
C36	C	-0.071186	0.071069	-0.068730
C37	C	-0.041488	0.071423	-0.000097
C38	C	0.415873	0.076942	-0.068696
C39	C	0.475273	0.077663	-0.068686
C40	C	0.475267	0.077664	0.068573
C41	C	0.415872	0.076946	0.068564
C42	C	0.386177	0.076583	-0.000077
O43	O	0.321902	0.075827	0.126880
O44	O	0.321864	0.075793	-0.127070
C45	C	0.723557	-0.492468	-0.000071
C46	C	0.722845	-0.551868	-0.000065
O47	O	0.766632	-0.588620	-0.000044
N48	N	0.670568	-0.574484	-0.000057
C49	C	0.618998	-0.537697	-0.000048
O50	O	0.574467	-0.562388	-0.000041
C51	C	0.619710	-0.478298	-0.000049
C52	C	0.671991	-0.455685	-0.000064
C53	C	0.775834	-0.469854	-0.000085
C54	C	0.776545	-0.410458	-0.000092
C55	C	0.724979	-0.373676	-0.000085
C56	C	0.672703	-0.396289	-0.000071
C57	C	0.568141	-0.441512	-0.000034
C58	C	0.568858	-0.382110	-0.000034
C59	C	0.621139	-0.359497	-0.000049
C60	C	0.621848	-0.300110	-0.000071
N61	N	0.674126	-0.277494	-0.000079
C62	C	0.725691	-0.314277	-0.000086
C63	C	0.617507	-0.662439	-0.000046
C64	C	0.616794	-0.721837	-0.000051
C65	C	0.720642	-0.736004	-0.000066
C66	C	0.721354	-0.676605	-0.000067
C67	C	0.669784	-0.639823	-0.000053
C68	C	0.727181	-0.189540	-0.000102
C69	C	0.727888	-0.130138	-0.000112
C70	C	0.624041	-0.115977	-0.000093
C71	C	0.623334	-0.175373	-0.000086
C72	C	0.674909	-0.212154	-0.000088
O73	O	0.578084	-0.263323	-0.000090
O74	O	0.770216	-0.289577	-0.000083
C75	C	0.776491	0.069244	-0.000097
C76	C	0.839710	0.069998	-0.000101
C77	C	0.667594	0.178158	-0.000065
C78	C	0.668360	0.241375	-0.000054
N79	N	0.672323	0.074006	-0.179246
C80	C	0.706664	0.108369	-0.218848
C81	C	0.706673	0.108367	-0.298096
C82	C	0.672331	0.074009	-0.337738
C83	C	0.637988	0.039639	-0.298126
C84	C	0.637985	0.039638	-0.218880
N85	N	0.622455	0.072745	-0.462171
N86	N	0.622460	0.072750	-0.537451
C87	C	0.672341	0.074011	-0.576502
N88	N	0.722217	0.075278	-0.537429
N89	N	0.722211	0.075277	-0.462141
C90	C	0.672332	0.074007	-0.423667
C91	C	0.706695	0.108374	-0.702034
C92	C	0.706705	0.108368	-0.781283
C93	C	0.638015	0.039644	-0.781311
C94	C	0.638010	0.039646	-0.702064
C95	C	0.672349	0.074014	-0.662430
N96	N	0.672363	0.074009	0.179080
H97	H	0.499449	0.077958	-0.124576
H98	H	-0.047012	0.071363	-0.124615
H99	H	-0.154777	0.070062	-0.124613
H100	H	0.391702	0.076652	-0.124590
H101	H	0.526863	-0.352164	-0.000022
H102	H	0.580762	-0.193785	-0.000095
H103	H	0.391691	0.076662	0.124448
H104	H	0.610028	0.011664	-0.330408
H105	H	0.817827	-0.499797	-0.000088
H106	H	0.610044	0.011666	-0.669819
H107	H	0.610019	0.011654	-0.186636
H108	H	0.525569	-0.459912	-0.000017
H109	H	0.582057	-0.086018	-0.000090
H110	H	0.734628	0.136352	-0.186583
H111	H	0.734656	0.136358	-0.669762
H112	H	0.734673	0.136349	-0.813526
H113	H	0.610054	0.011668	-0.813587
H114	H	-0.154761	0.070076	0.124414
H115	H	0.226215	0.074650	-0.193225
H116	H	-0.047012	0.071363	0.124422
H117	H	0.118472	0.073349	-0.193230
H118	H	0.762629	-0.765963	-0.000069
H119	H	0.118487	0.073341	0.193061
H120	H	0.226235	0.074636	0.193061
H121	H	0.499459	0.077959	0.124448
H122	H	0.770463	-0.111731	-0.000126
H123	H	0.574222	-0.740243	-0.000052
H124	H	0.769178	-0.219481	-0.000100
H125	H	0.575510	-0.632494	-0.000042
H126	H	0.819117	-0.392053	-0.000101
H127	H	0.763925	-0.658198	-0.000078
H128	H	0.734637	0.136351	-0.330347
