data_functionalizedCrystal
_audit_creation_method	'MofGen! by Chris Wilmer'
_symmetry_space_group_name_H-M	'P1'
_symmetry_Int_Tables_number	1
_symmetry_cell_setting	triclinic
loop_
_symmetry_equiv_pos_as_xyz
  x,y,z
_cell_length_a	14.044191
_cell_length_b	12.503572
_cell_length_c	11.026607
_cell_angle_alpha	85.701682
_cell_angle_beta	100.888897
_cell_angle_gamma	93.837835
loop_
_atom_site_label
_atom_site_type_symbol
_atom_site_fract_x
_atom_site_fract_y
_atom_site_fract_z
O1	O	1.312921	0.089261	0.291566
O2	O	1.562921	0.339261	0.541566
O3	O	1.812921	0.589261	0.791566
O4	O	2.062921	0.839261	1.041566
O5	O	1.035116	0.089275	0.280800
O6	O	1.285116	0.339275	0.530800
O7	O	1.535116	0.589275	0.780800
O8	O	1.785116	0.839275	1.030800
O9	O	1.150994	0.089265	0.107037
O10	O	1.400994	0.339265	0.357037
O11	O	1.650994	0.589265	0.607037
O12	O	1.900994	0.839265	0.857037
O13	O	1.197043	0.089270	0.465329
O14	O	1.447043	0.339270	0.715329
O15	O	1.697043	0.589270	0.965329
O16	O	1.947043	0.839270	1.215329
O17	O	1.142283	-0.089376	0.120129
O18	O	1.392283	0.160624	0.370129
O19	O	1.642283	0.410624	0.620129
O20	O	1.892283	0.660624	0.870129
O21	O	1.026405	-0.089367	0.293891
O22	O	1.276405	0.160633	0.543891
O23	O	1.526405	0.410633	0.793891
O24	O	1.776405	0.660633	1.043891
O25	O	1.304211	-0.089381	0.304657
O26	O	1.554211	0.160619	0.554657
O27	O	1.804211	0.410619	0.804657
O28	O	2.054211	0.660619	1.054657
Cu29	Cu	1.164512	-0.105685	0.300470
Cu30	Cu	1.414512	0.144315	0.550470
Cu31	Cu	1.664512	0.394315	0.800470
Cu32	Cu	1.914512	0.644315	1.050470
Cu33	Cu	1.174814	0.105579	0.284987
Cu34	Cu	1.424814	0.355579	0.534987
Cu35	Cu	1.674814	0.605579	0.784987
Cu36	Cu	1.924814	0.855579	1.034987
O37	O	1.188332	-0.089371	0.478420
O38	O	1.438332	0.160629	0.728420
O39	O	1.688332	0.410629	0.978420
O40	O	1.938332	0.660629	1.228420
C41	C	0.994642	-0.000044	0.282636
C42	C	1.244642	0.249956	0.532636
C43	C	1.494642	0.499956	0.782636
C44	C	1.744642	0.749956	1.032636
C45	C	0.887020	-0.000039	0.268588
C46	C	1.137020	0.249961	0.518588
C47	C	1.387020	0.499961	0.768588
C48	C	1.637020	0.749961	1.018588
C49	C	0.649350	-0.000048	0.342535
C50	C	0.899350	0.249952	0.592535
C51	C	1.149350	0.499952	0.842535
C52	C	1.399350	0.749952	1.092535
C53	C	0.689983	-0.000048	0.242927
C54	C	0.939983	0.249952	0.492927
C55	C	1.189983	0.499952	0.742927
C56	C	1.439983	0.749952	0.992927
C57	C	0.799625	-0.000043	0.257209
C58	C	1.049625	0.249957	0.507209
C59	C	1.299625	0.499957	0.757209
C60	C	1.549625	0.749957	1.007209
C61	C	0.539699	-0.000054	0.328255
C62	C	0.789699	0.249946	0.578255
C63	C	1.039699	0.499946	0.828255
C64	C	1.289699	0.749946	1.078255
N65	N	1.157274	-0.254277	0.311359
N66	N	1.407274	-0.004277	0.561359
N67	N	1.657274	0.245723	0.811359
N68	N	1.907274	0.495723	1.061359
C69	C	1.146627	-0.473391	0.327389
C70	C	1.396627	-0.223391	0.577389
C71	C	1.646627	0.026609	0.827389
C72	C	1.896627	0.276609	1.077389
C73	C	1.192702	-0.526722	0.258063
C74	C	1.442702	-0.276722	0.508063
C75	C	1.692702	-0.026722	0.758063
C76	C	1.942702	0.223278	1.008063
C77	C	1.186779	-0.648645	0.266982
C78	C	1.436779	-0.398645	0.516982
C79	C	1.686779	-0.148645	0.766982
C80	C	1.936779	0.101355	1.016982
C81	C	1.152550	-0.351457	0.318471
C82	C	1.402550	-0.101457	0.568471
C83	C	1.652550	0.148543	0.818471
C84	C	1.902550	0.398543	1.068471
C85	C	1.344684	-0.000059	0.302821
C86	C	1.594684	0.249941	0.552821
C87	C	1.844684	0.499941	0.802821
C88	C	2.094684	0.749941	1.052821
C89	C	1.452307	-0.000058	0.316868
C90	C	1.702307	0.249942	0.566868
C91	C	1.952307	0.499942	0.816868
C92	C	2.202307	0.749942	1.066868
C93	C	1.138144	-0.000054	0.067452
C94	C	1.388144	0.249946	0.317452
C95	C	1.638144	0.499946	0.567452
C96	C	1.888144	0.749946	0.817452
C97	C	1.112819	-0.000049	-0.070005
C98	C	1.362819	0.249951	0.179995
C99	C	1.612819	0.499951	0.429995
C100	C	1.862819	0.749951	0.679995
N101	N	1.182058	0.254171	0.274089
N102	N	1.432058	0.504171	0.524089
N103	N	1.682058	0.754171	0.774089
N104	N	1.932058	1.004171	1.024089
C105	C	1.182744	-0.000051	-0.136239
C106	C	1.432744	0.249949	0.113761
C107	C	1.682744	0.499949	0.363761
C108	C	1.932744	0.749949	0.613761
C109	C	1.156572	-0.000046	-0.278307
C110	C	1.406572	0.249954	-0.028307
C111	C	1.656572	0.499954	0.221693
C112	C	1.906572	0.749954	0.471693
C113	C	1.201183	-0.000050	0.518005
C114	C	1.451183	0.249950	0.768005
C115	C	1.701183	0.499950	1.018005
C116	C	1.951183	0.749950	1.268005
C117	C	1.226507	-0.000048	0.655461
C118	C	1.476507	0.249952	0.905461
C119	C	1.726507	0.499952	1.155461
C120	C	1.976507	0.749952	1.405461
H121	H	0.696904	-0.000044	0.438529
H122	H	0.946904	0.249956	0.688529
H123	H	1.196904	0.499956	0.938529
H124	H	1.446904	0.749956	1.188529
N125	N	1.250862	-0.465926	0.170584
N126	N	1.500862	-0.215926	0.420584
N127	N	1.750862	0.034074	0.670584
N128	N	2.000862	0.284074	0.920584
H129	H	1.223731	-0.485426	0.083052
H130	H	1.473731	-0.235426	0.333052
H131	H	1.723731	0.014574	0.583052
H132	H	1.973731	0.264574	0.833052
H133	H	1.246894	-0.386203	0.176636
H134	H	1.496894	-0.136203	0.426636
H135	H	1.746894	0.113797	0.676636
H136	H	1.996894	0.363797	0.926636
H137	H	1.102736	-0.519295	0.393434
H138	H	1.352736	-0.269295	0.643434
H139	H	1.602736	-0.019295	0.893434
H140	H	1.852736	0.230705	1.143434
N141	N	1.287711	-0.000069	-0.072048
N142	N	1.537711	0.249931	0.177952
N143	N	1.787711	0.499931	0.427952
N144	N	2.037711	0.749931	0.677952
H145	H	1.291528	-0.000077	0.020343
H146	H	1.541528	0.249923	0.270343
H147	H	1.791528	0.499923	0.520343
H148	H	2.041528	0.749923	0.770343
H149	H	1.317663	-0.066301	-0.091993
H150	H	1.567663	0.183699	0.158007
H151	H	1.817663	0.433699	0.408007
H152	H	2.067663	0.683699	0.658007
N153	N	1.051600	-0.000030	-0.342493
N154	N	1.301600	0.249970	-0.092493
N155	N	1.551600	0.499970	0.157507
N156	N	1.801600	0.749970	0.407507
H157	H	1.047783	-0.000026	-0.434883
H158	H	1.297783	0.249974	-0.184883
H159	H	1.547783	0.499974	0.065117
H160	H	1.797783	0.749974	0.315117
H161	H	1.015175	-0.066253	-0.312857
H162	H	1.265175	0.183747	-0.062857
H163	H	1.515175	0.433747	0.187143
H164	H	1.765175	0.683747	0.437143
N165	N	1.331481	-0.000045	-0.280357
N166	N	1.581481	0.249955	-0.030357
N167	N	1.831481	0.499955	0.219643
N168	N	2.081481	0.749955	0.469643
H169	H	1.335301	-0.000046	-0.187967
H170	H	1.585301	0.249954	0.062033
H171	H	1.835301	0.499954	0.312033
H172	H	2.085301	0.749954	0.562033
H173	H	1.361447	-0.066270	-0.300296
H174	H	1.611447	0.183730	-0.050296
H175	H	1.861447	0.433730	0.199704
H176	H	2.111447	0.683730	0.449704
N177	N	1.007853	-0.000033	-0.134195
N178	N	1.257853	0.249967	0.115805
N179	N	1.507853	0.499967	0.365805
N180	N	1.757853	0.749967	0.615805
H181	H	1.004035	-0.000029	-0.226586
H182	H	1.254035	0.249971	0.023414
H183	H	1.504035	0.499971	0.273414
H184	H	1.754035	0.749971	0.523414
H185	H	0.971427	-0.066257	-0.104560
H186	H	1.221427	0.183743	0.145440
H187	H	1.471427	0.433743	0.395440
H188	H	1.721427	0.683743	0.645440
H189	H	0.642430	0.000026	0.146920
H190	H	0.892430	0.250026	0.396920
H191	H	1.142430	0.500026	0.646920
H192	H	1.392430	0.750026	0.896920
