data_functionalizedCrystal
_audit_creation_method	'MofGen! by Chris Wilmer'
_symmetry_space_group_name_H-M	'P1'
_symmetry_Int_Tables_number	1
_symmetry_cell_setting	triclinic
loop_
_symmetry_equiv_pos_as_xyz
  x,y,z
_cell_length_a	17.699104
_cell_length_b	17.699083
_cell_length_c	9.130313
_cell_angle_alpha	89.997869
_cell_angle_beta	89.998885
_cell_angle_gamma	83.287266
loop_
_atom_site_label
_atom_site_type_symbol
_atom_site_fract_x
_atom_site_fract_y
_atom_site_fract_z
O1	O	1.004062	0.095783	-0.121832
O2	O	1.504062	0.595783	0.378168
O3	O	0.783685	0.108219	-0.121829
O4	O	1.283685	0.608219	0.378171
O5	O	0.900100	-0.008188	-0.121817
O6	O	1.400100	0.491812	0.378183
O7	O	0.887647	0.212190	-0.121843
O8	O	1.387647	0.712190	0.378157
O9	O	0.900098	-0.008185	0.121781
O10	O	1.400098	0.491815	0.621781
O11	O	0.783684	0.108222	0.121770
O12	O	1.283684	0.608222	0.621770
O13	O	1.004060	0.095786	0.121767
O14	O	1.504060	0.595786	0.621767
Cu15	Cu	0.893872	0.102004	0.144011
Cu16	Cu	1.393872	0.602004	0.644011
Cu17	Cu	0.893874	0.102001	-0.144073
Cu18	Cu	1.393874	0.602001	0.355927
O19	O	0.887646	0.212193	0.121756
O20	O	1.387646	0.712193	0.621756
C21	C	0.755488	0.107772	-0.000029
C22	C	1.255488	0.607772	0.499971
C23	C	0.671471	0.106427	-0.000027
C24	C	1.171471	0.606427	0.499973
C25	C	0.146600	0.167171	-0.000050
C26	C	0.646600	0.667171	0.499950
C27	C	0.225543	0.168430	-0.000054
C28	C	0.725543	0.668430	0.499946
C29	C	0.274161	0.100095	-0.000046
C30	C	0.774161	0.600095	0.499954
C31	C	0.243831	0.030496	-0.000048
C32	C	0.743831	0.530496	0.499952
C33	C	0.164889	0.029238	-0.000054
C34	C	0.664889	0.529238	0.499946
C35	C	0.562197	0.035569	-0.000025
C36	C	1.062197	0.535569	0.499975
C37	C	0.641144	0.036833	-0.000014
C38	C	1.141144	0.536833	0.499986
C39	C	0.622852	0.174762	-0.000025
C40	C	1.122852	0.674762	0.499975
C41	C	0.543909	0.173503	-0.000031
C42	C	1.043909	0.673503	0.499969
C43	C	0.513587	0.103905	-0.000041
C44	C	1.013587	0.603905	0.499959
C45	C	0.427987	0.102541	-0.000039
C46	C	0.927987	0.602541	0.499961
C47	C	0.359759	0.101459	-0.000037
C48	C	0.859759	0.601459	0.499963
C49	C	0.899653	-0.036383	-0.000018
C50	C	1.399653	0.463617	0.499982
C51	C	0.898314	-0.120402	-0.000017
C52	C	1.398314	0.379598	0.499983
C53	C	0.966647	-0.169017	-0.000016
C54	C	1.466647	0.330983	0.499984
C55	C	0.965385	-0.247961	-0.000029
C56	C	1.465385	0.252039	0.499971
C57	C	0.895789	-0.278287	-0.000033
C58	C	1.395789	0.221713	0.499967
C59	C	0.827451	-0.229665	-0.000038
C60	C	1.327451	0.270335	0.499962
C61	C	0.828714	-0.150723	-0.000036
C62	C	1.328714	0.349277	0.499964
C63	C	0.822356	-0.548028	-0.000050
C64	C	1.322356	-0.048028	0.499950
C65	C	0.821098	-0.626976	-0.000048
C66	C	1.321098	-0.126976	0.499952
C67	C	0.959026	-0.645266	-0.000043
C68	C	1.459026	-0.145266	0.499957
C69	C	0.960289	-0.566324	-0.000041
C70	C	1.460289	-0.066324	0.499959
C71	C	0.891952	-0.517709	-0.000054
C72	C	1.391952	-0.017709	0.499946
C73	C	0.893321	-0.432110	-0.000043
C74	C	1.393321	0.067890	0.499957
C75	C	0.894419	-0.363885	-0.000033
C76	C	1.394419	0.136115	0.499967
C77	C	1.032258	0.096233	-0.000036
C78	C	1.532258	0.596233	0.499964
C79	C	1.116275	0.097578	-0.000047
C80	C	1.616275	0.597578	0.499953
C81	C	0.888093	0.240388	-0.000047
C82	C	1.388093	0.740388	0.499953
C83	C	0.889431	0.324406	-0.000057
C84	C	1.389431	0.824406	0.499943
N85	N	0.893876	0.102006	0.346634
N86	N	1.393876	0.602006	0.846634
N87	N	0.893875	0.101992	-0.346695
N88	N	1.393875	0.601992	0.153305
C89	C	0.945437	0.050479	0.423291
C90	C	1.445437	0.550479	0.923291
C91	C	0.945435	0.050470	0.576628
C92	C	1.445435	0.550470	1.076628
C93	C	0.842309	0.153522	0.576637
C94	C	1.342309	0.653522	1.076637
C95	C	0.842307	0.153527	0.423303
C96	C	1.342307	0.653527	0.923303
C97	C	1.004979	-0.009016	0.423286
C98	C	1.504979	0.490984	0.923286
C99	C	1.004977	-0.009025	0.576623
C100	C	1.504977	0.490975	1.076623
H101	H	0.504328	0.229149	-0.000030
H102	H	1.004328	0.729149	0.499970
C103	C	0.747190	-0.494558	-0.000065
C104	C	1.247190	0.005442	0.499935
H105	H	0.757904	-0.443199	-0.000084
H106	H	1.257904	0.056801	0.499916
H107	H	0.718641	-0.503737	0.084878
H108	H	1.218641	-0.003737	0.584878
H109	H	0.718654	-0.503742	-0.085029
H110	H	1.218654	-0.003742	0.414971
C111	C	1.036844	-0.532969	-0.000043
C112	C	1.536844	-0.032969	0.499957
H113	H	1.077361	-0.573231	-0.000059
H114	H	1.577361	-0.073231	0.499941
H115	H	1.040206	-0.502555	0.084902
H116	H	1.540206	-0.002555	0.584902
H117	H	1.040200	-0.502555	-0.085005
H118	H	1.540200	-0.002555	0.414995
C119	C	0.980919	-0.083031	0.640884
C120	C	1.480919	0.416969	1.140884
H121	H	0.981732	-0.080509	0.744801
H122	H	1.481732	0.419491	1.244801
H123	H	1.015220	-0.125059	0.608756
H124	H	1.515220	0.374941	1.108756
H125	H	0.930950	-0.089170	0.608756
H126	H	1.430950	0.410830	1.108756
C127	C	1.034198	-0.698745	-0.000053
C128	C	1.534198	-0.198745	0.499947
H129	H	1.023482	-0.750104	-0.000073
H130	H	1.523482	-0.250104	0.499927
H131	H	1.062741	-0.689570	0.084896
H132	H	1.562741	-0.189570	0.584896
H133	H	1.062739	-0.689559	-0.085011
H134	H	1.562739	-0.189559	0.414989
H135	H	0.800322	0.195469	0.639077
H136	H	1.300322	0.695469	1.139077
C137	C	0.131528	-0.047313	-0.000052
C138	C	0.631528	0.452687	0.499948
H139	H	0.077550	-0.038276	-0.000073
H140	H	0.577550	0.461724	0.499927
H141	H	0.148217	-0.075447	0.084896
H142	H	0.648217	0.424553	0.584896
H143	H	0.148226	-0.075440	-0.085011
H144	H	0.648226	0.424560	0.414989
H145	H	0.250230	0.225100	-0.000069
H146	H	0.750230	0.725100	0.499931
H147	H	1.023320	-0.144333	-0.000004
H148	H	1.523320	0.355667	0.499996
C149	C	0.656205	0.251322	-0.000033
C150	C	1.156205	0.751322	0.499967
H151	H	0.615943	0.291838	-0.000023
H152	H	1.115943	0.791838	0.499977
H153	H	0.686622	0.254683	-0.084980
H154	H	1.186622	0.754683	0.415020
H155	H	0.686618	0.254680	0.084927
H156	H	1.186618	0.754680	0.584927
C157	C	1.083364	0.007674	0.632852
C158	C	1.583364	0.507674	1.132852
H159	H	1.115601	0.014556	0.551923
H160	H	1.615601	0.514556	1.051923
H161	H	1.105339	-0.033824	0.690646
H162	H	1.605339	0.466176	1.190646
H163	H	1.077509	0.052606	0.690658
H164	H	1.577509	0.552606	1.190658
H165	H	0.800316	0.195479	0.360890
H166	H	1.300316	0.695479	0.860890
H167	H	1.021028	-0.287541	-0.000025
H168	H	1.521028	0.212459	0.499975
C169	C	0.744539	-0.660333	-0.000071
C170	C	1.244539	-0.160333	0.499929
H171	H	0.704020	-0.620074	-0.000095
H172	H	1.204020	-0.120074	0.499905
H173	H	0.741173	-0.690751	0.084874
H174	H	1.241173	-0.190751	0.584874
H175	H	0.741191	-0.690746	-0.085033
H176	H	1.241191	-0.190746	0.414967
H177	H	0.680728	-0.018817	-0.000012
H178	H	1.180728	0.481183	0.499988
H179	H	0.992670	-0.067060	0.381673
H180	H	1.492670	0.432940	0.881673
C181	C	0.750897	-0.263021	-0.000038
C182	C	1.250897	0.236979	0.499962
H183	H	0.759930	-0.316999	-0.000023
H184	H	1.259930	0.183001	0.499977
H185	H	0.722765	-0.246325	-0.084984
H186	H	1.222765	0.253675	0.415016
H187	H	0.722770	-0.246325	0.084923
H188	H	1.222770	0.253675	0.584923
C189	C	0.753548	-0.097245	-0.000033
C190	C	1.253548	0.402755	0.499967
H191	H	0.711918	-0.126611	-0.000023
H192	H	1.211918	0.373389	0.499977
H193	H	0.751175	-0.066068	-0.084981
H194	H	1.251175	0.433932	0.415019
H195	H	0.751173	-0.066072	0.084926
H196	H	1.251173	0.433928	0.584926
C197	C	0.528851	-0.040985	-0.000011
C198	C	1.028851	0.459015	0.499989
H199	H	0.569114	-0.081500	0.000015
H200	H	1.069114	0.418500	0.500015
H201	H	0.498438	-0.044352	-0.084958
H202	H	0.998438	0.455648	0.415042
H203	H	0.498435	-0.044339	0.084949
H204	H	0.998435	0.455661	0.584949
C205	C	1.078956	0.015103	0.359023
C206	C	1.578956	0.515103	0.859023
H207	H	1.111902	0.025836	0.436511
H208	H	1.611902	0.525836	0.936511
H209	H	1.067335	0.059296	0.300461
H210	H	1.567335	0.559296	0.800461
H211	H	1.103279	-0.024956	0.300467
H212	H	1.603279	0.475044	0.800467
C213	C	0.093127	0.242341	-0.000067
C214	C	0.593127	0.742341	0.499933
H215	H	0.122497	0.283968	-0.000085
H216	H	0.622497	0.783968	0.499915
H217	H	0.061946	0.244723	0.084875
H218	H	0.561946	0.744723	0.584875
H219	H	0.061958	0.244713	-0.085032
H220	H	0.561958	0.744713	0.414968
H221	H	0.283422	-0.025143	-0.000050
H222	H	0.783422	0.474857	0.499950
