data_functionalizedCrystal
_audit_creation_method	'MofGen! by Chris Wilmer'
_symmetry_space_group_name_H-M	'P1'
_symmetry_Int_Tables_number	1
_symmetry_cell_setting	triclinic
loop_
_symmetry_equiv_pos_as_xyz
  x,y,z
_cell_length_a	12.759401
_cell_length_b	12.827892
_cell_length_c	12.759401
_cell_angle_alpha	90.007196
_cell_angle_beta	90.006940
_cell_angle_gamma	90.016917
loop_
_atom_site_label
_atom_site_type_symbol
_atom_site_fract_x
_atom_site_fract_y
_atom_site_fract_z
Zn1	Zn	1.606116	-0.416173	0.594025
Zn2	Zn	1.606048	-0.590881	0.418347
Zn3	Zn	1.430458	-0.416160	0.418360
Zn4	Zn	1.430405	-0.590877	0.593984
O5	O	1.518257	-0.503523	0.506179
O6	O	1.753128	-0.439356	0.570732
O7	O	1.582749	-0.567700	0.271328
O8	O	1.453810	-0.269925	0.441685
O9	O	1.753078	-0.567713	0.441663
O10	O	1.582865	-0.269935	0.570745
O11	O	1.453744	-0.439333	0.271337
O12	O	1.283430	-0.439329	0.441646
O13	O	1.453719	-0.567706	0.741011
O14	O	1.283391	-0.567693	0.570676
O15	O	1.582814	-0.439352	0.741040
O16	O	1.582698	-0.737117	0.441624
O17	O	1.453653	-0.737114	0.570663
C18	C	1.245289	-0.503510	0.506158
C19	C	1.128513	-0.503530	0.506174
C20	C	1.073658	-0.570471	0.573255
C21	C	0.963934	-0.570475	0.573276
C22	C	0.963929	-0.436594	0.439127
C23	C	1.073651	-0.436585	0.439112
C24	C	1.518191	-0.775033	0.506161
C25	C	1.518259	-0.891186	0.506188
C26	C	1.582190	-0.942937	0.442406
C27	C	1.582262	-1.062988	0.442432
C28	C	1.792290	-0.503536	0.506201
C29	C	1.909067	-0.503542	0.506210
C30	C	1.518268	-0.503530	0.780212
C31	C	1.518273	-0.503533	0.896989
C32	C	1.518351	-0.230953	0.506221
C33	C	1.518392	-0.114799	0.506239
C34	C	1.585484	-0.436710	0.951868
C35	C	1.585475	-0.436708	1.061592
C36	C	1.451041	-0.570361	1.061548
C37	C	1.451046	-0.570357	0.951826
C38	C	1.518244	-0.503539	1.233212
C39	C	1.518260	-0.503535	1.116435
H40	H	1.636875	-0.898370	0.387783
O41	O	1.385642	-0.635126	0.898463
C42	C	1.317829	-0.575621	0.834976
H43	H	1.311368	-0.493318	0.868057
H44	H	1.236961	-0.613410	0.833707
H45	H	1.350320	-0.572017	0.751826
H46	H	1.463583	-0.935756	0.560818
O47	O	1.650813	-0.371694	0.898761
C48	C	1.710149	-0.312732	0.970733
H49	H	1.667113	-0.309116	1.048940
H50	H	1.721386	-0.230395	0.939048
H51	H	1.789929	-0.351003	0.982410
H52	H	1.118323	-0.624978	0.627864
H53	H	1.640204	-0.382292	1.106270
O54	O	1.647560	-1.116234	0.377414
C55	C	1.633106	-1.224244	0.391926
H56	H	1.598586	-1.239038	0.472975
H57	H	1.711808	-1.265716	0.384972
H58	H	1.577239	-1.255317	0.329568
H59	H	1.118315	-0.382068	0.384487
H60	H	1.463650	-1.070302	0.560844
O61	O	1.385896	-0.635388	1.114868
C62	C	1.445684	-0.702872	1.178352
H63	H	1.528429	-0.709333	1.145297
H64	H	1.407655	-0.783291	1.179579
H65	H	1.449314	-0.670565	1.261514
O66	O	0.910811	-0.635602	0.638469
C67	C	0.982766	-0.694662	0.697672
H68	H	1.060966	-0.698206	0.654618
H69	H	0.951048	-0.777018	0.708740
H70	H	0.994469	-0.656522	0.777530
H71	H	0.919247	-0.382092	0.384525
