data_functionalizedCrystal
_audit_creation_method	'MofGen! by Chris Wilmer'
_symmetry_space_group_name_H-M	'P1'
_symmetry_Int_Tables_number	1
_symmetry_cell_setting	triclinic
loop_
_symmetry_equiv_pos_as_xyz
  x,y,z
_cell_length_a	18.215407
_cell_length_b	13.031981
_cell_length_c	18.215399
_cell_angle_alpha	82.788957
_cell_angle_beta	89.982632
_cell_angle_gamma	97.189335
loop_
_atom_site_label
_atom_site_type_symbol
_atom_site_fract_x
_atom_site_fract_y
_atom_site_fract_z
Zn1	Zn	1.087911	-0.416191	-0.378823
Zn2	Zn	1.421244	-0.082857	-0.045490
Zn3	Zn	1.754577	0.250476	0.287843
Zn4	Zn	1.072212	-0.590982	-0.240115
Zn5	Zn	1.405546	-0.257648	0.093218
Zn6	Zn	1.738879	0.075685	0.426552
Zn7	Zn	0.964841	-0.416216	-0.255774
Zn8	Zn	1.298174	-0.082882	0.077560
Zn9	Zn	1.631508	0.250451	0.410893
Zn10	Zn	0.949208	-0.590914	-0.363151
Zn11	Zn	1.282542	-0.257581	-0.029818
Zn12	Zn	1.615875	0.075752	0.303515
O13	O	1.018543	-0.503576	-0.309466
O14	O	1.351877	-0.170242	0.023868
O15	O	1.685210	0.163091	0.357201
O16	O	1.188811	-0.439395	-0.360429
O17	O	1.522144	-0.106061	-0.027095
O18	O	1.855478	0.227272	0.306238
O19	O	1.057942	-0.567837	-0.139204
O20	O	1.391275	-0.234504	0.194129
O21	O	1.724608	0.098829	0.527462
O22	O	0.994279	-0.269950	-0.285208
O23	O	1.327612	0.063384	0.048125
O24	O	1.660945	0.396717	0.381458
O25	O	1.177277	-0.567813	-0.258521
O26	O	1.510611	-0.234480	0.074813
O27	O	1.843944	0.098854	0.408146
O28	O	1.084698	-0.269931	-0.375612
O29	O	1.418031	0.063402	-0.042279
O30	O	1.751364	0.396735	0.291054
O31	O	0.979057	-0.439437	-0.150709
O32	O	1.312390	-0.106104	0.182625
O33	O	1.645723	0.227229	0.515958
O34	O	0.859785	-0.439372	-0.270012
O35	O	1.193118	-0.106039	0.063321
O36	O	1.526451	0.227295	0.396655
O37	O	0.967635	-0.567698	-0.468218
O38	O	1.300968	-0.234365	-0.134885
O39	O	1.634302	0.098969	0.198449
O40	O	0.848299	-0.567722	-0.348902
O41	O	1.181633	-0.234389	-0.015569
O42	O	1.514966	0.098944	0.317765
O43	O	1.069539	-0.439329	-0.479732
O44	O	1.402872	-0.105996	-0.146399
O45	O	1.736206	0.227337	0.186935
O46	O	1.042783	-0.737235	-0.243324
O47	O	1.376117	-0.403902	0.090009
O48	O	1.709450	-0.070569	0.423342
O49	O	0.952413	-0.737186	-0.333718
O50	O	1.285746	-0.403852	-0.000385
O51	O	1.619080	-0.070519	0.332948
C52	C	0.827340	-0.503543	-0.309456
C53	C	1.160673	-0.170210	0.023878
C54	C	1.494006	0.163123	0.357211
C55	C	0.745540	-0.503555	-0.309467
C56	C	1.078873	-0.170222	0.023867
C57	C	1.412207	0.163112	0.357200
C58	C	0.563338	-0.436825	-0.362592
C59	C	0.896672	-0.103492	-0.029259
C60	C	1.230005	0.229842	0.304074
C61	C	0.486479	-0.436834	-0.362594
C62	C	0.819812	-0.103501	-0.029261
C63	C	1.153145	0.229833	0.304073
C64	C	0.474498	-0.570355	-0.256350
C65	C	0.807831	-0.237022	0.076984
C66	C	1.141164	0.096311	0.410317
C67	C	0.551356	-0.570340	-0.256345
C68	C	0.884690	-0.237007	0.076988
C69	C	1.218023	0.096326	0.410321
C70	C	0.595774	-0.503577	-0.309471
C71	C	0.929108	-0.170243	0.023863
C72	C	1.262441	0.163090	0.357196
C73	C	0.442056	-0.503601	-0.309477
C74	C	0.775390	-0.170267	0.023857
C75	C	1.108723	0.163066	0.357190
C76	C	0.358722	-0.503611	-0.309478
C77	C	0.692055	-0.170278	0.023855
C78	C	1.025388	0.163056	0.357189
C79	C	0.679114	-0.503565	-0.309469
C80	C	1.012448	-0.170232	0.023865
C81	C	1.345781	0.163102	0.357198
C82	C	0.994218	-0.775135	-0.285138
C83	C	1.327552	-0.441801	0.048196
C84	C	1.660885	-0.108468	0.381529
C85	C	0.983879	-0.891309	-0.274755
C86	C	1.317213	-0.557976	0.058579
C87	C	1.650546	-0.224642	0.391912
C88	C	1.023978	-0.943011	-0.314900
C89	C	1.357312	-0.609677	0.018434
C90	C	1.690645	-0.276344	0.351767
C91	C	1.013293	-1.063083	-0.304169
C92	C	1.346627	-0.729749	0.029164
C93	C	1.679960	-0.396416	0.362498
C94	C	1.210493	-0.503609	-0.309476
C95	C	1.543826	-0.170275	0.023857
C96	C	1.877160	0.163058	0.357190
C97	C	1.292291	-0.503623	-0.309481
C98	C	1.625624	-0.170289	0.023853
C99	C	1.958957	0.163044	0.357186
C100	C	1.018594	-0.503503	-0.501425
C101	C	1.351928	-0.170170	-0.168092
C102	C	1.685261	0.163163	0.165241
C103	C	1.018616	-0.503473	-0.583227
C104	C	1.351950	-0.170139	-0.249894
C105	C	1.685283	0.163194	0.083440
C106	C	1.042983	-0.230956	-0.333905
C107	C	1.376316	0.102377	-0.000572
C108	C	1.709650	0.435711	0.332762
C109	C	1.053398	-0.114782	-0.344320
C110	C	1.386731	0.218552	-0.010986
C111	C	1.720065	0.551885	0.322347
C112	C	1.071700	-0.436569	-0.777423
C113	C	1.405034	-0.103235	-0.444090
C114	C	1.738367	0.230098	-0.110756
C115	C	1.071712	-0.436538	-0.854285
C116	C	1.405045	-0.103205	-0.520951
C117	C	1.738378	0.230128	-0.187618
C118	C	0.965599	-0.570215	-0.842283
C119	C	1.298932	-0.236882	-0.508950
C120	C	1.632265	0.096451	-0.175617
C121	C	0.965585	-0.570240	-0.765424
C122	C	1.298918	-0.236906	-0.432090
C123	C	1.632251	0.096427	-0.098757
C124	C	1.018639	-0.503418	-0.732995
C125	C	1.351973	-0.170085	-0.399662
C126	C	1.685306	0.163249	-0.066329
C127	C	1.018665	-0.503363	-0.886717
C128	C	1.351998	-0.170030	-0.553383
C129	C	1.685332	0.163304	-0.220050
C130	C	1.018677	-0.503331	-0.970053
C131	C	1.352010	-0.169997	-0.636720
C132	C	1.685344	0.163336	-0.303386
C133	C	1.018627	-0.503449	-0.649654
C134	C	1.351960	-0.170115	-0.316320
C135	C	1.685293	0.163218	0.017013
C136	C	1.018541	-0.503572	-0.118260
C137	C	1.351875	-0.170239	0.215073
C138	C	1.685208	0.163095	0.548407
C139	C	1.018688	-0.503308	-0.036485
C140	C	1.352022	-0.169975	0.296848
C141	C	1.685355	0.163358	0.630182
H142	H	0.438323	-0.624713	-0.213097
H143	H	0.771656	-0.291379	0.120236
H144	H	1.104990	0.041954	0.453569
H145	H	0.971047	-1.107708	-0.261856
H146	H	1.304380	-0.774375	0.071477
H147	H	1.637713	-0.441041	0.404811
H148	H	0.941635	-0.935938	-0.232445
H149	H	1.274969	-0.602605	0.100889
H150	H	1.608302	-0.269271	0.434222
H151	H	1.095639	-1.070158	-0.386639
H152	H	1.428972	-0.736824	-0.053306
H153	H	1.762305	-0.403491	0.280028
N154	N	0.586342	-0.642338	-0.199041
N155	N	0.919675	-0.309005	0.134292
N156	N	1.253008	0.024329	0.467626
H157	H	0.566291	-0.717042	-0.203693
H158	H	0.899624	-0.383709	0.129640
H159	H	1.232957	-0.050375	0.462974
H160	H	0.641766	-0.632106	-0.207127
H161	H	0.975100	-0.298772	0.126206
H162	H	1.308433	0.034561	0.459539
H163	H	1.114918	-0.382101	-0.890455
H164	H	1.448251	-0.048768	-0.557122
H165	H	1.781585	0.284566	-0.223788
H166	H	1.066216	-0.898384	-0.357216
H167	H	1.399550	-0.565051	-0.023883
H168	H	1.732883	-0.231717	0.309450
H169	H	0.922405	-0.624621	-0.868696
H170	H	1.255738	-0.291288	-0.535362
H171	H	1.589072	0.042045	-0.202029
N172	N	1.128920	-0.364499	-0.742445
N173	N	1.462253	-0.031166	-0.409112
N174	N	1.795586	0.302167	-0.075778
H175	H	1.162534	-0.322145	-0.782256
H176	H	1.495867	0.011188	-0.448923
H177	H	1.829201	0.344521	-0.115589
H178	H	1.103293	-0.316137	-0.714888
H179	H	1.436626	0.017196	-0.381554
H180	H	1.769960	0.350530	-0.048221
N181	N	0.908339	-0.642323	-0.717500
N182	N	1.241673	-0.308990	-0.384167
N183	N	1.575006	0.024343	-0.050833
H184	H	0.874731	-0.684651	-0.749705
H185	H	1.208065	-0.351317	-0.416371
H186	H	1.541398	-0.017984	-0.083038
H187	H	0.933942	-0.690711	-0.681268
H188	H	1.267275	-0.357378	-0.347935
H189	H	1.600609	-0.024044	-0.014602
N190	N	0.611245	-0.364820	-0.419891
N191	N	0.944578	-0.031486	-0.086558
N192	N	1.277912	0.301847	0.246776
H193	H	0.664857	-0.374943	-0.411833
H194	H	0.998190	-0.041609	-0.078500
H195	H	1.331524	0.291724	0.254833
H196	H	0.596359	-0.381195	-0.470962
H197	H	0.929692	-0.047862	-0.137629
H198	H	1.263025	0.285472	0.195704
H199	H	0.460073	-0.382477	-0.405850
H200	H	0.793407	-0.049143	-0.072517
H201	H	1.126740	0.284190	0.260817
