data_functionalizedCrystal
_audit_creation_method	'MofGen! by Chris Wilmer'
_symmetry_space_group_name_H-M	'P1'
_symmetry_Int_Tables_number	1
_symmetry_cell_setting	triclinic
loop_
_symmetry_equiv_pos_as_xyz
  x,y,z
_cell_length_a	15.538191
_cell_length_b	14.750779
_cell_length_c	15.625429
_cell_angle_alpha	59.907167
_cell_angle_beta	113.263208
_cell_angle_gamma	82.427828
loop_
_atom_site_label
_atom_site_type_symbol
_atom_site_fract_x
_atom_site_fract_y
_atom_site_fract_z
O1	O	-1.255893	0.024872	-0.300856
O2	O	-0.971311	-0.016019	-0.183363
O3	O	-1.134358	0.056951	-0.393009
O4	O	-1.092846	-0.048098	-0.091211
O5	O	-1.180449	0.237228	-0.452268
O6	O	-1.017402	0.164257	-0.242623
O7	O	-1.301984	0.205149	-0.360116
Zn8	Zn	-1.167011	0.213326	-0.310778
Zn9	Zn	-1.106284	-0.024196	-0.232701
O10	O	-1.138937	0.132179	-0.150470
C11	C	-0.958181	0.069841	-0.200700
C12	C	-0.850391	0.057097	-0.164084
C13	C	-1.160094	0.160204	-0.460320
C14	C	-1.168099	0.199278	-0.572594
C15	C	-1.315113	0.119287	-0.342778
C16	C	-1.422902	0.132023	-0.379392
C17	C	-0.594560	0.183704	-0.527859
C18	C	-0.493268	0.171718	-0.493425
C19	C	-0.453808	0.104304	-0.299748
C20	C	-0.555099	0.116290	-0.334167
C21	C	-0.625468	0.155989	-0.448223
C22	C	-0.586007	0.088574	-0.254532
C23	C	-0.687289	0.100554	-0.288946
C24	C	-0.757662	0.140248	-0.402996
C25	C	-0.726749	0.167968	-0.482638
C26	C	-0.515635	0.048867	-0.140473
C27	C	-0.546543	0.021152	-0.060838
C28	C	-0.647828	0.033139	-0.095255
C29	C	-0.718202	0.072833	-0.209305
C30	C	-0.678741	0.005419	-0.015613
C31	C	-0.780022	0.017398	-0.050027
C32	C	-0.819483	0.084813	-0.243719
N33	N	-1.208462	0.375430	-0.364066
N34	N	-1.064841	-0.186296	-0.179423
C35	C	-0.949077	0.611194	-0.030641
C36	C	-0.978130	0.724689	-0.067978
C37	C	-1.122530	0.789252	-0.253578
C38	C	-1.093486	0.675762	-0.216258
C39	C	-1.006760	0.586740	-0.104788
C40	C	-1.151169	0.651307	-0.290406
C41	C	-1.122130	0.537826	-0.253087
C42	C	-1.035409	0.448798	-0.141620
C43	C	-0.977721	0.473258	-0.067469
C44	C	-1.237900	0.740330	-0.401873
C45	C	-1.295583	0.715876	-0.476020
C46	C	-1.266540	0.602393	-0.438705
C47	C	-1.179818	0.513366	-0.327238
C48	C	-1.324228	0.577933	-0.512856
C49	C	-1.295189	0.464451	-0.475536
C50	C	-1.150780	0.399884	-0.289919
C51	C	-1.068790	-0.163520	-0.780342
C52	C	-1.076316	-0.126771	-0.885849
C53	C	-1.126561	0.069754	-0.950436
C54	C	-1.119044	0.033022	-0.844934
C55	C	-1.090157	-0.083616	-0.759894
C56	C	-1.140411	0.112926	-0.824486
C57	C	-1.132889	0.076196	-0.718991
C58	C	-1.104000	-0.040438	-0.633944
C59	C	-1.082635	-0.120346	-0.654398
C60	C	-1.169291	0.229563	-0.909525
C61	C	-1.190658	0.309467	-0.889077
C62	C	-1.183143	0.272738	-0.783584
C63	C	-1.154254	0.156104	-0.698537
C64	C	-1.204509	0.352646	-0.763130
C65	C	-1.196987	0.315916	-0.657635
C66	C	-1.146732	0.119374	-0.593042
C67	C	-1.113200	0.028924	-0.083158
C68	C	-1.105193	-0.010157	0.029118
H69	H	-0.876784	0.117146	-0.336597
H70	H	-0.840127	0.149986	-0.431010
H71	H	-0.784050	0.200302	-0.575516
Cl72	Cl	-0.590263	-0.044506	0.127772
Cl73	Cl	-0.388309	0.033808	-0.097210
Cl74	Cl	-1.226964	0.456091	-0.995988
Cl75	Cl	-1.240803	0.499268	-0.870038
Cl76	Cl	-0.840036	0.499278	0.109490
H77	H	-0.651861	0.216038	-0.620736
Cl78	Cl	-1.404610	0.827794	-0.616148
H79	H	-0.931151	0.744588	-0.007587
Cl80	Cl	-0.454423	0.206583	-0.593558
Cl81	Cl	-0.998906	0.306132	-0.094701
H82	H	-1.175404	0.259463	-0.995419
H83	H	-1.214365	0.380978	-0.640977
H84	H	-0.396500	0.071976	-0.206882
H85	H	-0.489235	-0.011176	0.032028
H86	H	-0.805189	-0.005161	0.014817
H87	H	-1.080152	0.327398	-0.199153
Cl88	Cl	-1.367710	0.433708	-0.568752
H89	H	-0.907093	0.400772	0.023296
Cl90	Cl	-1.231557	0.901170	-0.393706
Cl91	Cl	-1.274406	0.882992	-0.448780
Cl92	Cl	-1.433262	0.689852	-0.652978
H93	H	-1.123218	0.024397	-0.523799
H94	H	-1.097865	-0.070343	-0.548039
H95	H	-1.150078	0.164721	-1.019687
H96	H	-1.059120	-0.215323	-0.585156
H97	H	-1.045275	-0.258497	-0.711099
H98	H	-1.058905	-0.191848	-0.902484
