data_functionalizedCrystal
_audit_creation_method	'MofGen! by Chris Wilmer'
_symmetry_space_group_name_H-M	'P1'
_symmetry_Int_Tables_number	1
_symmetry_cell_setting	triclinic
loop_
_symmetry_equiv_pos_as_xyz
  x,y,z
_cell_length_a	12.837932
_cell_length_b	12.837942
_cell_length_c	14.048226
_cell_angle_alpha	89.994377
_cell_angle_beta	89.994021
_cell_angle_gamma	94.829322
loop_
_atom_site_label
_atom_site_type_symbol
_atom_site_fract_x
_atom_site_fract_y
_atom_site_fract_z
O1	O	1.402341	0.272152	-0.079162
O2	O	1.902341	0.772152	0.420838
O3	O	1.099207	0.258707	-0.079164
O4	O	1.599207	0.758707	0.420836
O5	O	1.244052	0.113863	-0.079157
O6	O	1.744052	0.613863	0.420843
O7	O	1.257495	0.416996	-0.079169
O8	O	1.757495	0.916996	0.420831
O9	O	1.244032	0.113851	0.079164
O10	O	1.744032	0.613851	0.579164
O11	O	1.099187	0.258696	0.079158
O12	O	1.599187	0.758696	0.579158
O13	O	1.402320	0.272141	0.079159
O14	O	1.902320	0.772141	0.579159
Zn15	Zn	1.250750	0.265416	0.104295
Zn16	Zn	1.750750	0.765416	0.604295
Zn17	Zn	1.250777	0.265431	-0.104300
Zn18	Zn	1.750777	0.765431	0.395700
O19	O	1.257475	0.416985	0.079153
O20	O	1.757475	0.916985	0.579153
C21	C	1.060127	0.254160	-0.000003
C22	C	1.560127	0.754160	0.499997
C23	C	0.943712	0.240614	-0.000004
C24	C	1.443712	0.740614	0.499996
C25	C	0.782686	0.127402	0.000003
C26	C	1.282686	0.627402	0.500003
C27	C	0.892069	0.140122	0.000002
C28	C	1.392069	0.640122	0.500002
C29	C	0.885965	0.328393	-0.000005
C30	C	1.385965	0.828393	0.499995
C31	C	0.776582	0.315673	-0.000004
C32	C	1.276582	0.815673	0.499996
C33	C	0.724947	0.215174	-0.000002
C34	C	1.224947	0.715174	0.499998
C35	C	0.615562	0.202455	-0.000008
C36	C	1.115562	0.702455	0.499992
C37	C	0.609460	0.390725	-0.000008
C38	C	1.109460	0.890725	0.499992
C39	C	0.718843	0.403445	-0.000009
C40	C	1.218843	0.903445	0.499991
C41	C	1.239501	0.074788	0.000003
C42	C	1.739501	0.574788	0.500003
C43	C	1.225956	-0.041627	0.000001
C44	C	1.725956	0.458373	0.500001
C45	C	1.388786	-0.266500	-0.000018
C46	C	1.888786	0.233500	0.499982
C47	C	1.376064	-0.375883	-0.000019
C48	C	1.876064	0.124117	0.499981
C49	C	1.187793	-0.369777	-0.000010
C50	C	1.687793	0.130223	0.499990
C51	C	1.200514	-0.260394	-0.000009
C52	C	1.700514	0.239606	0.499991
C53	C	1.301014	-0.208760	-0.000011
C54	C	1.801014	0.291240	0.499989
C55	C	1.313734	-0.099375	-0.000002
C56	C	1.813734	0.400625	0.499998
C57	C	1.125464	-0.093271	-0.000000
C58	C	1.625464	0.406729	0.500000
C59	C	1.112742	-0.202654	-0.000002
C60	C	1.612742	0.297346	0.499998
C61	C	1.441400	0.276688	-0.000003
C62	C	1.941400	0.776688	0.499997
C63	C	1.557815	0.290233	-0.000009
C64	C	2.057815	0.790233	0.499991
C65	C	1.262027	0.456060	-0.000010
C66	C	1.762027	0.956060	0.499990
C67	C	1.275571	0.572475	-0.000014
C68	C	1.775571	1.072475	0.499986
N69	N	1.250740	0.265406	0.246656
N70	N	1.750740	0.765406	0.746656
N71	N	1.250795	0.265434	-0.246661
N72	N	1.750795	0.765434	0.253339
C73	C	1.314902	0.201301	0.296477
C74	C	1.814902	0.701301	0.796477
C75	C	1.314909	0.201301	0.396135
C76	C	1.814909	0.701301	0.896135
C77	C	1.250758	0.265413	0.445970
C78	C	1.750758	0.765413	0.945970
C79	C	1.186588	0.329521	0.396142
C80	C	1.686588	0.829521	0.896142
C81	C	1.186577	0.329514	0.296486
C82	C	1.686577	0.829514	0.796486
C83	C	1.186619	0.329531	0.603856
C84	C	1.686619	0.829531	1.103856
C85	C	1.186632	0.329539	0.703519
C86	C	1.686632	0.829539	1.203519
C87	C	1.314952	0.201318	0.703505
C88	C	1.814952	0.701318	1.203505
C89	C	1.314940	0.201312	0.603849
C90	C	1.814940	0.701312	1.103849
C91	C	1.250772	0.265421	0.554028
C92	C	1.750772	0.765421	1.054028
H93	H	0.928026	0.410215	0.000002
H94	H	1.428026	0.910215	0.500002
H95	H	0.562437	0.462196	-0.000012
H96	H	1.062437	0.962196	0.499988
H97	H	1.030918	-0.244710	-0.000004
H98	H	1.530918	0.255290	0.499996
F99	F	1.495743	-0.211545	-0.000000
F100	F	1.995743	0.288455	0.500000
H101	H	0.573523	0.120623	-0.000009
H102	H	1.073523	0.620623	0.499991
F103	F	1.032045	-0.031812	0.000017
F104	F	1.532045	0.468188	0.500017
F105	F	0.773808	0.510398	-0.000011
F106	F	1.273808	1.010398	0.499989
F107	F	1.469483	-0.437331	-0.000029
F108	F	1.969483	0.062669	0.499971
F109	F	1.118319	0.397762	0.550837
F110	F	1.618319	0.897762	1.050837
F111	F	0.727730	0.020445	-0.000000
F112	F	1.227730	0.520445	0.500000
F113	F	1.118308	0.397749	0.449180
F114	F	1.618308	0.897749	0.949180
F115	F	0.953516	0.046702	0.000009
F116	F	1.453516	0.546702	0.500009
H117	H	1.134327	0.381714	0.255922
H118	H	1.634327	0.881714	0.755922
H119	H	1.395566	-0.057336	-0.000001
H120	H	1.895566	0.442664	0.499999
H121	H	1.105971	-0.411837	-0.000019
H122	H	1.605971	0.088163	0.499981
H123	H	1.367146	0.149099	0.255908
H124	H	1.867146	0.649099	0.755908
H125	H	1.367155	0.149101	0.436698
H126	H	1.867155	0.649101	0.936698
F127	F	1.383246	0.133090	0.756532
F128	F	1.883246	0.633090	1.256532
F129	F	1.383222	0.133084	0.550810
F130	F	1.883222	0.633084	1.050810
F131	F	1.118352	0.397775	0.756550
F132	F	1.618352	0.897775	1.256550
