data_functionalizedCrystal
_audit_creation_method	'MofGen! by Chris Wilmer'
_symmetry_space_group_name_H-M	'P1'
_symmetry_Int_Tables_number	1
_symmetry_cell_setting	triclinic
loop_
_symmetry_equiv_pos_as_xyz
  x,y,z
_cell_length_a	16.974885
_cell_length_b	11.295483
_cell_length_c	16.992695
_cell_angle_alpha	94.374931
_cell_angle_beta	92.976847
_cell_angle_gamma	90.460040
loop_
_atom_site_label
_atom_site_type_symbol
_atom_site_fract_x
_atom_site_fract_y
_atom_site_fract_z
O1	O	1.055317	-0.002580	-0.100039
O2	O	0.827026	0.019402	-0.111600
O3	O	0.940256	0.008490	0.008327
O4	O	0.942087	0.008332	-0.219965
O5	O	0.930310	-0.188602	-0.002190
O6	O	0.817080	-0.177690	-0.122117
O7	O	1.045371	-0.199672	-0.110556
Cu8	Cu	0.930317	-0.206677	-0.117297
Cu9	Cu	0.942080	0.026407	-0.104859
O10	O	0.932141	-0.188760	-0.230482
C11	C	0.792707	-0.076318	-0.116224
C12	C	0.705264	-0.067898	-0.114325
C13	C	0.213642	-0.008890	-0.102989
C14	C	0.295803	-0.016817	-0.104775
C15	C	0.331453	-0.128217	-0.111406
C16	C	0.284939	-0.231696	-0.116244
C17	C	0.202780	-0.223768	-0.114453
C18	C	0.576590	-0.163449	-0.117372
C19	C	0.658755	-0.171370	-0.119165
C20	C	0.669614	0.043510	-0.107694
C21	C	0.587453	0.051429	-0.105908
C22	C	0.540945	-0.052051	-0.110743
N23	N	0.415435	-0.136323	-0.113234
N24	N	0.456966	-0.043944	-0.108909
N25	N	0.922050	-0.370617	-0.126044
C26	C	1.009864	-0.628369	-0.033092
C27	C	1.003622	-0.752432	-0.039708
C28	C	0.903320	-0.742805	-0.145888
C29	C	0.909562	-0.618743	-0.139272
C30	C	0.962837	-0.561530	-0.082873
C31	C	0.969082	-0.437466	-0.076261
C32	C	0.868777	-0.427841	-0.182437
C33	C	0.862535	-0.551903	-0.189053
C34	C	1.079690	-0.103949	-0.105931
C35	C	1.167133	-0.112361	-0.107830
C36	C	0.932928	-0.089830	0.032290
C37	C	0.925903	-0.089153	0.119363
N38	N	0.950353	0.190346	-0.096105
C39	C	0.939469	-0.090438	-0.254445
C40	C	0.946495	-0.091107	-0.341517
C41	C	0.993688	-0.095681	0.169330
C42	C	0.987083	-0.095034	0.251144
C43	C	0.912691	-0.087866	0.282988
C44	C	0.844901	-0.081334	0.233015
C45	C	0.851507	-0.081973	0.151203
C46	C	0.885311	-0.085214	0.526697
C47	C	0.878709	-0.084579	0.608515
C48	C	1.020892	-0.098276	0.626639
C49	C	1.027492	-0.098922	0.544824
C50	C	0.959702	-0.092383	0.494858
N51	N	0.905938	-0.087208	0.366615
N52	N	0.966456	-0.093033	0.411234
H53	H	0.558432	0.142142	-0.100507
C54	C	0.844673	-0.805743	-0.207874
H55	H	0.817539	-0.748168	-0.236560
H56	H	0.872545	-0.857092	-0.243249
H57	H	0.807727	-0.850784	-0.182034
C58	C	1.055351	-0.825957	0.015049
H59	H	1.044000	-0.908039	0.003037
H60	H	1.109421	-0.810715	0.007381
H61	H	1.044530	-0.804489	0.068518
H62	H	0.538734	-0.247710	-0.121297
H63	H	0.819158	-0.598500	-0.234971
H64	H	0.164912	-0.308025	-0.118403
C65	C	0.817054	-0.354316	-0.237208
H66	H	0.828400	-0.272234	-0.225192
H67	H	0.827875	-0.375795	-0.290671
H68	H	0.762977	-0.369547	-0.229540
H69	H	1.053248	-0.581786	0.012826
C70	C	0.810747	-0.078021	0.471742
H71	H	0.825331	-0.079411	0.418457
H72	H	0.776981	-0.143830	0.477758
H73	H	0.783931	-0.006361	0.485098
C74	C	1.075518	-0.103569	0.134304
H75	H	1.069746	-0.103027	0.078423
H76	H	1.107115	-0.037549	0.155100
H77	H	1.100172	-0.175017	0.147773
H78	H	0.184622	0.081824	-0.097595
H79	H	1.012463	-0.390884	-0.030340
C80	C	1.061647	-0.102227	0.306104
H81	H	1.106896	-0.106605	0.275420
H82	H	1.065501	-0.033534	0.342061
H83	H	1.058549	-0.171002	0.334729
H84	H	1.088069	-0.104758	0.518903
H85	H	1.076083	-0.103598	0.667330
C86	C	0.346962	0.096998	-0.099465
H87	H	0.400999	0.076325	-0.101475
H88	H	0.332596	0.142737	-0.142502
H89	H	0.338860	0.142144	-0.051130
H90	H	0.818126	-0.078761	0.634438
C91	C	0.763071	-0.073454	0.268041
H92	H	0.768843	-0.074021	0.323921
H93	H	0.738410	-0.002016	0.254575
H94	H	0.731479	-0.139486	0.247242
H95	H	0.707489	0.127757	-0.103757
H96	H	0.796309	-0.076657	0.110520
H97	H	0.313972	-0.322400	-0.121639
C98	C	0.697972	-0.293915	-0.126420
H99	H	0.658509	-0.354409	-0.129025
H100	H	0.726678	-0.301203	-0.173032
H101	H	0.732917	-0.301737	-0.081657
