data_functionalizedCrystal
_audit_creation_method	'MofGen! by Chris Wilmer'
_symmetry_space_group_name_H-M	'P1'
_symmetry_Int_Tables_number	1
_symmetry_cell_setting	triclinic
loop_
_symmetry_equiv_pos_as_xyz
  x,y,z
_cell_length_a	14.044191
_cell_length_b	10.967819
_cell_length_c	10.066291
_cell_angle_alpha	86.871631
_cell_angle_beta	99.595759
_cell_angle_gamma	91.143123
loop_
_atom_site_label
_atom_site_type_symbol
_atom_site_fract_x
_atom_site_fract_y
_atom_site_fract_z
O1	O	-0.192658	1.598438	-0.489396
O2	O	0.140675	1.931771	-0.156062
O3	O	0.474009	2.265104	0.177271
O4	O	-0.195371	1.248671	-0.407139
O5	O	0.137962	1.582004	-0.073806
O6	O	0.471295	1.915337	0.259528
O7	O	-0.055844	1.418299	-0.447034
O8	O	0.277489	1.751633	-0.113701
O9	O	0.610822	2.084966	0.219633
O10	O	-0.332185	1.428809	-0.449501
O11	O	0.001148	1.762142	-0.116167
O12	O	0.334482	2.095476	0.217166
O13	O	-0.029128	1.450602	-0.227658
O14	O	0.304206	1.783936	0.105676
O15	O	0.637539	2.117269	0.439009
O16	O	-0.168655	1.280974	-0.187763
O17	O	0.164679	1.614307	0.145571
O18	O	0.498012	1.947640	0.478904
O19	O	-0.165941	1.630741	-0.270019
O20	O	0.167392	1.964074	0.063314
O21	O	0.500725	2.297407	0.396647
Zn22	Zn	-0.163056	1.460986	-0.194060
Zn23	Zn	0.170277	1.794319	0.139273
Zn24	Zn	0.503610	2.127653	0.472606
Zn25	Zn	-0.198256	1.418425	-0.483098
Zn26	Zn	0.135077	1.751759	-0.149765
Zn27	Zn	0.468410	2.085092	0.183569
O28	O	-0.305468	1.461112	-0.230124
O29	O	0.027865	1.794445	0.103209
O30	O	0.361198	2.127779	0.436542
C31	C	-0.179796	1.219789	-0.286860
C32	C	0.153537	1.553122	0.046473
C33	C	0.486871	1.886456	0.379806
C34	C	-0.173179	1.085604	-0.255304
C35	C	0.160155	1.418937	0.078030
C36	C	0.493488	1.752270	0.411363
C37	C	-0.177242	0.870361	-0.322288
C38	C	0.156091	1.203694	0.011045
C39	C	0.489424	1.537027	0.344378
C40	C	-0.184074	1.009050	-0.354896
C41	C	0.149260	1.342383	-0.021562
C42	C	0.482593	1.675717	0.311771
C43	C	-0.354304	1.449558	-0.340893
C44	C	-0.020970	1.782891	-0.007560
C45	C	0.312363	2.116225	0.325774
C46	C	-0.460015	1.463271	-0.344116
C47	C	-0.126681	1.796605	-0.010783
C48	C	0.206652	2.129938	0.322550
C49	C	-0.707749	1.391083	-0.327152
C50	C	-0.374415	1.724417	0.006182
C51	C	-0.041082	2.057750	0.339515
C52	C	-0.653560	1.488321	-0.350017
C53	C	-0.320226	1.821654	-0.016684
C54	C	0.013107	2.154988	0.316650
C55	C	-0.545861	1.474380	-0.346733
C56	C	-0.212528	1.807713	-0.013400
C57	C	0.120805	2.141047	0.319934
C58	C	-0.815457	1.405023	-0.330435
C59	C	-0.482124	1.738356	0.002898
C60	C	-0.148790	2.071689	0.336232
C61	C	-0.007009	1.429853	-0.336268
C62	C	0.326324	1.763186	-0.002935
C63	C	0.659657	2.096520	0.330398
C64	C	0.098701	1.416138	-0.333054
C65	C	0.432034	1.749472	0.000280
C66	C	0.765367	2.082805	0.333613
C67	C	-0.181517	1.659622	-0.390301
C68	C	0.151816	1.992955	-0.056967
C69	C	0.485150	2.326289	0.276366
C70	C	-0.188135	1.793806	-0.421866
C71	C	0.145198	2.127139	-0.088533
C72	C	0.478531	2.460473	0.244801
N73	N	-0.139033	1.490041	0.003198
N74	N	0.194301	1.823375	0.336532
N75	N	0.527634	2.156708	0.669865
C76	C	-0.189902	1.428514	0.085476
C77	C	0.143432	1.761848	0.418810
C78	C	0.476765	2.095181	0.752143
C79	C	-0.171404	1.450906	0.237367
C80	C	0.161930	1.784239	0.570700
C81	C	0.495263	2.117573	0.904033
N82	N	-0.222280	1.389370	0.319643
N83	N	0.111053	1.722703	0.652977
N84	N	0.444387	2.056037	0.986310
H85	H	-0.202525	0.830940	-0.531258
H86	H	0.130809	1.164274	-0.197925
H87	H	0.464142	1.497607	0.135408
F88	F	-0.662669	1.268595	-0.298344
F89	F	-0.329336	1.601928	0.034990
F90	F	0.003998	1.935262	0.368323
F91	F	-0.154383	1.037081	-0.112308
F92	F	0.178950	1.370415	0.221025
F93	F	0.512284	1.703748	0.554358
H94	H	-0.247151	1.359265	0.043471
H95	H	0.086182	1.692599	0.376804
H96	H	0.419515	2.025932	0.710138
F97	F	-0.158449	0.821830	-0.179301
F98	F	0.174884	1.155163	0.154032
F99	F	0.508218	1.488496	0.487365
H100	H	-0.114158	1.520169	0.279366
H101	H	0.219176	1.853502	0.612699
H102	H	0.552509	2.186835	0.946032
F103	F	-0.064212	1.580568	0.058096
F104	F	0.269121	1.913902	0.391429
F105	F	0.602455	2.247235	0.724763
F106	F	-0.698639	1.610818	-0.378824
F107	F	-0.365306	1.944152	-0.045490
F108	F	-0.031972	2.277485	0.287843
F109	F	-0.297114	1.298851	0.264749
F110	F	0.036219	1.632185	0.598082
F111	F	0.369553	1.965518	0.931416
H112	H	-0.198464	1.046178	-0.464295
H113	H	0.134869	1.379512	-0.130962
H114	H	0.468203	1.712845	0.202371
