data_functionalizedCrystal
_audit_creation_method	'MofGen! by Chris Wilmer'
_symmetry_space_group_name_H-M	'P1'
_symmetry_Int_Tables_number	1
_symmetry_cell_setting	triclinic
loop_
_symmetry_equiv_pos_as_xyz
  x,y,z
_cell_length_a	14.853567
_cell_length_b	14.044190
_cell_length_c	13.101039
_cell_angle_alpha	86.336293
_cell_angle_beta	93.359409
_cell_angle_gamma	88.413354
loop_
_atom_site_label
_atom_site_type_symbol
_atom_site_fract_x
_atom_site_fract_y
_atom_site_fract_z
O1	O	1.210710	0.118546	0.085155
O2	O	0.949419	0.133288	0.085173
O3	O	1.076138	-0.012072	0.085144
O4	O	1.083991	0.263906	0.085184
O5	O	1.067048	-0.001625	-0.085284
O6	O	0.940329	0.143735	-0.085254
O7	O	1.201619	0.128992	-0.085273
Zn8	Zn	1.069531	0.138022	-0.112323
Zn9	Zn	1.081508	0.124258	0.112223
O10	O	1.074900	0.274352	-0.085244
C11	C	1.068158	-0.042167	-0.000073
C12	C	1.057914	-0.147406	-0.000081
C13	C	0.911233	0.137843	-0.000038
C14	C	0.810991	0.135841	-0.000032
C15	C	0.390941	0.041033	-0.000069
C16	C	0.383348	0.213724	-0.000043
C17	C	0.477531	0.215606	-0.000039
C18	C	0.528423	0.130200	-0.000049
C19	C	0.485133	0.042912	-0.000062
C20	C	0.520829	0.302893	-0.000015
C21	C	0.615018	0.304778	-0.000011
C22	C	0.665912	0.219371	-0.000028
C23	C	0.622616	0.132080	-0.000042
C24	C	0.673508	0.046674	-0.000052
C25	C	0.630213	-0.040619	-0.000073
C26	C	0.536027	-0.042495	-0.000079
C27	C	0.760098	0.221247	-0.000022
C28	C	0.767700	0.048553	-0.000045
C29	C	1.111842	-0.397624	-0.000044
C30	C	1.039201	-0.340090	-0.000046
C31	C	1.049615	-0.232871	-0.000065
C32	C	1.101429	-0.504853	-0.000025
C33	C	1.239806	0.124437	-0.000059
C34	C	1.340048	0.126439	-0.000059
C35	C	1.082880	0.304448	-0.000025
C36	C	1.093125	0.409686	-0.000010
N37	N	1.061363	0.147415	-0.265569
C38	C	1.050251	0.160203	-0.474609
C39	C	1.100791	0.102073	-0.525497
C40	C	1.094608	0.109188	-0.641814
C41	C	1.056433	0.153089	-0.358282
N42	N	1.089682	0.114858	0.265470
H43	H	0.809131	-0.020996	-0.000057
H44	H	0.341906	0.283257	-0.000026
H45	H	0.969190	-0.371359	-0.000035
H46	H	0.500767	-0.113562	-0.000121
H47	H	0.650260	0.375857	0.000007
O48	O	1.157731	0.036116	-0.473257
C49	C	1.107738	-0.026090	-0.411373
H50	H	1.041209	0.010835	-0.395324
H51	H	1.148063	-0.045893	-0.335917
H52	H	1.093515	-0.093513	-0.452837
H53	H	1.002344	0.215311	-0.518395
H54	H	0.671663	-0.110157	-0.000074
H55	H	1.181847	-0.366357	-0.000060
O56	O	0.348750	-0.043679	-0.000043
C57	C	0.254703	-0.027030	-0.000079
H58	H	0.240287	0.044941	0.032197
H59	H	0.223967	-0.085925	0.049387
H60	H	0.223806	-0.026645	-0.081846
H61	H	0.479386	0.372425	0.000003
H62	H	0.795344	0.292319	-0.000006
