data_functionalizedCrystal
_audit_creation_method	'MofGen! by Chris Wilmer'
_symmetry_space_group_name_H-M	'P1'
_symmetry_Int_Tables_number	1
_symmetry_cell_setting	triclinic
loop_
_symmetry_equiv_pos_as_xyz
  x,y,z
_cell_length_a	11.026623
_cell_length_b	11.792241
_cell_length_c	10.268362
_cell_angle_alpha	89.998512
_cell_angle_beta	90.004701
_cell_angle_gamma	83.609940
loop_
_atom_site_label
_atom_site_type_symbol
_atom_site_fract_x
_atom_site_fract_y
_atom_site_fract_z
O1	O	-1.613294	0.475913	-0.108313
O2	O	-1.279961	0.809247	0.225020
O3	O	-0.946627	1.142580	0.558354
O4	O	-1.259632	0.421720	-0.108313
O5	O	-0.926298	0.755053	0.225020
O6	O	-0.592965	1.088386	0.558354
O7	O	-1.445045	0.285350	-0.108304
O8	O	-1.111712	0.618684	0.225029
O9	O	-0.778379	0.952017	0.558363
O10	O	-1.427880	0.612283	-0.108322
O11	O	-1.094547	0.945616	0.225011
O12	O	-0.761214	1.278950	0.558344
O13	O	-1.445027	0.285353	0.108297
O14	O	-1.111694	0.618686	0.441630
O15	O	-0.778361	0.952019	0.774963
O16	O	-1.259614	0.421722	0.108288
O17	O	-0.926280	0.755055	0.441621
O18	O	-0.592947	1.088389	0.774954
O19	O	-1.613276	0.475916	0.108287
O20	O	-1.279943	0.809249	0.441621
O21	O	-0.946610	1.142582	0.774954
Cu22	Cu	-1.436443	0.448819	0.128065
Cu23	Cu	-1.103110	0.782153	0.461398
Cu24	Cu	-0.769777	1.115486	0.794732
Cu25	Cu	-1.436464	0.448816	-0.128090
Cu26	Cu	-1.103131	0.782150	0.205243
Cu27	Cu	-0.769798	1.115483	0.538576
O28	O	-1.427863	0.612285	0.108278
O29	O	-1.094529	0.945619	0.441612
O30	O	-0.761196	1.278952	0.774945
C31	C	-1.214346	0.411723	-0.000013
C32	C	-0.881013	0.745057	0.333321
C33	C	-0.547679	1.078390	0.666654
C34	C	-1.079436	0.381920	-0.000012
C35	C	-0.746103	0.715253	0.333321
C36	C	-0.412769	1.048586	0.666654
C37	C	-1.443958	0.242846	-0.000004
C38	C	-1.110625	0.576180	0.333329
C39	C	-0.777291	0.909513	0.666663
C40	C	-1.440731	0.116192	-0.000005
C41	C	-1.107398	0.449525	0.333328
C42	C	-0.774064	0.782859	0.666661
C43	C	-1.006172	0.464210	-0.000018
C44	C	-0.672839	0.797543	0.333316
C45	C	-0.339505	1.130876	0.666649
C46	C	-0.866735	0.433408	-0.000018
C47	C	-0.533402	0.766742	0.333316
C48	C	-0.200068	1.100075	0.666649
C49	C	-1.434797	-0.115699	-0.000027
C50	C	-1.101463	0.217635	0.333306
C51	C	-0.768130	0.550968	0.666640
C52	C	-1.438094	0.013341	-0.000015
C53	C	-1.104761	0.346675	0.333318
C54	C	-0.771427	0.680008	0.666651
C55	C	-0.658562	0.485911	-0.000015
C56	C	-0.325229	0.819244	0.333318
C57	C	0.008105	1.152578	0.666651
C58	C	-0.793472	0.515710	-0.000023
C59	C	-0.460139	0.849043	0.333310
C60	C	-0.126806	1.182377	0.666644
C61	C	-1.428950	0.654789	-0.000024
C62	C	-1.095616	0.988122	0.333309
C63	C	-0.762283	1.321456	0.666642
C64	C	-1.432177	0.781444	-0.000032
C65	C	-1.098844	1.114777	0.333302
C66	C	-0.765510	1.448110	0.666635
N67	N	-1.436437	0.448822	0.308231
N68	N	-1.103104	0.782156	0.641564
N69	N	-0.769771	1.115489	0.974897
N70	N	-1.436480	0.448806	-0.308256
N71	N	-1.103147	0.782140	0.025077
N72	N	-0.769813	1.115473	0.358410
C73	C	-1.436446	0.448825	0.426073
C74	C	-1.103113	0.782158	0.759406
C75	C	-0.769780	1.115491	1.092740
C76	C	-1.436461	0.448817	0.573911
C77	C	-1.103128	0.782151	0.907244
C78	C	-0.769795	1.115484	1.240578
H79	H	-1.046677	0.557464	-0.000016
H80	H	-0.713344	0.890797	0.333318
H81	H	-0.380010	1.224130	0.666651
C82	C	-1.024736	0.255938	-0.000005
C83	C	-0.691403	0.589271	0.333328
C84	C	-0.358069	0.922604	0.666662
H85	H	-1.088783	0.208304	0.000007
H86	H	-0.755449	0.541637	0.333340
H87	H	-0.422116	0.874971	0.666674
H88	H	-0.975850	0.240888	-0.075535
H89	H	-0.642516	0.574221	0.257798
H90	H	-0.309183	0.907554	0.591131
H91	H	-0.975845	0.240893	0.075541
H92	H	-0.642511	0.574227	0.408874
H93	H	-0.309178	0.907560	0.742208
C94	C	-0.812034	0.307422	-0.000018
C95	C	-0.478701	0.640755	0.333316
C96	C	-0.145368	0.974089	0.666649
H97	H	-0.725494	0.303247	-0.000029
H98	H	-0.392160	0.636580	0.333305
H99	H	-0.058827	0.969914	0.666638
H100	H	-0.838418	0.270644	0.075514
H101	H	-0.505085	0.603977	0.408847
H102	H	-0.171751	0.937310	0.742181
H103	H	-0.838431	0.270656	-0.075562
H104	H	-0.505098	0.603989	0.257771
H105	H	-0.171764	0.937322	0.591104
C106	C	-0.848170	0.641697	-0.000037
C107	C	-0.514837	0.975031	0.333296
C108	C	-0.181504	1.308364	0.666630
H109	H	-0.934711	0.645875	-0.000047
H110	H	-0.601378	0.979208	0.333286
H111	H	-0.268045	1.312541	0.666619
H112	H	-0.821773	0.678477	0.075489
H113	H	-0.488440	1.011811	0.408823
H114	H	-0.155106	1.345144	0.742156
H115	H	-0.821785	0.678460	-0.075587
H116	H	-0.488451	1.011794	0.257746
H117	H	-0.155118	1.345127	0.591080
