data_functionalizedCrystal
_audit_creation_method	'MofGen! by Chris Wilmer'
_symmetry_space_group_name_H-M	'P1'
_symmetry_Int_Tables_number	1
_symmetry_cell_setting	triclinic
loop_
_symmetry_equiv_pos_as_xyz
  x,y,z
_cell_length_a	16.959455
_cell_length_b	16.625545
_cell_length_c	16.959447
_cell_angle_alpha	90.029927
_cell_angle_beta	90.014322
_cell_angle_gamma	90.022505
loop_
_atom_site_label
_atom_site_type_symbol
_atom_site_fract_x
_atom_site_fract_y
_atom_site_fract_z
Zn1	Zn	1.208354	-0.321051	0.446911
Zn2	Zn	1.208263	-0.455899	0.314733
Zn3	Zn	1.076182	-0.321077	0.314748
Zn4	Zn	1.076134	-0.455839	0.446872
O5	O	1.142233	-0.388466	0.380816
O6	O	1.318953	-0.338954	0.429387
O7	O	1.190725	-0.438050	0.204124
O8	O	1.093773	-0.208241	0.332303
O9	O	1.318886	-0.438026	0.332277
O10	O	1.190879	-0.208222	0.429402
O11	O	1.093685	-0.338997	0.204135
O12	O	0.965565	-0.338939	0.332265
O13	O	1.093691	-0.437923	0.557488
O14	O	0.965530	-0.437947	0.429335
O15	O	1.190832	-0.338895	0.557517
O16	O	1.190678	-0.568723	0.332239
O17	O	1.093604	-0.568679	0.429321
C18	C	0.936867	-0.388440	0.380798
C19	C	0.849010	-0.388448	0.380809
C20	C	0.477529	-0.336870	0.330377
C21	C	0.477541	-0.440129	0.431300
C22	C	0.560087	-0.440117	0.431295
C23	C	0.601358	-0.388482	0.380830
C24	C	0.560082	-0.336859	0.330369
C25	C	0.601368	-0.491746	0.481750
C26	C	0.683919	-0.491737	0.481746
C27	C	0.725191	-0.440097	0.431284
C28	C	0.683911	-0.388471	0.380822
C29	C	0.725182	-0.336836	0.330356
C30	C	0.683903	-0.285205	0.279897
C31	C	0.601355	-0.285219	0.279907
C32	C	0.807740	-0.440083	0.431275
C33	C	0.807735	-0.336824	0.330348
C34	C	1.142147	-0.597957	0.380791
C35	C	1.142183	-0.687578	0.380807
C36	C	1.142214	-0.760361	0.380823
C37	C	1.142260	-0.851669	0.380840
C38	C	1.142301	-0.924446	0.380850
C39	C	1.142346	-1.015760	0.380866
C40	C	1.348402	-0.388494	0.380835
C41	C	1.436258	-0.388505	0.380843
C42	C	1.142266	-0.388400	0.586984
C43	C	1.142280	-0.388371	0.674841
C44	C	1.142341	-0.178157	0.380858
C45	C	1.142387	-0.088536	0.380876
C46	C	1.142246	-0.388475	0.175450
C47	C	1.142385	-0.388276	0.087594
C48	C	1.091798	-0.439845	1.046304
C49	C	1.192952	-0.336727	1.046329
C50	C	1.192931	-0.336744	0.963783
C51	C	1.142343	-0.388313	0.922494
C52	C	1.091777	-0.439866	0.963751
C53	C	1.243502	-0.285199	0.922521
C54	C	1.243483	-0.285214	0.839970
C55	C	1.192891	-0.336780	0.798679
C56	C	1.142322	-0.388334	0.839941
C57	C	1.091735	-0.439903	0.798651
C58	C	1.041161	-0.491453	0.839911
C59	C	1.041185	-0.491431	0.922460
C60	C	1.192868	-0.336802	0.716130
C61	C	1.091714	-0.439923	0.716098
H62	H	0.443933	-0.482173	0.472382
H63	H	0.717521	-0.533777	0.522834
C64	C	1.254472	-0.176762	0.747191
C65	C	1.299057	-0.228531	0.794627
H66	H	1.288778	-0.141766	0.719197
H67	H	1.220058	-0.145928	0.779413
H68	H	1.224352	-0.207484	0.710782
H69	H	1.329172	-0.197809	0.831039
H70	H	1.333485	-0.259368	0.762402
H71	H	1.000013	-0.533403	0.956061
H72	H	1.284692	-0.243219	0.956144
C73	C	0.485822	-0.234796	0.230620
C74	C	0.432161	-0.280118	0.274914
H75	H	0.457812	-0.199757	0.196383
H76	H	0.517994	-0.269886	0.200322
H77	H	0.518043	-0.203998	0.265117
H78	H	0.399943	-0.310921	0.240416
H79	H	0.399975	-0.245024	0.305214
H80	H	1.234046	-0.294833	0.682540
H81	H	1.234142	-0.294746	1.079952
C82	C	1.046906	-0.485605	1.172829
C83	C	1.036211	-0.496510	1.091653
H84	H	1.012592	-0.520592	1.200824
H85	H	1.035367	-0.431432	1.186367
H86	H	1.100014	-0.497411	1.186350
H87	H	0.983104	-0.484698	1.078131
H88	H	1.047745	-0.550696	1.078109
C89	C	0.985356	-0.451145	0.623266
C90	C	1.036104	-0.496613	0.670719
H91	H	0.951023	-0.486145	0.595257
H92	H	1.015468	-0.420460	0.586878
H93	H	0.955151	-0.416001	0.655484
H94	H	1.066314	-0.531753	0.638500
H95	H	1.005989	-0.527311	0.707111
C96	C	0.833113	-0.297378	0.196566
C97	C	0.853100	-0.280068	0.274871
H98	H	0.861124	-0.262342	0.162318
H99	H	0.778049	-0.289990	0.189357
H100	H	0.846624	-0.351540	0.184913
H101	H	0.839583	-0.225908	0.286526
H102	H	0.908176	-0.287450	0.282083
C103	C	0.709294	-0.245764	0.146115
C104	C	0.729276	-0.228454	0.224422
H105	H	0.737313	-0.210734	0.111869
H106	H	0.654232	-0.238368	0.138902
H107	H	0.722798	-0.299928	0.134465
H108	H	0.715767	-0.174292	0.236073
H109	H	0.784351	-0.235844	0.231639
H110	H	0.999976	-0.533444	0.806283
C111	C	0.474831	-0.537600	0.526574
C112	C	0.556003	-0.548500	0.537219
H113	H	0.446824	-0.572637	0.560824
H114	H	0.461285	-0.549335	0.473452
H115	H	0.461334	-0.483438	0.538239
H116	H	0.569502	-0.602661	0.525547
H117	H	0.569555	-0.536772	0.590352
H118	H	0.567738	-0.243185	0.238825
H119	H	0.841345	-0.482122	0.472355
