data_functionalizedCrystal
_audit_creation_method	'MofGen! by Chris Wilmer'
_symmetry_space_group_name_H-M	'P1'
_symmetry_Int_Tables_number	1
_symmetry_cell_setting	triclinic
loop_
_symmetry_equiv_pos_as_xyz
  x,y,z
_cell_length_a	19.805407
_cell_length_b	19.077692
_cell_length_c	19.805399
_cell_angle_alpha	87.728486
_cell_angle_beta	90.019573
_cell_angle_gamma	87.730708
loop_
_atom_site_label
_atom_site_type_symbol
_atom_site_fract_x
_atom_site_fract_y
_atom_site_fract_z
Zn1	Zn	1.045551	-0.280198	0.393551
Zn2	Zn	1.050008	-0.397889	0.284912
Zn3	Zn	0.932366	-0.280218	0.280376
Zn4	Zn	0.936870	-0.397852	0.398057
O5	O	0.991199	-0.339039	0.339224
O6	O	1.140859	-0.295818	0.379152
O7	O	1.034383	-0.382303	0.189594
O8	O	0.943630	-0.181731	0.291605
O9	O	1.144134	-0.382285	0.299335
O10	O	1.026786	-0.181717	0.374754
O11	O	0.947952	-0.295851	0.186262
O12	O	0.838247	-0.295814	0.295974
O13	O	0.951306	-0.382221	0.492175
O14	O	0.841556	-0.382240	0.382434
O15	O	1.031153	-0.295781	0.488864
O16	O	1.038751	-0.496368	0.303705
O17	O	0.955628	-0.496341	0.386832
C18	C	0.815342	-0.339026	0.339201
C19	C	0.740111	-0.339037	0.339209
C20	C	0.706510	-0.384106	0.384161
C21	C	0.635821	-0.384107	0.384170
C22	C	0.598735	-0.339042	0.339224
C23	C	0.632341	-0.293968	0.294270
C24	C	0.703028	-0.293964	0.294264
C25	C	0.347268	-0.293984	0.294293
C26	C	0.276576	-0.293993	0.294301
C27	C	0.280062	-0.384127	0.384199
C28	C	0.350749	-0.384123	0.384193
C29	C	0.384348	-0.339046	0.339242
C30	C	0.460996	-0.339045	0.339233
C31	C	0.522088	-0.339047	0.339229
C32	C	0.998180	-0.521890	0.346264
C33	C	1.001229	-0.600115	0.349299
C34	C	0.959405	-0.636935	0.307405
C35	C	0.962277	-0.710435	0.310260
C36	C	1.006969	-0.747114	0.355012
C37	C	1.048797	-0.710289	0.396907
C38	C	1.045928	-0.636790	0.394049
C39	C	1.020189	-0.966925	0.368202
C40	C	1.023053	-1.040429	0.371059
C41	C	0.936534	-1.040571	0.284410
C42	C	0.933666	-0.967070	0.281559
C43	C	0.975497	-0.930251	0.323452
N44	N	1.009903	-0.822243	0.357932
N45	N	0.972565	-0.855124	0.320528
C46	C	1.167742	-0.339053	0.339247
C47	C	1.242974	-0.339059	0.339257
C48	C	0.991235	-0.338995	0.515765
C49	C	0.991250	-0.338976	0.590996
C50	C	0.984208	-0.155474	0.332171
C51	C	0.981230	-0.077249	0.329165
C52	C	0.991200	-0.339032	0.163368
C53	C	0.991308	-0.338853	0.088129
C54	C	1.032828	-0.293965	0.624617
C55	C	1.032834	-0.293944	0.695305
C56	C	0.991266	-0.338939	0.732370
C57	C	0.949684	-0.383952	0.698744
C58	C	0.949675	-0.383969	0.628058
C59	C	0.949720	-0.383887	0.983815
C60	C	0.949733	-0.383868	1.054507
C61	C	1.032879	-0.293862	1.051063
C62	C	1.032870	-0.293879	0.980376
C63	C	0.991285	-0.338889	0.946756
C64	C	0.991278	-0.338910	0.870108
C65	C	0.991276	-0.338923	0.809017
H66	H	0.736701	-0.420806	0.420759
Cl67	Cl	1.085131	-0.237314	0.933784
H68	H	0.923010	-0.607076	0.270967
H69	H	0.380941	-0.420822	0.420791
H70	H	0.915811	-0.420614	0.600684
H71	H	0.602140	-0.257272	0.257676
H72	H	0.915881	-0.420510	1.084684
Cl73	Cl	1.085155	-0.237274	1.093332
H74	H	0.897275	-0.937208	0.245118
Cl75	Cl	1.072772	-0.920648	0.420872
Cl76	Cl	1.104984	-0.756399	0.453164
H77	H	0.928221	-0.740411	0.276144
H78	H	0.902478	-1.070557	0.250303
Cl79	Cl	1.079248	-1.086538	0.427316
H80	H	0.915869	-0.420547	0.956451
H81	H	0.252697	-0.420828	0.420803
H82	H	1.079986	-0.606811	0.428162
H83	H	0.374616	-0.257285	0.257685
H84	H	0.730384	-0.257260	0.257663
Cl85	Cl	1.085092	-0.237400	0.578028
H86	H	0.608467	-0.420808	0.420774
Cl87	Cl	1.085136	-0.237387	0.737570
H88	H	0.246382	-0.257291	0.257700
Cl89	Cl	0.897424	-0.440515	0.745341
