data_functionalizedCrystal
_audit_creation_method	'MofGen! by Chris Wilmer'
_symmetry_space_group_name_H-M	'P1'
_symmetry_Int_Tables_number	1
_symmetry_cell_setting	triclinic
loop_
_symmetry_equiv_pos_as_xyz
  x,y,z
_cell_length_a	16.109318
_cell_length_b	16.109304
_cell_length_c	17.766277
_cell_angle_alpha	89.996447
_cell_angle_beta	89.994221
_cell_angle_gamma	83.465600
loop_
_atom_site_label
_atom_site_type_symbol
_atom_site_fract_x
_atom_site_fract_y
_atom_site_fract_z
O1	O	1.103130	0.106937	-0.062527
O2	O	0.861070	0.120221	-0.062541
O3	O	0.988748	-0.007451	-0.062534
O4	O	0.975451	0.234609	-0.062534
O5	O	0.988726	-0.007458	0.062654
O6	O	0.861047	0.120215	0.062647
O7	O	1.103107	0.106930	0.062662
Cu8	Cu	0.982075	0.113572	0.074085
Cu9	Cu	0.982102	0.113580	-0.073965
O10	O	0.975429	0.234603	0.062654
C11	C	0.830084	0.119677	0.000051
C12	C	0.737789	0.118056	0.000045
C13	C	0.988198	-0.038430	0.000058
C14	C	0.986582	-0.130725	0.000053
C15	C	0.438728	0.112825	-0.068182
C16	C	0.525449	0.114342	-0.068187
C17	C	0.525443	0.114324	0.068301
C18	C	0.438725	0.112801	0.068305
C19	C	0.395368	0.112055	0.000061
C20	C	0.568809	0.115096	0.000053
C21	C	0.662836	0.116741	0.000048
C22	C	0.301336	0.110408	0.000065
C23	C	0.982861	-0.343059	-0.068185
C24	C	0.981334	-0.429779	-0.068184
C25	C	0.981314	-0.429783	0.068303
C26	C	0.982834	-0.343064	0.068302
C27	C	0.983612	-0.299704	0.000056
C28	C	0.980565	-0.473144	0.000058
C29	C	0.978911	-0.567170	0.000059
C30	C	0.985265	-0.205672	0.000054
C31	C	1.134093	0.107474	0.000068
C32	C	1.226388	0.109095	0.000069
C33	C	0.975979	0.265581	0.000060
C34	C	0.977595	0.357876	0.000060
N35	N	0.982063	0.113566	0.178215
N36	N	0.982121	0.113579	-0.178095
C37	C	1.038617	0.057060	0.217606
C38	C	1.038622	0.057056	0.296407
C39	C	0.982080	0.113573	0.335816
C40	C	0.925515	0.170083	0.296416
C41	C	0.925507	0.170079	0.217616
C42	C	0.971167	0.189294	0.460654
C43	C	0.971182	0.189298	0.539452
C44	C	0.982102	0.113583	0.578862
C45	C	0.993026	0.037859	0.539464
C46	C	0.993018	0.037856	0.460663
C47	C	0.982083	0.113582	0.421262
C48	C	1.038665	0.057068	0.703698
C49	C	1.038664	0.057063	0.782502
C50	C	0.925562	0.170097	0.782509
C51	C	0.925559	0.170094	0.703707
C52	C	0.982115	0.113581	0.664307
H53	H	0.403430	0.112217	-0.123750
H54	H	0.560749	0.114968	-0.123757
O55	O	0.864542	0.231046	0.338924
H56	H	0.875118	0.295860	0.323782
H57	H	0.879452	0.216094	0.185544
H58	H	0.980721	-0.465074	-0.123752
H59	H	0.560754	0.114932	0.123862
O60	O	0.864592	0.231081	0.824994
H61	H	0.799779	0.220480	0.809890
H62	H	0.980683	-0.465097	0.123867
O63	O	0.391948	0.111976	0.141913
H64	H	0.436661	0.112764	0.189366
O65	O	0.983683	-0.296286	-0.141789
H66	H	0.982894	-0.341005	-0.189240
O67	O	0.983654	-0.296294	0.141907
H68	H	0.982874	-0.341014	0.189363
H69	H	1.084676	0.011041	0.328485
O70	O	1.099603	-0.003901	0.175107
H71	H	1.138924	-0.043200	0.215742
H72	H	1.001910	-0.023801	0.428588
O73	O	1.004799	-0.043816	0.581956
H74	H	1.002959	-0.031097	0.643369
H75	H	1.084714	0.011049	0.671617
O76	O	1.099673	-0.003876	0.824993
H77	H	1.139004	-0.043162	0.784353
H78	H	0.962292	0.250957	0.571525
O79	O	0.864570	0.231049	0.661214
H80	H	0.825258	0.270354	0.701853
H81	H	0.962260	0.250955	0.428572
