data_functionalizedCrystal
_audit_creation_method	'MofGen! by Chris Wilmer'
_symmetry_space_group_name_H-M	'P1'
_symmetry_Int_Tables_number	1
_symmetry_cell_setting	triclinic
loop_
_symmetry_equiv_pos_as_xyz
  x,y,z
_cell_length_a	17.077404
_cell_length_b	18.101395
_cell_length_c	17.077395
_cell_angle_alpha	90.026207
_cell_angle_beta	90.015641
_cell_angle_gamma	90.031329
loop_
_atom_site_label
_atom_site_type_symbol
_atom_site_fract_x
_atom_site_fract_y
_atom_site_fract_z
Zn1	Zn	1.199980	-0.294834	0.443848
Zn2	Zn	1.533313	0.038499	0.777182
Zn3	Zn	1.866647	0.371832	1.110515
Zn4	Zn	1.199877	-0.418680	0.312585
Zn5	Zn	1.533210	-0.085347	0.645918
Zn6	Zn	1.866544	0.247986	0.979251
Zn7	Zn	1.068721	-0.294858	0.312596
Zn8	Zn	1.402054	0.038476	0.645930
Zn9	Zn	1.735387	0.371809	0.979263
Zn10	Zn	1.068661	-0.418639	0.443808
Zn11	Zn	1.401994	-0.085306	0.777141
Zn12	Zn	1.735328	0.248028	1.110475
O13	O	1.134310	-0.356753	0.378209
O14	O	1.467643	-0.023420	0.711543
O15	O	1.800976	0.309914	1.044876
O16	O	1.309813	-0.311270	0.426448
O17	O	1.643146	0.022063	0.759781
O18	O	1.976480	0.355396	1.093114
O19	O	1.182461	-0.402282	0.202739
O20	O	1.515794	-0.068949	0.536072
O21	O	1.849127	0.264385	0.869406
O22	O	1.086200	-0.191222	0.330029
O23	O	1.419534	0.142112	0.663362
O24	O	1.752867	0.475445	0.996695
O25	O	1.309738	-0.402259	0.330009
O26	O	1.643071	-0.068926	0.663342
O27	O	1.976404	0.264407	0.996676
O28	O	1.182636	-0.191205	0.426459
O29	O	1.515969	0.142129	0.759792
O30	O	1.849303	0.475462	1.093126
O31	O	1.086101	-0.311310	0.202748
O32	O	1.419434	0.022023	0.536081
O33	O	1.752767	0.355357	0.869414
O34	O	0.958866	-0.311270	0.329990
O35	O	1.292199	0.022063	0.663323
O36	O	1.625532	0.355397	0.996656
O37	O	1.086099	-0.402189	0.553660
O38	O	1.419432	-0.068856	0.886994
O39	O	1.752765	0.264478	1.220327
O40	O	0.958822	-0.402212	0.426391
O41	O	1.292155	-0.068878	0.759724
O42	O	1.625489	0.264455	1.093057
O43	O	1.182578	-0.311230	0.553690
O44	O	1.515912	0.022103	0.887023
O45	O	1.849245	0.355436	1.220357
O46	O	1.182403	-0.522308	0.329970
O47	O	1.515736	-0.188974	0.663303
O48	O	1.849070	0.144359	0.996637
O49	O	1.085999	-0.522277	0.426379
O50	O	1.419332	-0.188944	0.759713
O51	O	1.752666	0.144389	1.093046
C52	C	0.930362	-0.356739	0.378188
C53	C	1.263695	-0.023406	0.711521
C54	C	1.597028	0.309927	1.044854
C55	C	0.843112	-0.356752	0.378197
C56	C	1.176445	-0.023418	0.711530
C57	C	1.509779	0.309915	1.044864
C58	C	0.802119	-0.404176	0.428312
C59	C	1.135453	-0.070843	0.761646
C60	C	1.468786	0.262490	1.094979
C61	C	0.720139	-0.404178	0.428325
C62	C	1.053472	-0.070845	0.761658
C63	C	1.386806	0.262489	1.094992
C64	C	0.679153	-0.356758	0.378218
C65	C	1.012486	-0.023425	0.711551
C66	C	1.345819	0.309909	1.044884
C67	C	0.720151	-0.309328	0.328100
C68	C	1.053484	0.024005	0.661433
C69	C	1.386817	0.357339	0.994767
C70	C	0.802130	-0.309323	0.328092
C71	C	1.135463	0.024010	0.661425
C72	C	1.468796	0.357344	0.994759
C73	C	0.549281	-0.309343	0.328119
C74	C	0.882614	0.023991	0.661452
C75	C	1.215947	0.357324	0.994785
C76	C	0.467296	-0.309348	0.328126
C77	C	0.800629	0.023985	0.661459
C78	C	1.133963	0.357319	0.994792
C79	C	0.467290	-0.404197	0.428352
C80	C	0.800623	-0.070864	0.761685
C81	C	1.133957	0.262469	1.095018
C82	C	0.549269	-0.404193	0.428344
C83	C	0.882602	-0.070859	0.761677
C84	C	1.215936	0.262474	1.095010
C85	C	0.590262	-0.356763	0.378225
C86	C	0.923595	-0.023430	0.711558
C87	C	1.256928	0.309903	1.044892
C88	C	1.134205	-0.549163	0.378186
C89	C	1.467538	-0.215830	0.711520
C90	C	1.800871	0.117503	1.044853
C91	C	1.134231	-0.631478	0.378203
C92	C	1.467565	-0.298144	0.711536
C93	C	1.800898	0.035189	1.044869
C94	C	1.134404	-0.930568	0.378245
C95	C	1.467737	-0.597235	0.711578
C96	C	1.801070	-0.263902	1.044912
C97	C	1.073890	-0.899255	0.439054
C98	C	1.407223	-0.565922	0.772387
C99	C	1.740556	-0.232588	1.105720
C100	C	1.073602	-0.813637	0.438863
C101	C	1.406935	-0.480304	0.772197
C102	C	1.740269	-0.146970	1.105530
C103	C	1.134318	-0.782186	0.378225
C104	C	1.467652	-0.448853	0.711558
C105	C	1.800985	-0.115519	1.044891
C106	C	1.111927	-0.813336	0.295495
C107	C	1.445260	-0.480003	0.628828
C108	C	1.778593	-0.146669	0.962162
C109	C	1.111537	-0.898981	0.295859
C110	C	1.444870	-0.565648	0.629192
C111	C	1.778203	-0.232314	0.962526
C112	C	1.217442	-0.898912	0.399437
C113	C	1.550775	-0.565579	0.732771
C114	C	1.884108	-0.232246	1.066104
C115	C	1.216953	-0.813261	0.401252
C116	C	1.550287	-0.479928	0.734585
C117	C	1.883620	-0.146594	1.067918
C118	C	1.134271	-0.698326	0.378208
C119	C	1.467605	-0.364993	0.711541
C120	C	1.800938	-0.031660	1.044875
C121	C	1.134449	-1.014428	0.378256
C122	C	1.467782	-0.681095	0.711589
C123	C	1.801115	-0.347761	1.044923
C124	C	1.339054	-0.356767	0.378231
C125	C	1.672387	-0.023434	0.711565
C126	C	2.005720	0.309900	1.044898
C127	C	1.426304	-0.356773	0.378241
C128	C	1.759637	-0.023440	0.711574
C129	C	2.092970	0.309894	1.044908
C130	C	1.134343	-0.356703	0.582954
C131	C	1.467677	-0.023369	0.916287
C132	C	1.801010	0.309964	1.249620
C133	C	1.134358	-0.356681	0.670203
C134	C	1.467691	-0.023348	1.003537
C135	C	1.801024	0.309986	1.336870
C136	C	1.134436	-0.163591	0.378250
C137	C	1.467770	0.169742	0.711583
C138	C	1.801103	0.503076	1.044916
C139	C	1.134490	-0.081277	0.378267
C140	C	1.467824	0.252057	0.711600
C141	C	1.801157	0.585390	1.044933
C142	C	1.134321	-0.356750	0.174261
C143	C	1.467655	-0.023416	0.507595
C144	C	1.800988	0.309917	0.840928
C145	C	1.134459	-0.356562	0.087012
C146	C	1.467792	-0.023229	0.420345
C147	C	1.801126	0.310104	0.753679
C148	C	1.184682	-0.309218	1.046035
C149	C	1.518015	0.024115	1.379368
C150	C	1.851348	0.357448	1.712701
C151	C	1.184666	-0.309244	0.964054
C152	C	1.517999	0.024089	1.297388
C153	C	1.851332	0.357422	1.630721
C154	C	1.134422	-0.356611	0.923053
C155	C	1.467756	-0.023278	1.256386
C156	C	1.801089	0.310056	1.589719
C157	C	1.084197	-0.403960	0.964036
C158	C	1.417531	-0.070627	1.297369
C159	C	1.750864	0.262706	1.630702
C160	C	1.084218	-0.403938	1.046015
C161	C	1.417551	-0.070604	1.379348
C162	C	1.750885	0.262729	1.712681
C163	C	1.084157	-0.404003	0.793166
C164	C	1.417490	-0.070670	1.126499
C165	C	1.750823	0.262664	1.459832
C166	C	1.084135	-0.404025	0.711181
C167	C	1.417468	-0.070692	1.044514
C168	C	1.750802	0.262642	1.377848
C169	C	1.184604	-0.309310	0.711205
C170	C	1.517938	0.024023	1.044538
C171	C	1.851271	0.357357	1.377872
C172	C	1.184625	-0.309287	0.793184
C173	C	1.517958	0.024046	1.126517
C174	C	1.851292	0.357380	1.459851
C175	C	1.134399	-0.356636	0.834161
C176	C	1.467732	-0.023302	1.167495
C177	C	1.801065	0.310031	1.500828
H178	H	0.835485	-0.442794	0.469113
H179	H	1.168818	-0.109460	0.802446
H180	H	1.502151	0.223873	1.135780
Br181	Br	0.664509	-0.468541	0.496344
Br182	Br	0.997842	-0.135208	0.829677
Br183	Br	1.331176	0.198126	1.163010
Br184	Br	0.411671	-0.244997	0.260116
Br185	Br	0.745005	0.088336	0.593449
Br186	Br	1.078338	0.421669	0.926783
Br187	Br	0.604913	-0.244972	0.260101
Br188	Br	0.938246	0.088361	0.593435
Br189	Br	1.271580	0.421695	0.926768
H190	H	0.582638	-0.442810	0.469141
H191	H	0.915971	-0.109477	0.802475
H192	H	1.249305	0.223857	1.135808
H193	H	1.225591	-0.270642	1.079412
H194	H	1.558924	0.062691	1.412746
H195	H	1.892257	0.396025	1.746079
H196	H	1.264424	-0.791848	0.360190
H197	H	1.597757	-0.458514	0.693523
H198	H	1.931091	-0.125181	1.026857
H199	H	1.050836	-0.919024	0.277907
H200	H	1.384170	-0.585691	0.611240
H201	H	1.717503	-0.252357	0.944574
Br202	Br	1.252792	-0.245073	0.655594
Br203	Br	1.586125	0.088261	0.988928
Br204	Br	1.919458	0.421594	1.322261
H205	H	1.225564	-0.270694	0.930694
H206	H	1.558897	0.062639	1.264027
H207	H	1.892231	0.395973	1.597361
Br208	Br	1.016060	-0.468196	1.101628
Br209	Br	1.349393	-0.134863	1.434961
Br210	Br	1.682727	0.198470	1.768295
H211	H	0.433910	-0.442814	0.469163
H212	H	0.767243	-0.109480	0.802496
H213	H	1.100577	0.223853	1.135829
Br214	Br	1.016012	-0.468248	0.908392
Br215	Br	1.349346	-0.134914	1.241725
Br216	Br	1.682679	0.198419	1.575058
H217	H	0.686773	-0.270715	0.287305
H218	H	1.020106	0.062619	0.620638
H219	H	1.353440	0.395952	0.953972
H220	H	1.154616	-0.792965	0.248952
H221	H	1.487949	-0.459631	0.582286
H222	H	1.821283	-0.126298	0.915619
H223	H	1.262527	-0.919161	0.355148
H224	H	1.595860	-0.585828	0.688481
H225	H	1.929193	-0.252494	1.021815
H226	H	1.153701	-0.919697	0.249007
H227	H	1.487034	-0.586364	0.582340
H228	H	1.820368	-0.253031	0.915673
Br229	Br	1.245101	-0.779326	0.502731
Br230	Br	1.578434	-0.445993	0.836064
Br231	Br	1.911767	-0.112660	1.169398
H232	H	0.835505	-0.270701	0.287287
H233	H	1.168838	0.062632	0.620620
H234	H	1.502171	0.395966	0.953954
H235	H	1.087611	-0.792574	0.500206
H236	H	1.420944	-0.459241	0.833540
H237	H	1.754277	-0.125907	1.166873
Br238	Br	1.252826	-0.245015	0.848829
Br239	Br	1.586159	0.088318	1.182163
Br240	Br	1.919493	0.421651	1.515496
Br241	Br	1.097000	-0.933505	0.541632
Br242	Br	1.430334	-0.600172	0.874965
Br243	Br	1.763667	-0.266838	1.208299
Br244	Br	0.971928	-0.935253	0.415973
Br245	Br	1.305261	-0.601919	0.749306
Br246	Br	1.638595	-0.268586	1.082639
Br247	Br	1.011826	-0.777699	0.265034
Br248	Br	1.345159	-0.444365	0.598367
Br249	Br	1.678492	-0.111032	0.931701
H250	H	1.012052	-0.793214	0.424826
H251	H	1.345386	-0.459881	0.758159
H252	H	1.678719	-0.126547	1.091492
Br253	Br	1.251470	-0.934828	0.498272
Br254	Br	1.584804	-0.601494	0.831605
Br255	Br	1.918137	-0.268161	1.164938
Br256	Br	1.015950	-0.468312	0.655536
Br257	Br	1.349284	-0.134979	0.988869
Br258	Br	1.682617	0.198354	1.322202
Br259	Br	1.015993	-0.468263	0.848777
Br260	Br	1.349327	-0.134930	1.182111
Br261	Br	1.682660	0.198403	1.515444
