data_functionalizedCrystal
_audit_creation_method	'MofGen! by Chris Wilmer'
_symmetry_space_group_name_H-M	'P1'
_symmetry_Int_Tables_number	1
_symmetry_cell_setting	triclinic
loop_
_symmetry_equiv_pos_as_xyz
  x,y,z
_cell_length_a	27.732048
_cell_length_b	15.995350
_cell_length_c	15.072220
_cell_angle_alpha	89.998899
_cell_angle_beta	89.985054
_cell_angle_gamma	96.932485
loop_
_atom_site_label
_atom_site_type_symbol
_atom_site_fract_x
_atom_site_fract_y
_atom_site_fract_z
O1	O	0.641363	-0.099622	-0.073829
O2	O	0.500635	-0.114771	-0.073819
O3	O	0.574846	0.014741	-0.073823
O4	O	0.567152	-0.229134	-0.073824
O5	O	0.574827	0.014734	0.073742
O6	O	0.500616	-0.114778	0.073746
O7	O	0.641344	-0.099630	0.073736
Zn8	Zn	0.570977	-0.107205	0.097170
Zn9	Zn	0.571002	-0.107195	-0.097253
O10	O	0.567133	-0.229141	0.073741
C11	C	0.574518	0.045928	-0.000042
C12	C	0.573565	0.138866	-0.000047
C13	C	0.482617	-0.114456	-0.000035
C14	C	0.428958	-0.113499	-0.000031
C15	C	0.659362	-0.099944	-0.000049
C16	C	0.713021	-0.100901	-0.000059
C17	C	1.051532	-0.030396	-0.000028
C18	C	1.253207	-0.033949	-0.000025
O19	O	1.284184	0.030523	0.000013
N20	N	1.272662	-0.110744	-0.000028
C21	C	1.241694	-0.186656	-0.000026
O22	O	1.262870	-0.252057	-0.000019
C23	C	1.040020	-0.183103	-0.000022
C24	C	1.020569	-0.106303	-0.000028
C25	C	1.032079	0.046397	-0.000033
C26	C	0.981664	0.047285	-0.000039
C27	C	0.950700	-0.028622	-0.000039
C28	C	0.970153	-0.105416	-0.000034
C29	C	1.009054	-0.259014	-0.000014
C30	C	0.958633	-0.258119	-0.000011
C31	C	0.939181	-0.181319	-0.000017
C32	C	0.888774	-0.180435	-0.000040
N33	N	0.869319	-0.103640	-0.000037
C34	C	0.900282	-0.027733	-0.000037
C35	C	1.347577	-0.188517	-0.000029
C36	C	1.397995	-0.189405	-0.000032
C37	C	1.409504	-0.036698	-0.000030
C38	C	1.359085	-0.035810	-0.000033
C39	C	1.328122	-0.111722	-0.000027
C40	C	0.794405	-0.025875	-0.000049
C41	C	0.743984	-0.024995	-0.000058
C42	C	0.732480	-0.177702	-0.000056
C43	C	0.782896	-0.178583	-0.000052
C44	C	0.813858	-0.102663	-0.000045
O45	O	0.857768	-0.244872	-0.000068
O46	O	0.879098	0.037658	-0.000024
C47	C	1.101948	-0.031284	-0.000022
C48	C	1.121400	-0.108078	-0.000017
C49	C	1.090437	-0.183984	-0.000018
C50	C	1.171818	-0.108966	-0.000020
C51	C	1.202782	-0.033060	-0.000019
C52	C	1.183327	0.043735	-0.000016
C53	C	1.132911	0.044623	-0.000022
C54	C	1.109892	-0.260779	-0.000021
C55	C	1.160308	-0.261660	-0.000016
C56	C	1.191271	-0.185754	-0.000016
C57	C	0.567461	-0.260328	-0.000042
C58	C	0.568414	-0.353266	-0.000043
N59	N	0.570964	-0.107211	0.229859
C60	C	0.570140	0.476569	-0.000044
C61	C	0.517289	0.428451	-0.000371
C62	C	0.518242	0.331773	-0.000039
C63	C	0.571839	0.309031	-0.000046
C64	C	0.597897	0.350441	0.084217
C65	C	0.596569	0.447060	0.084288
C66	C	0.597682	0.447440	-0.083521
C67	C	0.597669	0.350495	-0.084635
C68	C	0.572802	0.214346	-0.000044
C69	C	0.569179	0.571255	-0.000040
N70	N	0.571018	-0.107182	-0.229942
C71	C	0.571001	-0.107192	0.589061
C72	C	0.531158	-0.176262	0.551456
C73	C	0.531250	-0.176511	0.448630
C74	C	0.570982	-0.107202	0.410857
C75	C	0.621417	-0.125631	0.448144
C76	C	0.621193	-0.126121	0.551002
C77	C	0.560858	-0.019484	0.551162
C78	C	0.559701	-0.020085	0.448299
C79	C	0.570975	-0.107205	0.310143
C80	C	0.571011	-0.107190	0.689774
H81	H	0.728150	0.037548	-0.000066
H82	H	0.589913	0.031908	0.575479
C83	C	0.651088	0.332030	0.088458
N84	N	0.691151	0.318155	0.091655
C85	C	0.540002	-0.264458	0.415373
N86	N	0.546598	-0.330703	0.390325
C87	C	0.924576	-0.341631	-0.000006
N88	N	0.898926	-0.404531	-0.000006
H89	H	0.630131	-0.190066	0.574983
H90	H	0.630568	-0.188843	0.422374
H91	H	0.579783	0.321822	0.146928
C92	C	0.662459	-0.060719	0.584607
N93	N	0.693545	-0.011469	0.609914
H94	H	0.497606	0.303639	0.060470
C95	C	0.650474	0.330432	-0.091513
N96	N	0.690250	0.315325	-0.096686
H97	H	0.651773	-0.076634	0.423673
H98	H	0.577552	0.465112	0.147281
C99	C	0.596365	0.052538	0.413585
N100	N	0.623988	0.107235	0.387447
C101	C	0.574346	0.474886	-0.169803
N102	N	0.556765	0.495557	-0.234787
H103	H	0.524880	-0.001601	0.577155
C104	C	0.480349	-0.161830	0.584932
N105	N	0.442078	-0.150962	0.610157
H106	H	1.176140	-0.324205	-0.000018
C107	C	0.509578	-0.001171	0.415383
N108	N	0.471825	0.013072	0.390587
H109	H	0.819609	0.035946	-0.000044
C110	C	0.648988	0.491306	0.089460
N111	N	0.688469	0.524628	0.093361
H112	H	1.208546	0.105541	-0.000021
C113	C	0.488872	0.454524	0.080830
N114	N	0.467472	0.474155	0.141999
C115	C	0.960274	0.131771	-0.000024
N116	N	0.944166	0.195411	-0.000004
H117	H	0.497758	0.303089	-0.060442
C118	C	0.571956	0.313307	-0.168852
N119	N	0.552584	0.285299	-0.232282
H120	H	1.057285	0.108213	-0.000030
C121	C	1.337693	0.048675	-0.000030
N122	N	1.321583	0.112313	-0.000023
H123	H	1.434723	0.025108	-0.000032
C124	C	1.111521	0.129109	-0.000016
N125	N	1.095413	0.192749	-0.000008
C126	C	1.419386	-0.273891	-0.000033
N127	N	1.435496	-0.337529	-0.000026
C128	C	1.313523	-0.272031	-0.000019
N129	N	1.287876	-0.334936	-0.000012
H130	H	1.084686	-0.322593	-0.000020
H131	H	0.496172	0.446713	-0.060798
H132	H	0.537546	-0.240997	0.577294
H133	H	0.636649	0.479705	-0.084093
C134	C	1.030440	-0.343502	0.000007
N135	N	1.046546	-0.407143	0.000029
H136	H	0.798734	-0.241120	-0.000048
C137	C	0.698411	-0.261195	-0.000051
N138	N	0.672748	-0.324082	-0.000039
H139	H	0.493761	-0.165627	0.423422
