data_functionalizedCrystal
_audit_creation_method	'MofGen! by Chris Wilmer'
_symmetry_space_group_name_H-M	'P1'
_symmetry_Int_Tables_number	1
_symmetry_cell_setting	triclinic
loop_
_symmetry_equiv_pos_as_xyz
  x,y,z
_cell_length_a	12.837943
_cell_length_b	12.837942
_cell_length_c	17.766277
_cell_angle_alpha	89.994736
_cell_angle_beta	89.991964
_cell_angle_gamma	94.828940
loop_
_atom_site_label
_atom_site_type_symbol
_atom_site_fract_x
_atom_site_fract_y
_atom_site_fract_z
O1	O	1.402343	0.272143	-0.062580
O2	O	1.099210	0.258699	-0.062585
O3	O	1.244055	0.113854	-0.062578
O4	O	1.257498	0.416988	-0.062587
O5	O	1.244026	0.113843	0.062611
O6	O	1.099181	0.258688	0.062604
O7	O	1.402314	0.272132	0.062608
Cu8	Cu	1.250745	0.265409	0.074037
Cu9	Cu	1.250779	0.265422	-0.074013
O10	O	1.257469	0.416977	0.062602
C11	C	1.060126	0.254153	0.000009
C12	C	0.943711	0.240608	0.000008
C13	C	0.718837	0.403437	0.000013
C14	C	0.609454	0.390716	0.000013
C15	C	0.615562	0.202445	0.000010
C16	C	0.724944	0.215166	0.000011
C17	C	0.776578	0.315666	0.000012
C18	C	0.885962	0.328386	0.000007
C19	C	0.892067	0.140116	0.000010
C20	C	0.782685	0.127395	0.000009
C21	C	1.239499	0.074780	0.000016
C22	C	1.225954	-0.041635	0.000015
C23	C	1.388784	-0.266510	0.000001
C24	C	1.376062	-0.375892	-0.000000
C25	C	1.187791	-0.369785	0.000005
C26	C	1.200513	-0.260402	0.000006
C27	C	1.301012	-0.208769	0.000006
C28	C	1.313732	-0.099384	0.000012
C29	C	1.125462	-0.093279	0.000012
C30	C	1.112741	-0.202661	0.000011
C31	C	1.441398	0.276679	0.000013
C32	C	1.557813	0.290223	0.000010
C33	C	1.262025	0.456051	0.000006
C34	C	1.275569	0.572467	0.000003
N35	N	1.250728	0.265400	0.178167
N36	N	1.250803	0.265424	-0.178143
C37	C	1.314892	0.201300	0.217557
C38	C	1.314898	0.201296	0.296359
C39	C	1.250751	0.265411	0.335768
C40	C	1.186574	0.329515	0.296368
C41	C	1.186563	0.329510	0.217568
C42	C	1.246452	0.359395	0.460603
C43	C	1.246471	0.359402	0.539402
C44	C	1.250780	0.265426	0.578814
C45	C	1.255092	0.171440	0.539418
C46	C	1.255081	0.171435	0.460618
C47	C	1.250756	0.265423	0.421213
C48	C	1.314954	0.201316	0.703650
C49	C	1.314952	0.201309	0.782453
C50	C	1.186634	0.329538	0.782461
C51	C	1.186630	0.329535	0.703659
C52	C	1.250795	0.265425	0.664259
H53	H	1.395564	-0.057346	0.000015
H54	H	1.105969	-0.411844	-0.000003
H55	H	0.740630	0.045571	0.000017
H56	H	1.367136	0.149095	0.185479
H57	H	1.134343	0.381716	0.328459
H58	H	0.939092	0.068646	0.000004
C59	C	1.499322	-0.209704	0.000007
H60	H	1.494327	-0.136290	0.000014
H61	H	1.535932	-0.228876	-0.043647
H62	H	1.535900	-0.228892	0.043671
C63	C	1.472611	-0.439404	-0.000001
H64	H	1.534283	-0.392983	0.000004
H65	H	1.471571	-0.482196	-0.043656
H66	H	1.471553	-0.482205	0.043661
C67	C	1.002201	-0.259464	0.000016
H68	H	1.007194	-0.332879	0.000020
H69	H	0.965607	-0.240275	-0.043635
H70	H	0.965609	-0.240291	0.043682
H71	H	1.053992	-0.046254	0.000022
H72	H	0.928000	0.410218	0.000009
C73	C	0.775637	0.513978	0.000007
H74	H	0.725581	0.564432	0.000010
H75	H	0.818191	0.522855	-0.043648
H76	H	0.818169	0.522851	0.043669
H77	H	1.367149	0.149095	0.328436
C78	C	0.558757	0.091906	0.000011
H79	H	0.608810	0.041449	0.000015
H80	H	0.516218	0.083039	-0.043642
H81	H	0.516210	0.083028	0.043675
H82	H	0.562446	0.462189	0.000016
C83	C	1.259807	0.068061	0.417282
H84	H	1.262519	0.012105	0.452034
H85	H	1.320467	0.072050	0.386446
H86	H	1.199330	0.056243	0.386639
C87	C	1.241705	0.462772	0.417253
H88	H	1.242304	0.449308	0.364681
H89	H	1.300503	0.509237	0.430150
H90	H	1.179360	0.493536	0.430177
C91	C	1.259823	0.068059	0.582761
H92	H	1.259199	0.081517	0.635333
H93	H	1.322158	0.037284	0.569843
H94	H	1.201015	0.021605	0.569856
C95	C	1.385519	0.130788	0.660306
H96	H	1.423723	0.092598	0.695054
H97	H	1.432812	0.172771	0.629555
H98	H	1.343546	0.083466	0.629577
H99	H	1.367198	0.149105	0.814525
H100	H	1.134400	0.381737	0.814547
C101	C	1.116061	0.400059	0.660328
H102	H	1.077864	0.438250	0.695083
H103	H	1.068762	0.358073	0.629598
H104	H	1.158027	0.447380	0.629579
C105	C	1.241730	0.462778	0.582734
H106	H	1.242367	0.449325	0.635308
H107	H	1.179386	0.493541	0.569829
H108	H	1.300528	0.509241	0.569803
H109	H	1.134312	0.381708	0.185496
