data_functionalizedCrystal
_audit_creation_method	'MofGen! by Chris Wilmer'
_symmetry_space_group_name_H-M	'P1'
_symmetry_Int_Tables_number	1
_symmetry_cell_setting	triclinic
loop_
_symmetry_equiv_pos_as_xyz
  x,y,z
_cell_length_a	13.635800
_cell_length_b	10.943925
_cell_length_c	17.982968
_cell_angle_alpha	85.832554
_cell_angle_beta	102.451960
_cell_angle_gamma	71.155711
loop_
_atom_site_label
_atom_site_type_symbol
_atom_site_fract_x
_atom_site_fract_y
_atom_site_fract_z
V1	V	2.021317	-0.179842	0.237538
O2	O	2.000844	0.007398	0.233027
O3	O	2.010561	-0.355400	0.235903
O4	O	1.994400	-0.177622	0.341141
O5	O	2.017117	-0.171611	0.127060
V6	V	2.261741	-0.157382	0.224325
O7	O	2.154880	-0.229111	0.266521
O8	O	2.353276	-0.108113	0.195342
O9	O	2.160893	0.018176	0.225960
O10	O	2.340912	-0.344621	0.228836
O11	O	2.324639	-0.165613	0.334803
O12	O	2.177054	-0.159602	0.120722
V13	V	2.521317	-0.179842	0.237538
O14	O	2.500844	0.007398	0.233027
O15	O	2.510561	-0.355400	0.235903
O16	O	2.494400	-0.177622	0.341141
O17	O	2.517117	-0.171611	0.127060
V18	V	2.761741	-0.157382	0.224325
O19	O	2.654880	-0.229111	0.266521
O20	O	2.853276	-0.108113	0.195342
O21	O	2.660893	0.018176	0.225960
O22	O	2.840912	-0.344621	0.228836
O23	O	2.824639	-0.165613	0.334803
O24	O	2.677054	-0.159602	0.120722
C25	C	1.936420	-0.398180	0.232153
C26	C	1.968251	-0.541704	0.231507
C27	C	2.101442	-0.718454	0.234712
C28	C	2.016705	-0.612125	0.170004
C29	C	2.052581	-0.646121	0.296196
C30	C	1.940161	-0.691075	0.165590
C31	C	1.976068	-0.725095	0.291839
C32	C	1.891266	-0.618795	0.227112
C33	C	1.915805	-0.171405	0.366394
C34	C	1.934528	-0.170751	0.451090
C35	C	2.066706	0.060949	0.229708
C36	C	2.024494	0.204472	0.230359
C37	C	2.087321	-0.165823	0.095465
C38	C	2.058216	-0.166470	0.010769
C39	C	2.436420	-0.398180	0.232153
C40	C	2.468251	-0.541704	0.231507
C41	C	2.415805	-0.171405	0.366394
C42	C	2.434528	-0.170751	0.451090
C43	C	2.034780	-0.176914	0.494761
C44	C	2.052367	-0.176299	0.574342
C45	C	1.969703	-0.169530	0.610251
C46	C	1.869442	-0.163363	0.566573
C47	C	1.851854	-0.163969	0.486993
C48	C	1.940368	-0.160918	0.887510
C49	C	1.957965	-0.160317	0.967097
C50	C	2.140881	-0.173248	0.974859
C51	C	2.123294	-0.173854	0.895279
C52	C	2.023033	-0.167680	0.851608
C53	C	2.003964	-0.168344	0.765317
C54	C	1.988773	-0.168875	0.696541
C55	C	2.566706	0.060949	0.229708
C56	C	2.524494	0.204472	0.230359
C57	C	2.587321	-0.165823	0.095465
C58	C	2.558216	-0.166470	0.010769
C59	C	2.534784	-0.176901	0.494747
C60	C	2.552387	-0.176270	0.574327
C61	C	2.469735	-0.169498	0.610249
C62	C	2.369470	-0.163344	0.566586
C63	C	2.351866	-0.163966	0.487006
C64	C	2.458636	-0.173228	-0.025134
C65	C	2.431270	-0.173820	-0.104716
C66	C	2.503489	-0.167665	-0.148394
C67	C	2.603076	-0.160903	-0.112487
C68	C	2.630437	-0.160301	-0.032907
C69	C	2.391347	-0.618836	0.227172
C70	C	2.440209	-0.691171	0.165671
C71	C	2.476118	-0.725107	0.291865
C72	C	2.516679	-0.612135	0.169962
C73	C	2.552588	-0.646077	0.296213
C74	C	2.601507	-0.718374	0.234699
H75	H	2.190564	-0.761964	0.237839
C76	C	2.539410	-0.545914	0.100294
H77	H	2.569309	-0.610103	0.070834
H78	H	2.474453	-0.483787	0.069135
H79	H	2.588513	-0.503013	0.117936
C80	C	2.321732	-0.181277	-0.144198
H81	H	2.282655	-0.184880	-0.106781
H82	H	2.282768	-0.106108	-0.182034
H83	H	2.332202	-0.257466	-0.168125
H84	H	2.690655	-0.761615	0.237861
H85	H	2.599729	-0.625567	0.351412
H86	H	2.481201	-0.168172	-0.213192
C87	C	1.953284	-0.791479	0.361418
H88	H	1.903632	-0.833609	0.343689
H89	H	2.018104	-0.854267	0.392304
H90	H	1.924022	-0.727472	0.391186
H91	H	2.302185	-0.575335	0.223917
C92	C	1.876360	-0.718420	0.090938
H93	H	1.829364	-0.638020	0.060212
H94	H	1.924525	-0.764688	0.063091
H95	H	1.835814	-0.769410	0.103461
H96	H	1.890643	-0.154802	0.996330
H97	H	1.858744	-0.155937	0.851967
C98	C	2.453354	-0.791532	0.361446
H99	H	2.378932	-0.757234	0.358669
H100	H	2.474508	-0.883023	0.360815
H101	H	2.492562	-0.775291	0.407781
H102	H	2.399819	-0.178239	0.010419
C103	C	2.116363	-0.618523	0.370767
H104	H	2.068225	-0.572887	0.398825
H105	H	2.163879	-0.698804	0.401335
H106	H	2.156329	-0.566827	0.358139
H107	H	2.484083	-0.168993	0.675048
H108	H	2.393028	-0.711648	0.110471
C109	C	2.739985	-0.152892	0.006580
H110	H	2.779074	-0.149328	-0.030835
H111	H	2.729546	-0.076719	0.030514
H112	H	2.778933	-0.228080	0.044411
C113	C	2.039461	-0.545675	0.100428
H114	H	2.113880	-0.579981	0.103194
H115	H	2.000225	-0.561857	0.054091
H116	H	2.018339	-0.454186	0.101089
C117	C	2.162643	-0.183085	0.622381
H118	H	2.161278	-0.181740	0.674918
H119	H	2.215821	-0.261519	0.617891
H120	H	2.178857	-0.110159	0.603978
C121	C	2.241590	-0.157233	0.438991
H122	H	2.242931	-0.158571	0.386450
H123	H	2.225401	-0.230159	0.457414
H124	H	2.188403	-0.078798	0.443480
H125	H	2.102100	-0.182434	0.465531
C126	C	1.770817	-0.560285	0.222753
H127	H	1.730822	-0.575318	0.176346
H128	H	1.756069	-0.600484	0.265599
H129	H	1.751248	-0.468938	0.223607
C130	C	2.682510	-0.154148	-0.160538
H131	H	2.651948	-0.155492	-0.213072
H132	H	2.697598	-0.075727	-0.156055
H133	H	2.746990	-0.227088	-0.142138
H134	H	2.190611	-0.179372	0.866047
C135	C	1.741580	-0.157195	0.438952
H136	H	1.742941	-0.158512	0.386413
H137	H	1.725363	-0.230113	0.457350
H138	H	1.688401	-0.078754	0.443444
C139	C	2.251170	-0.180038	1.022896
H140	H	2.297885	-0.184175	0.990113
H141	H	2.243364	-0.104400	1.047151
H142	H	2.280310	-0.255758	1.061053
C143	C	1.778581	-0.156211	0.606094
H144	H	1.716374	-0.152705	0.568692
H145	H	1.800275	-0.231481	0.643881
H146	H	1.763045	-0.080100	0.630087
H147	H	2.602097	-0.182419	0.465511
H148	H	2.634035	-0.181287	0.609868
H149	H	2.302180	-0.157831	0.595846
