data_functionalizedCrystal
_audit_creation_method	'MofGen! by Chris Wilmer'
_symmetry_space_group_name_H-M	'P1'
_symmetry_Int_Tables_number	1
_symmetry_cell_setting	triclinic
loop_
_symmetry_equiv_pos_as_xyz
  x,y,z
_cell_length_a	10.685976
_cell_length_b	10.686285
_cell_length_c	12.759393
_cell_angle_alpha	85.602987
_cell_angle_beta	94.358756
_cell_angle_gamma	81.631153
loop_
_atom_site_label
_atom_site_type_symbol
_atom_site_fract_x
_atom_site_fract_y
_atom_site_fract_z
Zn1	Zn	1.979330	-0.653839	-0.425686
Zn2	Zn	1.995511	-0.866117	-0.235439
Zn3	Zn	1.767073	-0.637649	-0.264635
Zn4	Zn	1.783364	-0.849780	-0.425693
O5	O	1.881320	-0.751846	-0.337864
O6	O	2.159092	-0.695611	-0.388228
O7	O	1.965162	-0.835872	-0.092290
O8	O	1.781640	-0.462179	-0.298215
O9	O	2.170980	-0.851571	-0.248454
O10	O	1.937585	-0.474074	-0.416538
O11	O	1.797330	-0.668017	-0.113740
O12	O	1.591619	-0.652176	-0.298222
O13	O	1.809405	-0.823727	-0.572714
O14	O	1.603588	-0.808028	-0.416550
O15	O	1.953381	-0.679770	-0.572709
O16	O	1.980959	-1.041567	-0.248461
O17	O	1.825095	-1.029564	-0.388240
C18	C	1.551550	-0.726573	-0.360555
C19	C	1.410476	-0.715791	-0.370286
C20	C	1.906585	-1.081623	-0.315204
C21	C	1.917510	-1.222711	-0.305537
C22	C	2.212377	-0.777219	-0.315084
C23	C	2.353454	-0.788032	-0.305376
C24	C	1.881405	-0.751732	-0.611899
C25	C	1.881442	-0.751683	-0.728676
C26	C	1.855990	-0.420785	-0.360632
C27	C	1.845196	-0.279706	-0.370335
C28	C	1.956415	-0.676712	-0.783538
C29	C	1.956432	-0.676659	-0.893264
C30	C	1.806500	-0.826558	-0.893258
C31	C	1.806477	-0.826604	-0.783534
C32	C	1.990363	-0.530383	-1.050395
C33	C	2.065357	-0.455424	-1.105258
C34	C	2.187706	-0.445446	-1.062474
C35	C	2.235088	-0.510447	-0.964825
C36	C	2.160101	-0.585415	-0.909967
C37	C	2.037733	-0.595368	-0.952752
C38	C	1.772559	-0.972883	-0.626400
C39	C	1.697579	-1.047859	-0.571539
C40	C	1.575229	-1.057850	-0.614320
C41	C	1.527854	-0.992872	-0.711970
C42	C	1.602834	-0.917896	-0.766832
C43	C	1.725182	-0.907903	-0.724043
C44	C	1.881300	-0.751874	-0.064896
C45	C	1.881482	-0.751585	0.051874
H46	H	1.351368	-0.645697	-0.433308
H47	H	1.412569	-0.858142	-0.242358
H48	H	1.774929	-1.220567	-0.433209
H49	H	1.564250	-0.864987	-0.846345
H50	H	2.017452	-0.615703	-0.738876
O51	O	2.354031	-0.500797	-0.923449
C52	C	2.443184	-0.545579	-0.993112
H53	H	2.394294	-0.539294	-1.076335
H54	H	2.522674	-0.485055	-0.992506
H55	H	2.484674	-0.648597	-0.966826
H56	H	2.198681	-0.638342	-0.830466
O57	O	2.001204	-1.293215	-0.230394
C58	C	1.971116	-1.258908	-0.129736
H59	H	1.866940	-1.214694	-0.133789
H60	H	1.988757	-1.347038	-0.071187
H61	H	2.033319	-1.187255	-0.102839
H62	H	2.248766	-0.384412	-1.107151
O63	O	2.019115	-0.392316	-1.200073
C64	C	1.895045	-0.417202	-1.226082
H65	H	1.851589	-0.447093	-1.150989
H66	H	1.834547	-0.327820	-1.267416
H67	H	1.898671	-0.496814	-1.280870
O68	O	1.733884	-0.899489	-0.946574
C69	C	1.812428	-0.986961	-0.999456
H70	H	1.912986	-1.002479	-0.958976
H71	H	1.773993	-1.081120	-0.997139
H72	H	1.813819	-0.948018	-1.085012
O73	O	1.871414	-0.539929	-1.091823
C74	C	1.782254	-0.495197	-1.022149
H75	H	1.824557	-0.427772	-0.969391
H76	H	1.692682	-0.442694	-1.069487
H77	H	1.757425	-0.578949	-0.971230
O78	O	1.502540	-1.130699	-0.560870
C79	C	1.570601	-1.185953	-0.465526
H80	H	1.646982	-1.126714	-0.441971
H81	H	1.502768	-1.189315	-0.400942
H82	H	1.617085	-1.286506	-0.476565
H83	H	1.428228	-1.001011	-0.746807
H84	H	1.736168	-1.100780	-0.492032
H85	H	1.872184	-0.964745	-0.591553
