data_functionalizedCrystal
_audit_creation_method	'MofGen! by Chris Wilmer'
_symmetry_space_group_name_H-M	'P1'
_symmetry_Int_Tables_number	1
_symmetry_cell_setting	triclinic
loop_
_symmetry_equiv_pos_as_xyz
  x,y,z
_cell_length_a	15.995300
_cell_length_b	15.995292
_cell_length_c	9.730223
_cell_angle_alpha	90.001861
_cell_angle_beta	89.998209
_cell_angle_gamma	83.470212
loop_
_atom_site_label
_atom_site_type_symbol
_atom_site_fract_x
_atom_site_fract_y
_atom_site_fract_z
O1	O	1.110985	0.107725	-0.114330
O2	O	0.867201	0.121097	-0.114321
O3	O	0.995782	-0.007481	-0.114328
O4	O	0.982403	0.236303	-0.114323
O5	O	0.995780	-0.007478	0.114252
O6	O	0.867199	0.121100	0.114259
O7	O	1.110983	0.107728	0.114250
Zn8	Zn	0.989091	0.114415	0.150546
Zn9	Zn	0.989093	0.114411	-0.150618
O10	O	0.982402	0.236307	0.114257
C11	C	0.836005	0.120553	-0.000030
C12	C	0.743052	0.118918	-0.000027
C13	C	0.572870	0.115899	-0.000037
C14	C	0.525385	0.207449	-0.000032
C15	C	0.428697	0.205779	-0.000555
C16	C	0.405314	0.112927	-0.000046
C17	C	0.446457	0.067504	-0.130320
C18	C	0.543090	0.069820	-0.130426
C19	C	0.543367	0.068469	0.129521
C20	C	0.446423	0.068477	0.131230
C21	C	0.310619	0.111242	-0.000056
C22	C	0.667565	0.117580	-0.000037
C23	C	0.995237	-0.038675	-0.000041
C24	C	0.993604	-0.131627	-0.000052
C25	C	0.987603	-0.469365	-0.000039
C26	C	1.080409	-0.446069	0.000468
C27	C	1.082173	-0.349394	-0.000052
C28	C	0.990581	-0.301809	-0.000044
C29	C	0.944183	-0.330904	-0.130569
C30	C	0.943066	-0.427694	-0.130673
C31	C	0.941169	-0.427547	0.129265
C32	C	0.944608	-0.331055	0.130985
C33	C	0.992259	-0.207114	-0.000052
C34	C	0.985922	-0.564060	-0.000040
C35	C	1.142179	0.108272	-0.000045
C36	C	1.235131	0.109907	-0.000057
C37	C	0.982947	0.267500	-0.000033
C38	C	0.984579	0.360453	-0.000032
N39	N	0.989096	0.114417	0.356083
N40	N	0.989095	0.114402	-0.356154
C41	C	1.046046	0.057502	0.428006
C42	C	1.046044	0.057492	0.571889
C43	C	0.932138	0.171320	0.571913
C44	C	0.932137	0.171325	0.428033
C45	C	1.111811	-0.008213	0.427993
C46	C	1.111809	-0.008223	0.571876
H47	H	0.543868	0.244242	0.093373
N48	N	0.854904	-0.288677	-0.136992
H49	H	0.855396	-0.225643	-0.141155
H50	H	0.826329	-0.308366	-0.221689
H51	H	0.418066	0.098642	-0.227633
N52	N	1.085603	-0.088558	0.630978
H53	H	1.026826	-0.095925	0.598953
H54	H	1.125921	-0.137884	0.598908
N55	N	1.127793	-0.483172	0.124452
H56	H	1.178120	-0.522482	0.093301
H57	H	1.147387	-0.436412	0.181586
N58	N	0.870705	0.232694	0.649516
H59	H	0.879344	0.224053	0.751578
H60	H	0.880358	0.292102	0.624381
N61	N	0.585483	-0.020939	0.131208
H62	H	0.569832	-0.051002	0.045295
H63	H	0.648540	-0.020545	0.134836
H64	H	1.118727	-0.330997	-0.093783
H65	H	1.115983	-0.475095	-0.092614
H66	H	0.877754	-0.298074	0.138874
H67	H	0.978393	-0.312495	0.227546
H68	H	0.975200	-0.454518	-0.228248
N69	N	1.093636	-0.093297	0.376243
H70	H	1.085521	-0.131270	0.456929
H71	H	1.040815	-0.086501	0.318543
N72	N	0.410210	0.112442	0.258878
H73	H	0.347399	0.110081	0.261502
H74	H	0.436945	0.083566	0.342918
N75	N	0.426101	-0.021187	0.142132
H76	H	0.480008	-0.060759	0.141189
H77	H	0.394843	-0.028502	0.230722
N78	N	0.850686	-0.446075	0.130459
H79	H	0.821171	-0.419054	0.213753
H80	H	0.821563	-0.422656	0.044329
H81	H	0.875019	-0.442232	-0.136581
N82	N	0.870698	0.232697	0.350455
H83	H	0.834617	0.268744	0.417871
H84	H	0.902730	0.269737	0.290756
N85	N	0.979669	-0.464972	0.260324
H86	H	0.974939	-0.527393	0.262164
H87	H	1.040922	-0.455302	0.264551
H88	H	1.118511	-0.330374	0.093511
H89	H	0.976404	-0.310851	-0.227709
H90	H	1.172426	0.011641	0.383364
N91	N	0.570492	0.108385	0.260377
H92	H	0.633860	0.105895	0.262255
H93	H	0.544826	0.169018	0.264277
H94	H	0.544987	0.243691	-0.093311
N95	N	0.427808	-0.022870	-0.136266
H96	H	0.392423	-0.035266	-0.054374
H97	H	0.396189	-0.032352	-0.223699
N98	N	1.196872	0.010022	0.623617
H99	H	1.234831	0.018177	0.542927
H100	H	1.190032	0.062839	0.681332
H101	H	0.400843	0.241314	-0.094483
N102	N	0.390976	0.253048	0.123119
H103	H	0.437152	0.275161	0.178466
H104	H	0.349602	0.301668	0.091565
H105	H	0.561403	0.102554	-0.228175
H106	H	0.575377	0.002594	-0.135993
