data_functionalizedCrystal
_audit_creation_method	'MofGen! by Chris Wilmer'
_symmetry_space_group_name_H-M	'P1'
_symmetry_Int_Tables_number	1
_symmetry_cell_setting	triclinic
loop_
_symmetry_equiv_pos_as_xyz
  x,y,z
_cell_length_a	10.723022
_cell_length_b	10.723024
_cell_length_c	7.088929
_cell_angle_alpha	83.718137
_cell_angle_beta	96.263369
_cell_angle_gamma	84.467548
loop_
_atom_site_label
_atom_site_type_symbol
_atom_site_fract_x
_atom_site_fract_y
_atom_site_fract_z
O1	O	1.644490	0.187735	-0.158970
O2	O	2.144490	0.687735	0.341030
O3	O	1.281337	0.204491	-0.158977
O4	O	1.781337	0.704491	0.341023
O5	O	1.471291	0.014536	-0.158966
O6	O	1.971291	0.514536	0.341034
O7	O	1.454537	0.377690	-0.158981
O8	O	1.954537	0.877690	0.341019
O9	O	1.496676	-0.010907	0.159010
O10	O	1.996676	0.489093	0.659010
O11	O	1.306722	0.179048	0.159000
O12	O	1.806722	0.679048	0.659000
O13	O	1.669875	0.162292	0.159006
O14	O	2.169875	0.662292	0.659006
Cu15	Cu	1.490617	0.168346	0.188037
Cu16	Cu	1.990617	0.668346	0.688037
Cu17	Cu	1.460596	0.198436	-0.188007
Cu18	Cu	1.960596	0.698436	0.311993
O19	O	1.479921	0.352246	0.158996
O20	O	1.979921	0.852246	0.658996
C21	C	1.247530	0.190550	0.000011
C22	C	1.747530	0.690550	0.500011
C23	C	1.108975	0.186904	0.000009
C24	C	1.608975	0.686904	0.500009
C25	C	1.060415	0.077364	0.000012
C26	C	1.560415	0.577364	0.500012
C27	C	0.917212	0.073592	0.000010
C28	C	1.417212	0.573592	0.500010
C29	C	1.482764	-0.044685	0.000020
C30	C	1.982764	0.455315	0.500020
C31	C	1.479116	-0.183239	0.000013
C32	C	1.979116	0.316761	0.500013
C33	C	1.585404	-0.258222	0.000012
C34	C	2.085404	0.241778	0.500012
C35	C	1.581635	-0.401425	0.000005
C36	C	2.081635	0.098575	0.500005
C37	C	1.703682	0.176233	0.000014
C38	C	2.203682	0.676233	0.500014
C39	C	1.842236	0.179880	0.000004
C40	C	2.342236	0.679880	0.500004
C41	C	1.468448	0.411468	0.000006
C42	C	1.968448	0.911468	0.500006
C43	C	1.472095	0.550023	-0.000000
C44	C	1.972095	1.050023	0.500000
N45	N	1.511740	0.147182	0.452526
N46	N	2.011740	0.647182	0.952526
N47	N	1.439482	0.219591	-0.452496
N48	N	1.939482	0.719591	0.047504
H49	H	0.884040	0.273672	0.000012
H50	H	1.384040	0.773672	0.500012
H51	H	1.586642	0.072150	0.534186
H52	H	2.086642	0.572150	1.034186
H53	H	1.044532	0.277893	-0.000004
H54	H	1.544532	0.777893	0.499996
H55	H	1.124857	-0.013625	0.000007
H56	H	1.624857	0.486375	0.500007
H57	H	1.364594	0.294627	0.465853
H58	H	1.864594	0.794627	0.965853
H59	H	0.875396	-0.020192	-0.000036
H60	H	1.375396	0.479808	0.499964
H61	H	1.679191	-0.216401	0.000025
H62	H	2.179191	0.283599	0.500025
H63	H	1.385329	-0.225059	-0.000001
H64	H	1.885329	0.274941	0.499999
H65	H	1.381101	-0.385553	0.000014
H66	H	1.881101	0.114447	0.500014
F67	F	1.700572	-0.485640	0.000018
F68	F	2.200572	0.014360	0.500018
