data_functionalizedCrystal
_audit_creation_method	'MofGen! by Chris Wilmer'
_symmetry_space_group_name_H-M	'P1'
_symmetry_Int_Tables_number	1
_symmetry_cell_setting	triclinic
loop_
_symmetry_equiv_pos_as_xyz
  x,y,z
_cell_length_a	16.625548
_cell_length_b	16.625546
_cell_length_c	16.625539
_cell_angle_alpha	89.971468
_cell_angle_beta	89.982945
_cell_angle_gamma	90.023536
loop_
_atom_site_label
_atom_site_type_symbol
_atom_site_fract_x
_atom_site_fract_y
_atom_site_fract_z
Zn1	Zn	1.232652	-0.320992	-0.455898
Zn2	Zn	1.732652	0.179008	0.044102
Zn3	Zn	1.232564	-0.455831	-0.321060
Zn4	Zn	1.732564	0.044169	0.178940
Zn5	Zn	1.097823	-0.321018	-0.321078
Zn6	Zn	1.597823	0.178982	0.178922
Zn7	Zn	1.097785	-0.455789	-0.455850
Zn8	Zn	1.597785	0.044211	0.044150
O9	O	1.165206	-0.388408	-0.388471
O10	O	1.665206	0.111592	0.111529
O11	O	1.345473	-0.338885	-0.438024
O12	O	1.845473	0.161115	0.061976
O13	O	1.214669	-0.437976	-0.208230
O14	O	1.714669	0.062024	0.291770
O15	O	1.115761	-0.208182	-0.338990
O16	O	1.615761	0.291818	0.161010
O17	O	1.345408	-0.437951	-0.338959
O18	O	1.845408	0.062049	0.161041
O19	O	1.214820	-0.208163	-0.438041
O20	O	1.714820	0.291837	0.061959
O21	O	1.115675	-0.338930	-0.208243
O22	O	1.615675	0.161070	0.291757
O23	O	0.984985	-0.338889	-0.338944
O24	O	1.484985	0.161111	0.161056
O25	O	1.115696	-0.437879	-0.568689
O26	O	1.615696	0.062121	-0.068689
O27	O	0.984957	-0.437905	-0.437960
O28	O	1.484957	0.062095	0.062040
O29	O	1.214783	-0.338845	-0.568724
O30	O	1.714783	0.161155	-0.068724
O31	O	1.214632	-0.568658	-0.338912
O32	O	1.714632	-0.068658	0.161088
O33	O	1.115611	-0.568627	-0.437942
O34	O	1.615611	-0.068627	0.062058
C35	C	0.955715	-0.388396	-0.388449
C36	C	1.455715	0.111604	0.111551
C37	C	0.866094	-0.388410	-0.388458
C38	C	1.366094	0.111590	0.111542
C39	C	0.537918	-0.388416	-0.388493
C40	C	1.037918	0.111584	0.111507
C41	C	0.629227	-0.388412	-0.388481
C42	C	1.129227	0.111588	0.111519
C43	C	0.702003	-0.388414	-0.388475
C44	C	1.202003	0.111586	0.111525
C45	C	0.793318	-0.388409	-0.388464
C46	C	1.293318	0.111591	0.111536
C47	C	1.165130	-0.597898	-0.388438
C48	C	1.665130	-0.097898	0.111562
C49	C	1.165171	-0.687519	-0.388450
C50	C	1.665171	-0.187519	0.111550
C51	C	1.165311	-1.015695	-0.388534
C52	C	1.665311	-0.515695	0.111466
C53	C	1.165270	-0.924387	-0.388513
C54	C	1.665270	-0.424387	0.111487
C55	C	1.165240	-0.851610	-0.388492
C56	C	1.665240	-0.351610	0.111508
C57	C	1.165200	-0.760296	-0.388471
C58	C	1.665200	-0.260296	0.111529
C59	C	1.375515	-0.388420	-0.388494
C60	C	1.875515	0.111580	0.111506
C61	C	1.465136	-0.388425	-0.388504
C62	C	1.965136	0.111575	0.111496
C63	C	1.165245	-0.388354	-0.598780
C64	C	1.665245	0.111646	-0.098780
C65	C	1.165262	-0.388332	-0.688402
C66	C	1.665262	0.111668	-0.188402
C67	C	1.165305	-0.178099	-0.388523
C68	C	1.665305	0.321901	0.111477
C69	C	1.165347	-0.088477	-0.388545
C70	C	1.665347	0.411523	0.111455
C71	C	1.165275	-0.388314	-0.761184
C72	C	1.665275	0.111686	-0.261184
C73	C	1.165294	-0.388284	-0.852493
C74	C	1.665294	0.111716	-0.352493
C75	C	1.165313	-0.388255	-0.925269
C76	C	1.665313	0.111745	-0.425269
C77	C	1.165333	-0.388226	-1.016583
C78	C	1.665333	0.111774	-0.516583
C79	C	1.165213	-0.388402	-0.178981
C80	C	1.665213	0.111598	0.321019
C81	C	1.165352	-0.388198	-0.089360
C82	C	1.665352	0.111802	0.410640
