data_functionalizedCrystal
_audit_creation_method	'MofGen! by Chris Wilmer'
_symmetry_space_group_name_H-M	'P1'
_symmetry_Int_Tables_number	1
_symmetry_cell_setting	triclinic
loop_
_symmetry_equiv_pos_as_xyz
  x,y,z
_cell_length_a	10.654550
_cell_length_b	14.044220
_cell_length_c	9.730223
_cell_angle_alpha	89.997406
_cell_angle_beta	89.996251
_cell_angle_gamma	88.836890
loop_
_atom_site_label
_atom_site_type_symbol
_atom_site_fract_x
_atom_site_fract_y
_atom_site_fract_z
O1	O	1.681222	0.133227	-0.114408
O2	O	2.181222	0.633227	0.385592
O3	O	1.317019	0.145921	-0.114387
O4	O	1.817019	0.645921	0.385613
O5	O	1.493654	0.001554	-0.114384
O6	O	1.993654	0.501554	0.385616
O7	O	1.504587	0.277595	-0.114411
O8	O	2.004587	0.777595	0.385589
O9	O	1.493652	0.001557	0.114196
O10	O	1.993652	0.501557	0.614196
O11	O	1.317017	0.145925	0.114193
O12	O	1.817017	0.645925	0.614193
O13	O	1.681220	0.133231	0.114172
O14	O	2.181220	0.633231	0.614172
Zn15	Zn	1.499118	0.139578	0.150474
Zn16	Zn	1.999118	0.639578	0.650474
Zn17	Zn	1.499121	0.139574	-0.150689
Zn18	Zn	1.999121	0.639574	0.349311
O19	O	1.504585	0.277598	0.114169
O20	O	2.004585	0.777598	0.614169
C21	C	1.270127	0.144991	-0.000094
C22	C	1.770127	0.644991	0.499906
C23	C	1.130403	0.142202	-0.000085
C24	C	1.630403	0.642202	0.499915
C25	C	1.059459	0.227203	-0.000114
C26	C	1.559459	0.727203	0.499886
C27	C	0.928175	0.224578	-0.000137
C28	C	1.428175	0.724578	0.499863
C29	C	0.938790	0.051942	-0.000109
C30	C	1.438790	0.551942	0.499891
C31	C	1.070072	0.054569	-0.000076
C32	C	1.570072	0.554569	0.499924
C33	C	1.119790	0.314837	-0.000123
C34	C	1.619790	0.814837	0.499877
C35	C	1.048846	0.399845	-0.000153
C36	C	1.548846	0.899845	0.499847
C37	C	0.917561	0.397219	-0.000177
C38	C	1.417561	0.897219	0.499823
C39	C	0.857221	0.309585	-0.000170
C40	C	1.357221	0.809585	0.499830
C41	C	1.488867	-0.033790	-0.000093
C42	C	1.988867	0.466210	0.499907
C43	C	1.474592	-0.139110	-0.000090
C44	C	1.974592	0.360890	0.499910
C45	C	1.448493	-0.331943	-0.000108
C46	C	1.948493	0.168057	0.499892
C47	C	1.549741	-0.388911	-0.000119
C48	C	2.049741	0.111089	0.499881
C49	C	1.535219	-0.496210	-0.000129
C50	C	2.035219	0.003790	0.499871
C51	C	1.463013	-0.224634	-0.000098
C52	C	1.963013	0.275366	0.499902
C53	C	1.728113	0.134161	-0.000124
C54	C	2.228113	0.634161	0.499876
C55	C	1.867836	0.136950	-0.000142
C56	C	2.367836	0.636950	0.499858
C57	C	1.509372	0.312942	-0.000125
C58	C	2.009372	0.812942	0.499875
C59	C	1.523648	0.418262	-0.000137
C60	C	2.023648	0.918262	0.499863
N61	N	1.499126	0.139581	0.356011
N62	N	1.999126	0.639581	0.856011
N63	N	1.499123	0.139563	-0.356226
N64	N	1.999123	0.639563	0.143774
C65	C	1.577364	0.075677	0.427938
C66	C	2.077364	0.575677	0.927938
C67	C	1.577359	0.075666	0.571821
C68	C	2.077359	0.575666	1.071821
C69	C	1.420876	0.203470	0.571837
C70	C	1.920876	0.703470	1.071837
C71	C	1.420875	0.203477	0.427956
C72	C	1.920875	0.703477	0.927956
C73	C	1.655615	0.011782	0.355993
C74	C	2.155615	0.511782	0.855993
C75	C	1.733861	-0.052127	0.427920
C76	C	2.233861	0.447873	0.927920
C77	C	1.733856	-0.052138	0.571803
C78	C	2.233856	0.447862	1.071803
C79	C	1.655606	0.011759	0.643759
C80	C	2.155606	0.511759	1.143759
H81	H	1.226688	0.316985	-0.000110
H82	H	1.726688	0.816985	0.499890
H83	H	1.647328	-0.357098	-0.000217
H84	H	2.147328	0.142902	0.499783
Br85	Br	1.166362	-0.060791	-0.000029
Br86	Br	1.666362	0.439209	0.499971
H87	H	1.350913	-0.363754	-0.000106
H88	H	1.850913	0.136246	0.499894
Br89	Br	0.679047	0.306024	-0.000176
Br90	Br	1.179047	0.806024	0.499824
Br91	Br	1.840028	-0.138878	0.669419
Br92	Br	2.340028	0.361122	1.169419
Br93	Br	1.314688	0.290184	0.669488
Br94	Br	1.814688	0.790184	1.169488
H95	H	1.655629	0.011787	0.238836
H96	H	2.155629	0.511787	0.738836
H97	H	0.859801	0.466437	-0.000187
H98	H	1.359801	0.966437	0.499813
Br99	Br	1.840036	-0.138851	0.330273
Br100	Br	2.340036	0.361149	0.830273
Br101	Br	1.655590	0.011728	0.839030
Br102	Br	2.155590	0.511728	1.339030
Br103	Br	1.314683	0.290201	0.330336
Br104	Br	1.814683	0.790201	0.830336
H105	H	1.097984	0.471193	-0.000147
H106	H	1.597984	0.971193	0.499853
Br107	Br	0.856900	-0.066982	-0.000104
Br108	Br	1.356900	0.433018	0.499896
