data_functionalizedCrystal
_audit_creation_method	'MofGen! by Chris Wilmer'
_symmetry_space_group_name_H-M	'P1'
_symmetry_Int_Tables_number	1
_symmetry_cell_setting	triclinic
loop_
_symmetry_equiv_pos_as_xyz
  x,y,z
_cell_length_a	19.188930
_cell_length_b	14.044220
_cell_length_c	12.503572
_cell_angle_alpha	86.156832
_cell_angle_beta	93.520160
_cell_angle_gamma	88.166828
loop_
_atom_site_label
_atom_site_type_symbol
_atom_site_fract_x
_atom_site_fract_y
_atom_site_fract_z
O1	O	-0.937478	-0.112788	-0.089673
O2	O	-0.604144	0.220546	0.243660
O3	O	-0.270811	0.553879	0.576994
O4	O	-0.735191	-0.128718	-0.089600
O5	O	-0.401858	0.204615	0.243733
O6	O	-0.068524	0.537948	0.577067
O7	O	-0.833298	0.017218	-0.089625
O8	O	-0.499964	0.350552	0.243709
O9	O	-0.166631	0.683885	0.577042
O10	O	-0.839371	-0.258724	-0.089648
O11	O	-0.506038	0.074609	0.243685
O12	O	-0.172704	0.407942	0.577018
O13	O	-0.825920	0.006225	0.089019
O14	O	-0.492587	0.339558	0.422352
O15	O	-0.159254	0.672892	0.755686
O16	O	-0.727814	-0.139712	0.089044
O17	O	-0.394481	0.193622	0.422377
O18	O	-0.061147	0.526955	0.755710
O19	O	-0.930100	-0.123781	0.088971
O20	O	-0.596767	0.209552	0.422304
O21	O	-0.263434	0.542886	0.755638
Cu22	Cu	-0.828284	-0.132750	0.105319
Cu23	Cu	-0.494950	0.200583	0.438652
Cu24	Cu	-0.161617	0.533916	0.771986
Cu25	Cu	-0.837008	-0.119749	-0.105948
Cu26	Cu	-0.503675	0.213584	0.227385
Cu27	Cu	-0.170341	0.546917	0.560719
O28	O	-0.831994	-0.269718	0.088996
O29	O	-0.498661	0.063616	0.422329
O30	O	-0.165327	0.396949	0.755662
C31	C	-0.705458	-0.133700	-0.000269
C32	C	-0.372124	0.199633	0.333065
C33	C	-0.038791	0.532967	0.666398
C34	C	-0.627852	-0.132153	-0.000240
C35	C	-0.294519	0.201180	0.333093
C36	C	0.038815	0.534513	0.666426
C37	C	-0.826951	0.047025	-0.000302
C38	C	-0.493617	0.380358	0.333032
C39	C	-0.160284	0.713692	0.666365
C40	C	-0.819022	0.152218	-0.000297
C41	C	-0.485688	0.485551	0.333036
C42	C	-0.152355	0.818884	0.666369
C43	C	-0.959834	-0.118799	-0.000363
C44	C	-0.626500	0.214534	0.332970
C45	C	-0.293167	0.547867	0.666304
C46	C	-1.037440	-0.120345	-0.000398
C47	C	-0.704106	0.212988	0.332935
C48	C	-0.370773	0.546321	0.666268
C49	C	-0.588455	-0.217782	-0.000265
C50	C	-0.255122	0.115551	0.333069
C51	C	0.078212	0.448885	0.666402
C52	C	-0.515538	-0.216327	-0.000276
C53	C	-0.182204	0.117007	0.333057
C54	C	0.151129	0.450340	0.666390
C55	C	-0.482022	-0.129237	-0.000285
C56	C	-0.148688	0.204097	0.333048
C57	C	0.184645	0.537430	0.666381
C58	C	-0.521428	-0.043597	-0.000255
C59	C	-0.188094	0.289736	0.333078
C60	C	0.145239	0.623069	0.666412
C61	C	-0.594343	-0.045056	-0.000233
C62	C	-0.261010	0.288278	0.333101
C63	C	0.072324	0.621611	0.666434
N64	N	-0.372258	-0.058924	-0.061123
N65	N	-0.038925	0.274409	0.272210
N66	N	0.294409	0.607743	0.605543
N67	N	-0.302991	-0.057544	-0.061147
N68	N	0.030342	0.275789	0.272187
N69	N	0.363675	0.609122	0.605520
C70	C	-0.262332	-0.124838	-0.000351
C71	C	0.071001	0.208496	0.332983
C72	C	0.404335	0.541829	0.666316
N73	N	-0.293556	-0.193577	0.060457
N74	N	0.039777	0.139757	0.393790
N75	N	0.373111	0.473090	0.727123
N76	N	-0.362829	-0.194959	0.060475
N77	N	-0.029496	0.138374	0.393809
N78	N	0.303838	0.471708	0.727142
C79	C	-0.402958	-0.127646	-0.000309
C80	C	-0.069624	0.205687	0.333024
C81	C	0.263709	0.539021	0.666358
C82	C	-0.143870	-0.208894	-0.000386
C83	C	0.189464	0.124439	0.332947
C84	C	0.522797	0.457772	0.666281
C85	C	-0.070951	-0.207436	-0.000391
C86	C	0.262382	0.125897	0.332942
C87	C	0.595716	0.459231	0.666276
C88	C	-0.076843	-0.034704	-0.000381
C89	C	0.256491	0.298630	0.332953
C90	C	0.589824	0.631963	0.666286
C91	C	-0.149759	-0.036165	-0.000365
C92	C	0.183574	0.297168	0.332969
C93	C	0.516907	0.630502	0.666302
C94	C	-0.183269	-0.123263	-0.000373
C95	C	0.150065	0.210071	0.332961
C96	C	0.483398	0.543404	0.666294
C97	C	-0.838341	-0.299524	-0.000330
C98	C	-0.505007	0.033809	0.333003
C99	C	-0.171674	0.367142	0.666337
C100	C	-0.846270	-0.404716	-0.000341
C101	C	-0.512937	-0.071383	0.332992
C102	C	-0.179603	0.261950	0.666325
N103	N	-0.822152	-0.141894	0.253913
N104	N	-0.488819	0.191440	0.587246
N105	N	-0.155486	0.524773	0.920579
C106	C	-0.804527	0.344819	-0.000308
C107	C	-0.471193	0.678153	0.333026
C108	C	-0.137860	1.011486	0.666359
C109	C	-0.860762	0.402687	-0.000331
C110	C	-0.527429	0.736021	0.333002
C111	C	-0.194095	1.069354	0.666336
C112	C	-0.852697	0.509858	-0.000337
C113	C	-0.519364	0.843191	0.332997
C114	C	-0.186030	1.176524	0.666330
C115	C	-0.812591	0.237639	-0.000302
C116	C	-0.479258	0.570972	0.333031
C117	C	-0.145924	0.904306	0.666365
N118	N	-0.843144	-0.110598	-0.254542
N119	N	-0.509811	0.222735	0.078791
N120	N	-0.176477	0.556069	0.412125
C121	C	-0.813134	-0.155352	0.473030
C122	C	-0.479801	0.177981	0.806364
C123	C	-0.146467	0.511314	1.139697
C124	C	-0.852161	-0.097143	0.526347
C125	C	-0.518827	0.236191	0.859681
C126	C	-0.185494	0.569524	1.193014
C127	C	-0.847142	-0.104631	0.648272
C128	C	-0.513809	0.228702	0.981605
C129	C	-0.180476	0.562036	1.314939
C130	C	-0.818151	-0.147865	0.351095
C131	C	-0.484818	0.185468	0.684428
C132	C	-0.151484	0.518802	1.017761
H133	H	-0.615734	-0.288704	-0.000273
H134	H	-0.282400	0.044630	0.333060
H135	H	0.050933	0.377963	0.666394
Cl136	Cl	-0.755735	-0.240976	0.543924
Cl137	Cl	-0.422402	0.092358	0.877257
Cl138	Cl	-0.089068	0.425691	1.210591
H139	H	-0.889342	-0.041684	0.480425
H140	H	-0.556008	0.291649	0.813759
H141	H	-0.222675	0.624982	1.147092
H142	H	-0.483454	-0.286058	-0.000293
H143	H	-0.150121	0.047275	0.333041
H144	H	0.183212	0.380609	0.666374
H145	H	-0.494135	0.027313	-0.000277
H146	H	-0.160802	0.360646	0.333056
H147	H	0.172532	0.693979	0.666389
H148	H	-0.914967	0.371747	-0.000423
H149	H	-0.581634	0.705080	0.332911
H150	H	-0.248301	1.038413	0.666244
H151	H	-0.049557	0.036211	-0.000455
H152	H	0.283776	0.369544	0.332879
H153	H	0.617109	0.702878	0.666212
Cl154	Cl	-0.643874	0.062601	-0.000203
Cl155	Cl	-0.310540	0.395934	0.333130
Cl156	Cl	0.022793	0.729267	0.666463
Cl157	Cl	-0.021422	-0.315094	-0.000416
Cl158	Cl	0.311912	0.018239	0.332918
Cl159	Cl	0.645245	0.351573	0.666251
Cl160	Cl	-0.199290	0.071489	-0.000341
Cl161	Cl	0.134043	0.404822	0.332992
Cl162	Cl	0.467376	0.738156	0.666326
Cl163	Cl	-0.185998	-0.318387	-0.000385
Cl164	Cl	0.147335	0.014947	0.332948
Cl165	Cl	0.480668	0.348280	0.666282
Cl166	Cl	-0.720847	0.392594	-0.000283
Cl167	Cl	-0.387514	0.725928	0.333051
Cl168	Cl	-0.054181	1.059261	0.666384
