data_functionalizedCrystal
_audit_creation_method	'MofGen! by Chris Wilmer'
_symmetry_space_group_name_H-M	'P1'
_symmetry_Int_Tables_number	1
_symmetry_cell_setting	triclinic
loop_
_symmetry_equiv_pos_as_xyz
  x,y,z
_cell_length_a	12.827893
_cell_length_b	18.101395
_cell_length_c	12.827885
_cell_angle_alpha	90.032375
_cell_angle_beta	90.019272
_cell_angle_gamma	90.031075
loop_
_atom_site_label
_atom_site_type_symbol
_atom_site_fract_x
_atom_site_fract_y
_atom_site_fract_z
Zn1	Zn	1.597556	-0.294794	0.590830
Zn2	Zn	1.597402	-0.418654	0.416082
Zn3	Zn	1.422797	-0.294830	0.416103
Zn4	Zn	1.422734	-0.418598	0.590782
O5	O	1.510122	-0.356719	0.503449
O6	O	1.743771	-0.311233	0.567660
O7	O	1.574202	-0.402266	0.269849
O8	O	1.446070	-0.191193	0.439310
O9	O	1.743658	-0.402231	0.439274
O10	O	1.574464	-0.191166	0.567681
O11	O	1.445920	-0.311294	0.269865
O12	O	1.276553	-0.311241	0.439264
O13	O	1.445963	-0.402137	0.737025
O14	O	1.276507	-0.402172	0.567600
O15	O	1.574403	-0.311179	0.737060
O16	O	1.574141	-0.522279	0.439228
O17	O	1.445814	-0.522239	0.567579
C18	C	1.238612	-0.356705	0.503430
C19	C	1.122459	-0.356717	0.503446
C20	C	1.070679	-0.401783	0.566852
C21	C	0.950629	-0.401796	0.566871
C22	C	1.509982	-0.549130	0.503419
C23	C	1.510018	-0.631444	0.503440
C24	C	1.510247	-0.930535	0.503497
C25	C	1.429695	-0.899215	0.584452
C26	C	1.429312	-0.813597	0.584199
C27	C	1.510134	-0.782152	0.503470
C28	C	1.480314	-0.813311	0.393335
C29	C	1.479795	-0.898956	0.393820
C30	C	1.620796	-0.898877	0.531706
C31	C	1.620146	-0.813226	0.534121
C32	C	1.510071	-0.698293	0.503448
C33	C	1.510307	-1.014394	0.503511
C34	C	1.782692	-0.356734	0.503470
C35	C	1.898845	-0.356740	0.503479
C36	C	1.510193	-0.356648	0.776020
C37	C	1.510224	-0.356618	0.892173
C38	C	1.510291	-0.163557	0.503503
C39	C	1.510363	-0.081243	0.503526
C40	C	1.510111	-0.356737	0.231940
C41	C	1.510284	-0.356558	0.115787
C42	C	1.573787	-0.311600	0.943975
C43	C	1.573820	-0.311568	1.064025
H44	H	0.906099	-0.440381	0.621152
H45	H	1.115225	-0.440353	0.621127
H46	H	1.398984	-0.919000	0.369923
O47	O	0.952069	-0.310810	0.438659
C48	C	1.015126	-0.352953	0.371089
H49	H	1.031356	-0.409115	0.407820
H50	H	1.091933	-0.322818	0.357216
H51	H	0.973083	-0.361001	0.293596
H52	H	1.077913	-0.318141	0.449179
H53	H	1.647982	-0.920420	0.610647
H54	H	1.447969	-0.792528	0.665863
H55	H	1.448166	-0.919757	0.666380
H56	H	1.537139	-0.792944	0.331373
H57	H	1.455822	-0.395130	0.936700
O58	O	1.384892	-0.787770	0.364493
C59	C	1.344885	-0.741709	0.443591
H60	H	1.383616	-0.756020	0.520979
H61	H	1.257107	-0.750342	0.450301
H62	H	1.361580	-0.681520	0.423454
O63	O	1.646846	-0.788830	0.630804
C64	C	1.566415	-0.743894	0.670628
H65	H	1.518463	-0.720713	0.603352
H66	H	1.601780	-0.696425	0.717183
H67	H	1.513964	-0.778208	0.723550
H68	H	1.628242	-0.273028	1.108574
O69	O	1.638830	-0.265682	0.890982
C70	C	1.743000	-0.281863	0.917560
H71	H	1.745233	-0.310261	0.996825
H72	H	1.789911	-0.228415	0.921203
H73	H	1.778092	-0.319994	0.856144
O74	O	1.445504	-0.402579	1.062539
C75	C	1.505004	-0.450402	0.999417
H76	H	1.584232	-0.424280	0.983189
H77	H	1.462484	-0.460295	0.922612
H78	H	1.516410	-0.505299	1.041403
H79	H	1.348251	-0.920803	0.566002
O80	O	1.331488	-0.789318	0.562024
C81	C	1.261519	-0.815563	0.638243
H82	H	1.295371	-0.866976	0.676755
H83	H	1.183936	-0.829955	0.599892
H84	H	1.248669	-0.770982	0.699714
H85	H	1.683338	-0.791817	0.479455
O86	O	1.546618	-0.923660	0.319277
C87	C	1.514341	-0.897482	0.220936
H88	H	1.427603	-0.883931	0.223486
H89	H	1.529054	-0.941778	0.159478
H90	H	1.560263	-0.845571	0.200320
H91	H	1.680811	-0.919130	0.472743
