data_functionalizedCrystal
_audit_creation_method	'MofGen! by Chris Wilmer'
_symmetry_space_group_name_H-M	'P1'
_symmetry_Int_Tables_number	1
_symmetry_cell_setting	triclinic
loop_
_symmetry_equiv_pos_as_xyz
  x,y,z
_cell_length_a	29.839134
_cell_length_b	16.959454
_cell_length_c	16.959447
_cell_angle_alpha	89.973264
_cell_angle_beta	90.025176
_cell_angle_gamma	89.985063
loop_
_atom_site_label
_atom_site_type_symbol
_atom_site_fract_x
_atom_site_fract_y
_atom_site_fract_z
Zn1	Zn	0.686800	0.314774	0.447157
Zn2	Zn	0.686756	0.446967	0.314987
Zn3	Zn	0.611679	0.314794	0.314970
Zn4	Zn	0.611659	0.446903	0.447101
O5	O	0.649224	0.380859	0.381054
O6	O	0.749662	0.332328	0.429656
O7	O	0.676787	0.429469	0.204374
O8	O	0.621671	0.204181	0.332521
O9	O	0.749629	0.429449	0.332551
O10	O	0.676862	0.204166	0.429639
O11	O	0.621628	0.332362	0.204361
O12	O	0.548809	0.332300	0.332466
O13	O	0.621637	0.429341	0.557719
O14	O	0.548795	0.429360	0.429542
O15	O	0.676843	0.332266	0.557761
O16	O	0.676768	0.557569	0.332496
O17	O	0.621594	0.557522	0.429559
C18	C	0.532501	0.380826	0.380997
C19	C	0.482567	0.380831	0.380991
C20	C	0.649186	0.586226	0.381040
C21	C	0.649211	0.674082	0.381061
C22	C	0.649242	0.380794	0.587222
C23	C	0.649250	0.380766	0.675079
C24	C	0.172925	0.431473	0.431539
C25	C	-0.014748	0.431495	0.431574
O26	O	-0.039011	0.474516	0.474518
N27	N	-0.038218	0.380888	0.381113
C28	C	-0.014768	0.330269	0.330643
O29	O	-0.039037	0.287219	0.287730
C30	C	0.172905	0.330243	0.330613
C31	C	0.196373	0.380859	0.381071
C32	C	0.196393	0.482084	0.481994
C33	C	0.243309	0.482081	0.481982
C34	C	0.266756	0.431467	0.431514
C35	C	0.243288	0.380856	0.381059
C36	C	0.196354	0.279620	0.280147
C37	C	0.243275	0.279616	0.280146
C38	C	0.266743	0.330232	0.330604
C39	C	0.313651	0.330239	0.330579
N40	N	0.337121	0.380846	0.381040
C41	C	0.313674	0.431460	0.431508
C42	C	-0.113298	0.330287	0.330662
C43	C	-0.160216	0.330294	0.330668
C44	C	-0.160193	0.431520	0.431601
C45	C	-0.113274	0.431516	0.431589
C46	C	-0.089828	0.380894	0.381123
C47	C	0.412200	0.431450	0.431478
C48	C	0.459119	0.431445	0.431459
C49	C	0.459092	0.330216	0.330530
C50	C	0.412177	0.330224	0.330545
C51	C	0.388732	0.380844	0.381026
O52	O	0.337943	0.287234	0.287664
O53	O	0.337951	0.474491	0.474428
C54	C	0.126010	0.431476	0.431551
C55	C	0.102542	0.380865	0.381096
C56	C	0.125989	0.330251	0.330629
C57	C	0.055624	0.380872	0.381103
C58	C	0.032176	0.431486	0.431570
C59	C	0.055647	0.482093	0.482031
C60	C	0.102562	0.482090	0.482019
C61	C	0.102519	0.279644	0.280167
C62	C	0.055603	0.279652	0.280183
C63	C	0.032156	0.330266	0.330651
C64	C	0.766402	0.380894	0.381111
C65	C	0.816336	0.380908	0.381136
C66	C	0.649274	0.174691	0.381084
C67	C	0.649295	0.086835	0.381098
C68	C	0.620536	1.045563	0.431589
C69	C	0.678036	1.045552	0.330599
C70	C	0.678020	0.963006	0.330591
C71	C	0.649262	0.921735	0.381083
C72	C	0.620519	0.963010	0.431582
C73	C	0.706760	0.921726	0.280088
C74	C	0.706745	0.839175	0.280078
C75	C	0.677988	0.797902	0.330574
C76	C	0.649244	0.839182	0.381076
C77	C	0.620486	0.797910	0.431567
C78	C	0.591744	0.839189	0.482073
C79	C	0.591762	0.921737	0.482078
C80	C	0.677970	0.715354	0.330569
C81	C	0.620468	0.715357	0.431560
C82	C	0.649231	0.380868	0.175687
C83	C	0.649310	0.380673	0.087831
C84	C	0.620561	0.431225	1.046535
C85	C	0.678047	0.330141	1.046574
C86	C	0.678035	0.330157	0.964028
C87	C	0.649286	0.380709	0.922732
C88	C	0.620549	0.431245	0.963982
C89	C	0.706775	0.279629	0.922772
C90	C	0.706765	0.279644	0.840221
C91	C	0.678013	0.330193	0.798923
C92	C	0.649274	0.380729	0.840178
C93	C	0.620525	0.431282	0.798882
C94	C	0.591784	0.481815	0.840136
C95	C	0.591797	0.481794	0.922684
C96	C	0.678000	0.330214	0.716375
C97	C	0.620513	0.431301	0.716328
H98	H	0.478225	0.472665	0.472549
F99	F	0.589861	0.671439	0.485305
H100	H	0.478192	0.289010	0.289438
H101	H	0.730184	0.238477	0.956401
F102	F	0.737353	0.225861	0.796323
F103	F	0.589972	0.485001	1.090439
H104	H	0.568326	0.805576	0.523180
F105	F	-0.088350	0.276403	0.276945
H106	H	0.597098	0.472461	0.682711
F107	F	0.737366	0.965653	0.226358
H108	H	0.177255	0.238405	0.239056
F109	F	-0.088302	0.485387	0.485295
H110	H	0.568399	0.522938	0.956280
F111	F	0.708646	0.276348	1.090526
H112	H	0.701402	0.289073	0.682790
H113	H	0.036499	0.238435	0.239086
H114	H	0.262363	0.238388	0.239054
F115	F	0.737337	0.795251	0.226331
H116	H	0.393116	0.472667	0.472586
F117	F	0.708641	1.089478	0.276865
F118	F	0.171446	0.535959	0.535715
F119	F	0.268279	0.535951	0.535691
H120	H	0.701369	0.681749	0.289444
H121	H	-0.179292	0.472732	0.472693
F122	F	0.561190	0.535618	0.796176
F123	F	0.387200	0.276365	0.276830
F124	F	-0.185187	0.276431	0.276954
H125	H	0.121666	0.523307	0.523108
H126	H	0.036548	0.523308	0.523122
H127	H	0.121605	0.238427	0.239070
H128	H	0.597137	1.079176	0.472712
F129	F	0.561175	0.965673	0.535824
