data_functionalizedCrystal
_audit_creation_method	'MofGen! by Chris Wilmer'
_symmetry_space_group_name_H-M	'P1'
_symmetry_Int_Tables_number	1
_symmetry_cell_setting	triclinic
loop_
_symmetry_equiv_pos_as_xyz
  x,y,z
_cell_length_a	21.883469
_cell_length_b	21.882911
_cell_length_c	21.879399
_cell_angle_alpha	60.006540
_cell_angle_beta	60.013207
_cell_angle_gamma	59.992231
loop_
_atom_site_label
_atom_site_type_symbol
_atom_site_fract_x
_atom_site_fract_y
_atom_site_fract_z
O1	O	0.084645	-0.892842	0.746620
O2	O	0.584645	-0.392842	1.246620
O3	O	0.031867	-0.695139	0.601571
O4	O	0.531867	-0.195139	1.101571
O5	O	0.157054	-0.820237	0.601476
O6	O	0.657054	-0.320237	1.101476
O7	O	-0.040542	-0.767744	0.746716
O8	O	0.459458	-0.267744	1.246716
O9	O	0.198586	-0.778715	0.642912
O10	O	0.698586	-0.278715	1.142912
O11	O	0.073399	-0.653617	0.643007
O12	O	0.573399	-0.153617	1.143007
O13	O	0.126177	-0.851320	0.788056
O14	O	0.626177	-0.351320	1.288056
Cu15	Cu	0.103580	-0.748677	0.719315
Cu16	Cu	0.603580	-0.248677	1.219315
Cu17	Cu	0.054464	-0.797782	0.670313
Cu18	Cu	0.554464	-0.297782	1.170313
O19	O	0.000990	-0.726222	0.788151
O20	O	0.500990	-0.226222	1.288151
N21	N	0.138128	-0.714145	0.753785
N22	N	0.638128	-0.214145	1.253785
N23	N	0.019923	-0.832320	0.635843
N24	N	0.519923	-0.332320	1.135843
C25	C	0.190018	-0.547369	0.805644
C26	C	0.690018	-0.047369	1.305644
C27	C	0.190029	-0.662289	0.805630
C28	C	0.690029	-0.162289	1.305630
C29	C	0.218780	-0.633565	0.834353
C30	C	0.718780	-0.133565	1.334353
C31	C	0.344122	-0.611968	0.768360
C32	C	0.844122	-0.111968	1.268360
C33	C	0.422474	-0.638085	0.742222
C34	C	0.922474	-0.138085	1.242222
C35	C	0.422504	-0.764859	0.790561
C36	C	0.922504	-0.264859	1.290561
C37	C	0.344154	-0.738739	0.816702
C38	C	0.844154	-0.238739	1.316702
C39	C	0.208899	-0.508180	0.728617
C40	C	0.708899	-0.008180	1.228617
C41	C	0.182748	-0.429822	0.702522
C42	C	0.682748	0.070178	1.202522
C43	C	0.118843	-0.429847	0.830485
C44	C	0.618843	0.070153	1.330485
C45	C	0.144993	-0.508205	0.856580
C46	C	0.644993	-0.008205	1.356580
C47	C	0.112994	-0.643364	0.824587
C48	C	0.612994	-0.143364	1.324587
C49	C	0.086865	-0.669476	0.798467
C50	C	0.586865	-0.169476	1.298467
C51	C	0.214799	-0.733437	0.734451
C52	C	0.714799	-0.233437	1.234451
C53	C	0.240932	-0.707325	0.760562
C54	C	0.740932	-0.207325	1.260562
C55	C	0.113084	-0.643389	0.959747
C56	C	0.613084	-0.143389	1.459747
C57	C	0.087018	-0.669524	1.038102
C58	C	0.587018	-0.169524	1.538102
C59	C	0.214996	-0.733501	1.038048
C60	C	0.714996	-0.233501	1.538048
C61	C	0.241061	-0.707367	0.959690
C62	C	0.741061	-0.207367	1.459690
C63	C	0.190103	-0.662308	0.920542
C64	C	0.690103	-0.162308	1.420542
C65	C	0.304966	-0.662293	0.805598
C66	C	0.804966	-0.162293	1.305598
C67	C	-0.117460	-0.854702	0.612901
C68	C	0.382540	-0.354702	1.112901
C69	C	-0.002405	-0.854864	0.498145
C70	C	0.497595	-0.354864	0.998145
C71	C	-0.002621	-0.969735	0.613108
C72	C	0.497379	-0.469735	1.113108
C73	C	-0.002603	-0.854858	0.613180
C74	C	0.497397	-0.354858	1.113180
C75	C	-0.031272	-0.883541	0.584334
C76	C	0.468728	-0.383541	1.084334
N77	N	0.460550	-0.714150	0.753681
N78	N	0.960550	-0.214150	1.253681
O79	O	0.699805	-0.721060	0.574973
O80	O	1.199805	-0.221060	1.074973
O81	O	0.700047	-0.866553	0.772482
O82	O	1.200047	-0.366553	1.272482
O83	O	0.699952	-0.866219	0.647213
O84	O	1.199952	-0.366219	1.147213
O85	O	0.699900	-0.721394	0.700242
O86	O	1.199900	-0.221394	1.200242
O87	O	0.575478	-0.824800	0.688791
O88	O	1.075478	-0.324800	1.188791
O89	O	0.575573	-0.825134	0.814060
O90	O	1.075573	-0.325134	1.314060
O91	O	0.575331	-0.679641	0.616551
O92	O	1.075331	-0.179641	1.116551
Cu93	Cu	0.564087	-0.748606	0.719102
Cu94	Cu	1.064087	-0.248606	1.219102
Cu95	Cu	0.711292	-0.797588	0.669931
Cu96	Cu	1.211292	-0.297588	1.169931
O97	O	0.575426	-0.679975	0.741820
O98	O	1.075426	-0.179975	1.241820
N99	N	0.814828	-0.832044	0.635345
N100	N	1.314828	-0.332044	1.135345
N101	N	0.138106	-0.391772	0.753815
N102	N	0.638106	0.108228	1.253815
O103	O	-0.040520	-0.152377	0.746758
O104	O	0.459480	0.347623	1.246758
O105	O	0.156993	-0.152371	0.601281
O106	O	0.656993	0.347629	1.101281
O107	O	0.031698	-0.152390	0.601639
O108	O	0.531698	0.347610	1.101639
O109	O	0.084775	-0.152358	0.746401
O110	O	0.584775	0.347642	1.246401
O111	O	0.073234	-0.276876	0.643130
O112	O	0.573234	0.223124	1.143130
O113	O	0.198529	-0.276856	0.642772
O114	O	0.698529	0.223144	1.142772
O115	O	0.001015	-0.276863	0.788249
O116	O	0.501015	0.223137	1.288249
Cu117	Cu	0.103564	-0.288226	0.719299
Cu118	Cu	0.603564	0.211774	1.219299
Cu119	Cu	0.054444	-0.141007	0.670231
Cu120	Cu	0.554444	0.358993	1.170231
O121	O	0.126310	-0.276844	0.787892
O122	O	0.626310	0.223156	1.287892
N123	N	0.019892	-0.037461	0.635717
N124	N	0.519892	0.462539	1.135717
N125	N	0.138332	-0.714192	1.076133
N126	N	0.638332	-0.214192	1.576133
O127	O	0.131293	-0.892804	1.315506
O128	O	0.631293	-0.392804	1.815506
O129	O	-0.014162	-0.695219	1.315533
O130	O	0.485838	-0.195219	1.815533
O131	O	-0.013826	-0.820490	1.315480
O132	O	0.486174	-0.320490	1.815480
O133	O	0.130957	-0.767533	1.315559
O134	O	0.630957	-0.267533	1.815559
O135	O	0.027651	-0.778981	1.191001
O136	O	0.527651	-0.278981	1.691001
O137	O	0.027314	-0.653710	1.191054
O138	O	0.527314	-0.153710	1.691054
O139	O	0.172770	-0.851295	1.191026
O140	O	0.672770	-0.351295	1.691026
Cu141	Cu	0.103829	-0.748713	1.179674
Cu142	Cu	0.603829	-0.248713	1.679674
Cu143	Cu	0.054778	-0.797802	1.326885
Cu144	Cu	0.554778	-0.297802	1.826885
O145	O	0.172434	-0.726024	1.191079
O146	O	0.672434	-0.226024	1.691079
N147	N	0.020275	-0.832331	1.430426
N148	N	0.520275	-0.332331	1.930426
C149	C	0.047687	-0.649466	0.602306
C150	C	0.547687	-0.149466	1.102306
C151	C	0.202716	-0.804385	0.602188
C152	C	0.702716	-0.304385	1.102188
C153	C	0.110357	-0.896993	0.787321
C154	C	0.610357	-0.396993	1.287321
C155	C	-0.044672	-0.742074	0.787439
C156	C	0.455328	-0.242074	1.287439
C157	C	0.637839	-0.865879	0.818154
C158	C	1.137839	-0.365879	1.318154
C159	C	0.637724	-0.865466	0.663023
C160	C	1.137724	-0.365466	1.163023
C161	C	0.637536	-0.680313	0.570880
C162	C	1.137536	-0.180313	1.070880
C163	C	0.637655	-0.680728	0.726010
C164	C	1.137655	-0.180728	1.226010
C165	C	0.202592	-0.214459	0.601942
C166	C	0.702592	0.285541	1.101942
C167	C	0.047481	-0.214636	0.602435
C168	C	0.547481	0.285364	1.102435
C169	C	-0.044635	-0.214620	0.787537
C170	C	0.455365	0.285380	1.287537
C171	C	0.110528	-0.214598	0.787096
C172	C	0.610528	0.285402	1.287096
C173	C	-0.013455	-0.649572	1.253296
C174	C	0.486545	-0.149572	1.753296
C175	C	-0.013030	-0.804697	1.253206
C176	C	0.486970	-0.304697	1.753206
C177	C	0.172063	-0.896942	1.253263
C178	C	0.672063	-0.396942	1.753263
C179	C	0.171648	-0.741808	1.253325
C180	C	0.671648	-0.241808	1.753325
H181	H	0.024299	-0.654107	1.070013
H182	H	0.524299	-0.154107	1.570013
H183	H	0.121632	-0.953785	0.832877
H184	H	0.621632	-0.453785	1.332877
O185	O	0.034162	-0.581750	0.547933
O186	O	0.534162	-0.081750	1.047933
C187	C	-0.026449	-0.568381	0.530717
C188	C	0.473551	-0.068381	1.030717
H189	H	-0.032400	-0.623975	0.547226
H190	H	0.467600	-0.123975	1.047226
H191	H	-0.015858	-0.538024	0.468076
H192	H	0.484142	-0.038024	0.968076
H193	H	-0.080101	-0.532333	0.562925
H194	H	0.419899	-0.032333	1.062925
O195	O	-0.112407	-0.728596	0.841783
O196	O	0.387593	-0.228596	1.341783
C197	C	-0.158923	-0.655055	0.814718
C198	C	0.341077	-0.155055	1.314718
H199	H	-0.122882	-0.619515	0.766651
H200	H	0.377118	-0.119515	1.266651
H201	H	-0.194776	-0.629991	0.861687
H202	H	0.305224	-0.129991	1.361687
H203	H	-0.196724	-0.656189	0.793931
H204	H	0.303276	-0.156189	1.293931
H205	H	0.256252	-0.770113	0.697763
H206	H	0.756252	-0.270113	1.197763
H207	H	0.217133	-0.730478	1.253340
H208	H	0.717133	-0.230478	1.753340
H209	H	-0.058496	-0.816008	1.253133
H210	H	0.441504	-0.316008	1.753133
H211	H	0.303660	-0.722726	0.745118
H212	H	0.803660	-0.222726	1.245118
H213	H	-0.101359	-0.214623	0.833209
H214	H	0.398641	0.285377	1.333209
H215	H	0.217732	-0.953686	1.253245
H216	H	0.717732	-0.453686	1.753245
H217	H	0.121892	-0.214588	0.832572
H218	H	0.621892	0.285412	1.332572
H219	H	0.071582	-0.606692	0.927876
H220	H	0.571582	-0.106692	1.427876
O221	O	0.201053	-0.391830	0.627676
O222	O	0.701053	0.108170	1.127676
C223	C	0.174217	-0.410952	0.595146
C224	C	0.674217	0.089048	1.095146
H225	H	0.166567	-0.467850	0.632289
H226	H	0.666567	0.032150	1.132289
H227	H	0.216180	-0.413617	0.537502
H228	H	0.716180	0.086383	1.037502
H229	H	0.118206	-0.366854	0.589343
H230	H	0.618206	0.133146	1.089343
H231	H	0.256495	-0.770176	1.069914
H232	H	0.756495	-0.270176	1.569914
O233	O	-0.067867	-0.581845	1.253337
O234	O	0.432133	-0.081845	1.753337
C235	C	-0.040921	-0.535270	1.253347
C236	C	0.459079	-0.035270	1.753347
H237	H	0.007126	-0.571270	1.276922
H238	H	0.507126	-0.071270	1.776922
H239	H	-0.087956	-0.499408	1.289493
H240	H	0.412044	0.000592	1.789493
H241	H	-0.020146	-0.497471	1.193635
H242	H	0.479854	0.002529	1.693635
H243	H	0.637900	-0.911553	0.874882
H244	H	1.137900	-0.411553	1.374882
O245	O	0.315906	-0.725793	0.921724
O246	O	0.815906	-0.225793	1.421724
C247	C	0.355289	-0.771177	0.973083
C248	C	0.855289	-0.271177	1.473083
H249	H	0.317947	-0.761185	1.028946
H250	H	0.817947	-0.261185	1.528946
H251	H	0.407572	-0.756493	0.950429
H252	H	0.907572	-0.256493	1.450429
H253	H	0.372193	-0.832552	0.981403
H254	H	0.872193	-0.332552	1.481403
O255	O	0.637712	-0.919653	0.649378
O256	O	1.137712	-0.419653	1.149378
C257	C	0.637659	-0.892391	0.575809
C258	C	1.137659	-0.392391	1.075809
H259	H	0.614040	-0.828636	0.556140
H260	H	1.114040	-0.328636	1.056140
H261	H	0.601531	-0.915203	0.574744
H262	H	1.101531	-0.415203	1.074744
H263	H	0.697361	-0.911289	0.537055
H264	H	1.197361	-0.411289	1.037055
H265	H	0.071542	-0.606694	0.861281
H266	H	0.571542	-0.106694	1.361281
H267	H	0.259199	-0.214112	0.556156
H268	H	0.759199	0.285888	1.056156
O269	O	0.012008	-0.651059	0.816980
O270	O	0.512008	-0.151059	1.316980
C271	C	-0.027318	-0.605700	0.862348
C272	C	0.472682	-0.105700	1.362348
H273	H	0.010078	-0.615701	0.890814
H274	H	0.510078	-0.115701	1.390814
H275	H	-0.079580	-0.620402	0.906695
H276	H	0.420420	-0.120402	1.406695
H277	H	-0.044255	-0.544319	0.826223
H278	H	0.455745	-0.044319	1.326223
H279	H	0.637457	-0.634634	0.514159
H280	H	1.137457	-0.134634	1.014159
H281	H	0.454413	-0.827107	0.799589
H282	H	0.954413	-0.327107	1.299589
O283	O	0.306232	-0.787724	0.852829
O284	O	0.806232	-0.287724	1.352829
C285	C	0.357625	-0.860800	0.857033
C286	C	0.857625	-0.360800	1.357033
H287	H	0.413458	-0.857818	0.810744
H288	H	0.913458	-0.357818	1.310744
H289	H	0.334978	-0.892956	0.849944
H290	H	0.834978	-0.392956	1.349944
H291	H	0.365996	-0.890715	0.913809
H292	H	0.865996	-0.390715	1.413809
H293	H	0.454353	-0.597104	0.711898
H294	H	0.954353	-0.097104	1.211898
H295	H	0.637644	-0.635235	0.737357
H296	H	1.137644	-0.135235	1.237357
O297	O	0.306174	-0.537689	0.757541
O298	O	0.806174	-0.037689	1.257541
C299	C	0.357542	-0.498872	0.719049
C300	C	0.857542	0.001128	1.219049
H301	H	0.413409	-0.539091	0.728073
H302	H	0.913409	-0.039091	1.228073
H303	H	0.334914	-0.451618	0.741238
H304	H	0.834914	0.048382	1.241238
H305	H	0.365839	-0.474518	0.656712
H306	H	0.865839	0.025482	1.156712
H307	H	0.082193	-0.397958	0.871963
H308	H	0.582193	0.102042	1.371963
O309	O	0.252556	-0.546310	0.679216
O310	O	0.752556	-0.046310	1.179216
C311	C	0.216938	-0.591624	0.690493
C312	C	0.716938	-0.091624	1.190493
H313	H	0.175565	-0.603372	0.749960
H314	H	0.675565	-0.103372	1.249960
H315	H	0.260688	-0.646720	0.681762
H316	H	0.760688	-0.146720	1.181762
H317	H	0.185761	-0.561422	0.648875
H318	H	0.685761	-0.061422	1.148875
O319	O	0.126612	-0.546163	0.931434
O320	O	0.626612	-0.046163	1.431434
C321	C	0.081246	-0.494793	0.970795
C322	C	0.581246	0.005207	1.470795
H323	H	0.091218	-0.438931	0.933432
H324	H	0.591218	0.061069	1.433432
H325	H	0.095964	-0.517443	1.023076
H326	H	0.595964	-0.017443	1.523076
H327	H	0.019875	-0.486465	0.987704
H328	H	0.519875	0.013535	1.487704
O329	O	0.270472	-0.817842	0.547865
O330	O	0.770472	-0.317842	1.047865
C331	C	0.316974	-0.891397	0.574917
C332	C	0.816974	-0.391397	1.074917
H333	H	0.296662	-0.911216	0.638670
H334	H	0.796662	-0.411216	1.138670
H335	H	0.376948	-0.892352	0.552003
H336	H	0.876948	-0.392352	1.052003
H337	H	0.314916	-0.930101	0.555953
H338	H	0.814916	-0.430101	1.055953
H339	H	0.036114	-0.214639	0.556956
H340	H	0.536114	0.285361	1.056956
