data_functionalizedCrystal
_audit_creation_method	'MofGen! by Chris Wilmer'
_symmetry_space_group_name_H-M	'P1'
_symmetry_Int_Tables_number	1
_symmetry_cell_setting	triclinic
loop_
_symmetry_equiv_pos_as_xyz
  x,y,z
_cell_length_a	23.532350
_cell_length_b	10.723023
_cell_length_c	9.798715
_cell_angle_alpha	89.997861
_cell_angle_beta	89.998099
_cell_angle_gamma	96.353605
loop_
_atom_site_label
_atom_site_type_symbol
_atom_site_fract_x
_atom_site_fract_y
_atom_site_fract_z
O1	O	-0.756261	0.151123	-0.113310
O2	O	-0.590535	0.173114	-0.113352
O3	O	-0.677221	-0.019578	-0.113325
O4	O	-0.669575	0.343816	-0.113338
O5	O	-0.677214	-0.019579	0.113658
O6	O	-0.590529	0.173114	0.113630
O7	O	-0.756254	0.151123	0.113672
Zn8	Zn	-0.673390	0.162118	0.149689
Zn9	Zn	-0.673399	0.162119	-0.149369
O10	O	-0.669569	0.343816	0.113645
C11	C	-0.569312	0.172566	0.000134
C12	C	-0.506082	0.170916	0.000118
C13	C	-0.113997	0.160552	0.123908
C14	C	-0.054587	0.158983	0.123914
O15	O	-0.023860	0.158129	0.229139
N16	N	-0.024877	0.158205	0.000187
C17	C	-0.054580	0.158984	-0.123555
O18	O	-0.023854	0.158177	-0.228794
C19	C	-0.113990	0.160544	-0.123559
C20	C	-0.143696	0.161335	0.000176
C21	C	-0.143703	0.161342	0.247633
C22	C	-0.203109	0.162913	0.247627
C23	C	-0.232808	0.163695	0.123895
C24	C	-0.203101	0.162906	0.000170
C25	C	-0.143692	0.161314	-0.247299
C26	C	-0.203106	0.162873	-0.247293
C27	C	-0.232812	0.163664	-0.123558
C28	C	-0.292206	0.165260	-0.123568
N29	N	-0.321916	0.166038	0.000159
C30	C	-0.292217	0.165256	0.123890
C31	C	0.070183	0.155705	-0.123536
C32	C	0.129591	0.154154	-0.123533
C33	C	0.129581	0.154151	0.123936
C34	C	0.070171	0.155711	0.123932
C35	C	0.040473	0.156483	0.000192
C36	C	-0.416973	0.168557	0.123868
C37	C	-0.476383	0.170134	0.123850
C38	C	-0.476368	0.170130	-0.123618
C39	C	-0.416962	0.168560	-0.123601
C40	C	-0.387266	0.167769	0.000152
O41	O	-0.322971	0.166110	-0.228740
O42	O	-0.322951	0.166046	0.229112
C43	C	-0.676661	-0.066060	0.000165
C44	C	-0.674997	-0.204562	0.000160
C45	C	-0.674258	-0.266304	-0.117425
C46	C	-0.672538	-0.409453	-0.117433
C47	C	0.222523	0.151683	0.000186
C48	C	0.159295	0.153365	0.000200
C49	C	-0.670128	0.390298	0.000152
C50	C	-0.671793	0.528800	0.000148
N51	N	-0.673389	0.162117	0.353789
N52	N	-0.673405	0.162110	-0.353469
C53	C	-0.709786	0.080860	0.421577
C54	C	-0.709795	0.080855	0.578740
H55	H	-0.500567	0.170782	0.224615
C56	C	-0.672649	-0.399481	0.136159
N57	N	-0.673294	-0.345451	0.238602
H58	H	-0.674352	-0.257678	0.100824
H59	H	-0.740938	0.011290	0.363265
C60	C	-0.384315	0.167700	0.260003
N61	N	-0.359718	0.167065	0.362540
H62	H	0.046006	0.156345	-0.224306
H63	H	-0.740958	0.011291	0.637035
C64	C	0.037499	0.156568	0.260049
N65	N	0.012893	0.157209	0.362578
H66	H	-0.642233	0.231678	0.412104
H67	H	-0.671906	-0.462551	-0.218102
C68	C	-0.631305	0.256100	0.567788
N69	N	-0.599594	0.326892	0.508469
H70	H	-0.227291	0.163549	0.348385
H71	H	0.153772	0.153511	0.224686
C72	C	0.162262	0.153294	-0.259651
N73	N	0.186867	0.152637	-0.362181
C74	C	-0.111042	0.160498	0.383760
N75	N	-0.086446	0.159878	0.486300
H76	H	-0.119516	0.160669	-0.348058
H77	H	-0.227283	0.163502	-0.348060
C78	C	-0.675128	-0.194552	-0.253423
N79	N	-0.675785	-0.140510	-0.355860
C80	C	-0.509048	0.170982	-0.259716
N81	N	-0.533666	0.171613	-0.362227
C82	C	-0.384283	0.167705	-0.259716
N83	N	-0.359674	0.167049	-0.362240
