data_functionalizedCrystal
_audit_creation_method	'MofGen! by Chris Wilmer'
_symmetry_space_group_name_H-M	'P1'
_symmetry_Int_Tables_number	1
_symmetry_cell_setting	triclinic
loop_
_symmetry_equiv_pos_as_xyz
  x,y,z
_cell_length_a	8.559649
_cell_length_b	16.098538
_cell_length_c	8.597304
_cell_angle_alpha	94.919761
_cell_angle_beta	77.624695
_cell_angle_gamma	92.353685
loop_
_atom_site_label
_atom_site_type_symbol
_atom_site_fract_x
_atom_site_fract_y
_atom_site_fract_z
O1	O	2.125887	0.064901	-0.060510
O2	O	1.662532	0.070663	0.019737
O3	O	1.901680	0.051441	-0.248099
O4	O	1.886740	0.084123	0.207326
O5	O	1.887709	-0.085953	-0.232508
O6	O	1.648561	-0.066731	0.035328
O7	O	2.111916	-0.072493	-0.044919
Zn8	Zn	1.878020	-0.091426	-0.002320
Zn9	Zn	1.896428	0.089596	-0.022862
O10	O	1.872768	-0.053271	0.222917
C11	C	1.596157	0.002403	0.033613
C12	C	1.419194	0.003703	0.051715
N13	N	1.865469	-0.214969	0.011697
C14	C	1.967012	-0.266711	-0.101952
C15	C	1.958247	-0.353195	-0.092134
C16	C	1.847946	-0.387936	0.031341
C17	C	1.746393	-0.336188	0.144996
C18	C	1.755151	-0.249706	0.135170
C19	C	1.816196	-0.648631	0.066936
C20	C	1.807449	-0.735120	0.076756
C21	C	2.019302	-0.752121	-0.160377
C22	C	2.028057	-0.665636	-0.170186
C23	C	1.926498	-0.613896	-0.056537
C24	C	1.838988	-0.476336	0.041383
C25	C	1.935449	-0.525498	-0.066586
C26	C	2.178291	-0.004231	-0.058796
C27	C	2.355255	-0.005526	-0.076898
C28	C	1.892312	-0.021400	-0.298069
C29	C	1.885195	-0.033746	-0.470188
N30	N	1.908991	0.213138	-0.036893
C31	C	1.882136	0.019571	0.272886
C32	C	1.889254	0.031923	0.445005
H33	H	2.056837	-0.238431	-0.202493
H34	H	1.898171	0.097596	-0.495926
H35	H	1.338545	0.012603	0.175682
H36	H	1.672462	-0.207578	0.227713
H37	H	1.435896	-0.014417	-0.200858
H38	H	2.101985	-0.794256	-0.252906
O39	O	2.057070	-0.403333	-0.202608
C40	C	2.156289	-0.354126	-0.313706
H41	H	2.165773	-0.287916	-0.257215
H42	H	2.280471	-0.381883	-0.349699
H43	H	2.102857	-0.352788	-0.424040
H44	H	1.876255	-0.099422	-0.529258
O45	O	2.135242	-0.632031	-0.290278
C46	C	2.223017	-0.696244	-0.388463
H47	H	2.151407	-0.757468	-0.375438
H48	H	2.247004	-0.680374	-0.518289
H49	H	2.341614	-0.702816	-0.351060
H50	H	1.733505	-0.606511	0.159477
O51	O	1.700139	-0.768736	0.196755
C52	C	1.612397	-0.704524	0.294977
H53	H	1.615385	-0.647434	0.224486
H54	H	1.483159	-0.726741	0.336646
H55	H	1.667691	-0.687474	0.403221
O56	O	1.639099	-0.369800	0.264998
C57	C	1.551376	-0.305582	0.363219
H58	H	1.554361	-0.248495	0.292721
H59	H	1.422138	-0.327793	0.404909
H60	H	1.606689	-0.288529	0.471450
O61	O	2.042352	-0.491687	-0.186623
C62	C	1.959825	-0.447868	-0.278017
H63	H	1.837897	-0.429405	-0.202716
H64	H	2.031913	-0.389387	-0.317498
H65	H	1.942934	-0.489377	-0.387740
O66	O	1.731630	-0.510061	0.161193
C67	C	1.575454	-0.489398	0.152349
H68	H	1.574221	-0.474541	0.025340
H69	H	1.490147	-0.544320	0.186187
H70	H	1.535707	-0.432626	0.238365
