data_functionalizedCrystal
_audit_creation_method	'MofGen! by Chris Wilmer'
_symmetry_space_group_name_H-M	'P1'
_symmetry_Int_Tables_number	1
_symmetry_cell_setting	triclinic
loop_
_symmetry_equiv_pos_as_xyz
  x,y,z
_cell_length_a	16.959455
_cell_length_b	16.959454
_cell_length_c	16.959447
_cell_angle_alpha	89.973264
_cell_angle_beta	90.014322
_cell_angle_gamma	89.982978
loop_
_atom_site_label
_atom_site_type_symbol
_atom_site_fract_x
_atom_site_fract_y
_atom_site_fract_z
Zn1	Zn	1.208384	0.314730	0.446928
Zn2	Zn	1.708384	0.814730	0.946928
Zn3	Zn	1.208306	0.446923	0.314758
Zn4	Zn	1.708306	0.946923	0.814758
Zn5	Zn	1.076212	0.314755	0.314766
Zn6	Zn	1.576212	0.814755	0.814766
Zn7	Zn	1.076177	0.446864	0.446897
Zn8	Zn	1.576177	0.946864	0.946897
O9	O	1.142270	0.380818	0.380837
O10	O	1.642270	0.880818	0.880837
O11	O	1.318984	0.332280	0.429406
O12	O	1.818984	0.832280	0.929406
O13	O	1.190766	0.429426	0.204148
O14	O	1.690766	0.929426	0.704148
O15	O	1.093792	0.204141	0.332314
O16	O	1.593792	0.704141	0.832314
O17	O	1.318927	0.429402	0.332301
O18	O	1.818927	0.929402	0.832301
O19	O	1.190898	0.204123	0.429413
O20	O	1.690898	0.704123	0.929413
O21	O	1.093717	0.332323	0.204154
O22	O	1.593717	0.832323	0.704154
O23	O	0.965597	0.332265	0.332283
O24	O	1.465597	0.832265	0.832283
O25	O	1.093732	0.429301	0.557512
O26	O	1.593732	0.929301	1.057512
O27	O	0.965571	0.429325	0.429359
O28	O	1.465571	0.929325	0.929359
O29	O	1.190864	0.332223	0.557535
O30	O	1.690864	0.832223	1.057535
O31	O	1.190732	0.557526	0.332270
O32	O	1.690732	1.057526	0.832270
O33	O	1.093657	0.557482	0.429352
O34	O	1.593657	1.057482	0.929352
C35	C	0.936904	0.380792	0.380819
C36	C	1.436904	0.880792	0.880819
C37	C	0.849047	0.380800	0.380830
C38	C	1.349047	0.880800	0.880830
C39	C	1.142204	0.586184	0.380824
C40	C	1.642204	1.086184	0.880824
C41	C	1.142248	0.674041	0.380844
C42	C	1.642248	1.174041	0.880844
C43	C	0.477560	0.330238	0.330395
C44	C	0.977560	0.830238	0.830395
C45	C	0.477582	0.431463	0.431324
C46	C	0.977582	0.931463	0.931324
C47	C	0.560128	0.431452	0.431320
C48	C	1.060128	0.931452	0.931320
C49	C	0.601394	0.380834	0.380851
C50	C	1.101394	0.880834	0.880851
C51	C	0.560114	0.330226	0.330387
C52	C	1.060114	0.830226	0.830387
C53	C	0.601414	0.482064	0.481777
C54	C	1.101414	0.982064	0.981777
C55	C	0.683965	0.482055	0.481773
C56	C	1.183965	0.982055	0.981773
C57	C	0.725233	0.431432	0.431308
C58	C	1.225233	0.931432	0.931308
C59	C	0.683948	0.380822	0.380843
C60	C	1.183948	0.880822	0.880843
C61	C	0.725213	0.330204	0.330374
C62	C	1.225213	0.830204	0.830374
C63	C	0.683930	0.279589	0.279913
C64	C	1.183930	0.779589	0.779913
C65	C	0.601381	0.279603	0.279922
C66	C	1.101381	0.779603	0.779922
C67	C	0.807781	0.431418	0.431299
C68	C	1.307781	0.931418	0.931299
C69	C	0.807767	0.330193	0.330366
C70	C	1.307767	0.830193	0.830366
C71	C	1.142303	0.380753	0.587006
C72	C	1.642303	0.880753	1.087006
C73	C	1.142317	0.380725	0.674862
C74	C	1.642317	0.880725	1.174862
C75	C	1.348438	0.380845	0.380856
C76	C	1.848438	0.880845	0.880856
C77	C	1.436295	0.380856	0.380864
C78	C	1.936295	0.880856	0.880864
C79	C	1.142358	0.174650	0.380868
C80	C	1.642358	0.674650	0.880868
C81	C	1.142395	0.086793	0.380881
C82	C	1.642395	0.586793	0.880881
C83	C	1.091796	1.045524	0.431382
C84	C	1.591796	1.545524	0.931382
C85	C	1.192963	1.045509	0.330373
C86	C	1.692963	1.545509	0.830373
C87	C	1.192936	0.962963	0.330365
C88	C	1.692936	1.462963	0.830365
C89	C	1.142337	0.921694	0.380867
C90	C	1.642337	1.421694	0.880867
C91	C	1.091765	0.962970	0.431375
C92	C	1.591765	1.462970	0.931375
C93	C	1.243501	0.921680	0.279852
C94	C	1.743501	1.421680	0.779852
C95	C	1.243475	0.839130	0.279842
C96	C	1.743475	1.339130	0.779842
C97	C	1.192879	0.797859	0.330348
C98	C	1.692879	1.297859	0.830348
C99	C	1.142306	0.839140	0.380859
C100	C	1.642306	1.339140	0.880859
C101	C	1.091707	0.797871	0.431360
C102	C	1.591707	1.297871	0.931360
C103	C	1.041137	0.839151	0.481876
C104	C	1.541137	1.339151	0.981876
C105	C	1.041170	0.921699	0.481881
C106	C	1.541170	1.421699	0.981881
C107	C	1.192847	0.715310	0.330343
C108	C	1.692847	1.215310	0.830343
C109	C	1.091676	0.715317	0.431353
C110	C	1.591676	1.215317	0.931353
C111	C	1.142283	0.380826	0.175471
C112	C	1.642283	0.880826	0.675471
C113	C	1.142422	0.380631	0.087615
C114	C	1.642422	0.880631	0.587615
C115	C	1.091839	0.431185	1.046328
C116	C	1.591839	0.931185	1.546328
C117	C	1.192983	0.330097	1.046348
C118	C	1.692983	0.830097	1.546348
C119	C	1.192962	0.330114	0.963802
C120	C	1.692962	0.830114	1.463802
C121	C	1.142380	0.380668	0.922515
C122	C	1.642380	0.880668	1.422515
C123	C	1.091818	0.431205	0.963775
C124	C	1.591818	0.931205	1.463775
C125	C	1.243529	0.279584	0.922536
C126	C	1.743529	0.779584	1.422536
C127	C	1.243510	0.279599	0.839985
C128	C	1.743510	0.779599	1.339985
C129	C	1.192923	0.330149	0.798697
C130	C	1.692923	0.830149	1.298697
C131	C	1.142359	0.380688	0.839962
C132	C	1.642359	0.880688	1.339962
C133	C	1.091776	0.431242	0.798675
C134	C	1.591776	0.931242	1.298675
C135	C	1.041207	0.481777	0.839938
C136	C	1.541207	0.981777	1.339938
C137	C	1.041231	0.481756	0.922487
C138	C	1.541231	0.981756	1.422487
C139	C	1.192899	0.330171	0.716149
C140	C	1.692899	0.830171	1.216149
C141	C	1.091755	0.431262	0.716122
C142	C	1.591755	0.931262	1.216122
H143	H	0.841360	0.288968	0.289273
H144	H	1.341360	0.788968	0.789273
Br145	Br	1.312136	0.211016	0.783992
Br146	Br	1.812136	0.711016	1.283992
Br147	Br	1.312170	0.977691	0.211323
Br148	Br	1.812170	1.477691	0.711323
Br149	Br	1.261530	0.261601	0.660152
Br150	Br	1.761530	0.761601	1.160152
H151	H	1.284715	0.238430	0.956158
H152	H	1.784715	0.738430	1.456158
Br153	Br	0.972546	0.977726	0.550431
Br154	Br	1.472546	1.477726	1.050431
H155	H	1.050626	1.079138	0.472513
H156	H	1.550626	1.579138	0.972513
H157	H	1.234154	1.079115	0.289252
H158	H	1.734154	1.579115	0.789252
H159	H	1.234016	0.681704	0.289211
H160	H	1.734016	1.181704	0.789211
H161	H	1.234170	0.288943	1.079968
H162	H	1.734170	0.788943	1.579968
Br163	Br	1.312108	0.783114	0.211293
Br164	Br	1.812108	1.283114	0.711293
Br165	Br	1.023209	0.499761	1.102324
Br166	Br	1.523209	0.999761	1.602324
Br167	Br	0.739943	0.210903	0.211415
Br168	Br	1.239943	0.710903	0.711415
H169	H	1.050557	0.472422	0.682512
H170	H	1.550557	0.972422	1.182512
H171	H	1.000063	0.522901	0.956091
H172	H	1.500063	1.022901	1.456091
Br173	Br	0.545350	0.210918	0.211446
Br174	Br	1.045350	0.710918	0.711446
H175	H	1.050475	0.681721	0.472480
H176	H	1.550475	1.181721	0.972480
H177	H	1.000026	0.522942	0.806312
H178	H	1.500026	1.022942	1.306312
H179	H	0.567810	0.523280	0.522860
H180	H	1.067810	1.023280	1.022860
Br181	Br	0.421537	0.261543	0.261921
Br182	Br	0.921537	0.761543	0.761921
Br183	Br	0.972464	0.783133	0.550404
Br184	Br	1.472464	1.283133	1.050404
Br185	Br	0.739986	0.550743	0.550256
Br186	Br	1.239986	1.050743	1.050256
H187	H	0.443979	0.472679	0.472409
H188	H	0.943979	0.972679	0.972409
H189	H	0.841390	0.472630	0.472381
H190	H	1.341390	0.972630	0.972381
