data_functionalizedCrystal
_audit_creation_method	'MofGen! by Chris Wilmer'
_symmetry_space_group_name_H-M	'P1'
_symmetry_Int_Tables_number	1
_symmetry_cell_setting	triclinic
loop_
_symmetry_equiv_pos_as_xyz
  x,y,z
_cell_length_a	16.992694
_cell_length_b	15.995350
_cell_length_c	15.455313
_cell_angle_alpha	92.667328
_cell_angle_beta	87.142206
_cell_angle_gamma	87.080299
loop_
_atom_site_label
_atom_site_type_symbol
_atom_site_fract_x
_atom_site_fract_y
_atom_site_fract_z
O1	O	1.043823	0.174116	-0.072015
O2	O	1.543823	0.674116	0.427985
O3	O	0.815539	0.172167	-0.072041
O4	O	1.315539	0.672167	0.427959
O5	O	0.935921	0.051671	-0.072026
O6	O	1.435921	0.551671	0.427974
O7	O	0.923440	0.294611	-0.072029
O8	O	1.423440	0.794611	0.427971
O9	O	0.929037	0.058531	0.072235
O10	O	1.429037	0.558531	0.572235
O11	O	0.808655	0.179027	0.072221
O12	O	1.308655	0.679027	0.572221
O13	O	1.036939	0.180976	0.072246
O14	O	1.536939	0.680976	0.572246
Cu15	Cu	0.922168	0.180628	0.085406
Cu16	Cu	1.422168	0.680628	0.585406
Cu17	Cu	0.930309	0.172515	-0.085200
Cu18	Cu	1.430309	0.672515	0.414800
O19	O	0.916556	0.301471	0.072232
O20	O	1.416556	0.801471	0.572232
C21	C	0.782884	0.173091	0.000087
C22	C	1.282884	0.673091	0.500087
C23	C	0.695840	0.165614	0.000077
C24	C	1.195840	0.665614	0.500077
C25	C	0.645600	0.237750	0.000077
C26	C	1.145600	0.737750	0.500077
C27	C	0.563813	0.230720	0.000089
C28	C	1.063813	0.730720	0.500089
C29	C	0.532268	0.151555	0.000095
C30	C	1.032268	0.651555	0.500095
C31	C	0.582515	0.079414	0.000098
C32	C	1.082515	0.579414	0.500098
C33	C	0.664300	0.086445	0.000092
C34	C	1.164300	0.586445	0.500092
C35	C	0.288669	0.122418	0.000118
C36	C	0.788669	0.622418	0.500118
C37	C	0.206878	0.115393	0.000122
C38	C	0.706878	0.615393	0.500122
C39	C	0.188181	0.266700	0.000114
C40	C	0.688181	0.766700	0.500114
C41	C	0.269969	0.273723	0.000103
C42	C	0.769969	0.773723	0.500103
C43	C	0.320208	0.201582	0.000111
C44	C	0.820208	0.701582	0.500111
N45	N	0.448669	0.144368	0.000104
N46	N	0.948669	0.644368	0.500104
N47	N	0.403806	0.208770	0.000107
N48	N	0.903806	0.708770	0.500107
C49	C	0.931963	0.023872	0.000103
C50	C	1.431963	0.523872	0.500103
C51	C	0.930416	-0.069182	0.000098
C52	C	1.430416	0.430818	0.500098
C53	C	0.924861	-0.407301	0.000100
C54	C	1.424861	0.092699	0.500100
C55	C	0.839142	-0.365620	-0.000233
C56	C	1.339142	0.134380	0.499767
C57	C	0.840674	-0.268811	0.000092
C58	C	1.340674	0.231189	0.500092
C59	C	0.927617	-0.239556	0.000098
C60	C	1.427617	0.260444	0.500098
C61	C	0.965973	-0.273887	0.082482
C62	C	1.465973	0.226113	0.582482
C63	C	0.963816	-0.370663	0.082550
C64	C	1.463816	0.129337	0.582550
C65	C	0.973415	-0.378704	-0.081501
C66	C	1.473415	0.121296	0.418499
C67	C	0.973447	-0.281812	-0.082590
C68	C	1.473447	0.218188	0.417410
C69	C	0.929178	-0.144754	0.000100
C70	C	1.429178	0.355246	0.500100
C71	C	0.923301	-0.502103	0.000104
C72	C	1.423301	-0.002103	0.500104
C73	C	1.069593	0.180052	0.000117
C74	C	1.569593	0.680052	0.500117
C75	C	1.156637	0.187528	0.000121
C76	C	1.656637	0.687528	0.500121
C77	C	0.920514	0.329271	0.000101
C78	C	1.420514	0.829271	0.500101
C79	C	0.922061	0.422324	0.000101
C80	C	1.422061	0.922324	0.500101
N81	N	0.916448	0.186334	0.205401
N82	N	1.416448	0.686334	0.705401
N83	N	0.936036	0.166802	-0.205195
N84	N	1.436036	0.666802	0.294805
C85	C	0.967608	0.135164	0.250801
C86	C	1.467608	0.635164	0.750801
C87	C	0.963289	0.139488	0.341608
C88	C	1.463289	0.639488	0.841608
C89	C	0.907813	0.194986	0.387014
C90	C	1.407813	0.694986	0.887014
C91	C	0.856647	0.246157	0.341607
C92	C	1.356647	0.746157	0.841607
C93	C	0.860963	0.241829	0.250801
C94	C	1.360963	0.741829	0.750801
C95	C	0.889185	0.213646	0.658593
C96	C	1.389185	0.713646	1.158593
C97	C	0.884875	0.217972	0.749405
C98	C	1.384875	0.717972	1.249405
C99	C	0.991517	0.111301	0.749400
C100	C	1.491517	0.611301	1.249400
C101	C	0.995831	0.106981	0.658592
C102	C	1.495831	0.606981	1.158592
C103	C	0.944662	0.158150	0.613194
C104	C	1.444662	0.658150	1.113194
N105	N	0.903399	0.199408	0.479833
N106	N	1.403399	0.699408	0.979833
N107	N	0.949073	0.153722	0.520376
N108	N	1.449073	0.653722	1.020376
H109	H	0.522910	0.289461	0.000087
H110	H	1.022910	0.789461	0.500087
H111	H	0.329565	0.063675	0.000125
H112	H	0.829565	0.563675	0.500125
H113	H	0.147268	0.325432	0.000110
H114	H	0.647268	0.825432	0.500110
H115	H	0.671277	0.302214	0.000071
H116	H	1.171277	0.802214	0.500071
H117	H	0.556824	0.014957	0.000115
H118	H	1.056824	0.514957	0.500115
H119	H	1.012786	0.089976	0.213838
H120	H	1.512786	0.589976	0.713838
H121	H	0.839698	0.263168	0.786370
H122	H	1.339698	0.763168	1.286370
Cl123	Cl	0.784648	-0.224898	0.091413
Cl124	Cl	1.284648	0.275102	0.591413
H125	H	0.811474	0.291342	0.378581
H126	H	1.311474	0.791342	0.878581
Cl127	Cl	0.309619	0.373249	0.000090
Cl128	Cl	0.809619	0.873249	0.500090
H129	H	0.933677	-0.244555	0.143784
H130	H	1.433677	0.255445	0.643784
Cl131	Cl	1.055836	0.046976	0.806476
Cl132	Cl	1.555836	0.546976	1.306476
Cl133	Cl	0.824864	0.277973	0.601526
Cl134	Cl	1.324864	0.777973	1.101526
H135	H	0.819302	0.283495	0.213837
H136	H	1.319302	0.783495	0.713837
Cl137	Cl	0.930595	-0.246896	-0.176700
Cl138	Cl	1.430595	0.253104	0.323300
H139	H	0.705206	0.027704	0.000091
H140	H	1.205206	0.527704	0.500091
H141	H	0.807694	-0.389254	-0.059312
H142	H	1.307694	0.110746	0.440688
H143	H	0.181198	0.050923	0.000126
H144	H	0.681198	0.550923	0.500126
H145	H	0.802224	-0.384703	0.058509
H146	H	1.302224	0.115297	0.558509
Cl147	Cl	1.060718	-0.413678	0.088341
Cl148	Cl	1.560718	0.086322	0.588341
Cl149	Cl	0.793703	-0.232695	-0.091085
Cl150	Cl	1.293703	0.267305	0.408915
Cl151	Cl	0.934730	-0.417883	-0.177907
Cl152	Cl	1.434730	0.082117	0.322093
H153	H	0.930041	-0.388100	0.144129
H154	H	1.430041	0.111900	0.644129
H155	H	1.029701	-0.255341	0.085550
H156	H	1.529701	0.244659	0.585550
Cl157	Cl	1.071702	-0.251907	-0.090269
Cl158	Cl	1.571702	0.248093	0.409731
H159	H	1.036653	-0.406261	-0.082051
H160	H	1.536653	0.093739	0.417949
H161	H	1.004948	0.097821	0.378573
H162	H	1.504948	0.597821	0.878573
H163	H	1.041003	0.061791	0.621625
H164	H	1.541003	0.561791	1.121625
