data_functionalizedCrystal
_audit_creation_method	'MofGen! by Chris Wilmer'
_symmetry_space_group_name_H-M	'P1'
_symmetry_Int_Tables_number	1
_symmetry_cell_setting	triclinic
loop_
_symmetry_equiv_pos_as_xyz
  x,y,z
_cell_length_a	8.497374
_cell_length_b	17.077402
_cell_length_c	17.077404
_cell_angle_alpha	89.976892
_cell_angle_beta	89.996537
_cell_angle_gamma	90.012222
loop_
_atom_site_label
_atom_site_type_symbol
_atom_site_fract_x
_atom_site_fract_y
_atom_site_fract_z
Zn1	Zn	0.891988	-0.312640	-1.199930
Zn2	Zn	0.628173	-0.443874	-1.199874
Zn3	Zn	0.628207	-0.312627	-1.068699
Zn4	Zn	0.891897	-0.443868	-1.068630
O5	O	0.760066	-0.378252	-1.134283
O6	O	0.857016	-0.330056	-1.309770
O7	O	0.407415	-0.426461	-1.182479
O8	O	0.663251	-0.202782	-1.086159
O9	O	0.663193	-0.426474	-1.309729
O10	O	0.857049	-0.202791	-1.182574
O11	O	0.407440	-0.330034	-1.086105
O12	O	0.663162	-0.330028	-0.958843
O13	O	1.112671	-0.426463	-1.086042
O14	O	0.856894	-0.426450	-0.958792
O15	O	1.112738	-0.330050	-1.182508
O16	O	0.663104	-0.553720	-1.182412
O17	O	0.856861	-0.553716	-1.085988
C18	C	0.760003	-0.582200	-1.134208
C19	C	0.760029	-0.669450	-1.134247
C20	C	0.760023	-0.378238	-0.930336
C21	C	0.760042	-0.378251	-0.843086
C22	C	0.659248	-0.710416	-1.184506
C23	C	0.659289	-0.792397	-1.184545
C24	C	0.760103	-0.833409	-1.134319
C25	C	0.860895	-0.792437	-1.084058
C26	C	0.860861	-0.710458	-1.084024
C27	C	0.860955	-0.963307	-1.084130
C28	C	0.860986	-1.045291	-1.084163
C29	C	0.659382	-1.045246	-1.184651
C30	C	0.659349	-0.963267	-1.184618
C31	C	0.760139	-0.922300	-1.134355
C32	C	1.171547	-0.378253	-1.134278
C33	C	1.350191	-0.378262	-1.134279
C34	C	0.760111	-0.378267	-1.339028
C35	C	0.760130	-0.378273	-1.426277
C36	C	0.760164	-0.173508	-1.134381
C37	C	0.760206	-0.086258	-1.134422
C38	C	0.860756	-0.428533	-0.802090
C39	C	0.860781	-0.428535	-0.720109
C40	C	0.760083	-0.378257	-0.679126
C41	C	0.659364	-0.327969	-0.720128
C42	C	0.659348	-0.327964	-0.802107
C43	C	0.659402	-0.327985	-0.549258
C44	C	0.659416	-0.327991	-0.467273
C45	C	0.860835	-0.428556	-0.467260
C46	C	0.860819	-0.428551	-0.549239
C47	C	0.760098	-0.378263	-0.590235
H48	H	0.577222	-0.825748	-1.225471
C49	C	0.971716	-0.665391	-1.028740
H50	H	0.957271	-0.610694	-1.035918
H51	H	0.948545	-0.678872	-0.976012
H52	H	1.077743	-0.678797	-1.040196
C53	C	0.548457	-0.918154	-1.239865
H54	H	0.488446	-0.954292	-1.269810
H55	H	0.479656	-0.886211	-1.209854
H56	H	0.608872	-0.886136	-1.274029
C57	C	0.548496	-1.090305	-1.239930
H58	H	0.562957	-1.145003	-1.232762
H59	H	0.442483	-1.076896	-1.228468
H60	H	0.571658	-1.076826	-1.292664
H61	H	0.942751	-0.469478	-0.835452
C62	C	0.971470	-0.483894	-0.675017
H63	H	1.031396	-0.513857	-0.711166
H64	H	1.040359	-0.453969	-0.643030
H65	H	0.910906	-0.518036	-0.643045
C66	C	0.548667	-0.272679	-0.422193
H67	H	0.488696	-0.242720	-0.458348
H68	H	0.479822	-0.302649	-0.390196
H69	H	0.609171	-0.238530	-0.390231
C70	C	0.548599	-0.272662	-0.675053
H71	H	0.488626	-0.242709	-0.711212
H72	H	0.479758	-0.302635	-0.643057
H73	H	0.609088	-0.238507	-0.643090
C74	C	0.548566	-0.272652	-0.847202
H75	H	0.488587	-0.242713	-0.811055
H76	H	0.609036	-0.238497	-0.879197
H77	H	0.479705	-0.302625	-0.879168
H78	H	0.577147	-0.677029	-1.225403
C79	C	0.971588	-0.483892	-0.422172
H80	H	1.031529	-0.513849	-0.458321
H81	H	1.040462	-0.453945	-0.390197
H82	H	0.911068	-0.518042	-0.390188
C83	C	0.971898	-1.090404	-1.028926
H84	H	1.031939	-1.054266	-0.998996
H85	H	0.911515	-1.122427	-0.994759
H86	H	1.040694	-1.122343	-1.058953
C87	C	0.971827	-0.918245	-1.028845
H88	H	1.031865	-0.954410	-0.998932
H89	H	1.040605	-0.886227	-1.058831
H90	H	0.911397	-0.886306	-0.994652
H91	H	0.942986	-0.825836	-1.043166
H92	H	0.942807	-0.469495	-0.582606
H93	H	0.577398	-0.287028	-0.582634
