data_functionalizedCrystal
_audit_creation_method	'MofGen! by Chris Wilmer'
_symmetry_space_group_name_H-M	'P1'
_symmetry_Int_Tables_number	1
_symmetry_cell_setting	triclinic
loop_
_symmetry_equiv_pos_as_xyz
  x,y,z
_cell_length_a	38.067023
_cell_length_b	38.077490
_cell_length_c	38.067077
_cell_angle_alpha	59.997704
_cell_angle_beta	89.998734
_cell_angle_gamma	60.000154
loop_
_atom_site_label
_atom_site_type_symbol
_atom_site_fract_x
_atom_site_fract_y
_atom_site_fract_z
O1	O	-0.299412	-0.251366	0.010448
O2	O	-0.248328	-0.179451	-0.010403
O3	O	-0.248326	-0.251365	0.061532
O4	O	-0.299414	-0.179451	-0.061486
O5	O	-0.189899	-0.309776	0.061532
O6	O	-0.189901	-0.237861	-0.010403
O7	O	-0.240985	-0.309777	0.010448
Zn8	Zn	-0.206167	-0.283093	0.000023
Zn9	Zn	-0.283146	-0.206135	0.000023
O10	O	-0.240987	-0.237862	-0.061487
C11	C	-0.128227	-0.039355	-0.025248
C12	C	-0.085950	-0.060389	-0.025544
C13	C	-0.128229	-0.102948	-0.025252
C14	C	-0.085951	-0.123885	-0.025548
C15	C	-0.064614	-0.102951	-0.025248
C16	C	-0.149467	-0.060386	-0.025548
C17	C	-0.191984	0.024217	-0.020086
C18	C	-0.212145	0.064391	-0.016827
C19	C	-0.190407	0.084538	-0.015189
C20	C	-0.212265	0.128095	-0.011653
C21	C	-0.148508	0.064518	-0.016815
C22	C	-0.128349	0.024348	-0.020076
C23	C	-0.150087	0.004198	-0.021710
C24	C	0.004140	-0.107949	-0.020081
C25	C	0.047584	-0.131226	-0.016822
C26	C	0.069372	-0.174739	-0.015188
C27	C	0.116478	-0.199981	-0.011652
C28	C	0.047720	-0.194979	-0.016818
C29	C	0.004278	-0.171702	-0.020080
C30	C	-0.017511	-0.128189	-0.021709
C31	C	-0.191986	-0.107941	-0.020095
C32	C	-0.212147	-0.131219	-0.016834
C33	C	-0.190411	-0.174732	-0.015200
C34	C	-0.212269	-0.199971	-0.011669
C35	C	-0.148514	-0.194974	-0.016824
C36	C	-0.128351	-0.171700	-0.020083
C37	C	-0.150089	-0.128183	-0.021719
C38	C	-0.463698	-0.431923	0.031681
C39	C	-0.442362	-0.474487	0.031979
C40	C	-0.400086	-0.431922	0.031678
C41	C	-0.378847	-0.474485	0.031976
C42	C	-0.400085	-0.495519	0.031681
C43	C	-0.442363	-0.410986	0.031977
C44	C	-0.617099	-0.317399	0.020167
C45	C	-0.660541	-0.293986	0.016912
C46	C	-0.682333	-0.314084	0.015279
C47	C	-0.729438	-0.288695	0.011741
C48	C	-0.660680	-0.357598	0.016905
C49	C	-0.617240	-0.381011	0.020166
C50	C	-0.595450	-0.360909	0.021797
C51	C	-0.361240	-0.637368	0.020169
C52	C	-0.341218	-0.677543	0.016913
C53	C	-0.299325	-0.697695	0.015276
C54	C	-0.277614	-0.741250	0.011740
C55	C	-0.277453	-0.677671	0.016899
C56	C	-0.297472	-0.637503	0.020162
C57	C	-0.339370	-0.617352	0.021794
C58	C	-0.361243	-0.317391	0.020154
C59	C	-0.341223	-0.293973	0.016891
C60	C	-0.299329	-0.314068	0.015255
C61	C	-0.277621	-0.288678	0.011714
C62	C	-0.277458	-0.357579	0.016879
C63	C	-0.297480	-0.380994	0.020141
C64	C	-0.339372	-0.360898	0.021783
C65	C	-0.548347	-0.386298	0.025329
C66	C	-0.510801	-0.406535	0.028146
C67	C	-0.378379	-0.406531	0.028139
C68	C	-0.361077	-0.386292	0.025320
C69	C	-0.378378	-0.539074	0.028145
C70	C	-0.361075	-0.573793	0.025328
C71	C	-0.400366	-0.057316	-0.406377
C72	C	-0.442644	-0.014753	-0.427617
C73	C	-0.400367	-0.057315	-0.342764
C74	C	-0.442645	-0.014752	-0.364100
C75	C	-0.463980	0.006280	-0.406378
C76	C	-0.379128	-0.078252	-0.364099
C77	C	-0.297324	-0.171843	-0.445218
C78	C	-0.277160	-0.195257	-0.465240
C79	C	-0.298897	-0.175161	-0.507135
C80	C	-0.277039	-0.200550	-0.528843
C81	C	-0.340797	-0.131647	-0.529008
C82	C	-0.360956	-0.108233	-0.508988
C83	C	-0.339217	-0.128333	-0.467092
C84	C	-0.617383	0.148127	-0.509421
C85	C	-0.660825	0.188302	-0.529585
C86	C	-0.682620	0.208455	-0.507851
C87	C	-0.729723	0.252009	-0.529707
C88	C	-0.660967	0.188432	-0.465950
C89	C	-0.617524	0.148265	-0.445790
C90	C	-0.595735	0.128112	-0.467530
C91	C	-0.297326	-0.171842	-0.189359
C92	C	-0.277164	-0.195259	-0.145915
C93	C	-0.298901	-0.175162	-0.124123
C94	C	-0.277044	-0.200551	-0.077017
C95	C	-0.340800	-0.131651	-0.145775
C96	C	-0.360960	-0.108238	-0.189218
C97	C	-0.339217	-0.128335	-0.211008
C98	C	-0.361081	-0.102944	-0.445385
C99	C	-0.378507	-0.082705	-0.428083
C100	C	-0.378507	-0.082704	-0.295660
C101	C	-0.361082	-0.102942	-0.258114
C102	C	-0.511083	0.049835	-0.428238
C103	C	-0.548630	0.084554	-0.445664
O104	O	0.255029	-0.309790	0.010469
O105	O	0.132012	-0.237874	-0.010380
O106	O	0.203941	-0.309792	0.061554
O107	O	0.183100	-0.237872	-0.061465
O108	O	0.203942	-0.251384	0.061558
O109	O	0.132013	-0.179466	-0.010377
O110	O	0.255030	-0.251382	0.010473
Zn111	Zn	0.193522	-0.206151	0.000049
Zn112	Zn	0.193520	-0.283106	0.000044
O113	O	0.183101	-0.179464	-0.061461
O114	O	-0.240980	0.244491	0.010471
O115	O	-0.189894	0.142351	-0.010378
O116	O	-0.189896	0.142345	0.061556
O117	O	-0.240977	0.244497	-0.061463
O118	O	-0.248324	0.142347	0.061552
O119	O	-0.248322	0.142354	-0.010382
O120	O	-0.299407	0.244493	0.010467
Zn121	Zn	-0.283141	0.193424	0.000042
Zn122	Zn	-0.206160	0.193421	0.000047
O123	O	-0.299405	0.244499	-0.061467
O124	O	-0.868274	0.368411	-0.558424
O125	O	-0.745257	0.266268	-0.507336
O126	O	-0.817186	0.266266	-0.507334
O127	O	-0.796344	0.368414	-0.558426
O128	O	-0.817185	0.266264	-0.565760
O129	O	-0.745255	0.266267	-0.565762
O130	O	-0.868272	0.368410	-0.616850
Zn131	Zn	-0.806764	0.317338	-0.600583
Zn132	Zn	-0.806765	0.317340	-0.523604
O133	O	-0.796342	0.368413	-0.616852
O134	O	-0.248325	-0.251366	-0.616562
O135	O	-0.299411	-0.179454	-0.565477
O136	O	-0.299410	-0.251368	-0.565474
O137	O	-0.248326	-0.179452	-0.616565
O138	O	-0.240982	-0.309779	-0.507046
O139	O	-0.240984	-0.237866	-0.507050
O140	O	-0.189898	-0.309777	-0.558134
Zn141	Zn	-0.206164	-0.283096	-0.523316
Zn142	Zn	-0.283145	-0.206136	-0.600296
O143	O	-0.189899	-0.237864	-0.558138
C144	C	-0.064616	-0.449882	0.321773
C145	C	-0.085952	-0.428850	0.343012
C146	C	-0.128230	-0.386287	0.258159
C147	C	-0.149469	-0.365351	0.279495
C148	C	-0.128229	-0.386287	0.321772
C149	C	-0.085952	-0.428850	0.279495
C150	C	0.004137	-0.513456	0.321608
C151	C	0.047581	-0.553630	0.341633
C152	C	0.069370	-0.573779	0.383524
C153	C	0.116475	-0.617338	0.405237
C154	C	0.047719	-0.553761	0.405398
C155	C	0.004276	-0.513590	0.385375
C156	C	-0.017513	-0.493437	0.343480
C157	C	-0.128064	-0.381291	0.385528
C158	C	-0.148088	-0.358015	0.405689
C159	C	-0.189980	-0.314501	0.383952
C160	C	-0.211692	-0.289261	0.405809
C161	C	-0.211854	-0.294260	0.342053
C162	C	-0.191832	-0.317536	0.321894
C163	C	-0.149937	-0.361050	0.343631
C164	C	-0.128065	-0.381291	0.189406
C165	C	-0.148087	-0.358011	0.145960
C166	C	-0.189978	-0.314497	0.124170
C167	C	-0.211691	-0.289256	0.077065
C168	C	-0.211851	-0.294255	0.145820
C169	C	-0.191830	-0.317532	0.189264
C170	C	-0.149937	-0.361049	0.211055
C171	C	0.218795	-0.386318	0.321799
C172	C	0.219090	-0.428881	0.343036
C173	C	0.218796	-0.386313	0.258183
C174	C	0.219092	-0.428876	0.279518
C175	C	0.218793	-0.449911	0.321795
C176	C	0.219094	-0.365380	0.279521
C177	C	0.213634	-0.317421	0.321636
C178	C	0.210376	-0.294010	0.341662
C179	C	0.208740	-0.314109	0.383554
C180	C	0.205205	-0.288726	0.405268
C181	C	0.210366	-0.357622	0.405427
C182	C	0.213626	-0.381034	0.385403
C183	C	0.215258	-0.360931	0.343507
C184	C	0.213628	-0.513486	0.385550
C185	C	0.210368	-0.553661	0.405710
C186	C	0.208734	-0.573807	0.383972
C187	C	0.205197	-0.617365	0.405828
C188	C	0.210362	-0.553786	0.342073
C189	C	0.213624	-0.513615	0.321915
C190	C	0.215255	-0.493465	0.343653
C191	C	0.213638	-0.317412	0.189431
C192	C	0.210375	-0.293992	0.145985
C193	C	0.208741	-0.314087	0.124194
C194	C	0.205208	-0.288698	0.077089
C195	C	0.210365	-0.357596	0.145843
C196	C	0.213625	-0.381016	0.189287
C197	C	0.215261	-0.360922	0.211080
C198	C	-0.128228	-0.102999	0.321786
C199	C	-0.085950	-0.123940	0.343026
C200	C	-0.128227	-0.039396	0.258176
C201	C	-0.085949	-0.060433	0.279514
C202	C	-0.064613	-0.103002	0.321790
C203	C	-0.149467	-0.060430	0.279509
C204	C	-0.191985	-0.107991	0.321615
C205	C	-0.212148	-0.131268	0.341636
C206	C	-0.190411	-0.174788	0.383526
C207	C	-0.212269	-0.200030	0.405235
C208	C	-0.148512	-0.195034	0.405402
C209	C	-0.128351	-0.171757	0.385383
C210	C	-0.150088	-0.128237	0.343489
C211	C	0.004140	-0.171911	0.385546
C212	C	0.047584	-0.195328	0.405709
C213	C	0.069374	-0.175229	0.383974
C214	C	0.116479	-0.200619	0.405833
C215	C	0.047722	-0.131710	0.342077
C216	C	0.004280	-0.108293	0.321916
C217	C	-0.017510	-0.128395	0.343651
C218	C	-0.191984	0.024189	0.189422
C219	C	-0.212144	0.064366	0.145977
C220	C	-0.190407	0.084517	0.124191
C221	C	-0.212265	0.128082	0.077087
C222	C	-0.148510	0.064494	0.145842
C223	C	-0.128348	0.024316	0.189286
C224	C	-0.150087	0.004165	0.211074
C225	C	0.161897	0.006009	-0.406354
C226	C	0.161600	-0.015021	-0.427594
C227	C	0.161894	-0.057588	-0.342741
C228	C	0.161597	-0.078522	-0.364078
C229	C	0.161896	-0.057584	-0.406356
C230	C	0.161598	-0.015025	-0.364076
C231	C	0.173418	0.147853	-0.445193
C232	C	0.176676	0.188028	-0.465214
C233	C	0.178312	0.208182	-0.507109
C234	C	0.181853	0.251736	-0.528817
C235	C	0.176687	0.188162	-0.528983
C236	C	0.173424	0.147995	-0.508964
C237	C	0.171789	0.127840	-0.467067
C238	C	0.173414	-0.107925	-0.509401
C239	C	0.176670	-0.131195	-0.529566
C240	C	0.178305	-0.174712	-0.507832
C241	C	0.181842	-0.199951	-0.529689
C242	C	0.176678	-0.194956	-0.465932
C243	C	0.173415	-0.171682	-0.445770
C244	C	0.171785	-0.128164	-0.467510
C245	C	0.173406	-0.107944	-0.189336
C246	C	0.176666	-0.131222	-0.145891
C247	C	0.178299	-0.174739	-0.124100
C248	C	0.181836	-0.199982	-0.076994
C249	C	0.176676	-0.194979	-0.145753
C250	C	0.173417	-0.171701	-0.189195
C251	C	0.171779	-0.128180	-0.210985
C252	C	0.168255	0.084282	-0.445361
C253	C	0.165436	0.049564	-0.428059
C254	C	0.165429	-0.082827	-0.295637
C255	C	0.168246	-0.102944	-0.258091
C256	C	0.165432	-0.082819	-0.428217
C257	C	0.168250	-0.102933	-0.445644
O258	O	0.183071	-0.237904	0.492984
O259	O	0.203929	-0.309818	0.441900
O260	O	0.131993	-0.237903	0.441891
O261	O	0.255007	-0.309819	0.492993
O262	O	0.132000	-0.179493	0.383466
O263	O	0.203936	-0.251408	0.383475
O264	O	0.183078	-0.179494	0.434559
Zn265	Zn	0.193508	-0.206177	0.399741
Zn266	Zn	0.193499	-0.283135	0.476718
O267	O	0.255014	-0.251409	0.434569
C268	C	-0.463698	0.568132	-0.406349
C269	C	-0.442362	0.589070	-0.427585
C270	C	-0.400084	0.504526	-0.342735
C271	C	-0.378845	0.525561	-0.364068
C272	C	-0.400084	0.568130	-0.406344
C273	C	-0.442362	0.525563	-0.364072
C274	C	-0.617102	0.618488	-0.445200
C275	C	-0.660545	0.641764	-0.465223
C276	C	-0.682337	0.685287	-0.507117
C277	C	-0.729443	0.710531	-0.528827
C278	C	-0.660684	0.705530	-0.528986
C279	C	-0.617243	0.682251	-0.508965
C280	C	-0.595452	0.638728	-0.467069
C281	C	-0.361238	0.682666	-0.509374
C282	C	-0.341215	0.706081	-0.529534
C283	C	-0.299321	0.685984	-0.507797
C284	C	-0.277610	0.711371	-0.529649
C285	C	-0.277449	0.642464	-0.465898
C286	C	-0.297468	0.619046	-0.445742
C287	C	-0.339367	0.639154	-0.467484
C288	C	-0.361239	0.362658	-0.189337
C289	C	-0.341219	0.322481	-0.145894
C290	C	-0.299323	0.302324	-0.124100
C291	C	-0.277614	0.258762	-0.076995
C292	C	-0.277452	0.322348	-0.145748
C293	C	-0.297475	0.362526	-0.189190
C294	C	-0.339368	0.382675	-0.210982
C295	C	-0.548348	0.613491	-0.445361
C296	C	-0.510802	0.593373	-0.428057
C297	C	-0.378377	0.460965	-0.295632
C298	C	-0.361074	0.426240	-0.258087
C299	C	-0.378376	0.593521	-0.428200
C300	C	-0.361073	0.613760	-0.445623
H301	H	-0.209690	-0.072507	-0.021428
C302	C	-0.465506	0.501784	-0.340933
N303	N	-0.482937	0.483875	-0.323504
C304	C	-0.257939	-0.246389	0.318142
N305	N	-0.292650	-0.210333	0.300131
C306	C	-0.365279	-0.699563	0.015125
N307	N	-0.383403	-0.716148	0.013778
C308	C	-0.331919	-0.498265	0.032623
N309	N	-0.296574	-0.516177	0.033111
H310	H	0.172074	-0.072508	-0.207074
C311	C	0.208577	-0.575679	0.451797
N312	N	0.207227	-0.592266	0.486510
C313	C	-0.062811	-0.170210	0.389955
N314	N	-0.045384	-0.205059	0.425301
H315	H	-0.209689	0.007785	0.207161
H316	H	-0.279663	0.378826	-0.206814
C317	C	-0.258230	0.086407	-0.015037
N318	N	-0.292944	0.102992	-0.013690
H319	H	-0.243341	-0.694082	0.015569
H320	H	0.214971	-0.301048	0.207173
H321	H	-0.459493	-0.492089	0.032459
H322	H	0.178001	0.204324	-0.447401
H323	H	-0.013352	-0.188180	-0.021410
C324	C	0.178487	0.210333	-0.575066
N325	N	0.179845	0.227031	-0.609776
C326	C	-0.593426	-0.428870	0.021949
N327	N	-0.575491	-0.464915	0.023288
C328	C	-0.062812	-0.452632	0.256356
N329	N	-0.045384	-0.470544	0.238928
C330	C	-0.231076	-0.243119	-0.122101
N331	N	-0.196360	-0.279167	-0.104165
H332	H	-0.279661	-0.621204	0.021484
C333	C	-0.019827	-0.060081	-0.021879
N334	N	-0.037878	-0.024027	-0.023231
C335	C	0.215437	-0.295310	0.275553
N336	N	0.216792	-0.278653	0.240842
C337	C	-0.407323	-0.615209	0.021972
N338	N	-0.442032	-0.598519	0.023330
H339	H	-0.279669	-0.416421	0.021464
H340	H	-0.395069	-0.072803	-0.526801
H341	H	-0.246258	-0.114786	0.323819
H342	H	0.214945	-0.416443	0.206912
C343	C	-0.365279	0.300456	-0.122084
N344	N	-0.383402	0.283865	-0.104151
C345	C	0.160946	-0.124789	-0.340940
N346	N	0.160453	-0.159634	-0.323513
C347	C	-0.231366	0.300177	-0.121774
N348	N	-0.196655	0.283478	-0.103717
H349	H	-0.013600	-0.188280	0.403247
H350	H	-0.359026	0.741514	-0.563647
H351	H	-0.678172	0.625279	-0.447413
C352	C	-0.215898	0.002054	-0.021883
N353	N	-0.233909	-0.014643	-0.023233
C354	C	0.071394	-0.575646	0.317569
N355	N	0.089331	-0.592230	0.299445
H356	H	-0.395352	0.379063	-0.207079
H357	H	0.065207	-0.230760	0.439822
H358	H	-0.678451	0.204601	-0.563700
C359	C	0.071692	-0.109592	0.318176
N360	N	0.089742	-0.092927	0.300175
C361	C	-0.124600	-0.242913	0.451483
N362	N	-0.106588	-0.278977	0.486191
C363	C	0.219733	-0.452662	0.389964
N364	N	0.220214	-0.470572	0.425308
H365	H	-0.599644	0.131723	-0.527126
C366	C	-0.365284	-0.246112	0.015104
N367	N	-0.383406	-0.210064	0.013762
H368	H	-0.243345	-0.373941	0.015546
C369	C	-0.082260	0.002292	0.213102
N370	N	-0.047547	-0.014296	0.231041
C371	C	0.208587	-0.246147	0.317600
N372	N	0.207240	-0.210096	0.299477
C373	C	-0.124596	0.086662	0.121875
N374	N	-0.106587	0.103362	0.103821
H375	H	-0.184204	-0.331097	0.262361
H376	H	0.161122	0.002585	-0.462332
C377	C	-0.196396	-0.036645	0.256368
N378	N	-0.231742	-0.018729	0.238938
H379	H	0.161154	0.002555	-0.346935
C380	C	0.208564	-0.379729	0.451511
N381	N	0.207206	-0.396381	0.486222
H382	H	-0.130813	-0.230410	-0.015492
H383	H	0.214959	-0.497084	0.403255
C384	C	-0.684649	-0.379710	0.015122
N385	N	-0.702702	-0.396369	0.013782
H386	H	-0.209643	-0.301055	0.287780
C387	C	-0.257936	-0.246385	0.121849
N388	N	-0.292648	-0.210331	0.103793
C389	C	-0.684940	0.210597	-0.442040
N390	N	-0.703000	0.227288	-0.424028
H391	H	0.214954	-0.497319	0.287802
C392	C	-0.332200	-0.124521	-0.340957
N393	N	-0.296855	-0.159370	-0.323527
H394	H	0.214949	-0.416463	0.403213
C395	C	0.208566	-0.379702	0.121870
N396	N	0.207214	-0.396352	0.103813
H397	H	0.177999	-0.114746	-0.128261
H398	H	-0.068820	-0.042830	0.262384
C399	C	0.208595	-0.246135	0.122177
N400	N	0.207254	-0.210088	0.104243
H401	H	-0.599897	0.131968	-0.411676
C402	C	-0.407046	-0.060374	-0.213034
N403	N	-0.441759	-0.024322	-0.230972
C404	C	0.178470	-0.242849	-0.121782
N405	N	0.179820	-0.278902	-0.103729
H406	H	0.172095	-0.188183	-0.206823
H407	H	0.172101	0.131697	-0.526776
C408	C	-0.258232	0.086390	0.122165
N409	N	-0.292946	0.102980	0.104227
H410	H	0.219577	-0.446480	0.262387
H411	H	0.172084	-0.072490	-0.527106
C412	C	-0.465784	0.009028	-0.474545
N413	N	-0.483214	0.026938	-0.509889
H414	H	-0.599364	0.583049	-0.411088
H415	H	0.065466	-0.570172	0.439511
C416	C	-0.124023	-0.380283	0.451775
N417	N	-0.105899	-0.397053	0.486488
C418	C	0.178474	-0.242824	-0.442023
N419	N	0.179829	-0.278880	-0.424015
C420	C	-0.273409	-0.193954	-0.213326
N421	N	-0.255398	-0.210609	-0.231378
H422	H	-0.599615	0.698734	-0.526774
H423	H	-0.599361	-0.301028	0.021496
H424	H	0.172088	-0.188165	-0.411657
H425	H	0.177997	-0.114711	-0.563680
C426	C	-0.465505	-0.364715	0.032620
N427	N	-0.482934	-0.329865	0.033104
H428	H	-0.358500	-0.115288	-0.128030
H429	H	0.209032	-0.570197	0.324375
C430	C	0.071693	-0.242849	-0.015020
N431	N	0.089748	-0.278904	-0.013665
H432	H	-0.094236	0.008051	-0.021402
C433	C	-0.684657	0.753404	-0.575068
N434	N	-0.702714	0.789464	-0.609777
H435	H	-0.344108	0.507954	-0.346935
C436	C	-0.062806	-0.170163	-0.026180
N437	N	-0.045371	-0.205022	-0.026652
H438	H	-0.459773	0.002849	-0.346970
H439	H	-0.279619	-0.188213	-0.411105
H440	H	-0.243046	-0.230686	-0.447428
C441	C	-0.215893	-0.295267	0.213079
N442	N	-0.234018	-0.278498	0.231017
C443	C	0.071396	-0.108959	-0.015030
N444	N	0.089334	-0.092189	-0.013680
H445	H	-0.130275	-0.374498	0.128337
C446	C	0.171618	0.125689	-0.399108
N447	N	0.170262	0.108994	-0.364397
C448	C	-0.407321	0.704779	-0.533295
N449	N	-0.442030	0.721432	-0.551312
C450	C	-0.258233	-0.108951	-0.015046
N451	N	-0.292946	-0.092180	-0.013697
H452	H	-0.013347	-0.072862	0.287802
C453	C	-0.364704	-0.109544	-0.575091
N454	N	-0.382713	-0.092895	-0.609801
H455	H	-0.243335	0.626096	-0.448202
C456	C	-0.062811	-0.452631	0.389940
N457	N	-0.045382	-0.470542	0.425285
H458	H	-0.094238	-0.188182	-0.021409
C459	C	-0.465504	0.635346	-0.474511
N460	N	-0.482933	0.670202	-0.509854
C461	C	-0.273408	0.571178	-0.399656
N462	N	-0.255286	0.535125	-0.364942
H463	H	-0.395356	-0.301022	0.021487
H464	H	-0.068822	-0.042784	-0.026023
H465	H	-0.130811	0.080929	-0.015481
C466	C	-0.684357	-0.246120	0.015118
N467	N	-0.702295	-0.210066	0.013765
H468	H	-0.093954	-0.416726	0.207147
H469	H	-0.184205	-0.042780	-0.026030
H470	H	-0.013351	-0.497292	0.403186
H471	H	-0.013602	-0.497051	0.287496
H472	H	-0.093952	-0.416724	0.403232
H473	H	0.219572	-0.331129	0.262394
H474	H	-0.094237	-0.188241	0.403196
H475	H	-0.209689	-0.072554	0.287504
