data_functionalizedCrystal
_audit_creation_method	'MofGen! by Chris Wilmer'
_symmetry_space_group_name_H-M	'P1'
_symmetry_Int_Tables_number	1
_symmetry_cell_setting	triclinic
loop_
_symmetry_equiv_pos_as_xyz
  x,y,z
_cell_length_a	16.959455
_cell_length_b	13.897441
_cell_length_c	16.959454
_cell_angle_alpha	90.027967
_cell_angle_beta	89.982978
_cell_angle_gamma	89.979236
loop_
_atom_site_label
_atom_site_type_symbol
_atom_site_fract_x
_atom_site_fract_y
_atom_site_fract_z
Zn1	Zn	1.208434	-0.545400	0.314721
Zn2	Zn	1.208342	-0.384108	0.446916
Zn3	Zn	1.076248	-0.384118	0.314748
Zn4	Zn	1.076227	-0.545361	0.446854
O5	O	1.142313	-0.464747	0.380810
O6	O	1.319033	-0.524016	0.332271
O7	O	1.190789	-0.249128	0.429421
O8	O	1.093830	-0.405532	0.204134
O9	O	1.318965	-0.405516	0.429394
O10	O	1.190946	-0.524025	0.204113
O11	O	1.093740	-0.249135	0.332318
O12	O	0.965634	-0.405495	0.332258
O13	O	1.093795	-0.680348	0.429289
O14	O	0.965619	-0.523959	0.429316
O15	O	1.190927	-0.680376	0.332211
O16	O	1.190769	-0.405479	0.557519
O17	O	1.093705	-0.523950	0.557473
C18	C	0.936946	-0.464725	0.380784
C19	C	0.849090	-0.464738	0.380792
C20	C	0.477598	-0.403191	0.330231
C21	C	0.477631	-0.526357	0.431454
C22	C	0.560177	-0.526352	0.431443
C23	C	0.601437	-0.464763	0.380825
C24	C	0.560151	-0.403181	0.330219
C25	C	0.601468	-0.587926	0.482054
C26	C	0.684019	-0.587922	0.482045
C27	C	0.725281	-0.526338	0.431423
C28	C	0.683990	-0.464754	0.380814
C29	C	0.725251	-0.403165	0.330197
C30	C	0.683961	-0.341586	0.279583
C31	C	0.601413	-0.341597	0.279597
C32	C	0.807830	-0.526326	0.431409
C33	C	0.807804	-0.403156	0.330186
C34	C	1.142369	-0.716340	0.380740
C35	C	1.142393	-0.823554	0.380710
C36	C	1.142414	-1.019849	0.380657
C37	C	1.142400	-0.910616	0.380689
C38	C	1.348481	-0.464769	0.380837
C39	C	1.436337	-0.464779	0.380848
C40	C	1.142246	-0.464730	0.586176
C41	C	1.142290	-0.464755	0.674033
C42	C	1.142302	-0.214132	0.380822
C43	C	1.142431	-0.106919	0.380629
C44	C	1.142401	-0.464784	0.174642
C45	C	1.142438	-0.464800	0.086785
C46	C	1.091845	-0.526428	1.045514
C47	C	1.193001	-0.403163	1.045502
C48	C	1.192973	-0.403154	0.962956
C49	C	1.142380	-0.464782	0.921686
C50	C	1.091814	-0.526419	0.962961
C51	C	1.243532	-0.341512	0.921674
C52	C	1.243506	-0.341500	0.839124
C53	C	1.192916	-0.403133	0.797852
C54	C	1.142349	-0.464773	0.839132
C55	C	1.091755	-0.526401	0.797862
C56	C	1.041192	-0.588047	0.839141
C57	C	1.041224	-0.588053	0.921689
C58	C	1.192884	-0.403128	0.715303
C59	C	1.091725	-0.526392	0.715308
H60	H	0.567788	-0.291461	0.238392
O61	O	1.037309	-0.592906	1.090038
H62	H	1.050828	-0.668625	1.074154
H63	H	1.050528	-0.576581	0.681711
O64	O	0.433128	-0.592761	0.486060
H65	H	0.475707	-0.635570	0.521256
O66	O	0.728547	-0.654352	0.536622
H67	H	0.766135	-0.611101	0.576795
O68	O	0.986624	-0.654518	0.794626
H69	H	0.995103	-0.644152	0.730291
O70	O	0.728475	-0.275158	0.224997
H71	H	0.712605	-0.199427	0.238485
O72	O	0.852307	-0.336716	0.275600
H73	H	0.809726	-0.293893	0.240418
H74	H	0.443976	-0.353057	0.289020
O75	O	0.986675	-0.654519	0.966208
H76	H	0.995186	-0.644157	1.030542
O77	O	1.247590	-0.336721	1.090009
H78	H	1.239126	-0.347095	1.154345
H79	H	0.567868	-0.638061	0.523269
O80	O	1.298127	-0.275078	0.966183
H81	H	1.289670	-0.285464	1.030519
O82	O	0.852359	-0.592759	0.485976
H83	H	0.916693	-0.582413	0.477461
O84	O	1.298048	-0.275027	0.794602
H85	H	1.333238	-0.232182	0.837169
O86	O	1.247415	-0.336651	0.670778
H87	H	1.282602	-0.293801	0.713344
