data_functionalizedCrystal
_audit_creation_method	'MofGen! by Chris Wilmer'
_symmetry_space_group_name_H-M	'P1'
_symmetry_Int_Tables_number	1
_symmetry_cell_setting	triclinic
loop_
_symmetry_equiv_pos_as_xyz
  x,y,z
_cell_length_a	12.827893
_cell_length_b	13.897448
_cell_length_c	12.827885
_cell_angle_alpha	90.032276
_cell_angle_beta	90.019272
_cell_angle_gamma	90.017663
loop_
_atom_site_label
_atom_site_type_symbol
_atom_site_fract_x
_atom_site_fract_y
_atom_site_fract_z
Zn1	Zn	1.597653	-0.383969	0.590831
Zn2	Zn	1.597540	-0.545295	0.416083
Zn3	Zn	1.422894	-0.384016	0.416104
Zn4	Zn	1.422873	-0.545224	0.590783
O5	O	1.510240	-0.464626	0.503450
O6	O	1.743874	-0.405380	0.567661
O7	O	1.574335	-0.523951	0.269850
O8	O	1.446133	-0.249028	0.439311
O9	O	1.743791	-0.523905	0.439275
O10	O	1.574527	-0.248994	0.567681
O11	O	1.446023	-0.405460	0.269865
O12	O	1.276655	-0.405390	0.439265
O13	O	1.446096	-0.523783	0.737026
O14	O	1.276639	-0.523829	0.567601
O15	O	1.574506	-0.405310	0.737060
O16	O	1.574314	-0.680267	0.439229
O17	O	1.445986	-0.680215	0.567580
C18	C	1.238730	-0.464607	0.503430
C19	C	1.122577	-0.464623	0.503447
C20	C	1.070812	-0.523321	0.566853
C21	C	0.950762	-0.523338	0.566872
C22	C	1.510164	-0.715240	0.503420
C23	C	1.510227	-0.822454	0.503442
C24	C	1.510336	-1.018749	0.503508
C25	C	1.510272	-0.909517	0.503474
C26	C	1.782810	-0.464645	0.503471
C27	C	1.898963	-0.464654	0.503480
C28	C	1.510311	-0.464533	0.776021
C29	C	1.510341	-0.464494	0.892174
C30	C	1.510345	-0.213033	0.503504
C31	C	1.510390	-0.105819	0.503526
C32	C	1.510229	-0.464649	0.231940
C33	C	1.510401	-0.464416	0.115788
C34	C	1.573890	-0.405858	0.943976
C35	C	1.573923	-0.405816	1.064026
H36	H	0.906245	-0.573595	0.621154
C37	C	0.959086	-0.396756	0.430136
C38	C	0.944121	-0.404488	0.311312
C39	C	1.004253	-0.336590	0.237968
C40	C	1.079350	-0.260962	0.283449
C41	C	1.094318	-0.253228	0.402280
C42	C	1.034186	-0.321125	0.475623
H43	H	0.888527	-0.460475	0.277638
H44	H	0.993172	-0.342316	0.150002
H45	H	1.123863	-0.210701	0.229156
H46	H	1.149912	-0.197240	0.435953
H47	H	1.045267	-0.315399	0.563590
C48	C	1.436870	-0.532274	0.952316
C49	C	1.482209	-0.607917	1.027366
C50	C	1.408735	-0.675700	1.087504
C51	C	1.289922	-0.667838	1.072593
C52	C	1.244577	-0.592191	0.997540
C53	C	1.318051	-0.524409	0.937401
H54	H	1.570166	-0.613740	1.038407
H55	H	1.442303	-0.731698	1.143064
H56	H	1.235532	-0.718014	1.117111
H57	H	1.156619	-0.586369	0.986499
H58	H	1.284483	-0.468410	0.881842
H59	H	1.115371	-0.573559	0.621128
C60	C	1.647362	-0.338077	0.883836
C61	C	1.766174	-0.345939	0.898750
C62	C	1.839649	-0.278155	0.838614
C63	C	1.794312	-0.202510	0.763565
C64	C	1.675493	-0.194645	0.748648
C65	C	1.602018	-0.262429	0.808784
H66	H	1.799741	-0.401939	0.954308
H67	H	1.927607	-0.283978	0.849657
H68	H	1.848703	-0.152333	0.719049
H69	H	1.641926	-0.138645	0.693090
H70	H	1.514061	-0.256606	0.797741
H71	H	1.078018	-0.414377	0.449180
C72	C	1.647427	-0.337994	1.124199
C73	C	1.647355	-0.338048	1.244244
C74	C	1.720862	-0.270224	1.304419
C75	C	1.794441	-0.202345	1.244548
C76	C	1.794516	-0.202288	1.124495
C77	C	1.721009	-0.270112	1.064321
H78	H	1.592885	-0.388299	1.288570
H79	H	1.720806	-0.270267	1.393289
H80	H	1.848855	-0.152137	1.289092
H81	H	1.848986	-0.152037	1.080169
H82	H	1.721065	-0.270070	0.975450
H83	H	1.455996	-0.514623	1.071246
