data_functionalizedCrystal
_audit_creation_method	'MofGen! by Chris Wilmer'
_symmetry_space_group_name_H-M	'P1'
_symmetry_Int_Tables_number	1
_symmetry_cell_setting	triclinic
loop_
_symmetry_equiv_pos_as_xyz
  x,y,z
_cell_length_a	17.077404
_cell_length_b	19.805405
_cell_length_c	17.077396
_cell_angle_alpha	90.031650
_cell_angle_beta	90.019501
_cell_angle_gamma	90.026635
loop_
_atom_site_label
_atom_site_type_symbol
_atom_site_fract_x
_atom_site_fract_y
_atom_site_fract_z
Zn1	Zn	1.200035	-0.269459	0.443825
Zn2	Zn	1.533369	0.063874	0.777159
Zn3	Zn	1.866702	0.397208	1.110492
Zn4	Zn	1.199934	-0.382652	0.312552
Zn5	Zn	1.533268	-0.049319	0.645885
Zn6	Zn	1.866601	0.284015	0.979219
Zn7	Zn	1.068767	-0.269483	0.312573
Zn8	Zn	1.402101	0.063850	0.645907
Zn9	Zn	1.735434	0.397184	0.979240
Zn10	Zn	1.068727	-0.382612	0.443776
Zn11	Zn	1.402060	-0.049279	0.777109
Zn12	Zn	1.735394	0.284055	1.110442
O13	O	1.134366	-0.326052	0.378182
O14	O	1.467699	0.007282	0.711515
O15	O	1.801033	0.340615	1.044848
O16	O	1.309869	-0.284481	0.426424
O17	O	1.643202	0.048852	0.759757
O18	O	1.976536	0.382185	1.093090
O19	O	1.182509	-0.367667	0.202708
O20	O	1.515843	-0.034333	0.536041
O21	O	1.849176	0.299000	0.869375
O22	O	1.086239	-0.174763	0.330014
O23	O	1.419573	0.158570	0.663347
O24	O	1.752906	0.491904	0.996681
O25	O	1.309795	-0.367644	0.329978
O26	O	1.643128	-0.034310	0.663311
O27	O	1.976461	0.299023	0.996644
O28	O	1.182681	-0.174746	0.426444
O29	O	1.516015	0.158588	0.759778
O30	O	1.849348	0.491921	1.093111
O31	O	1.086141	-0.284522	0.202724
O32	O	1.419475	0.048812	0.536057
O33	O	1.752808	0.382145	0.869390
O34	O	0.958915	-0.284483	0.329966
O35	O	1.292248	0.048851	0.663299
O36	O	1.625582	0.382184	0.996632
O37	O	1.086171	-0.367575	0.553629
O38	O	1.419504	-0.034242	0.886963
O39	O	1.752838	0.299091	1.220296
O40	O	0.958886	-0.367598	0.426360
O41	O	1.292219	-0.034265	0.759693
O42	O	1.625552	0.299068	1.093026
O43	O	1.182643	-0.284442	0.553666
O44	O	1.515976	0.048891	0.886999
O45	O	1.849309	0.382224	1.220332
O46	O	1.182470	-0.477363	0.329930
O47	O	1.515804	-0.144030	0.663263
O48	O	1.849137	0.189303	0.996596
O49	O	1.086073	-0.477334	0.426339
O50	O	1.419406	-0.144001	0.759672
O51	O	1.752740	0.189333	1.093006
C52	C	0.930418	-0.326039	0.378160
C53	C	1.263752	0.007294	0.711493
C54	C	1.597085	0.340627	1.044827
C55	C	0.843168	-0.326050	0.378169
C56	C	1.176502	0.007283	0.711503
C57	C	1.509835	0.340616	1.044836
C58	C	0.802183	-0.369394	0.428281
C59	C	1.135517	-0.036060	0.761614
C60	C	1.468850	0.297273	1.094948
C61	C	0.720203	-0.369395	0.428294
C62	C	1.053536	-0.036062	0.761627
C63	C	1.386870	0.297271	1.094960
C64	C	0.679209	-0.326056	0.378190
C65	C	1.012542	0.007277	0.711523
C66	C	1.345876	0.340611	1.044857
C67	C	0.720200	-0.282708	0.328076
C68	C	1.053533	0.050625	0.661409
C69	C	1.386866	0.383959	0.994743
C70	C	0.802179	-0.282703	0.328068
C71	C	1.135512	0.050630	0.661401
C72	C	1.468845	0.383963	0.994735
C73	C	0.549330	-0.282721	0.328095
C74	C	0.882663	0.050612	0.661428
C75	C	1.215996	0.383945	0.994762
C76	C	0.467345	-0.282726	0.328102
C77	C	0.800678	0.050607	0.661435
C78	C	1.134012	0.383940	0.994768
C79	C	0.467354	-0.369413	0.428321
C80	C	0.800687	-0.036080	0.761654
C81	C	1.134021	0.297254	1.094987
C82	C	0.549333	-0.369409	0.428313
C83	C	0.882666	-0.036075	0.761646
C84	C	1.216000	0.297258	1.094979
C85	C	0.590318	-0.326061	0.378197
C86	C	0.923651	0.007272	0.711531
C87	C	1.256985	0.340606	1.044864
C88	C	1.134278	-0.501908	0.378144
C89	C	1.467611	-0.168574	0.711477
C90	C	1.800944	0.164759	1.044810
C91	C	1.134312	-0.577140	0.378154
C92	C	1.467645	-0.243806	0.711487
C93	C	1.800978	0.089527	1.044820
C94	C	1.184555	-0.612477	0.328006
C95	C	1.517888	-0.279143	0.661339
C96	C	1.851221	0.054190	0.994673
C97	C	1.184588	-0.683165	0.328023
C98	C	1.517921	-0.349832	0.661357
C99	C	1.851255	-0.016498	0.994690
C100	C	1.134374	-0.718515	0.378185
C101	C	1.467707	-0.385182	0.711518
C102	C	1.801041	-0.051848	1.044852
C103	C	1.084129	-0.683173	0.428338
C104	C	1.417462	-0.349840	0.761672
C105	C	1.750795	-0.016506	1.095005
C106	C	1.084100	-0.612486	0.428324
C107	C	1.417433	-0.279153	0.761658
C108	C	1.750767	0.054181	1.094991
C109	C	1.084245	-0.968246	0.428397
C110	C	1.417578	-0.634913	0.761730
C111	C	1.750911	-0.301580	1.095063
C112	C	1.084276	-1.038938	0.428405
C113	C	1.417609	-0.705605	0.761738
C114	C	1.750942	-0.372272	1.095072
C115	C	1.184733	-1.038925	0.328095
C116	C	1.518066	-0.705592	0.661429
C117	C	1.851399	-0.372259	0.994762
C118	C	1.184704	-0.968238	0.328081
C119	C	1.518037	-0.634905	0.661415
C120	C	1.851370	-0.301572	0.994748
C121	C	1.134462	-0.932902	0.378237
C122	C	1.467795	-0.599569	0.711571
C123	C	1.801129	-0.266236	1.044904
C124	C	1.134427	-0.856254	0.378219
C125	C	1.467761	-0.522921	0.711552
C126	C	1.801094	-0.189587	1.044886
C127	C	1.134404	-0.795162	0.378200
C128	C	1.467737	-0.461829	0.711533
C129	C	1.801070	-0.128496	1.044867
C130	C	1.339110	-0.326064	0.378204
C131	C	1.672444	0.007269	0.711537
C132	C	2.005777	0.340602	1.044871
C133	C	1.426360	-0.326070	0.378213
C134	C	1.759693	0.007264	0.711547
C135	C	2.093027	0.340597	1.044880
C136	C	1.134414	-0.326002	0.582926
C137	C	1.467747	0.007332	0.916259
C138	C	1.801080	0.340665	1.249593
C139	C	1.134434	-0.325980	0.670176
C140	C	1.467767	0.007353	1.003509
C141	C	1.801100	0.340686	1.336843
C142	C	1.134476	-0.149509	0.378237
C143	C	1.467809	0.183825	0.711570
C144	C	1.801143	0.517158	1.044904
C145	C	1.134523	-0.074277	0.378261
C146	C	1.467856	0.259057	0.711594
C147	C	1.801190	0.592390	1.044927
C148	C	1.134364	-0.326052	0.174234
C149	C	1.467697	0.007281	0.507567
C150	C	1.801031	0.340614	0.840901
C151	C	1.134496	-0.325883	0.086984
C152	C	1.467829	0.007450	0.420318
C153	C	1.801162	0.340784	0.753651
C154	C	1.184668	-0.282690	0.711186
C155	C	1.518002	0.050644	1.044520
C156	C	1.851335	0.383977	1.377853
C157	C	1.184678	-0.282667	0.793167
C158	C	1.518011	0.050666	1.126500
C159	C	1.851344	0.384000	1.459834
C160	C	1.134456	-0.325939	0.834135
C161	C	1.467789	0.007394	1.167469
C162	C	1.801123	0.340727	1.500802
C163	C	1.084216	-0.369232	0.793119
C164	C	1.417549	-0.035899	1.126453
C165	C	1.750883	0.297435	1.459786
C166	C	1.084203	-0.369251	0.711140
C167	C	1.417536	-0.035917	1.044474
C168	C	1.750870	0.297416	1.377807
C169	C	1.084248	-0.369191	0.963989
C170	C	1.417581	-0.035858	1.297323
C171	C	1.750914	0.297475	1.630656
C172	C	1.084261	-0.369174	1.045974
C173	C	1.417595	-0.035841	1.379307
C174	C	1.750928	0.297493	1.712641
C175	C	1.184722	-0.282608	1.046016
C176	C	1.518056	0.050726	1.379349
C177	C	1.851389	0.384059	1.712683
C178	C	1.184709	-0.282626	0.964037
C179	C	1.518043	0.050707	1.297370
C180	C	1.851376	0.384040	1.630704
C181	C	1.134470	-0.325920	0.923026
C182	C	1.467803	0.007413	1.256360
C183	C	1.801137	0.340747	1.589693
H184	H	0.686837	-0.404691	0.469099
H185	H	1.020170	-0.071357	0.802432
H186	H	1.353503	0.261976	1.135766
H187	H	1.043188	-0.583715	0.469161
H188	H	1.376521	-0.250382	0.802494
H189	H	1.709855	0.082951	1.135828
N190	N	1.238843	-0.236023	0.667000
N191	N	1.572177	0.097310	1.000333
N192	N	1.905510	0.430643	1.333667
H193	H	1.226688	-0.187657	0.681275
H194	H	1.560021	0.145677	1.014608
H195	H	1.893355	0.479010	1.347941
H196	H	1.231188	-0.242666	0.608858
H197	H	1.564522	0.090667	0.942192
H198	H	1.897855	0.424001	1.275525
H199	H	1.043386	-1.067719	0.469259
H200	H	1.376719	-0.734385	0.802592
H201	H	1.710053	-0.401052	1.135925
N202	N	1.030093	-0.415830	1.090182
N203	N	1.363426	-0.082497	1.423515
N204	N	1.696760	0.250836	1.756849
H205	H	1.042234	-0.464201	1.075914
H206	H	1.375568	-0.130868	1.409247
H207	H	1.708901	0.202466	1.742580
H208	H	0.974032	-0.405252	1.075902
H209	H	1.307365	-0.071919	1.409235
H210	H	1.640699	0.261415	1.742568
N211	N	1.238867	-0.235971	0.837385
N212	N	1.572200	0.097362	1.170719
N213	N	1.905534	0.430696	1.504052
H214	H	1.275233	-0.263468	0.871399
H215	H	1.608567	0.069865	1.204732
H216	H	1.941900	0.403199	1.538066
H217	H	1.206941	-0.204596	0.871354
H218	H	1.540274	0.128737	1.204687
H219	H	1.873608	0.462070	1.538020
H220	H	1.225609	-0.247394	0.930683
H221	H	1.558942	0.085939	1.264016
H222	H	1.892276	0.419273	1.597349
N223	N	0.423155	-0.416169	0.482373
N224	N	0.756488	-0.082836	0.815706
N225	N	1.089821	0.250498	1.149040
H226	H	0.365001	-0.409595	0.474780
H227	H	0.698334	-0.076262	0.808113
H228	H	1.031668	0.257072	1.141447
H229	H	0.437516	-0.405699	0.538456
H230	H	0.770850	-0.072366	0.871789
H231	H	1.104183	0.260967	1.205123
N232	N	1.030058	-0.415882	0.919754
N233	N	1.363392	-0.082549	1.253087
N234	N	1.696725	0.250784	1.586421
H235	H	0.998246	-0.443294	0.958145
H236	H	1.331579	-0.109961	1.291479
H237	H	1.664913	0.223372	1.624812
H238	H	1.061987	-0.447215	0.885735
H239	H	1.395320	-0.113881	1.219069
H240	H	1.728653	0.219452	1.552402
H241	H	1.225628	-0.247355	1.079411
H242	H	1.558961	0.085978	1.412744
H243	H	1.892294	0.419312	1.746077
H244	H	1.043322	-0.404463	0.826482
H245	H	1.376655	-0.071129	1.159816
H246	H	1.709988	0.262204	1.493149
H247	H	1.043334	-0.939481	0.469234
H248	H	1.376668	-0.606148	0.802567
H249	H	1.710001	-0.272815	1.135900
N250	N	1.030014	-0.415936	0.666903
N251	N	1.363348	-0.082603	1.000237
N252	N	1.696681	0.250730	1.333570
H253	H	0.998200	-0.443346	0.705295
H254	H	1.331533	-0.110013	1.038628
H255	H	1.664867	0.223321	1.371961
H256	H	1.061935	-0.447271	0.632880
H257	H	1.395269	-0.113938	0.966214
H258	H	1.728602	0.219396	1.299547
H259	H	0.835548	-0.247405	0.287266
H260	H	1.168881	0.085928	0.620599
H261	H	1.502214	0.419261	0.953933
N262	N	0.846396	-0.416143	0.482317
N263	N	1.179729	-0.082810	0.815650
N264	N	1.513062	0.250523	1.148983
H265	H	0.807989	-0.443600	0.514065
H266	H	1.141322	-0.110267	0.847398
H267	H	1.474655	0.223066	1.180731
H268	H	0.880439	-0.388631	0.518699
H269	H	1.213773	-0.055298	0.852032
H270	H	1.547106	0.278035	1.185365
H271	H	1.225645	-1.067704	0.287259
H272	H	1.558978	-0.734371	0.620592
H273	H	1.892312	-0.401038	0.953926
H274	H	0.582708	-0.404703	0.469107
H275	H	0.916041	-0.071370	0.802440
H276	H	1.249375	0.261964	1.135774
N277	N	1.238712	-0.574351	0.273900
N278	N	1.572045	-0.241018	0.607233
N279	N	1.905379	0.092315	0.940566
H280	H	1.270547	-0.607466	0.242136
H281	H	1.603880	-0.274133	0.575469
H282	H	1.937214	0.059200	0.908803
H283	H	1.275008	-0.544978	0.305881
H284	H	1.608341	-0.211644	0.639215
H285	H	1.941674	0.121689	0.972548
H286	H	0.433970	-0.247428	0.287312
H287	H	0.767303	0.085906	0.620645
H288	H	1.100637	0.419239	0.953979
H289	H	1.225500	-0.711933	0.287187
H290	H	1.558834	-0.378600	0.620521
H291	H	1.892167	-0.045267	0.953854
H292	H	0.582697	-0.247417	0.287293
H293	H	0.916030	0.085916	0.620626
H294	H	1.249364	0.419250	0.953959
N295	N	0.675984	-0.235976	0.274023
N296	N	1.009317	0.097358	0.607357
N297	N	1.342650	0.430691	0.940690
H298	H	0.641988	-0.204647	0.305982
H299	H	0.975321	0.128687	0.639315
H300	H	1.308655	0.462020	0.972649
H301	H	0.641997	-0.263509	0.237609
H302	H	0.975330	0.069825	0.570942
H303	H	1.308663	0.403158	0.904276
H304	H	1.043247	-0.711961	0.469184
H305	H	1.376580	-0.378627	0.802518
H306	H	1.709914	-0.045294	1.135851
N307	N	1.238864	-0.930110	0.273981
N308	N	1.572198	-0.596777	0.607314
N309	N	1.905531	-0.263444	0.940647
H310	H	1.270702	-0.963223	0.242217
H311	H	1.604035	-0.629890	0.575550
H312	H	1.937369	-0.296557	0.908883
H313	H	1.275157	-0.900739	0.305968
H314	H	1.608491	-0.567406	0.639302
H315	H	1.941824	-0.234072	0.972635
