data_functionalizedCrystal
_audit_creation_method	'MofGen! by Chris Wilmer'
_symmetry_space_group_name_H-M	'P1'
_symmetry_Int_Tables_number	1
_symmetry_cell_setting	triclinic
loop_
_symmetry_equiv_pos_as_xyz
  x,y,z
_cell_length_a	29.839134
_cell_length_b	29.839131
_cell_length_c	18.050582
_cell_angle_alpha	89.966870
_cell_angle_beta	89.973027
_cell_angle_gamma	90.027971
loop_
_atom_site_label
_atom_site_type_symbol
_atom_site_fract_x
_atom_site_fract_y
_atom_site_fract_z
Zn1	Zn	0.686751	-0.178969	-0.420097
Zn2	Zn	0.686688	-0.254091	-0.295884
Zn3	Zn	0.611630	-0.178966	-0.295895
Zn4	Zn	0.611589	-0.254063	-0.420006
O5	O	0.649164	-0.216522	-0.357970
O6	O	0.749609	-0.188947	-0.403653
O7	O	0.676722	-0.244136	-0.191961
O8	O	0.621638	-0.116100	-0.312413
O9	O	0.749563	-0.244139	-0.312394
O10	O	0.676829	-0.116101	-0.403664
O11	O	0.621577	-0.188942	-0.191969
O12	O	0.548758	-0.188915	-0.312325
O13	O	0.621569	-0.244091	-0.523943
O14	O	0.548728	-0.244088	-0.403509
O15	O	0.676790	-0.188919	-0.524009
O16	O	0.676682	-0.316954	-0.312306
O17	O	0.621508	-0.316934	-0.403499
C18	C	0.532442	-0.216499	-0.357909
C19	C	0.482507	-0.216500	-0.357900
C20	C	0.125923	-0.187751	-0.310588
C21	C	0.313596	-0.187738	-0.310543
O22	O	0.337864	-0.163257	-0.270247
N23	N	0.337062	-0.216507	-0.357938
C24	C	0.313607	-0.245279	-0.405351
O25	O	0.337873	-0.269745	-0.445667
C26	C	0.125935	-0.245289	-0.405399
C27	C	0.102471	-0.216522	-0.357996
C28	C	0.102460	-0.158986	-0.263189
C29	C	0.055544	-0.158991	-0.263198
C30	C	0.032092	-0.187761	-0.310606
C31	C	0.055556	-0.216527	-0.358004
C32	C	0.102480	-0.274058	-0.452815
C33	C	0.055559	-0.274057	-0.452824
C34	C	0.032096	-0.245290	-0.405421
C35	C	-0.014811	-0.245302	-0.405421
N36	N	-0.038277	-0.216534	-0.358026
C37	C	-0.014825	-0.187763	-0.310618
C38	C	0.412138	-0.245272	-0.405321
C39	C	0.459056	-0.245270	-0.405308
C40	C	0.459042	-0.187729	-0.310501
C41	C	0.412123	-0.187734	-0.310511
C42	C	0.388672	-0.216503	-0.357926
C43	C	-0.113351	-0.187777	-0.310640
C44	C	-0.160271	-0.187786	-0.310651
C45	C	-0.160253	-0.245325	-0.405461
C46	C	-0.113337	-0.245318	-0.405447
C47	C	-0.089888	-0.216540	-0.358035
O48	O	-0.039108	-0.269767	-0.445702
O49	O	-0.039099	-0.163294	-0.270319
C50	C	0.172839	-0.187746	-0.310579
C51	C	0.196302	-0.216511	-0.357978
C52	C	0.172850	-0.245282	-0.405386
C53	C	0.243220	-0.216509	-0.357965
C54	C	0.266672	-0.187739	-0.310557
C55	C	0.243206	-0.158970	-0.263162
C56	C	0.196291	-0.158975	-0.263171
C57	C	0.196316	-0.274050	-0.452781
C58	C	0.243232	-0.274043	-0.452767
C59	C	0.266684	-0.245273	-0.405359
C60	C	0.649096	-0.333245	-0.357908
C61	C	0.649108	-0.383179	-0.357906
C62	C	0.677896	-0.692789	-0.405552
C63	C	0.677945	-0.880462	-0.405597
O64	O	0.702355	-0.904698	-0.446061
N65	N	0.649241	-0.903964	-0.358053
C66	C	0.620520	-0.880546	-0.310498
O67	O	0.596104	-0.904842	-0.270065
C68	C	0.620470	-0.692874	-0.310457
C69	C	0.649179	-0.669373	-0.357999
C70	C	0.706603	-0.669289	-0.453091
C71	C	0.706592	-0.622373	-0.453076
C72	C	0.677875	-0.598958	-0.405523
C73	C	0.649168	-0.622458	-0.357985
C74	C	0.591747	-0.669456	-0.262906
C75	C	0.591736	-0.622535	-0.262902
C76	C	0.620446	-0.599035	-0.310444
C77	C	0.620440	-0.552127	-0.310417
N78	N	0.649144	-0.528625	-0.357961
C79	C	0.677861	-0.552040	-0.405514
C80	C	0.620550	-0.979076	-0.310521
C81	C	0.620563	-1.025994	-0.310530
C82	C	0.677987	-1.025907	-0.405631
C83	C	0.677976	-0.978988	-0.405617
C84	C	0.649254	-0.955574	-0.358065
C85	C	0.677837	-0.453514	-0.405480
C86	C	0.677825	-0.406595	-0.405459
C87	C	0.620399	-0.406686	-0.310362
C88	C	0.620413	-0.453601	-0.310379
C89	C	0.649133	-0.477014	-0.357944
O90	O	0.596040	-0.527862	-0.269980
O91	O	0.702267	-0.527735	-0.445953
C92	C	0.677907	-0.739704	-0.405567
C93	C	0.649200	-0.763204	-0.358028
C94	C	0.620483	-0.739789	-0.310475
C95	C	0.649213	-0.810122	-0.358037
C96	C	0.677931	-0.833537	-0.405590
C97	C	0.706635	-0.810035	-0.453134
C98	C	0.706624	-0.763119	-0.453120
C99	C	0.591779	-0.763292	-0.262931
C100	C	0.591792	-0.810207	-0.262949
C101	C	0.620510	-0.833622	-0.310502
C102	C	0.766343	-0.216546	-0.358032
C103	C	0.816277	-0.216556	-0.358059
C104	C	0.649182	-0.216502	-0.551676
C105	C	0.649190	-0.216494	-0.634222
C106	C	0.649245	-0.099344	-0.358049
C107	C	0.649280	-0.049409	-0.358083
C108	C	0.619183	-0.246455	-0.833637
C109	C	0.660169	-0.257442	-0.883039
C110	C	0.649212	-0.216460	-0.785352
C111	C	0.608248	-0.205460	-0.883032
C112	C	0.649229	-0.216427	-0.931338
C113	C	0.690219	-0.227468	-0.833667
C114	C	0.638270	-0.175467	-0.833656
C115	C	0.679285	-0.186438	-0.883036
C116	C	0.649201	-0.216479	-0.701254
C117	C	0.649245	-0.216408	-1.015434
C118	C	0.649173	-0.216510	-0.165018
C119	C	0.649252	-0.216392	-0.082473
H120	H	0.177191	-0.135550	-0.224571
H121	H	0.628993	-0.140825	-0.811948
N122	N	0.562439	-0.739385	-0.214352
N123	N	0.536814	-0.760379	-0.171910
H124	H	0.516091	-0.743497	-0.137595
H125	H	-0.094264	-0.164341	-0.272036
N126	N	0.267160	-0.129573	-0.214740
N127	N	0.246210	-0.103885	-0.172425
H128	H	0.263128	-0.083122	-0.138232
N129	N	0.564780	-0.193811	-0.910235
N130	N	0.531674	-0.217650	-0.894392
H131	H	0.500973	-0.209426	-0.913602
H132	H	0.701370	-1.044980	-0.444349
H133	H	0.704715	-0.161058	-0.904589
N134	N	0.031574	-0.129599	-0.214796
N135	N	-0.010317	-0.129597	-0.214809
H136	H	-0.027244	-0.108835	-0.180626
H137	H	-0.179373	-0.164359	-0.272047
H138	H	0.393022	-0.164307	-0.271913
N139	N	0.733701	-0.239181	-0.806598
N140	N	0.764690	-0.247496	-0.851128
H141	H	0.795398	-0.255770	-0.832010
H142	H	-0.179356	-0.268751	-0.444056
N143	N	0.483013	-0.274665	-0.453722
N144	N	0.462062	-0.300350	-0.496044
H145	H	0.478980	-0.321110	-0.530241
N146	N	0.126404	-0.129590	-0.214757
N147	N	0.105440	-0.103911	-0.172446
H148	H	0.122347	-0.083149	-0.138235
N149	N	0.591234	-1.049995	-0.261971
N150	N	0.562600	-1.076183	-0.288051
H151	H	0.541883	-1.093133	-0.253758
N152	N	0.126438	-0.303449	-0.501231
N153	N	0.121172	-0.344899	-0.496179
H154	H	0.138091	-0.365659	-0.530376
N155	N	0.591202	-0.955166	-0.261951
N156	N	0.549748	-0.960445	-0.266805
H157	H	0.529020	-0.943562	-0.232501
H158	H	0.478144	-0.164304	-0.271899
H159	H	0.262332	-0.297473	-0.491368
H160	H	0.036468	-0.297484	-0.491439
N161	N	0.388193	-0.274664	-0.453765
N162	N	0.409156	-0.300345	-0.496074
H163	H	0.392248	-0.321105	-0.530287
H164	H	0.568369	-0.688582	-0.224192
N165	N	0.587358	-0.278311	-0.806401
N166	N	0.555448	-0.265587	-0.766776
H167	H	0.532974	-0.288085	-0.747536
H168	H	0.568415	-0.829337	-0.224227
N169	N	0.671802	-0.300909	-0.910257
N170	N	0.708704	-0.317945	-0.893553
H171	H	0.716918	-0.348644	-0.912773
H172	H	-0.094232	-0.268746	-0.444041
H173	H	0.701205	-0.387462	-0.444173
N174	N	0.172356	-0.303437	-0.501203
N175	N	0.146196	-0.287679	-0.548585
H176	H	0.129275	-0.308437	-0.582783
N177	N	0.707175	-0.477418	-0.454072
N178	N	0.732802	-0.456423	-0.496510
H179	H	0.753524	-0.473305	-0.530825
H180	H	0.568346	-0.603473	-0.224180
N181	N	0.735920	-0.598379	-0.501646
N182	N	0.761555	-0.619299	-0.544098
H183	H	0.782269	-0.602356	-0.578404
H184	H	0.597020	-0.387614	-0.271642
N185	N	0.735940	-0.693195	-0.501678
N186	N	0.761565	-0.672198	-0.544117
H187	H	0.782288	-0.689079	-0.578432
H188	H	0.597039	-0.472736	-0.271661
N189	N	0.707305	-0.954992	-0.454183
N190	N	0.732944	-0.975910	-0.496631
H191	H	0.753659	-0.958966	-0.530934
N192	N	0.735954	-0.739125	-0.501686
N193	N	0.761590	-0.760045	-0.544136
H194	H	0.782306	-0.743102	-0.578439
H195	H	0.730019	-0.829108	-0.491851
