data_functionalizedCrystal
_audit_creation_method	'MofGen! by Chris Wilmer'
_symmetry_space_group_name_H-M	'P1'
_symmetry_Int_Tables_number	1
_symmetry_cell_setting	triclinic
loop_
_symmetry_equiv_pos_as_xyz
  x,y,z
_cell_length_a	14.044191
_cell_length_b	10.489716
_cell_length_c	13.101039
_cell_angle_alpha	93.400284
_cell_angle_beta	86.337551
_cell_angle_gamma	88.860456
loop_
_atom_site_label
_atom_site_type_symbol
_atom_site_fract_x
_atom_site_fract_y
_atom_site_fract_z
O1	O	1.264956	0.301341	-0.085148
O2	O	1.514956	0.551341	0.164852
O3	O	1.764956	0.801341	0.414852
O4	O	2.014956	1.051341	0.664852
O5	O	0.988912	0.290226	-0.085161
O6	O	1.238912	0.540226	0.164839
O7	O	1.488912	0.790226	0.414839
O8	O	1.738912	1.040226	0.664839
O9	O	1.133228	0.110822	-0.085158
O10	O	1.383228	0.360822	0.164842
O11	O	1.633228	0.610822	0.414842
O12	O	1.883228	0.860822	0.664842
O13	O	1.120640	0.480745	-0.085151
O14	O	1.370640	0.730745	0.164849
O15	O	1.620640	0.980745	0.414849
O16	O	1.870640	1.230745	0.664849
O17	O	1.122873	0.123717	0.085272
O18	O	1.372873	0.373717	0.335272
O19	O	1.622873	0.623717	0.585272
O20	O	1.872873	0.873717	0.835272
O21	O	0.978558	0.303121	0.085268
O22	O	1.228558	0.553121	0.335268
O23	O	1.478558	0.803121	0.585268
O24	O	1.728558	1.053121	0.835268
O25	O	1.254602	0.314237	0.085282
O26	O	1.504602	0.564237	0.335282
O27	O	1.754602	0.814237	0.585282
O28	O	2.004602	1.064237	0.835282
Zn29	Zn	1.114936	0.310726	0.112335
Zn30	Zn	1.364936	0.560726	0.362335
Zn31	Zn	1.614936	0.810726	0.612335
Zn32	Zn	1.864936	1.060726	0.862335
Zn33	Zn	1.128578	0.293736	-0.112214
Zn34	Zn	1.378578	0.543736	0.137786
Zn35	Zn	1.628578	0.793736	0.387786
Zn36	Zn	1.878578	1.043736	0.637786
O37	O	1.110286	0.493641	0.085279
O38	O	1.360286	0.743641	0.335279
O39	O	1.610286	0.993641	0.585279
O40	O	1.860286	1.243641	0.835279
C41	C	0.948388	0.291811	0.000052
C42	C	1.198388	0.541811	0.250052
C43	C	1.448388	0.791811	0.500052
C44	C	1.698388	1.041811	0.750052
C45	C	0.843064	0.277307	0.000046
C46	C	1.093064	0.527307	0.250046
C47	C	1.343064	0.777307	0.500046
C48	C	1.593064	1.027307	0.750046
C49	C	1.127105	0.069641	0.000054
C50	C	1.377105	0.319641	0.250054
C51	C	1.627105	0.569641	0.500054
C52	C	1.877105	0.819641	0.750054
C53	C	1.124276	-0.072277	0.000044
C54	C	1.374276	0.177723	0.250044
C55	C	1.624276	0.427723	0.500044
C56	C	1.874276	0.677723	0.750044
C57	C	0.593293	0.353654	0.000058
C58	C	0.843293	0.603654	0.250058
C59	C	1.093293	0.853654	0.500058
C60	C	1.343293	1.103654	0.750058
C61	C	0.650227	0.250813	0.000054
C62	C	0.900227	0.500813	0.250054
C63	C	1.150227	0.750813	0.500054
C64	C	1.400227	1.000813	0.750054
C65	C	0.757531	0.265558	0.000050
C66	C	1.007531	0.515558	0.250050
C67	C	1.257531	0.765558	0.500050
C68	C	1.507531	1.015558	0.750050
C69	C	0.485979	0.338911	0.000062
C70	C	0.735979	0.588911	0.250062
C71	C	0.985979	0.838911	0.500062
C72	C	1.235979	1.088911	0.750062
C73	C	1.212774	-0.160971	0.000058
C74	C	1.462774	0.089029	0.250058
C75	C	1.712774	0.339029	0.500058
C76	C	1.962774	0.589029	0.750058
C77	C	1.171115	-0.249435	-0.083972
C78	C	1.421115	0.000565	0.166028
C79	C	1.671115	0.250565	0.416028
C80	C	1.921115	0.500565	0.666028
C81	C	1.160886	-0.236687	0.084058
C82	C	1.410886	0.013313	0.334058
C83	C	1.660886	0.263313	0.584058
C84	C	1.910886	0.513313	0.834058
C85	C	1.082658	-0.158877	-0.084055
C86	C	1.332658	0.091123	0.165945
C87	C	1.582658	0.341123	0.415945
C88	C	1.832658	0.591123	0.665945
C89	C	1.072437	-0.146117	0.084050
C90	C	1.322437	0.103883	0.334050
C91	C	1.572437	0.353883	0.584050
C92	C	1.822437	0.603883	0.834050
C93	C	1.030714	-0.234539	-0.000001
C94	C	1.280714	0.015461	0.249999
C95	C	1.530714	0.265461	0.499999
C96	C	1.780714	0.515461	0.749999
C97	C	1.295126	0.312651	0.000067
C98	C	1.545126	0.562651	0.250067
C99	C	1.795126	0.812651	0.500067
C100	C	2.045126	1.062651	0.750067
C101	C	1.400450	0.327154	0.000066
C102	C	1.650450	0.577154	0.250066
C103	C	1.900450	0.827154	0.500066
C104	C	2.150450	1.077154	0.750066
C105	C	1.116409	0.534821	0.000065
C106	C	1.366409	0.784821	0.250065
C107	C	1.616409	1.034821	0.500065
C108	C	1.866409	1.284821	0.750065
C109	C	1.119238	0.676739	0.000067
C110	C	1.369238	0.926739	0.250067
C111	C	1.619238	1.176739	0.500067
C112	C	1.869238	1.426739	0.750067
N113	N	1.105632	0.322322	0.265583
N114	N	1.355632	0.572322	0.515583
N115	N	1.605632	0.822322	0.765583
N116	N	1.855632	1.072322	1.015583
N117	N	1.137889	0.282132	-0.265462
N118	N	1.387889	0.532132	-0.015462
N119	N	1.637889	0.782132	0.234538
N120	N	1.887889	1.032132	0.484538
C121	C	1.092974	0.338109	0.474625
C122	C	1.342974	0.588109	0.724625
C123	C	1.592974	0.838109	0.974625
C124	C	1.842974	1.088109	1.224625
C125	C	1.150544	0.266348	0.525502
C126	C	1.400544	0.516348	0.775502
C127	C	1.650544	0.766348	1.025502
C128	C	1.900544	1.016348	1.275502
C129	C	1.143501	0.275132	0.641820
C130	C	1.393501	0.525132	0.891820
C131	C	1.643501	0.775132	1.141820
C132	C	1.893501	1.025132	1.391820
C133	C	1.100016	0.329326	0.358296
C134	C	1.350016	0.579326	0.608296
C135	C	1.600016	0.829326	0.858296
C136	C	1.850016	1.079326	1.108296
H137	H	0.618386	0.151689	-0.000020
H138	H	0.868386	0.401689	0.249980
H139	H	1.118386	0.651689	0.499980
H140	H	1.368386	0.901689	0.749980
H141	H	1.205120	0.198315	0.481701
H142	H	1.455120	0.448315	0.731701
H143	H	1.705120	0.698315	0.981701
H144	H	1.955120	0.948315	1.231701
Cl145	Cl	0.642458	0.506676	0.000048
Cl146	Cl	0.892458	0.756676	0.250048
Cl147	Cl	1.142458	1.006676	0.500048
Cl148	Cl	1.392458	1.256676	0.750048
H149	H	1.038403	0.406139	0.518421
H150	H	1.288403	0.656139	0.768421
H151	H	1.538403	0.906139	1.018421
H152	H	1.788403	1.156139	1.268421
Cl153	Cl	1.331628	-0.110817	-0.000063
Cl154	Cl	1.581628	0.139183	0.249937
Cl155	Cl	1.831628	0.389183	0.499937
Cl156	Cl	2.081628	0.639183	0.749937
H157	H	1.212789	-0.294514	-0.155012
H158	H	1.462789	-0.044514	0.094988
H159	H	1.712789	0.205486	0.344988
H160	H	1.962789	0.455486	0.594988
Cl161	Cl	1.211927	-0.289648	0.193739
Cl162	Cl	1.461927	-0.039648	0.443739
Cl163	Cl	1.711927	0.210352	0.693739
Cl164	Cl	1.961927	0.460352	0.943739
Cl165	Cl	0.911781	-0.284338	-0.000072
Cl166	Cl	1.161781	-0.034338	0.249928
Cl167	Cl	1.411781	0.215662	0.499928
Cl168	Cl	1.661781	0.465662	0.749928
H169	H	1.049640	-0.124743	-0.155175
H170	H	1.299640	0.125257	0.094825
H171	H	1.549640	0.375257	0.344825
H172	H	1.799640	0.625257	0.594825
H173	H	1.030795	-0.101011	0.155092
H174	H	1.280795	0.148989	0.405092
H175	H	1.530795	0.398989	0.655092
H176	H	1.780795	0.648989	0.905092
