data_functionalizedCrystal
_audit_creation_method	'MofGen! by Chris Wilmer'
_symmetry_space_group_name_H-M	'P1'
_symmetry_Int_Tables_number	1
_symmetry_cell_setting	triclinic
loop_
_symmetry_equiv_pos_as_xyz
  x,y,z
_cell_length_a	13.635800
_cell_length_b	23.752930
_cell_length_c	23.752933
_cell_angle_alpha	79.341072
_cell_angle_beta	100.066061
_cell_angle_gamma	100.066047
loop_
_atom_site_label
_atom_site_type_symbol
_atom_site_fract_x
_atom_site_fract_y
_atom_site_fract_z
V1	V	1.937231	0.178720	-0.079916
O2	O	1.990708	0.174985	0.003064
O3	O	1.857468	0.177818	-0.157713
O4	O	1.905387	0.256519	-0.079027
O5	O	1.942457	0.095738	-0.076167
V6	V	2.187235	0.168756	-0.069950
O7	O	2.049779	0.200577	-0.101776
O8	O	2.299785	0.146898	-0.048090
O9	O	2.155395	0.169658	0.007847
O10	O	2.192457	0.172491	-0.152930
O11	O	2.240708	0.251737	-0.073700
O12	O	2.107476	0.090956	-0.070839
V13	V	2.437231	0.178720	-0.079916
O14	O	2.490708	0.174985	0.003064
O15	O	2.357468	0.177818	-0.157713
O16	O	2.405387	0.256519	-0.079027
O17	O	2.442457	0.095738	-0.076167
V18	V	2.687235	0.168756	-0.069950
O19	O	2.549779	0.200577	-0.101776
O20	O	2.799785	0.146898	-0.048090
O21	O	2.655395	0.169658	0.007847
O22	O	2.692457	0.172491	-0.152930
O23	O	2.740708	0.251737	-0.073700
O24	O	2.607476	0.090956	-0.070839
C25	C	1.766699	0.175081	-0.176668
C26	C	1.742076	0.174862	-0.240271
C27	C	1.827825	0.275472	-0.076295
C28	C	1.842063	0.339076	-0.076084
C29	C	2.077833	0.172393	0.026799
C30	C	2.092074	0.172615	0.090401
C31	C	1.819179	0.177630	-0.273069
C32	C	1.796059	0.177433	-0.332832
C33	C	1.695833	0.174464	-0.359795
C34	C	1.618725	0.171698	-0.326993
C35	C	1.641847	0.171899	-0.267232
C36	C	2.016708	0.072000	-0.073573
C37	C	1.992091	0.008396	-0.073782
C38	C	2.019177	0.736407	-0.077585
C39	C	2.032573	0.796168	-0.077379
O40	O	2.114936	0.829562	-0.079691
N41	N	1.950574	0.823132	-0.074411
C42	C	1.855176	0.790331	-0.071644
O43	O	1.786661	0.818753	-0.069100
C44	C	1.841784	0.730569	-0.071846
C45	C	1.923787	0.703609	-0.074820
C46	C	2.101173	0.709446	-0.080559
C47	C	2.087778	0.649689	-0.080766
C48	C	1.992388	0.616892	-0.078001
C49	C	1.910392	0.643852	-0.075028
C50	C	1.746389	0.697768	-0.069074
C51	C	1.733003	0.638003	-0.069277
C52	C	1.815006	0.611043	-0.072251
C53	C	1.801606	0.551298	-0.072470
N54	N	1.883605	0.524333	-0.075438
C55	C	1.978995	0.557131	-0.078203
C56	C	1.883308	0.915833	-0.071218
C57	C	1.896698	0.975594	-0.071019
C58	C	2.074094	0.981427	-0.076754
C59	C	2.060702	0.921666	-0.076956
C60	C	1.965307	0.888869	-0.074186
C61	C	1.950858	0.431636	-0.078639
C62	C	1.937454	0.371873	-0.078849
C63	C	1.760060	0.366044	-0.073112
C64	C	1.773462	0.425802	-0.072905
C65	C	1.868870	0.458596	-0.075667
O66	O	1.719274	0.517867	-0.070156
O67	O	2.047500	0.528699	-0.080739
C68	C	2.266699	0.175081	-0.176668
C69	C	2.242076	0.174862	-0.240271
C70	C	2.269166	0.171062	0.487740
C71	C	2.282558	0.171262	0.547503
O72	O	2.364907	0.168907	0.580903
N73	N	2.200560	0.174232	0.574466
C74	C	2.105162	0.176997	0.541664
O75	O	2.036646	0.179541	0.570087
C76	C	2.091770	0.176793	0.481903
C77	C	2.173776	0.173828	0.454942
C78	C	2.351166	0.168097	0.460779
C79	C	2.337774	0.167899	0.401020
C80	C	2.242384	0.170665	0.368222
C81	C	2.160385	0.173630	0.395183
C82	C	1.996371	0.179554	0.449103
C83	C	1.982986	0.179349	0.389339
C84	C	2.064992	0.176385	0.362378
C85	C	2.051604	0.176198	0.302627
N86	N	2.133602	0.173228	0.275664
C87	C	2.228992	0.170461	0.308461
C88	C	2.133293	0.177424	0.667167
C89	C	2.146685	0.177632	0.726926
C90	C	2.324081	0.171896	0.732760
C91	C	2.310689	0.171692	0.672999
C92	C	2.215291	0.174453	0.640203
C93	C	2.200864	0.170045	0.182963
C94	C	2.187464	0.169849	0.123198
C95	C	2.010070	0.175582	0.117370
C96	C	2.023468	0.175781	0.177129
C97	C	2.118872	0.173010	0.209925
O98	O	1.969285	0.178548	0.269190
O99	O	2.297491	0.167910	0.280033
C100	C	2.327825	0.275472	-0.076295
C101	C	2.342063	0.339076	-0.076084
C102	C	2.577833	0.172393	0.026799
C103	C	2.592074	0.172615	0.090401
C104	C	2.516708	0.072000	-0.073573
C105	C	2.492091	0.008396	-0.073782
C106	C	2.437454	0.371873	-0.078849
C107	C	2.450849	0.431635	-0.078643
C108	C	2.368850	0.458599	-0.075675
C109	C	2.273452	0.425797	-0.072907
C110	C	2.260060	0.366036	-0.073110
C111	C	2.687464	0.169849	0.123198
C112	C	2.700856	0.170049	0.182961
C113	C	2.618858	0.173019	0.209925
C114	C	2.523460	0.175784	0.177123
C115	C	2.510068	0.175580	0.117362
C116	C	2.391863	-0.018554	-0.076743
C117	C	2.368720	-0.078317	-0.076933
C118	C	2.445806	-0.111130	-0.074165
C119	C	2.546044	-0.084177	-0.071201
C120	C	2.569186	-0.024415	-0.071008
H121	H	1.900793	0.180044	-0.251123
O122	O	2.308704	0.016827	-0.079728
H123	H	2.341619	0.062914	-0.079101
H124	H	1.579054	0.169642	-0.240531
O125	O	2.525905	0.342795	-0.082041
H126	H	2.594483	0.375647	-0.083921
O127	O	2.184969	0.454858	-0.069736
H128	H	2.200422	0.475688	-0.030315
O129	O	2.157163	0.330671	-0.070130
H130	H	2.160466	0.297035	-0.030879
O131	O	2.775910	0.166638	0.094124
H132	H	2.844481	0.164740	0.126979
O133	O	2.407179	0.178577	0.081991
H134	H	2.383148	0.139419	0.060898
H135	H	1.858856	0.179684	-0.359531
O136	O	2.553747	0.467003	-0.081627
H137	H	2.550432	0.500648	-0.120872
O138	O	1.670894	0.174220	-0.424249
H139	H	1.741353	0.176630	-0.442519
H140	H	2.278547	0.167786	0.209659
H141	H	2.254249	0.167436	0.101250
O142	O	2.260607	-0.107385	-0.080132
H143	H	2.216150	-0.088247	-0.120678
O144	O	1.510626	0.168497	-0.356078
H145	H	1.507514	0.168817	-0.403142
O146	O	1.935024	0.178980	0.206214
H147	H	1.866443	0.180868	0.173365
H148	H	2.629777	0.173184	0.258586
O149	O	2.025905	0.342792	-0.082048
H150	H	2.094488	0.375640	-0.083927
O151	O	2.204067	0.744816	-0.083537
H152	H	2.258821	0.716019	-0.085639
O153	O	2.803764	0.167085	0.218324
H154	H	2.830086	0.126477	0.214520
O155	O	2.435026	0.178999	0.206205
H156	H	2.460380	0.178686	0.253269
O157	O	2.053757	0.467003	-0.081619
H158	H	2.108512	0.438208	-0.083725
O159	O	2.383296	0.523058	-0.075466
H160	H	2.463405	0.541331	-0.077896
H161	H	1.679610	0.719708	-0.066653
O162	O	1.907913	0.182746	0.478172
H163	H	1.923411	0.222181	0.498983
H164	H	1.706687	0.447755	-0.070490
H165	H	2.154556	0.627743	-0.083185
H166	H	2.608802	-0.110902	-0.068946
H167	H	2.127477	0.899720	-0.079377
O168	O	2.677297	0.004646	-0.067818
H169	H	2.680453	0.051715	-0.068144
H170	H	2.426948	-0.159790	-0.074330
H171	H	1.829918	0.997541	-0.068606
O172	O	2.176990	1.016805	-0.079728
H173	H	2.172520	1.062887	-0.079079
H174	H	1.655326	0.611300	-0.067006
O175	O	1.780409	0.880461	-0.068241
H176	H	1.725646	0.909257	-0.066150
H177	H	2.404554	0.165483	0.379074
O178	O	1.657183	0.330662	-0.070106
H179	H	1.661659	0.284577	-0.070736
O180	O	2.454069	0.165130	0.496139
H181	H	2.480387	0.124520	0.492336
O182	O	2.399133	0.168485	0.643922
H183	H	2.467708	0.166592	0.676774
H184	H	2.401754	0.169641	0.759475
H185	H	2.079909	0.180055	0.748871
H186	H	1.905305	0.181609	0.362637
O187	O	2.030399	0.180417	0.631792
H188	H	1.975642	0.182523	0.660585
O189	O	1.907186	0.178571	0.081990
H190	H	1.911659	0.177929	0.035906
