data_functionalizedCrystal
_audit_creation_method	'MofGen! by Chris Wilmer'
_symmetry_space_group_name_H-M	'P1'
_symmetry_Int_Tables_number	1
_symmetry_cell_setting	triclinic
loop_
_symmetry_equiv_pos_as_xyz
  x,y,z
_cell_length_a	14.044191
_cell_length_b	26.809956
_cell_length_c	14.044220
_cell_angle_alpha	90.003850
_cell_angle_beta	86.809673
_cell_angle_gamma	90.007154
loop_
_atom_site_label
_atom_site_type_symbol
_atom_site_fract_x
_atom_site_fract_y
_atom_site_fract_z
O1	O	1.277179	0.041458	-0.230187
O2	O	1.000506	0.041464	-0.221874
O3	O	1.134690	0.041456	-0.087695
O4	O	1.142995	0.041466	-0.364367
O5	O	1.134664	-0.041503	-0.087715
O6	O	1.000481	-0.041495	-0.221894
O7	O	1.277153	-0.041502	-0.230207
Zn8	Zn	1.138813	-0.054670	-0.226054
Zn9	Zn	1.138847	0.054632	-0.226028
O10	O	1.142970	-0.041494	-0.364387
C11	C	0.964872	-0.000015	-0.218248
C12	C	0.858728	-0.000013	-0.207401
C13	C	0.613270	-0.000016	-0.264501
C14	C	0.664395	-0.000018	-0.187585
C15	C	0.772532	-0.000015	-0.198613
C16	C	0.505123	-0.000018	-0.253474
N17	N	1.138796	-0.129266	-0.226072
C18	C	1.198256	-0.473896	-0.166628
C19	C	1.198278	-0.682773	-0.166616
O20	O	1.248794	-0.709780	-0.116077
N21	N	1.138850	-0.708893	-0.226007
C22	C	1.079409	-0.682790	-0.285401
O23	O	1.028855	-0.709800	-0.335910
C24	C	1.079383	-0.473914	-0.285408
C25	C	1.138821	-0.447796	-0.226020
C26	C	1.257689	-0.447778	-0.107244
C27	C	1.257687	-0.395562	-0.107252
C28	C	1.198252	-0.369463	-0.166643
C29	C	1.138819	-0.395580	-0.226027
C30	C	1.019937	-0.447812	-0.344797
C31	C	1.019934	-0.395589	-0.344791
C32	C	1.079373	-0.369472	-0.285403
C33	C	1.079382	-0.317265	-0.285427
N34	N	1.138809	-0.291145	-0.226035
C35	C	1.198244	-0.317244	-0.166644
C36	C	1.079428	-0.792454	-0.285395
C37	C	1.079435	-0.844673	-0.285394
C38	C	1.198303	-0.844652	-0.166607
C39	C	1.198300	-0.792432	-0.166613
C40	C	1.138855	-0.766334	-0.226003
C41	C	1.198236	-0.207586	-0.166664
C42	C	1.198231	-0.155365	-0.166680
C43	C	1.079360	-0.155390	-0.285463
C44	C	1.079368	-0.207607	-0.285452
C45	C	1.138809	-0.233703	-0.226045
O46	O	1.028884	-0.290226	-0.335931
O47	O	1.248775	-0.290226	-0.116127
C48	C	1.198258	-0.526112	-0.166621
C49	C	1.138826	-0.552229	-0.226005
C50	C	1.079391	-0.526130	-0.285397
C51	C	1.138833	-0.604448	-0.226005
C52	C	1.198268	-0.630547	-0.166613
C53	C	1.257695	-0.604427	-0.107221
C54	C	1.257693	-0.552211	-0.107229
C55	C	1.019963	-0.552250	-0.344788
C56	C	1.019971	-0.604466	-0.344776
C57	C	1.079406	-0.630565	-0.285385
C58	C	1.312788	-0.000022	-0.233834
C59	C	1.418931	-0.000021	-0.244681
C60	C	1.131041	-0.000024	-0.052083
C61	C	1.120197	-0.000024	0.054060
N62	N	1.138870	0.129228	-0.226003
C63	C	1.146618	-0.000013	-0.399998
C64	C	1.157463	-0.000009	-0.506142
C65	C	1.100370	-0.000017	0.248398
C66	C	1.177285	-0.000017	0.299526
C67	C	1.166253	-0.000012	0.407663
C68	C	1.111400	-0.000021	0.140252
H69	H	1.246637	-0.134102	-0.118319
H70	H	0.626952	0.000015	-0.113452
H71	H	1.251419	0.000015	0.262085
H72	H	0.650711	-0.000012	-0.338628
H73	H	1.246637	-0.228828	-0.118289
H74	H	1.026242	-0.000014	0.285837
H75	H	1.306084	-0.374301	-0.058890
H76	H	1.306088	-0.469024	-0.058876
H77	H	1.246699	-0.771170	-0.118254
H78	H	1.031046	-0.865933	-0.333764
O79	O	1.255984	-0.869954	-0.108775
C80	C	1.297833	-0.885954	0.052479
C81	C	1.232474	-0.857256	-0.012910
H82	H	1.278835	-0.875706	0.130000
H83	H	1.375368	-0.875674	0.033618
H84	H	1.287638	-0.927759	0.042222
H85	H	1.242584	-0.815445	-0.002688
H86	H	1.154962	-0.867577	0.005967
O87	O	1.021656	-0.767183	-0.343185
C88	C	0.903722	-0.772728	-0.460968
C89	C	0.969112	-0.801406	-0.395581
H90	H	0.861209	-0.800385	-0.503332
H91	H	0.948921	-0.748292	-0.512239
H92	H	0.852576	-0.748270	-0.415682
H93	H	1.020270	-0.825891	-0.440790
H94	H	0.923854	-0.825810	-0.344306
O95	O	0.962106	-0.473096	-0.402513
C96	C	0.844235	-0.467583	-0.520360
C97	C	0.909669	-0.438887	-0.455024
H98	H	0.801837	-0.439937	-0.562847
H99	H	0.792995	-0.492018	-0.475123
H100	H	0.889488	-0.492043	-0.571532
H101	H	0.864493	-0.414400	-0.403841
H102	H	0.960913	-0.414484	-0.500321
O103	O	0.962324	-0.370183	-0.402539
C104	C	0.953009	-0.311264	-0.531247
C105	C	1.018356	-0.339994	-0.465896
H106	H	0.998286	-0.286857	-0.582500
H107	H	0.901848	-0.286783	-0.486022
H108	H	0.910511	-0.338913	-0.573643
H109	H	1.060916	-0.312381	-0.423487
H110	H	1.069455	-0.364482	-0.511173
O111	O	1.021542	-0.232903	-0.343167
C112	C	0.903665	-0.227405	-0.461012
C113	C	0.969103	-0.198701	-0.395693
H114	H	0.861266	-0.199766	-0.503510
H115	H	0.852427	-0.251834	-0.415760
H116	H	0.948916	-0.251872	-0.512173
H117	H	0.923929	-0.174207	-0.344520
H118	H	1.020345	-0.174304	-0.441004
H119	H	1.030972	-0.134132	-0.333822
H120	H	1.306093	-0.625686	-0.058866
O121	O	1.315315	-0.526904	-0.049333
C122	C	1.357179	-0.511069	0.111981
C123	C	1.291847	-0.539723	0.046479
H124	H	1.338242	-0.521431	0.189456
H125	H	1.347029	-0.469246	0.101958
H126	H	1.434689	-0.521344	0.093006
H127	H	1.214312	-0.529490	0.065412
H128	H	1.302079	-0.581539	0.056512
O129	O	0.962139	-0.629756	-0.402500
C130	C	0.844266	-0.624250	-0.520346
C131	C	0.909702	-0.595550	-0.455018
H132	H	0.801868	-0.596608	-0.562839
H133	H	0.793027	-0.648682	-0.475102
H134	H	0.889519	-0.648714	-0.571513
H135	H	0.864526	-0.571060	-0.403840
H136	H	0.960945	-0.571150	-0.500321
H137	H	0.971563	-0.531004	-0.393151
