data_functionalizedCrystal
_audit_creation_method	'MofGen! by Chris Wilmer'
_symmetry_space_group_name_H-M	'P1'
_symmetry_Int_Tables_number	1
_symmetry_cell_setting	triclinic
loop_
_symmetry_equiv_pos_as_xyz
  x,y,z
_cell_length_a	21.295420
_cell_length_b	21.295417
_cell_length_c	21.295411
_cell_angle_alpha	89.978356
_cell_angle_beta	90.024592
_cell_angle_gamma	89.973711
loop_
_atom_site_label
_atom_site_type_symbol
_atom_site_fract_x
_atom_site_fract_y
_atom_site_fract_z
Zn1	Zn	0.962355	0.250752	0.355912
Zn2	Zn	1.295689	0.584085	0.689245
Zn3	Zn	1.629022	0.917418	1.022579
Zn4	Zn	0.962258	0.356004	0.250637
Zn5	Zn	1.295591	0.689337	0.583971
Zn6	Zn	1.628924	1.022670	0.917304
Zn7	Zn	0.857079	0.250744	0.250657
Zn8	Zn	1.190412	0.584078	0.583990
Zn9	Zn	1.523745	0.917411	0.917324
Zn10	Zn	0.857048	0.355979	0.355869
Zn11	Zn	1.190381	0.689313	0.689202
Zn12	Zn	1.523715	1.022646	1.022536
O13	O	0.909685	0.303370	0.303269
O14	O	1.243018	0.636703	0.636602
O15	O	1.576352	0.970036	0.969935
O16	O	1.050432	0.264727	0.341957
O17	O	1.383765	0.598060	0.675290
O18	O	1.717098	0.931394	1.008623
O19	O	0.948277	0.342048	0.162550
O20	O	1.281611	0.675381	0.495884
O21	O	1.614944	1.008715	0.829217
O22	O	0.871097	0.162656	0.264645
O23	O	1.204431	0.495989	0.597979
O24	O	1.537764	0.829323	0.931312
O25	O	1.050360	0.342055	0.264612
O26	O	1.383693	0.675388	0.597945
O27	O	1.717027	1.008722	0.931279
O28	O	0.948444	0.162661	0.341976
O29	O	1.281777	0.495995	0.675309
O30	O	1.615110	0.829328	1.008642
O31	O	0.871003	0.264714	0.162565
O32	O	1.204336	0.598048	0.495898
O33	O	1.537669	0.931381	0.829232
O34	O	0.768985	0.264691	0.264604
O35	O	1.102318	0.598024	0.597937
O36	O	1.435652	0.931358	0.931270
O37	O	0.871045	0.342014	0.443964
O38	O	1.204379	0.675347	0.777297
O39	O	1.537712	1.008680	1.110631
O40	O	0.768963	0.342006	0.341903
O41	O	1.102296	0.675340	0.675236
O42	O	1.435629	1.008673	1.008569
O43	O	0.948414	0.264703	0.443996
O44	O	1.281747	0.598037	0.777329
O45	O	1.615081	0.931370	1.110662
O46	O	0.948248	0.444090	0.264570
O47	O	1.281581	0.777423	0.597904
O48	O	1.614914	1.110756	0.931237
O49	O	0.870951	0.444072	0.341884
O50	O	1.204284	0.777405	0.675217
O51	O	1.537617	1.110739	1.008550
C52	C	0.746133	0.303346	0.303251
C53	C	1.079467	0.636679	0.636584
C54	C	1.412800	0.970012	0.969918
C55	C	0.676165	0.303351	0.303258
C56	C	1.009499	0.636684	0.636592
C57	C	1.342832	0.970017	0.969925
C58	C	0.176744	0.263200	0.343617
C59	C	0.510077	0.596533	0.676950
C60	C	0.843411	0.929867	1.010284
C61	C	0.242486	0.263195	0.343617
C62	C	0.575820	0.596529	0.676950
C63	C	0.909153	0.929862	1.010284
C64	C	0.275326	0.303389	0.303283
C65	C	0.608659	0.636722	0.636617
C66	C	0.941992	0.970056	0.969950
C67	C	0.242417	0.343602	0.262958
C68	C	0.575750	0.676935	0.596292
C69	C	0.909084	1.010268	0.929625
C70	C	0.176676	0.343610	0.262964
C71	C	0.510009	0.676943	0.596297
C72	C	0.843343	1.010276	0.929631
N73	N	0.378516	0.308125	0.248164
N74	N	0.711849	0.641458	0.581497
N75	N	1.045182	0.974791	0.914830
N76	N	0.440967	0.308113	0.248160
N77	N	0.774300	0.641447	0.581493
N78	N	1.107634	0.974780	0.914827
C79	C	0.473400	0.303368	0.303265
C80	C	0.806734	0.636702	0.636598
C81	C	1.140067	0.970035	0.969932
N82	N	0.441023	0.298623	0.358375
N83	N	0.774356	0.631956	0.691708
N84	N	1.107690	0.965289	1.025041
N85	N	0.378566	0.298631	0.358377
N86	N	0.711899	0.631964	0.691711
N87	N	1.045233	0.965297	1.025044
C88	C	0.346611	0.303385	0.303273
C89	C	0.679944	0.636718	0.636606
C90	C	1.013278	0.970052	0.969940
C91	C	0.577587	0.263156	0.343591
C92	C	0.910920	0.596489	0.676924
C93	C	1.244253	0.929823	1.010257
C94	C	0.643330	0.263156	0.343592
C95	C	0.976664	0.596489	0.676925
C96	C	1.309997	0.929822	1.010258
C97	C	0.643260	0.343559	0.262927
C98	C	0.976593	0.676892	0.596261
C99	C	1.309926	1.010226	0.929594
C100	C	0.577517	0.343562	0.262932
C101	C	0.910851	0.676896	0.596265
C102	C	1.244184	1.010229	0.929598
C103	C	0.544685	0.303358	0.303263
C104	C	0.878018	0.636691	0.636596
C105	C	1.211351	0.970024	0.969929
C106	C	0.909602	0.466921	0.303234
C107	C	1.242936	0.800255	0.636567
C108	C	1.576269	1.133588	0.969901
C109	C	0.909625	0.536890	0.303240
C110	C	1.242958	0.870223	0.636573
C111	C	1.576291	1.203556	0.969907
C112	C	0.909737	0.303357	0.467459
C113	C	1.243070	0.636690	0.800792
C114	C	1.576404	0.970023	1.134126
C115	C	0.909759	0.303351	0.537427
C116	C	1.243093	0.636684	0.870761
C117	C	1.576426	0.970018	1.204094
C118	C	1.073875	0.303394	0.303287
C119	C	1.407208	0.636728	0.636620
C120	C	1.740542	0.970061	0.969954
C121	C	1.143843	0.303405	0.303295
C122	C	1.477177	0.636738	0.636628
C123	C	1.810510	0.970072	0.969961
C124	C	0.909785	0.139180	0.303318
C125	C	1.243118	0.472513	0.636651
C126	C	1.576452	0.805846	0.969984
C127	C	0.909827	0.069211	0.303338
C128	C	1.243161	0.402545	0.636672
C129	C	1.576494	0.735878	0.970005
C130	C	0.949909	0.569745	0.263024
C131	C	1.283242	0.903078	0.596358
C132	C	1.616576	1.236411	0.929691
C133	C	0.949939	0.635487	0.263038
C134	C	1.283272	0.968820	0.596372
C135	C	1.616605	1.302154	0.929705
C136	C	0.909672	0.668372	0.303262
C137	C	1.243006	1.001705	0.636595
C138	C	1.576339	1.335039	0.969928
C139	C	0.869385	0.635509	0.343485
C140	C	1.202718	0.968842	0.676819
C141	C	1.536052	1.302176	1.010152
C142	C	0.869361	0.569768	0.343474
C143	C	1.202695	0.903101	0.676808
C144	C	1.536028	1.236434	1.010141
N145	N	0.854605	0.771635	0.308055
N146	N	1.187939	1.104968	0.641388
N147	N	1.521272	1.438301	0.974721
N148	N	0.854630	0.834086	0.308061
N149	N	1.187963	1.167419	0.641395
N150	N	1.521297	1.500753	0.974728
C151	C	0.909743	0.866447	0.303298
C152	C	1.243076	1.199780	0.636631
C153	C	1.576410	1.533113	0.969965
N154	N	0.964832	0.833997	0.298515
N155	N	1.298165	1.167330	0.631849
N156	N	1.631498	1.500663	0.965182
N157	N	0.964807	0.771540	0.298505
N158	N	1.298140	1.104873	0.631839
N159	N	1.631473	1.438206	0.965172
C160	C	0.909694	0.739657	0.303278
C161	C	1.243027	1.072991	0.636612
C162	C	1.576361	1.406324	0.969945
C163	C	0.950063	0.970587	0.263095
C164	C	1.283396	1.303921	0.596429
C165	C	1.616729	1.637254	0.929762
C166	C	0.950093	1.036331	0.263114
C167	C	1.283427	1.369664	0.596447
C168	C	1.616760	1.702998	0.929781
C169	C	0.869534	1.036352	0.343557
C170	C	1.202868	1.369685	0.676891
C171	C	1.536201	1.703018	1.010224
C172	C	0.869509	0.970609	0.343542
C173	C	1.202843	1.303943	0.676876
C174	C	1.536176	1.637276	1.010209
C175	C	0.909773	0.937731	0.303308
C176	C	1.243106	1.271064	0.636641
C177	C	1.576439	1.604398	0.969974
C178	C	0.909669	0.303338	0.139717
C179	C	1.243002	0.636671	0.473051
C180	C	1.576336	0.970004	0.806384
C181	C	0.909769	0.303166	0.069749
C182	C	1.243102	0.636499	0.403083
C183	C	1.576435	0.969833	0.736416
C184	C	0.950044	0.263094	0.570311
C185	C	1.283377	0.596427	0.903645
C186	C	1.616710	0.929760	1.236978
C187	C	0.950043	0.263066	0.636054
C188	C	1.283376	0.596400	0.969387
C189	C	1.616709	0.929733	1.302721
C190	C	0.909764	0.303308	0.668910
C191	C	1.243098	0.636641	1.002243
C192	C	1.576431	0.969974	1.335576
C193	C	0.869472	0.343568	0.636018
C194	C	1.202806	0.676901	0.969351
C195	C	1.536139	1.010234	1.302684
C196	C	0.869470	0.343589	0.570276
C197	C	1.202803	0.676923	0.903610
C198	C	1.536136	1.010256	1.236943
N199	N	0.904908	0.358375	0.772125
N200	N	1.238241	0.691708	1.105459
N201	N	1.571574	1.025042	1.438792
N202	N	0.904914	0.358353	0.834577
N203	N	1.238247	0.691686	1.167910
N204	N	1.571580	1.025019	1.501243
C205	C	0.909768	0.303244	0.866985
C206	C	1.243102	0.636577	1.200318
C207	C	1.576435	0.969910	1.533651
N208	N	0.914629	0.248157	0.834582
N209	N	1.247962	0.581490	1.167915
N210	N	1.581296	0.914823	1.501249
N211	N	0.914626	0.248180	0.772125
N212	N	1.247960	0.581513	1.105458
N213	N	1.581293	0.914847	1.438791
C214	C	0.909762	0.303288	0.740195
C215	C	1.243095	0.636622	1.073529
C216	C	1.576429	0.969955	1.406862
C217	C	0.950054	0.262953	0.971154
C218	C	1.283387	0.596287	1.304488
C219	C	1.616720	0.929620	1.637821
C220	C	0.950048	0.262925	1.036898
C221	C	1.283382	0.596258	1.370231
C222	C	1.616715	0.929592	1.703565
C223	C	0.869481	0.343432	1.036861
C224	C	1.202815	0.676765	1.370194
C225	C	1.536148	1.010099	1.703527
C226	C	0.869483	0.343455	0.971118
C227	C	1.202816	0.676788	1.304452
C228	C	1.536150	1.010121	1.637785
C229	C	0.909773	0.303216	0.938269
C230	C	1.243106	0.636550	1.271602
C231	C	1.576439	0.969883	1.604936
H232	H	0.550853	0.230419	0.376430
H233	H	0.884186	0.563752	0.709764
H234	H	1.217520	0.897086	1.043097
Br235	Br	0.814810	0.398094	0.926486
Br236	Br	1.148143	0.731427	1.259820
Br237	Br	1.481476	1.064760	1.593153
H238	H	0.982850	0.230328	0.543570
H239	H	1.316183	0.563661	0.876903
H240	H	1.649517	0.896994	1.210236
Br241	Br	0.687983	0.208594	0.398327
Br242	Br	1.021316	0.541927	0.731660
Br243	Br	1.354650	0.875261	1.064994
Br244	Br	0.814808	0.398038	1.081444
Br245	Br	1.148142	0.731372	1.414777
Br246	Br	1.481475	1.064705	1.748110
H247	H	0.269279	0.230453	0.376452
H248	H	0.602613	0.563786	0.709785
H249	H	0.935946	0.897119	1.043118
H250	H	0.149888	0.376351	0.230128
H251	H	0.483222	0.709684	0.563461
H252	H	0.816555	1.043017	0.896795
Br253	Br	0.687820	0.398116	0.208195
Br254	Br	1.021154	0.731449	0.541528
Br255	Br	1.354487	1.064783	0.874862
Br256	Br	0.132188	0.208641	0.398356
Br257	Br	0.465521	0.541975	0.731689
Br258	Br	0.798855	0.875308	1.065022
Br259	Br	0.286983	0.398155	0.208224
Br260	Br	0.620316	0.731489	0.541557
Br261	Br	0.953649	1.064822	0.874891
H262	H	0.982902	1.063080	0.230367
H263	H	1.316235	1.396414	0.563700
H264	H	1.649568	1.729747	0.897033
Br265	Br	1.004614	0.680086	0.208456
Br266	Br	1.337948	1.013420	0.541790
Br267	Br	1.671281	1.346753	0.875123
H268	H	0.982846	0.230281	0.662833
H269	H	1.316179	0.563614	0.996167
H270	H	1.649512	0.896947	1.329500
H271	H	0.836601	0.662288	0.376237
H272	H	1.169935	0.995621	0.709570
H273	H	1.503268	1.328955	1.042903
H274	H	0.836675	0.376330	0.662773
H275	H	1.170009	0.709664	0.996107
H276	H	1.503342	1.042997	1.329440
Br277	Br	0.814893	1.080974	0.398154
Br278	Br	1.148226	1.414307	0.731487
Br279	Br	1.481559	1.747641	1.064821
Br280	Br	0.532863	0.398120	0.208196
Br281	Br	0.866196	0.731454	0.541530
Br282	Br	1.199530	1.064787	0.874863
H283	H	0.836663	0.376371	0.543503
H284	H	1.169996	0.709704	0.876836
H285	H	1.503329	1.043037	1.210169
H286	H	0.982852	0.230139	1.063671
H287	H	1.316185	0.563472	1.397005
H288	H	1.649518	0.896806	1.730338
H289	H	0.982695	0.542977	0.230265
H290	H	1.316029	0.876310	0.563598
H291	H	1.649362	1.209644	0.896931
Br292	Br	0.814686	0.525175	0.398058
Br293	Br	1.148019	0.858509	0.731392
Br294	Br	1.481353	1.191842	1.064725
H295	H	0.982856	0.230185	0.944407
H296	H	1.316190	0.563519	1.277740
H297	H	1.649523	0.896852	1.611074
H298	H	0.982850	0.943817	0.230336
H299	H	1.316183	1.277150	0.563669
H300	H	1.649516	1.610483	0.897003
Br301	Br	0.814833	0.926017	0.398122
Br302	Br	1.148166	1.259350	0.731456
Br303	Br	1.481500	1.592684	1.064789
