data_functionalizedCrystal
_audit_creation_method	'MofGen! by Chris Wilmer'
_symmetry_space_group_name_H-M	'P1'
_symmetry_Int_Tables_number	1
_symmetry_cell_setting	triclinic
loop_
_symmetry_equiv_pos_as_xyz
  x,y,z
_cell_length_a	14.519709
_cell_length_b	14.519709
_cell_length_c	13.596369
_cell_angle_alpha	89.993066
_cell_angle_beta	90.000291
_cell_angle_gamma	83.680145
loop_
_atom_site_label
_atom_site_type_symbol
_atom_site_fract_x
_atom_site_fract_y
_atom_site_fract_z
O1	O	1.223868	0.120893	-0.081665
O2	O	1.557202	0.454226	0.251668
O3	O	1.890535	0.787559	0.585001
O4	O	0.955392	0.135129	-0.081696
O5	O	1.288725	0.468463	0.251638
O6	O	1.622058	0.801796	0.584971
O7	O	1.096748	-0.006227	-0.081671
O8	O	1.430082	0.327106	0.251662
O9	O	1.763415	0.660439	0.584996
O10	O	1.082512	0.262249	-0.081690
O11	O	1.415845	0.595583	0.251643
O12	O	1.749178	0.928916	0.584976
O13	O	1.096734	-0.006235	0.081912
O14	O	1.430067	0.327098	0.415245
O15	O	1.763401	0.660432	0.748579
O16	O	0.955377	0.135122	0.081887
O17	O	1.288711	0.468455	0.415220
O18	O	1.622044	0.801788	0.748554
O19	O	1.223854	0.120885	0.081917
O20	O	1.557188	0.454219	0.415251
O21	O	1.890521	0.787552	0.748584
Zn22	Zn	1.089614	0.128002	0.107875
Zn23	Zn	1.422947	0.461336	0.441208
Zn24	Zn	1.756280	0.794669	0.774541
Zn25	Zn	1.089632	0.128012	-0.107653
Zn26	Zn	1.422966	0.461346	0.225680
Zn27	Zn	1.756299	0.794679	0.559014
O28	O	1.082498	0.262242	0.081893
O29	O	1.415831	0.595575	0.415226
O30	O	1.749164	0.928909	0.748559
C31	C	0.921025	0.134462	0.000092
C32	C	1.254358	0.467795	0.333425
C33	C	1.587691	0.801129	0.666759
C34	C	0.818643	0.132474	0.000081
C35	C	1.151977	0.465807	0.333414
C36	C	1.485310	0.799141	0.666747
C37	C	0.443748	0.125154	0.000126
C38	C	0.777081	0.458488	0.333459
C39	C	1.110414	0.791821	0.666793
C40	C	0.548056	0.127187	0.000113
C41	C	0.881389	0.460520	0.333446
C42	C	1.214722	0.793854	0.666780
C43	C	0.631192	0.128814	0.000102
C44	C	0.964526	0.462147	0.333436
C45	C	1.297859	0.795481	0.666769
C46	C	0.735507	0.130847	0.000091
C47	C	1.068840	0.464180	0.333425
C48	C	1.402173	0.797514	0.666758
C49	C	1.096078	-0.040591	0.000121
C50	C	1.429411	0.292742	0.333454
C51	C	1.762744	0.626076	0.666787
C52	C	1.094090	-0.142972	0.000121
C53	C	1.427423	0.190361	0.333454
C54	C	1.760756	0.523694	0.666788
C55	C	1.086770	-0.517868	0.000095
C56	C	1.420103	-0.184535	0.333428
C57	C	1.753437	0.148799	0.666761
C58	C	1.088803	-0.413560	0.000102
C59	C	1.422136	-0.080227	0.333436
C60	C	1.755469	0.253107	0.666769
C61	C	1.090430	-0.330423	0.000109
C62	C	1.423763	0.002910	0.333442
C63	C	1.757096	0.336243	0.666775
C64	C	1.092463	-0.226109	0.000114
C65	C	1.425796	0.107224	0.333448
C66	C	1.759129	0.440558	0.666781
C67	C	1.258221	0.121553	0.000128
C68	C	1.591554	0.454886	0.333461
C69	C	1.924888	0.788219	0.666794
C70	C	1.360602	0.123541	0.000132
C71	C	1.693936	0.456874	0.333466
C72	C	2.027269	0.790207	0.666799
C73	C	1.083168	0.296605	0.000099
C74	C	1.416501	0.629939	0.333432
C75	C	1.749835	0.963272	0.666766
C76	C	1.085156	0.398987	0.000092
C77	C	1.418490	0.732320	0.333425
C78	C	1.751823	1.065653	0.666759
N79	N	1.089608	0.127995	0.254966
N80	N	1.422941	0.461328	0.588300
N81	N	1.756274	0.794662	0.921633
N82	N	1.089645	0.128012	-0.254745
N83	N	1.422979	0.461346	0.078589
N84	N	1.756312	0.794679	0.411922
C85	C	1.089631	0.128013	0.656257
C86	C	1.422964	0.461347	0.989591
C87	C	1.756298	0.794680	1.322924
C88	C	1.089622	0.128011	0.544606
C89	C	1.422955	0.461345	0.877939
C90	C	1.756288	0.794678	1.211273
C91	C	1.089620	0.128005	0.455615
C92	C	1.422953	0.461338	0.788949
C93	C	1.756286	0.794671	1.122282
C94	C	1.089610	0.128001	0.343957
C95	C	1.422943	0.461335	0.677290
C96	C	1.756276	0.794668	1.010624
