data_functionalizedCrystal
_audit_creation_method	'MofGen! by Chris Wilmer'
_symmetry_space_group_name_H-M	'P1'
_symmetry_Int_Tables_number	1
_symmetry_cell_setting	triclinic
loop_
_symmetry_equiv_pos_as_xyz
  x,y,z
_cell_length_a	19.188930
_cell_length_b	9.065218
_cell_length_c	8.140239
_cell_angle_alpha	90.002802
_cell_angle_beta	89.991371
_cell_angle_gamma	95.919667
loop_
_atom_site_label
_atom_site_type_symbol
_atom_site_fract_x
_atom_site_fract_y
_atom_site_fract_z
O1	O	0.102369	-1.956846	-0.136639
O2	O	0.110766	-1.527270	-0.136643
O3	O	0.005009	-1.754455	-0.136609
O4	O	0.208127	-1.729662	-0.136674
O5	O	0.005007	-1.754443	0.136618
O6	O	0.110765	-1.527258	0.136584
O7	O	0.102368	-1.956834	0.136588
Zn8	Zn	0.106566	-1.742044	0.179966
Zn9	Zn	0.106568	-1.742060	-0.180022
O10	O	0.208126	-1.729649	0.136553
C11	C	0.109959	-1.472305	-0.000030
C12	C	0.107546	-1.308546	-0.000030
C13	C	-0.021009	-1.753646	0.000009
C14	C	-0.098533	-1.751236	0.000023
C15	C	0.103176	-2.011799	-0.000029
C16	C	0.105589	-2.175558	-0.000040
C17	C	-0.142421	-1.884540	0.000032
C18	C	-0.215262	-1.882276	0.000006
C19	C	-0.244212	-1.746699	0.000003
C20	C	-0.200314	-1.613377	-0.000015
C21	C	-0.127474	-1.615646	-0.000005
N22	N	-0.353023	-1.643063	0.092987
N23	N	-0.422218	-1.640918	0.092981
C24	C	-0.463674	-1.739858	-0.000030
N25	N	-0.433322	-1.841047	-0.093014
N26	N	-0.364120	-1.843197	-0.093001
C27	C	-0.323194	-1.744225	-0.000008
C28	C	-0.586546	-1.870716	-0.000052
C29	C	-0.659388	-1.868446	-0.000088
C30	C	-0.644438	-1.599544	-0.000092
C31	C	-0.571598	-1.601818	-0.000072
C32	C	-0.542656	-1.737408	-0.000044
C33	C	0.234144	-1.730458	-0.000068
C34	C	0.311667	-1.732869	-0.000093
N35	N	0.106565	-1.742044	0.425649
N36	N	0.106564	-1.742073	-0.425705
H37	H	-0.118862	-1.994948	0.000050
F38	F	-0.524886	-1.459935	-0.000076
H39	H	-0.251003	-1.990832	0.000007
F40	F	-0.231126	-1.469087	-0.000028
H41	H	-0.562980	-1.981122	-0.000036
H42	H	-0.668009	-1.489155	-0.000103
F43	F	-0.080763	-1.473758	-0.000016
H44	H	-0.695122	-1.977004	-0.000090
