data_functionalizedCrystal
_audit_creation_method	'MofGen! by Chris Wilmer'
_symmetry_space_group_name_H-M	'P1'
_symmetry_Int_Tables_number	1
_symmetry_cell_setting	triclinic
loop_
_symmetry_equiv_pos_as_xyz
  x,y,z
_cell_length_a	15.944551
_cell_length_b	10.654550
_cell_length_c	9.130313
_cell_angle_alpha	90.003780
_cell_angle_beta	90.002201
_cell_angle_gamma	83.991820
loop_
_atom_site_label
_atom_site_type_symbol
_atom_site_fract_x
_atom_site_fract_y
_atom_site_fract_z
O1	O	-0.117973	-1.666308	-0.121923
O2	O	-0.129213	-1.300684	-0.121900
O3	O	-0.001376	-1.493480	-0.121899
O4	O	-0.245810	-1.473511	-0.121924
O5	O	-0.001379	-1.493478	0.121700
O6	O	-0.129216	-1.300681	0.121699
O7	O	-0.117976	-1.666305	0.121676
Cu8	Cu	-0.123596	-1.483493	0.143930
Cu9	Cu	-0.123592	-1.483496	-0.144154
O10	O	-0.245813	-1.473509	0.121675
C11	C	-0.128389	-1.253895	-0.000098
C12	C	-0.125920	-1.114484	-0.000088
C13	C	0.029921	-1.492650	-0.000099
C14	C	0.123182	-1.490165	-0.000098
C15	C	-0.277110	-1.474339	-0.000128
C16	C	-0.370371	-1.476824	-0.000139
C17	C	0.338765	-1.364720	-0.000111
C18	C	0.399443	-1.422971	0.119995
C19	C	0.293934	-1.485668	-0.000109
C20	C	0.399430	-1.423002	-0.120175
C21	C	0.458872	-1.481317	-0.000126
C22	C	0.353384	-1.543953	0.120095
C23	C	0.353364	-1.543967	-0.120182
C24	C	0.414024	-1.602306	-0.000048
C25	C	0.198917	-1.488172	-0.000098
C26	C	0.553887	-1.478822	-0.000127
C27	C	-0.118800	-1.713094	-0.000130
C28	C	-0.121269	-1.852505	-0.000149
N29	N	-0.123599	-1.483500	0.346552
C30	C	-0.201188	-1.034024	-0.000117
C31	C	-0.198863	-0.903034	-0.000142
C32	C	-0.045995	-0.932975	-0.000116
C33	C	-0.048321	-1.063963	-0.000080
C34	C	-0.278788	-1.084545	-0.000126
C35	C	-0.354062	-1.004084	-0.000156
C36	C	-0.351737	-0.873094	-0.000182
C37	C	-0.274137	-0.822564	-0.000176
N38	N	-0.123583	-1.483499	-0.346777
C39	C	-0.067012	-1.568892	0.423205
C40	C	-0.067002	-1.568889	0.576542
C41	C	-0.180173	-1.398098	0.576560
C42	C	-0.180178	-1.398096	0.423226
C43	C	-0.010433	-1.654296	0.346531
C44	C	0.046158	-1.739696	0.423184
C45	C	0.046168	-1.739693	0.576520
C46	C	-0.010412	-1.654290	0.653205
H47	H	0.419846	-1.371814	0.221540
O48	O	0.029308	-0.883684	-0.000188
C49	C	0.100638	-0.695156	-0.000157
C50	C	0.015299	-0.750807	-0.000102
H51	H	0.089341	-0.587718	-0.000056
H52	H	0.137886	-0.728229	-0.102116
H53	H	0.137871	-0.728338	0.101775
H54	H	-0.022003	-0.717650	-0.101965
H55	H	-0.021886	-0.717740	0.101925
H56	H	-0.280689	-1.191203	-0.000112
O57	O	-0.235050	-1.314976	0.650983
C58	C	-0.282940	-1.096626	0.697866
C59	C	-0.220729	-1.190620	0.613519
H60	H	-0.271395	-0.996065	0.667583
H61	H	-0.273216	-1.111190	0.820642
H62	H	-0.350315	-1.113051	0.667738
H63	H	-0.153330	-1.174252	0.643523
H64	H	-0.230527	-1.176034	0.490763
O65	O	0.101255	-1.822589	0.650821
C66	C	0.246855	-1.896138	0.697781
C67	C	0.184564	-1.802200	0.613523
H68	H	0.314224	-1.879670	0.667680
H69	H	0.235347	-1.996742	0.667599
H70	H	0.237102	-1.881489	0.820537
H71	H	0.194280	-1.816735	0.490748
H72	H	0.196088	-1.701630	0.643827
O73	O	0.024736	-1.142260	-0.000253
C74	C	0.110845	-1.307518	-0.126444
C75	C	0.028068	-1.218938	-0.126421
H76	H	0.113574	-1.369516	-0.228455
H77	H	0.113582	-1.369651	-0.024549
H78	H	0.166695	-1.248889	-0.126385
H79	H	-0.027828	-1.277467	-0.126531
H80	H	0.025405	-1.156800	-0.228306
H81	H	-0.010437	-1.654309	0.221677
H82	H	0.333096	-1.595065	0.221746
H83	H	0.419804	-1.371831	-0.221721
H84	H	0.092229	-1.809222	0.360739
O85	O	0.452859	-1.722195	0.000278
C86	C	0.473384	-1.921353	0.127152
C87	C	0.429364	-1.785607	0.126974
H88	H	0.454391	-1.972669	0.229559
H89	H	0.544672	-1.918668	0.126276
H90	H	0.453630	-1.973247	0.025678
H91	H	0.449049	-1.733634	0.228431
H92	H	0.358084	-1.788383	0.127774
H93	H	-0.010394	-1.654286	0.778062
O94	O	0.299816	-1.244897	-0.000162
C95	C	0.280012	-1.044967	-0.125509
C96	C	0.324189	-1.180619	-0.125623
H97	H	0.299687	-0.992968	-0.226949
H98	H	0.298832	-0.993543	-0.023051
H99	H	0.208755	-1.047998	-0.126485
H100	H	0.395453	-1.177704	-0.124699
H101	H	0.305300	-1.231988	-0.228074
O102	O	-0.424798	-0.794807	-0.000404
C103	C	-0.510910	-0.629631	-0.126711
C104	C	-0.428125	-0.718194	-0.126613
H105	H	-0.513635	-0.567685	-0.228755
H106	H	-0.513663	-0.567445	-0.024850
H107	H	-0.566753	-0.688274	-0.126640
H108	H	-0.372236	-0.659651	-0.126736
H109	H	-0.425445	-0.780384	-0.228465
H110	H	0.332939	-1.595080	-0.221733
O111	O	-0.235264	-1.315277	0.348819
C112	C	-0.380861	-1.241638	0.301960
C113	C	-0.318572	-1.335525	0.386292
H114	H	-0.448228	-1.257958	0.332249
H115	H	-0.371214	-1.256307	0.179182
H116	H	-0.369244	-1.141070	0.332095
H117	H	-0.330151	-1.436130	0.356281
H118	H	-0.328234	-1.320746	0.509050
H119	H	-0.417241	-1.045235	-0.000149
H120	H	-0.272250	-0.715901	-0.000174
