data_functionalizedCrystal
_audit_creation_method	'MofGen! by Chris Wilmer'
_symmetry_space_group_name_H-M	'P1'
_symmetry_Int_Tables_number	1
_symmetry_cell_setting	triclinic
loop_
_symmetry_equiv_pos_as_xyz
  x,y,z
_cell_length_a	10.723024
_cell_length_b	13.339070
_cell_length_c	9.798715
_cell_angle_alpha	89.999403
_cell_angle_beta	89.996609
_cell_angle_gamma	100.048582
loop_
_atom_site_label
_atom_site_type_symbol
_atom_site_fract_x
_atom_site_fract_y
_atom_site_fract_z
O1	O	1.704930	0.142225	-0.113477
O2	O	2.204930	0.642225	0.386523
O3	O	1.346348	0.155839	-0.113481
O4	O	1.846348	0.655839	0.386519
O5	O	1.484486	0.001483	-0.113475
O6	O	1.984486	0.501483	0.386525
O7	O	1.566793	0.296581	-0.113483
O8	O	2.066793	0.796581	0.386517
O9	O	1.484471	0.001483	0.113507
O10	O	1.984471	0.501483	0.613507
O11	O	1.346334	0.155839	0.113501
O12	O	1.846334	0.655839	0.613501
O13	O	1.704916	0.142225	0.113505
O14	O	2.204916	0.642225	0.613505
Zn15	Zn	1.525623	0.149032	0.149541
Zn16	Zn	2.025623	0.649032	0.649541
Zn17	Zn	1.525642	0.149032	-0.149517
Zn18	Zn	2.025642	0.649032	0.350483
O19	O	1.566779	0.296581	0.113500
O20	O	2.066779	0.796581	0.613500
C21	C	1.299509	0.154848	0.000009
C22	C	1.799509	0.654848	0.500009
C23	C	1.159959	0.151884	0.000008
C24	C	1.659959	0.651884	0.500008
C25	C	1.113970	0.238253	0.000005
C26	C	1.613970	0.738253	0.500005
C27	C	0.969739	0.235192	0.000003
C28	C	1.469739	0.735192	0.500003
C29	C	1.470575	-0.036303	0.000014
C30	C	1.970575	0.463697	0.500014
C31	C	1.429133	-0.148892	0.000008
C32	C	1.929133	0.351108	0.500008
C33	C	1.751368	-0.511449	0.000012
C34	C	2.251368	-0.011449	0.500012
C35	C	1.790309	-0.405666	0.000025
C36	C	2.290309	0.094334	0.500025
C37	C	1.700018	-0.341468	0.000020
C38	C	2.200018	0.158532	0.500020
C39	C	1.570779	-0.383062	0.000003
C40	C	2.070779	0.116938	0.500003
C41	C	1.531834	-0.488855	0.000001
C42	C	2.031834	0.011145	0.500001
C43	C	1.480485	-0.318874	0.000009
C44	C	1.980485	0.181126	0.500009
C45	C	1.351246	-0.360469	-0.000008
C46	C	1.851246	0.139531	0.499992
C47	C	1.312308	-0.466252	-0.000012
C48	C	1.812308	0.033748	0.499988
C49	C	1.402598	-0.530450	-0.000007
C50	C	1.902598	-0.030450	0.499993
C51	C	1.519430	-0.213081	0.000012
C52	C	2.019430	0.286919	0.500012
C53	C	1.299897	-0.190487	0.000000
C54	C	1.799897	0.309513	0.500000
C55	C	1.260956	-0.296270	-0.000013
C56	C	1.760956	0.203730	0.499987
C57	C	1.751755	0.143216	0.000012
C58	C	2.251755	0.643216	0.500012
C59	C	1.891305	0.146180	0.000004
C60	C	2.391305	0.646180	0.500004
C61	C	1.580689	0.334367	0.000008
C62	C	2.080689	0.834367	0.500008
C63	C	1.622132	0.446956	0.000005
C64	C	2.122132	0.946956	0.500005
N65	N	1.525619	0.149031	0.353641
N66	N	2.025619	0.649031	0.853641
N67	N	1.525653	0.149025	-0.353617
N68	N	2.025653	0.649025	0.146383
C69	C	1.583523	0.083935	0.421420
C70	C	2.083523	0.583935	0.921420
C71	C	1.583542	0.083932	0.578583
C72	C	2.083542	0.583932	1.078583
H73	H	0.930127	0.309131	-0.000005
H74	H	1.430127	0.809131	0.499995
H75	H	0.930908	0.072237	-0.000002
H76	H	1.430908	0.572237	0.499998
C77	C	1.068903	0.048923	0.000010
C78	C	1.568903	0.548923	0.500010
N79	N	1.000321	-0.028630	0.000010
N80	N	1.500321	0.471370	0.500010
C81	C	1.200569	-0.119873	-0.000009
C82	C	1.700569	0.380127	0.499991
N83	N	1.125763	-0.066680	-0.000015
N84	N	1.625763	0.433320	0.499985
H85	H	1.476052	0.204755	0.411964
H86	H	1.976052	0.704755	0.911964
C87	C	1.205026	0.341215	0.000008
C88	C	1.705026	0.841215	0.500008
N89	N	1.273608	0.418768	0.000009
N90	N	1.773608	0.918768	0.500009
C91	C	1.650452	0.008629	0.342634
C92	C	2.150452	0.508629	0.842634
N93	N	1.700857	-0.048099	0.283294
N94	N	2.200857	0.451901	0.783294
C95	C	1.650516	0.008639	0.657324
C96	C	2.150516	0.508639	1.157324
N97	N	1.700961	-0.048076	0.716636
N98	N	2.200961	0.451924	1.216636
C99	C	1.458675	0.224320	0.567651
C100	C	1.958675	0.724320	1.067651
N101	N	1.408225	0.281032	0.508339
N102	N	1.908225	0.781032	1.008339
H103	H	1.624656	-0.179225	0.000026
H104	H	2.124656	0.320775	0.500026
H105	H	1.155727	-0.330152	-0.000027
H106	H	1.655727	0.169848	0.499973
H107	H	1.731732	-0.255335	0.000032
H108	H	2.231732	0.244665	0.500032
H109	H	1.895534	-0.371808	0.000042
H110	H	2.395534	0.128192	0.500042
H111	H	1.824868	-0.563728	0.000027
H112	H	2.324868	-0.063728	0.500027
C113	C	1.359769	-0.646820	-0.000005
C114	C	1.859769	-0.146820	0.499995
N115	N	1.327513	-0.734471	0.000003
N116	N	1.827513	-0.234471	0.500003
C117	C	1.170142	-0.512003	-0.000017
C118	C	1.670142	-0.012003	0.499983
N119	N	1.063062	-0.546460	-0.000022
N120	N	1.563062	-0.046460	0.499978
