data_functionalizedCrystal
_audit_creation_method	'MofGen! by Chris Wilmer'
_symmetry_space_group_name_H-M	'P1'
_symmetry_Int_Tables_number	1
_symmetry_cell_setting	triclinic
loop_
_symmetry_equiv_pos_as_xyz
  x,y,z
_cell_length_a	13.897449
_cell_length_b	13.032721
_cell_length_c	13.033352
_cell_angle_alpha	103.309252
_cell_angle_beta	82.821819
_cell_angle_gamma	82.794330
loop_
_atom_site_label
_atom_site_type_symbol
_atom_site_fract_x
_atom_site_fract_y
_atom_site_fract_z
Zn1	Zn	1.339234	0.499313	0.654218
Zn2	Zn	1.839234	0.999313	1.154218
Zn3	Zn	1.339176	0.654335	0.499158
Zn4	Zn	1.839176	1.154335	0.999158
Zn5	Zn	1.201448	0.476740	0.476631
Zn6	Zn	1.701448	0.976740	0.976631
Zn7	Zn	1.154436	0.676885	0.676712
Zn8	Zn	1.654436	1.176885	1.176712
O9	O	1.258574	0.576818	0.576680
O10	O	1.758574	1.076818	1.076680
O11	O	1.474206	0.519887	0.633664
O12	O	1.974206	1.019887	1.133664
O13	O	1.340557	0.611892	0.347542
O14	O	1.840557	1.111892	0.847542
O15	O	1.239425	0.331095	0.481347
O16	O	1.739425	0.831095	0.981347
O17	O	1.474163	0.633781	0.519742
O18	O	1.974163	1.133781	1.019742
O19	O	1.340656	0.347680	0.611820
O20	O	1.840656	0.847680	1.111820
O21	O	1.239369	0.481414	0.330992
O22	O	1.739369	0.981414	0.830992
O23	O	1.060233	0.503280	0.503158
O24	O	1.560233	1.003280	1.003158
O25	O	1.159299	0.672214	0.822355
O26	O	1.659299	1.172214	1.322355
O27	O	1.025693	0.650326	0.650156
O28	O	1.525693	1.150326	1.150156
O29	O	1.295070	0.541753	0.805830
O30	O	1.795070	1.041753	1.305830
O31	O	1.294971	0.805965	0.541553
O32	O	1.794971	1.305965	1.041553
O33	O	1.159243	0.822532	0.672000
O34	O	1.659243	1.322532	1.172000
C35	C	1.222022	0.852792	0.611685
C36	C	1.722022	1.352792	1.111685
C37	C	1.206469	0.970859	0.626696
C38	C	1.706469	1.470859	1.126696
C39	C	1.007964	0.576801	0.576654
C40	C	1.507964	1.076801	1.076654
C41	C	0.900746	0.576822	0.576671
C42	C	1.400746	1.076822	1.076671
C43	C	1.221947	0.612017	0.853708
C44	C	1.721947	1.112017	1.353708
C45	C	1.206339	0.627017	0.971760
C46	C	1.706339	1.127017	1.471760
C47	C	0.704447	0.576830	0.576699
C48	C	1.204447	1.076830	1.076699
C49	C	0.813682	0.576822	0.576680
C50	C	1.313682	1.076822	1.076680
C51	C	1.510161	0.576836	0.576707
C52	C	2.010161	1.076836	1.076707
C53	C	1.617373	0.576844	0.576718
C54	C	2.117373	1.076844	1.076718
C55	C	1.295291	0.299770	0.541561
C56	C	1.795291	0.799770	1.041561
C57	C	1.310938	0.181708	0.526596
C58	C	1.810938	0.681708	1.026596
C59	C	1.266736	1.015271	0.568893
C60	C	1.766736	1.515271	1.068893
C61	C	1.250662	1.137300	0.584406
C62	C	1.750662	1.637300	1.084406
C63	C	1.266557	0.569155	1.016216
C64	C	1.766557	1.069155	1.516216
C65	C	1.250427	0.584656	1.138229
C66	C	1.750427	1.084656	1.638229
C67	C	1.295047	0.541781	1.300733
C68	C	1.795047	1.041781	1.800733
C69	C	1.310653	0.526786	1.182680
C70	C	1.810653	1.026786	1.682680
H71	H	1.330236	0.962956	0.507925
H72	H	1.830236	1.462956	1.007925
N73	N	1.166540	1.206587	0.665168
N74	N	1.666540	1.706587	1.165168
H75	H	1.128528	1.160183	0.701609
H76	H	1.628528	1.660183	1.201609
H77	H	1.193248	1.258810	0.720164
H78	H	1.693248	1.758810	1.220164
N79	N	1.395059	1.112424	0.445832
N80	N	1.895059	1.612424	0.945832
H81	H	1.368427	1.060192	0.390767
H82	H	1.868427	1.560192	0.890767
H83	H	1.433037	1.158906	0.409472
H84	H	1.933037	1.658906	0.909472
H85	H	1.142837	0.688024	1.024030
H86	H	1.642837	1.188024	1.524030
H87	H	1.374150	0.465761	1.130414
H88	H	1.874150	0.965761	1.630414
H89	H	1.142976	1.023178	0.687671
H90	H	1.642976	1.523178	1.187671
N91	N	1.350687	0.488355	0.946994
N92	N	1.850687	0.988355	1.446994
H93	H	1.350295	0.488747	0.869645
H94	H	1.850295	0.988747	1.369645
H95	H	1.414831	0.507364	0.968448
H96	H	1.914831	1.007364	1.468448
H97	H	1.186920	0.645668	1.190495
H98	H	1.686920	1.145668	1.690495
