data_functionalizedCrystal
_audit_creation_method	'MofGen! by Chris Wilmer'
_symmetry_space_group_name_H-M	'P1'
_symmetry_Int_Tables_number	1
_symmetry_cell_setting	triclinic
loop_
_symmetry_equiv_pos_as_xyz
  x,y,z
_cell_length_a	14.519731
_cell_length_b	14.853567
_cell_length_c	13.330367
_cell_angle_alpha	89.999156
_cell_angle_beta	89.992354
_cell_angle_gamma	83.661892
loop_
_atom_site_label
_atom_site_type_symbol
_atom_site_fract_x
_atom_site_fract_y
_atom_site_fract_z
O1	O	1.223812	0.118270	-0.083417
O2	O	0.955332	0.132167	-0.083417
O3	O	1.096743	-0.006008	-0.083420
O4	O	1.082400	0.256445	-0.083414
O5	O	1.096723	-0.006011	0.083427
O6	O	0.955311	0.132164	0.083430
O7	O	1.223791	0.118267	0.083430
Cu8	Cu	1.089549	0.125215	0.098664
Cu9	Cu	1.089573	0.125219	-0.098652
O10	O	1.082380	0.256442	0.083433
C11	C	0.920962	0.131514	0.000006
C12	C	0.818583	0.129563	0.000005
C13	C	1.096083	-0.039598	0.000000
C14	C	1.094135	-0.139683	-0.000008
C15	C	1.001901	-0.552260	0.000011
C16	C	1.169902	-0.573463	0.000011
C17	C	1.171733	-0.479428	0.000005
C18	C	1.088647	-0.421805	0.000003
C19	C	1.003730	-0.458216	0.000008
C20	C	1.256648	-0.443010	0.000011
C21	C	1.258483	-0.348970	0.000006
C22	C	1.175396	-0.291345	-0.000003
C23	C	1.090476	-0.327761	0.000001
C24	C	1.007390	-0.270138	-0.000001
C25	C	0.922469	-0.306552	-0.000005
C26	C	0.920643	-0.400591	-0.000001
C27	C	1.177221	-0.197306	-0.000007
C28	C	1.009219	-0.176094	-0.000004
C29	C	0.735439	0.127978	0.000001
C30	C	0.631131	0.125996	0.000001
C31	C	0.547993	0.124424	0.000001
C32	C	0.443678	0.122443	-0.000001
C33	C	1.258160	0.118920	0.000005
C34	C	1.360540	0.120871	-0.000001
C35	C	1.083040	0.290032	0.000010
C36	C	1.084987	0.390117	0.000012
N37	N	1.089539	0.125212	0.237446
N38	N	1.089591	0.125215	-0.237433
C39	C	1.026954	0.186379	0.710070
C40	C	1.152218	0.064052	0.710036
C41	C	1.152208	0.064049	0.605017
C42	C	1.089570	0.125213	0.552520
C43	C	1.026943	0.186380	0.605042
C44	C	1.214840	0.002890	0.552488
C45	C	1.214832	0.002885	0.447463
C46	C	1.152190	0.064046	0.394964
C47	C	1.089560	0.125214	0.447492
C48	C	1.026922	0.186378	0.394995
C49	C	0.964287	0.247542	0.447522
C50	C	0.964301	0.247540	0.552543
C51	C	1.152176	0.064048	0.289943
C52	C	1.026912	0.186379	0.289967
H53	H	0.941559	-0.129182	-0.000010
C54	C	1.283736	-0.064385	0.610240
N55	N	1.335629	-0.115062	0.653744
H56	H	0.854821	-0.259623	0.000001
H57	H	0.975954	0.236176	0.752839
H58	H	1.327631	-0.319330	0.000008
C59	C	0.895403	0.314810	0.610329
N60	N	0.843510	0.365477	0.653858
C61	C	1.221071	-0.003228	0.232169
N62	N	1.272965	-0.053906	0.188655
H63	H	1.203220	0.014258	0.752782
C64	C	0.895389	0.314821	0.389762
N65	N	0.843496	0.365493	0.346252
C66	C	0.827238	-0.440655	0.000016
N67	N	0.756886	-0.470835	0.000037
H68	H	0.932761	-0.581913	0.000003
C69	C	0.958028	0.253688	0.232229
N70	N	0.906153	0.304395	0.188742
H71	H	1.237546	-0.620385	0.000020
C72	C	1.348036	-0.506400	0.000020
N73	N	1.416872	-0.554150	0.000025
H74	H	1.246363	-0.167662	0.000003
C75	C	1.283725	-0.064404	0.389694
N76	N	1.335612	-0.115089	0.346181
