data_functionalizedCrystal
_audit_creation_method	'MofGen! by Chris Wilmer'
_symmetry_space_group_name_H-M	'P1'
_symmetry_Int_Tables_number	1
_symmetry_cell_setting	triclinic
loop_
_symmetry_equiv_pos_as_xyz
  x,y,z
_cell_length_a	16.120484
_cell_length_b	12.759401
_cell_length_c	12.759393
_cell_angle_alpha	90.020011
_cell_angle_beta	92.862882
_cell_angle_gamma	87.078441
loop_
_atom_site_label
_atom_site_type_symbol
_atom_site_fract_x
_atom_site_fract_y
_atom_site_fract_z
Zn1	Zn	-0.331943	-1.584966	-0.615193
Zn2	Zn	0.168057	-1.084966	-0.115193
Zn3	Zn	-0.471380	-1.575918	-0.448406
Zn4	Zn	0.028620	-1.075918	0.051594
Zn5	Zn	-0.331976	-1.409266	-0.439530
Zn6	Zn	0.168024	-0.909266	0.060470
Zn7	Zn	-0.471306	-1.400319	-0.624038
Zn8	Zn	0.028694	-0.900319	-0.124038
O9	O	-0.401651	-1.492617	-0.531792
O10	O	0.098349	-0.992617	-0.031792
O11	O	-0.350456	-1.730786	-0.593082
O12	O	0.149544	-1.230786	-0.093082
O13	O	-0.452933	-1.553768	-0.300210
O14	O	0.047067	-1.053768	0.199790
O15	O	-0.215307	-1.440104	-0.455416
O16	O	0.284693	-0.940104	0.044584
O17	O	-0.452900	-1.724138	-0.470544
O18	O	0.047100	-1.224138	0.029456
O19	O	-0.215282	-1.569190	-0.584475
O20	O	0.284718	-1.069190	-0.084475
O21	O	-0.350514	-1.431330	-0.293689
O22	O	0.149486	-0.931330	0.206311
O23	O	-0.350442	-1.261059	-0.463993
O24	O	0.149558	-0.761059	0.036007
O25	O	-0.452774	-1.424855	-0.769883
O26	O	0.047226	-0.924855	-0.269883
O27	O	-0.452806	-1.254485	-0.599550
O28	O	0.047194	-0.754485	-0.099550
O29	O	-0.350384	-1.560515	-0.763385
O30	O	0.149616	-1.060515	-0.263385
O31	O	-0.588035	-1.545093	-0.479120
O32	O	-0.088035	-1.045093	0.020880
O33	O	-0.587980	-1.416081	-0.608156
O34	O	-0.087980	-0.916081	-0.108156
C35	C	-0.401620	-1.219652	-0.531768
C36	C	0.098380	-0.719652	-0.031768
C37	C	-0.401627	-1.102875	-0.531785
C38	C	0.098373	-0.602875	-0.031785
C39	C	-0.348383	-1.051461	-0.595699
C40	C	0.151617	-0.551461	-0.095699
C41	C	-0.348395	-0.941736	-0.595704
C42	C	0.151605	-0.441736	-0.095704
C43	C	-0.454901	-0.934848	-0.467877
C44	C	0.045099	-0.434848	0.032123
C45	C	-0.454885	-1.044571	-0.467867
C46	C	0.045115	-0.544571	0.032133
C47	C	-0.295125	-1.109764	-0.659616
C48	C	0.204875	-0.609764	-0.159616
C49	C	-0.241877	-1.058351	-0.723537
C50	C	0.258123	-0.558351	-0.223537
C51	C	-0.241889	-0.948626	-0.723542
C52	C	0.258111	-0.448626	-0.223542
C53	C	-0.295148	-0.890315	-0.659625
C54	C	0.204852	-0.390315	-0.159625
C55	C	-0.618257	-1.478662	-0.545584
C56	C	-0.118257	-0.978662	-0.045584
C57	C	-0.710922	-1.472789	-0.551519
C58	C	-0.210922	-0.972789	-0.051519
C59	C	-0.880583	-1.462071	-0.562377
C60	C	-0.380583	-0.962071	-0.062377
C61	C	-0.921879	-1.523351	-0.501223
C62	C	-0.421879	-1.023351	-0.001223
C63	C	-1.016284	-1.517388	-0.507265
C64	C	-0.516284	-1.017388	-0.007265
C65	C	-0.786169	-1.468033	-0.556337
C66	C	-0.286169	-0.968033	-0.056337
C67	C	-0.184199	-1.506655	-0.517969
C68	C	0.315801	-1.006655	-0.017969
C69	C	-0.091534	-1.512637	-0.512078
C70	C	0.408466	-1.012637	-0.012078
C71	C	-0.401567	-1.492696	-0.805820
C72	C	0.098433	-0.992696	-0.305820
C73	C	-0.401531	-1.492730	-0.922594
C74	C	0.098469	-0.992730	-0.422594
C75	C	-0.401672	-0.766649	-0.531809
C76	C	0.098328	-0.266649	-0.031809
C77	C	-0.401655	-0.883427	-0.531799
C78	C	0.098345	-0.383427	-0.031799
C79	C	-0.348212	-1.563377	-0.974074
C80	C	0.151788	-1.063377	-0.474074
C81	C	-0.348182	-1.563404	-1.083796
C82	C	0.151818	-1.063404	-0.583796
C83	C	-0.454797	-1.422132	-1.090550
C84	C	0.045203	-0.922132	-0.590550
C85	C	-0.454823	-1.422101	-0.980829
C86	C	0.045177	-0.922101	-0.480829
C87	C	-0.294920	-1.634005	-0.915839
C88	C	0.205080	-1.134005	-0.415839
C89	C	-0.241597	-1.704660	-0.967319
C90	C	0.258403	-1.204660	-0.467319
C91	C	-0.241567	-1.704687	-1.077041
C92	C	0.258433	-1.204687	-0.577041
C93	C	-0.294860	-1.634059	-1.135284
C94	C	0.205140	-1.134059	-0.635284
C95	C	-0.401675	-1.492603	-0.258826
C96	C	0.098325	-0.992603	0.241174
C97	C	-0.401476	-1.492788	-0.142037
C98	C	0.098524	-0.992788	0.357963
H99	H	-0.295110	-1.199108	-0.659620
H100	H	0.204890	-0.699108	-0.159620
H101	H	-0.294941	-1.633994	-0.826498
H102	H	0.205059	-1.133994	-0.326498
H103	H	-0.294822	-1.634075	-1.224626
H104	H	0.205178	-1.134075	-0.724626
H105	H	-0.916126	-1.405132	-0.619265
H106	H	-0.416126	-0.905132	-0.119265
H107	H	-0.498185	-1.364631	-1.137979
H108	H	0.001815	-0.864631	-0.637979
H109	H	-0.886333	-1.580293	-0.444330
H110	H	-0.386333	-1.080293	0.055670
C111	C	-0.295155	-0.769614	-0.659631
C112	C	0.204845	-0.269614	-0.159631
N113	N	-0.295163	-0.678703	-0.659641
N114	N	0.204837	-0.178703	-0.159641
H115	H	-0.198143	-1.762209	-1.118952
H116	H	0.301857	-1.262209	-0.618952
H117	H	-0.498264	-0.887362	-0.415841
H118	H	0.001736	-0.387362	0.084159
C119	C	-0.513481	-1.344390	-0.924199
C120	C	-0.013481	-0.844390	-0.424199
N121	N	-0.557664	-1.285856	-0.881544
N122	N	-0.057664	-0.785856	-0.381544
H123	H	-0.198203	-1.762155	-0.919890
H124	H	0.301797	-1.262155	-0.419890
H125	H	-0.198526	-0.906769	-0.775581
H126	H	0.301474	-0.406769	-0.275581
C127	C	-0.183291	-1.122495	-0.793835
C128	C	0.316709	-0.622495	-0.293835
N129	N	-0.139163	-1.170808	-0.846785
N130	N	0.360837	-0.670808	-0.346785
C131	C	-0.513460	-1.101129	-0.397562
C132	C	-0.013460	-0.601129	0.102438
N133	N	-0.557578	-1.143729	-0.344605
N134	N	-0.057578	-0.643729	0.155395
