data_functionalizedCrystal
_audit_creation_method	'MofGen! by Chris Wilmer'
_symmetry_space_group_name_H-M	'P1'
_symmetry_Int_Tables_number	1
_symmetry_cell_setting	triclinic
loop_
_symmetry_equiv_pos_as_xyz
  x,y,z
_cell_length_a	19.076808
_cell_length_b	12.759395
_cell_length_c	19.076919
_cell_angle_alpha	87.718436
_cell_angle_beta	89.878360
_cell_angle_gamma	87.675989
loop_
_atom_site_label
_atom_site_type_symbol
_atom_site_fract_x
_atom_site_fract_y
_atom_site_fract_z
Zn1	Zn	-0.295732	-1.565242	-0.386045
Zn2	Zn	0.204268	-1.065242	0.113955
Zn3	Zn	-0.408527	-1.565684	-0.263815
Zn4	Zn	0.091473	-1.065684	0.236185
Zn5	Zn	-0.291032	-1.396886	-0.268554
Zn6	Zn	0.208968	-0.896886	0.231446
Zn7	Zn	-0.413210	-1.382740	-0.381283
Zn8	Zn	0.086790	-0.882740	0.118717
O9	O	-0.352125	-1.477638	-0.324924
O10	O	0.147875	-0.977638	0.175076
O11	O	-0.310701	-1.712320	-0.369840
O12	O	0.189299	-1.212320	0.130160
O13	O	-0.389014	-1.549398	-0.166112
O14	O	0.110986	-1.049398	0.333888
O15	O	-0.193319	-1.424954	-0.288116
O16	O	0.306681	-0.924954	0.211884
O17	O	-0.393571	-1.712646	-0.280038
O18	O	0.106429	-1.212646	0.219962
O19	O	-0.196772	-1.548644	-0.374436
O20	O	0.303228	-1.048644	0.125564
O21	O	-0.302691	-1.425383	-0.169594
O22	O	0.197309	-0.925383	0.330406
O23	O	-0.307232	-1.247990	-0.283498
O24	O	0.192768	-0.747990	0.216502
O25	O	-0.401553	-1.400844	-0.480246
O26	O	0.098447	-0.900844	0.019754
O27	O	-0.396996	-1.237596	-0.366320
O28	O	0.103004	-0.737596	0.133680
O29	O	-0.315242	-1.534927	-0.483744
O30	O	0.184758	-1.034927	0.016256
O31	O	-0.507484	-1.535681	-0.275420
O32	O	-0.007484	-1.035681	0.224580
O33	O	-0.510925	-1.401273	-0.361724
O34	O	-0.010925	-0.901273	0.138276
C35	C	-0.352113	-1.204672	-0.324907
C36	C	0.147887	-0.704672	0.175093
C37	C	-0.352125	-1.087894	-0.324916
C38	C	0.147875	-0.587894	0.175084
C39	C	-0.445735	-1.077111	-0.411006
C40	C	0.054265	-0.577111	0.088994
C41	C	-0.492545	-1.016858	-0.454052
C42	C	0.007455	-0.516858	0.045948
C43	C	-0.492552	-0.907136	-0.454058
C44	C	0.007448	-0.407136	0.045942
C45	C	-0.445744	-0.857664	-0.411015
C46	C	0.054256	-0.357664	0.088985
C47	C	-0.398934	-0.917917	-0.367969
C48	C	0.101066	-0.417917	0.132031
C49	C	-0.398933	-1.027641	-0.367966
C50	C	0.101067	-0.527641	0.132034
C51	C	-0.305321	-0.928700	-0.281883
C52	C	0.194679	-0.428700	0.218117
C53	C	-0.305316	-1.038423	-0.281873
C54	C	0.194684	-0.538423	0.218127
C55	C	-0.258513	-0.879228	-0.238840
C56	C	0.241487	-0.379228	0.261160
C57	C	-0.211705	-0.939481	-0.195790
C58	C	0.288295	-0.439481	0.304210
C59	C	-0.211700	-1.049210	-0.195785
C60	C	0.288300	-0.549210	0.304215
C61	C	-0.258506	-1.098675	-0.238827
C62	C	0.241494	-0.598675	0.261173
C63	C	-0.534703	-1.467018	-0.317556
C64	C	-0.034703	-0.967018	0.182444
C65	C	-0.612811	-1.462569	-0.314428
C66	C	-0.112811	-0.962569	0.185572
C67	C	-0.651246	-1.524825	-0.357936
C68	C	-0.151246	-1.024825	0.142064
C69	C	-0.724637	-1.520640	-0.354998
C70	C	-0.224637	-1.020640	0.145002
C71	C	-0.759593	-1.454205	-0.308547
C72	C	-0.259593	-0.954205	0.191453
C73	C	-0.721153	-1.391942	-0.265036
C74	C	-0.221153	-0.891942	0.234964
C75	C	-0.647763	-1.396121	-0.267979
C76	C	-0.147763	-0.896121	0.232021
C77	C	-0.978898	-1.434799	-0.294927
C78	C	-0.478898	-0.934799	0.205073
C79	C	-1.052293	-1.430627	-0.291986
C80	C	-0.552293	-0.930627	0.208014
C81	C	-1.055772	-1.559325	-0.381949
C82	C	-0.555772	-1.059325	0.118051
C83	C	-0.982380	-1.563503	-0.384884
C84	C	-0.482380	-1.063503	0.115116
C85	C	-0.943948	-1.501236	-0.341377
C86	C	-0.443948	-1.001236	0.158623
N87	N	-0.834610	-1.449928	-0.305541
N88	N	-0.334610	-0.949928	0.194459
N89	N	-0.868931	-1.505508	-0.344387
N90	N	-0.368931	-1.005508	0.155613
C91	C	-0.168835	-1.488328	-0.332336
C92	C	0.331165	-0.988328	0.167664
C93	C	-0.090727	-1.492883	-0.335495
C94	C	0.409273	-0.992883	0.164505
C95	C	-0.359444	-1.466258	-0.508204
C96	C	0.140556	-0.966258	-0.008204
C97	C	-0.362563	-1.461409	-0.586307
C98	C	0.137437	-0.961409	-0.086307
C99	C	-0.352135	-0.751670	-0.324937
C100	C	0.147865	-0.251670	0.175063
C101	C	-0.352131	-0.868447	-0.324929
C102	C	0.147869	-0.368447	0.175071
C103	C	-0.319093	-1.528937	-0.624823
C104	C	0.180907	-1.028937	-0.124823
C105	C	-0.322021	-1.524367	-0.698209
C106	C	0.177979	-1.024367	-0.198209
C107	C	-0.368423	-1.452274	-0.733078
C108	C	0.131577	-0.952274	-0.233078
C109	C	-0.411894	-1.384739	-0.694557
C110	C	0.088106	-0.884739	-0.194557
C111	C	-0.408962	-1.389304	-0.621172
C112	C	0.091038	-0.889304	-0.121172
C113	C	-0.382007	-1.431131	-0.952359
C114	C	0.117993	-0.931131	-0.452359
C115	C	-0.384937	-1.426574	-1.025749
C116	C	0.115063	-0.926574	-0.525749
C117	C	-0.295062	-1.566201	-1.029396
C118	C	0.204938	-1.066201	-0.529396
C119	C	-0.292137	-1.570764	-0.956010
C120	C	0.207863	-1.070764	-0.456010
C121	C	-0.335606	-1.503225	-0.917495
C122	C	0.164394	-1.003225	-0.417495
N123	N	-0.371418	-1.447604	-0.808090
N124	N	0.128582	-0.947604	-0.308090
N125	N	-0.332607	-1.507891	-0.842484
N126	N	0.167393	-1.007891	-0.342484
C127	C	-0.344784	-1.489037	-0.142359
C128	C	0.155216	-0.989037	0.357641
C129	C	-0.341467	-1.494102	-0.064265
C130	C	0.158533	-0.994102	0.435735
H131	H	-0.530654	-1.057150	-0.489098
H132	H	-0.030654	-0.557150	0.010902
Br133	Br	-1.107934	-1.643823	-0.440994
Br134	Br	-0.607934	-1.143823	0.059006
H135	H	-0.258509	-1.188017	-0.238825
H136	H	0.241491	-0.688017	0.261175
H137	H	-0.616471	-1.345424	-0.232550
H138	H	-0.116471	-0.845424	0.267450
Br139	Br	-0.256121	-1.626790	-0.577508
Br140	Br	0.243879	-1.126790	-0.077508
Br141	Br	-0.603813	-1.615001	-0.420975
Br142	Br	-0.103813	-1.115001	0.079025
Br143	Br	-0.556074	-0.825360	-0.512483
Br144	Br	-0.056074	-0.325360	-0.012483
Br145	Br	-0.768592	-1.301763	-0.202004
Br146	Br	-0.268592	-0.801763	0.297996
H147	H	-0.947612	-1.384101	-0.259500
H148	H	-0.447612	-0.884101	0.240500
H149	H	-0.173577	-1.098262	-0.160737
H150	H	0.326423	-0.598262	0.339263
Br151	Br	-0.445740	-1.226021	-0.410988
Br152	Br	0.054260	-0.726021	0.089012
Br153	Br	-0.263056	-1.616064	-0.750477
Br154	Br	0.236944	-1.116064	-0.250477
Br155	Br	-0.445743	-0.708754	-0.411037
Br156	Br	0.054257	-0.208754	0.088963
Br157	Br	-0.236070	-1.657854	-1.081669
Br158	Br	0.263930	-1.157854	-0.581669
Br159	Br	-1.099733	-1.340465	-0.228936
Br160	Br	-0.599733	-0.840465	0.271064
H161	H	-0.254354	-1.629472	-0.927624
H162	H	0.245646	-1.129472	-0.427624
Br163	Br	-0.447912	-1.328723	-1.073071
Br164	Br	0.052088	-0.828723	-0.573071
H165	H	-0.417413	-1.376151	-0.921009
H166	H	0.082587	-0.876151	-0.421009
H167	H	-0.755927	-1.571344	-0.390422
H168	H	-0.255927	-1.071344	0.109578
Br169	Br	-0.258516	-0.730318	-0.238854
Br170	Br	0.241484	-0.230318	0.261146
H171	H	-0.173594	-0.899192	-0.160751
H172	H	0.326406	-0.399192	0.339249
H173	H	-0.953921	-1.617600	-0.422709
H174	H	-0.453921	-1.117600	0.077291
Br175	Br	-0.474865	-1.286891	-0.741878
Br176	Br	0.025135	-0.786891	-0.241878
H177	H	-0.444353	-1.334305	-0.589814
H178	H	0.055647	-0.834305	-0.089814
