data_functionalizedCrystal
_audit_creation_method	'MofGen! by Chris Wilmer'
_symmetry_space_group_name_H-M	'P1'
_symmetry_Int_Tables_number	1
_symmetry_cell_setting	triclinic
loop_
_symmetry_equiv_pos_as_xyz
  x,y,z
_cell_length_a	16.109301
_cell_length_b	16.992695
_cell_length_c	14.586319
_cell_angle_alpha	89.995905
_cell_angle_beta	89.999213
_cell_angle_gamma	87.064852
loop_
_atom_site_label
_atom_site_type_symbol
_atom_site_fract_x
_atom_site_fract_y
_atom_site_fract_z
O1	O	1.109856	0.100784	-0.076183
O2	O	0.868631	0.113326	-0.076198
O3	O	0.988277	-0.007087	-0.076183
O4	O	0.990211	0.221197	-0.076198
O5	O	0.988268	-0.007089	0.076298
O6	O	0.868622	0.113324	0.076283
O7	O	1.109847	0.100782	0.076298
Cu8	Cu	0.989234	0.107053	0.090213
Cu9	Cu	0.989244	0.107055	-0.090113
O10	O	0.990202	0.221196	0.076283
C11	C	0.837618	0.112817	0.000041
C12	C	0.745221	0.111294	0.000035
C13	C	0.527480	0.179203	0.000042
C14	C	0.440664	0.177766	0.000048
C15	C	0.451005	0.034899	0.000053
C16	C	0.537819	0.036337	0.000054
C17	C	0.576055	0.108492	0.000043
C18	C	0.402424	0.105616	0.000049
C19	C	0.308294	0.104057	0.000055
C20	C	0.670191	0.110051	0.000039
C21	C	0.985784	-0.036300	0.000057
C22	C	0.978361	-0.123343	0.000056
C23	C	1.049987	-0.173601	0.000062
C24	C	1.043007	-0.255386	0.000052
C25	C	0.964400	-0.286911	0.000045
C26	C	0.892768	-0.236645	0.000037
C27	C	0.899749	-0.154862	0.000039
C28	C	0.935467	-0.530501	0.000030
C29	C	0.928491	-0.612291	0.000030
C30	C	1.078731	-0.631026	0.000045
C31	C	1.085704	-0.549240	0.000053
C32	C	1.014073	-0.498982	0.000040
N33	N	0.957263	-0.370508	0.000038
N34	N	1.021210	-0.415387	0.000040
C35	C	1.140860	0.101291	0.000057
C36	C	1.233257	0.102814	0.000057
C37	C	0.992694	0.250408	0.000041
C38	C	1.000118	0.337451	0.000036
N39	N	0.989232	0.107051	0.217045
N40	N	0.989252	0.107051	-0.216945
C41	C	1.042231	0.053750	0.452058
C42	C	1.042233	0.053748	0.548039
C43	C	0.936247	0.160355	0.548036
C44	C	0.936241	0.160352	0.452056
C45	C	0.989238	0.107051	0.404070
C46	C	0.989246	0.107051	0.596030
C47	C	0.989248	0.107050	0.700098
C48	C	0.989235	0.107051	0.299996
H49	H	1.113997	-0.147941	0.000074
C50	C	0.655969	0.244847	0.000028
C51	C	0.569510	0.258513	0.000034
H52	H	0.681913	0.293812	0.000018
H53	H	0.672317	0.215737	0.053199
H54	H	0.672312	0.215733	-0.053148
H55	H	0.553167	0.287622	0.053214
H56	H	0.553155	0.287635	-0.053143
C57	C	0.798298	-0.621513	-0.078385
C58	C	0.842083	-0.646949	0.000010
H59	H	0.744959	-0.642917	-0.078398
H60	H	0.792196	-0.565621	-0.078380
H61	H	0.828040	-0.638765	-0.131545
H62	H	0.812344	-0.629692	0.053171
H63	H	0.848181	-0.702854	0.000014
C64	C	0.925283	0.267056	0.344100
C65	C	0.877990	0.218948	0.399299
H66	H	0.889320	0.303224	0.311528
H67	H	0.961756	0.295270	0.381537
H68	H	0.956837	0.235300	0.301790
H69	H	0.846441	0.250704	0.441614
H70	H	0.841502	0.190732	0.361859
C71	C	0.439168	0.319126	0.000029
C72	C	0.387270	0.255495	0.000039
H73	H	0.406204	0.367113	0.000018
H74	H	0.473242	0.316715	0.053198
H75	H	0.473246	0.316708	-0.053149
H76	H	0.353197	0.257909	0.053221
H77	H	0.353182	0.257906	-0.053136
C78	C	0.831475	0.265722	0.538391
C79	C	0.877995	0.218943	0.600784
H80	H	0.795509	0.301888	0.570957
H81	H	0.867951	0.293937	0.500953
H82	H	0.799405	0.233064	0.500959
H83	H	0.910070	0.251601	0.638212
H84	H	0.841515	0.190726	0.638239
H85	H	0.841423	-0.113942	0.000035
C86	C	0.322515	-0.030742	0.000045
C87	C	0.408973	-0.044410	0.000052
H88	H	0.296569	-0.079706	0.000037
H89	H	0.306165	-0.001637	0.053215
H90	H	0.306174	-0.001623	-0.053133
H91	H	0.425314	-0.073524	0.053233
H92	H	0.425329	-0.073527	-0.053123
C93	C	0.539328	-0.105031	0.000048
C94	C	0.591220	-0.041395	0.000051
H95	H	0.572297	-0.153016	0.000043
H96	H	0.505253	-0.102625	0.053218
H97	H	0.505251	-0.102614	-0.053130
H98	H	0.625292	-0.043809	0.053233
H99	H	0.625309	-0.043802	-0.053124
C100	C	1.146986	-0.051633	0.461705
C101	C	1.100476	-0.004846	0.399310
H102	H	1.182939	-0.087812	0.429141
H103	H	1.179062	-0.018987	0.499131
H104	H	1.110497	-0.079840	0.499150
H105	H	1.136965	0.023366	0.361870
H106	H	1.068397	-0.037496	0.361869
C107	C	1.053197	-0.052962	0.655976
C108	C	1.100487	-0.004842	0.600786
H109	H	1.089163	-0.089137	0.688534
H110	H	1.021648	-0.021219	0.698290
H111	H	1.016719	-0.081173	0.618527
H112	H	1.136961	0.023374	0.638236
H113	H	1.132050	-0.036589	0.558467
C114	C	1.168927	-0.296517	-0.078310
C115	C	1.121744	-0.310626	0.000064
H116	H	1.217541	-0.330616	-0.078299
H117	H	1.136928	-0.306073	-0.131479
H118	H	1.184321	-0.243295	-0.078294
H119	H	1.106345	-0.363847	0.000045
H120	H	1.153749	-0.301076	0.053247
C121	C	1.215918	-0.540027	-0.078321
C122	C	1.172113	-0.514594	0.000060
H123	H	1.269262	-0.518634	-0.078314
H124	H	1.222008	-0.595920	-0.078317
H125	H	1.186196	-0.522761	-0.131491
H126	H	1.201832	-0.531864	0.053230
H127	H	1.166027	-0.458689	0.000064
C128	C	1.134742	-0.764713	0.000038
C129	C	1.157464	-0.686271	0.000046
H130	H	1.183353	-0.798817	0.000030
H131	H	1.102740	-0.774268	0.053207
H132	H	1.102735	-0.774253	-0.053140
H133	H	1.189467	-0.676729	0.053227
H134	H	1.189480	-0.676711	-0.053129
H135	H	0.877139	-0.489590	0.000020
H136	H	0.828765	-0.262319	0.000024
