data_functionalizedCrystal
_audit_creation_method	'MofGen! by Chris Wilmer'
_symmetry_space_group_name_H-M	'P1'
_symmetry_Int_Tables_number	1
_symmetry_cell_setting	triclinic
loop_
_symmetry_equiv_pos_as_xyz
  x,y,z
_cell_length_a	15.297475
_cell_length_b	25.639240
_cell_length_c	15.296720
_cell_angle_alpha	80.367210
_cell_angle_beta	88.382886
_cell_angle_gamma	80.333474
loop_
_atom_site_label
_atom_site_type_symbol
_atom_site_fract_x
_atom_site_fract_y
_atom_site_fract_z
Zn1	Zn	1.253298	-0.406890	0.726448
Zn2	Zn	1.753298	0.093110	1.226448
Zn3	Zn	1.278542	-0.482171	0.579936
Zn4	Zn	1.778542	0.017829	1.079936
Zn5	Zn	1.132184	-0.377519	0.554699
Zn6	Zn	1.632184	0.122481	1.054699
Zn7	Zn	1.106770	-0.477032	0.701066
Zn8	Zn	1.606770	0.022968	1.201066
O9	O	1.192698	-0.435903	0.640537
O10	O	1.692698	0.064097	1.140537
O11	O	1.379221	-0.431318	0.728196
O12	O	1.879221	0.068682	1.228196
O13	O	1.280328	-0.458148	0.454017
O14	O	1.780328	0.041852	0.954017
O15	O	1.148321	-0.308263	0.577543
O16	O	1.648321	0.191737	1.077543
O17	O	1.397768	-0.486627	0.620555
O18	O	1.897768	0.013373	1.120555
O19	O	1.237304	-0.329842	0.703726
O20	O	1.737304	0.170158	1.203726
O21	O	1.172799	-0.381261	0.435476
O22	O	1.672799	0.118739	0.935476
O23	O	1.006238	-0.376278	0.552931
O24	O	1.506238	0.123722	1.052931
O25	O	1.105007	-0.477868	0.827004
O26	O	1.605007	0.022132	1.327004
O27	O	0.987566	-0.449389	0.660466
O28	O	1.487566	0.050611	1.160466
O29	O	1.212661	-0.426335	0.845652
O30	O	1.712661	0.073665	1.345652
O31	O	1.255685	-0.554641	0.595943
O32	O	1.755685	-0.054641	1.095943
O33	O	1.129484	-0.550866	0.684937
O34	O	1.629484	-0.050866	1.184937
C35	C	0.965120	-0.409089	0.601207
C36	C	1.465120	0.090911	1.101207
C37	C	0.867757	-0.397632	0.584402
C38	C	1.367757	0.102368	1.084402
C39	C	0.554581	-0.517791	0.760647
C40	C	1.054581	-0.017791	1.260647
C41	C	0.646058	-0.528559	0.776434
C42	C	1.146058	-0.028559	1.276434
C43	C	0.701487	-0.495828	0.728428
C44	C	1.201487	0.004172	1.228428
C45	C	0.665430	-0.452327	0.664631
C46	C	1.165430	0.047673	1.164631
C47	C	0.573945	-0.441561	0.648838
C48	C	1.073945	0.058439	1.148838
C49	C	0.720851	-0.419598	0.616618
C50	C	1.220851	0.080402	1.116618
C51	C	0.684794	-0.376098	0.552822
C52	C	1.184794	0.123902	1.052822
C53	C	0.593317	-0.365333	0.537032
C54	C	1.093317	0.134667	1.037032
C55	C	0.537888	-0.398064	0.585039
C56	C	1.037888	0.101936	1.085039
C57	C	0.812337	-0.430365	0.632411
C58	C	1.312337	0.069635	1.132411
C59	C	0.831701	-0.354135	0.520602
C60	C	1.331701	0.145865	1.020602
C61	C	0.740223	-0.343367	0.504816
C62	C	1.240223	0.156633	1.004816
C63	C	1.192586	-0.571725	0.640447
C64	C	1.692586	-0.071725	1.140447
C65	C	1.192614	-0.629843	0.640452
C66	C	1.692614	-0.129843	1.140452
C67	C	1.239042	-1.001432	0.706346
C68	C	1.739042	-0.501432	1.206346
C69	C	1.239065	-1.056040	0.706369
C70	C	1.739065	-0.556040	1.206369
O71	O	1.278405	-1.093799	0.762299
O72	O	1.778405	-0.593799	1.262299
N73	N	1.192805	-1.072163	0.640643
N74	N	1.692805	-0.572163	1.140643
C75	C	1.146513	-1.033674	0.574896
C76	C	1.646513	-0.533674	1.074896
O77	O	1.107167	-1.052402	0.518993
O78	O	1.607167	-0.552402	1.018993
C79	C	1.146485	-0.979066	0.574878
C80	C	1.646485	-0.479066	1.074878
C81	C	1.192755	-0.962947	0.640603
C82	C	1.692755	-0.462947	1.140603
C83	C	1.285307	-0.985312	0.772067
C84	C	1.785307	-0.485312	1.272067
C85	C	1.285286	-0.930706	0.772043
C86	C	1.785286	-0.430706	1.272043
C87	C	1.238999	-0.892222	0.706299
C88	C	1.738999	-0.392222	1.206299
C89	C	1.192734	-0.908342	0.640579
C90	C	1.692734	-0.408342	1.140579
C91	C	1.100188	-0.940577	0.509135
C92	C	1.600188	-0.440577	1.009135
C93	C	1.100164	-0.885967	0.509123
C94	C	1.600164	-0.385967	1.009123
C95	C	1.146434	-0.869847	0.574848
C96	C	1.646434	-0.369847	1.074848
C97	C	1.146425	-0.815252	0.574812
C98	C	1.646425	-0.315252	1.074812
N99	N	1.192685	-0.799129	0.640538
N100	N	1.692685	-0.299129	1.140538
C101	C	1.238971	-0.837614	0.706282
C102	C	1.738971	-0.337614	1.206282
C103	C	1.146573	-1.148355	0.574939
C104	C	1.646573	-0.648355	1.074939
C105	C	1.146605	-1.202962	0.574952
C106	C	1.646605	-0.702962	1.074952
C107	C	1.239155	-1.225325	0.706427
C108	C	1.739155	-0.725325	1.206427
C109	C	1.239128	-1.170717	0.706409
C110	C	1.739128	-0.670717	1.206409
C111	C	1.192832	-1.132232	0.640665
C112	C	1.692832	-0.632232	1.140665
C113	C	1.238923	-0.722938	0.706227
C114	C	1.738923	-0.222938	1.206227
C115	C	1.238900	-0.668328	0.706196
C116	C	1.738900	-0.168328	1.206196
C117	C	1.146346	-0.645969	0.574724
C118	C	1.646346	-0.145969	1.074724
C119	C	1.146372	-0.700575	0.574753
C120	C	1.646372	-0.200575	1.074753
C121	C	1.192663	-0.739059	0.640512
C122	C	1.692663	-0.239059	1.140512
O123	O	1.107102	-0.777463	0.518913
O124	O	1.607102	-0.277463	1.018913
O125	O	1.278301	-0.818877	0.762181
O126	O	1.778301	-0.318877	1.262181
C127	C	1.421165	-0.462822	0.680022
C128	C	1.921165	0.037178	1.180022
C129	C	1.518524	-0.474293	0.696848
C130	C	2.018524	0.025707	1.196848
C131	C	1.153183	-0.454805	0.868998
C132	C	1.653183	0.045195	1.368998
C133	C	1.136344	-0.462859	0.966354
C134	C	1.636344	0.037141	1.466354
C135	C	1.192831	-0.299555	0.640651
C136	C	1.692831	0.200445	1.140651
C137	C	1.192888	-0.241451	0.640699
C138	C	1.692888	0.258549	1.140699
C139	C	1.232111	-0.417043	0.412974
C140	C	1.732111	0.082957	0.912974
C141	C	1.249119	-0.408861	0.315648
C142	C	1.749119	0.091139	0.815648
C143	C	1.313083	-0.378247	1.279622
C144	C	1.813083	0.121753	1.779622
C145	C	1.328910	-0.370680	1.188152
C146	C	1.828910	0.129320	1.688152
C147	C	1.280770	-0.393724	1.132698
C148	C	1.780770	0.106276	1.632698
C149	C	1.216800	-0.424336	1.168723
C150	C	1.716800	0.075664	1.668723
C151	C	1.200977	-0.431907	1.260203
C152	C	1.700977	0.068093	1.760203
C153	C	1.168663	-0.447384	1.113279
C154	C	1.668663	0.052616	1.613279
C155	C	1.104694	-0.477996	1.149304
C156	C	1.604694	0.022004	1.649304
C157	C	1.088873	-0.485565	1.240775
C158	C	1.588873	0.014435	1.740775
C159	C	1.137013	-0.462521	1.296229
C160	C	1.637013	0.037479	1.796229
C161	C	1.184486	-0.439814	1.021799
C162	C	1.684486	0.060186	1.521799
C163	C	1.072380	-0.493474	1.002380
C164	C	1.572380	0.006526	1.502380
C165	C	1.056553	-0.501040	1.093850
C166	C	1.556553	-0.001040	1.593850
H167	H	0.675410	-0.563978	0.828375
H168	H	1.175410	-0.063978	1.328375
Br169	Br	1.302248	-0.383455	1.008558
Br170	Br	1.802248	0.116545	1.508558
H171	H	0.563964	-0.329917	0.485076
H172	H	1.063964	0.170083	0.985076
Br173	Br	0.479358	-0.562217	0.825768
Br174	Br	0.979358	-0.062217	1.325768
H175	H	1.276804	-1.157597	0.759928
H176	H	1.776804	-0.657597	1.259928
Br177	Br	1.415724	-0.329139	1.139267
Br178	Br	1.915724	0.170861	1.639267
Br179	Br	1.115539	-0.472791	1.420373
Br180	Br	1.615539	0.027209	1.920373
Br181	Br	0.861261	-0.489400	0.718988
Br182	Br	1.361261	0.010600	1.218988
H183	H	1.033182	-0.512239	0.957229
H184	H	1.533182	-0.012239	1.457229
Br185	Br	1.083594	-0.722453	0.485543
Br186	Br	1.583594	-0.222453	0.985543
Br187	Br	1.348128	-1.037533	0.861307
Br188	Br	1.848128	-0.537533	1.361307
Br189	Br	0.413733	-0.383447	0.563624
Br190	Br	0.913733	0.116553	1.063624
Br191	Br	0.906920	-0.309715	0.455439
Br192	Br	1.406920	0.190285	0.955439
Br193	Br	0.969740	-0.542583	1.142751
Br194	Br	1.469740	-0.042583	1.642751
H195	H	0.710852	-0.307949	0.452872
H196	H	1.210852	0.192051	0.952872
Br197	Br	1.301703	-0.646456	0.795397
Br198	Br	1.801703	-0.146456	1.295397
H199	H	1.062511	-0.953691	0.455614
H200	H	1.562511	-0.453691	0.955614
Br201	Br	1.301747	-0.775158	0.795471
Br202	Br	1.801747	-0.275158	1.295471
H203	H	1.036791	-0.510496	1.270104
H204	H	1.536791	-0.010496	1.770104
Br205	Br	1.378419	-0.346984	1.354884
Br206	Br	1.878419	0.153016	1.854884
H207	H	1.276843	-1.256669	0.759960
H208	H	1.776843	-0.756669	1.259960
Br209	Br	1.348077	-0.908840	0.861251
Br210	Br	1.848077	-0.408840	1.361251
H211	H	1.062461	-0.854633	0.455587
H212	H	1.562461	-0.354633	0.955587
Br213	Br	1.083825	-1.224831	0.485738
Br214	Br	1.583825	-0.724831	0.985738
H215	H	0.775972	-0.504598	0.741285
H216	H	1.275972	-0.004598	1.241285
Br217	Br	1.083741	-1.096129	0.485702
Br218	Br	1.583741	-0.596129	0.985702
H219	H	1.108663	-0.614626	0.521194
H220	H	1.608663	-0.114626	1.021194
H221	H	1.236570	-0.414889	0.992477
H222	H	1.736570	0.085111	1.492477
