data_functionalizedCrystal
_audit_creation_method	'MofGen! by Chris Wilmer'
_symmetry_space_group_name_H-M	'P1'
_symmetry_Int_Tables_number	1
_symmetry_cell_setting	triclinic
loop_
_symmetry_equiv_pos_as_xyz
  x,y,z
_cell_length_a	17.077404
_cell_length_b	29.839131
_cell_length_c	29.839126
_cell_angle_alpha	89.968194
_cell_angle_beta	89.981324
_cell_angle_gamma	90.033199
loop_
_atom_site_label
_atom_site_type_symbol
_atom_site_fract_x
_atom_site_fract_y
_atom_site_fract_z
Zn1	Zn	1.199990	-0.178912	-0.253970
Zn2	Zn	1.199868	-0.254033	-0.178830
Zn3	Zn	1.068721	-0.178915	-0.178854
Zn4	Zn	1.068661	-0.254013	-0.253932
O5	O	1.134310	-0.216468	-0.216396
O6	O	1.309820	-0.188884	-0.244008
O7	O	1.182445	-0.244077	-0.115966
O8	O	1.086210	-0.116047	-0.188844
O9	O	1.309731	-0.244075	-0.188803
O10	O	1.182653	-0.116045	-0.244031
O11	O	1.086092	-0.188888	-0.115983
O12	O	0.958866	-0.188870	-0.188807
O13	O	1.086108	-0.244042	-0.316805
O14	O	0.958822	-0.244044	-0.243968
O15	O	1.182595	-0.188865	-0.316832
O16	O	1.182387	-0.316897	-0.188767
O17	O	1.085990	-0.316883	-0.243944
C18	C	0.930362	-0.216455	-0.216386
C19	C	0.843112	-0.216461	-0.216393
C20	C	0.802169	-0.187774	-0.245182
C21	C	0.720189	-0.187777	-0.245184
C22	C	0.679153	-0.216469	-0.216399
C23	C	0.720101	-0.245157	-0.187606
C24	C	0.802080	-0.245152	-0.187602
C25	C	0.549231	-0.245167	-0.187618
C26	C	0.467247	-0.245174	-0.187622
C27	C	0.467340	-0.187793	-0.245199
C28	C	0.549319	-0.187787	-0.245195
C29	C	0.590262	-0.216476	-0.216403
C30	C	1.134190	-0.333191	-0.216359
C31	C	1.134211	-0.383125	-0.216357
C32	C	1.184517	-0.692733	-0.245173
C33	C	1.184602	-0.880406	-0.245200
O34	O	1.227256	-0.904640	-0.269673
N35	N	1.134443	-0.903910	-0.216446
C36	C	1.084256	-0.880494	-0.187685
O37	O	1.041589	-0.904792	-0.163232
C38	C	1.084167	-0.692821	-0.187661
C39	C	1.134335	-0.669319	-0.216414
C40	C	1.234679	-0.669230	-0.273924
C41	C	1.234661	-0.622315	-0.273916
C42	C	1.184479	-0.598902	-0.245156
C43	C	1.134316	-0.622404	-0.216405
C44	C	1.033977	-0.669406	-0.158903
C45	C	1.033958	-0.622485	-0.158900
C46	C	1.084125	-0.598983	-0.187653
C47	C	1.084116	-0.552075	-0.187637
N48	N	1.134274	-0.528571	-0.216391
C49	C	1.184456	-0.551984	-0.245150
C50	C	1.084307	-0.979024	-0.187700
C51	C	1.084330	-1.025942	-0.187705
C52	C	1.184675	-1.025851	-0.245221
C53	C	1.184655	-0.978932	-0.245213
C54	C	1.134466	-0.955520	-0.216454
C55	C	1.184413	-0.453458	-0.245130
C56	C	1.184392	-0.406538	-0.245117
C57	C	1.084045	-0.406634	-0.187603
C58	C	1.084068	-0.453549	-0.187614
C59	C	1.134255	-0.476960	-0.216381
O60	O	1.041477	-0.527812	-0.163181
O61	O	1.227104	-0.527677	-0.269607
C62	C	1.184535	-0.739648	-0.245182
C63	C	1.134373	-0.763150	-0.216431
C64	C	1.084191	-0.739737	-0.187672
C65	C	1.134396	-0.810068	-0.216437
C66	C	1.184577	-0.833481	-0.245196
C67	C	1.234736	-0.809977	-0.273951
C68	C	1.234717	-0.763061	-0.273942
C69	C	1.034032	-0.763241	-0.158917
C70	C	1.034056	-0.810157	-0.158928
C71	C	1.084237	-0.833570	-0.187688
C72	C	1.339054	-0.216481	-0.216407
C73	C	1.426304	-0.216487	-0.216411
C74	C	1.134358	-0.216451	-0.333575
C75	C	1.134379	-0.216444	-0.383509
C76	C	1.134451	-0.099290	-0.216444
C77	C	1.134512	-0.049355	-0.216465
C78	C	1.084224	-0.187662	-0.693165
C79	C	1.084246	-0.187631	-0.880838
O80	O	1.041563	-0.163204	-0.905113
N81	N	1.134416	-0.216359	-0.904295
C82	C	1.184581	-0.245100	-0.880830
O83	O	1.227249	-0.269538	-0.905087
C84	C	1.184554	-0.245133	-0.693158
C85	C	1.134386	-0.216399	-0.669704
C86	C	1.034059	-0.158931	-0.669711
C87	C	1.034057	-0.158937	-0.622795
C88	C	1.084220	-0.187675	-0.599334
C89	C	1.134384	-0.216406	-0.622788
C90	C	1.234715	-0.273875	-0.669694
C91	C	1.234702	-0.273882	-0.622773
C92	C	1.184534	-0.245148	-0.599319
C93	C	1.184545	-0.245149	-0.552411
N94	N	1.134374	-0.216421	-0.528955
C95	C	1.084212	-0.187683	-0.552416
C96	C	1.184593	-0.245080	-0.979361
C97	C	1.184601	-0.245071	-1.026278
C98	C	1.084264	-0.187602	-1.026283
C99	C	1.084261	-0.187609	-0.979364
C100	C	1.134422	-0.216351	-0.955904
C101	C	1.084212	-0.187699	-0.453890
C102	C	1.084217	-0.187706	-0.406970
C103	C	1.184550	-0.245176	-0.406970
C104	C	1.184548	-0.245167	-0.453885
C105	C	1.134373	-0.216427	-0.477344
O106	O	1.227199	-0.269567	-0.528107
O107	O	1.041538	-0.163256	-0.528150
C108	C	1.084226	-0.187655	-0.740080
C109	C	1.134390	-0.216387	-0.763534
C110	C	1.184553	-0.245124	-0.740073
C111	C	1.134398	-0.216378	-0.810452
C112	C	1.084236	-0.187640	-0.833914
C113	C	1.034065	-0.158912	-0.810457
C114	C	1.034063	-0.158918	-0.763542
C115	C	1.234723	-0.273853	-0.763530
C116	C	1.234722	-0.273843	-0.810445
C117	C	1.184559	-0.245106	-0.833907
C118	C	1.134307	-0.216453	-0.099674
C119	C	1.134438	-0.216334	-0.049740
H120	H	0.582728	-0.164426	-0.268637
H121	H	1.043355	-0.164295	-0.472985
H122	H	1.225536	-1.044922	-0.268638
C123	C	0.846578	-0.156574	-0.276454
C124	C	0.793171	-0.131444	-0.301658
C125	C	0.834048	-0.102692	-0.330466
H126	H	0.878560	-0.173735	-0.296033
H127	H	0.878545	-0.136948	-0.259316
H128	H	0.761217	-0.151067	-0.318794
H129	H	0.761187	-0.114274	-0.282090
H130	H	0.866016	-0.083067	-0.313328
H131	H	0.866029	-0.119856	-0.350042
H132	H	0.797818	-0.085635	-0.347567
H133	H	0.434000	-0.164432	-0.268642
H134	H	1.225461	-0.268464	-1.045371
H135	H	0.433837	-0.268538	-0.164183
C136	C	0.979591	-0.597010	-0.127647
C137	C	1.024048	-0.570065	-0.098875
C138	C	0.973994	-0.546589	-0.070083
H139	H	0.949703	-0.617678	-0.110484
H140	H	0.945376	-0.578685	-0.144800
H141	H	1.058249	-0.588389	-0.081724
H142	H	1.053935	-0.549389	-0.116026
H143	H	0.939778	-0.528264	-0.087236
H144	H	0.944108	-0.567260	-0.052923
H145	H	1.004149	-0.528301	-0.050561
H146	H	1.225275	-0.472514	-0.268557
H147	H	0.993224	-0.135511	-0.829567
C148	C	1.239136	-0.276325	-0.381517
C149	C	1.316822	-0.266547	-0.392932
C150	C	1.367122	-0.295232	-0.369489
H151	H	1.227706	-0.306523	-0.389174
H152	H	1.231996	-0.272211	-0.350212
H153	H	1.323958	-0.270665	-0.424230
H154	H	1.328275	-0.236355	-0.385274
H155	H	1.359983	-0.291118	-0.338184
H156	H	1.355686	-0.325428	-0.377148
H157	H	1.419838	-0.288599	-0.377227
C158	C	1.029782	-1.051375	-0.156466
C159	C	0.985819	-1.020822	-0.131290
C160	C	0.935549	-1.044232	-0.102514
H161	H	1.059747	-1.069678	-0.136868
H162	H	0.995527	-1.069672	-0.173626
H163	H	1.020070	-1.002533	-0.114132
H164	H	0.955838	-1.002518	-0.150876
H165	H	0.901293	-1.062529	-0.119673
H166	H	0.965519	-1.062535	-0.082919
H167	H	0.905708	-1.023506	-0.085431
H168	H	0.993207	-0.135529	-0.688808
C169	C	0.593544	-0.276367	-0.156343
C170	C	0.540062	-0.301506	-0.131145
C171	C	0.580854	-0.330257	-0.102339
H172	H	0.625529	-0.259205	-0.136760
H173	H	0.625501	-0.295986	-0.173482
H174	H	0.508118	-0.281889	-0.114008
H175	H	0.508075	-0.318677	-0.150717
H176	H	0.612811	-0.349877	-0.119478
H177	H	0.612838	-0.313092	-0.082759
H178	H	0.544573	-0.347321	-0.085242
C179	C	0.979496	-0.127726	-0.597416
C180	C	0.935557	-0.102570	-0.628012
C181	C	0.885275	-0.073818	-0.604652
H182	H	1.009451	-0.108114	-0.579123
H183	H	0.945226	-0.144902	-0.579112
H184	H	0.969823	-0.085396	-0.646308
H185	H	0.905586	-0.122171	-0.646306
H186	H	0.851005	-0.090993	-0.586349
H187	H	0.915236	-0.054208	-0.586360
H188	H	0.855452	-0.056749	-0.625408
C189	C	1.029718	-0.953586	-0.156544
C190	C	0.979343	-0.926667	-0.181946
C191	C	0.929041	-0.903234	-0.153260
H192	H	1.059663	-0.935246	-0.136973
H193	H	0.999809	-0.974294	-0.139430
H194	H	1.009249	-0.905961	-0.199053
H195	H	0.949381	-0.944996	-0.201517
H196	H	0.899133	-0.923942	-0.136146
H197	H	0.958993	-0.884896	-0.133690
H198	H	0.894852	-0.884970	-0.170492
H199	H	1.043422	-0.164202	-1.045393
C200	C	1.289225	-0.305092	-0.835826
C201	C	1.333134	-0.330267	-0.805231
C202	C	1.383335	-0.359064	-0.828593
H203	H	1.323523	-0.287961	-0.854145
H204	H	1.259189	-0.324687	-0.854103
H205	H	1.363168	-0.310675	-0.786961
H206	H	1.298857	-0.347407	-0.786911
H207	H	1.353299	-0.378659	-0.846871
H208	H	1.417628	-0.341930	-0.846911
H209	H	1.413129	-0.376151	-0.807839
H210	H	0.993125	-0.688533	-0.135489
H211	H	0.686683	-0.268517	-0.164167
H212	H	1.275598	-0.829048	-0.297366
H213	H	1.043410	-0.164211	-0.960271
H214	H	1.275568	-0.743929	-0.297355
H215	H	1.275509	-0.603182	-0.297330
C216	C	1.289063	-0.305109	-0.738039
C217	C	1.244591	-0.333918	-0.711091
C218	C	1.294629	-0.362721	-0.687610
H219	H	1.323303	-0.287981	-0.719714
H220	H	1.318924	-0.322242	-0.758718
H221	H	1.214743	-0.316787	-0.690414
H222	H	1.210353	-0.351056	-0.729405
H223	H	1.324490	-0.379854	-0.708290
H224	H	1.328866	-0.345590	-0.669287
H225	H	1.264462	-0.382274	-0.669327
C226	C	1.029519	-0.478988	-0.156378
C227	C	0.985558	-0.448439	-0.131196
C228	C	0.935285	-0.471852	-0.102425
H229	H	1.059482	-0.497295	-0.136783
H230	H	0.995263	-0.497281	-0.173541
H231	H	1.019810	-0.430153	-0.114035
H232	H	0.955579	-0.430130	-0.150780
H233	H	0.901028	-0.490145	-0.119588
H234	H	0.965254	-0.490159	-0.082832
H235	H	0.905446	-0.451128	-0.085339
C236	C	1.239151	-0.276301	-0.953974
C237	C	1.283100	-0.301445	-0.984564
C238	C	1.333379	-0.330204	-0.961197
H239	H	1.209193	-0.295920	-0.935657
H240	H	1.273415	-0.259130	-0.935693
H241	H	1.248841	-0.318614	-1.002837
H242	H	1.313074	-0.281837	-1.002881
H243	H	1.367643	-0.313033	-0.942916
H244	H	1.303415	-0.349820	-0.942881
H245	H	1.363209	-0.347265	-0.981948
H246	H	1.275566	-0.297274	-0.688782
C247	C	1.029591	-0.381127	-0.156430
C248	C	1.040301	-0.335009	-0.162590
C249	C	0.990140	-0.311497	-0.133888
H250	H	1.041056	-0.388774	-0.126232
H251	H	0.976830	-0.388809	-0.162986
H252	H	1.093051	-0.327330	-0.156031
H253	H	1.028831	-0.327348	-0.192782
H254	H	0.937378	-0.319179	-0.140444
H255	H	1.001609	-0.319148	-0.103691
H256	H	0.997395	-0.280204	-0.138066
H257	H	1.225248	-0.387404	-0.268531
H258	H	1.275556	-0.297285	-0.603674
C259	C	0.979498	-0.835589	-0.127691
C260	C	0.935535	-0.805037	-0.102514
C261	C	0.885257	-0.828447	-0.073742
H262	H	1.009456	-0.853896	-0.108093
H263	H	0.945242	-0.853883	-0.144854
H264	H	0.969786	-0.786751	-0.085353
H265	H	0.905560	-0.786729	-0.122100
H266	H	0.851001	-0.846741	-0.090905
H267	H	0.915222	-0.846753	-0.054147
H268	H	0.855417	-0.807721	-0.056659
C269	C	1.289216	-0.694703	-0.305078
C270	C	1.339559	-0.721637	-0.279671
C271	C	1.389811	-0.745109	-0.308354
H272	H	1.319158	-0.674032	-0.322208
H273	H	1.259208	-0.713034	-0.324636
H274	H	1.369564	-0.703308	-0.260121
H275	H	1.309639	-0.742317	-0.262542
H276	H	1.359803	-0.763441	-0.327912
H277	H	1.419747	-0.724435	-0.325482
H278	H	1.423969	-0.763390	-0.291120
C279	C	1.239146	-0.953499	-0.276484
C280	C	1.283080	-0.984051	-0.301677
C281	C	1.333277	-0.960641	-0.330495
H282	H	1.273428	-0.935187	-0.259368
H283	H	1.209105	-0.935210	-0.296066
H284	H	1.313119	-1.002333	-0.282096
H285	H	1.248819	-1.002364	-0.318802
H286	H	1.303236	-0.942352	-0.350077
H287	H	1.367554	-0.942330	-0.313375
H288	H	1.363087	-0.981367	-0.347594
C289	C	0.979503	-0.127706	-0.738162
C290	C	0.935565	-0.102550	-0.768758
C291	C	0.885285	-0.073797	-0.745399
H292	H	1.009459	-0.108094	-0.719869
H293	H	0.945232	-0.144881	-0.719858
H294	H	0.969831	-0.085376	-0.787055
H295	H	0.905593	-0.122150	-0.787052
H296	H	0.851014	-0.090972	-0.727095
H297	H	0.915247	-0.054188	-0.727107
H298	H	0.855461	-0.056728	-0.766155
C299	C	0.979451	-0.737803	-0.127763
C300	C	0.929080	-0.710879	-0.153163
C301	C	0.878782	-0.687446	-0.124475
H302	H	1.009399	-0.719465	-0.108190
H303	H	0.949540	-0.758511	-0.110650
H304	H	0.958988	-0.690174	-0.170269
H305	H	0.899114	-0.729206	-0.172735
H306	H	0.848870	-0.708154	-0.107362
H307	H	0.908736	-0.669111	-0.104904
H308	H	0.844594	-0.669179	-0.141705
H309	H	1.225408	-0.268560	-0.472983
H310	H	0.686857	-0.164418	-0.268628
C311	C	1.029828	-0.156527	-0.381426
C312	C	1.040571	-0.162672	-0.335315
C313	C	0.990490	-0.133955	-0.311771
H314	H	0.977047	-0.163070	-0.389050
H315	H	1.041360	-0.126332	-0.389104
H316	H	1.029034	-0.192860	-0.327639
H317	H	1.093341	-0.156126	-0.327676
H318	H	1.002022	-0.103760	-0.319449
H319	H	0.937713	-0.140501	-0.319399
H320	H	0.997777	-0.138118	-0.280482
C321	C	0.846394	-0.276349	-0.156330
C322	C	0.792912	-0.301487	-0.131131
C323	C	0.833704	-0.330234	-0.102321
H324	H	0.878377	-0.259184	-0.136748
H325	H	0.878354	-0.295969	-0.173466
H326	H	0.760966	-0.281869	-0.113996
H327	H	0.760928	-0.318661	-0.150701
H328	H	0.865664	-0.349855	-0.119457
H329	H	0.865686	-0.313066	-0.082741
H330	H	0.797423	-0.347297	-0.085223
