data_functionalizedCrystal
_audit_creation_method	'MofGen! by Chris Wilmer'
_symmetry_space_group_name_H-M	'P1'
_symmetry_Int_Tables_number	1
_symmetry_cell_setting	triclinic
loop_
_symmetry_equiv_pos_as_xyz
  x,y,z
_cell_length_a	13.032831
_cell_length_b	16.625545
_cell_length_c	13.033277
_cell_angle_alpha	97.196176
_cell_angle_beta	90.889840
_cell_angle_gamma	82.830132
loop_
_atom_site_label
_atom_site_type_symbol
_atom_site_fract_x
_atom_site_fract_y
_atom_site_fract_z
Zn1	Zn	1.498268	-0.391687	0.780824
Zn2	Zn	1.520016	-0.545482	0.608831
Zn3	Zn	1.348162	-0.395930	0.587061
Zn4	Zn	1.326242	-0.511737	0.758961
O5	O	1.423172	-0.461209	0.683919
O6	O	1.645068	-0.424435	0.776269
O7	O	1.515495	-0.541541	0.462023
O8	O	1.368145	-0.282538	0.612803
O9	O	1.661047	-0.537427	0.649907
O10	O	1.478427	-0.279421	0.755160
O11	O	1.389234	-0.431667	0.446029
O12	O	1.201339	-0.398946	0.591604
O13	O	1.330786	-0.479914	0.905782
O14	O	1.185235	-0.484029	0.717898
O15	O	1.457173	-0.391714	0.921845
O16	O	1.494240	-0.653835	0.628707
O17	O	1.351875	-0.629043	0.739007
C18	C	1.155971	-0.438286	0.650017
C19	C	1.041658	-0.428497	0.635537
C20	C	0.982765	-0.466318	0.691476
C21	C	0.864617	-0.456201	0.676512
C22	C	1.423064	-0.670694	0.683873
C23	C	1.423108	-0.760317	0.683899
C24	C	1.423145	-0.833100	0.683925
C25	C	1.423202	-0.924411	0.683955
C26	C	1.423254	-0.997191	0.683975
C27	C	1.423310	-1.088508	0.684003
C28	C	1.691416	-0.484222	0.717955
C29	C	1.805726	-0.494028	0.732459
C30	C	1.389108	-0.431577	0.952174
C31	C	1.374593	-0.418949	1.066488
C32	C	1.423305	-0.250906	0.683992
C33	C	1.423362	-0.161287	0.684023
C34	C	1.430592	-0.467683	1.125366
C35	C	1.415591	-0.454633	1.243515
C36	C	1.457092	-0.490744	1.416707
C37	C	1.471599	-0.503374	1.302392
H38	H	1.019813	-0.506186	0.750449
C39	C	0.991613	-0.374631	0.555871
N40	N	0.953920	-0.334059	0.495863
H41	H	1.530657	-0.554759	1.265337
C42	C	1.335812	-0.385209	1.293574
N43	N	1.275723	-0.332921	1.331281
H44	H	1.489646	-0.519065	1.088305
C45	C	0.814576	-0.402333	0.596842
N46	N	0.776883	-0.361761	0.536834
C47	C	1.294818	-0.349529	1.116551
N48	N	1.234728	-0.297240	1.154257
C49	C	0.855764	-0.547896	0.812131
N50	N	0.893455	-0.588470	0.872139
