data_functionalizedCrystal
_audit_creation_method	'MofGen! by Chris Wilmer'
_symmetry_space_group_name_H-M	'P1'
_symmetry_Int_Tables_number	1
_symmetry_cell_setting	triclinic
loop_
_symmetry_equiv_pos_as_xyz
  x,y,z
_cell_length_a	9.065218
_cell_length_b	14.519709
_cell_length_c	13.596369
_cell_angle_alpha	89.993066
_cell_angle_beta	89.994623
_cell_angle_gamma	84.348015
loop_
_atom_site_label
_atom_site_type_symbol
_atom_site_fract_x
_atom_site_fract_y
_atom_site_fract_z
O1	O	1.957869	0.135228	-0.081796
O2	O	1.528376	0.146320	-0.081798
O3	O	1.754510	0.006619	-0.081788
O4	O	1.731735	0.274929	-0.081806
O5	O	1.754487	0.006611	0.081795
O6	O	1.528354	0.146312	0.081785
O7	O	1.957846	0.135221	0.081786
Zn8	Zn	1.743096	0.140765	0.107758
Zn9	Zn	1.743126	0.140775	-0.107770
O10	O	1.731713	0.274922	0.081777
C11	C	1.473398	0.145250	-0.000007
C12	C	1.309615	0.142063	-0.000007
C13	C	1.753437	-0.027752	0.000003
C14	C	1.750257	-0.130157	0.000004
C15	C	1.738547	-0.505138	-0.000022
C16	C	1.741799	-0.400807	-0.000014
C17	C	1.744402	-0.317651	-0.000008
C18	C	1.747654	-0.213313	-0.000003
C19	C	2.012824	0.136290	-0.000007
C20	C	2.176607	0.139478	-0.000013
C21	C	1.732785	0.309293	-0.000017
C22	C	1.735966	0.411697	-0.000024
N23	N	1.743087	0.140758	0.254850
N24	N	1.743147	0.140775	-0.254861
C25	C	1.743124	0.140776	0.656141
C26	C	1.743109	0.140774	0.544489
C27	C	1.743106	0.140768	0.455499
C28	C	1.743090	0.140764	0.343840
