data_functionalizedCrystal
_audit_creation_method	'MofGen! by Chris Wilmer'
_symmetry_space_group_name_H-M	'P1'
_symmetry_Int_Tables_number	1
_symmetry_cell_setting	triclinic
loop_
_symmetry_equiv_pos_as_xyz
  x,y,z
_cell_length_a	6.394989
_cell_length_b	10.654550
_cell_length_c	9.130313
_cell_angle_alpha	89.999724
_cell_angle_beta	90.001550
_cell_angle_gamma	94.508679
loop_
_atom_site_label
_atom_site_type_symbol
_atom_site_fract_x
_atom_site_fract_y
_atom_site_fract_z
O1	O	-0.293442	1.670947	-0.121679
O2	O	-0.321399	1.305765	-0.121705
O3	O	-0.003431	1.493540	-0.121693
O4	O	-0.611409	1.483173	-0.121692
O5	O	-0.003422	1.493526	0.121906
O6	O	-0.321389	1.305752	0.121893
O7	O	-0.293432	1.670934	0.121919
Cu8	Cu	-0.307410	1.488342	0.144149
Cu9	Cu	-0.307421	1.488357	-0.143935
O10	O	-0.611400	1.483159	0.121907
C11	C	-0.319341	1.258939	0.000091
C12	C	-0.313200	1.119430	0.000080
N13	N	-0.307401	1.488340	0.346772
C14	C	-0.500414	1.041927	0.000085
C15	C	-0.494631	0.910845	0.000110
C16	C	-0.114403	0.934782	0.000121
C17	C	-0.120188	1.065861	0.000106
C18	C	0.074425	1.491483	0.000101
C19	C	0.310750	1.485219	0.000099
C20	C	-0.295490	1.717760	0.000120
C21	C	-0.301631	1.857269	0.000121
N22	N	-0.307414	1.488369	-0.346558
C23	C	-0.166665	1.571516	0.423429
C24	C	-0.166665	1.571528	0.576766
C25	C	-0.448157	1.405184	0.576774
C26	C	-0.448145	1.405167	0.423440
H27	H	-0.657577	1.085539	0.000075
O28	O	-0.029609	1.652168	0.349050
C29	C	0.177491	1.628474	0.386613
H30	H	0.180004	1.527887	0.428757
H31	H	0.282189	1.641261	0.285809
H32	H	0.237745	1.697110	0.475642
H33	H	-0.647080	0.847747	0.000117
O34	O	0.072900	0.882535	0.000068
C35	C	0.037867	0.750221	0.000115
H36	H	-0.124727	0.722030	-0.046004
H37	H	0.161480	0.708044	-0.070602
H38	H	0.048521	0.713598	0.116985
H39	H	0.032274	1.128967	0.000106
H40	H	-0.052063	1.639256	0.639176
H41	H	-0.562750	1.337468	0.639213
O42	O	-0.585068	1.324321	0.349193
C43	C	-0.709271	1.250900	0.449739
H44	H	-0.712450	1.302444	0.559034
H45	H	-0.875817	1.234364	0.405420
H46	H	-0.639983	1.156524	0.466066
