data_functionalizedCrystal
_audit_creation_method	'MofGen! by Chris Wilmer'
_symmetry_space_group_name_H-M	'P1'
_symmetry_Int_Tables_number	1
_symmetry_cell_setting	triclinic
loop_
_symmetry_equiv_pos_as_xyz
  x,y,z
_cell_length_a	23.096457
_cell_length_b	23.196402
_cell_length_c	23.196402
_cell_angle_alpha	90.003744
_cell_angle_beta	60.000177
_cell_angle_gamma	60.005245
loop_
_atom_site_label
_atom_site_type_symbol
_atom_site_fract_x
_atom_site_fract_y
_atom_site_fract_z
Zr1	Zr	0.633737	-0.075646	0.555371
O2	O	0.754520	-0.167688	0.463316
O3	O	0.512952	-0.047434	0.583589
O4	O	0.633736	-0.167697	0.583582
O5	O	0.633737	0.047445	0.463332
O6	O	0.633737	-0.167700	0.678452
O7	O	0.633736	-0.047424	0.463324
O8	O	0.417677	0.047429	0.678465
O9	O	0.849798	-0.167684	0.463319
O10	O	0.562634	-0.035400	0.666427
O11	O	0.562634	0.035403	0.595632
O12	O	0.704842	-0.106192	0.595624
O13	O	0.704842	-0.035389	0.524829
Zr14	Zr	0.633741	0.075655	0.706691
Zr15	Zr	0.633739	-0.075651	0.706678
Zr16	Zr	0.633739	0.075661	0.555384
Zr17	Zr	0.785694	-0.075640	0.555375
Zr18	Zr	0.481784	0.075649	0.706687
O19	O	0.754526	0.047443	0.678473
O20	O	0.754523	-0.167695	0.678455
O21	O	0.754523	0.047451	0.463335
O22	O	0.512958	0.167697	0.798746
O23	O	0.512955	-0.047441	0.798728
O24	O	0.512955	0.167705	0.583607
O25	O	0.633741	-0.047436	0.798731
O26	O	0.633742	0.167707	0.678480
O27	O	0.633741	0.167710	0.583610
O28	O	0.633742	0.047434	0.798739
O29	O	0.849799	-0.167688	0.583587
O30	O	0.417679	0.167697	0.678475
O31	O	0.417680	0.167693	0.798743
O32	O	0.417679	0.047425	0.798733
O33	O	0.849799	-0.047415	0.463329
O34	O	0.849801	-0.047420	0.583598
O35	O	0.562636	0.106201	0.666438
O36	O	0.562636	0.035398	0.737233
O37	O	0.704844	-0.035394	0.666430
O38	O	0.704844	0.035409	0.595636
C39	C	0.443663	-0.000003	0.631026
C40	C	0.379154	-0.000006	0.631025
C41	C	0.633736	0.000011	0.441770
C42	C	0.633735	0.000013	0.377536
C43	C	0.633742	0.189266	0.631047
C44	C	0.633743	0.253500	0.631053
C45	C	0.348853	-0.036967	0.667974
C46	C	0.288230	-0.036961	0.667981
C47	C	0.257923	-0.000004	0.631025
C48	C	0.288228	0.036965	0.594074
C49	C	0.348843	0.036964	0.594074
N50	N	0.195526	-0.005127	0.570880
N51	N	0.137945	-0.005129	0.570882
C52	C	0.075291	0.000002	0.631024
N53	N	0.072400	0.005124	0.691164
N54	N	0.129988	0.005123	0.691161
C55	C	0.192195	0.000002	0.631021
C56	C	-0.020744	-0.036954	0.667984
C57	C	-0.081371	-0.036943	0.667993
C58	C	-0.081367	0.036978	0.594079
C59	C	-0.020747	0.036972	0.594077
C60	C	0.009563	0.000002	0.631028
C61	C	0.823814	0.000013	0.631036
C62	C	0.888324	0.000015	0.631038
C63	C	0.633736	-0.189257	0.631015
C64	C	0.633735	-0.253490	0.631010
C65	C	0.707972	0.246722	0.594097
C66	C	0.707973	0.307077	0.594087
C67	C	0.633741	0.374208	0.631046
C68	C	0.559502	0.380983	0.668002
C69	C	0.559503	0.320629	0.668006
C70	C	0.576870	0.498141	0.692946
C71	C	0.576872	0.558492	0.692944
C72	C	0.633735	0.560362	0.631034
C73	C	0.690609	0.501866	0.569125
C74	C	0.690610	0.441512	0.569129
C75	C	0.633731	0.439656	0.631046
C76	C	0.707970	0.619025	0.594064
C77	C	0.707968	0.679382	0.594052
C78	C	0.559495	0.753288	0.667974
C79	C	0.559499	0.692932	0.667979
C80	C	0.633739	0.625802	0.631026
C81	C	0.559506	0.036959	0.384319
C82	C	0.559505	0.036962	0.323965
C83	C	0.633737	0.000006	0.256828
C84	C	0.707976	-0.036942	0.250047
C85	C	0.707974	-0.036938	0.310401
C86	C	0.690608	-0.061902	0.132895
C87	C	0.690606	-0.061908	0.072543
C88	C	0.633743	-0.000005	0.070674
C89	C	0.576869	0.061903	0.129170
C90	C	0.576868	0.061906	0.189524
C91	C	0.633746	-0.000002	0.191380
C92	C	0.559508	0.036947	0.012016
C93	C	0.559510	0.036952	-0.048340
C94	C	0.707983	-0.036959	-0.122258
C95	C	0.707979	-0.036957	-0.061901
C96	C	0.633739	-0.000006	0.005233
C97	C	0.633742	-0.000002	0.820293
C98	C	0.633743	-0.000004	0.884526
C99	C	0.443666	-0.000010	0.820288
C100	C	0.379158	-0.000015	0.884520
C101	C	0.443666	0.189258	0.631042
C102	C	0.379158	0.253489	0.631046
C103	C	0.443669	0.189252	0.820304
C104	C	0.379161	0.253480	0.884541
C105	C	0.823809	-0.189242	0.441758
C106	C	0.888316	-0.253471	0.377521
C107	C	0.823812	0.000019	0.441774
C108	C	0.888320	0.000024	0.377542
C109	C	0.823812	-0.189249	0.631020
C110	C	0.888320	-0.253480	0.631016
C111	C	0.348862	-0.036979	0.877724
C112	C	0.288258	-0.036998	0.938071
C113	C	0.257945	-0.000048	1.005213
C114	C	0.288247	0.036918	1.012008
C115	C	0.348854	0.036932	0.951662
C116	C	0.348865	0.320615	0.668008
C117	C	0.288260	0.380972	0.668009
C118	C	0.257946	0.374203	0.631052
C119	C	0.288244	0.307070	0.594085
C120	C	0.348852	0.246714	0.594081
C121	C	0.348868	0.246684	0.951668
C122	C	0.288264	0.307028	1.012032
C123	C	0.257951	0.374167	1.005267
C124	C	0.288251	0.380962	0.938133
C125	C	0.348857	0.320619	0.877771
C126	C	0.918617	-0.246675	0.310394
C127	C	0.979240	-0.307019	0.250031
C128	C	1.009556	-0.374158	0.256795
C129	C	0.979253	-0.380952	0.323929
C130	C	0.918635	-0.320609	0.384291
C131	C	0.918622	0.036982	0.384339
C132	C	0.979243	0.036984	0.323992
C133	C	1.009558	0.000032	0.256849
C134	C	0.979254	-0.036931	0.250054
C135	C	0.918638	-0.036936	0.310401
C136	C	0.918616	-0.246687	0.667981
C137	C	0.979221	-0.307033	0.667991
C138	C	1.009533	-0.374171	0.631032
C139	C	0.979232	-0.380962	0.594066
C140	C	0.918624	-0.320617	0.594061
H141	H	0.373528	-0.067068	0.698063
H142	H	0.893945	-0.192026	0.698077
N143	N	1.011893	-0.299700	0.707864
H144	H	0.983496	-0.248011	0.731269
H145	H	1.072740	-0.323128	0.673935
N146	N	1.011929	0.076843	0.331332
H147	H	1.054939	0.071235	0.282919
H148	H	1.037017	0.057427	0.358029
H149	H	0.373540	0.326140	0.698103
N150	N	0.255586	0.453373	0.707884
H151	H	0.283983	0.448498	0.731300
H152	H	0.194740	0.480024	0.745038
N153	N	0.381546	-0.076833	0.805311
H154	H	0.406699	-0.128534	0.799651
H155	H	0.424505	-0.071163	0.768152
N156	N	1.011947	-0.453368	0.331221
H157	H	1.037099	-0.459034	0.357881
H158	H	1.054909	-0.490514	0.282770
H159	H	0.263557	0.067001	1.066683
N160	N	1.074936	0.000042	0.191764
H161	H	1.089526	0.029066	0.206264
H162	H	1.053797	0.021061	0.162743
N163	N	0.192575	0.439304	0.631061
H164	H	0.177986	0.482853	0.660089
H165	H	0.142318	0.439271	0.652079
N166	N	0.255584	-0.076870	0.930733
H167	H	0.283982	-0.100268	0.879040
H168	H	0.194738	-0.042945	0.954167
N169	N	0.011951	0.076825	0.554210
H170	H	0.054950	0.071216	0.559817
H171	H	-0.034337	0.128507	0.573617
N172	N	0.381562	0.174276	0.958978
H173	H	0.424555	0.137073	0.910557
H174	H	0.335272	0.168682	0.985670
N175	N	-0.114051	-0.076813	0.707848
H176	H	-0.103510	-0.113997	0.673948
H177	H	-0.174883	-0.042875	0.745045
N178	N	0.255590	0.299691	1.084434
H179	H	0.283987	0.248001	1.079554
H180	H	0.194744	0.323120	1.111090
H181	H	0.373515	0.326162	0.823115
H182	H	0.893944	0.067078	0.439004
N183	N	1.074910	-0.439259	0.631030
H184	H	1.053819	-0.468312	0.652061
H185	H	1.089480	-0.424711	0.660043
H186	H	0.208594	-0.000065	1.054345
N187	N	-0.114053	0.076847	0.554225
H188	H	-0.157053	0.071242	0.559833
H189	H	-0.067765	0.057446	0.502540
N190	N	0.788040	0.174321	0.554270
H191	H	0.835064	0.179189	0.530866
H192	H	0.791306	0.147638	0.517110
H193	H	0.373513	0.067037	0.957205
N194	N	0.192583	0.439249	1.070375
H195	H	0.177994	0.424749	1.113924
H196	H	0.142325	0.468270	1.070347
N197	N	1.011915	-0.299681	0.177628
H198	H	0.983502	-0.247992	0.182508
H199	H	1.001372	-0.323115	0.150970
N200	N	0.381536	0.076822	0.554210
H201	H	0.424537	0.071211	0.559816
H202	H	0.335249	0.128505	0.573620
H203	H	0.768420	0.301558	0.563991
N204	N	0.255540	0.299774	0.554230
H205	H	0.212545	0.348198	0.559851
H206	H	0.230428	0.273092	0.573640
H207	H	0.499058	0.067049	0.329488
H208	H	1.003922	-0.435633	0.563975
H209	H	1.003945	-0.067016	0.195379
N210	N	0.381564	0.174315	0.554170
H211	H	0.353173	0.179192	0.530748
H212	H	0.371041	0.147624	0.588065
N213	N	0.885944	-0.076788	0.303070
H214	H	0.896485	-0.113984	0.326456
H215	H	0.914360	-0.100147	0.251365
N216	N	0.885944	-0.327938	0.456694
H217	H	0.932186	-0.354598	0.462350
H218	H	0.860794	-0.354586	0.462285
N219	N	0.255552	0.453378	0.930842
H220	H	0.212559	0.490568	0.979271
H221	H	0.230439	0.458973	0.904161
H222	H	0.893964	-0.326157	0.563957
H223	H	0.893937	-0.192012	0.304873
N224	N	1.074931	-0.439242	0.191690
H225	H	1.125223	-0.439260	0.162645
H226	H	1.053759	-0.439224	0.162698
N227	N	0.255537	-0.076829	0.707829
H228	H	0.230390	-0.057455	0.759532
H229	H	0.301817	-0.128520	0.688377
N230	N	0.255539	0.076831	0.554218
H231	H	0.212542	0.071223	0.559824
H232	H	0.301829	0.057432	0.502534
H233	H	0.499062	0.435646	0.698093
N234	N	0.011950	-0.076823	0.707838
H235	H	-0.016451	-0.100233	0.731252
H236	H	0.001410	-0.042894	0.744992
N237	N	0.751942	0.378424	0.502361
H238	H	0.787967	0.388761	0.463137
H239	H	0.721962	0.368305	0.488599
H240	H	0.736913	0.503384	0.518712
N241	N	0.515527	0.128676	0.252610
H242	H	0.523113	0.166815	0.238332
H243	H	0.524185	0.119223	0.291102
N244	N	0.788039	0.546621	0.554203
H245	H	0.820489	0.540964	0.502500
H246	H	0.776711	0.509458	0.559871
N247	N	0.788032	0.672073	0.554190
H248	H	0.835059	0.620389	0.530785
H249	H	0.791257	0.695514	0.588128
H250	H	0.499054	0.698453	0.698076
N251	N	0.479426	0.825685	0.707842
H252	H	0.446973	0.831331	0.688457
H253	H	0.490752	0.862850	0.702222
N254	N	0.515538	0.621577	0.759715
H255	H	0.479510	0.611239	0.798933
H256	H	0.480615	0.664002	0.751334
H257	H	0.530557	0.496631	0.743363
H258	H	0.499055	0.067044	0.438980
N259	N	0.479440	0.327936	0.707876
H260	H	0.446979	0.354590	0.688495
H261	H	0.447058	0.354581	0.759567
N262	N	0.515533	0.128673	0.127163
H263	H	0.545448	0.142509	0.087233
H264	H	0.479522	0.167844	0.173404
N265	N	0.479442	0.076802	0.084429
H266	H	0.432416	0.100213	0.079566
H267	H	0.476209	0.113956	0.111082
H268	H	0.499062	0.067043	-0.042811
H269	H	0.768424	-0.067051	-0.176921
H270	H	0.768424	-0.067048	-0.067428
H271	H	0.736914	-0.112318	0.024920
H272	H	0.736925	-0.112311	0.134403
H273	H	0.768416	-0.067032	0.195380
H274	H	0.768422	-0.067022	0.304873
