data_functionalizedCrystal
_audit_creation_method	'MofGen! by Chris Wilmer'
_symmetry_space_group_name_H-M	'P1'
_symmetry_Int_Tables_number	1
_symmetry_cell_setting	triclinic
loop_
_symmetry_equiv_pos_as_xyz
  x,y,z
_cell_length_a	10.654541
_cell_length_b	10.654562
_cell_length_c	9.130313
_cell_angle_alpha	89.996930
_cell_angle_beta	89.998951
_cell_angle_gamma	84.487016
loop_
_atom_site_label
_atom_site_type_symbol
_atom_site_fract_x
_atom_site_fract_y
_atom_site_fract_z
O1	O	0.176469	1.667823	-0.121895
O2	O	0.193259	1.302347	-0.121877
O3	O	0.002125	1.493490	-0.121877
O4	O	0.367603	1.476680	-0.121894
O5	O	0.002130	1.493487	0.121721
O6	O	0.193264	1.302344	0.121722
O7	O	0.176474	1.667821	0.121704
Cu8	Cu	0.184870	1.485082	0.143955
Cu9	Cu	0.184864	1.485085	-0.144128
O10	O	0.367608	1.476678	0.121704
C11	C	0.192025	1.255548	-0.000075
C12	C	0.188327	1.116105	-0.000068
C13	C	0.186605	1.050573	0.132706
C14	C	0.183140	0.919551	0.132682
C15	C	0.183125	0.919604	-0.132903
C16	C	0.186581	1.050625	-0.132877
C17	C	0.186619	1.050541	0.286040
C18	C	0.183154	0.919519	0.286016
C19	C	-0.044671	1.492255	-0.000079
C20	C	-0.184114	1.488564	-0.000081
C21	C	-0.212075	1.717127	-0.000074
C22	C	-0.291564	1.829670	-0.000067
C23	C	-0.422582	1.826194	-0.000072
C24	C	-0.474113	1.710164	-0.000087
C25	C	-0.394623	1.597621	-0.000094
C26	C	-0.263604	1.601109	-0.000085
C27	C	-0.366663	1.369061	-0.000111
C28	C	-0.235645	1.372534	-0.000097
C29	C	-0.418194	1.253031	-0.000127
C30	C	-0.338704	1.140485	-0.000123
C31	C	-0.207679	1.143966	-0.000117
C32	C	-0.156156	1.259991	-0.000103
C33	C	0.414404	1.477913	-0.000097
C34	C	0.553848	1.481603	-0.000105
C35	C	0.177708	1.714620	-0.000101
C36	C	0.181406	1.854062	-0.000118
N37	N	0.184873	1.485090	0.346578
N38	N	0.184850	1.485088	-0.346751
C39	C	0.100268	1.569750	0.423230
C40	C	0.100253	1.569746	0.576567
C41	C	0.269459	1.400419	0.576586
C42	C	0.269467	1.400417	0.423252
C43	C	0.002582	1.667513	0.423219
C44	C	0.002567	1.667510	0.576556
H45	H	0.269952	0.873232	0.344877
O46	O	-0.084832	1.720730	-0.000120
C47	C	0.087845	1.851137	0.000016
C48	C	-0.056278	1.847235	0.000032
H49	H	0.110977	1.953406	0.000170
H50	H	0.129683	1.801524	-0.101954
H51	H	0.129576	1.801352	0.101937
H52	H	-0.098117	1.897033	-0.101820
H53	H	-0.098025	1.896807	0.102070
H54	H	0.033174	1.758696	0.375655
O55	O	-0.545436	1.249425	-0.000202
C56	C	-0.718108	1.119012	-0.000137
C57	C	-0.573986	1.122919	-0.000090
H58	H	-0.741236	1.016742	-0.000016
H59	H	-0.759931	1.168651	-0.102104
H60	H	-0.759857	1.168767	0.101788
H61	H	-0.532129	1.073149	-0.101945
H62	H	-0.532254	1.073320	0.101944
O63	O	0.073843	0.884421	0.342889
C64	C	-0.128093	0.952693	0.449586
C65	C	-0.004349	0.992617	0.385249
H66	H	-0.191357	1.040148	0.483823
H67	H	-0.106177	0.889798	0.549141
H68	H	-0.178390	0.898566	0.363315
H69	H	0.046009	1.046793	0.471412
H70	H	-0.026348	1.055451	0.285662
H71	H	0.338333	1.331480	0.639031
H72	H	-0.142965	1.052319	-0.000129
H73	H	-0.249593	1.924140	-0.000042
O74	O	0.351764	1.318124	0.349019
C75	C	0.519524	1.150106	0.365227
C76	C	0.426408	1.243261	0.449477
H77	H	0.579880	1.089537	0.446410
H78	H	0.582873	1.204791	0.293477
H79	H	0.464681	1.086964	0.293404
H80	H	0.481148	1.306426	0.521380
H81	H	0.363060	1.188498	0.521134
O82	O	-0.112629	1.641857	0.373807
C83	C	-0.322610	1.595279	0.437830
C84	C	-0.192190	1.624293	0.493988
H85	H	-0.386980	1.581097	0.534966
H86	H	-0.312052	1.505886	0.368525
H87	H	-0.365378	1.677474	0.368404
H88	H	-0.149349	1.542177	0.563474
H89	H	-0.202830	1.713730	0.563213
H90	H	-0.049475	1.262836	-0.000089
H91	H	-0.088657	1.636998	0.624109
H92	H	0.187964	1.103978	-0.240994
O93	O	0.028020	1.782686	0.626288
C94	C	-0.044636	1.965979	0.768404
C95	C	-0.073634	1.835584	0.712152
H96	H	-0.126794	2.008774	0.837862
H97	H	-0.030334	2.030412	0.671356
H98	H	0.044744	1.955240	0.837725
H99	H	-0.163026	1.846202	0.642855
H100	H	-0.087858	1.771198	0.809265
H101	H	-0.487303	1.917836	-0.000078
H102	H	0.181703	0.866273	-0.241031
H103	H	-0.580796	1.707344	-0.000109
H104	H	0.099826	1.096801	0.344927
H105	H	-0.380672	1.046022	-0.000145
H106	H	0.278216	1.080114	0.333612
