data_functionalizedCrystal
_audit_creation_method	'MofGen! by Chris Wilmer'
_symmetry_space_group_name_H-M	'P1'
_symmetry_Int_Tables_number	1
_symmetry_cell_setting	triclinic
loop_
_symmetry_equiv_pos_as_xyz
  x,y,z
_cell_length_a	19.077105
_cell_length_b	17.639789
_cell_length_c	19.076919
_cell_angle_alpha	81.481054
_cell_angle_beta	90.076224
_cell_angle_gamma	76.100290
loop_
_atom_site_label
_atom_site_type_symbol
_atom_site_fract_x
_atom_site_fract_y
_atom_site_fract_z
Zn1	Zn	-1.129833	0.382643	0.374434
Zn2	Zn	-0.796500	0.715977	0.707767
Zn3	Zn	-0.463166	1.049310	1.041100
Zn4	Zn	-1.158257	0.509816	0.234997
Zn5	Zn	-0.824924	0.843149	0.568330
Zn6	Zn	-0.491590	1.176482	0.901664
Zn7	Zn	-1.015069	0.372048	0.254054
Zn8	Zn	-0.681736	0.705381	0.587388
Zn9	Zn	-0.348403	1.038714	0.920721
Zn10	Zn	-1.035990	0.509339	0.347832
Zn11	Zn	-0.702656	0.842672	0.681165
Zn12	Zn	-0.369323	1.176005	1.014499
O13	O	-1.084787	0.443461	0.302829
O14	O	-0.751454	0.776795	0.636163
O15	O	-0.418121	1.110128	0.969496
O16	O	-1.232802	0.404147	0.359095
O17	O	-0.899469	0.737480	0.692428
O18	O	-0.566135	1.070813	1.025761
O19	O	-1.142403	0.487306	0.139924
O20	O	-0.809070	0.820639	0.473257
O21	O	-0.475737	1.153973	0.806591
O22	O	-1.009642	0.262774	0.289131
O23	O	-0.676309	0.596108	0.622465
O24	O	-0.342976	0.929441	0.955798
O25	O	-1.253685	0.497580	0.256651
O26	O	-0.920352	0.830913	0.589984
O27	O	-0.587018	1.164247	0.923318
O28	O	-1.093959	0.270559	0.377574
O29	O	-0.760625	0.603892	0.710907
O30	O	-0.427292	0.937225	1.044240
O31	O	-1.037204	0.386088	0.153925
O32	O	-0.703870	0.719422	0.487259
O33	O	-0.370537	1.052755	0.820592
O34	O	-0.918646	0.385626	0.263337
O35	O	-0.585313	0.718959	0.596670
O36	O	-0.251979	1.052292	0.930003
O37	O	-1.045298	0.496767	0.448962
O38	O	-0.711964	0.830100	0.782295
O39	O	-0.378631	1.163434	1.115628
O40	O	-0.934016	0.486493	0.332235
O41	O	-0.600683	0.819826	0.665568
O42	O	-0.267349	1.153160	0.998901
O43	O	-1.114244	0.403684	0.468506
O44	O	-0.780911	0.737018	0.801839
O45	O	-0.447578	1.070351	1.135173
O46	O	-1.162689	0.620431	0.230856
O47	O	-0.829355	0.953765	0.564190
O48	O	-0.496022	1.287098	0.897523
O49	O	-1.072859	0.620081	0.313756
O50	O	-0.739526	0.953414	0.647089
O51	O	-0.406193	1.286748	0.980422
C52	C	-1.123147	0.648956	0.267367
C53	C	-0.789814	0.982289	0.600700
C54	C	-0.456481	1.315622	0.934034
C55	C	-1.139622	0.736871	0.252222
C56	C	-0.806289	1.070204	0.585555
C57	C	-0.472955	1.403538	0.918888
C58	C	-1.078934	0.451354	0.484748
C59	C	-0.745601	0.784688	0.818082
C60	C	-0.412267	1.118021	1.151415
C61	C	-1.076440	0.454718	0.562271
C62	C	-0.743106	0.788051	0.895605
C63	C	-0.409773	1.121385	1.228938
C64	C	-0.900610	0.434858	0.296967
C65	C	-0.567277	0.768192	0.630301
C66	C	-0.233943	1.101525	0.963634
C67	C	-0.821821	0.431198	0.294473
C68	C	-0.488488	0.764531	0.627806
C69	C	-0.155155	1.097864	0.961139
C70	C	-1.269684	0.452098	0.308714
C71	C	-0.936350	0.785432	0.642048
C72	C	-0.603017	1.118765	0.975381
C73	C	-1.348476	0.455779	0.311222
C74	C	-1.015142	0.789112	0.644556
C75	C	-0.681809	1.122446	0.977889
C76	C	-0.792843	0.482067	0.329089
C77	C	-0.459510	0.815401	0.662422
C78	C	-0.126177	1.148734	0.995756
C79	C	-0.718811	0.478618	0.326750
C80	C	-0.385478	0.811951	0.660084
C81	C	-0.052144	1.145284	0.993417
C82	C	-0.673758	0.424301	0.289791
C83	C	-0.340425	0.757635	0.623124
C84	C	-0.007092	1.090968	0.956457
C85	C	-0.702740	0.373426	0.255173
C86	C	-0.369407	0.706760	0.588507
C87	C	-0.036074	1.040093	0.921840
C88	C	-0.776771	0.376873	0.257517
C89	C	-0.443438	0.710206	0.590850
C90	C	-0.110104	1.043540	0.924183
C91	C	-0.451488	0.408351	0.278949
C92	C	-0.118155	0.741684	0.612282
C93	C	0.215179	1.075017	0.945615
C94	C	-0.377453	0.404910	0.276606
C95	C	-0.044120	0.738243	0.609939
C96	C	0.289213	1.071576	0.943273
C97	C	-0.393529	0.510100	0.348184
C98	C	-0.060195	0.843433	0.681518
C99	C	0.273138	1.176767	1.014851
C100	C	-0.467561	0.513545	0.350521
C101	C	-0.134227	0.846878	0.683854
C102	C	0.199106	1.180212	1.017187
C103	C	-0.496536	0.462667	0.315907
C104	C	-0.163202	0.796001	0.649240
C105	C	0.170131	1.129334	0.982573
N106	N	-0.598086	0.420776	0.287397
N107	N	-0.264752	0.754109	0.620731
N108	N	0.068581	1.087442	0.954064
N109	N	-0.572206	0.466190	0.318305
N110	N	-0.238873	0.799523	0.651638
N111	N	0.094460	1.132857	0.984971
C112	C	-1.209639	0.860943	0.187760
C113	C	-0.876305	1.194277	0.521094
C114	C	-0.542972	1.527610	0.854427
C115	C	-1.194153	0.778333	0.201997
C116	C	-0.860819	1.111667	0.535330
C117	C	-0.527486	1.445000	0.868663
C118	C	-1.100558	0.778009	0.288233
C119	C	-0.767225	1.111343	0.621566
C120	C	-0.433892	1.444676	0.954900
C121	C	-1.116039	0.860621	0.274006
C122	C	-0.782706	1.193954	0.607340
C123	C	-0.449372	1.527288	0.940673
C124	C	-1.170579	0.902081	0.223769
C125	C	-0.837246	1.235415	0.557102
C126	C	-0.503913	1.568748	0.890436
C127	C	-1.076980	0.901759	0.310015
C128	C	-0.743647	1.235092	0.643348
C129	C	-0.410313	1.568426	0.976682
C130	C	-1.092457	0.984363	0.295787
C131	C	-0.759124	1.317697	0.629120
C132	C	-0.425790	1.651030	0.962453
C133	C	-1.146993	1.025830	0.245550
C134	C	-0.813660	1.359163	0.578883
C135	C	-0.480327	1.692496	0.912217
C136	C	-1.186057	0.984686	0.209541
C137	C	-0.852723	1.318019	0.542874
C138	C	-0.519390	1.651352	0.876207
C139	C	-1.022436	0.860297	0.360249
C140	C	-0.689103	1.193630	0.693582
C141	C	-0.355770	1.526963	1.026915
C142	C	-0.983377	0.901435	0.396257
C143	C	-0.650044	1.234768	0.729590
C144	C	-0.316710	1.568102	1.062924
C145	C	-0.998857	0.984041	0.382033
C146	C	-0.665524	1.317374	0.715366
C147	C	-0.332191	1.650708	1.048699
C148	C	-1.053394	1.025507	0.331796
C149	C	-0.720060	1.358841	0.665129
C150	C	-0.386727	1.692174	0.998463
C151	C	-0.959794	1.025185	0.418042
C152	C	-0.626461	1.358518	0.751375
C153	C	-0.293128	1.691852	1.084709
C154	C	-0.975271	1.107789	0.403814
C155	C	-0.641938	1.441123	0.737147
C156	C	-0.308605	1.774456	1.070480
C157	C	-1.068871	1.108112	0.317568
C158	C	-0.735538	1.441445	0.650901
C159	C	-0.402204	1.774778	0.984234
C160	C	-1.046276	1.237165	0.338434
C161	C	-0.712942	1.570498	0.671767
C162	C	-0.379609	1.903831	1.005101
C163	C	-1.029812	1.149250	0.353576
C164	C	-0.696478	1.482583	0.686909
C165	C	-0.363145	1.815916	1.020243
C166	C	-1.090648	0.435544	0.121629
C167	C	-0.757315	0.768877	0.454962
C168	C	-0.423981	1.102211	0.788296
C169	C	-1.093238	0.431964	0.044149
C170	C	-0.759905	0.765297	0.377482
C171	C	-0.426571	1.098631	0.710816
C172	C	-1.111163	0.407837	0.608868
C173	C	-0.777829	0.741170	0.942202
C174	C	-0.444496	1.074504	1.275535
C175	C	-1.108810	0.410994	0.681710
C176	C	-0.775476	0.744327	1.015043
C177	C	-0.442143	1.077661	1.348376
C178	C	-1.071738	0.461036	0.707952
C179	C	-0.738405	0.794370	1.041286
C180	C	-0.405071	1.127703	1.374619
C181	C	-1.037010	0.507919	0.661350
C182	C	-0.703677	0.841252	0.994683
C183	C	-0.370344	1.174586	1.328016
C184	C	-1.039359	0.504757	0.588510
C185	C	-0.706026	0.838091	0.921844
C186	C	-0.372693	1.171424	1.255177
C187	C	-1.060859	0.475685	0.924707
C188	C	-0.727526	0.809018	1.258041
C189	C	-0.394193	1.142352	1.591374
C190	C	-1.058515	0.478845	0.997552
C191	C	-0.725182	0.812178	1.330886
C192	C	-0.391848	1.145511	1.664219
C193	C	-1.130313	0.381918	1.017907
C194	C	-0.796980	0.715252	1.351241
C195	C	-0.463647	1.048585	1.684574
C196	C	-1.132663	0.378765	0.945065
C197	C	-0.799329	0.712098	1.278399
C198	C	-0.465996	1.045431	1.611732
C199	C	-1.097932	0.425644	0.898470
C200	C	-0.764599	0.758977	1.231803
C201	C	-0.431265	1.092311	1.565136
N202	N	-1.069334	0.464266	0.782407
N203	N	-0.736001	0.797600	1.115741
N204	N	-0.402667	1.130933	1.449074
N205	N	-1.100332	0.422409	0.824016
N206	N	-0.766999	0.755743	1.157350
N207	N	-0.433666	1.089076	1.490683
H208	H	-0.829521	0.526300	0.359183
H209	H	-0.496188	0.859633	0.692516
H210	H	-0.162855	1.192967	1.025849
H211	H	-1.028325	0.519597	1.018915
H212	H	-0.694991	0.852931	1.352249
H213	H	-0.361658	1.186264	1.685582
H214	H	-0.938968	0.867668	0.437159
H215	H	-0.605635	1.201002	0.770492
H216	H	-0.272302	1.534335	1.103826
Br217	Br	-0.922253	1.163624	0.452673
Br218	Br	-0.588920	1.496957	0.786006
Br219	Br	-0.255587	1.830291	1.119339
Br220	Br	-1.155976	0.347405	0.744941
Br221	Br	-0.822643	0.680739	1.078275
Br222	Br	-0.489309	1.014072	1.411608
H223	H	-1.032592	0.513870	0.886776
H224	H	-0.699259	0.847203	1.220109
H225	H	-0.365925	1.180536	1.553442
Br226	Br	-0.316312	0.331198	0.226434
Br227	Br	0.017022	0.664531	0.559767
Br228	Br	0.350355	0.997865	0.893101
Br229	Br	-0.816098	0.307829	0.210540
Br230	Br	-0.482764	0.641162	0.543874
Br231	Br	-0.149431	0.974495	0.877207
H232	H	-1.009830	0.793034	0.371825
H233	H	-0.676497	1.126368	0.705158
H234	H	-0.343164	1.459701	1.038491
H235	H	-0.475071	0.366928	0.250757
H236	H	-0.141738	0.700261	0.584090
H237	H	0.191595	1.033595	0.917424
H238	H	-1.006823	0.548662	0.682722
H239	H	-0.673489	0.881995	1.016056
H240	H	-0.340156	1.215328	1.349389
H241	H	-1.159594	1.093091	0.233966
H242	H	-0.826261	1.426425	0.567300
H243	H	-0.492927	1.759758	0.900633
H244	H	-1.141353	0.367090	0.587508
H245	H	-0.808020	0.700423	0.920841
H246	H	-0.474687	1.033756	1.254174
Br247	Br	-1.247157	0.722503	0.153111
Br248	Br	-0.913824	1.055837	0.486444
Br249	Br	-0.580491	1.389170	0.819778
Br250	Br	-1.182979	0.310850	0.909455
Br251	Br	-0.849646	0.644183	1.242789
Br252	Br	-0.516313	0.977517	1.576122
Br253	Br	-1.177443	0.318298	1.081147
Br254	Br	-0.844110	0.651632	1.414481
Br255	Br	-0.510777	0.984965	1.747814
Br256	Br	-1.283667	0.917220	0.119589
Br257	Br	-0.950334	1.250553	0.452922
Br258	Br	-0.617001	1.583886	0.786256
Br259	Br	-0.641597	0.299703	0.205021
Br260	Br	-0.308264	0.633037	0.538354
Br261	Br	0.025070	0.966370	0.871688
Br262	Br	-0.679486	0.547656	0.373734
Br263	Br	-0.346153	0.880990	0.707067
Br264	Br	-0.012820	1.214323	1.040400
Br265	Br	-1.260085	1.040962	0.141369
Br266	Br	-0.926752	1.374296	0.474703
Br267	Br	-0.593419	1.707629	0.808036
H268	H	-0.504239	0.557777	0.380615
H269	H	-0.170905	0.891110	0.713949
H270	H	0.162428	1.224443	1.047282
Br271	Br	-1.142900	1.164388	0.249396
Br272	Br	-0.809566	1.497721	0.582730
Br273	Br	-0.476233	1.831055	0.916063
Br274	Br	-0.354202	0.579148	0.395155
Br275	Br	-0.020869	0.912481	0.728488
Br276	Br	0.312464	1.245814	1.061821
Br277	Br	-0.885772	0.968907	0.486212
Br278	Br	-0.552438	1.302241	0.819545
Br279	Br	-0.219105	1.635574	1.152879
Br280	Br	-1.026543	0.721735	0.356411
Br281	Br	-0.693209	1.055068	0.689744
Br282	Br	-0.359876	1.388401	1.023077
Br283	Br	-0.992228	0.568379	0.525271
Br284	Br	-0.658895	0.901712	0.858604
Br285	Br	-0.325562	1.235045	1.191937
