data_functionalizedCrystal
_audit_creation_method	'MofGen! by Chris Wilmer'
_symmetry_space_group_name_H-M	'P1'
_symmetry_Int_Tables_number	1
_symmetry_cell_setting	triclinic
loop_
_symmetry_equiv_pos_as_xyz
  x,y,z
_cell_length_a	14.853567
_cell_length_b	14.519709
_cell_length_c	13.330367
_cell_angle_alpha	89.994415
_cell_angle_beta	89.995418
_cell_angle_gamma	83.657538
loop_
_atom_site_label
_atom_site_type_symbol
_atom_site_fract_x
_atom_site_fract_y
_atom_site_fract_z
O1	O	1.196416	0.120405	-0.083357
O2	O	1.696416	0.620405	0.416643
O3	O	0.933962	0.134748	-0.083374
O4	O	1.433962	0.634748	0.416626
O5	O	1.072147	-0.006665	-0.083356
O6	O	1.572147	0.493335	0.416644
O7	O	1.058230	0.261818	-0.083375
O8	O	1.558230	0.761818	0.416625
O9	O	1.072127	-0.006668	0.083491
O10	O	1.572127	0.493332	0.583491
O11	O	0.933942	0.134745	0.083473
O12	O	1.433942	0.634745	0.583473
O13	O	1.196395	0.120402	0.083491
O14	O	1.696395	0.620402	0.583491
Cu15	Cu	1.065167	0.127573	0.098716
Cu16	Cu	1.565167	0.627573	0.598716
Cu17	Cu	1.065190	0.127577	-0.098600
Cu18	Cu	1.565190	0.627577	0.401400
O19	O	1.058210	0.261814	0.083472
O20	O	1.558210	0.761814	0.583472
C21	C	0.900363	0.134096	0.000047
C22	C	1.400363	0.634096	0.500047
C23	C	0.800278	0.132149	0.000041
C24	C	1.300278	0.632149	0.500041
C25	C	0.387709	0.039914	0.000070
C26	C	0.887709	0.539914	0.500070
C27	C	0.366493	0.207916	0.000057
C28	C	0.866493	0.707916	0.500057
C29	C	0.460527	0.209747	0.000054
C30	C	0.960527	0.709747	0.500054
C31	C	0.518157	0.126660	0.000057
C32	C	1.018157	0.626660	0.500057
C33	C	0.481752	0.041743	0.000064
C34	C	0.981752	0.541743	0.500064
C35	C	0.496939	0.294663	0.000037
C36	C	0.996939	0.794663	0.500037
C37	C	0.590979	0.296498	0.000033
C38	C	1.090979	0.796498	0.500033
C39	C	0.648610	0.213410	0.000043
C40	C	1.148610	0.713410	0.500043
C41	C	0.612200	0.128489	0.000051
C42	C	1.112200	0.628489	0.500051
C43	C	0.669830	0.045403	0.000054
C44	C	1.169830	0.545403	0.500054
C45	C	0.633422	-0.039520	0.000069
C46	C	1.133422	0.460480	0.500069
C47	C	0.539383	-0.041345	0.000074
C48	C	1.039383	0.458655	0.500074
C49	C	0.742649	0.215235	0.000038
C50	C	1.242649	0.715235	0.500038
C51	C	0.763873	0.047231	0.000048
C52	C	1.263873	0.547231	0.500048
C53	C	1.071488	-0.041026	0.000068
C54	C	1.571488	0.458974	0.500068
C55	C	1.069545	-0.143407	0.000068
C56	C	1.569545	0.356593	0.500068
C57	C	1.062390	-0.518299	0.000042
C58	C	1.562390	-0.018299	0.500042
C59	C	1.064377	-0.413992	0.000050
C60	C	1.564377	0.086008	0.500050
C61	C	1.065967	-0.330856	0.000056
C62	C	1.565967	0.169144	0.500056
C63	C	1.067955	-0.226543	0.000062
C64	C	1.567955	0.273457	0.500062
C65	C	1.229994	0.121053	0.000067
C66	C	1.729994	0.621053	0.500067
C67	C	1.330079	0.123001	0.000067
C68	C	1.830079	0.623001	0.500067
C69	C	1.058869	0.296175	0.000046
C70	C	1.558869	0.796175	0.500046
C71	C	1.060812	0.398556	0.000039
C72	C	1.560812	0.898556	0.500039
N73	N	1.065157	0.127570	0.237498
N74	N	1.565157	0.627570	0.737498
N75	N	1.065208	0.127572	-0.237381
N76	N	1.565208	0.627572	0.262619
C77	C	1.003999	0.190170	0.710113
C78	C	1.503999	0.690170	1.210113
C79	C	1.126406	0.064976	0.710097
C80	C	1.626406	0.564976	1.210097
C81	C	1.126396	0.064974	0.605078
C82	C	1.626396	0.564974	1.105078
C83	C	1.065187	0.127571	0.552572
C84	C	1.565187	0.627571	1.052572
C85	C	1.003989	0.190170	0.605085
C86	C	1.503989	0.690170	1.105085
C87	C	1.187599	0.002381	0.552558
C88	C	1.687599	0.502381	1.052558
C89	C	1.187592	0.002376	0.447534
C90	C	1.687592	0.502376	0.947534
C91	C	1.126378	0.064970	0.395026
C92	C	1.626378	0.564970	0.895026
C93	C	1.065177	0.127572	0.447544
C94	C	1.565177	0.627572	0.947544
C95	C	1.003968	0.190169	0.395038
C96	C	1.503968	0.690169	0.895038
C97	C	0.942762	0.252767	0.447555
C98	C	1.442762	0.752767	0.947555
C99	C	0.942775	0.252764	0.552577
C100	C	1.442775	0.752764	1.052577
C101	C	1.126365	0.064973	0.290004
C102	C	1.626365	0.564973	0.790004
C103	C	1.003958	0.190170	0.290010
C104	C	1.503958	0.690170	0.790010
H105	H	0.450011	0.362307	0.000024
H106	H	0.950011	0.862307	0.500024
C107	C	1.193682	-0.003873	0.232235
C108	C	1.693682	0.496127	0.732235
H109	H	1.184914	0.005095	0.162168
H110	H	1.684914	0.505095	0.662168
H111	H	1.183806	-0.065443	0.249457
H112	H	1.683806	0.434557	0.749457
H113	H	1.253867	0.006269	0.249431
H114	H	1.753867	0.506269	0.749431
C115	C	0.696816	-0.130911	0.000064
C116	C	1.196816	0.369089	0.500064
H117	H	0.661669	-0.181751	0.000066
H118	H	1.161669	0.318249	0.500066
H119	H	0.733948	-0.133690	0.058238
H120	H	1.233948	0.366310	0.558238
H121	H	0.733933	-0.133680	-0.058136
H122	H	1.233933	0.366320	0.441864
H123	H	0.954163	0.241134	0.752874
H124	H	1.454163	0.741134	1.252874
H125	H	0.772288	0.284378	0.000027
H126	H	1.272288	0.784378	0.500027
C127	C	0.499332	-0.134748	0.000080
C128	C	0.999332	0.365252	0.500080
H129	H	0.435073	-0.123935	0.000070
H130	H	0.935073	0.376065	0.500070
H131	H	0.519097	-0.168969	0.058263
H132	H	1.019097	0.331031	0.558263
H133	H	0.519105	-0.168957	-0.058111
H134	H	1.019105	0.331043	0.441889
H135	H	0.358060	-0.029228	0.000086
H136	H	0.858060	0.470772	0.500086
H137	H	1.176245	0.014016	0.752851
H138	H	1.676245	0.514016	1.252851
C139	C	1.254928	-0.066459	0.389770
C140	C	1.754928	0.433541	0.889770
H141	H	1.246166	-0.057487	0.319702
H142	H	1.746166	0.442513	0.819702
H143	H	1.245066	-0.128036	0.406982
H144	H	1.745066	0.371964	0.906982
H145	H	1.315106	-0.056303	0.406977
H146	H	1.815106	0.443697	0.906977
H147	H	1.237438	-0.048579	0.595312
H148	H	1.737438	0.451421	1.095312
C149	C	0.631025	0.389903	0.000021
C150	C	1.131025	0.889903	0.500021
H151	H	0.695285	0.379096	0.000013
H152	H	1.195285	0.879096	0.500013
H153	H	0.611251	0.424120	0.058200
H154	H	1.111251	0.924120	0.558200
H155	H	0.611258	0.424115	-0.058174
H156	H	1.111258	0.924115	0.441826
C157	C	0.303104	0.299303	0.000056
C158	C	0.803104	0.799303	0.500056
H159	H	0.241884	0.286051	0.000066
H160	H	0.741884	0.786051	0.500066
H161	H	0.314157	0.334124	-0.058127
H162	H	0.814157	0.834124	0.441873
H163	H	0.314154	0.334110	0.058247
H164	H	0.814154	0.834110	0.558247
H165	H	0.954111	0.241141	0.247266
H166	H	1.454111	0.741141	0.747266
C167	C	0.875438	0.321624	0.389796
C168	C	1.375438	0.821624	0.889796
H169	H	0.838990	0.358910	0.436108
H170	H	1.338990	0.858910	0.936108
H171	H	0.837862	0.288378	0.348830
H172	H	1.337862	0.788378	0.848830
H173	H	0.907935	0.360078	0.348824
H174	H	1.407935	0.860078	0.848824
C175	C	0.827259	-0.044166	0.000046
C176	C	1.327259	0.455834	0.500046
H177	H	0.792105	-0.094999	0.000047
H178	H	1.292105	0.405001	0.500047
H179	H	0.864390	-0.046949	0.058222
H180	H	1.364390	0.453051	0.558222
H181	H	0.864379	-0.046942	-0.058152
H182	H	1.364379	0.453058	0.441848
C183	C	0.875464	0.321621	0.610346
C184	C	1.375464	0.821621	1.110346
H185	H	0.884246	0.312662	0.680413
H186	H	1.384246	0.812662	1.180413
H187	H	0.815279	0.311499	0.593156
H188	H	1.315279	0.811499	1.093156
H189	H	0.885358	0.383192	0.593122
H190	H	1.385358	0.883192	1.093122
