data_functionalizedCrystal
_audit_creation_method	'MofGen! by Chris Wilmer'
_symmetry_space_group_name_H-M	'P1'
_symmetry_Int_Tables_number	1
_symmetry_cell_setting	triclinic
loop_
_symmetry_equiv_pos_as_xyz
  x,y,z
_cell_length_a	10.654549
_cell_length_b	15.995292
_cell_length_c	9.730223
_cell_angle_alpha	89.998793
_cell_angle_beta	89.997731
_cell_angle_gamma	83.976697
loop_
_atom_site_label
_atom_site_type_symbol
_atom_site_fract_x
_atom_site_fract_y
_atom_site_fract_z
O1	O	1.666266	0.117604	-0.114248
O2	O	1.300638	0.128809	-0.114256
O3	O	1.493485	0.001374	-0.114254
O4	O	1.473419	0.245039	-0.114250
O5	O	1.493472	0.001370	0.114326
O6	O	1.300625	0.128805	0.114324
O7	O	1.666254	0.117600	0.114332
Zn8	Zn	1.483438	0.123202	0.150620
Zn9	Zn	1.483454	0.123207	-0.150544
O10	O	1.473407	0.245036	0.114330
C11	C	1.253845	0.127984	0.000033
C12	C	1.114434	0.125523	0.000029
C13	C	1.492662	-0.029828	0.000033
C14	C	1.490214	-0.122796	0.000022
C15	C	0.902947	0.198236	0.000035
C16	C	1.033936	0.200555	0.000027
C17	C	1.063937	0.048167	0.000025
C18	C	0.932949	0.045849	0.000023
C19	C	1.481213	-0.460586	0.000035
C20	C	1.620404	-0.436466	0.000549
C21	C	1.623050	-0.339775	0.000029
C22	C	1.485679	-0.293004	0.000029
C23	C	1.416097	-0.322507	-0.130498
C24	C	1.414421	-0.419308	-0.130603
C25	C	1.411565	-0.419185	0.129335
C26	C	1.416723	-0.322663	0.131056
C27	C	1.488196	-0.198294	0.000022
C28	C	1.478692	-0.555297	0.000033
C29	C	1.713047	0.118425	0.000041
C30	C	1.852457	0.120886	0.000035
C31	C	1.474230	0.276238	0.000040
C32	C	1.476678	0.369205	0.000042
N33	N	1.483436	0.123199	0.356156
N34	N	1.483466	0.123204	-0.356080
C35	C	1.568857	0.066794	0.428083
C36	C	1.568870	0.066795	0.571966
C37	C	1.398035	0.179611	0.571983
C38	C	1.398018	0.179606	0.428102
H39	H	1.075038	0.263541	0.000026
H40	H	1.316455	-0.290276	0.138939
O41	O	0.878482	-0.037583	0.000021
H42	H	0.819506	-0.042279	0.093179
O43	O	1.661022	0.005967	0.649539
H44	H	1.645067	-0.059411	0.621923
O45	O	1.305922	0.240459	0.649579
H46	H	1.320294	0.230995	0.761713
H47	H	1.677545	-0.320435	0.093594
H48	H	1.674050	-0.464153	0.094156
O49	O	1.305885	0.240447	0.350507
H50	H	1.246505	0.279681	0.424705
H51	H	0.837413	0.259336	0.000045
O52	O	1.660951	0.005932	0.350489
H53	H	1.646589	0.015401	0.238355
H54	H	1.129489	-0.012925	0.000018
H55	H	1.673762	-0.465172	-0.092531
H56	H	1.677877	-0.321051	-0.093700
H57	H	1.462621	-0.445843	-0.228175
H58	H	1.312365	-0.434450	-0.136516
O59	O	1.282194	-0.281078	-0.136951
H60	H	1.283147	-0.211812	-0.141536
O61	O	1.480422	-0.295875	-0.259178
H62	H	1.561897	-0.261596	-0.230498
O63	O	1.469314	-0.456269	0.260395
H64	H	1.548311	-0.504628	0.234831
H65	H	1.467389	-0.303805	0.227619
O66	O	1.275855	-0.438512	0.130529
H67	H	1.258036	-0.477411	0.039531
