data_functionalizedCrystal
_audit_creation_method	'MofGen! by Chris Wilmer'
_symmetry_space_group_name_H-M	'P1'
_symmetry_Int_Tables_number	1
_symmetry_cell_setting	triclinic
loop_
_symmetry_equiv_pos_as_xyz
  x,y,z
_cell_length_a	17.699077
_cell_length_b	16.176319
_cell_length_c	17.699104
_cell_angle_alpha	90.005487
_cell_angle_beta	96.713953
_cell_angle_gamma	90.003161
loop_
_atom_site_label
_atom_site_type_symbol
_atom_site_fract_x
_atom_site_fract_y
_atom_site_fract_z
O1	O	1.004086	0.068737	-0.095676
O2	O	1.337420	0.402071	0.237657
O3	O	1.670753	0.735404	0.570990
O4	O	0.783708	0.068742	-0.108133
O5	O	1.117042	0.402075	0.225200
O6	O	1.450375	0.735408	0.558533
O7	O	0.900115	0.068732	0.008283
O8	O	1.233449	0.402065	0.341617
O9	O	1.566782	0.735399	0.674950
O10	O	0.887679	0.068747	-0.212093
O11	O	1.221013	0.402080	0.121240
O12	O	1.554346	0.735414	0.454573
O13	O	0.900104	-0.068761	0.008262
O14	O	1.233437	0.264572	0.341596
O15	O	1.566771	0.597905	0.674929
O16	O	0.783697	-0.068752	-0.108155
O17	O	1.117030	0.264582	0.225179
O18	O	1.450364	0.597915	0.558512
O19	O	1.004075	-0.068756	-0.095698
O20	O	1.337409	0.264577	0.237636
O21	O	1.670742	0.597911	0.570969
Cu22	Cu	0.893885	-0.081308	-0.101928
Cu23	Cu	1.227218	0.252025	0.231405
Cu24	Cu	1.560552	0.585359	0.564739
Cu25	Cu	0.893898	0.081294	-0.101903
Cu26	Cu	1.227232	0.414627	0.231430
Cu27	Cu	1.560565	0.747960	0.564764
O28	O	0.887668	-0.068746	-0.212114
O29	O	1.221001	0.264587	0.121219
O30	O	1.554335	0.597920	0.454552
C31	C	0.755506	-0.000005	-0.107698
C32	C	1.088839	0.333329	0.225635
C33	C	1.422172	0.666662	0.558968
C34	C	0.671487	-0.000003	-0.106362
C35	C	1.004821	0.333330	0.226972
C36	C	1.338154	0.666664	0.560305
N37	N	0.893881	-0.195673	-0.101945
N38	N	1.227215	0.137660	0.231388
N39	N	1.560548	0.470993	0.564722
C40	C	0.632014	-0.074952	-0.105743
C41	C	0.965347	0.258382	0.227590
C42	C	1.298680	0.591715	0.560923
C43	C	0.553071	-0.074953	-0.104475
C44	C	0.886404	0.258381	0.228858
C45	C	1.219738	0.591714	0.562192
C46	C	0.513603	-0.000004	-0.103831
C47	C	0.846936	0.333329	0.229503
C48	C	1.180269	0.666662	0.562836
C49	C	0.553082	0.074950	-0.104447
C50	C	0.886415	0.408283	0.228886
C51	C	1.219749	0.741617	0.562220
C52	C	0.632024	0.074950	-0.105710
C53	C	0.965357	0.408283	0.227624
C54	C	1.298691	0.741617	0.560957
C55	C	0.234718	0.074951	-0.099354
C56	C	0.568052	0.408285	0.233980
C57	C	0.901385	0.741618	0.567313
C58	C	0.155771	0.074945	-0.098093
C59	C	0.489104	0.408279	0.235240
C60	C	0.822437	0.741612	0.568573
C61	C	0.155765	-0.074951	-0.098119
C62	C	0.489099	0.258382	0.235214
C63	C	0.822432	0.591715	0.568548
C64	C	0.234707	-0.074951	-0.099382
C65	C	0.568041	0.258382	0.233952
C66	C	0.901374	0.591715	0.567285
C67	C	0.274180	0.000002	-0.099994
C68	C	0.607514	0.333336	0.233339
C69	C	0.940847	0.666669	0.566673
C70	C	0.359779	0.000003	-0.101367
C71	C	0.693112	0.333336	0.231966
C72	C	1.026446	0.666669	0.565299
C73	C	0.428005	-0.000003	-0.102463
C74	C	0.761338	0.333330	0.230871
C75	C	1.094671	0.666663	0.564204
C76	C	0.848087	-0.761065	-0.056040
C77	C	1.181420	-0.427732	0.277293
C78	C	1.514754	-0.094399	0.610626
C79	C	0.848085	-0.674518	-0.056046
C80	C	1.181419	-0.341185	0.277287
C81	C	1.514752	-0.007852	0.610620
C82	C	0.893902	-0.631249	-0.101896
C83	C	1.227235	-0.297915	0.231437
C84	C	1.560568	0.035418	0.564770
C85	C	0.939728	-0.674530	-0.147738
C86	C	1.273061	-0.341197	0.185596
C87	C	1.606395	-0.007864	0.518929
C88	C	0.939733	-0.761076	-0.147727
C89	C	1.273066	-0.427742	0.185606
C90	C	1.606400	-0.094409	0.518939
C91	C	0.939709	-0.325502	-0.147780
C92	C	1.273043	0.007831	0.185553
C93	C	1.606376	0.341165	0.518886
C94	C	0.939699	-0.238950	-0.147789
C95	C	1.273032	0.094383	0.185544
C96	C	1.606366	0.427716	0.518878
C97	C	0.848062	-0.238945	-0.056100
C98	C	1.181395	0.094389	0.277234
C99	C	1.514728	0.427722	0.610567
C100	C	0.848067	-0.325490	-0.056089
C101	C	1.181400	0.007843	0.277244
C102	C	1.514733	0.341177	0.610578
C103	C	0.893896	-0.368764	-0.101927
C104	C	1.227229	-0.035431	0.231406
C105	C	1.560563	0.297902	0.564740
C106	C	0.893898	-0.462608	-0.101919
C107	C	1.227231	-0.129275	0.231414
C108	C	1.560565	0.204058	0.564748
C109	C	0.893896	-0.537406	-0.101909
C110	C	1.227229	-0.204073	0.231424
C111	C	1.560563	0.129261	0.564758
C112	C	1.032278	-0.000008	-0.096133
C113	C	1.365611	0.333325	0.237201
C114	C	1.698945	0.666659	0.570534
C115	C	1.116296	-0.000004	-0.097469
C116	C	1.449630	0.333329	0.235864
C117	C	1.782963	0.666663	0.569197
C118	C	0.899661	-0.000015	0.036469
C119	C	1.232995	0.333319	0.369803
C120	C	1.566328	0.666652	0.703136
C121	C	0.898317	-0.000015	0.120487
C122	C	1.231650	0.333318	0.453820
C123	C	1.564983	0.666651	0.787153
N124	N	0.893908	0.195659	-0.101880
N125	N	1.227242	0.528992	0.231453
N126	N	1.560575	0.862326	0.564787
C127	C	0.888122	0.000002	-0.240300
C128	C	1.221455	0.333336	0.093033
C129	C	1.554789	0.666669	0.426366
C130	C	0.889467	0.000008	-0.324318
C131	C	1.222800	0.333341	0.009016
C132	C	1.556134	0.666675	0.342349
C133	C	0.959061	0.000007	0.645359
C134	C	1.292394	0.333341	0.978692
C135	C	1.625727	0.666674	1.312026
C136	C	0.960320	-0.000000	0.566415
C137	C	1.293653	0.333333	0.899749
C138	C	1.626986	0.666666	1.233082
C139	C	0.891984	-0.000001	0.517796
C140	C	1.225318	0.333333	0.851130
C141	C	1.558651	0.666666	1.184463
C142	C	0.822385	-0.000002	0.548125
C143	C	1.155719	0.333331	0.881458
C144	C	1.489052	0.666664	1.214791
C145	C	0.821127	-0.000001	0.627067
C146	C	1.154460	0.333332	0.960400
C147	C	1.487794	0.666666	1.293734
C148	C	0.827458	-0.000009	0.229759
C149	C	1.160792	0.333324	0.563092
C150	C	1.494125	0.666657	0.896425
C151	C	0.828722	-0.000008	0.150811
C152	C	1.162055	0.333325	0.484145
C153	C	1.495389	0.666658	0.817478
C154	C	0.966651	-0.000009	0.169107
C155	C	1.299984	0.333325	0.502440
C156	C	1.633318	0.666658	0.835774
C157	C	0.965393	-0.000007	0.248049
C158	C	1.298726	0.333326	0.581383
C159	C	1.632059	0.666659	0.914716
C160	C	0.895794	-0.000013	0.278371
C161	C	1.229128	0.333320	0.611704
C162	C	1.562461	0.666653	0.945037
C163	C	0.894430	-0.000007	0.363971
C164	C	1.227763	0.333327	0.697304
C165	C	1.561097	0.666660	1.030637
C166	C	0.893348	-0.000001	0.432198
C167	C	1.226681	0.333332	0.765531
C168	C	1.560015	0.666665	1.098864
H169	H	0.664142	-0.135983	-0.106274
H170	H	0.997476	0.197350	0.227059
H171	H	1.330809	0.530683	0.560393
H172	H	0.977026	-0.360725	-0.185105
H173	H	1.310359	-0.027392	0.148228
H174	H	1.643692	0.305941	0.481561
Cl175	Cl	0.106138	-0.169181	-0.097346
Cl176	Cl	0.439471	0.164152	0.235988
Cl177	Cl	0.772805	0.497486	0.569321
H178	H	0.123638	0.135981	-0.097568
H179	H	0.456971	0.469314	0.235765
H180	H	0.790304	0.802648	0.569099
H181	H	0.766746	-0.000008	0.508533
H182	H	1.100079	0.333326	0.841866
H183	H	1.433412	0.666659	1.175199
Cl184	Cl	0.733634	-0.000005	0.665188
Cl185	Cl	1.066967	0.333329	0.998521
Cl186	Cl	1.400301	0.666662	1.331854
Cl187	Cl	0.790455	-0.620118	0.001559
Cl188	Cl	1.123788	-0.286785	0.334893
Cl189	Cl	1.457121	0.046548	0.668226
Cl190	Cl	0.790464	-0.379882	0.001550
Cl191	Cl	1.123797	-0.046548	0.334883
Cl192	Cl	1.457130	0.286785	0.668217
Cl193	Cl	0.790450	-0.184538	0.001530
Cl194	Cl	1.123783	0.148796	0.334863
Cl195	Cl	1.457116	0.482129	0.668196
H196	H	1.016990	-0.000002	0.541730
H197	H	1.350323	0.333331	0.875064
H198	H	1.683656	0.666665	1.208397
H199	H	0.520941	0.135974	-0.103917
H200	H	0.854275	0.469308	0.229416
H201	H	1.187608	0.802641	0.562750
H202	H	0.266848	0.135983	-0.099850
H203	H	0.600181	0.469317	0.233484
H204	H	0.933515	0.802650	0.566817
H205	H	0.520937	-0.135983	-0.103959
H206	H	0.854270	0.197350	0.229374
H207	H	1.187604	0.530684	0.562708
Cl208	Cl	0.681649	0.169175	-0.106484
Cl209	Cl	1.014982	0.502509	0.226850
Cl210	Cl	1.348315	0.835842	0.560183
H211	H	0.977036	-0.639293	-0.185066
H212	H	1.310369	-0.305960	0.148267
H213	H	1.643703	0.027374	0.481601
Cl214	Cl	1.054148	-0.000006	0.130984
Cl215	Cl	1.387481	0.333328	0.464317
Cl216	Cl	1.720815	0.666661	0.797651
Cl217	Cl	0.790482	-0.815453	0.001600
Cl218	Cl	1.123816	-0.482120	0.334933
Cl219	Cl	1.457149	-0.148787	0.668266
Cl220	Cl	0.997301	-0.184555	-0.205434
Cl221	Cl	1.330634	0.148778	0.127899
Cl222	Cl	1.663968	0.482112	0.461233
H223	H	0.977046	-0.796310	-0.185054
H224	H	1.310379	-0.462976	0.148279
H225	H	1.643713	-0.129643	0.481612
Cl226	Cl	0.284320	-0.169176	-0.100196
Cl227	Cl	0.617653	0.164158	0.233137
Cl228	Cl	0.950987	0.497491	0.566471
Cl229	Cl	1.044973	0.000014	0.706473
Cl230	Cl	1.378307	0.333347	1.039806
Cl231	Cl	1.711640	0.666681	1.373139
Cl232	Cl	1.051304	-0.000004	0.309166
Cl233	Cl	1.384637	0.333329	0.642500
Cl234	Cl	1.717970	0.666663	0.975833
H235	H	0.773072	-0.000011	0.111227
H236	H	1.106405	0.333323	0.444560
H237	H	1.439738	0.666656	0.777893
Cl238	Cl	0.739963	-0.000009	0.267867
Cl239	Cl	1.073296	0.333325	0.601200
Cl240	Cl	1.406630	0.666658	0.934533
