data_functionalizedCrystal
_audit_creation_method	'MofGen! by Chris Wilmer'
_symmetry_space_group_name_H-M	'P1'
_symmetry_Int_Tables_number	1
_symmetry_cell_setting	triclinic
loop_
_symmetry_equiv_pos_as_xyz
  x,y,z
_cell_length_a	12.645330
_cell_length_b	16.625548
_cell_length_c	12.645323
_cell_angle_alpha	90.024242
_cell_angle_beta	89.974347
_cell_angle_gamma	89.987756
loop_
_atom_site_label
_atom_site_type_symbol
_atom_site_fract_x
_atom_site_fract_y
_atom_site_fract_z
Zn1	Zn	-0.422035	-1.232752	-0.599485
Zn2	Zn	0.077965	-0.732752	-0.099485
Zn3	Zn	-0.599323	-1.232675	-0.422222
Zn4	Zn	-0.099323	-0.732675	0.077778
Zn5	Zn	-0.422073	-1.097909	-0.422224
Zn6	Zn	0.077927	-0.597909	0.077776
Zn7	Zn	-0.599256	-1.097908	-0.599433
Zn8	Zn	-0.099256	-0.597908	-0.099433
O9	O	-0.510672	-1.165311	-0.510841
O10	O	-0.010672	-0.665311	-0.010841
O11	O	-0.445564	-1.345574	-0.575992
O12	O	0.054436	-0.845574	-0.075992
O13	O	-0.575854	-1.214766	-0.273875
O14	O	-0.075854	-0.714766	0.226125
O15	O	-0.273721	-1.115830	-0.445761
O16	O	0.226279	-0.615830	0.054239
O17	O	-0.575817	-1.345517	-0.445758
O18	O	-0.075817	-0.845517	0.054242
O19	O	-0.273693	-1.214898	-0.575993
O20	O	0.226307	-0.714898	-0.075993
O21	O	-0.445630	-1.115754	-0.273877
O22	O	0.054370	-0.615754	0.226123
O23	O	-0.445565	-0.985077	-0.445711
O24	O	0.054435	-0.485077	0.054289
O25	O	-0.575704	-1.115827	-0.747787
O26	O	-0.075704	-0.615827	-0.247787
O27	O	-0.575741	-0.985076	-0.575905
O28	O	-0.075741	-0.485076	-0.075905
O29	O	-0.445500	-1.214897	-0.747825
O30	O	0.054500	-0.714897	-0.247825
O31	O	-0.747661	-1.214764	-0.445707
O32	O	-0.247661	-0.714764	0.054293
O33	O	-0.747612	-1.115752	-0.575903
O34	O	-0.247612	-0.615752	-0.075903
C35	C	-0.510651	-0.955820	-0.510803
C36	C	-0.010651	-0.455820	-0.010803
C37	C	-0.510667	-0.866199	-0.510812
C38	C	-0.010667	-0.366199	-0.010812
C39	C	-0.786102	-1.165272	-0.510823
C40	C	-0.286102	-0.665272	-0.010823
C41	C	-0.903932	-1.165328	-0.510850
C42	C	-0.403932	-0.665328	-0.010850
C43	C	-0.510665	-0.538023	-0.510844
C44	C	-0.010665	-0.038023	-0.010844
C45	C	-0.510663	-0.629332	-0.510831
C46	C	-0.010663	-0.129332	-0.010831
C47	C	-0.510667	-0.702108	-0.510827
C48	C	-0.010667	-0.202108	-0.010827
C49	C	-0.510664	-0.793423	-0.510816
C50	C	-0.010664	-0.293423	-0.010816
C51	C	-0.948800	-1.227688	-0.429015
C52	C	-0.448800	-0.727688	0.070985
C53	C	-1.071360	-1.227545	-0.428723
C54	C	-0.571360	-0.727545	0.071277
C55	C	-1.071938	-1.080357	-0.480827
C56	C	-0.571938	-0.580357	0.019173
C57	C	-0.949340	-1.080678	-0.480203
C58	C	-0.449340	-0.580678	0.019797
C59	C	-0.949012	-1.187282	-0.622976
C60	C	-0.449012	-0.687282	-0.122976
C61	C	-1.071617	-1.189197	-0.622408
C62	C	-0.571617	-0.689197	-0.122408
C63	C	-0.234167	-1.165373	-0.510883
C64	C	0.265833	-0.665373	-0.010883
C65	C	-0.116337	-1.165399	-0.510901
C66	C	0.383663	-0.665399	-0.010901
C67	C	-0.510590	-1.165370	-0.787347
C68	C	-0.010590	-0.665370	-0.287347
C69	C	-0.510555	-1.165396	-0.905177
C70	C	-0.010555	-0.665396	-0.405177
C71	C	-0.510687	-0.375620	-0.510870
C72	C	-0.010687	0.124380	-0.010870
C73	C	-0.510675	-0.465241	-0.510856
C74	C	-0.010675	0.034759	-0.010856
C75	C	-0.592080	-1.102879	-1.072717
C76	C	-0.092080	-0.602879	-0.572717
C77	C	-0.592484	-1.103043	-0.950157
C78	C	-0.092484	-0.603043	-0.450157
C79	C	-0.540874	-1.250356	-0.949699
C80	C	-0.040874	-0.750356	-0.449699
C81	C	-0.541385	-1.250013	-1.072297
C82	C	-0.041385	-0.750013	-0.572297
C83	C	-0.398255	-1.143755	-1.072375
C84	C	0.101745	-0.643755	-0.572375
C85	C	-0.398928	-1.141860	-0.949769
C86	C	0.101072	-0.641860	-0.449769
C87	C	-0.510677	-1.165298	-0.235411
C88	C	-0.010677	-0.665298	0.264589
C89	C	-0.510413	-1.165429	-0.117582
C90	C	-0.010413	-0.665429	0.382418
H91	H	-0.919255	-1.290918	-0.447578
H92	H	-0.419255	-0.790918	0.052422
H93	H	-0.573290	-1.039691	-1.102188
H94	H	-0.073290	-0.539691	-0.602188
H95	H	-1.102227	-1.147129	-0.686641
H96	H	-0.602227	-0.647129	-0.186641
H97	H	-0.919989	-1.141868	-0.683948
H98	H	-0.419989	-0.641868	-0.183948
N99	N	-0.567348	-1.019587	-0.910298
N100	N	-0.067348	-0.519587	-0.410298
H101	H	-0.628188	-0.999102	-0.866064
H102	H	-0.128188	-0.499102	-0.366064
H103	H	-0.501082	-1.021426	-0.865810
H104	H	-0.001082	-0.521426	-0.365810
H105	H	-0.674708	-1.117048	-1.103535
H106	H	-0.174708	-0.617048	-0.603535
H107	H	-0.484485	-1.298199	-1.101978
H108	H	0.015515	-0.798199	-0.601978
H109	H	-0.370619	-1.082881	-1.103278
H110	H	0.129381	-0.582881	-0.603278
H111	H	-1.102723	-1.061481	-0.399787
H112	H	-0.602723	-0.561481	0.100213
N113	N	-0.464576	-1.313742	-0.911101
N114	N	0.035424	-0.813742	-0.411101
H115	H	-0.504375	-1.355841	-0.869502
H116	H	-0.004375	-0.855841	-0.369502
H117	H	-0.428752	-1.339863	-0.973715
H118	H	0.071248	-0.839863	-0.473715
H119	H	-0.675632	-1.117351	-0.920842
H120	H	-0.175632	-0.617351	-0.420842
N121	N	-0.317652	-1.204090	-1.110824
N122	N	0.182348	-0.704090	-0.610824
H123	H	-0.245754	-1.189862	-1.081533
H124	H	0.254246	-0.689862	-0.581533
H125	H	-0.338347	-1.259648	-1.086057
H126	H	0.161653	-0.759648	-0.586057
H127	H	-1.101073	-1.032648	-0.538614
H128	H	-0.601073	-0.532648	-0.038614
H129	H	-0.334865	-1.184090	-0.919150
H130	H	0.165135	-0.684090	-0.419150
N131	N	-1.111130	-1.311067	-0.453575
N132	N	-0.611130	-0.811067	0.046425
H133	H	-1.049019	-1.348309	-0.464822
H134	H	-0.549019	-0.848309	0.035178
H135	H	-1.155403	-1.331310	-0.392656
H136	H	-0.655403	-0.831310	0.107344
N137	N	-0.907963	-1.267999	-0.659283
N138	N	-0.407963	-0.767999	-0.159283
H139	H	-0.859720	-1.291153	-0.603408
H140	H	-0.359720	-0.791153	-0.103408
H141	H	-0.969416	-1.305694	-0.671310
H142	H	-0.469416	-0.805694	-0.171310
H143	H	-1.100766	-1.213016	-0.345657
H144	H	-0.600766	-0.713016	0.154343
N145	N	-1.110041	-1.272093	-0.652467
N146	N	-0.610041	-0.772093	-0.152467
H147	H	-1.084980	-1.312405	-0.598252
H148	H	-0.584980	-0.812405	-0.098252
H149	H	-1.189866	-1.272273	-0.655045
H150	H	-0.689866	-0.772273	-0.155045
N151	N	-0.908088	-1.208652	-0.319594
N152	N	-0.408088	-0.708652	0.180406
H153	H	-0.931407	-1.152777	-0.298585
H154	H	-0.431407	-0.652777	0.201415
H155	H	-0.937290	-1.249035	-0.267579
H156	H	-0.437290	-0.749035	0.232421
N157	N	-0.911558	-1.056079	-0.371649
N158	N	-0.411558	-0.556079	0.128351
H159	H	-0.974542	-1.045131	-0.324651
H160	H	-0.474542	-0.545131	0.175349
H161	H	-0.867700	-1.100843	-0.340185
H162	H	-0.367700	-0.600843	0.159815
H163	H	-0.919662	-1.032621	-0.537232
H164	H	-0.419662	-0.532621	-0.037232
N165	N	-0.649985	-1.274346	-1.110206
N166	N	-0.149985	-0.774346	-0.610206
H167	H	-0.697076	-1.285192	-1.047277
H168	H	-0.197076	-0.785192	-0.547277
H169	H	-0.681263	-1.229500	-1.154043
H170	H	-0.181263	-0.729500	-0.654043
H171	H	-0.622004	-1.269041	-0.919010
H172	H	-0.122004	-0.769041	-0.419010
N173	N	-0.368624	-1.059045	-0.911219
N174	N	0.131376	-0.559045	-0.411219
H175	H	-0.422678	-1.018595	-0.936280
H176	H	0.077322	-0.518595	-0.436280
H177	H	-0.366118	-1.058888	-0.831392
H178	H	0.133882	-0.558888	-0.331392
