data_functionalizedCrystal
_audit_creation_method	'MofGen! by Chris Wilmer'
_symmetry_space_group_name_H-M	'P1'
_symmetry_Int_Tables_number	1
_symmetry_cell_setting	triclinic
loop_
_symmetry_equiv_pos_as_xyz
  x,y,z
_cell_length_a	14.853566
_cell_length_b	17.019294
_cell_length_c	15.500346
_cell_angle_alpha	82.952818
_cell_angle_beta	86.824420
_cell_angle_gamma	83.514243
loop_
_atom_site_label
_atom_site_type_symbol
_atom_site_fract_x
_atom_site_fract_y
_atom_site_fract_z
O1	O	1.200230	0.106602	-0.079826
O2	O	0.937785	0.118914	-0.080757
O3	O	1.075884	-0.002456	-0.071704
O4	O	1.062131	0.227972	-0.088879
O5	O	1.068377	-0.009001	0.072670
O6	O	0.930278	0.112369	0.063616
O7	O	1.192723	0.100057	0.064548
Cu8	Cu	1.060815	0.105615	0.077264
Cu9	Cu	1.069693	0.113356	-0.093474
O10	O	1.054624	0.221427	0.055494
C11	C	0.900442	0.115084	-0.008531
C12	C	0.800357	0.113413	-0.008412
C13	C	0.381255	0.109912	-0.086568
C14	C	0.373092	0.102777	0.070834
C15	C	0.467128	0.104346	0.070714
C16	C	0.518232	0.108700	-0.008047
C17	C	0.475300	0.111484	-0.086690
C18	C	0.510066	0.101570	0.149355
C19	C	0.604108	0.103140	0.149238
C20	C	0.655214	0.107488	0.070476
C21	C	0.612276	0.110272	-0.008170
C22	C	0.663380	0.114625	-0.086932
C23	C	0.620445	0.117403	-0.165578
C24	C	0.526406	0.115832	-0.165452
C25	C	0.749253	0.109059	0.070350
C26	C	0.757425	0.116197	-0.087054
C27	C	1.071461	-0.035218	0.002679
C28	C	1.069456	-0.123087	0.009222
C29	C	1.072607	-0.160795	-0.066401
C30	C	1.070717	-0.243357	-0.060250
C31	C	1.065681	-0.288209	0.021525
C32	C	1.062526	-0.250494	0.097154
C33	C	1.064410	-0.167934	0.091002
C34	C	1.059782	-0.537667	0.044037
C35	C	1.057901	-0.620234	0.050184
C36	C	1.066090	-0.613090	-0.107221
C37	C	1.067979	-0.530529	-0.113366
C38	C	1.064819	-0.492821	-0.037737
C39	C	1.063752	-0.372600	0.027815
C40	C	1.066743	-0.408430	-0.044027
C41	C	1.230066	0.103887	-0.007681
C42	C	1.330151	0.105558	-0.007806
C43	C	1.059047	0.254189	-0.018890
C44	C	1.061053	0.342058	-0.025440
N45	N	1.054577	0.100170	0.197353
N46	N	1.075938	0.118794	-0.213562
C47	C	1.023498	0.072775	0.744571
C48	C	1.028210	0.076923	0.653691
C49	C	1.085357	0.127096	0.604679
C50	C	1.137802	0.173117	0.646552
C51	C	1.133095	0.168964	0.737431
C52	C	1.102316	0.142038	0.330105
C53	C	1.107017	0.146190	0.239220
C54	C	0.997425	0.049994	0.246365
C55	C	0.992719	0.045849	0.337245
C56	C	1.045168	0.091867	0.379111
C57	C	1.090172	0.131339	0.511784
C58	C	1.040357	0.087619	0.472004
H59	H	0.491440	0.118093	-0.229482
N60	N	0.934351	-0.005399	0.387320
N61	N	0.930152	-0.009096	0.468460
H62	H	0.888925	-0.045287	0.503828
H63	H	0.331477	0.099237	0.134958
N64	N	1.057397	-0.296307	0.180688
N65	N	1.118356	-0.296700	0.233239
H66	H	1.114736	-0.329054	0.292237
H67	H	1.070837	-0.371907	-0.110608
H68	H	1.057227	-0.506978	0.105620
H69	H	1.053795	-0.656750	0.116778
H70	H	1.073287	-0.274055	-0.121831
H71	H	1.136700	0.172191	0.471869
N72	N	1.196193	0.224349	0.596484
N73	N	1.258341	0.195846	0.548052
H74	H	1.299581	0.232027	0.512689
H75	H	1.175797	0.206438	0.771517
N76	N	1.155865	0.189045	0.372884
N77	N	1.212763	0.155932	0.425883
H78	H	1.250578	0.189136	0.456104
H79	H	0.985510	0.039447	0.619608
N80	N	0.809610	0.120635	-0.167517
N81	N	0.771263	0.123112	-0.237723
H82	H	0.808118	0.126245	-0.294551
H83	H	0.784206	0.106805	0.134382
N84	N	0.457876	0.097131	0.229808
N85	N	0.457469	0.150669	0.278333
H86	H	0.420606	0.147534	0.335156
N87	N	1.061180	-0.129424	0.168258
N88	N	1.056680	-0.169477	0.241268
H89	H	1.054393	-0.142280	0.295833
H90	H	1.059654	-0.409129	0.094397
N91	N	0.965135	0.021522	0.794645
N92	N	0.960938	0.017817	0.875786
H93	H	0.919720	-0.018383	0.911151
N94	N	0.981984	0.036362	0.522050
N95	N	0.993114	-0.036921	0.517369
H96	H	0.951885	-0.073120	0.552719
H97	H	0.346294	0.112171	-0.150599
N98	N	0.943876	0.002961	0.203616
N99	N	0.892870	-0.041845	0.247388
H100	H	0.855056	-0.075073	0.217198
N101	N	0.672666	0.121843	-0.246021
N102	N	0.734225	0.067769	-0.259481
H103	H	0.771111	0.070904	-0.316292
H104	H	0.639058	0.100876	0.213277
N105	N	1.077772	-0.114985	-0.149933
N106	N	1.143794	-0.129043	-0.201397
H107	H	1.147442	-0.096691	-0.260394
N108	N	1.073125	-0.484728	-0.196905
N109	N	1.075937	-0.518407	-0.264421
H110	H	1.079573	-0.486061	-0.323423
H111	H	1.068660	-0.643800	-0.168794
H112	H	1.153551	0.187052	0.199316
