data_functionalizedCrystal
_audit_creation_method	'MofGen! by Chris Wilmer'
_symmetry_space_group_name_H-M	'P1'
_symmetry_Int_Tables_number	1
_symmetry_cell_setting	triclinic
loop_
_symmetry_equiv_pos_as_xyz
  x,y,z
_cell_length_a	13.897449
_cell_length_b	12.645330
_cell_length_c	13.897441
_cell_angle_alpha	89.972699
_cell_angle_beta	89.979267
_cell_angle_gamma	90.018972
loop_
_atom_site_label
_atom_site_type_symbol
_atom_site_fract_x
_atom_site_fract_y
_atom_site_fract_z
Zn1	Zn	1.474703	-0.421969	-0.545403
Zn2	Zn	1.474597	-0.599265	-0.384114
Zn3	Zn	1.313392	-0.422020	-0.384122
Zn4	Zn	1.313373	-0.599195	-0.545367
O5	O	1.394016	-0.510612	-0.464751
O6	O	1.609670	-0.445496	-0.524020
O7	O	1.453176	-0.575803	-0.249133
O8	O	1.334842	-0.273666	-0.405535
O9	O	1.609592	-0.575754	-0.405521
O10	O	1.453356	-0.273629	-0.524028
O11	O	1.334739	-0.445582	-0.249139
O12	O	1.178408	-0.445514	-0.405499
O13	O	1.334811	-0.575636	-0.680353
O14	O	1.178394	-0.575684	-0.523965
O15	O	1.453339	-0.445428	-0.680380
O16	O	1.453158	-0.747603	-0.405486
O17	O	1.334708	-0.747552	-0.523957
C18	C	1.143402	-0.510598	-0.464729
C19	C	1.036188	-0.510618	-0.464743
C20	C	0.839893	-0.510621	-0.464768
C21	C	0.949125	-0.510616	-0.464751
C22	C	1.393946	-0.786042	-0.464738
C23	C	1.394004	-0.903872	-0.464764
C24	C	1.319794	-1.071448	-0.539525
C25	C	1.319415	-0.948889	-0.539284
C26	C	1.366485	-0.948472	-0.363109
C27	C	1.366032	-1.071070	-0.363563
C28	C	1.496187	-1.070958	-0.490835
C29	C	1.495561	-0.948351	-0.493058
C30	C	1.645609	-0.510627	-0.464774
C31	C	1.752823	-0.510634	-0.464784
C32	C	1.394085	-0.510519	-0.716344
C33	C	1.394114	-0.510479	-0.823558
C34	C	1.394113	-0.234107	-0.464786
C35	C	1.394154	-0.116277	-0.464801
C36	C	1.394140	-0.510407	-1.019854
C37	C	1.394122	-0.510450	-0.910621
C38	C	1.394003	-0.510629	-0.214137
C39	C	1.394161	-0.510370	-0.106924
H40	H	1.336632	-0.918731	-0.614661
H41	H	1.244625	-1.102351	-0.522497
H42	H	1.551587	-1.099947	-0.436411
H43	H	1.516314	-0.919196	-0.567871
O44	O	1.427726	-1.106608	-0.294842
C45	C	1.446874	-1.208584	-0.149593
C46	C	1.376902	-1.168424	-0.227354
H47	H	1.405807	-1.258552	-0.094998
H48	H	1.505396	-1.258646	-0.184631
H49	H	1.481216	-1.138210	-0.111545
H50	H	1.342490	-1.238734	-0.265429
H51	H	1.318437	-1.118329	-0.192261
H52	H	1.336854	-1.100856	-0.615149
O53	O	1.429004	-0.913861	-0.294761
C54	C	1.473117	-0.915986	-0.127103
C55	C	1.402240	-0.955256	-0.204406
H56	H	1.451492	-0.949419	-0.054030
H57	H	1.548965	-0.943482	-0.145806
H58	H	1.471329	-0.825911	-0.124240
H59	H	1.403942	-1.045327	-0.207309
H60	H	1.326424	-0.927679	-0.185673
O61	O	1.278381	-0.912151	-0.336269
C62	C	1.115911	-0.957100	-0.291478
C63	C	1.215649	-0.998372	-0.321836
H64	H	1.065160	-1.026787	-0.279819
H65	H	1.122761	-0.910193	-0.221780
H66	H	1.085957	-0.903748	-0.350433
H67	H	1.245660	-1.051766	-0.262946
H68	H	1.208739	-1.045219	-0.391560
O69	O	1.229111	-0.914135	-0.518815
C70	C	1.062257	-0.912163	-0.565876
C71	C	1.164477	-0.951610	-0.589164
H72	H	1.009976	-0.942426	-0.622750
H73	H	1.039555	-0.942771	-0.492106
H74	H	1.061581	-0.822014	-0.565561
H75	H	1.165231	-1.041754	-0.589532
H76	H	1.187137	-0.920922	-0.662918
O77	O	1.526190	-1.107561	-0.577812
C78	C	1.575309	-1.063235	-0.739174
C79	C	1.541373	-1.021636	-0.640712
H80	H	1.587575	-0.993788	-0.790063
H81	H	1.645386	-1.108944	-0.729863
H82	H	1.518017	-1.117787	-0.770510
H83	H	1.598597	-0.967043	-0.609322
H84	H	1.471272	-0.975988	-0.650084
O85	O	1.565203	-0.911974	-0.432841
C86	C	1.688784	-0.956750	-0.318287
C87	C	1.609966	-0.998087	-0.386475
H88	H	1.724983	-1.026350	-0.280766
H89	H	1.744658	-0.910747	-0.361418
H90	H	1.655009	-0.902532	-0.262143
H91	H	1.643656	-1.052347	-0.442632
H92	H	1.554102	-1.044030	-0.343279
H93	H	1.291445	-1.099764	-0.341508
