data_functionalizedCrystal
_audit_creation_method	'MofGen! by Chris Wilmer'
_symmetry_space_group_name_H-M	'P1'
_symmetry_Int_Tables_number	1
_symmetry_cell_setting	triclinic
loop_
_symmetry_equiv_pos_as_xyz
  x,y,z
_cell_length_a	19.288840
_cell_length_b	14.519731
_cell_length_c	18.366186
_cell_angle_alpha	89.992785
_cell_angle_beta	89.983729
_cell_angle_gamma	83.407434
loop_
_atom_site_label
_atom_site_type_symbol
_atom_site_fract_x
_atom_site_fract_y
_atom_site_fract_z
O1	O	0.921784	0.114934	-0.060673
O2	O	0.719578	0.130477	-0.060648
O3	O	0.826034	-0.011566	-0.060654
O4	O	0.815327	0.256977	-0.060666
O5	O	0.826016	-0.011573	0.060445
O6	O	0.719560	0.130470	0.060451
O7	O	0.921766	0.114927	0.060426
Zn8	Zn	0.820660	0.122697	0.079666
Zn9	Zn	0.820684	0.122706	-0.079888
O10	O	0.815309	0.256970	0.060433
C11	C	0.693690	0.129977	-0.000095
C12	C	0.616580	0.128487	-0.000085
C13	C	0.580384	0.127776	-0.066098
C14	C	0.507932	0.126366	-0.066107
C15	C	0.471681	0.125649	-0.000099
C16	C	0.507885	0.126366	0.065923
C17	C	0.580335	0.127785	0.065930
C18	C	0.362140	0.069381	0.050465
C19	C	0.289692	0.067956	0.050455
C20	C	0.248221	0.121275	-0.000118
C21	C	0.279208	0.176008	-0.050693
C22	C	0.351658	0.177427	-0.050686
C23	C	0.393121	0.124110	-0.000099
C24	C	0.133464	0.119036	-0.066145
C25	C	0.061010	0.117631	-0.066151
C26	C	0.060965	0.117623	0.065880
C27	C	0.133417	0.119036	0.065885
C28	C	0.169662	0.119738	-0.000130
C29	C	0.825524	-0.045926	-0.000105
C30	C	0.824020	-0.148297	-0.000104
C31	C	0.822799	-0.231433	-0.000105
C32	C	0.821272	-0.335732	-0.000111
C33	C	0.820061	-0.418863	-0.000115
C34	C	0.818535	-0.523168	-0.000119
C35	C	0.947654	0.115426	-0.000128
C36	C	1.024764	0.116916	-0.000143
C37	C	0.815820	0.291330	-0.000118
C38	C	0.817323	0.393700	-0.000124
N39	N	0.820649	0.122690	0.188557
N40	N	0.820701	0.122706	-0.188779
C41	C	0.867803	0.059824	0.226655
C42	C	0.867808	0.059820	0.302883
C43	C	0.820664	0.122698	0.341010
C44	C	0.773501	0.185569	0.302903
C45	C	0.773493	0.185565	0.226677
C46	C	0.811673	0.206727	0.461767
C47	C	0.811686	0.206732	0.537992
C48	C	0.820684	0.122710	0.576118
C49	C	0.829684	0.038679	0.538008
C50	C	0.829677	0.038675	0.461782
C51	C	0.820667	0.122709	0.423665
C52	C	0.867846	0.059834	0.696870
C53	C	0.867845	0.059829	0.773099
C54	C	0.773542	0.185585	0.773118
C55	C	0.773539	0.185582	0.696891
C56	C	0.820695	0.122708	0.658771
H57	H	0.478455	0.125787	-0.119865
H58	H	0.906241	0.008635	0.665832
C59	C	0.068338	0.117755	-0.196656
C60	C	0.021220	0.116845	-0.138719
H61	H	0.043772	0.117263	-0.241456
H62	H	0.091361	0.172072	-0.193916
H63	H	0.101831	0.064537	-0.193894
H64	H	-0.012269	0.170067	-0.141478
H65	H	-0.001813	0.062523	-0.141461
H66	H	0.609805	0.128366	0.119687
C67	C	0.653336	0.240136	0.326422
C68	C	0.721678	0.254682	0.344812
H69	H	0.621341	0.282800	0.352299
H70	H	0.646585	0.249136	0.275578
H71	H	0.645730	0.178609	0.338930
H72	H	0.729286	0.316207	0.332299
H73	H	0.728432	0.245690	0.395667
C74	C	0.962094	0.039090	0.140613
C75	C	0.919406	-0.009445	0.184623
H76	H	0.993885	-0.003722	0.114628
H77	H	0.933997	0.076677	0.107119
H78	H	0.987358	0.077219	0.170248
H79	H	0.894138	-0.047569	0.154987
H80	H	0.947506	-0.047048	0.218120
C81	C	0.334026	0.284103	-0.150661
C82	C	0.385719	0.237597	-0.106268
H83	H	0.355055	0.321256	-0.184969
H84	H	0.310009	0.240121	-0.175707
H85	H	0.301963	0.322485	-0.121411
H86	H	0.417779	0.199210	-0.135517
H87	H	0.409747	0.281584	-0.081220
H88	H	0.906242	0.008631	0.804119
C89	C	0.126095	0.118874	0.196387
C90	C	0.173210	0.119804	0.138449
H91	H	0.150663	0.119344	0.241187
H92	H	0.092606	0.172085	0.193638
H93	H	0.103070	0.064551	0.193634
H94	H	0.196231	0.174131	0.141200
H95	H	0.206711	0.066587	0.141200
H96	H	0.906208	0.008625	0.333907
C97	C	0.282258	-0.085292	0.096668
C98	C	0.255639	0.007792	0.106047
H99	H	0.261240	-0.122433	0.130993
H100	H	0.272246	-0.104514	0.048752
H101	H	0.331341	-0.092057	0.103909
H102	H	0.206557	0.014559	0.098800
H103	H	0.265646	0.027020	0.153974
C104	C	0.732908	0.345359	0.203205
C105	C	0.721662	0.254679	0.184795
H106	H	0.700913	0.388028	0.177343
H107	H	0.726160	0.354352	0.254052
H108	H	0.779277	0.355200	0.190691
H109	H	0.675295	0.244837	0.197313
H110	H	0.728405	0.245683	0.133937
C111	C	0.185742	0.297839	-0.069380
C112	C	0.233640	0.234628	-0.106292
H113	H	0.157614	0.334027	-0.103707
H114	H	0.156916	0.265044	-0.039274
H115	H	0.210214	0.337324	-0.040133
H116	H	0.209168	0.195137	-0.135535
H117	H	0.262469	0.267425	-0.136410
C118	C	0.455629	-0.052424	0.069133
C119	C	0.407726	0.010768	0.106057
H120	H	0.483774	-0.088601	0.103453
H121	H	0.431166	-0.091914	0.039893
H122	H	0.484443	-0.019608	0.039019
H123	H	0.378908	-0.022048	0.136167
H124	H	0.432191	0.050263	0.135308
H125	H	0.162975	0.119617	-0.119898
C126	C	0.679053	0.205932	0.858872
C127	C	0.721719	0.254701	0.815020
H128	H	0.647060	0.248602	0.884745
H129	H	0.654021	0.167639	0.829149
H130	H	0.707144	0.168491	0.892471
H131	H	0.693628	0.292137	0.781416
H132	H	0.746752	0.293010	0.844746
H133	H	0.478365	0.125785	0.119667
C134	C	0.847457	-0.127440	0.469445
C135	C	0.839559	-0.053686	0.419892
H136	H	0.853551	-0.184459	0.443582
H137	H	0.887152	-0.122466	0.499155
H138	H	0.807018	-0.125420	0.499197
H139	H	0.880001	-0.055701	0.390144
H140	H	0.799860	-0.058662	0.390170
C141	C	0.793879	0.372843	0.530319
C142	C	0.801792	0.299095	0.579878
H143	H	0.787767	0.429864	0.556178
H144	H	0.834313	0.370838	0.500572
H145	H	0.754182	0.367847	0.500605
H146	H	0.841493	0.304087	0.609588
H147	H	0.761354	0.301102	0.609637
C148	C	0.781065	-0.061025	0.623746
C149	C	0.839576	-0.053693	0.579898
H150	H	0.787174	-0.118054	0.649603
H151	H	0.775714	-0.010995	0.657352
H152	H	0.740628	-0.059014	0.594015
H153	H	0.880013	-0.055698	0.609629
H154	H	0.844935	-0.103737	0.546288
C155	C	0.732961	0.345378	0.673418
C156	C	0.721712	0.254699	0.655009
H157	H	0.700965	0.388048	0.647559
H158	H	0.726216	0.354371	0.724265
H159	H	0.779329	0.355217	0.660901
H160	H	0.675345	0.244858	0.667531
H161	H	0.728452	0.245703	0.604151
H162	H	0.609890	0.128347	-0.119853
H163	H	0.031450	0.117045	0.119625
C164	C	0.860294	0.306394	0.376003
C165	C	0.801784	0.299088	0.419858
H166	H	0.854186	0.363408	0.350127
H167	H	0.900729	0.304392	0.405725
H168	H	0.865641	0.256341	0.342407
H169	H	0.796441	0.349137	0.453458
H170	H	0.761339	0.301098	0.390133
