data_functionalizedCrystal
_audit_creation_method	'MofGen! by Chris Wilmer'
_symmetry_space_group_name_H-M	'P1'
_symmetry_Int_Tables_number	1
_symmetry_cell_setting	triclinic
loop_
_symmetry_equiv_pos_as_xyz
  x,y,z
_cell_length_a	6.817900
_cell_length_b	14.125465
_cell_length_c	12.200722
_cell_angle_alpha	94.993976
_cell_angle_beta	107.140920
_cell_angle_gamma	100.398878
loop_
_atom_site_label
_atom_site_type_symbol
_atom_site_fract_x
_atom_site_fract_y
_atom_site_fract_z
V1	V	-4.009703	-0.300078	-0.157727
V2	V	-3.759703	-0.050078	0.092273
V3	V	-3.509703	0.199922	0.342273
V4	V	-3.259703	0.449922	0.592273
O5	O	-3.978506	-0.294261	0.008593
O6	O	-3.728506	-0.044261	0.258593
O7	O	-3.478506	0.205739	0.508593
O8	O	-3.228506	0.455739	0.758593
O9	O	-3.979643	-0.298127	-0.313722
O10	O	-3.729643	-0.048127	-0.063722
O11	O	-3.479643	0.201873	0.186278
O12	O	-3.229643	0.451873	0.436278
O13	O	-3.945510	-0.430906	-0.154856
O14	O	-3.695510	-0.180906	0.095144
O15	O	-3.445510	0.069094	0.345144
O16	O	-3.195510	0.319094	0.595144
O17	O	-4.012876	-0.160562	-0.151372
O18	O	-3.762876	0.089438	0.098628
O19	O	-3.512876	0.339438	0.348628
O20	O	-3.262876	0.589438	0.598628
V21	V	-4.493001	-0.283378	-0.137886
V22	V	-4.243001	-0.033378	0.112114
V23	V	-3.993001	0.216622	0.362114
V24	V	-3.743001	0.466622	0.612114
O25	O	-4.271455	-0.336710	-0.201251
O26	O	-4.021455	-0.086710	0.048749
O27	O	-3.771455	0.163290	0.298749
O28	O	-3.521455	0.413290	0.548749
O29	O	-4.681446	-0.246747	-0.094362
O30	O	-4.431446	0.003253	0.155638
O31	O	-4.181446	0.253253	0.405638
O32	O	-3.931446	0.503253	0.655638
O33	O	-4.299854	-0.285330	0.018109
O34	O	-4.049854	-0.035330	0.268109
O35	O	-3.799854	0.214670	0.518109
O36	O	-3.549854	0.464670	0.768109
O37	O	-4.641594	-0.289196	-0.304206
O38	O	-4.391594	-0.039196	-0.054206
O39	O	-4.141594	0.210804	0.195794
O40	O	-3.891594	0.460804	0.445794
O41	O	-4.607225	-0.422894	-0.144241
O42	O	-4.357225	-0.172894	0.105759
O43	O	-4.107225	0.077106	0.355759
O44	O	-3.857225	0.327106	0.605759
O45	O	-4.333987	-0.152550	-0.140757
O46	O	-4.083987	0.097450	0.109243
O47	O	-3.833987	0.347450	0.359243
O48	O	-3.583987	0.597450	0.609243
C49	C	-3.829616	-0.293419	-0.351764
C50	C	-3.579616	-0.043419	-0.101764
C51	C	-3.329616	0.206581	0.148236
C52	C	-3.079616	0.456581	0.398236
C53	C	-3.886221	-0.292696	-0.479288
C54	C	-3.636221	-0.042696	-0.229288
C55	C	-3.386221	0.207304	0.020712
C56	C	-3.136221	0.457304	0.270712
C57	C	-3.932184	-0.292099	-0.582851
C58	C	-3.682184	-0.042099	-0.332851
C59	C	-3.432184	0.207901	-0.082851
C60	C	-3.182184	0.457901	0.167149
C61	C	-3.989867	-0.291356	-0.712776
C62	C	-3.739867	-0.041356	-0.462776
C63	C	-3.489867	0.208644	-0.212776
C64	C	-3.239867	0.458644	0.037224
C65	C	-3.786076	-0.462791	-0.149113
C66	C	-3.536076	-0.212791	0.100887
C67	C	-3.286076	0.037209	0.350887
C68	C	-3.036076	0.287209	0.600887
C69	C	-3.814996	-0.569744	-0.147798
C70	C	-3.564996	-0.319744	0.102202
C71	C	-3.314996	-0.069744	0.352202
C72	C	-3.064996	0.180256	0.602202
C73	C	-3.868005	-0.765566	-0.145386
C74	C	-3.618005	-0.515566	0.104614
C75	C	-3.368005	-0.265566	0.354614
C76	C	-3.118005	-0.015566	0.604614
C77	C	-4.054067	-0.817890	-0.150225
C78	C	-3.804067	-0.567890	0.099775
C79	C	-3.554067	-0.317890	0.349775
C80	C	-3.304067	-0.067890	0.599775
C81	C	-4.083564	-0.926852	-0.148882
C82	C	-3.833564	-0.676852	0.101118
C83	C	-3.583564	-0.426852	0.351118
C84	C	-3.333564	-0.176852	0.601118
C85	C	-3.838500	-0.656594	-0.146728
C86	C	-3.588500	-0.406594	0.103272
C87	C	-3.338500	-0.156594	0.353272
C88	C	-3.088500	0.093406	0.603272
C89	C	-4.113223	-0.290035	0.056145
C90	C	-3.863223	-0.040035	0.306145
C91	C	-3.613223	0.209965	0.556145
C92	C	-3.363223	0.459965	0.806145
C93	C	-4.035857	-0.290764	0.183668
C94	C	-3.785857	-0.040764	0.433668
C95	C	-3.535857	0.209236	0.683668
C96	C	-3.285857	0.459236	0.933668
C97	C	-4.156764	-0.120660	-0.146503
C98	C	-3.906764	0.129340	0.103497
C99	C	-3.656764	0.379340	0.353497
C100	C	-3.406764	0.629340	0.603497
C101	C	-4.107082	-0.013706	-0.147813
C102	C	-3.857082	0.236294	0.102187
C103	C	-3.607082	0.486294	0.352187
C104	C	-3.357082	0.736294	0.602187
H105	H	-3.730878	-0.802600	-0.140238
H106	H	-3.480878	-0.552600	0.109762
H107	H	-3.230878	-0.302600	0.359762
H108	H	-2.980878	-0.052600	0.609762
H109	H	-4.191212	-0.780855	-0.155386
H110	H	-3.941212	-0.530855	0.094614
H111	H	-3.691212	-0.280855	0.344614
H112	H	-3.441212	-0.030855	0.594614
