data_functionalizedCrystal
_audit_creation_method	'MofGen! by Chris Wilmer'
_symmetry_space_group_name_H-M	'P1'
_symmetry_Int_Tables_number	1
_symmetry_cell_setting	triclinic
loop_
_symmetry_equiv_pos_as_xyz
  x,y,z
_cell_length_a	16.959455
_cell_length_b	16.959454
_cell_length_c	18.215399
_cell_angle_alpha	90.023696
_cell_angle_beta	90.024615
_cell_angle_gamma	90.017095
loop_
_atom_site_label
_atom_site_type_symbol
_atom_site_fract_x
_atom_site_fract_y
_atom_site_fract_z
Zn1	Zn	1.208417	-0.314752	0.416232
Zn2	Zn	1.708417	0.185248	0.916232
Zn3	Zn	1.208330	-0.446938	0.293174
Zn4	Zn	1.708330	0.053062	0.793174
Zn5	Zn	1.076236	-0.314770	0.293169
Zn6	Zn	1.576236	0.185230	0.793169
Zn7	Zn	1.076210	-0.446886	0.416189
Zn8	Zn	1.576210	0.053114	0.916189
O9	O	1.142298	-0.380837	0.354691
O10	O	1.642298	0.119163	0.854691
O11	O	1.319016	-0.332301	0.399928
O12	O	1.819016	0.167699	0.899928
O13	O	1.190781	-0.429435	0.190189
O14	O	1.690781	0.070565	0.690189
O15	O	1.093817	-0.204157	0.309509
O16	O	1.593817	0.295843	0.809509
O17	O	1.318952	-0.429417	0.309518
O18	O	1.818952	0.070583	0.809518
O19	O	1.190930	-0.204144	0.399922
O20	O	1.690930	0.295856	0.899922
O21	O	1.093732	-0.332332	0.190185
O22	O	1.593732	0.167668	0.690185
O23	O	0.965621	-0.332282	0.309467
O24	O	1.465621	0.167718	0.809467
O25	O	1.093773	-0.429329	0.519179
O26	O	1.593773	0.070671	1.019179
O27	O	0.965603	-0.429346	0.399850
O28	O	1.465603	0.070654	0.899850
O29	O	1.190905	-0.332251	0.519210
O30	O	1.690905	0.167749	1.019210
O31	O	1.190756	-0.557542	0.309477
O32	O	1.690756	-0.057542	0.809477
O33	O	1.093689	-0.557504	0.399855
O34	O	1.593689	-0.057504	0.899855
C35	C	0.936932	-0.380811	0.354654
C36	C	1.436932	0.119189	0.854654
C37	C	0.849075	-0.380819	0.354655
C38	C	1.349075	0.119181	0.854655
C39	C	1.142232	-0.586203	0.354678
C40	C	1.642232	-0.086203	0.854678
C41	C	1.142276	-0.674060	0.354698
C42	C	1.642276	-0.174060	0.854698
C43	C	0.477556	-0.431355	0.307591
C44	C	0.977556	0.068645	0.807591
C45	C	0.477644	-0.330384	0.401881
C46	C	0.977644	0.169616	0.901881
C47	C	0.560190	-0.330371	0.401863
C48	C	1.060190	0.169629	0.901863
C49	C	0.601422	-0.380852	0.354709
C50	C	1.101422	0.119148	0.854709
C51	C	0.560109	-0.431345	0.307573
C52	C	1.060109	0.068655	0.807573
C53	C	0.601509	-0.279884	0.449003
C54	C	1.101509	0.220116	0.949003
C55	C	0.684060	-0.279870	0.448988
C56	C	1.184060	0.220130	0.948988
C57	C	0.725294	-0.330347	0.401830
C58	C	1.225294	0.169653	0.901830
C59	C	0.683976	-0.380842	0.354691
C60	C	1.183976	0.119158	0.854691
C61	C	0.725208	-0.431322	0.307537
C62	C	1.225208	0.068678	0.807537
C63	C	0.683892	-0.481814	0.260394
C64	C	1.183892	0.018186	0.760394
C65	C	0.601343	-0.481822	0.260415
C66	C	1.101343	0.018178	0.760415
C67	C	0.807842	-0.330338	0.401809
C68	C	1.307842	0.169662	0.901809
C69	C	0.807762	-0.431312	0.307519
C70	C	1.307762	0.068688	0.807519
C71	C	1.091828	-1.045545	0.401746
C72	C	1.591828	-0.545545	0.901746
C73	C	1.192988	-1.045525	0.307711
C74	C	1.692988	-0.545525	0.807711
C75	C	1.192960	-0.962979	0.307704
C76	C	1.692960	-0.462979	0.807704
C77	C	1.142365	-0.921712	0.354718
C78	C	1.642365	-0.421712	0.854718
C79	C	1.091797	-0.962992	0.401739
C80	C	1.591797	-0.462992	0.901739
C81	C	1.243522	-0.921694	0.260679
C82	C	1.743522	-0.421694	0.760679
C83	C	1.243495	-0.839143	0.260670
C84	C	1.743495	-0.339143	0.760670
C85	C	1.192903	-0.797875	0.307688
C86	C	1.692903	-0.297875	0.807688
C87	C	1.142334	-0.839159	0.354711
C88	C	1.642334	-0.339159	0.854711
C89	C	1.091739	-0.797892	0.401725
C90	C	1.591739	-0.297892	0.901725
C91	C	1.041173	-0.839175	0.448753
C92	C	1.541173	-0.339175	0.948753
C93	C	1.041205	-0.921724	0.448757
C94	C	1.541205	-0.421724	0.948757
C95	C	1.192871	-0.715326	0.307684
C96	C	1.692871	-0.215326	0.807684
C97	C	1.091708	-0.715339	0.401718
C98	C	1.591708	-0.215339	0.901718
C99	C	1.348466	-0.380863	0.354729
C100	C	1.848466	0.119137	0.854729
C101	C	1.436323	-0.380874	0.354745
C102	C	1.936323	0.119126	0.854745
C103	C	1.142346	-0.380782	0.546644
C104	C	1.642346	0.119218	1.046644
C105	C	1.142367	-0.380759	0.628443
C106	C	1.642367	0.119241	1.128443
C107	C	1.142386	-0.174668	0.354720
C108	C	1.642386	0.325332	0.854720
C109	C	1.142424	-0.086812	0.354732
C110	C	1.642424	0.413188	0.854732
C111	C	1.142296	-0.380834	0.163485
C112	C	1.642296	0.119166	0.663485
C113	C	1.142428	-0.380634	0.081686
C114	C	1.642428	0.119366	0.581686
C115	C	1.192961	-0.330163	0.816654
C116	C	1.692961	0.169837	1.316654
C117	C	1.192971	-0.330140	0.893513
C118	C	1.692971	0.169860	1.393513
C119	C	1.091828	-0.431232	0.893469
C120	C	1.591828	0.068768	1.393469
C121	C	1.091815	-0.431251	0.816612
C122	C	1.591815	0.068749	1.316612
C123	C	1.142386	-0.380717	0.778206
C124	C	1.642386	0.119283	1.278206
C125	C	1.142409	-0.380676	0.931923
C126	C	1.642409	0.119324	1.431923
C127	C	1.142418	-0.380651	1.015256
C128	C	1.642418	0.119349	1.515256
C129	C	1.142376	-0.380741	0.694867
C130	C	1.642376	0.119259	1.194867
H131	H	0.841328	-0.472418	0.269118
H132	H	1.341328	0.027582	0.769118
F133	F	1.246805	-0.276338	0.934429
F134	F	1.746805	0.223662	1.434429
F135	F	0.728025	-0.226132	0.499160
F136	F	1.228025	0.273868	0.999160
H137	H	0.999974	-0.805566	0.487029
H138	H	1.499974	-0.305566	0.987029
F139	F	1.038012	-0.485014	0.934350
F140	F	1.538012	0.014986	1.434350
H141	H	1.234138	-0.289013	0.785387
H142	H	1.734138	0.210987	1.285387
H143	H	1.050625	-0.472418	0.785307
H144	H	1.550625	0.027582	1.285307
F145	F	0.557622	-0.226172	0.499193
F146	F	1.057622	0.273828	0.999193
F147	F	0.851811	-0.276609	0.451982
F148	F	1.351811	0.223391	0.951982
H149	H	0.717474	-0.522919	0.222005
H150	H	1.217474	-0.022919	0.722005
H151	H	1.284708	-0.955299	0.222397
H152	H	1.784708	-0.455299	0.722397
F153	F	0.557366	-0.535555	0.210248
F154	F	1.057366	-0.035555	0.710248
F155	F	0.433584	-0.485086	0.257417
F156	F	0.933584	0.014914	0.757417
F157	F	0.433759	-0.276670	0.452069
F158	F	0.933759	0.223330	0.952069
H159	H	1.234176	-1.079129	0.269430
H160	H	1.734176	-0.579129	0.769430
F161	F	1.037860	-0.671426	0.451762
F162	F	1.537860	-0.171426	0.951762
H163	H	1.284669	-0.805535	0.222378
H164	H	1.784669	-0.305535	0.722378
H165	H	1.000037	-0.955343	0.487044
H166	H	1.500037	-0.455343	0.987044
H167	H	1.050661	-1.079161	0.440037
H168	H	1.550661	-0.579161	0.940037
H169	H	1.234037	-0.681718	0.269391
H170	H	1.734037	-0.181718	0.769391
