data_functionalizedCrystal
_audit_creation_method	'MofGen! by Chris Wilmer'
_symmetry_space_group_name_H-M	'P1'
_symmetry_Int_Tables_number	1
_symmetry_cell_setting	triclinic
loop_
_symmetry_equiv_pos_as_xyz
  x,y,z
_cell_length_a	14.044220
_cell_length_b	8.559649
_cell_length_c	7.681481
_cell_angle_alpha	85.086760
_cell_angle_beta	83.732834
_cell_angle_gamma	98.516229
loop_
_atom_site_label
_atom_site_type_symbol
_atom_site_fract_x
_atom_site_fract_y
_atom_site_fract_z
O1	O	-0.021858	-2.101908	-0.146399
O2	O	0.311476	-1.768574	0.186934
O3	O	0.644809	-1.435241	0.520268
O4	O	0.026593	-1.643608	-0.146411
O5	O	0.359926	-1.310275	0.186922
O6	O	0.693259	-0.976942	0.520256
O7	O	-0.135117	-1.865881	-0.146388
O8	O	0.198216	-1.532547	0.186945
O9	O	0.531549	-1.199214	0.520279
O10	O	0.139853	-1.879635	-0.146422
O11	O	0.473186	-1.546302	0.186911
O12	O	0.806519	-1.212969	0.520244
O13	O	-0.155061	-1.893233	0.146473
O14	O	0.178272	-1.559900	0.479806
O15	O	0.511605	-1.226566	0.813139
O16	O	0.006649	-1.670961	0.146449
O17	O	0.339982	-1.337627	0.479783
O18	O	0.673316	-1.004294	0.813116
O19	O	-0.041802	-2.129260	0.146461
O20	O	0.291532	-1.795927	0.479795
O21	O	0.624865	-1.462593	0.813128
Zn22	Zn	-0.020743	-1.904453	0.192953
Zn23	Zn	0.312590	-1.571120	0.526287
Zn24	Zn	0.645924	-1.237786	0.859620
Zn25	Zn	0.005534	-1.868415	-0.192903
Zn26	Zn	0.338867	-1.535082	0.140430
Zn27	Zn	0.672201	-1.201749	0.473764
O28	O	0.119909	-1.906988	0.146438
O29	O	0.453242	-1.573654	0.479772
O30	O	0.786575	-1.240321	0.813105
C31	C	0.020293	-1.598278	0.000018
C32	C	0.353626	-1.264944	0.333351
C33	C	0.686959	-0.931611	0.666684
C34	C	0.031222	-1.422455	0.000014
C35	C	0.364555	-1.089122	0.333347
C36	C	0.697889	-0.755788	0.666680
C37	C	-0.179966	-1.873534	0.000043
C38	C	0.153368	-1.540201	0.333376
C39	C	0.486701	-1.206868	0.666710
C40	C	-0.283884	-1.855571	0.000045
C41	C	0.049450	-1.522237	0.333378
C42	C	0.382783	-1.188904	0.666711
N43	N	-0.038678	-1.929059	0.456290
N44	N	0.294656	-1.595726	0.789624
N45	N	0.627989	-1.262393	1.122957
C46	C	-0.474153	-1.822727	0.000018
C47	C	-0.140819	-1.489393	0.333352
C48	C	0.192514	-1.156060	0.666685
C49	C	-0.541060	-1.950133	0.000016
C50	C	-0.207727	-1.616800	0.333350
C51	C	0.125606	-1.283466	0.666683
C52	C	-0.646933	-1.931858	0.000002
C53	C	-0.313599	-1.598525	0.333335
C54	C	0.019734	-1.265192	0.666669
C55	C	-0.368270	-1.840999	0.000033
C56	C	-0.034937	-1.507666	0.333366
C57	C	0.298396	-1.174333	0.666700
C58	C	0.164757	-1.899334	0.000003
C59	C	0.498090	-1.566000	0.333337
C60	C	0.831424	-1.232667	0.666670
C61	C	0.268676	-1.917296	-0.000010
C62	C	0.602009	-1.583963	0.333324
C63	C	0.935343	-1.250629	0.666657
C64	C	-0.035501	-2.174590	0.000029
C65	C	0.297832	-1.841257	0.333362
C66	C	0.631165	-1.507924	0.666695
C67	C	-0.046430	-2.350412	0.000021
C68	C	0.286903	-2.017079	0.333354
C69	C	0.620237	-1.683745	0.666688
N70	N	0.023461	-1.843820	-0.456240
N71	N	0.356794	-1.510487	-0.122907
N72	N	0.690127	-1.177154	0.210427
H73	H	-0.518821	-2.072922	-0.000099
H74	H	-0.185487	-1.739589	0.333235
H75	H	0.147846	-1.406256	0.666568
H76	H	-0.496383	-1.699936	0.000011
H77	H	-0.163049	-1.366603	0.333344
H78	H	0.170284	-1.033269	0.666678
H79	H	0.106070	-1.349615	-0.000005
H80	H	0.439403	-1.016282	0.333328
H81	H	0.772737	-0.682949	0.666662
H82	H	-0.121272	-1.423241	0.000022
H83	H	0.212062	-1.089908	0.333355
H84	H	0.545395	-0.756575	0.666688
H85	H	0.086886	-1.756808	0.468554
H86	H	0.420219	-1.423474	0.801887
H87	H	0.753552	-1.090141	1.135221
H88	H	-0.102101	-2.016090	0.531505
H89	H	0.231232	-1.682757	0.864838
H90	H	0.564565	-1.349424	1.198172
