data_functionalizedCrystal
_audit_creation_method	'MofGen! by Chris Wilmer'
_symmetry_space_group_name_H-M	'P1'
_symmetry_Int_Tables_number	1
_symmetry_cell_setting	triclinic
loop_
_symmetry_equiv_pos_as_xyz
  x,y,z
_cell_length_a	16.625548
_cell_length_b	18.101395
_cell_length_c	16.625539
_cell_angle_alpha	89.974216
_cell_angle_beta	89.982945
_cell_angle_gamma	90.032172
loop_
_atom_site_label
_atom_site_type_symbol
_atom_site_fract_x
_atom_site_fract_y
_atom_site_fract_z
Zn1	Zn	1.232604	-0.294821	-0.455913
Zn2	Zn	1.232495	-0.418666	-0.321082
Zn3	Zn	1.097774	-0.294845	-0.321094
Zn4	Zn	1.097716	-0.418627	-0.455872
O5	O	1.165147	-0.356740	-0.388490
O6	O	1.345422	-0.311255	-0.438040
O7	O	1.214603	-0.402267	-0.208251
O8	O	1.115730	-0.191209	-0.339000
O9	O	1.345342	-0.402244	-0.338980
O10	O	1.214789	-0.191191	-0.438051
O11	O	1.115624	-0.311296	-0.208260
O12	O	0.984934	-0.311259	-0.338960
O13	O	1.115630	-0.402178	-0.568710
O14	O	0.984891	-0.402201	-0.437981
O15	O	1.214732	-0.311218	-0.568740
O16	O	1.214547	-0.522294	-0.338940
O17	O	1.115525	-0.522265	-0.437969
C18	C	0.955657	-0.356729	-0.388467
C19	C	0.866035	-0.356742	-0.388477
C20	C	0.537860	-0.356747	-0.388511
C21	C	0.629168	-0.356744	-0.388499
C22	C	0.701945	-0.356745	-0.388494
C23	C	0.793259	-0.356741	-0.388483
C24	C	1.165040	-0.549150	-0.388466
C25	C	1.165067	-0.631464	-0.388483
C26	C	1.165244	-0.930555	-0.388527
C27	C	1.103087	-0.899243	-0.450988
C28	C	1.102791	-0.813625	-0.450793
C29	C	1.165156	-0.782173	-0.388506
C30	C	1.142154	-0.813322	-0.303528
C31	C	1.141754	-0.898968	-0.303901
C32	C	1.250539	-0.898898	-0.410295
C33	C	1.250038	-0.813247	-0.412159
C34	C	1.165108	-0.698313	-0.388489
C35	C	1.165290	-1.014415	-0.388538
C36	C	1.375456	-0.356751	-0.388513
C37	C	1.465077	-0.356756	-0.388523
C38	C	1.165187	-0.356691	-0.598799
C39	C	1.165204	-0.356670	-0.688420
C40	C	1.165278	-0.163578	-0.388531
C41	C	1.165333	-0.081264	-0.388549
C42	C	1.165217	-0.356654	-0.761203
C43	C	1.165236	-0.356626	-0.852511
C44	C	1.165255	-0.356600	-0.925288
C45	C	1.165275	-0.356573	-1.016602
C46	C	1.165154	-0.356735	-0.178999
C47	C	1.165294	-0.356547	-0.089378
H48	H	1.117182	-0.792562	-0.513803
H49	H	1.271511	-0.920447	-0.471205
C50	C	1.066005	-0.744173	-0.206666
C51	C	1.058871	-0.784465	-0.278187
H52	H	1.014589	-0.726356	-0.191029
H53	H	1.086888	-0.775206	-0.165604
H54	H	1.101369	-0.703624	-0.214866
H55	H	1.023512	-0.825018	-0.269985
H56	H	1.037977	-0.753430	-0.319258
H57	H	1.040248	-0.920830	-0.436750
C58	C	0.966384	-0.846678	-0.419770
C59	C	1.017447	-0.786048	-0.431313
H60	H	0.913696	-0.829651	-0.407736
H61	H	0.965057	-0.875673	-0.467353
H62	H	0.985763	-0.875819	-0.376383
H63	H	0.998071	-0.756909	-0.474705
H64	H	1.018770	-0.757040	-0.383725
H65	H	1.079403	-0.919011	-0.285461
H66	H	1.298798	-0.791833	-0.369981
H67	H	1.185063	-0.919683	-0.255776
H68	H	1.296849	-0.919146	-0.364802
H69	H	1.186003	-0.792950	-0.255720
C70	C	1.349191	-0.813797	-0.517190
C71	C	1.273441	-0.785797	-0.496603
H72	H	1.363626	-0.796862	-0.569331
H73	H	1.387915	-0.797269	-0.479246
H74	H	1.347397	-0.866251	-0.516967
H75	H	1.275237	-0.733343	-0.496820
H76	H	1.234707	-0.802321	-0.534557
C77	C	1.190269	-0.972589	-0.533860
C78	C	1.122307	-0.926990	-0.536327
H79	H	1.202130	-0.989727	-0.586546
H80	H	1.234767	-0.945382	-0.513692
H81	H	1.179993	-1.013590	-0.499677
H82	H	1.132585	-0.885987	-0.570506
H83	H	1.077799	-0.954198	-0.556506
