data_functionalizedCrystal
_audit_creation_method	'MofGen! by Chris Wilmer'
_symmetry_space_group_name_H-M	'P1'
_symmetry_Int_Tables_number	1
_symmetry_cell_setting	triclinic
loop_
_symmetry_equiv_pos_as_xyz
  x,y,z
_cell_length_a	11.792241
_cell_length_b	11.792254
_cell_length_c	10.268362
_cell_angle_alpha	89.998485
_cell_angle_beta	89.999574
_cell_angle_gamma	84.196007
loop_
_atom_site_label
_atom_site_type_symbol
_atom_site_fract_x
_atom_site_fract_y
_atom_site_fract_z
O1	O	1.506917	0.155561	-0.108174
O2	O	2.006917	0.655561	0.391826
O3	O	1.176576	0.171594	-0.108205
O4	O	1.676576	0.671594	0.391795
O5	O	1.349755	-0.001592	-0.108180
O6	O	1.849755	0.498408	0.391820
O7	O	1.333737	0.328747	-0.108200
O8	O	1.833737	0.828747	0.391800
O9	O	1.349739	-0.001586	0.108421
O10	O	1.849739	0.498414	0.608421
O11	O	1.176560	0.171600	0.108396
O12	O	1.676560	0.671600	0.608396
O13	O	1.506900	0.155567	0.108426
O14	O	2.006900	0.655567	0.608426
Cu15	Cu	1.341728	0.163584	0.128188
Cu16	Cu	1.841728	0.663584	0.628188
Cu17	Cu	1.341748	0.163577	-0.127967
Cu18	Cu	1.841748	0.663577	0.372033
O19	O	1.333721	0.328753	0.108401
O20	O	1.833721	0.828753	0.608401
C21	C	1.134277	0.170590	0.000092
C22	C	1.634277	0.670590	0.500092
C23	C	1.008263	0.167576	0.000080
C24	C	1.508263	0.667576	0.500080
C25	C	1.348738	-0.043880	0.000120
C26	C	1.848738	0.456120	0.500120
C27	C	1.345718	-0.169893	0.000119
C28	C	1.845718	0.330107	0.500119
C29	C	1.343264	-0.272229	0.000114
C30	C	1.843264	0.227771	0.500114
C31	C	1.340196	-0.400616	0.000102
C32	C	1.840196	0.099384	0.500102
C33	C	0.777551	0.162033	0.000118
C34	C	1.277551	0.662033	0.500118
C35	C	0.905936	0.165112	0.000097
C36	C	1.405936	0.665112	0.500097
C37	C	1.549199	0.156571	0.000127
C38	C	2.049199	0.656571	0.500127
C39	C	1.675213	0.159586	0.000130
C40	C	2.175213	0.659586	0.500130
C41	C	1.334738	0.371041	0.000098
C42	C	1.834738	0.871041	0.500098
C43	C	1.337758	0.497054	0.000091
C44	C	1.837758	0.997054	0.500091
N45	N	1.341723	0.163588	0.308354
N46	N	1.841723	0.663588	0.808354
N47	N	1.341762	0.163564	-0.308133
N48	N	1.841762	0.663564	0.191867
C49	C	1.341731	0.163589	0.426197
C50	C	1.841731	0.663589	0.926197
C51	C	1.341745	0.163579	0.574035
C52	C	1.841745	0.663579	1.074035
