data_functionalizedCrystal
_audit_creation_method	'MofGen! by Chris Wilmer'
_symmetry_space_group_name_H-M	'P1'
_symmetry_Int_Tables_number	1
_symmetry_cell_setting	triclinic
loop_
_symmetry_equiv_pos_as_xyz
  x,y,z
_cell_length_a	15.995350
_cell_length_b	15.995350
_cell_length_c	15.072220
_cell_angle_alpha	90.001101
_cell_angle_beta	89.991149
_cell_angle_gamma	83.492375
loop_
_atom_site_label
_atom_site_type_symbol
_atom_site_fract_x
_atom_site_fract_y
_atom_site_fract_z
O1	O	1.110996	0.107921	-0.073703
O2	O	1.610996	0.607921	0.426297
O3	O	0.867221	0.121249	-0.073721
O4	O	1.367221	0.621249	0.426279
O5	O	0.995772	-0.007303	-0.073710
O6	O	1.495772	0.492697	0.426290
O7	O	0.982444	0.236472	-0.073713
O8	O	1.482444	0.736472	0.426287
O9	O	0.995740	-0.007296	0.073855
O10	O	1.495740	0.492704	0.573855
O11	O	0.867189	0.121256	0.073844
O12	O	1.367189	0.621256	0.573844
O13	O	1.110964	0.107928	0.073862
O14	O	1.610964	0.607928	0.573862
Zn15	Zn	0.989071	0.114593	0.097283
Zn16	Zn	1.489071	0.614593	0.597283
Zn17	Zn	0.989113	0.114584	-0.097141
Zn18	Zn	1.489113	0.614584	0.402859
O19	O	0.982413	0.236480	0.073852
O20	O	1.482413	0.736480	0.573852
C21	C	0.836010	0.120701	0.000060
C22	C	1.336010	0.620701	0.500060
C23	C	0.743060	0.119049	0.000053
C24	C	1.243060	0.619049	0.500053
C25	C	0.995205	-0.038494	0.000070
C26	C	1.495205	0.461506	0.500070
C27	C	0.993553	-0.131444	0.000065
C28	C	1.493553	0.368556	0.500065
C29	C	0.987621	-0.469192	0.000068
C30	C	1.487621	0.030808	0.500068
C31	C	0.896069	-0.421758	-0.000270
C32	C	1.396069	0.078242	0.499730
C33	C	0.897721	-0.325068	0.000063
C34	C	1.397721	0.174932	0.500063
C35	C	0.990564	-0.301631	0.000066
C36	C	1.490564	0.198369	0.500066
C37	C	1.035702	-0.342705	0.084335
C38	C	1.535702	0.157295	0.584335
C39	C	1.033402	-0.439341	0.084405
C40	C	1.533402	0.060659	0.584405
C41	C	1.035330	-0.439707	-0.083404
C42	C	1.535330	0.060293	0.416596
C43	C	1.035308	-0.342761	-0.084518
C44	C	1.535308	0.157239	0.415482
C45	C	0.992231	-0.206934	0.000068
C46	C	1.492231	0.293066	0.500068
C47	C	0.985956	-0.563890	0.000072
C48	C	1.485956	-0.063890	0.500072
C49	C	0.405312	0.113117	0.000071
C50	C	0.905312	0.613117	0.500071
C51	C	0.452746	0.021565	0.000401
C52	C	0.952746	0.521565	0.500401
C53	C	0.549436	0.023217	0.000063
C54	C	1.049436	0.523217	0.500063
C55	C	0.572873	0.116060	0.000063
C56	C	1.072873	0.616060	0.500063
C57	C	0.531804	0.161212	-0.084201
C58	C	1.031804	0.661212	0.415799
C59	C	0.435168	0.158912	-0.084266
C60	C	0.935168	0.658912	0.415734
C61	C	0.434793	0.160812	0.083543
C62	C	0.934793	0.660812	0.583543
C63	C	0.531738	0.160790	0.084651
C64	C	1.031738	0.660790	0.584651
C65	C	0.667570	0.117727	0.000055
C66	C	1.167570	0.617727	0.500055
C67	C	0.310614	0.111452	0.000073
C68	C	0.810614	0.611452	0.500073
C69	C	1.142175	0.108476	0.000080
C70	C	1.642175	0.608476	0.500080
C71	C	1.235125	0.110127	0.000081
C72	C	1.735125	0.610127	0.500081
C73	C	0.982980	0.267671	0.000069
C74	C	1.482980	0.767671	0.500069
C75	C	0.984631	0.360621	0.000069
C76	C	1.484631	0.860621	0.500069
N77	N	0.989049	0.114599	0.229971
N78	N	1.489049	0.614599	0.729971
N79	N	0.989142	0.114571	-0.229830
N80	N	1.489142	0.614571	0.270170
C81	C	0.989112	0.114580	0.589173
C82	C	1.489112	0.614580	1.089173
C83	C	0.920095	0.183135	0.551560
C84	C	1.420095	0.683135	1.051560
C85	C	0.920254	0.183385	0.448735
C86	C	1.420254	0.683385	0.948735
C87	C	0.989080	0.114590	0.410969
C88	C	1.489080	0.614590	0.910969
C89	C	1.076445	0.133671	0.448266
C90	C	1.576445	0.633671	0.948266
C91	C	1.076058	0.134159	0.551124
C92	C	1.576058	0.634159	1.051124
C93	C	0.971542	0.026741	0.551272
C94	C	1.471542	0.526741	1.051272
C95	C	0.969537	0.027327	0.448409
C96	C	1.469537	0.527327	0.948409
C97	C	0.989067	0.114593	0.310255
C98	C	1.489067	0.614593	0.810255
C99	C	0.989130	0.114579	0.689886
C100	C	1.489130	0.614579	1.189886
H101	H	0.862238	-0.296649	-0.060344
H102	H	1.362238	0.203351	0.439656
Br103	Br	0.983408	-0.295400	0.188855
Br104	Br	1.483408	0.204600	0.688855
Br105	Br	0.985455	-0.473933	-0.189860
Br106	Br	1.485455	0.026067	0.310140
Br107	Br	0.980764	-0.296811	-0.188440
Br108	Br	1.480764	0.203189	0.311560
Br109	Br	0.838134	-0.278611	0.100906
Br110	Br	1.338134	0.221389	0.600906
Br111	Br	0.811499	0.164485	0.592797
Br112	Br	1.311499	0.664485	1.092797
Br113	Br	0.835095	-0.452645	-0.100995
Br114	Br	1.335095	0.047355	0.399005
H115	H	1.091540	0.198219	0.575106
H116	H	1.591540	0.698219	1.075106
H117	H	0.905271	0.012846	0.424032
H118	H	1.405271	0.512846	0.924032
H119	H	0.909219	0.008392	0.577258
H120	H	1.409219	0.508392	1.077258
H121	H	0.545929	0.229421	-0.087335
H122	H	1.045929	0.729421	0.412665
Br123	Br	0.579114	0.108935	-0.188727
Br124	Br	1.079114	0.608935	0.311273
H125	H	0.402920	0.226128	-0.088090
H126	H	0.902920	0.726128	0.411910
Br127	Br	0.938544	0.291174	0.594606
Br128	Br	1.438544	0.791174	1.094606
Br129	Br	1.148156	-0.317153	-0.093004
Br130	Br	1.648156	0.182847	0.406996
Br131	Br	0.595862	-0.036083	-0.100965
Br132	Br	1.095862	0.463917	0.399035
Br133	Br	0.421850	-0.039427	0.101122
Br134	Br	0.921850	0.460573	0.601122
H135	H	0.416873	0.125979	-0.147255
H136	H	0.916873	0.625979	0.352745
H137	H	0.931473	0.248570	0.424121
H138	H	1.431473	0.748570	0.924121
H139	H	0.414244	0.130885	0.147414
H140	H	0.914244	0.630885	0.647414
H141	H	1.016540	-0.026078	0.422704
H142	H	1.516540	0.473922	0.922704
H143	H	0.559041	0.127829	0.146989
H144	H	1.059041	0.627829	0.646989
Br145	Br	0.557338	0.273639	0.093135
Br146	Br	1.057338	0.773639	0.593135
Br147	Br	1.102872	0.239225	0.405319
Br148	Br	1.602872	0.739225	0.905319
Br149	Br	0.978494	-0.469844	0.189390
Br150	Br	1.478494	0.030156	0.689390
Br151	Br	0.596803	-0.035940	0.100740
Br152	Br	1.096803	0.464060	0.600740
Br153	Br	0.835152	-0.454809	0.099576
Br154	Br	1.335152	0.045191	0.599576
Br155	Br	1.145428	-0.493094	0.090793
Br156	Br	1.645428	0.006906	0.590793
Br157	Br	1.164141	0.054009	0.592597
Br158	Br	1.664141	0.554009	1.092597
H159	H	0.403031	0.228312	0.084113
H160	H	0.903031	0.728312	0.584113
Br161	Br	1.055428	-0.058290	0.591809
Br162	Br	1.555428	0.441710	1.091809
H163	H	1.129029	0.085068	0.423801
H164	H	1.629029	0.585068	0.923801
H165	H	1.103910	-0.328579	0.087471
H166	H	1.603910	0.171421	0.587471
Br167	Br	1.147835	-0.492642	-0.084346
Br168	Br	1.647835	0.007358	0.415654
H169	H	0.433165	-0.014865	-0.059694
H170	H	0.933165	0.485135	0.440306
H171	H	0.855314	0.172016	0.423519
H172	H	1.355314	0.672016	0.923519
