data_functionalizedCrystal
_audit_creation_method	'MofGen! by Chris Wilmer'
_symmetry_space_group_name_H-M	'P1'
_symmetry_Int_Tables_number	1
_symmetry_cell_setting	triclinic
loop_
_symmetry_equiv_pos_as_xyz
  x,y,z
_cell_length_a	6.817900
_cell_length_b	10.943867
_cell_length_c	19.453030
_cell_angle_alpha	94.444464
_cell_angle_beta	101.707737
_cell_angle_gamma	108.843261
loop_
_atom_site_label
_atom_site_type_symbol
_atom_site_fract_x
_atom_site_fract_y
_atom_site_fract_z
V1	V	-4.034395	-0.179977	-0.218991
O2	O	-3.993611	0.007266	-0.214830
O3	O	-4.012935	-0.355534	-0.217485
O4	O	-3.976971	-0.177816	-0.314504
O5	O	-4.029824	-0.171683	-0.117140
V6	V	-4.515701	-0.157509	-0.206809
O7	O	-4.300516	-0.229263	-0.245711
O8	O	-4.699778	-0.108223	-0.180089
O9	O	-4.313954	0.018048	-0.208315
O10	O	-4.673882	-0.344752	-0.210970
O11	O	-4.637669	-0.165803	-0.308660
O12	O	-4.349919	-0.159671	-0.111297
C13	C	-3.864782	-0.398312	-0.214029
C14	C	-3.928463	-0.541837	-0.213434
C15	C	-4.156680	-0.632740	-0.216742
C16	C	-4.133038	-0.732200	-0.272735
C17	C	-4.065561	-0.698114	-0.156396
C18	C	-3.904009	-0.639420	-0.269484
C19	C	-3.836526	-0.605312	-0.153092
C20	C	-3.812735	-0.704733	-0.209098
C21	C	-3.818904	-0.171613	-0.337784
C22	C	-3.853415	-0.171007	-0.415867
C23	C	-3.927018	-0.289021	-0.462567
C24	C	-3.959471	-0.288465	-0.535935
C25	C	-3.918276	-0.169888	-0.562599
C26	C	-3.844674	-0.051859	-0.515889
C27	C	-3.812243	-0.052419	-0.442523
N28	N	-3.812333	-0.076919	-0.668097
N29	N	-3.843140	-0.076396	-0.737792
C30	C	-4.015987	-0.168195	-0.783646
N31	N	-4.156848	-0.260557	-0.757173
N32	N	-4.126031	-0.261085	-0.687471
C33	C	-3.953436	-0.169268	-0.642151
C34	C	-4.124785	-0.285615	-0.909901
C35	C	-4.157249	-0.285055	-0.983270
C36	C	-4.042429	-0.048445	-0.963222
C37	C	-4.009988	-0.049009	-0.889855
C38	C	-4.051161	-0.167597	-0.863199
C39	C	-4.125451	0.060819	-0.211770
C40	C	-4.041008	0.204342	-0.212369
C41	C	-4.171328	-0.165878	-0.088012
C42	C	-4.116055	-0.166477	-0.009929
H43	H	-4.258991	-0.787260	-0.323314
H44	H	-3.950043	0.047091	-0.851830
H45	H	-3.835232	-0.613360	-0.317334
H46	H	-3.960557	-0.385585	-0.440869
H47	H	-3.667760	-0.736333	-0.205876
H48	H	-4.301470	-0.600925	-0.220051
O49	O	-3.669785	-0.532274	-0.086101
H50	H	-3.736670	-0.555339	-0.039257
H51	H	-4.019401	-0.384569	-0.573965
O52	O	-3.800221	0.076040	-0.544640
H53	H	-3.835111	0.056605	-0.603502
H54	H	-4.134532	-0.724353	-0.108602
O55	O	-3.732824	0.074872	-0.392145
H56	H	-3.709615	0.157425	-0.423008
O57	O	-4.169216	-0.413512	-0.881142
H58	H	-4.225888	-0.495486	-0.925946
O59	O	-4.236592	-0.412345	-1.033645
H60	H	-4.259731	-0.494893	-1.002779
O61	O	-3.997983	0.079456	-0.991968
H62	H	-4.032886	0.060022	-1.050830
