data_functionalizedCrystal
_audit_creation_method	'MofGen! by Chris Wilmer'
_symmetry_space_group_name_H-M	'P1'
_symmetry_Int_Tables_number	1
_symmetry_cell_setting	triclinic
loop_
_symmetry_equiv_pos_as_xyz
  x,y,z
_cell_length_a	12.811457
_cell_length_b	10.540539
_cell_length_c	9.616153
_cell_angle_alpha	90.002114
_cell_angle_beta	95.428654
_cell_angle_gamma	84.283253
loop_
_atom_site_label
_atom_site_type_symbol
_atom_site_fract_x
_atom_site_fract_y
_atom_site_fract_z
O1	O	1.393940	0.170970	0.060163
O2	O	1.088499	0.189562	0.021639
O3	O	1.248188	-0.004480	0.041782
O4	O	1.234251	0.365012	0.040020
O5	O	1.248176	-0.004469	0.273072
O6	O	1.088487	0.189573	0.252929
O7	O	1.393929	0.170981	0.291453
Zn8	Zn	1.241206	0.180279	0.308913
Zn9	Zn	1.241221	0.180264	0.004179
O10	O	1.234239	0.365023	0.271310
C11	C	1.049381	0.188525	0.132351
C12	C	0.932841	0.185406	0.117652
C13	C	0.713838	0.179532	0.342212
C14	C	0.604339	0.176600	0.328408
C15	C	0.604341	0.176602	0.076242
C16	C	0.713841	0.179533	0.090046
C17	C	0.768585	0.181000	0.223035
C18	C	0.878086	0.183941	0.236838
C19	C	0.878088	0.183934	-0.015327
C20	C	0.768588	0.181002	-0.029131
C21	C	1.247137	-0.051772	0.157292
C22	C	1.244010	-0.192702	0.156890
C23	C	1.124188	-0.375448	0.141259
C24	C	1.127358	-0.228848	0.142179
C25	C	1.300141	-0.254672	0.296049
C26	C	1.296160	-0.401194	0.295658
C27	C	1.298546	-0.401739	0.032937
C28	C	1.299621	-0.254763	0.031326
C29	C	1.433046	0.172017	0.180738
C30	C	1.549586	0.175137	0.195428
C31	C	1.235290	0.412315	0.155797
C32	C	1.238417	0.553245	0.156189
N33	N	1.241203	0.180288	0.516887
N34	N	1.241233	0.180245	-0.203794
C35	C	1.155743	0.284071	0.565149
C36	C	1.155452	0.283776	0.726280
C37	C	1.216766	0.047511	0.734591
C38	C	1.216134	0.048144	0.573294
C39	C	1.351389	0.208039	0.590170
C40	C	1.350691	0.211020	0.751311
H41	H	1.083191	-0.185998	0.041929
H42	H	1.261140	-0.211847	0.389418
H43	H	1.384669	-0.231025	0.034077
H44	H	1.258550	-0.213676	-0.071562
H45	H	1.275985	-0.031463	0.541782
O46	O	1.174846	0.415184	0.516279
H47	H	1.245446	0.407784	0.457052
H48	H	1.078113	-0.403791	0.040732
H49	H	1.417322	0.140403	0.799947
H50	H	1.374750	0.302833	0.552468
H51	H	1.369234	0.308680	0.791882
H52	H	0.559767	0.175411	0.425455
O53	O	1.410152	-0.464932	0.045814
H54	H	1.422787	-0.528103	0.139489
H55	H	0.559752	0.175386	-0.032031
O56	O	1.063385	-0.415081	0.258356
H57	H	1.114170	-0.485343	0.327146
O58	O	1.435650	0.107818	0.550212
H59	H	1.399297	0.038568	0.478515
O60	O	0.709541	0.179429	-0.172566
H61	H	0.624200	0.177152	-0.162146
O62	O	1.111524	0.014562	0.774811
H63	H	1.076482	0.092508	0.838646
H64	H	1.277344	-0.031636	0.780512
H65	H	0.922674	0.185137	-0.112370
H66	H	0.922657	0.185143	0.345124
O67	O	0.772894	0.181130	0.485639
H68	H	0.716427	0.179617	0.566194
H69	H	1.082871	-0.186834	0.231405
H70	H	1.170105	0.382406	0.767703
H71	H	1.135761	0.023856	0.525579
H72	H	1.380054	-0.449639	0.312231
O73	O	1.048050	0.260760	0.497977
H74	H	1.055127	0.175577	0.430369
H75	H	1.254667	-0.429153	0.389156
H76	H	1.260797	-0.433082	-0.071931
O77	O	1.413613	-0.225701	0.316894
H78	H	1.431246	-0.166681	0.228081
H79	H	1.073707	0.265917	0.754565
