data_functionalizedCrystal
_audit_creation_method	'MofGen! by Chris Wilmer'
_symmetry_space_group_name_H-M	'P1'
_symmetry_Int_Tables_number	1
_symmetry_cell_setting	triclinic
loop_
_symmetry_equiv_pos_as_xyz
  x,y,z
_cell_length_a	18.050591
_cell_length_b	18.101395
_cell_length_c	18.101389
_cell_angle_alpha	89.983159
_cell_angle_beta	90.025013
_cell_angle_gamma	89.972890
loop_
_atom_site_label
_atom_site_type_symbol
_atom_site_fract_x
_atom_site_fract_y
_atom_site_fract_z
Zn1	Zn	1.135308	0.294986	0.418860
Zn2	Zn	1.468641	0.628319	0.752194
Zn3	Zn	1.801974	0.961653	1.085527
Zn4	Zn	1.135203	0.418812	0.295022
Zn5	Zn	1.468537	0.752145	0.628356
Zn6	Zn	1.801870	1.085479	0.961689
Zn7	Zn	1.011118	0.294980	0.295020
Zn8	Zn	1.344451	0.628313	0.628353
Zn9	Zn	1.677785	0.961647	0.961687
Zn10	Zn	1.011069	0.418782	0.418809
Zn11	Zn	1.344402	0.752115	0.752143
Zn12	Zn	1.677735	1.085448	1.085476
O13	O	1.073174	0.356890	0.356928
O14	O	1.406508	0.690223	0.690261
O15	O	1.739841	1.023557	1.023595
O16	O	1.239218	0.311427	0.402455
O17	O	1.572552	0.644760	0.735789
O18	O	1.905885	0.978094	1.069122
O19	O	1.118720	0.402395	0.191389
O20	O	1.452053	0.735729	0.524722
O21	O	1.785387	1.069062	0.858056
O22	O	1.027656	0.191348	0.311468
O23	O	1.360990	0.524681	0.644802
O24	O	1.694323	0.858015	0.978135
O25	O	1.239142	0.402401	0.311472
O26	O	1.572475	0.735735	0.644805
O27	O	1.905808	1.069068	0.978139
O28	O	1.118898	0.191352	0.402453
O29	O	1.452231	0.524686	0.735786
O30	O	1.785565	0.858019	1.069120
O31	O	1.027555	0.311417	0.191387
O32	O	1.360888	0.644750	0.524721
O33	O	1.694222	0.978083	0.858054
O34	O	0.907187	0.311387	0.311419
O35	O	1.240520	0.644721	0.644752
O36	O	1.573853	0.978054	0.978085
O37	O	1.027572	0.402350	0.522449
O38	O	1.360905	0.735683	0.855782
O39	O	1.694239	1.069017	1.189116
O40	O	0.907151	0.402344	0.402366
O41	O	1.240484	0.735677	0.735700
O42	O	1.573817	1.069011	1.069033
O43	O	1.118850	0.311398	0.522487
O44	O	1.452183	0.644731	0.855820
O45	O	1.785517	0.978065	1.189153
O46	O	1.118672	0.522441	0.311422
O47	O	1.452005	0.855774	0.644756
O48	O	1.785339	1.189107	0.978089
O49	O	1.027471	0.522419	0.402368
O50	O	1.360804	0.855752	0.735702
O51	O	1.694138	1.189085	1.069035
C52	C	1.073075	0.549301	0.356906
C53	C	1.406408	0.882634	0.690240
C54	C	1.739742	1.215967	1.023573
C55	C	1.073100	0.631615	0.356922
C56	C	1.406434	0.964948	0.690255
C57	C	1.739767	1.298281	1.023588
C58	C	0.880222	0.356862	0.356887
C59	C	1.213556	0.690196	0.690220
C60	C	1.546889	1.023529	1.023554
C61	C	0.797676	0.356868	0.356887
C62	C	1.131010	0.690202	0.690220
C63	C	1.464343	1.023535	1.023554
C64	C	1.073217	0.356871	0.550090
C65	C	1.406551	0.690205	0.883423
C66	C	1.739884	1.023538	1.216757
C67	C	1.073236	0.356863	0.632404
C68	C	1.406569	0.690197	0.965737
C69	C	1.739902	1.023530	1.299071
C70	C	0.598224	0.307349	0.307544
C71	C	0.931557	0.640682	0.640877
C72	C	1.264891	0.974016	0.974210
C73	C	0.548800	0.374893	0.289321
C74	C	0.882133	0.708227	0.622654
C75	C	1.215466	1.041560	0.955988
C76	C	0.646546	0.356891	0.356921
C77	C	0.979879	0.690224	0.690254
C78	C	1.313213	1.023558	1.023587
C79	C	0.548889	0.289370	0.375142
C80	C	0.882222	0.622703	0.708475
C81	C	1.215555	0.956037	1.041808
C82	C	0.500561	0.356907	0.356952
C83	C	0.833894	0.690240	0.690285
C84	C	1.167228	1.023573	1.023618
C85	C	0.598209	0.424471	0.338662
C86	C	0.931542	0.757804	0.671996
C87	C	1.264876	1.091137	1.005329
C88	C	0.598302	0.338902	0.424515
C89	C	0.931636	0.672235	0.757848
C90	C	1.264969	1.005568	1.091181
C91	C	0.548900	0.406493	0.406317
C92	C	0.882234	0.739826	0.739651
C93	C	1.215567	1.073160	1.072984
C94	C	0.730644	0.356881	0.356901
C95	C	1.063978	0.690214	0.690234
C96	C	1.397311	1.023547	1.023568
C97	C	0.416464	0.356924	0.356971
C98	C	0.749798	0.690258	0.690305
C99	C	1.083131	1.023591	1.023638
C100	C	1.266880	0.356918	0.356970
C101	C	1.600213	0.690252	0.690303
C102	C	1.933547	1.023585	1.023636
C103	C	1.349426	0.356930	0.356987
C104	C	1.682759	0.690264	0.690321
C105	C	2.016092	1.023597	1.023654
C106	C	1.073294	0.163728	0.356966
C107	C	1.406628	0.497061	0.690299
C108	C	1.739961	0.830395	1.023633
C109	C	1.073345	0.081414	0.356982
C110	C	1.406679	0.414747	0.690316
C111	C	1.740012	0.748081	1.023649
C112	C	1.073263	0.930706	0.356962
C113	C	1.406597	1.264039	0.690295
C114	C	1.739930	1.597372	1.023628
C115	C	1.016015	0.899397	0.414324
C116	C	1.349348	1.232731	0.747658
C117	C	1.682682	1.566064	1.080991
C118	C	1.015743	0.813779	0.414145
C119	C	1.349076	1.147113	0.747478
C120	C	1.682410	1.480446	1.080812
C121	C	1.073182	0.782323	0.356942
C122	C	1.406516	1.115656	0.690276
C123	C	1.739849	1.448990	1.023609
C124	C	1.051994	0.813459	0.278891
C125	C	1.385327	1.146792	0.612224
C126	C	1.718660	1.480125	0.945557
C127	C	1.051625	0.899104	0.279234
C128	C	1.384958	1.232437	0.612567
C129	C	1.718291	1.565771	0.945901
C130	C	1.151826	0.899058	0.376964
C131	C	1.485159	1.232392	0.710297
C132	C	1.818492	1.565725	1.043630
C133	C	1.151364	0.813408	0.378675
C134	C	1.484697	1.146741	0.712009
C135	C	1.818030	1.480074	1.045342
C136	C	1.073138	0.698464	0.356927
C137	C	1.406471	1.031797	0.690260
C138	C	1.739805	1.365130	1.023593
C139	C	1.073306	1.014565	0.356972
C140	C	1.406639	1.347898	0.690305
C141	C	1.739973	1.681232	1.023639
C142	C	1.073174	0.356855	0.164518
C143	C	1.406508	0.690189	0.497851
C144	C	1.739841	1.023522	0.831184
C145	C	1.073300	0.356655	0.082204
C146	C	1.406633	0.689988	0.415537
C147	C	1.739967	1.023321	0.748871
C148	C	1.073279	0.356724	0.931495
C149	C	1.406612	0.690058	1.264829
C150	C	1.739945	1.023391	1.598162
C151	C	1.015652	0.413767	0.900146
C152	C	1.348985	0.747100	1.233480
C153	C	1.682318	1.080434	1.566813
C154	C	1.015807	0.414032	0.814528
C155	C	1.349141	0.747365	1.147862
C156	C	1.682474	1.080698	1.481195
C157	C	1.073257	0.356793	0.783113
C158	C	1.406590	0.690127	1.116446
C159	C	1.739923	1.023460	1.449779
C160	C	1.151502	0.377983	0.814220
C161	C	1.484835	0.711316	1.147553
C162	C	1.818168	1.044649	1.480887
C163	C	1.151181	0.378357	0.899865
C164	C	1.484514	0.711691	1.233198
C165	C	1.817847	1.045024	1.566532
C166	C	1.053341	0.278365	0.899917
C167	C	1.386675	0.611699	1.233250
C168	C	1.720008	0.945032	1.566584
C169	C	1.051600	0.278818	0.814266
C170	C	1.384934	0.612151	1.147600
C171	C	1.718267	0.945485	1.480933
C172	C	1.073249	0.356831	0.699253
C173	C	1.406582	0.690164	1.032586
C174	C	1.739916	1.023498	1.365920
C175	C	1.073292	0.356689	1.015355
C176	C	1.406625	0.690022	1.348688
C177	C	1.739958	1.023355	1.682022
H178	H	0.619881	0.265498	0.265742
H179	H	0.953214	0.598831	0.599076
H180	H	1.286547	0.932165	0.932409
F181	F	0.939969	0.396696	0.787033
F182	F	1.273303	0.730029	1.120367
F183	F	1.606636	1.063362	1.453700
H184	H	0.527380	0.448444	0.448087
H185	H	0.860713	0.781777	0.781420
H186	H	1.194046	1.115111	1.114753
H187	H	0.527057	0.390120	0.232171
H188	H	0.860390	0.723454	0.565504
H189	H	1.193724	1.056787	0.898838
H190	H	1.029000	0.792727	0.472019
H191	H	1.362333	1.126060	0.805352
H192	H	1.695666	1.459393	1.138686
F193	F	0.939581	0.396609	0.927045
F194	F	1.272914	0.729943	1.260378
F195	F	1.606248	1.063276	1.593712
F196	F	1.108203	0.222815	0.926417
F197	F	1.441536	0.556148	1.259750
F198	F	1.774870	0.889482	1.593084
H199	H	1.028684	0.471495	0.921674
H200	H	1.362017	0.804828	1.255007
H201	H	1.695350	1.138161	1.588340
H202	H	1.091513	0.919816	0.235036
H203	H	1.424846	1.253149	0.568370
H204	H	1.758180	1.586483	0.901703
F205	F	1.173978	0.452058	0.786197
F206	F	1.507311	0.785392	1.119531
F207	F	1.840644	1.118725	1.452864
F208	F	0.977724	0.785502	0.256348
F209	F	1.311057	1.118836	0.589681
F210	F	1.644391	1.452169	0.923015
H211	H	0.619783	0.481596	0.323201
H212	H	0.953117	0.814929	0.656534
H213	H	1.286450	1.148263	0.989867
F214	F	0.626744	0.318974	0.499193
F215	F	0.960077	0.652307	0.832527
F216	F	1.293410	0.985641	1.165860
F217	F	1.207578	0.925532	0.322364
F218	F	1.540911	1.258865	0.655698
F219	F	1.874245	1.592198	0.989031
F220	F	1.033047	0.489941	0.787755
F221	F	1.366380	0.823275	1.121088
F222	F	1.699713	1.156608	1.454422
F223	F	0.520566	0.214727	0.395268
F224	F	0.853899	0.548060	0.728601
F225	F	1.187233	0.881394	1.061934
F226	F	1.033167	0.926271	0.490217
F227	F	1.366500	1.259604	0.823550
F228	F	1.699833	1.592938	1.156884
F229	F	1.102465	0.220317	0.786323
F230	F	1.435798	0.553651	1.119657
F231	F	1.769131	0.886984	1.452990
H232	H	1.092379	0.793083	0.234985
H233	H	1.425712	1.126416	0.568319
H234	H	1.759046	1.459750	0.901652
F235	F	0.980060	0.253134	0.928127
F236	F	1.313393	0.586467	1.261461
F237	F	1.646726	0.919800	1.594794
H238	H	0.994019	0.262839	0.793933
H239	H	1.327352	0.596172	1.127267
H240	H	1.660686	0.929506	1.460600
F241	F	1.177076	0.927237	0.450089
F242	F	1.510410	1.260571	0.783422
F243	F	1.843743	1.593904	1.116756
F244	F	0.939629	0.787073	0.396830
F245	F	1.272962	1.120406	0.730163
F246	F	1.606295	1.453739	1.063496
H247	H	0.958137	0.920977	0.401241
H248	H	1.291470	1.254311	0.734575
H249	H	1.624804	1.587644	1.067908
F250	F	0.976562	0.925294	0.257089
F251	F	1.309895	1.258628	0.590422
F252	F	1.643229	1.591961	0.923756
H253	H	1.167342	0.793056	0.436117
H254	H	1.500675	1.126389	0.769450
H255	H	1.834009	1.459723	1.102784
F256	F	1.173271	0.453228	0.925989
F257	F	1.506605	0.786561	1.259322
F258	F	1.839938	1.119895	1.592656
H259	H	1.196273	0.791991	0.339941
H260	H	1.529606	1.125324	0.673274
H261	H	1.862940	1.458658	1.006608
H262	H	1.195573	0.338614	0.920605
H263	H	1.528906	0.671947	1.253938
H264	H	1.862239	1.005280	1.587271
H265	H	1.195591	0.337741	0.793873
H266	H	1.528925	0.671075	1.127207
H267	H	1.862258	1.004408	1.460540
