data_functionalizedCrystal
_audit_creation_method	'MofGen! by Chris Wilmer'
_symmetry_space_group_name_H-M	'P1'
_symmetry_Int_Tables_number	1
_symmetry_cell_setting	triclinic
loop_
_symmetry_equiv_pos_as_xyz
  x,y,z
_cell_length_a	16.959455
_cell_length_b	16.625545
_cell_length_c	16.959447
_cell_angle_alpha	89.969947
_cell_angle_beta	90.016723
_cell_angle_gamma	89.977015
loop_
_atom_site_label
_atom_site_type_symbol
_atom_site_fract_x
_atom_site_fract_y
_atom_site_fract_z
Zn1	Zn	1.208362	0.321008	0.446961
Zn2	Zn	1.208275	0.455856	0.314783
Zn3	Zn	1.076190	0.321038	0.314793
Zn4	Zn	1.076146	0.455800	0.446916
O5	O	1.142243	0.388426	0.380863
O6	O	1.318961	0.338907	0.429442
O7	O	1.190736	0.438008	0.204173
O8	O	1.093778	0.208202	0.332348
O9	O	1.318898	0.437979	0.332331
O10	O	1.190884	0.208180	0.429451
O11	O	1.093694	0.338958	0.204180
O12	O	0.965574	0.338904	0.332305
O13	O	1.093702	0.437884	0.557533
O14	O	0.965541	0.437913	0.429375
O15	O	1.190841	0.338853	0.557566
O16	O	1.190693	0.568681	0.332288
O17	O	1.093618	0.568640	0.429365
C18	C	0.936877	0.388406	0.380836
C19	C	0.849021	0.388418	0.380844
C20	C	0.807740	0.336795	0.330385
C21	C	0.807748	0.440047	0.431314
C22	C	0.725202	0.440056	0.431326
C23	C	0.683921	0.388433	0.380867
C24	C	0.725187	0.336801	0.330396
C25	C	0.683930	0.491681	0.481801
C26	C	0.601379	0.491692	0.481816
C27	C	0.560097	0.440072	0.431352
C28	C	0.601368	0.388439	0.380879
C29	C	0.560087	0.336816	0.330420
C30	C	0.601356	0.285186	0.279942
C31	C	0.683905	0.285181	0.279933
C32	C	0.477549	0.440077	0.431361
C33	C	0.477534	0.336822	0.330431
C34	C	1.142163	0.597917	0.380838
C35	C	1.142201	0.687538	0.380853
C36	C	1.142330	1.015713	0.380948
C37	C	1.142292	0.924405	0.380924
C38	C	1.142265	0.851628	0.380900
C39	C	1.142228	0.760314	0.380877
C40	C	1.348412	0.388446	0.380890
C41	C	1.436268	0.388454	0.380902
C42	C	1.142276	0.388359	0.587031
C43	C	1.142290	0.388330	0.674888
C44	C	1.142339	1.178117	0.380915
C45	C	1.142363	1.088496	0.380961
C46	C	1.142256	0.388434	0.175497
C47	C	1.142395	0.388235	0.087641
C48	C	1.091809	0.439806	1.046349
C49	C	1.192960	0.336685	1.046379
C50	C	1.192939	0.336702	0.963833
C51	C	1.142353	0.388273	0.922541
C52	C	1.091788	0.439827	0.963796
C53	C	1.243509	0.285154	0.922572
C54	C	1.243491	0.285170	0.840021
C55	C	1.192900	0.336738	0.798728
C56	C	1.142332	0.388293	0.839988
C57	C	1.091746	0.439864	0.798696
C58	C	1.041174	0.491416	0.839954
C59	C	1.041198	0.491394	0.922503
C60	C	1.192877	0.336759	0.716180
C61	C	1.091725	0.439884	0.716142
H62	H	0.567735	0.243150	0.238862
C63	C	1.248502	0.280060	0.670797
C64	C	1.310525	0.315023	0.614039
C65	C	1.366154	0.258320	0.568658
C66	C	1.359759	0.166654	0.580035
C67	C	1.297734	0.131687	0.636796
C68	C	1.242105	0.188390	0.682177
H69	H	1.315261	0.382884	0.605615
H70	H	1.412069	0.284206	0.526640
H71	H	1.400939	0.124679	0.546441
H72	H	1.292998	0.063826	0.645220
H73	H	1.196189	0.162504	0.724195
C74	C	0.555989	0.548489	0.537334
C75	C	0.567313	0.640141	0.530726
C76	C	0.521921	0.696941	0.586242
C77	C	0.465206	0.662088	0.648367
C78	C	0.453880	0.570431	0.654977
C79	C	0.499271	0.513631	0.599461
H80	H	0.609299	0.665946	0.484736
H81	H	0.530307	0.764792	0.581349
H82	H	0.431605	0.704135	0.689463
H83	H	0.411893	0.544627	0.700967
H84	H	0.490886	0.445781	0.604355
H85	H	1.284669	0.243193	0.806436
C86	C	0.432154	0.496863	0.486882
C87	C	0.375441	0.461998	0.549003
C88	C	0.330048	0.518788	0.604527
C89	C	0.341368	0.610442	0.597931
C90	C	0.398083	0.645311	0.535808
C91	C	0.443476	0.588521	0.480284
H92	H	0.367060	0.394146	0.553888
H93	H	0.288064	0.492975	0.650515
H94	H	0.307765	0.652481	0.639033
H95	H	0.406464	0.713163	0.530923
H96	H	0.485461	0.614334	0.434296
C97	C	0.729306	0.228386	0.224421
C98	C	0.786087	0.165124	0.258784
C99	C	0.831494	0.108327	0.203278
C100	C	0.820120	0.114793	0.113408
C101	C	0.763337	0.178058	0.079041
C102	C	0.717930	0.234854	0.134547
H103	H	0.794509	0.160335	0.325315
H104	H	0.873529	0.061494	0.228720
H105	H	0.853733	0.072749	0.072319
H106	H	0.754915	0.182847	0.012510
H107	H	0.675895	0.281687	0.109105
H108	H	0.717547	0.533707	0.522885
H109	H	1.000027	0.533368	0.956102
H110	H	1.234150	0.294702	1.080003
H111	H	0.841345	0.294761	0.289285
H112	H	0.841363	0.482072	0.472399
C113	C	1.299150	0.228432	0.967996
C114	C	1.361194	0.263367	1.024747
C115	C	1.416835	0.206642	1.070177
C116	C	1.410432	0.114981	1.058856
C117	C	1.348385	0.080041	1.002101
C118	C	1.292744	0.136766	0.956671
H119	H	1.365936	0.331224	1.033131
H120	H	1.462766	0.232507	1.112191
H121	H	1.451621	0.072989	1.092486
H122	H	1.343643	0.012184	0.993718
H123	H	1.246814	0.110901	0.914658
H124	H	0.443929	0.294785	0.289340
C125	C	0.985536	0.548147	0.794526
C126	C	0.923492	0.513218	0.737771
C127	C	0.867859	0.569949	0.692337
C128	C	0.874271	0.661609	0.703659
C129	C	0.936318	0.696543	0.760416
C130	C	0.991951	0.639812	0.805849
H131	H	0.918743	0.445361	0.729388
H132	H	0.821928	0.544088	0.650322
H133	H	0.833088	0.703605	0.670026
H134	H	0.941067	0.764400	0.768799
H135	H	1.037882	0.665673	0.847865
C136	C	1.036078	0.496615	0.670725
C137	C	0.974025	0.461685	0.613980
C138	C	0.918378	0.518415	0.568562
C139	C	0.924784	0.610074	0.579890
C140	C	0.986839	0.645009	0.636638
C141	C	1.042486	0.588279	0.682056
H142	H	0.969281	0.393828	0.605591
H143	H	0.872441	0.492553	0.526554
H144	H	0.883590	0.652069	0.546270
H145	H	0.991583	0.712865	0.645026
H146	H	1.088424	0.614141	0.724064
C147	C	1.036187	0.496513	1.091732
C148	C	1.070424	0.559803	1.148468
C149	C	1.014804	0.616510	1.193854
C150	C	0.924946	0.609928	1.182505
C151	C	0.890704	0.546635	1.125766
C152	C	0.946325	0.489928	1.080380
H153	H	1.136946	0.564677	1.156872
H154	H	1.040152	0.663363	1.235856
H155	H	0.883773	0.651906	1.216102
H156	H	0.824182	0.541760	1.117363
H157	H	0.920976	0.443075	1.038379
