data_functionalizedCrystal
_audit_creation_method	'MofGen! by Chris Wilmer'
_symmetry_space_group_name_H-M	'P1'
_symmetry_Int_Tables_number	1
_symmetry_cell_setting	triclinic
loop_
_symmetry_equiv_pos_as_xyz
  x,y,z
_cell_length_a	21.295420
_cell_length_b	14.908579
_cell_length_c	14.908308
_cell_angle_alpha	96.363296
_cell_angle_beta	93.277134
_cell_angle_gamma	93.316180
loop_
_atom_site_label
_atom_site_type_symbol
_atom_site_fract_x
_atom_site_fract_y
_atom_site_fract_z
Zn1	Zn	-0.925192	0.390017	0.532628
Zn2	Zn	-0.425192	0.890017	1.032628
Zn3	Zn	-0.925118	0.532663	0.390005
Zn4	Zn	-0.425118	1.032663	0.890005
Zn5	Zn	-0.826373	0.381304	0.381281
Zn6	Zn	-0.326373	0.881304	0.881281
Zn7	Zn	-0.813455	0.541319	0.541309
Zn8	Zn	-0.313455	1.041319	1.041309
O9	O	-0.872535	0.461326	0.461306
O10	O	-0.372535	0.961326	0.961306
O11	O	-1.013270	0.408963	0.513727
O12	O	-0.513270	0.908963	1.013727
O13	O	-0.917394	0.505316	0.262187
O14	O	-0.417394	1.005316	0.762187
O15	O	-0.844918	0.255796	0.394073
O16	O	-0.344918	0.755796	0.894073
O17	O	-1.013216	0.513764	0.408942
O18	O	-0.513216	1.013764	0.908942
O19	O	-0.917521	0.262197	0.505267
O20	O	-0.417521	0.762197	1.005267
O21	O	-0.844846	0.394114	0.255777
O22	O	-0.344846	0.894114	0.755777
O23	O	-0.736572	0.402507	0.402491
O24	O	-0.236572	0.902507	0.902491
O25	O	-0.822903	0.528517	0.666818
O26	O	-0.322903	1.028517	1.166818
O27	O	-0.727081	0.520069	0.520063
O28	O	-0.227081	1.020069	1.020063
O29	O	-0.904995	0.417356	0.660440
O30	O	-0.404995	0.917356	1.160440
O31	O	-0.904869	0.660475	0.417360
O32	O	-0.404869	1.160475	0.917360
O33	O	-0.822831	0.666835	0.528522
O34	O	-0.322831	1.166835	1.028522
C35	C	-0.708986	0.461282	0.461273
C36	C	-0.208986	0.961282	0.961273
C37	C	-0.639018	0.461287	0.461282
C38	C	-0.139018	0.961287	0.961282
C39	C	-0.862456	0.696499	0.474850
C40	C	-0.362456	1.196499	0.974850
C41	C	-0.858201	0.797108	0.480674
C42	C	-0.358201	1.297108	0.980674
C43	C	-0.862516	0.474874	0.697389
C44	C	-0.362516	0.974874	1.197389
C45	C	-0.858247	0.480648	0.797994
C46	C	-0.358247	0.980648	1.297994
C47	C	-0.139577	0.406865	0.515959
C48	C	0.360423	0.906865	1.015959
C49	C	-0.205319	0.406861	0.515961
C50	C	0.294681	0.906861	1.015961
C51	C	-0.238175	0.461326	0.461308
C52	C	0.261825	0.961326	0.961308
C53	C	-0.205282	0.515815	0.406667
C54	C	0.294718	1.015815	0.906667
C55	C	-0.139540	0.515824	0.406674
C56	C	0.360460	1.015824	0.906674
N57	N	-0.344457	0.463585	0.382450
N58	N	0.155543	0.963585	0.882450
N59	N	-0.406909	0.463571	0.382446
N60	N	0.093091	0.963571	0.882446
C61	C	-0.436252	0.461303	0.461286
C62	C	0.063748	0.961303	0.961286
N63	N	-0.400785	0.459032	0.540131
N64	N	0.099215	0.959032	1.040131
N65	N	-0.338327	0.459041	0.540134
N66	N	0.161673	0.959041	1.040134
C67	C	-0.309462	0.461322	0.461295
C68	C	0.190538	0.961322	0.961295
C69	C	-0.540423	0.406818	0.515930
C70	C	-0.040423	0.906818	1.015930
C71	C	-0.606166	0.406821	0.515934
C72	C	-0.106166	0.906821	1.015934
C73	C	-0.606128	0.515769	0.406632
C74	C	-0.106128	1.015769	0.906632
C75	C	-0.540386	0.515772	0.406637
C76	C	-0.040386	1.015772	0.906637
C77	C	-0.507537	0.461291	0.461284
C78	C	-0.007537	0.961291	0.961284
C79	C	-0.036723	0.461359	0.461331
C80	C	0.463277	0.961359	0.961331
C81	C	-0.106692	0.461344	0.461322
C82	C	0.393308	0.961344	0.961322
C83	C	-0.935710	0.979487	0.375958
C84	C	-0.435710	1.479487	0.875958
C85	C	-0.931715	1.074019	0.381428
C86	C	-0.431715	1.574019	0.881428
C87	C	-0.846217	1.080705	0.497087
C88	C	-0.346217	1.580705	0.997087
C89	C	-0.850213	0.986173	0.491617
C90	C	-0.350213	1.486173	0.991617
C91	C	-0.894960	0.935568	0.431050
C92	C	-0.394960	1.435568	0.931050
C93	C	-0.898953	0.841034	0.425576
C94	C	-0.398953	1.341034	0.925576
C95	C	-0.813459	0.847722	0.541239
C96	C	-0.313459	1.347722	1.041239
C97	C	-0.809463	0.942254	0.546709
C98	C	-0.309463	1.442254	1.046709
C99	C	-0.882664	1.225236	0.447740
C100	C	-0.382664	1.725236	0.947740
C101	C	-0.886969	1.124631	0.441989
C102	C	-0.386969	1.624631	0.941989
C103	C	-0.882553	0.447765	0.226137
C104	C	-0.382553	0.947765	0.726137
C105	C	-0.886955	0.441736	0.125518
C106	C	-0.386955	0.941736	0.625518
C107	C	-0.935707	0.375724	0.980400
C108	C	-0.435707	0.875724	1.480400
C109	C	-0.931698	0.381146	1.074927
C110	C	-0.431698	0.881146	1.574927
C111	C	-0.846217	0.496907	1.081576
C112	C	-0.346217	0.996907	1.581576
C113	C	-0.850226	0.491486	0.987049
C114	C	-0.350226	0.991486	1.487049
C115	C	-0.894973	0.430893	0.936464
C116	C	-0.394973	0.930893	1.436464
C117	C	-0.898985	0.425477	0.841936
C118	C	-0.398985	0.925477	1.341936
C119	C	-0.813502	0.541233	0.848587
C120	C	-0.313502	1.041233	1.348587
C121	C	-0.809493	0.546655	0.943113
C122	C	-0.309493	1.046655	1.443113
H123	H	-0.112835	0.362507	0.560462
H124	H	0.387165	0.862507	1.060462
Cl125	Cl	-0.246669	0.338366	0.584651
Cl126	Cl	0.253331	0.838366	1.084651
Cl127	Cl	-0.789976	1.144340	0.573233
Cl128	Cl	-0.289976	1.644340	1.073233
H129	H	-0.780335	0.586158	0.812805
H130	H	-0.280335	1.086158	1.312805
Cl131	Cl	-0.955239	0.349306	0.778345
Cl132	Cl	-0.455239	0.849306	1.278345
H133	H	-0.773032	0.983470	0.596023
H134	H	-0.273032	1.483470	1.096023
Cl135	Cl	-0.499124	0.338333	0.584632
Cl136	Cl	0.000876	0.838333	1.084632
Cl137	Cl	-0.647426	0.584247	0.337932
Cl138	Cl	-0.147426	1.084247	0.837932
Cl139	Cl	-0.991965	0.299563	0.916805
Cl140	Cl	-0.491965	0.799563	1.416805
H141	H	-0.513611	0.560130	0.362140
H142	H	-0.013611	1.060130	0.862140
Cl143	Cl	-0.955204	0.777416	0.349433
Cl144	Cl	-0.455204	1.277416	0.849433
H145	H	-0.780276	0.811953	0.586096
H146	H	-0.280276	1.311953	1.086096
Cl147	Cl	-0.098198	0.584312	0.337976
Cl148	Cl	0.401802	1.084312	0.837976
H149	H	-0.964866	0.336219	1.110695
H150	H	-0.464866	0.836219	1.610695
H151	H	-0.972142	0.938282	0.326636
H152	H	-0.472142	1.438282	0.826636
Cl153	Cl	-0.647507	0.338335	0.584636
Cl154	Cl	-0.147507	0.838335	1.084636
H155	H	-0.809786	0.546238	1.122778
H156	H	-0.309786	1.046238	1.622778
H157	H	-0.964899	1.109774	0.336568
H158	H	-0.464899	1.609774	0.836568
H159	H	-0.773060	0.595985	0.984312
H160	H	-0.273060	1.095985	1.484312
Cl161	Cl	-0.246586	0.584288	0.337965
Cl162	Cl	0.253414	1.084288	0.837965
