data_functionalizedCrystal
_audit_creation_method	'MofGen! by Chris Wilmer'
_symmetry_space_group_name_H-M	'P1'
_symmetry_Int_Tables_number	1
_symmetry_cell_setting	triclinic
loop_
_symmetry_equiv_pos_as_xyz
  x,y,z
_cell_length_a	12.759401
_cell_length_b	12.645330
_cell_length_c	12.645331
_cell_angle_alpha	90.010682
_cell_angle_beta	90.007999
_cell_angle_gamma	90.019217
loop_
_atom_site_label
_atom_site_type_symbol
_atom_site_fract_x
_atom_site_fract_y
_atom_site_fract_z
Zn1	Zn	1.606110	-0.422136	0.599389
Zn2	Zn	1.606032	-0.599380	0.422130
Zn3	Zn	1.430449	-0.422136	0.422140
Zn4	Zn	1.430392	-0.599363	0.599351
O5	O	1.518246	-0.510754	0.510752
O6	O	1.753121	-0.445656	0.575887
O7	O	1.582731	-0.575876	0.273784
O8	O	1.453807	-0.273789	0.445673
O9	O	1.753063	-0.575876	0.445655
O10	O	1.582865	-0.273789	0.575897
O11	O	1.453731	-0.445655	0.273791
O12	O	1.283420	-0.445638	0.445636
O13	O	1.453710	-0.575846	0.747703
O14	O	1.283378	-0.575846	0.575832
O15	O	1.582810	-0.445639	0.747731
O16	O	1.582676	-0.747725	0.445618
O17	O	1.453634	-0.747712	0.575822
C18	C	1.245278	-0.510741	0.510731
C19	C	1.128502	-0.510761	0.510748
C20	C	1.073645	-0.578663	0.578434
C21	C	0.963921	-0.578667	0.578455
C22	C	0.963919	-0.442864	0.443094
C23	C	1.073642	-0.442855	0.443079
C24	C	1.518169	-0.786184	0.510738
C25	C	1.518232	-0.904014	0.510767
C26	C	1.437387	-1.071614	0.592931
C27	C	1.436973	-0.949054	0.592666
C28	C	1.488282	-0.948581	0.399046
C29	C	1.487788	-1.071179	0.399545
C30	C	1.629523	-1.071107	0.539418
C31	C	1.628841	-0.948501	0.541861
C32	C	1.792279	-0.510768	0.510774
C33	C	1.909056	-0.510774	0.510783
C34	C	1.518262	-0.510740	0.787258
C35	C	1.518270	-0.510735	0.905088
C36	C	1.518351	-0.234249	0.510791
C37	C	1.518396	-0.116419	0.510807
C38	C	1.599765	-0.429120	1.072669
C39	C	1.599531	-0.428780	0.950110
C40	C	1.407576	-0.480396	0.949570
C41	C	1.408043	-0.479821	1.072168
C42	C	1.546485	-0.622947	1.072285
C43	C	1.548934	-0.622338	0.949679
C44	C	1.518233	-0.510783	1.235323
C45	C	1.518262	-0.510766	1.117493
H46	H	0.919239	-0.387579	0.387999
H47	H	1.118307	-0.387554	0.387961
O48	O	1.459277	-0.913274	0.691567
C49	C	1.500377	-0.959325	0.871761
C50	C	1.475119	-0.999981	0.759804
H51	H	1.513214	-1.029406	0.926956
H52	H	1.432252	-0.909508	0.902072
H53	H	1.574443	-0.908948	0.869114
H54	H	1.401084	-1.050402	0.762361
H55	H	1.543303	-1.049740	0.729536
H56	H	1.455951	-1.101046	0.676043
H57	H	1.345251	-0.536701	1.101818
H58	H	1.355517	-1.102512	0.574218
O59	O	1.655917	-0.913923	0.639974
C60	C	1.785880	-0.915013	0.778248
C61	C	1.755357	-0.954245	0.667121
H62	H	1.866289	-0.947578	0.800221
H63	H	1.725380	-0.943442	0.838187
H64	H	1.788593	-0.824901	0.778574
H65	H	1.752656	-1.044353	0.666692
H66	H	1.815866	-0.925736	0.607231
H67	H	1.354588	-0.919817	0.573712
O68	O	1.126775	-0.644650	0.644272
C69	C	1.115191	-0.779384	0.778497
C70	C	1.054896	-0.704693	0.704002
H71	H	1.057103	-0.827965	0.826792
H72	H	1.166558	-0.730843	0.834074
H73	H	1.166562	-0.834695	0.729712
H74	H	1.003468	-0.649368	0.752702
H75	H	1.003595	-0.753301	0.648422
H76	H	1.406555	-1.099867	0.375307
O77	O	1.555120	-1.106370	0.323975
C78	C	1.677579	-1.059247	0.186786
C79	C	1.601353	-1.019257	0.272319
H80	H	1.714996	-0.988838	0.145014
H81	H	1.632927	-1.109223	0.126755
H82	H	1.741306	-1.109301	0.225327
H83	H	1.537609	-0.969161	0.233871
H84	H	1.646078	-0.969339	0.332341
H85	H	0.919262	-0.633959	0.633574
O86	O	1.556296	-0.913772	0.323920
C87	C	1.578340	-0.816372	0.161669
C88	C	1.501190	-0.855722	0.246663
H89	H	1.533820	-0.769412	0.099197
H90	H	1.618400	-0.886990	0.122865
H91	H	1.639937	-0.763518	0.200071
H92	H	1.439532	-0.908557	0.208343
H93	H	1.461208	-0.785055	0.285460
O94	O	1.392326	-0.912252	0.369550
C95	C	1.215375	-0.957187	0.320325
C96	C	1.324003	-0.998469	0.353688
H97	H	1.160100	-1.026871	0.307513
H98	H	1.222852	-0.910258	0.243727
H99	H	1.182736	-0.903854	0.385118
H100	H	1.356704	-1.051844	0.288967
H101	H	1.316460	-1.045338	0.430316
O102	O	1.698022	-0.451329	1.107900
C103	C	1.848300	-0.389780	1.205595
C104	C	1.737040	-0.364478	1.165731
H105	H	1.879870	-0.319585	1.252378
H106	H	1.901798	-0.405992	1.135239
H107	H	1.845567	-0.462539	1.258743
H108	H	1.739672	-0.291706	1.112600
H109	H	1.683587	-0.348331	1.236135
H110	H	1.656849	-1.101970	0.619500
O111	O	1.704709	-0.912105	0.475681
C112	C	1.839339	-0.956843	0.349782
C113	C	1.753475	-0.998203	0.424722
H114	H	1.878775	-1.026431	0.308545
H115	H	1.900186	-0.910854	0.397183
H116	H	1.802563	-0.902608	0.288079
H117	H	1.790156	-1.052480	0.486440
H118	H	1.692638	-1.044132	0.377250
H119	H	1.681612	-0.447779	0.920036
H120	H	1.689877	-1.100079	0.479604
H121	H	1.581318	-0.346477	1.103494
H122	H	1.580857	-0.345655	0.920797
O123	O	1.379536	-0.381922	1.106129
C124	C	1.327450	-0.205552	1.056781
C125	C	1.359742	-0.316371	1.018184
H126	H	1.311416	-0.152529	0.985698
H127	H	1.393405	-0.170078	1.106216
H128	H	1.253544	-0.212033	1.107018
H129	H	1.433623	-0.309982	0.967905
H130	H	1.293724	-0.351804	0.968806
H131	H	1.345211	-0.538014	0.920405
H132	H	1.383229	-0.399285	0.918875
H133	H	1.625778	-0.650594	1.103267
H134	H	1.630394	-0.645216	0.920605
O135	O	1.475593	-0.695530	1.106689
C136	C	1.344783	-0.824208	1.058225
C137	C	1.425015	-0.742035	1.019111
H138	H	1.303884	-0.861846	0.987439
H139	H	1.284185	-0.783657	1.110600
H140	H	1.386945	-0.888010	1.105604
H141	H	1.382944	-0.678211	0.971689
H142	H	1.485608	-0.782661	0.966791
H143	H	1.493899	-0.686419	0.919028
