data_functionalizedCrystal
_audit_creation_method	'MofGen! by Chris Wilmer'
_symmetry_space_group_name_H-M	'P1'
_symmetry_Int_Tables_number	1
_symmetry_cell_setting	triclinic
loop_
_symmetry_equiv_pos_as_xyz
  x,y,z
_cell_length_a	18.215407
_cell_length_b	12.759400
_cell_length_c	18.215399
_cell_angle_alpha	89.975454
_cell_angle_beta	89.980167
_cell_angle_gamma	90.015132
loop_
_atom_site_label
_atom_site_type_symbol
_atom_site_fract_x
_atom_site_fract_y
_atom_site_fract_z
Zn1	Zn	1.125124	-0.418265	-0.416133
Zn2	Zn	1.625124	0.081735	0.083867
Zn3	Zn	1.125054	-0.593962	-0.293074
Zn4	Zn	1.625054	-0.093962	0.206926
Zn5	Zn	1.002057	-0.418299	-0.293081
Zn6	Zn	1.502057	0.081701	0.206919
Zn7	Zn	1.002044	-0.593903	-0.416099
Zn8	Zn	1.502044	-0.093903	0.083901
O9	O	1.063570	-0.506107	-0.354597
O10	O	1.563570	-0.006107	0.145403
O11	O	1.228099	-0.441581	-0.399821
O12	O	1.728099	0.058419	0.100179
O13	O	1.108714	-0.570699	-0.190091
O14	O	1.608714	-0.070699	0.309909
O15	O	1.018416	-0.271273	-0.309421
O16	O	1.518416	0.228727	0.190579
O17	O	1.228048	-0.570665	-0.309410
O18	O	1.728048	-0.070665	0.190590
O19	O	1.108833	-0.271248	-0.399827
O20	O	1.608833	0.228752	0.100173
O21	O	1.018349	-0.441640	-0.190096
O22	O	1.518349	0.058360	0.309904
O23	O	0.899071	-0.441583	-0.309388
O24	O	1.399071	0.058417	0.190612
O25	O	1.018395	-0.570566	-0.519088
O26	O	1.518395	-0.070566	-0.019088
O27	O	0.899062	-0.570599	-0.399769
O28	O	1.399062	-0.070599	0.100231
O29	O	1.108821	-0.441525	-0.519113
O30	O	1.608821	0.058475	-0.019113
O31	O	1.108703	-0.740975	-0.309377
O32	O	1.608703	-0.240975	0.190623
O33	O	1.018328	-0.740932	-0.399763
O34	O	1.518328	-0.240932	0.100237
C35	C	0.872364	-0.506089	-0.354576
C36	C	1.372364	-0.006089	0.145424
C37	C	0.790565	-0.506107	-0.354584
C38	C	1.290565	-0.006107	0.145416
C39	C	0.602385	-0.573391	-0.401587
C40	C	1.102385	-0.073391	0.098413
C41	C	0.525527	-0.573394	-0.401596
C42	C	1.025527	-0.073394	0.098404
C43	C	0.525506	-0.438842	-0.307623
C44	C	1.025506	0.061158	0.192377
C45	C	0.602364	-0.438835	-0.307618
C46	C	1.102364	0.061165	0.192382
C47	C	0.640801	-0.506115	-0.354599
C48	C	1.140801	-0.006115	0.145401
C49	C	0.487085	-0.506126	-0.354613
C50	C	0.987085	-0.006126	0.145387
C51	C	0.403752	-0.506129	-0.354623
C52	C	0.903752	-0.006129	0.145377
C53	C	0.724140	-0.506111	-0.354590
C54	C	1.224140	-0.006111	0.145410
C55	C	1.063526	-0.779075	-0.354582
C56	C	1.563526	-0.279075	0.145418
C57	C	1.063575	-0.895851	-0.354600
C58	C	1.563575	-0.395851	0.145400
C59	C	1.110685	-0.950701	-0.307588
C60	C	1.610685	-0.450701	0.192412
C61	C	1.110731	-1.060425	-0.307610
C62	C	1.610731	-0.560425	0.192390
C63	C	1.016549	-1.060440	-0.401659
C64	C	1.516549	-0.560440	0.098341
C65	C	1.016508	-0.950718	-0.401639
C66	C	1.516508	-0.450718	0.098361
C67	C	1.157753	-0.895834	-0.260548
C68	C	1.657753	-0.395834	0.239452
C69	C	1.204866	-0.950683	-0.213532
C70	C	1.704866	-0.450683	0.286468
C71	C	1.204911	-1.060407	-0.213554
C72	C	1.704911	-0.560407	0.286446
C73	C	1.157843	-1.115282	-0.260593
C74	C	1.657843	-0.615282	0.239407
C75	C	1.255523	-0.506126	-0.354618
C76	C	1.755523	-0.006126	0.145382
C77	C	1.337322	-0.506134	-0.354628
C78	C	1.837322	-0.006134	0.145372
C79	C	1.063615	-0.506035	-0.546550
C80	C	1.563615	-0.006035	-0.046550
C81	C	1.063634	-0.506004	-0.628349
C82	C	1.563634	-0.006004	-0.128349
C83	C	1.063634	-0.232074	-0.354628
C84	C	1.563634	0.267926	0.145372
C85	C	1.063661	-0.115297	-0.354642
C86	C	1.563661	0.384703	0.145358
C87	C	1.110736	-0.438749	-0.816557
C88	C	1.610736	0.061251	-0.316557
C89	C	1.110744	-0.438719	-0.893416
C90	C	1.610744	0.061281	-0.393416
C91	C	1.016584	-0.573096	-0.893379
C92	C	1.516584	-0.073096	-0.393379
C93	C	1.016572	-0.573120	-0.816521
C94	C	1.516572	-0.073120	-0.316521
C95	C	1.063652	-0.505949	-0.778112
C96	C	1.563652	-0.005949	-0.278112
C97	C	1.063673	-0.505894	-0.931829
C98	C	1.563673	-0.005894	-0.431829
C99	C	1.063682	-0.505861	-1.015162
C100	C	1.563682	-0.005861	-0.515162
C101	C	1.063642	-0.505980	-0.694773
C102	C	1.563642	-0.005980	-0.194773
C103	C	1.063568	-0.506103	-0.163391
C104	C	1.563568	-0.006103	0.336609
C105	C	1.063691	-0.505838	-0.081592
C106	C	1.563691	-0.005838	0.418408
H107	H	0.494252	-0.628176	-0.439859
H108	H	0.994252	-0.128176	0.060141
C109	C	0.483218	-0.364844	-0.255943
C110	C	0.983218	0.135156	0.244057
N111	N	0.451367	-0.309109	-0.217015
N112	N	0.951367	0.190891	0.282985
C113	C	1.162518	-0.364849	-0.774310
C114	C	1.662518	0.135151	-0.274310
N115	N	1.201520	-0.309182	-0.742492
N116	N	1.701520	0.190818	-0.242492
H117	H	0.978255	-0.627787	-0.924660
H118	H	1.478255	-0.127787	-0.424660
C119	C	1.157718	-0.775135	-0.260529
C120	C	1.657718	-0.275135	0.239471
N121	N	1.157694	-0.684225	-0.260519
N122	N	1.657694	-0.184225	0.239481
C123	C	0.644664	-0.647393	-0.453272
C124	C	1.144664	-0.147393	0.046728
N125	N	0.676506	-0.703131	-0.492205
N126	N	1.176506	-0.203131	0.007795
C127	C	0.644624	-0.364822	-0.255925
C128	C	1.144624	0.135178	0.244075
N129	N	0.676454	-0.309077	-0.216993
N130	N	1.176454	0.190923	0.283007
H131	H	1.243192	-0.905999	-0.175238
H132	H	1.743192	-0.405999	0.324762
C133	C	1.256738	-1.120739	-0.161837
C134	C	1.756738	-0.620739	0.338163
N135	N	1.295772	-1.166178	-0.122879
N136	N	1.795772	-0.666178	0.377121
H137	H	0.978226	-0.627841	-0.785219
H138	H	1.478226	-0.127841	-0.285219
H139	H	1.149083	-0.383996	-0.924714
H140	H	1.649083	0.116004	-0.424714
C141	C	1.157898	-1.235982	-0.260618
C142	C	1.657898	-0.735982	0.239382
N143	N	1.157938	-1.326893	-0.260633
N144	N	1.657938	-0.826893	0.239367
H145	H	0.978227	-1.105127	-0.439955
H146	H	1.478227	-0.605127	0.060045
H147	H	0.978147	-0.906059	-0.439921
H148	H	1.478147	-0.406059	0.060079
