data_functionalizedCrystal
_audit_creation_method	'MofGen! by Chris Wilmer'
_symmetry_space_group_name_H-M	'P1'
_symmetry_Int_Tables_number	1
_symmetry_cell_setting	triclinic
loop_
_symmetry_equiv_pos_as_xyz
  x,y,z
_cell_length_a	15.297475
_cell_length_b	17.640280
_cell_length_c	15.296720
_cell_angle_alpha	90.295581
_cell_angle_beta	91.617114
_cell_angle_gamma	67.467946
loop_
_atom_site_label
_atom_site_type_symbol
_atom_site_fract_x
_atom_site_fract_y
_atom_site_fract_z
Zn1	Zn	1.417125	-0.622537	-0.611407
Zn2	Zn	1.472679	-0.737717	-0.443610
Zn3	Zn	1.284185	-0.577601	-0.447963
Zn4	Zn	1.298838	-0.729855	-0.566194
O5	O	1.368207	-0.666928	-0.517293
O6	O	1.552884	-0.659913	-0.606249
O7	O	1.464792	-0.700962	-0.324484
O8	O	1.272438	-0.471640	-0.490387
O9	O	1.593699	-0.744535	-0.482969
O10	O	1.370108	-0.504655	-0.610469
O11	O	1.326306	-0.583325	-0.327682
O12	O	1.157739	-0.575701	-0.446546
O13	O	1.297411	-0.731134	-0.691895
O14	O	1.168505	-0.687561	-0.533410
O15	O	1.384317	-0.652289	-0.725113
O16	O	1.479001	-0.848596	-0.439128
O17	O	1.351280	-0.842819	-0.529189
C18	C	1.129832	-0.625902	-0.485544
C19	C	1.027857	-0.608374	-0.471978
C20	C	0.763060	-0.792215	-0.614251
C21	C	0.858873	-0.808690	-0.626993
C22	C	0.901123	-0.758612	-0.588241
C23	C	0.847552	-0.692057	-0.536744
C24	C	0.751731	-0.675584	-0.523995
C25	C	0.889795	-0.641981	-0.497984
C26	C	0.836223	-0.575426	-0.446487
C27	C	0.740412	-0.558956	-0.433741
C28	C	0.698161	-0.609034	-0.472493
C29	C	0.985615	-0.658454	-0.510734
C30	C	0.974287	-0.541823	-0.420477
C31	C	0.878474	-0.525349	-0.407735
C32	C	1.422781	-0.874735	-0.478802
C33	C	1.446208	-0.963653	-0.462375
C34	C	1.190566	-1.241111	-0.642449
C35	C	1.212585	-1.324661	-0.626986
C36	C	1.345637	-1.330638	-0.533325
C37	C	1.323632	-1.247088	-0.548783
C38	C	1.246095	-1.202331	-0.603345
C39	C	1.379161	-1.208307	-0.509680
C40	C	1.357155	-1.124764	-0.525133
C41	C	1.279619	-1.080001	-0.579690
C42	C	1.224088	-1.118787	-0.618798
C43	C	1.456695	-1.253065	-0.455113
C44	C	1.512223	-1.214284	-0.416010
C45	C	1.490221	-1.130740	-0.431468
C46	C	1.412686	-1.085977	-0.486025
C47	C	1.545752	-1.091954	-0.392360
C48	C	1.523746	-1.008410	-0.407814
C49	C	1.390679	-1.002434	-0.501479
C50	C	1.607512	-0.708114	-0.549167
C51	C	1.709490	-0.725665	-0.562750
C52	C	1.336302	-0.695847	-0.740410
C53	C	1.322705	-0.708171	-0.835489
C54	C	1.313441	-0.458316	-0.555957
C55	C	1.290104	-0.369418	-0.572433
C56	C	1.465377	-0.578714	-1.172680
C57	C	1.478158	-0.567138	-1.083349
C58	C	1.439295	-0.602395	-1.021380
C59	C	1.387651	-0.649231	-1.048750
C60	C	1.374876	-0.660813	-1.138089
C61	C	1.348794	-0.684494	-0.986789
C62	C	1.297150	-0.731330	-1.014159
C63	C	1.284376	-0.742910	-1.103490
C64	C	1.323238	-0.707653	-1.165459
C65	C	1.361569	-0.672911	-0.897450
C66	C	1.271068	-0.755010	-0.862859
C67	C	1.258288	-0.766587	-0.952190
C68	C	1.400025	-0.638072	-0.295063
C69	C	1.413740	-0.625554	-0.200050
H70	H	1.327546	-0.965993	-0.545916
H71	H	1.216238	-0.804721	-0.974487
Cl72	Cl	0.811116	-0.441682	-0.342997
Cl73	Cl	1.307180	-0.722210	-1.277767
H74	H	1.127433	-1.204670	-0.686885
Cl75	Cl	1.222216	-0.799341	-0.784960
H76	H	1.474612	-1.321092	-0.442536
H77	H	0.979139	-0.772030	-0.598619
H78	H	1.029224	-0.712644	-0.552664
H79	H	1.261697	-1.011973	-0.592265
H80	H	1.242333	-0.781055	-1.125770
Cl81	Cl	1.142759	-1.373408	-0.676140
H82	H	1.008687	-0.501047	-0.388920
H83	H	1.497020	-0.550018	-1.223141
H84	H	0.902485	-0.862881	-0.668921
H85	H	1.408766	-1.367089	-0.488898
H86	H	0.728652	-0.832985	-0.645792
Cl87	Cl	0.673069	-0.475292	-0.368993
Cl88	Cl	0.577704	-0.588321	-0.456483
Cl89	Cl	1.126618	-1.062518	-0.687401
H90	H	1.575352	-1.250736	-0.371583
Cl91	Cl	1.643218	-1.148227	-0.323765
H92	H	1.403618	-0.634776	-0.875174
H93	H	1.568963	-0.976835	-0.375970
H94	H	1.449704	-0.592966	-0.948643
H95	H	1.520209	-0.529006	-1.061071
