data_functionalizedCrystal
_audit_creation_method	'MofGen! by Chris Wilmer'
_symmetry_space_group_name_H-M	'P1'
_symmetry_Int_Tables_number	1
_symmetry_cell_setting	triclinic
loop_
_symmetry_equiv_pos_as_xyz
  x,y,z
_cell_length_a	14.519731
_cell_length_b	14.044190
_cell_length_c	13.596369
_cell_angle_alpha	90.005026
_cell_angle_beta	90.006024
_cell_angle_gamma	88.440315
loop_
_atom_site_label
_atom_site_type_symbol
_atom_site_fract_x
_atom_site_fract_y
_atom_site_fract_z
O1	O	1.233892	0.124362	0.081805
O2	O	1.733892	0.624362	0.581805
O3	O	0.966597	0.138975	0.081808
O4	O	1.466597	0.638975	0.581808
O5	O	1.096229	-0.006323	0.081787
O6	O	1.596229	0.493677	0.581787
O7	O	1.104260	0.269661	0.081826
O8	O	1.604260	0.769661	0.581826
O9	O	1.096212	-0.006315	-0.081796
O10	O	1.596212	0.493685	0.418204
O11	O	0.966580	0.138984	-0.081775
O12	O	1.466580	0.638984	0.418225
O13	O	1.233875	0.124370	-0.081778
O14	O	1.733875	0.624370	0.418222
Zn15	Zn	1.100225	0.131678	-0.107749
Zn16	Zn	1.600225	0.631678	0.392251
Zn17	Zn	1.100247	0.131667	0.107779
Zn18	Zn	1.600247	0.631667	0.607779
O19	O	1.104243	0.269669	-0.081757
O20	O	1.604243	0.769669	0.418243
C21	C	0.932174	0.138295	0.000017
C22	C	1.432174	0.638295	0.500017
C23	C	0.829628	0.136243	0.000017
C24	C	1.329628	0.636243	0.500017
C25	C	0.746349	0.134576	0.000021
C26	C	1.246349	0.634576	0.500021
C27	C	0.641872	0.132492	0.000021
C28	C	1.141872	0.632492	0.500021
C29	C	0.558600	0.130839	0.000020
C30	C	1.058600	0.630839	0.500020
C31	C	0.454117	0.128756	0.000022
C32	C	0.954117	0.628756	0.500022
C33	C	1.092707	-0.041640	-0.000007
C34	C	1.592707	0.458360	0.499993
C35	C	1.082228	-0.146884	-0.000016
C36	C	1.582228	0.353116	0.499984
C37	C	1.137393	-0.397073	0.000022
C38	C	1.637393	0.102927	0.500022
C39	C	1.063083	-0.339576	0.000016
C40	C	1.563083	0.160424	0.500016
C41	C	1.073738	-0.232353	-0.000001
C42	C	1.573738	0.267647	0.499999
C43	C	1.126740	-0.504306	0.000040
C44	C	1.626740	-0.004306	0.500040
C45	C	1.268298	0.125051	0.000016
C46	C	1.768298	0.625051	0.500016
C47	C	1.370844	0.127102	0.000022
C48	C	1.870844	0.627102	0.500022
C49	C	1.107765	0.304985	0.000039
C50	C	1.607765	0.804985	0.500039
C51	C	1.118244	0.410230	0.000054
C52	C	1.618244	0.910230	0.500054
N53	N	1.100217	0.131685	-0.254841
N54	N	1.600217	0.631685	0.245159
C55	C	1.100221	0.131687	-0.343838
C56	C	1.600221	0.631687	0.156162
C57	C	1.100230	0.131680	-0.455490
C58	C	1.600230	0.631680	0.044510
C59	C	1.100241	0.131670	-0.544480
C60	C	1.600241	0.631670	-0.044480
C61	C	1.100251	0.131664	-0.656139
C62	C	1.600251	0.631664	-0.156139
N63	N	1.100262	0.131653	0.254871
N64	N	1.600262	0.631653	0.754871
H65	H	1.209007	-0.365772	0.000011
H66	H	1.709007	0.134228	0.500011
H67	H	0.991463	-0.370878	0.000023
H68	H	1.491463	0.129122	0.500023
