data_functionalizedCrystal
_audit_creation_method	'MofGen! by Chris Wilmer'
_symmetry_space_group_name_H-M	'P1'
_symmetry_Int_Tables_number	1
_symmetry_cell_setting	triclinic
loop_
_symmetry_equiv_pos_as_xyz
  x,y,z
_cell_length_a	18.215407
_cell_length_b	18.215405
_cell_length_c	18.215399
_cell_angle_alpha	89.969449
_cell_angle_beta	89.980167
_cell_angle_gamma	90.025333
loop_
_atom_site_label
_atom_site_type_symbol
_atom_site_fract_x
_atom_site_fract_y
_atom_site_fract_z
Zn1	Zn	1.125072	-0.292983	-0.416103
Zn2	Zn	1.124980	-0.416054	-0.293031
Zn3	Zn	1.002005	-0.293007	-0.293050
Zn4	Zn	1.001970	-0.416013	-0.416056
O5	O	1.063507	-0.354514	-0.354560
O6	O	1.228044	-0.309316	-0.399788
O7	O	1.108643	-0.399759	-0.190049
O8	O	1.018382	-0.190020	-0.309401
O9	O	1.227977	-0.399736	-0.309368
O10	O	1.108799	-0.190002	-0.399807
O11	O	1.018293	-0.309357	-0.190063
O12	O	0.899016	-0.309317	-0.309355
O13	O	1.018324	-0.399666	-0.519046
O14	O	0.898991	-0.399689	-0.399727
O15	O	1.108766	-0.309276	-0.519081
O16	O	1.108610	-0.519033	-0.309322
O17	O	1.018235	-0.519003	-0.399708
C18	C	0.872301	-0.354502	-0.354539
C19	C	0.790502	-0.354514	-0.354547
C20	C	0.602314	-0.401645	-0.401544
C21	C	0.525455	-0.401647	-0.401554
C22	C	0.525452	-0.307397	-0.307591
C23	C	0.602309	-0.307392	-0.307586
C24	C	0.640738	-0.354520	-0.354562
C25	C	0.487022	-0.354528	-0.354576
C26	C	0.403688	-0.354530	-0.354585
C27	C	0.724077	-0.354517	-0.354553
C28	C	1.063429	-0.545721	-0.354524
C29	C	1.063463	-0.627520	-0.354534
C30	C	1.110632	-0.815705	-0.307556
C31	C	1.110665	-0.892563	-0.307574
C32	C	1.016476	-0.892572	-0.401616
C33	C	1.016447	-0.815715	-0.401601
C34	C	1.063524	-0.777283	-0.354567
C35	C	1.063586	-0.930999	-0.354600
C36	C	1.063621	-1.014333	-0.354619
C37	C	1.063490	-0.693944	-0.354548
C38	C	1.255460	-0.354528	-0.354581
C39	C	1.337259	-0.354533	-0.354591
C40	C	1.063552	-0.354464	-0.546513
C41	C	1.063571	-0.354442	-0.628312
C42	C	1.063605	-0.162561	-0.354611
C43	C	1.063647	-0.080763	-0.354633
C44	C	1.110681	-0.307332	-0.816525
C45	C	1.110690	-0.307311	-0.893384
C46	C	1.016513	-0.401438	-0.893336
C47	C	1.016501	-0.401455	-0.816479
C48	C	1.063589	-0.354403	-0.778075
C49	C	1.063610	-0.354365	-0.931791
C50	C	1.063619	-0.354342	-1.015125
C51	C	1.063579	-0.354425	-0.694736
C52	C	1.063504	-0.354512	-0.163353
C53	C	1.063628	-0.354326	-0.081555
H54	H	0.494153	-0.269028	-0.269344
C55	C	0.688773	-0.208378	-0.297531
C56	C	0.644550	-0.255587	-0.255938
H57	H	0.714847	-0.176395	-0.265648
H58	H	0.722655	-0.236442	-0.325503
H59	H	0.658805	-0.180272	-0.329644
H60	H	0.674519	-0.283697	-0.223829
H61	H	0.610664	-0.227521	-0.227954
H62	H	1.148966	-0.784415	-0.269260
H63	H	0.494174	-0.440020	-0.439813
C64	C	1.203754	-0.884830	-0.214610
C65	C	1.162444	-0.934796	-0.255895
H66	H	1.235718	-0.910904	-0.182702
H67	H	1.231873	-0.854807	-0.246694
H68	H	1.171685	-0.854899	-0.186427
H69	H	1.194512	-0.964724	-0.284082
H70	H	1.134323	-0.964832	-0.223807
H71	H	0.978146	-0.923873	-0.439908
H72	H	0.978177	-0.439748	-0.924614
H73	H	0.978086	-0.784430	-0.439887
H74	H	1.149021	-0.269017	-0.785259
C75	C	1.146607	-0.182692	-0.917077
C76	C	1.162458	-0.255568	-0.935644
H77	H	1.178571	-0.150747	-0.943163
H78	H	1.097175	-0.171920	-0.929671
H79	H	1.153339	-0.175983	-0.865805
H80	H	1.155721	-0.262278	-0.986915
H81	H	1.211902	-0.266344	-0.923055
C82	C	0.594595	-0.494798	-0.494431
C83	C	0.644556	-0.453439	-0.453188
H84	H	0.620673	-0.526769	-0.526318
H85	H	0.564597	-0.522912	-0.462320
H86	H	0.564639	-0.462761	-0.522635
H87	H	0.674509	-0.485476	-0.424979
H88	H	0.674566	-0.425323	-0.485302
C89	C	0.923415	-0.494506	-0.824146
C90	C	0.964736	-0.453204	-0.774209
H91	H	0.891462	-0.526453	-0.798049
H92	H	0.895284	-0.462437	-0.854126
H93	H	0.955478	-0.522650	-0.854123
H94	H	0.932673	-0.425056	-0.744236
H95	H	0.992870	-0.485277	-0.744217
