data_functionalizedCrystal
_audit_creation_method	'MofGen! by Chris Wilmer'
_symmetry_space_group_name_H-M	'P1'
_symmetry_Int_Tables_number	1
_symmetry_cell_setting	triclinic
loop_
_symmetry_equiv_pos_as_xyz
  x,y,z
_cell_length_a	14.971486
_cell_length_b	11.792241
_cell_length_c	13.448316
_cell_angle_alpha	89.993264
_cell_angle_beta	89.998199
_cell_angle_gamma	83.903772
loop_
_atom_site_label
_atom_site_type_symbol
_atom_site_fract_x
_atom_site_fract_y
_atom_site_fract_z
O1	O	1.187540	0.147909	-0.082578
O2	O	0.927211	0.165622	-0.082605
O3	O	1.063693	-0.008446	-0.082584
O4	O	1.051058	0.321977	-0.082599
O5	O	1.063676	-0.008456	0.082800
O6	O	0.927194	0.165611	0.082779
O7	O	1.187523	0.147899	0.082806
Cu8	Cu	1.057357	0.156754	0.097893
Cu9	Cu	1.057377	0.156767	-0.097692
O10	O	1.051041	0.321966	0.082785
C11	C	0.893874	0.164824	0.000084
C12	C	0.794568	0.162451	0.000073
C13	C	0.737752	0.264710	0.000070
C14	C	0.644444	0.262473	0.000085
C15	C	0.607953	0.157975	0.000096
C16	C	0.664776	0.055707	0.000102
C17	C	0.758082	0.057946	0.000095
C18	C	0.470294	0.051049	0.000116
C19	C	0.376981	0.048810	0.000122
C20	C	0.356656	0.255577	0.000107
C21	C	0.449963	0.257815	0.000099
C22	C	0.506779	0.155547	0.000103
C23	C	1.062891	-0.050737	0.000108
C24	C	1.060515	-0.176735	0.000107
C25	C	1.056147	-0.407419	0.000089
C26	C	1.058574	-0.279050	0.000099
C27	C	1.220859	0.148696	0.000115
C28	C	1.320166	0.151070	0.000119
C29	C	1.051843	0.364257	0.000091
C30	C	1.054218	0.490256	0.000086
N31	N	1.057349	0.156744	0.235458
N32	N	1.057392	0.156767	-0.235257
C33	C	1.117802	0.079699	0.287507
C34	C	1.117808	0.079698	0.391611
C35	C	1.057363	0.156749	0.443662
C36	C	0.996904	0.233798	0.391605
C37	C	0.996895	0.233792	0.287504
C38	C	0.996929	0.233805	0.608585
C39	C	0.996939	0.233813	0.712694
C40	C	1.117842	0.079711	0.712692
C41	C	1.117832	0.079706	0.608591
C42	C	1.057374	0.156756	0.556541
H43	H	0.516553	-0.032229	0.000121
O44	O	0.938150	0.308488	0.442277
C45	C	0.882672	0.247589	0.502495
H46	H	0.917872	0.158850	0.518096
H47	H	0.816527	0.239736	0.462389
C48	C	0.820644	0.420534	0.582213
C49	C	0.863880	0.311547	0.601382
H50	H	0.809048	0.459988	0.643210
H51	H	0.858017	0.461565	0.541641
H52	H	0.765527	0.413975	0.548790
H53	H	0.919000	0.318108	0.634793
H54	H	0.826515	0.270519	0.641962
O55	O	0.938291	0.308810	0.558066
C56	C	0.953362	0.421195	0.583504
H57	H	1.024976	0.421898	0.612113
H58	H	0.903951	0.454434	0.643931
C59	C	0.851873	0.497247	0.455879
C60	C	0.939833	0.498111	0.491010
H61	H	0.843524	0.544695	0.398827
H62	H	0.841716	0.421532	0.438743
H63	H	0.810708	0.524944	0.506244
H64	H	0.980996	0.470402	0.440650
H65	H	0.949997	0.573824	0.508135
O66	O	0.938262	0.308794	0.236984
C67	C	0.953327	0.421182	0.262419
H68	H	1.024942	0.421892	0.291024
H69	H	0.903917	0.454418	0.322847
C70	C	0.851830	0.497222	0.134797
C71	C	0.939791	0.498096	0.169924
H72	H	0.843476	0.544668	0.077744
H73	H	0.841677	0.421504	0.117663
H74	H	0.810665	0.524916	0.185163
H75	H	0.980953	0.470389	0.119563
H76	H	0.949950	0.573811	0.187047
O77	O	0.773237	0.366194	-0.000120
C78	C	0.826613	0.373671	-0.085767
H79	H	0.804262	0.314332	-0.145628
H80	H	0.900061	0.347597	-0.066408
C81	C	0.843346	0.570101	-0.051092
C82	C	0.815889	0.497226	-0.124617
H83	H	0.836735	0.646315	-0.075055
H84	H	0.807388	0.565063	0.006613
H85	H	0.904551	0.548358	-0.034966
H86	H	0.754682	0.518960	-0.140732
H87	H	0.851836	0.502270	-0.182325
O88	O	1.176628	0.004826	0.442017
C89	C	1.229968	-0.063189	0.373752
H90	H	1.231183	-0.016657	0.299537
H91	H	1.200537	-0.147578	0.362702
C92	C	1.324860	-0.143499	0.505517
C93	C	1.326357	-0.086343	0.414366
H94	H	1.384316	-0.157787	0.530570
H95	H	1.288922	-0.097680	0.551509
H96	H	1.300329	-0.213817	0.496296
H97	H	1.350877	-0.016022	0.423590
H98	H	1.362302	-0.132152	0.368376
O99	O	0.341431	-0.052630	0.000276
C100	C	0.288086	-0.060111	0.085948
H101	H	0.265283	0.029317	0.114487
H102	H	0.329063	-0.110259	0.145933
C103	C	0.233272	-0.231181	0.024895
C104	C	0.205258	-0.121344	0.059943
H105	H	0.182182	-0.268957	0.008856
H106	H	0.269213	-0.226144	-0.032823
H107	H	0.267420	-0.272957	0.074888
H108	H	0.171121	-0.079567	0.009945
H109	H	0.169309	-0.126376	0.117651
H110	H	0.598187	0.345744	0.000081
O111	O	1.176535	0.004705	0.763135
C112	C	1.161449	-0.107685	0.737730
H113	H	1.126964	-0.107621	0.662153
H114	H	1.116772	-0.142887	0.796332
C115	C	1.294263	-0.183066	0.825735
C116	C	1.251914	-0.182989	0.732905
H117	H	1.350065	-0.229520	0.822763
H118	H	1.304426	-0.107348	0.842854
H119	H	1.257022	-0.212398	0.874560
H120	H	1.289149	-0.153644	0.684084
H121	H	1.241760	-0.258705	0.715777
O122	O	0.485524	0.359248	0.000204
C123	C	0.538883	0.366742	0.085857
H124	H	0.561676	0.277319	0.114432
H125	H	0.497922	0.416918	0.145831
C126	C	0.593718	0.537774	0.024710
C127	C	0.621719	0.427943	0.059801
H128	H	0.644813	0.575531	0.008640
H129	H	0.557767	0.532729	-0.032995
H130	H	0.559583	0.579573	0.074694
H131	H	0.655844	0.386142	0.009813
H132	H	0.657678	0.432983	0.117497
H133	H	1.167055	0.016971	0.566210
O134	O	0.301341	0.354817	0.000146
C135	C	0.211161	0.330439	0.000133
H136	H	0.207153	0.241290	0.031460
H137	H	0.184199	0.334697	-0.079209
C138	C	0.159413	0.527980	0.026502
C139	C	0.154489	0.418488	0.064987
H140	H	0.124453	0.582295	0.066502
H141	H	0.220169	0.544405	0.026507
H142	H	0.136946	0.531512	-0.039616
H143	H	0.176967	0.414954	0.131098
H144	H	0.093736	0.402064	0.064994
O145	O	0.629435	-0.045873	-0.000021
C146	C	0.658401	-0.108200	-0.085685
H147	H	0.723257	-0.077178	-0.114245
H148	H	0.604477	-0.095122	-0.145662
C149	C	0.595614	-0.273955	-0.024585
C150	C	0.675277	-0.235860	-0.059657
H151	H	0.606020	-0.352703	-0.008532
H152	H	0.576096	-0.231964	0.033127
H153	H	0.550686	-0.263047	-0.074572
H154	H	0.720200	-0.246756	-0.009667
H155	H	0.694803	-0.277857	-0.117361
H156	H	0.804341	-0.025325	0.000097
H157	H	0.947718	0.296554	0.755069
H158	H	1.167026	0.016960	0.245134
