data_functionalizedCrystal
_audit_creation_method	'MofGen! by Chris Wilmer'
_symmetry_space_group_name_H-M	'P1'
_symmetry_Int_Tables_number	1
_symmetry_cell_setting	triclinic
loop_
_symmetry_equiv_pos_as_xyz
  x,y,z
_cell_length_a	19.077105
_cell_length_b	18.101395
_cell_length_c	19.076919
_cell_angle_alpha	92.272317
_cell_angle_beta	90.076224
_cell_angle_gamma	87.727498
loop_
_atom_site_label
_atom_site_type_symbol
_atom_site_fract_x
_atom_site_fract_y
_atom_site_fract_z
Zn1	Zn	1.058231	-0.358271	-0.440421
Zn2	Zn	1.062857	-0.477344	-0.322915
Zn3	Zn	0.945450	-0.348351	-0.318214
Zn4	Zn	0.940679	-0.476897	-0.435668
O5	O	1.001804	-0.415216	-0.379305
O6	O	1.157176	-0.378405	-0.428790
O7	O	1.051216	-0.456268	-0.223960
O8	O	0.960470	-0.246037	-0.334447
O9	O	1.160575	-0.465887	-0.342459
O10	O	1.043330	-0.253326	-0.424232
O11	O	0.964957	-0.361497	-0.220507
O12	O	0.846486	-0.361064	-0.329838
O13	O	0.952340	-0.465126	-0.534630
O14	O	0.842981	-0.455506	-0.416131
O15	O	1.038704	-0.377972	-0.538122
O16	O	1.046590	-0.580914	-0.337850
O17	O	0.956826	-0.580586	-0.420689
C18	C	0.819237	-0.407161	-0.371959
C19	C	0.741133	-0.403733	-0.368833
C20	C	1.001711	-0.607621	-0.379280
C21	C	1.001735	-0.689937	-0.379296
C22	C	0.702636	-0.451363	-0.412222
C23	C	0.629249	-0.448133	-0.409288
C24	C	0.594361	-0.397276	-0.362962
C25	C	0.632863	-0.349642	-0.319571
C26	C	0.706248	-0.352869	-0.322509
C27	C	0.375075	-0.382341	-0.349369
C28	C	0.301684	-0.379119	-0.346433
C29	C	0.298076	-0.477610	-0.436152
C30	C	0.371463	-0.480836	-0.439082
C31	C	0.409959	-0.433198	-0.395694
N32	N	0.519348	-0.393975	-0.359960
N33	N	0.484970	-0.436497	-0.398700
C34	C	1.001887	-0.989036	-0.379340
C35	C	0.945531	-0.957547	-0.431600
C36	C	0.945280	-0.871910	-0.431419
C37	C	1.001811	-0.840650	-0.379319
C38	C	0.984741	-0.867911	-0.304458
C39	C	0.984379	-0.953554	-0.304770
C40	C	1.075459	-0.961424	-0.401293
C41	C	1.074956	-0.875820	-0.402900
C42	C	1.001770	-0.756788	-0.379302
C43	C	1.001927	-1.072898	-0.379351
C44	C	1.185084	-0.423303	-0.386679
C45	C	1.263188	-0.426749	-0.389822
C46	C	0.994474	-0.422606	-0.562585
C47	C	0.991350	-0.425755	-0.640688
C48	C	1.001916	-0.222060	-0.379345
C49	C	1.001964	-0.139749	-0.379363
C50	C	1.034846	-0.381860	-0.679200
C51	C	1.031902	-0.384816	-0.752586
C52	C	0.985466	-0.431671	-0.787458
C53	C	0.941966	-0.475568	-0.748941
C54	C	0.944906	-0.472608	-0.675556
C55	C	0.971847	-0.445387	-1.006740
C56	C	0.968911	-0.448346	-1.080130
C57	C	1.058847	-0.357593	-1.083770
C58	C	1.061786	-0.354640	-1.010384
C59	C	1.018283	-0.398533	-0.971872
N60	N	0.982458	-0.434696	-0.862471
N61	N	1.021289	-0.395505	-0.896861
C62	C	1.009146	-0.407803	-0.196739
C63	C	1.012406	-0.404451	-0.118642
H64	H	0.597908	-0.486918	-0.444619
C65	C	1.097128	-0.994052	-0.473026
C66	C	1.162766	-0.968370	-0.490912
C67	C	1.182746	-0.998420	-0.556984
H68	H	1.063426	-0.979414	-0.506986
H69	H	1.099872	-1.046502	-0.471749
H70	H	1.160017	-0.915932	-0.492194
H71	H	1.196483	-0.983007	-0.456970
H72	H	1.185489	-1.050870	-0.555707
H73	H	1.149039	-0.983780	-0.590938
H74	H	1.227285	-0.981005	-0.569125
H75	H	0.737591	-0.314080	-0.287181
H76	H	1.117410	-0.981841	-0.363267
C77	C	0.263675	-0.323954	-0.296177
C78	C	0.191168	-0.331333	-0.302887
C79	C	0.156132	-0.280529	-0.256606
H80	H	0.275234	-0.275132	-0.307000
H81	H	0.277526	-0.333318	-0.249402
H82	H	0.177323	-0.321964	-0.349651
H83	H	0.179588	-0.380143	-0.292058
H84	H	0.169982	-0.289893	-0.209831
H85	H	0.167696	-0.231711	-0.267434
H86	H	0.106933	-0.285534	-0.261148
H87	H	0.406410	-0.343557	-0.314034
C88	C	0.872454	-0.840897	-0.411660
C89	C	0.828505	-0.899281	-0.399839
C90	C	0.761414	-0.870740	-0.381621
H91	H	0.853961	-0.812553	-0.448756
H92	H	0.875247	-0.810283	-0.370212
H93	H	0.825710	-0.929882	-0.441282
H94	H	0.846976	-0.927630	-0.362739
H95	H	0.764207	-0.840126	-0.340173
H96	H	0.742928	-0.842396	-0.418720
H97	H	0.731588	-0.910349	-0.373592
H98	H	0.399864	-0.522250	-0.476804
C99	C	0.594858	-0.294497	-0.269298
C100	C	0.522351	-0.301877	-0.275998
C101	C	0.487321	-0.251096	-0.229691
H102	H	0.606413	-0.245669	-0.280103
H103	H	0.608719	-0.303883	-0.222531
H104	H	0.508495	-0.292486	-0.322755
H105	H	0.510775	-0.350694	-0.265188
H106	H	0.501182	-0.260481	-0.182923
H107	H	0.498881	-0.202271	-0.240499
H108	H	0.438121	-0.256100	-0.234226
H109	H	1.024629	-0.847532	-0.264328
H110	H	0.266725	-0.516393	-0.471476
H111	H	0.955734	-0.980878	-0.487188
C112	C	0.740382	-0.506605	-0.462593
C113	C	0.690956	-0.547610	-0.499977
C114	C	0.725699	-0.598498	-0.546395
H115	H	0.770066	-0.539071	-0.436886
H116	H	0.767785	-0.480838	-0.494441
H117	H	0.663565	-0.573376	-0.468134
H118	H	0.661270	-0.515164	-0.525699
H119	H	0.753102	-0.572731	-0.578242
H120	H	0.755382	-0.630959	-0.520682
H121	H	0.692169	-0.626322	-0.571770
H122	H	0.931637	-0.843494	-0.285943
H123	H	0.955615	-0.853628	-0.486834
H124	H	0.891266	-0.976217	-0.416994
H125	H	1.087883	-0.858335	-0.458008
H126	H	0.936434	-0.481139	-0.975393
C127	C	0.912732	-0.976077	-0.280458
C128	C	0.870179	-0.912596	-0.265622
C129	C	0.804169	-0.933311	-0.243235
H130	H	0.917891	-1.003791	-0.239387
H131	H	0.891654	-1.005468	-0.316416
H132	H	0.891253	-0.883217	-0.229666
H133	H	0.865000	-0.884874	-0.306683
H134	H	0.783090	-0.962703	-0.279193
H135	H	0.809335	-0.961026	-0.202165
H136	H	0.775287	-0.890244	-0.233172
C137	C	1.036856	-0.981244	-0.250832
C138	C	1.001943	-1.020566	-0.200642
C139	C	1.050265	-1.046097	-0.150957
H140	H	1.058654	-0.940329	-0.228472
H141	H	1.071516	-1.012817	-0.273537
H142	H	0.967296	-0.988995	-0.177939
H143	H	0.980147	-1.061490	-0.222981
H144	H	1.084925	-1.077671	-0.173662
H145	H	1.072060	-1.005178	-0.128602
H146	H	1.026585	-1.072786	-0.116901
C147	C	1.133489	-0.847718	-0.356066
C148	C	1.105141	-0.797895	-0.304654
C149	C	1.159037	-0.772000	-0.261487
H150	H	1.166345	-0.823423	-0.383554
H151	H	1.156417	-0.888248	-0.334158
H152	H	1.082224	-0.757371	-0.326560
H153	H	1.072290	-0.822173	-0.277149
H154	H	1.181965	-0.812531	-0.239580
H155	H	1.191890	-0.747708	-0.288981
H156	H	1.139809	-0.738198	-0.226595
H157	H	1.072661	-0.343708	-0.650813
H158	H	0.904154	-0.513715	-0.777340
H159	H	1.099601	-0.316487	-0.981996
C160	C	0.897778	-0.520401	-0.633776
C161	C	0.912340	-0.595066	-0.652213
C162	C	0.868946	-0.639116	-0.613732
H163	H	0.850063	-0.508068	-0.643865
H164	H	0.906190	-0.511975	-0.585071
H165	H	0.903922	-0.603488	-0.700907
H166	H	0.960047	-0.607423	-0.642122
H167	H	0.877358	-0.630691	-0.565027
H168	H	0.821234	-0.626776	-0.623824
H169	H	0.878825	-0.689782	-0.626231
H170	H	1.067323	-0.349074	-0.783940
C171	C	1.106033	-0.309807	-1.125491
C172	C	1.091500	-0.235144	-1.107024
C173	C	1.134960	-0.191099	-1.145436
H174	H	1.097677	-0.318180	-1.174203
H175	H	1.153734	-0.322198	-1.115350
H176	H	1.043810	-0.222758	-1.117170
H177	H	1.099859	-0.226749	-1.058318
H178	H	1.182661	-0.203489	-1.135295
H179	H	1.126601	-0.199478	-1.194146
H180	H	1.125110	-0.140436	-1.132907
H181	H	0.931095	-0.486502	-1.108520
