data_functionalizedCrystal
_audit_creation_method	'MofGen! by Chris Wilmer'
_symmetry_space_group_name_H-M	'P1'
_symmetry_Int_Tables_number	1
_symmetry_cell_setting	triclinic
loop_
_symmetry_equiv_pos_as_xyz
  x,y,z
_cell_length_a	19.121102
_cell_length_b	29.839131
_cell_length_c	19.120904
_cell_angle_alpha	92.409150
_cell_angle_beta	90.088173
_cell_angle_gamma	87.595578
loop_
_atom_site_label
_atom_site_type_symbol
_atom_site_fract_x
_atom_site_fract_y
_atom_site_fract_z
Zn1	Zn	1.054749	-0.219753	-0.442036
Zn2	Zn	1.554749	0.280247	0.057964
Zn3	Zn	1.059636	-0.291816	-0.324791
Zn4	Zn	1.559636	0.208184	0.175209
Zn5	Zn	0.942520	-0.213364	-0.319821
Zn6	Zn	1.442520	0.286636	0.180179
Zn7	Zn	0.937448	-0.291514	-0.436994
Zn8	Zn	1.437448	0.208486	0.063006
O9	O	0.998588	-0.254112	-0.380911
O10	O	1.498588	0.245888	0.119089
O11	O	1.153501	-0.232113	-0.430674
O12	O	1.653501	0.267887	0.069326
O13	O	1.048269	-0.278861	-0.226027
O14	O	1.548269	0.221139	0.273973
O15	O	0.957485	-0.151347	-0.336063
O16	O	1.457485	0.348653	0.163937
O17	O	1.157092	-0.285057	-0.344535
O18	O	1.657092	0.214943	0.155465
O19	O	1.039939	-0.156042	-0.425855
O20	O	1.539939	0.343958	0.074145
O21	O	0.962224	-0.221223	-0.222376
O22	O	1.462224	0.278777	0.277624
O23	O	0.843743	-0.220930	-0.331174
O24	O	1.343743	0.279070	0.168826
O25	O	0.948840	-0.284542	-0.535767
O26	O	1.448840	0.215458	-0.035767
O27	O	0.840017	-0.278346	-0.417260
O28	O	1.340017	0.221654	0.082740
O29	O	1.035020	-0.231820	-0.539472
O30	O	1.535020	0.268180	-0.039472
O31	O	1.043351	-0.354640	-0.339645
O32	O	1.543351	0.145360	0.160355
O33	O	0.953579	-0.354418	-0.422080
O34	O	1.453579	0.145582	0.077920
C35	C	0.816443	-0.248912	-0.373131
C36	C	1.316443	0.251088	0.126869
C37	C	0.738519	-0.246699	-0.369819
C38	C	1.238519	0.253301	0.130181
C39	C	0.998463	-0.370830	-0.380870
C40	C	1.498463	0.129170	0.119130
C41	C	0.998473	-0.420765	-0.380879
C42	C	1.498473	0.079235	0.119121
C43	C	0.699992	-0.275595	-0.413013
C44	C	1.199992	0.224405	0.086987
C45	C	0.626774	-0.273510	-0.409905
C46	C	1.126774	0.226490	0.090095
C47	C	0.592086	-0.242531	-0.363599
C48	C	1.092086	0.257469	0.136401
C49	C	0.630619	-0.213632	-0.320403
C50	C	1.130619	0.286368	0.179597
C51	C	0.703835	-0.215716	-0.323515
C52	C	1.203835	0.284284	0.176485
C53	C	0.371117	-0.234741	-0.351966
C54	C	0.871117	0.265259	0.148034
C55	C	0.297896	-0.232660	-0.348855
C56	C	0.797896	0.267340	0.151145
C57	C	0.294056	-0.292537	-0.438359
C58	C	0.794056	0.207463	0.061641
C59	C	0.367274	-0.294620	-0.441464
C60	C	0.867274	0.205380	0.058536
C61	C	0.405800	-0.265720	-0.398271
C62	C	0.905800	0.234280	0.101729
C63	C	0.517246	-0.240400	-0.360419
C64	C	1.017246	0.259600	0.139581
C65	C	0.480639	-0.267849	-0.401455
C66	C	0.980639	0.232151	0.098545
C67	C	1.045411	-0.730519	-0.338056
C68	C	1.545411	-0.230519	0.161944
C69	C	1.045496	-0.918195	-0.338087
C70	C	1.545496	-0.418195	0.161913
O71	O	1.085306	-0.942551	-0.301646
O72	O	1.585306	-0.442551	0.198354
N73	N	0.998731	-0.941559	-0.380970
N74	N	1.498731	-0.441559	0.119030
C75	C	0.951945	-0.918001	-0.423851
C76	C	1.451945	-0.418001	0.076149
O77	O	0.912175	-0.942181	-0.460332
O78	O	1.412175	-0.442181	0.039668
C79	C	0.951864	-0.730326	-0.423824
C80	C	1.451864	-0.230326	0.076176
C81	C	0.998627	-0.706964	-0.380933
C82	C	1.498627	-0.206964	0.119067
C83	C	1.092171	-0.707157	-0.295169
C84	C	1.592171	-0.207157	0.204831
C85	C	1.092146	-0.660241	-0.295159
C86	C	1.592146	-0.160241	0.204841
C87	C	1.045362	-0.636686	-0.338036
C88	C	1.545362	-0.136686	0.161964
C89	C	0.998602	-0.660048	-0.380923
C90	C	1.498602	-0.160048	0.119077
C91	C	0.905081	-0.706770	-0.466708
C92	C	1.405081	-0.206770	0.033292
C93	C	0.905066	-0.659848	-0.466699
C94	C	1.405066	-0.159848	0.033301
C95	C	0.951829	-0.636486	-0.423808
C96	C	1.451829	-0.136486	0.076192
C97	C	0.951794	-0.589577	-0.423789
C98	C	1.451794	-0.089577	0.076211
N99	N	0.998559	-0.566213	-0.380906
N100	N	1.498559	-0.066213	0.119094
C101	C	1.045343	-0.589768	-0.338030
C102	C	1.545343	-0.089768	0.161970
C103	C	0.951990	-1.016534	-0.423862
C104	C	1.451990	-0.516534	0.076138
C105	C	0.952010	-1.063452	-0.423868
C106	C	1.452010	-0.563452	0.076132
C107	C	1.045562	-1.063642	-0.338104
C108	C	1.545562	-0.563642	0.161896
C109	C	1.045539	-1.016723	-0.338095
C110	C	1.545539	-0.516723	0.161905
C111	C	0.998755	-0.993169	-0.380979
C112	C	1.498755	-0.493169	0.119021
C113	C	1.045288	-0.491240	-0.338011
C114	C	1.545288	0.008760	0.161989
C115	C	1.045257	-0.444319	-0.338003
C116	C	1.545257	0.055681	0.161997
C117	C	0.951708	-0.444133	-0.423769
C118	C	1.451708	0.055867	0.076231
C119	C	0.951735	-0.491049	-0.423775
C120	C	1.451735	0.008951	0.076225
C121	C	0.998531	-0.514602	-0.380894
C122	C	1.498531	-0.014602	0.119106
O123	O	0.912011	-0.565193	-0.460217
O124	O	1.412011	-0.065193	0.039783
O125	O	1.085117	-0.565581	-0.301566
O126	O	1.585117	-0.065581	0.198434
C127	C	1.045435	-0.777435	-0.338066
C128	C	1.545435	-0.277435	0.161934
C129	C	0.998676	-0.800797	-0.380953
C130	C	1.498676	-0.300797	0.119047
C131	C	0.951891	-0.777243	-0.423830
C132	C	1.451891	-0.277243	0.076170
C133	C	0.998695	-0.847716	-0.380959
C134	C	1.498695	-0.347716	0.119041
C135	C	1.045479	-0.871270	-0.338082
C136	C	1.545479	-0.371270	0.161918
C137	C	1.092244	-0.847906	-0.295199
C138	C	1.592244	-0.347906	0.204801
C139	C	1.092220	-0.800990	-0.295189
C140	C	1.592220	-0.300990	0.204811
C141	C	0.905126	-0.800607	-0.466712
C142	C	1.405126	-0.300607	0.033288
C143	C	0.905154	-0.847523	-0.466718
C144	C	1.405154	-0.347523	0.033282
C145	C	0.951938	-0.871078	-0.423842
C146	C	1.451938	-0.371078	0.076158
C147	C	1.181445	-0.259331	-0.388721
C148	C	1.681445	0.240669	0.111279
C149	C	1.259368	-0.261556	-0.392050
C150	C	1.759368	0.238444	0.107950
C151	C	0.990819	-0.258860	-0.563768
C152	C	1.490819	0.241140	-0.063768
C153	C	0.987508	-0.260884	-0.641691
C154	C	1.487508	0.239116	-0.141691
C155	C	0.998732	-0.136939	-0.380967
C156	C	1.498732	0.363061	0.119033
C157	C	0.998794	-0.087007	-0.380991
C158	C	1.498794	0.412993	0.119009
C159	C	1.030820	-0.234387	-0.680230
C160	C	1.530820	0.265613	-0.180230
C161	C	1.027700	-0.236286	-0.753446
C162	C	1.527700	0.263714	-0.253446
C163	C	0.981272	-0.264686	-0.788123
C164	C	1.481272	0.235314	-0.288123
C165	C	0.937956	-0.291184	-0.749580
C166	C	1.437956	0.208816	-0.249580
C167	C	0.941072	-0.289282	-0.676364
C168	C	1.441072	0.210718	-0.176364
C169	C	0.969615	-0.271800	-1.009090
C170	C	1.469615	0.228200	-0.509090
C171	C	0.966503	-0.273701	-1.082311
C172	C	1.466503	0.226299	-0.582311
C173	C	1.056247	-0.218802	-1.086172
C174	C	1.556247	0.281198	-0.586172
C175	C	1.059362	-0.216905	-1.012955
C176	C	1.559362	0.283095	-0.512955
C177	C	1.016043	-0.243401	-0.974418
C178	C	1.516043	0.256599	-0.474418
C179	C	0.978084	-0.266629	-0.862963
C180	C	1.478084	0.233371	-0.362963
C181	C	1.019228	-0.241455	-0.899580
C182	C	1.519228	0.258545	-0.399580
C183	C	1.006368	-0.249350	-0.198766
C184	C	1.506368	0.250650	0.301234
C185	C	1.009815	-0.247204	-0.120849
C186	C	1.509815	0.252796	0.379151
H187	H	0.595408	-0.297040	-0.445078
H188	H	1.095408	0.202960	0.054922
C189	C	0.479542	-0.206836	-0.310061
C190	C	0.979542	0.293164	0.189939
C191	C	0.439390	-0.229862	-0.263261
C192	C	0.939390	0.270138	0.236739
C193	C	0.404650	-0.198957	-0.216862
C194	C	0.904650	0.301043	0.283138
H195	H	0.449815	-0.187166	-0.335650
H196	H	0.949815	0.312834	0.164350
H197	H	0.512946	-0.189927	-0.284734
H198	H	1.012946	0.310073	0.215266
H199	H	0.405990	-0.246764	-0.288586
H200	H	0.905990	0.253236	0.211414
H201	H	0.469101	-0.249531	-0.237656
H202	H	0.969101	0.250469	0.262344
H203	H	0.438054	-0.182048	-0.191535
H204	H	0.938054	0.317952	0.308465
H205	H	0.374927	-0.179288	-0.242457
H206	H	0.874927	0.320712	0.257543
H207	H	0.377408	-0.214576	-0.185099
H208	H	0.877408	0.285424	0.314901
C209	C	1.096111	-0.419038	-0.291411
C210	C	1.596111	0.080962	0.208589
C211	C	1.137100	-0.449713	-0.253881
C212	C	1.637100	0.050287	0.246119
C213	C	1.183958	-0.426443	-0.210963
C214	C	1.683958	0.073557	0.289037
H215	H	1.070690	-0.399202	-0.259635
H216	H	1.570690	0.100798	0.240365
H217	H	1.125525	-0.402285	-0.319539
H218	H	1.625525	0.097715	0.180461
H219	H	1.107689	-0.466458	-0.225755
H220	H	1.607689	0.033542	0.274245
H221	H	1.162535	-0.469549	-0.285639
H222	H	1.662535	0.030451	0.214361
H223	H	1.213372	-0.409690	-0.239091
H224	H	1.713372	0.090310	0.260909
H225	H	1.158532	-0.406608	-0.179191
H226	H	1.658532	0.093392	0.320809
H227	H	1.211779	-0.447252	-0.185498
H228	H	1.711779	0.052748	0.314502
H229	H	1.083395	-0.510411	-0.303095
H230	H	1.583395	-0.010411	0.196905
C231	C	0.901202	-1.088733	-0.470505
C232	C	1.401202	-0.588733	0.029495
C233	C	0.860243	-1.058058	-0.508065
C234	C	1.360243	-0.558058	-0.008065
C235	C	0.813440	-1.081329	-0.551046
C236	C	1.313440	-0.581329	-0.051046
H237	H	0.871758	-1.105497	-0.442441
H238	H	1.371758	-0.605497	0.057559
H239	H	0.926686	-1.108560	-0.502259
H240	H	1.426686	-0.608560	-0.002259
H241	H	0.834761	-1.038239	-0.476315
H242	H	1.334761	-0.538239	0.023685
H243	H	0.889669	-1.041293	-0.536143
H244	H	1.389669	-0.541293	-0.036143
H245	H	0.838924	-1.101155	-0.582800
H246	H	1.338924	-0.601155	-0.082800
H247	H	0.784001	-1.098092	-0.522976
H248	H	1.284001	-0.598092	-0.022976
H249	H	0.785649	-1.060520	-0.576540
H250	H	1.285649	-0.560520	-0.076540
C251	C	1.143005	-0.634963	-0.248577
C252	C	1.643005	-0.134963	0.251423
C253	C	1.183991	-0.665642	-0.211051
C254	C	1.683991	-0.165642	0.288949
C255	C	1.230862	-0.642377	-0.168140
C256	C	1.730862	-0.142377	0.331860
H257	H	1.117594	-0.615125	-0.216797
H258	H	1.617594	-0.115125	0.283203
H259	H	1.172420	-0.618214	-0.276709
H260	H	1.672420	-0.118214	0.223291
H261	H	1.154580	-0.682384	-0.182920
H262	H	1.654580	-0.182384	0.317080
H263	H	1.209418	-0.685481	-0.242812
H264	H	1.709418	-0.185481	0.257188
H265	H	1.260277	-0.625628	-0.196272
H266	H	1.760277	-0.125628	0.303728
H267	H	1.205445	-0.622539	-0.136365
H268	H	1.705445	-0.122539	0.363635
H269	H	1.258681	-0.663189	-0.142678
H270	H	1.758681	-0.163189	0.357322
H271	H	0.867030	-0.781432	-0.501629
H272	H	1.367030	-0.281432	-0.001629
C273	C	0.404979	-0.328303	-0.491631
C274	C	0.904979	0.171697	0.008369
C275	C	0.448654	-0.357227	-0.453639
C276	C	0.948654	0.142773	0.046361
C277	C	0.483394	-0.388265	-0.499827
C278	C	0.983394	0.111735	0.000173
H279	H	0.432321	-0.312807	-0.523453
H280	H	0.932321	0.187193	-0.023453
H281	H	0.371572	-0.345241	-0.516904
H282	H	0.871572	0.154759	-0.016904
H283	H	0.482056	-0.340291	-0.428378
H284	H	0.982056	0.159709	0.071622
H285	H	0.421330	-0.372734	-0.421819
H286	H	0.921330	0.127266	0.078181
H287	H	0.449987	-0.405203	-0.525100
H288	H	0.949987	0.094797	-0.025100
H289	H	0.510731	-0.372765	-0.531647
H290	H	1.010731	0.127235	-0.031647
H291	H	0.513026	-0.407896	-0.474056
H292	H	1.013026	0.092104	0.025944
C293	C	0.737780	-0.309214	-0.463220
C294	C	1.237780	0.190786	0.036780
C295	C	0.810147	-0.304863	-0.456690
C296	C	1.310147	0.195137	0.043310
C297	C	0.844977	-0.335829	-0.502925
C298	C	1.344977	0.164171	-0.002925
H299	H	0.723878	-0.303599	-0.509865
H300	H	1.223878	0.196401	-0.009865
H301	H	0.726227	-0.338788	-0.452358
H302	H	1.226227	0.161212	0.047642
H303	H	0.821694	-0.275296	-0.467557
H304	H	1.321694	0.224704	0.032443
H305	H	0.824069	-0.310482	-0.410055
H306	H	1.324069	0.189518	0.089945
H307	H	0.833424	-0.365404	-0.492063
H308	H	1.333424	0.134596	0.007937
H309	H	0.831069	-0.330212	-0.549567
H310	H	1.331069	0.169788	-0.049567
H311	H	0.894081	-0.332885	-0.498496
H312	H	1.394081	0.167115	0.001504
H313	H	0.866998	-0.725783	-0.501631
H314	H	1.366998	-0.225783	-0.001631
H315	H	0.900150	-0.314306	-0.777819
H316	H	1.400150	0.185694	-0.277819
C317	C	0.518386	-0.301414	-0.451774
C318	C	1.018386	0.198586	0.048226
C319	C	0.558556	-0.278387	-0.498557
C320	C	1.058556	0.221613	0.001443
C321	C	0.593352	-0.309293	-0.544913
C322	C	1.093352	0.190707	-0.044913
H323	H	0.485035	-0.318342	-0.477125
H324	H	0.985035	0.181658	0.022875
H325	H	0.548104	-0.321067	-0.426129
H326	H	1.048104	0.178933	0.073871
H327	H	0.528840	-0.258742	-0.524200
H328	H	1.028840	0.241258	-0.024200
H329	H	0.591919	-0.261461	-0.473226
H330	H	1.091919	0.238539	0.026774
H331	H	0.623071	-0.328946	-0.519268
H332	H	1.123071	0.171054	-0.019268
H333	H	0.559996	-0.326220	-0.570259
H334	H	1.059996	0.173780	-0.070259
H335	H	0.620617	-0.293675	-0.576656
H336	H	1.120617	0.206325	-0.076656
C337	C	1.109715	-0.186092	-0.975179
C338	C	1.609715	0.313908	-0.475179
C339	C	1.103173	-0.190098	-0.902811
C340	C	1.603173	0.309902	-0.402811
C341	C	1.149542	-0.161716	-0.867990
C342	C	1.649542	0.338284	-0.367990
H343	H	1.099000	-0.155915	-0.986686
H344	H	1.599000	0.344085	-0.486686
H345	H	1.156329	-0.194308	-0.989134
H346	H	1.656329	0.305692	-0.489134
H347	H	1.056570	-0.181879	-0.888862
H348	H	1.556570	0.318121	-0.388862
H349	H	1.113895	-0.220269	-0.891284
H350	H	1.613895	0.279731	-0.391284
H351	H	1.196156	-0.169932	-0.881944
H352	H	1.696156	0.330068	-0.381944
H353	H	1.138822	-0.131540	-0.879502
H354	H	1.638822	0.368460	-0.379502
H355	H	1.145114	-0.164433	-0.818885
H356	H	1.645114	0.335567	-0.318885
H357	H	0.913659	-0.510072	-0.458702
H358	H	1.413659	-0.010072	0.041298
C359	C	0.260104	-0.199056	-0.298620
C360	C	0.760104	0.300944	0.201380
C361	C	0.187739	-0.203423	-0.305136
C362	C	0.687739	0.296577	0.194864
C363	C	0.152902	-0.172476	-0.258875
C364	C	0.652902	0.327524	0.241125
H365	H	0.271619	-0.169476	-0.309452
H366	H	0.771619	0.330524	0.190548
H367	H	0.274038	-0.204689	-0.251982
H368	H	0.774038	0.295311	0.248018
H369	H	0.173809	-0.197788	-0.351764
H370	H	0.673809	0.302212	0.148236
H371	H	0.176203	-0.232997	-0.294298
H372	H	0.676203	0.267003	0.205702
H373	H	0.166837	-0.178109	-0.212236
H374	H	0.666837	0.321891	0.287764
H375	H	0.164423	-0.142898	-0.269711
H376	H	0.664423	0.357102	0.230289
H377	H	0.103800	-0.175438	-0.263285
H378	H	0.603800	0.324562	0.236715
C379	C	1.143098	-0.732739	-0.248759
C380	C	1.643098	-0.232739	0.251241
C381	C	1.186341	-0.761922	-0.290438
C382	C	1.686341	-0.261922	0.209562
C383	C	1.233289	-0.785480	-0.247716
C384	C	1.733289	-0.285480	0.252284
H385	H	1.117744	-0.749558	-0.217013
H386	H	1.617744	-0.249558	0.282987
H387	H	1.170977	-0.712101	-0.223260
H388	H	1.670977	-0.212101	0.276740
H389	H	1.158465	-0.782557	-0.315925
H390	H	1.658465	-0.282557	0.184075
H391	H	1.211710	-0.745114	-0.322183
H392	H	1.711710	-0.245114	0.177817
H393	H	1.261168	-0.764842	-0.222217
H394	H	1.761168	-0.264842	0.277783
H395	H	1.207930	-0.802296	-0.215972
H396	H	1.707930	-0.302296	0.284028
H397	H	1.262639	-0.805280	-0.275989
H398	H	1.762639	-0.305280	0.224011
H399	H	0.262680	-0.316066	-0.473526
H400	H	0.762680	0.183934	0.026474
C401	C	1.103234	-0.189956	-1.127922
C402	C	1.603234	0.310044	-0.627922
C403	C	1.088791	-0.144611	-1.109466
C404	C	1.588791	0.355389	-0.609466
C405	C	1.132068	-0.118022	-1.147904
C406	C	1.632068	0.381978	-0.647904
H407	H	1.094775	-0.195095	-1.176506
H408	H	1.594775	0.304905	-0.676506
H409	H	1.150853	-0.197535	-1.117920
H410	H	1.650853	0.302465	-0.617920
H411	H	1.041183	-0.137034	-1.119473
H412	H	1.541183	0.362966	-0.619473
H413	H	1.097254	-0.139458	-1.060889
H414	H	1.597254	0.360542	-0.560889
H415	H	1.179687	-0.125602	-1.137902
H416	H	1.679687	0.374398	-0.637902
H417	H	1.123605	-0.123165	-1.196486
H418	H	1.623605	0.376835	-0.696486
H419	H	1.122279	-0.087253	-1.135382
H420	H	1.622279	0.412747	-0.635382
C421	C	0.592924	-0.180068	-0.270041
C422	C	1.092924	0.319932	0.229959
C423	C	0.552781	-0.203093	-0.223233
C424	C	1.052781	0.296907	0.276767
C425	C	0.518055	-0.172189	-0.176823
C426	C	1.018055	0.327811	0.323177
H427	H	0.563192	-0.160395	-0.295621
H428	H	1.063192	0.339605	0.204379
H429	H	0.626335	-0.163161	-0.244720
H430	H	1.126335	0.336839	0.255280
H431	H	0.519373	-0.219992	-0.248551
H432	H	1.019373	0.280008	0.251449
H433	H	0.582496	-0.222764	-0.197637
H434	H	1.082496	0.277236	0.302363
H435	H	0.551467	-0.155282	-0.151503
H436	H	1.051467	0.344718	0.348497
H437	H	0.488327	-0.152518	-0.202409
H438	H	0.988327	0.347482	0.297591
H439	H	0.490819	-0.187808	-0.145055
H440	H	0.990819	0.312192	0.354945
C441	C	0.900959	-0.418613	-0.470440
C442	C	1.400959	0.081387	0.029560
C443	C	0.913225	-0.432242	-0.540465
C444	C	1.413225	0.067758	-0.040465
C445	C	0.866489	-0.408746	-0.583484
C446	C	1.366489	0.091254	-0.083484
H447	H	0.907603	-0.387320	-0.464383
H448	H	1.407603	0.112680	0.035617
H449	H	0.854285	-0.424731	-0.458184
H450	H	1.354285	0.075269	0.041816
H451	H	0.959887	-0.426121	-0.552717
H452	H	1.459887	0.073879	-0.052717
H453	H	0.906575	-0.463532	-0.546545
H454	H	1.406575	0.036468	-0.046545
H455	H	0.819816	-0.414864	-0.571228
H456	H	1.319816	0.085136	-0.071228
H457	H	0.873138	-0.377453	-0.577421
H458	H	1.373138	0.122547	-0.077421
H459	H	0.874801	-0.417992	-0.631000
H460	H	1.374801	0.082008	-0.131000
C461	C	1.096391	-0.991443	-0.291507
C462	C	1.596391	-0.491443	0.208493
C463	C	1.137372	-1.022120	-0.253973
C464	C	1.637372	-0.522120	0.246027
C465	C	1.184234	-0.998852	-0.211055
C466	C	1.684234	-0.498852	0.288945
H467	H	1.070972	-0.971605	-0.259733
H468	H	1.570972	-0.471605	0.240267
H469	H	1.125809	-0.974693	-0.319635
H470	H	1.625809	-0.474693	0.180365
H471	H	1.107958	-1.038863	-0.225847
H472	H	1.607958	-0.538863	0.274153
H473	H	1.162806	-1.041959	-0.285729
H474	H	1.662806	-0.541959	0.214271
H475	H	1.213652	-0.982102	-0.239183
H476	H	1.713652	-0.482102	0.260817
H477	H	1.158809	-0.979015	-0.179285
H478	H	1.658809	-0.479015	0.320715
H479	H	1.212050	-1.019663	-0.185588
H480	H	1.712050	-0.519663	0.314412
H481	H	1.130299	-0.781972	-0.260264
H482	H	1.630299	-0.281972	0.239736
H483	H	0.735203	-0.192183	-0.288345
H484	H	1.235203	0.307817	0.211655
H485	H	0.905796	-0.310854	-0.644987
H486	H	1.405796	0.189146	-0.144987
C487	C	0.916019	-0.304547	-1.119832
C488	C	1.416019	0.195453	-0.619832
C489	C	0.878736	-0.327337	-1.070412
C490	C	1.378736	0.172663	-0.570412
C491	C	0.832222	-0.355751	-1.104951
C492	C	1.332222	0.144249	-0.604951
H493	H	0.941520	-0.325667	-1.149528
H494	H	1.441520	0.174333	-0.649528
H495	H	0.884246	-0.287240	-1.147082
H496	H	1.384246	0.212760	-0.647082
H497	H	0.910504	-0.344643	-1.043175
H498	H	1.410504	0.155357	-0.543175
H499	H	0.853220	-0.306229	-1.040715
H500	H	1.353220	0.193771	-0.540715
H501	H	0.800449	-0.338443	-1.132201
H502	H	1.300449	0.161557	-0.632201
H503	H	0.857729	-0.376867	-1.134646
H504	H	1.357729	0.123133	-0.634646
H505	H	0.806915	-0.371214	-1.071425
H506	H	1.306915	0.128786	-0.571425
H507	H	1.083656	-1.082829	-0.303192
H508	H	1.583656	-0.582829	0.196808
C509	C	0.901300	-0.990947	-0.470513
C510	C	1.401300	-0.490947	0.029487
C511	C	0.939026	-0.966283	-0.517190
C512	C	1.439026	-0.466283	-0.017190
C513	C	0.892351	-0.942715	-0.560179
C514	C	1.392351	-0.442715	-0.060179
H515	H	0.871889	-0.971069	-0.442446
H516	H	1.371889	-0.471069	0.057554
H517	H	0.873465	-1.011574	-0.496089
H518	H	1.373465	-0.511574	0.003911
H519	H	0.966848	-0.945659	-0.491617
H520	H	1.466848	-0.445659	0.008383
H521	H	0.968435	-0.986151	-0.545272
H522	H	1.468435	-0.486151	-0.045272
H523	H	0.864516	-0.963341	-0.585755
H524	H	1.364516	-0.463341	-0.085755
H525	H	0.862942	-0.922839	-0.532107
H526	H	1.362942	-0.422839	-0.032107
H527	H	0.917941	-0.925981	-0.591859
H528	H	1.417941	-0.425981	-0.091859
H529	H	0.402476	-0.211211	-0.316789
H530	H	0.902476	0.288789	0.183211
C531	C	1.143141	-0.873508	-0.248780
C532	C	1.643141	-0.373508	0.251220
C533	C	1.186371	-0.902699	-0.290459
C534	C	1.686371	-0.402699	0.209541
C535	C	1.233280	-0.926287	-0.247734
C536	C	1.733280	-0.426287	0.252266
H537	H	1.117757	-0.890324	-0.217054
H538	H	1.617757	-0.390324	0.282946
H539	H	1.171032	-0.852889	-0.223259
H540	H	1.671032	-0.352889	0.276741
H541	H	1.158483	-0.923316	-0.315969
H542	H	1.658483	-0.423316	0.184031
H543	H	1.211771	-0.885895	-0.322184
H544	H	1.711771	-0.385895	0.177816
H545	H	1.261171	-0.905667	-0.222213
H546	H	1.761171	-0.405667	0.277787
H547	H	1.207890	-0.943100	-0.216010
H548	H	1.707890	-0.443100	0.283990
H549	H	1.262621	-0.946092	-0.276007
H550	H	1.762621	-0.446092	0.223993
C551	C	0.854194	-0.634356	-0.513286
C552	C	1.354194	-0.134356	-0.013286
C553	C	0.813240	-0.664861	-0.550834
C554	C	1.313240	-0.164861	-0.050834
C555	C	0.766365	-0.641395	-0.593749
C556	C	1.266365	-0.141395	-0.093749
H557	H	0.879601	-0.617584	-0.545052
H558	H	1.379601	-0.117584	-0.045052
H559	H	0.824759	-0.614521	-0.485155
H560	H	1.324759	-0.114521	0.014845
H561	H	0.842672	-0.684688	-0.578962
H562	H	1.342672	-0.184688	-0.078962
H563	H	0.787818	-0.681635	-0.519085
H564	H	1.287818	-0.181635	-0.019085
H565	H	0.736929	-0.621561	-0.565618
H566	H	1.236929	-0.121561	-0.065618
H567	H	0.791778	-0.624624	-0.625511
H568	H	1.291778	-0.124624	-0.125511
H569	H	0.738568	-0.662089	-0.619225
H570	H	1.238568	-0.162089	-0.119225
C571	C	0.927611	-0.297478	-0.900485
C572	C	1.427611	0.202522	-0.400485
C573	C	0.890335	-0.320273	-0.851067
C574	C	1.390335	0.179727	-0.351067
C575	C	0.843827	-0.348690	-0.885608
C576	C	1.343827	0.151310	-0.385608
H577	H	0.953116	-0.318594	-0.930184
H578	H	1.453116	0.181406	-0.430184
H579	H	0.895834	-0.280171	-0.927731
H580	H	1.395834	0.219829	-0.427731
H581	H	0.922108	-0.337579	-0.823833
H582	H	1.422108	0.162421	-0.323833
H583	H	0.864816	-0.299169	-0.821366
H584	H	1.364816	0.200831	-0.321366
H585	H	0.812049	-0.331384	-0.912854
H586	H	1.312049	0.168616	-0.412854
H587	H	0.869337	-0.369803	-0.915307
H588	H	1.369337	0.130197	-0.415307
H589	H	0.818524	-0.364157	-0.852084
H590	H	1.318524	0.135843	-0.352084
H591	H	0.867068	-0.866540	-0.501645
H592	H	1.367068	-0.366540	-0.001645
H593	H	1.068629	-0.211262	-0.652001
H594	H	1.568629	0.288738	-0.152001
H595	H	1.062971	-0.214710	-0.784821
H596	H	1.562971	0.285290	-0.284821
H597	H	0.934351	-0.293382	-0.977722
H598	H	1.434351	0.206618	-0.477722
H599	H	1.057027	-0.218330	-0.871343
H600	H	1.557027	0.281670	-0.371343
