data_functionalizedCrystal
_audit_creation_method	'MofGen! by Chris Wilmer'
_symmetry_space_group_name_H-M	'P1'
_symmetry_Int_Tables_number	1
_symmetry_cell_setting	triclinic
loop_
_symmetry_equiv_pos_as_xyz
  x,y,z
_cell_length_a	10.686285
_cell_length_b	10.686220
_cell_length_c	10.685880
_cell_angle_alpha	89.641569
_cell_angle_beta	89.638885
_cell_angle_gamma	90.345431
loop_
_atom_site_label
_atom_site_type_symbol
_atom_site_fract_x
_atom_site_fract_y
_atom_site_fract_z
Zn1	Zn	-0.389334	1.999728	-0.530460
Zn2	Zn	-0.583279	1.997195	-0.304810
Zn3	Zn	-0.391875	1.774036	-0.336574
Zn4	Zn	-0.614981	1.805850	-0.527983
O5	O	-0.494867	1.894202	-0.424957
O6	O	-0.400730	2.173923	-0.488270
O7	O	-0.545686	1.953219	-0.134483
O8	O	-0.217001	1.791721	-0.376623
O9	O	-0.543221	2.172063	-0.322486
O10	O	-0.215133	1.957535	-0.519070
O11	O	-0.405062	1.789265	-0.157820
O12	O	-0.435802	1.603725	-0.374222
O13	O	-0.597252	1.845942	-0.702853
O14	O	-0.599717	1.627098	-0.514849
O15	O	-0.431470	1.988383	-0.704672
O16	O	-0.762022	1.984067	-0.320085
O17	O	-0.785313	1.843486	-0.484049
C18	C	-0.521476	1.570158	-0.447714
C19	C	-0.532892	1.431534	-0.457477
C20	C	-0.818922	1.916990	-0.398376
C21	C	-0.957548	1.926856	-0.387038
C22	C	-0.169546	1.871362	-0.451666
C23	C	-0.030914	1.861628	-0.463048
C24	C	-0.517614	1.920993	-0.750284
C25	C	-0.527307	1.932410	-0.888919
C26	C	-0.468155	2.219512	-0.402111
C27	C	-0.456772	2.358140	-0.392376
C28	C	-0.472114	1.867581	-0.100897
C29	C	-0.462049	1.856381	0.037725
H30	H	-0.606806	1.388314	-0.520679
H31	H	-0.590598	2.006246	-0.932182
H32	H	-0.382871	1.401355	-0.329169
H33	H	-0.987674	1.798237	-0.536799
H34	H	-1.000795	1.990242	-0.313276
O35	O	-0.378208	1.758580	-0.904992
H36	H	-0.383485	1.764659	-0.801441
