data_functionalizedCrystal
_audit_creation_method	'MofGen! by Chris Wilmer'
_symmetry_space_group_name_H-M	'P1'
_symmetry_Int_Tables_number	1
_symmetry_cell_setting	triclinic
loop_
_symmetry_equiv_pos_as_xyz
  x,y,z
_cell_length_a	12.759401
_cell_length_b	21.295417
_cell_length_c	12.759393
_cell_angle_alpha	90.038095
_cell_angle_beta	90.019802
_cell_angle_gamma	90.029593
loop_
_atom_site_label
_atom_site_type_symbol
_atom_site_fract_x
_atom_site_fract_y
_atom_site_fract_z
Zn1	Zn	1.606151	-0.250594	0.593933
Zn2	Zn	1.939484	0.082739	0.927266
Zn3	Zn	2.272818	0.416073	1.260599
Zn4	Zn	1.605994	-0.355876	0.418230
Zn5	Zn	1.939327	-0.022543	0.751563
Zn6	Zn	2.272660	0.310790	1.084896
Zn7	Zn	1.430450	-0.250623	0.418271
Zn8	Zn	1.763783	0.082710	0.751605
Zn9	Zn	2.097116	0.416044	1.084938
Zn10	Zn	1.430393	-0.355828	0.593870
Zn11	Zn	1.763726	-0.022494	0.927204
Zn12	Zn	2.097060	0.310839	1.260537
O13	O	1.518247	-0.303230	0.506076
O14	O	1.851580	0.030103	0.839409
O15	O	2.184913	0.363436	1.172743
O16	O	1.753151	-0.264568	0.570634
O17	O	2.086484	0.068765	0.903967
O18	O	2.419818	0.402099	1.237301
O19	O	1.582665	-0.341947	0.271214
O20	O	1.915998	-0.008613	0.604547
O21	O	2.249332	0.324720	0.937881
O22	O	1.453846	-0.162530	0.441617
O23	O	1.787180	0.170803	0.774950
O24	O	2.120513	0.504137	1.108284
O25	O	1.753035	-0.341918	0.441546
O26	O	2.086369	-0.008585	0.774879
O27	O	2.419702	0.324748	1.108212
O28	O	1.582933	-0.162509	0.570675
O29	O	1.916267	0.170825	0.904008
O30	O	2.249600	0.504158	1.237341
O31	O	1.453694	-0.264618	0.271245
O32	O	1.787027	0.068716	0.604578
O33	O	2.120360	0.402049	0.937911
O34	O	1.283421	-0.264571	0.441556
O35	O	1.616754	0.068763	0.774890
O36	O	1.950088	0.402096	1.108223
O37	O	1.453750	-0.341836	0.740900
O38	O	1.787083	-0.008503	1.074233
O39	O	2.120417	0.324831	1.407566
O40	O	1.283380	-0.341864	0.570568
O41	O	1.616713	-0.008531	0.903901
O42	O	1.950046	0.324803	1.237235
O43	O	1.582878	-0.264521	0.740946
O44	O	1.916212	0.068812	1.074279
O45	O	2.249545	0.402146	1.407612
O46	O	1.582610	-0.443959	0.441485
O47	O	1.915944	-0.110626	0.774818
O48	O	2.249277	0.222708	1.108152
O49	O	1.453597	-0.443924	0.570527
O50	O	1.786931	-0.110590	0.903861
O51	O	2.120264	0.222743	1.237194
C52	C	1.245279	-0.303216	0.506061
C53	C	1.578613	0.030118	0.839394
C54	C	1.911946	0.363451	1.172727
C55	C	1.128503	-0.303225	0.506079
C56	C	1.461836	0.030109	0.839412
C57	C	1.795169	0.363442	1.172746
C58	C	0.963965	-0.263036	0.573406
C59	C	1.297298	0.070298	0.906739
C60	C	1.630631	0.403631	1.240073
C61	C	1.073689	-0.263023	0.573399
C62	C	1.407022	0.070310	0.906732
C63	C	1.740355	0.403643	1.240066
C64	C	1.073587	-0.343445	0.438769
C65	C	1.406921	-0.010112	0.772102
C66	C	1.740254	0.323221	1.105435
C67	C	0.963865	-0.343460	0.438782
C68	C	1.297199	-0.010127	0.772115
C69	C	1.630532	0.323206	1.105448
C70	C	1.518109	-0.466782	0.506018
C71	C	1.851442	-0.133449	0.839351
C72	C	2.184776	0.199885	1.172684
C73	C	1.518146	-0.536750	0.506028
C74	C	1.851480	-0.203417	0.839361
C75	C	2.184813	0.129917	1.172695
C76	C	1.585383	-0.569614	0.438904
C77	C	1.918716	-0.236281	0.772238
C78	C	2.252050	0.097052	1.105571
C79	C	1.585432	-0.635357	0.438928
C80	C	1.918766	-0.302023	0.772261
C81	C	2.252099	0.031310	1.105595
C82	C	1.518226	-0.668233	0.506064
C83	C	1.851559	-0.334899	0.839398
C84	C	2.184893	-0.001566	1.172731
C85	C	1.450985	-0.635360	0.573201
C86	C	1.784318	-0.302027	0.906534
C87	C	2.117651	0.031306	1.239868
C88	C	1.450945	-0.569619	0.573183
C89	C	1.784278	-0.236286	0.906516
C90	C	2.117611	0.097048	1.239849
N91	N	1.426319	-0.771497	0.514068
N92	N	1.759652	-0.438164	0.847402
N93	N	2.092986	-0.104830	1.180735
N94	N	1.426360	-0.833948	0.514080
N95	N	1.759693	-0.500615	0.847413
N96	N	2.093027	-0.167282	1.180746
C97	C	1.518344	-0.866307	0.506124
C98	C	1.851677	-0.532974	0.839458
C99	C	2.185010	-0.199641	1.172791
N100	N	1.610287	-0.833855	0.498137
N101	N	1.943621	-0.500522	0.831471
N102	N	2.276954	-0.167189	1.164804
N103	N	1.610245	-0.771398	0.498121
N104	N	1.943578	-0.438065	0.831454
N105	N	2.276912	-0.104732	1.164788
C106	C	1.518262	-0.739518	0.506092
C107	C	1.851596	-0.406185	0.839425
C108	C	2.184929	-0.072851	1.172759
C109	C	1.585639	-0.970457	0.439023
C110	C	1.918973	-0.637124	0.772356
C111	C	2.252306	-0.303790	1.105690
C112	C	1.585690	-1.036201	0.439054
C113	C	1.919024	-0.702867	0.772387
C114	C	2.252357	-0.369534	1.105721
C115	C	1.451233	-1.036203	0.573321
C116	C	1.784567	-0.702870	0.906655
C117	C	2.117900	-0.369536	1.239988
C118	C	1.451192	-0.970460	0.573296
C119	C	1.784525	-0.637127	0.906629
C120	C	2.117858	-0.303794	1.239962
C121	C	1.518393	-0.937591	0.506141
C122	C	1.851727	-0.604258	0.839474
C123	C	2.185060	-0.270925	1.172808
C124	C	1.792280	-0.303245	0.506092
C125	C	2.125613	0.030088	0.839425
C126	C	2.458947	0.363421	1.172759
C127	C	1.909057	-0.303252	0.506099
C128	C	2.242390	0.030081	0.839432
C129	C	2.575723	0.363415	1.172766
C130	C	1.518325	-0.303170	0.780109
C131	C	1.851659	0.030163	1.113443
C132	C	2.184992	0.363497	1.446776
C133	C	1.518359	-0.303144	0.896886
C134	C	1.851692	0.030189	1.230220
C135	C	2.185026	0.363523	1.563553
C136	C	1.518414	-0.139040	0.506157
C137	C	1.851747	0.194293	0.839491
C138	C	2.185080	0.527627	1.172824
C139	C	1.518485	-0.069072	0.506192
C140	C	1.851818	0.264261	0.839525
C141	C	2.185151	0.597595	1.172859
C142	C	1.518229	-0.303245	0.233109
C143	C	1.851562	0.030088	0.566442
C144	C	2.184896	0.363422	0.899775
C145	C	1.518399	-0.303093	0.116332
C146	C	1.851732	0.030240	0.449666
C147	C	2.185066	0.363573	0.782999
C148	C	1.585601	-0.262880	0.951774
C149	C	1.918935	0.070453	1.285107
C150	C	2.252268	0.403787	1.618440
C151	C	1.585619	-0.262853	1.061498
C152	C	1.918952	0.070481	1.394831
C153	C	2.252286	0.403814	1.728165
C154	C	1.451149	-0.343359	1.061437
C155	C	1.784483	-0.010026	1.394771
C156	C	2.117816	0.323307	1.728104
C157	C	1.451127	-0.343383	0.951715
C158	C	1.784460	-0.010050	1.285048
C159	C	2.117794	0.323284	1.618382
H160	H	0.919158	-0.376213	0.383971
H161	H	1.252491	-0.042880	0.717305
H162	H	1.585825	0.290454	1.050638
Br163	Br	1.359914	-0.397969	1.135854
Br164	Br	1.693248	-0.064636	1.469188
Br165	Br	2.026581	0.268698	1.802521
H166	H	1.640373	-0.230065	1.106183
H167	H	1.973706	0.103269	1.439516
H168	H	2.307039	0.436602	1.772849
Br169	Br	1.359854	-0.398026	0.877218
Br170	Br	1.693187	-0.064692	1.210551
Br171	Br	2.026520	0.268641	1.543884
Br172	Br	1.359689	-0.525014	0.664288
Br173	Br	1.693022	-0.191681	0.997621
Br174	Br	2.026356	0.141652	1.330954
Br175	Br	1.676689	-0.679968	0.347826
Br176	Br	2.010022	-0.346635	0.681159
Br177	Br	2.343356	-0.013302	1.014492
Br178	Br	1.359934	-0.925856	0.664395
Br179	Br	1.693268	-0.592522	0.997728
Br180	Br	2.026601	-0.259189	1.331062
Br181	Br	0.889584	-0.208468	0.664766
Br182	Br	1.222918	0.124865	0.998099
Br183	Br	1.556251	0.458198	1.331433
Br184	Br	1.676835	-0.925845	0.347884
Br185	Br	2.010169	-0.592512	0.681217
Br186	Br	2.343502	-0.259178	1.014550
Br187	Br	1.148203	-0.208445	0.664755
Br188	Br	1.481536	0.124888	0.998088
Br189	Br	1.814869	0.458221	1.331422
H190	H	1.118226	-0.376180	0.383959
H191	H	1.451559	-0.042847	0.717293
H192	H	1.784892	0.290486	1.050626
Br193	Br	1.676599	-0.525009	0.347781
Br194	Br	2.009932	-0.191676	0.681114
Br195	Br	2.343266	0.141658	1.014448
Br196	Br	1.676960	-1.080804	0.347960
Br197	Br	2.010293	-0.747471	0.681294
Br198	Br	2.343626	-0.414137	1.014627
Br199	Br	1.360034	-1.080813	0.664447
Br200	Br	1.693367	-0.747479	0.997781
Br201	Br	2.026700	-0.414146	1.331114
H202	H	1.396267	-0.662132	0.627865
H203	H	1.729600	-0.328799	0.961199
H204	H	2.062933	0.004535	1.294532
H205	H	1.640343	-0.230113	0.907135
H206	H	1.973676	0.103220	1.240469
H207	H	2.307010	0.436554	1.573802
