data_functionalizedCrystal
_audit_creation_method	'MofGen! by Chris Wilmer'
_symmetry_space_group_name_H-M	'P1'
_symmetry_Int_Tables_number	1
_symmetry_cell_setting	triclinic
loop_
_symmetry_equiv_pos_as_xyz
  x,y,z
_cell_length_a	8.559649
_cell_length_b	10.489741
_cell_length_c	7.088929
_cell_angle_alpha	83.712943
_cell_angle_beta	95.325015
_cell_angle_gamma	77.158919
loop_
_atom_site_label
_atom_site_type_symbol
_atom_site_fract_x
_atom_site_fract_y
_atom_site_fract_z
O1	O	2.103400	-0.028523	-0.158957
O2	O	1.638952	0.037276	-0.158967
O3	O	1.881746	-0.182335	-0.158950
O4	O	1.860607	0.191088	-0.158973
O5	O	1.914192	-0.211743	0.159027
O6	O	1.671399	0.007868	0.159010
O7	O	2.135846	-0.057931	0.159021
Cu8	Cu	1.906585	-0.027717	0.188049
Cu9	Cu	1.868214	0.007062	-0.187996
O10	O	1.893053	0.161680	0.159004
C11	C	1.595703	0.027558	0.000020
C12	C	1.418493	0.042401	0.000017
C13	C	1.896372	-0.244403	0.000037
C14	C	1.891596	-0.385529	0.000034
C15	C	1.737113	-0.437401	0.000016
C16	C	1.826086	-0.551707	0.156797
C17	C	1.794133	-0.522692	-0.156703
C18	C	1.980646	-0.497989	0.156944
C19	C	1.948657	-0.468948	-0.156697
C20	C	2.037747	-0.583242	0.000122
C21	C	2.179096	-0.048213	0.000029
C22	C	2.356304	-0.063054	0.000020
C23	C	1.878426	0.223748	0.000012
C24	C	1.883201	0.364876	0.000003
N25	N	1.933585	-0.052180	0.452539
N26	N	1.841226	0.031513	-0.452486
H27	H	1.336155	0.144049	-0.000000
C28	C	1.421341	-0.253236	-0.163435
C29	C	1.467436	-0.200270	0.000025
H30	H	1.489965	-0.337945	-0.163435
H31	H	1.312854	-0.260929	-0.163419
H32	H	1.429972	-0.196763	-0.274309
H33	H	1.458793	-0.256739	0.110899
H34	H	1.575950	-0.192585	0.000027
C35	C	1.630910	0.222089	0.567225
C36	C	1.711999	0.148600	0.437299
H37	H	1.551137	0.294378	0.499170
H38	H	1.580710	0.167566	0.645307
H39	H	1.705890	0.254179	0.645292
H40	H	1.637020	0.116500	0.359241
H41	H	1.762199	0.203131	0.359184
C42	C	1.598671	-0.526066	0.335440
C43	C	1.756111	-0.600842	0.335723
H44	H	1.555465	-0.556401	0.445892
H45	H	1.600300	-0.435876	0.336148
H46	H	1.533468	-0.535228	0.224099
H47	H	1.821317	-0.591672	0.447058
H48	H	1.754491	-0.691054	0.335034
C49	C	2.090533	-0.349287	0.334522
C50	C	2.087081	-0.482228	0.336088
H51	H	2.156229	-0.339556	0.445126
H52	H	2.133702	-0.320219	0.223345
H53	H	1.984007	-0.297929	0.334067
H54	H	2.193607	-0.533585	0.336529
H55	H	2.043918	-0.511311	0.447296
C56	C	2.215214	-0.159919	0.514488
C57	C	2.062820	-0.169271	0.562764
H58	H	2.294993	-0.232203	0.582546
H59	H	2.217034	-0.161595	0.381008
H60	H	2.236973	-0.079624	0.547203
H61	H	2.041056	-0.249562	0.530036
H62	H	2.060996	-0.167608	0.696273
C63	C	2.306611	-0.656410	0.164531
C64	C	2.209367	-0.668061	0.000238
H65	H	2.412557	-0.708783	0.164611
H66	H	2.310672	-0.566734	0.165572
H67	H	2.262565	-0.685836	0.274832
H68	H	2.253407	-0.638626	-0.110063
H69	H	2.205313	-0.757756	-0.000821
H70	H	1.610115	-0.374390	0.000171
H71	H	1.715223	-0.534512	-0.289262
C72	C	1.920704	-0.430988	-0.499659
C73	C	2.018562	-0.419756	-0.335631
H74	H	1.963847	-0.400605	-0.610133
H75	H	1.917270	-0.520724	-0.501584
H76	H	1.814633	-0.379231	-0.498514
H77	H	2.124631	-0.471521	-0.336769
H78	H	2.022013	-0.330004	-0.333706
