data_functionalizedCrystal
_audit_creation_method	'MofGen! by Chris Wilmer'
_symmetry_space_group_name_H-M	'P1'
_symmetry_Int_Tables_number	1
_symmetry_cell_setting	triclinic
loop_
_symmetry_equiv_pos_as_xyz
  x,y,z
_cell_length_a	12.837943
_cell_length_b	11.892095
_cell_length_c	12.837942
_cell_angle_alpha	85.697431
_cell_angle_beta	94.828940
_cell_angle_gamma	94.310562
loop_
_atom_site_label
_atom_site_type_symbol
_atom_site_fract_x
_atom_site_fract_y
_atom_site_fract_z
O1	O	-1.408367	-0.093982	-0.266110
O2	O	-1.105234	-0.093989	-0.252667
O3	O	-1.250078	-0.093979	-0.107822
O4	O	-1.263522	-0.093992	-0.410955
O5	O	-1.237999	0.094028	-0.119879
O6	O	-1.093155	0.094018	-0.264723
O7	O	-1.396288	0.094025	-0.278167
Zn8	Zn	-1.242803	0.123871	-0.273359
Zn9	Zn	-1.258718	-0.123836	-0.257474
O10	O	-1.251443	0.094014	-0.423011
C11	C	-1.060125	0.000014	-0.254153
C12	C	-0.943710	0.000011	-0.240609
N13	N	-1.231950	0.292925	-0.284200
C14	C	-1.239497	0.000024	-0.074781
C15	C	-1.225953	0.000022	0.041634
C16	C	-1.441397	0.000020	-0.276680
C17	C	-1.557812	0.000015	-0.290224
C18	C	-0.718835	0.000020	-0.403439
C19	C	-0.609453	0.000019	-0.390717
C20	C	-0.615561	0.000015	-0.202446
C21	C	-0.724943	0.000017	-0.215167
C22	C	-0.776577	0.000017	-0.315667
C23	C	-0.885961	0.000011	-0.328387
C24	C	-0.892066	0.000015	-0.140117
C25	C	-0.782684	0.000014	-0.127395
N26	N	-1.269579	-0.292889	-0.246626
C27	C	-1.345098	0.529580	-0.171130
C28	C	-1.337519	0.647922	-0.178716
C29	C	-1.209210	0.647951	-0.306952
C30	C	-1.216788	0.529610	-0.299366
C31	C	-1.284736	0.470428	-0.231454
C32	C	-1.292319	0.352085	-0.223874
C33	C	-1.164005	0.352116	-0.352104
C34	C	-1.156426	0.470458	-0.359690
C35	C	-1.262024	0.000009	-0.456052
C36	C	-1.275569	0.000004	-0.572467
C37	C	-1.388784	0.000002	0.266509
C38	C	-1.376062	-0.000000	0.375892
C39	C	-1.187791	0.000007	0.369784
C40	C	-1.200512	0.000009	0.260402
C41	C	-1.301011	0.000008	0.208768
C42	C	-1.313731	0.000019	0.099383
C43	C	-1.125461	0.000018	0.093278
C44	C	-1.112740	0.000016	0.202660
H45	H	-0.928000	0.000013	-0.410219
F46	F	-1.084113	0.533452	-0.431961
F47	F	-0.773791	0.000007	-0.510395
H48	H	-1.153882	0.696151	-0.362237
H49	H	-0.573495	0.000108	-0.120630
F50	F	-1.099766	0.289151	-0.416313
F51	F	-1.401763	0.710872	-0.114509
F52	F	-1.005787	0.000008	0.257625
F53	F	-1.420690	0.000025	0.044432
H54	H	-1.347647	0.303901	-0.168579
F55	F	-1.495739	0.000024	0.211553
H56	H	-1.447536	-0.000009	0.422901
F57	F	-1.080842	-0.000020	0.424756
F58	F	-1.032041	0.000037	0.031817
H59	H	-0.562444	0.000024	-0.462191
H60	H	-0.740628	0.000026	-0.045572
F61	F	-1.417421	0.466595	-0.098864
F62	F	-0.953527	-0.000002	-0.046697
