data_functionalizedCrystal
_audit_creation_method	'MofGen! by Chris Wilmer'
_symmetry_space_group_name_H-M	'P1'
_symmetry_Int_Tables_number	1
_symmetry_cell_setting	triclinic
loop_
_symmetry_equiv_pos_as_xyz
  x,y,z
_cell_length_a	8.559649
_cell_length_b	14.853569
_cell_length_c	7.088638
_cell_angle_alpha	96.219315
_cell_angle_beta	84.666224
_cell_angle_gamma	76.707115
loop_
_atom_site_label
_atom_site_type_symbol
_atom_site_fract_x
_atom_site_fract_y
_atom_site_fract_z
O1	O	2.136435	-0.040975	-0.158960
O2	O	1.671336	0.005576	-0.158972
O3	O	1.916306	-0.149797	-0.158947
O4	O	1.891465	0.114397	-0.158985
O5	O	1.883527	-0.129004	0.159039
O6	O	1.638558	0.026369	0.159014
O7	O	2.103656	-0.020182	0.159027
Cu8	Cu	1.868114	0.004992	0.188055
Cu9	Cu	1.906879	-0.019598	-0.188001
O10	O	1.858687	0.135191	0.159002
C11	C	1.595425	0.019500	0.000019
C12	C	1.418069	0.030001	0.000015
C13	C	1.898790	-0.172910	0.000047
C14	C	1.895416	-0.272758	0.000048
C15	C	2.179568	-0.034107	0.000031
C16	C	2.356926	-0.044608	0.000023
N17	N	1.840861	0.022286	0.452553
C18	C	1.748313	-0.298846	0.000048
C19	C	2.039349	-0.340492	0.000035
C20	C	2.036184	-0.434305	0.000027
C21	C	1.889082	-0.460393	0.000026
C22	C	1.745144	-0.392667	0.000034
C23	C	2.180120	-0.502038	-0.000000
C24	C	2.176961	-0.595858	-0.000011
C25	C	2.029856	-0.621947	0.000002
C26	C	1.885913	-0.554215	0.000012
C27	C	1.738811	-0.580302	0.000011
C28	C	1.594864	-0.512571	0.000035
C29	C	1.598039	-0.418756	0.000046
C30	C	2.026681	-0.715762	-0.000010
C31	C	1.735642	-0.674124	-0.000003
C32	C	1.876203	0.158304	0.000004
C33	C	1.879579	0.258150	-0.000010
N34	N	1.934145	-0.036901	-0.452498
H35	H	1.440262	-0.116519	0.000023
F36	F	2.060455	-0.117066	0.440733
H37	H	1.334725	0.101915	-0.000005
F38	F	2.195898	-0.312725	0.000017
F39	F	1.579070	-0.701879	0.000010
H40	H	1.480847	-0.363602	0.000061
F41	F	1.438314	-0.540348	0.000013
H42	H	1.744220	0.083608	0.534233
H43	H	2.299871	-0.480782	0.000118
F44	F	1.595122	-0.226762	0.000079
F45	F	2.179869	-0.787842	-0.000053
F46	F	2.330159	-0.667934	-0.000027
