data_functionalizedCrystal
_audit_creation_method	'MofGen! by Chris Wilmer'
_symmetry_space_group_name_H-M	'P1'
_symmetry_Int_Tables_number	1
_symmetry_cell_setting	triclinic
loop_
_symmetry_equiv_pos_as_xyz
  x,y,z
_cell_length_a	13.033915
_cell_length_b	19.805407
_cell_length_c	19.805399
_cell_angle_alpha	90.019197
_cell_angle_beta	82.800922
_cell_angle_gamma	97.177858
loop_
_atom_site_label
_atom_site_type_symbol
_atom_site_fract_x
_atom_site_fract_y
_atom_site_fract_z
Zn1	Zn	-0.416152	-1.069050	-0.348533
Zn2	Zn	-0.590902	-1.083374	-0.220993
Zn3	Zn	-0.416169	-0.955866	-0.235357
Zn4	Zn	-0.590835	-0.970232	-0.334146
O5	O	-0.503515	-1.019631	-0.284757
O6	O	-0.439354	-1.165669	-0.331625
O7	O	-0.567759	-1.066443	-0.128179
O8	O	-0.269935	-0.958874	-0.262403
O9	O	-0.567742	-1.176193	-0.237921
O10	O	-0.269923	-1.042029	-0.345553
O11	O	-0.439383	-0.972763	-0.138732
O12	O	-0.439318	-0.863054	-0.248452
O13	O	-0.567628	-0.983358	-0.430774
O14	O	-0.567644	-0.873608	-0.321032
O15	O	-0.439289	-1.055959	-0.441344
O16	O	-0.737125	-1.080373	-0.223970
O17	O	-0.737076	-0.997248	-0.307103
C18	C	-0.503477	-0.843772	-0.284740
C19	C	-0.503485	-0.768540	-0.284746
C20	C	-0.436751	-0.727727	-0.333593
C21	C	-0.436754	-0.657039	-0.333594
C22	C	-0.503498	-0.627166	-0.284750
C23	C	-0.570235	-0.667985	-0.235898
C24	C	-0.570226	-0.738671	-0.235895
C25	C	-0.570273	-0.382915	-0.235909
C26	C	-0.570280	-0.312223	-0.235917
C27	C	-0.436801	-0.301282	-0.333607
C28	C	-0.436792	-0.371968	-0.333604
C29	C	-0.503525	-0.412781	-0.284751
C30	C	-0.503519	-0.489429	-0.284750
C31	C	-0.503510	-0.550520	-0.284753
C32	C	-0.775017	-1.041942	-0.262431
C33	C	-0.891166	-1.051549	-0.252902
C34	C	-1.063007	-1.024591	-0.279898
C35	C	-0.942960	-1.014666	-0.289752
C36	C	-0.230953	-0.997251	-0.307186
C37	C	-0.114803	-0.987714	-0.316743
C38	C	-0.503449	-1.019663	-0.461306
C39	C	-0.503421	-1.019677	-0.536540
C40	C	-0.503546	-0.196176	-0.284770
C41	C	-0.503539	-0.271407	-0.284761
C42	C	-0.436592	-1.057481	-0.577390
C43	C	-0.436561	-1.057486	-0.648080
C44	C	-0.503366	-1.019690	-0.677920
C45	C	-0.570199	-0.981881	-0.637065
C46	C	-0.570223	-0.981873	-0.566376
C47	C	-0.570101	-0.981911	-0.922147
C48	C	-0.570074	-0.981923	-0.992841
C49	C	-0.436440	-1.057524	-1.003851
C50	C	-0.436464	-1.057516	-0.933162
C51	C	-0.503292	-1.019705	-0.892314
C52	C	-0.503322	-1.019699	-0.815663
C53	C	-0.503342	-1.019698	-0.754569
C54	C	-0.503505	-1.019631	-0.108902
C55	C	-0.503239	-1.019724	-0.033692
H56	H	-0.624574	-0.643656	-0.196126
H57	H	-0.624589	-0.951104	-0.661366
C58	C	-0.363348	-0.612144	-0.387328
C59	C	-0.289938	-0.645002	-0.441059
C60	C	-0.216527	-0.600107	-0.494796
C61	C	-0.216526	-0.522354	-0.494801
C62	C	-0.289938	-0.489491	-0.441067
C63	C	-0.363349	-0.534386	-0.387331
H64	H	-0.289937	-0.702563	-0.441057
H65	H	-0.162183	-0.624434	-0.534572
H66	H	-0.162183	-0.489120	-0.534579
H67	H	-0.289940	-0.431930	-0.441069
H68	H	-0.417694	-0.510059	-0.347554
C69	C	-0.363381	-0.256385	-0.387342
C70	C	-0.408772	-0.211540	-0.436702
C71	C	-0.335357	-0.166645	-0.490436
C72	C	-0.216550	-0.166595	-0.494810
C73	C	-0.171153	-0.211442	-0.445449
C74	C	-0.244569	-0.256337	-0.391715
H75	H	-0.496725	-0.211575	-0.433465
H76	H	-0.368963	-0.133447	-0.526976
H77	H	-0.162204	-0.133361	-0.534588
H78	H	-0.083200	-0.211407	-0.448686
H79	H	-0.210962	-0.289535	-0.355175
H80	H	-0.624568	-0.771901	-0.196118
C81	C	-0.362918	-1.099112	-1.048787
C82	C	-0.371474	-1.176758	-1.038380
C83	C	-0.297958	-1.218347	-1.083313
C84	C	-0.215885	-1.182289	-1.138654
C85	C	-0.207325	-1.104639	-1.149064
C86	C	-0.280841	-1.063050	-1.104130
H87	H	-0.432233	-1.203454	-0.997411
H88	H	-0.304295	-1.275829	-1.075607
H89	H	-0.161463	-1.213076	-1.171916
H90	H	-0.146566	-1.077943	-1.190033
H91	H	-0.274504	-1.005568	-1.111837
C92	C	-0.643697	-0.279361	-0.182182
C93	C	-0.634998	-0.288327	-0.105960
C94	C	-0.708411	-0.255465	-0.052229
C95	C	-0.790523	-0.213636	-0.074719
C96	C	-0.799224	-0.204669	-0.150944
C97	C	-0.725811	-0.237531	-0.204676
H98	H	-0.574211	-0.319292	-0.089308
H99	H	-0.701969	-0.262103	0.004199
H100	H	-0.844867	-0.189310	-0.034944
H101	H	-0.860011	-0.173703	-0.167596
H102	H	-0.732254	-0.230892	-0.261103
C103	C	-0.643738	-0.940292	-0.521436
C104	C	-0.635193	-0.862646	-0.531841
C105	C	-0.708707	-0.821061	-0.486900
C106	C	-0.790766	-0.857123	-0.431554
C107	C	-0.799315	-0.934773	-0.421146
C108	C	-0.725801	-0.976357	-0.466087
H109	H	-0.574445	-0.835947	-0.572814
H110	H	-0.702378	-0.763579	-0.494605
H111	H	-0.845186	-0.826339	-0.398286
H112	H	-0.860063	-0.961471	-0.380173
H113	H	-0.732130	-1.033839	-0.458382
H114	H	-0.382145	-1.088272	-0.681338
C115	C	-0.643692	-0.427803	-0.182179
C116	C	-0.717118	-0.394943	-0.128460
C117	C	-0.790545	-0.439836	-0.074730
C118	C	-0.790547	-0.517589	-0.074719
C119	C	-0.717118	-0.550453	-0.128441
C120	C	-0.643691	-0.505561	-0.182171
H121	H	-0.717119	-0.337381	-0.128466
H122	H	-0.844902	-0.415507	-0.034962
H123	H	-0.844902	-0.550821	-0.034945
H124	H	-0.717117	-0.608015	-0.128435
H125	H	-0.589335	-0.529890	-0.221939
C126	C	-0.643556	-0.940339	-1.025667
C127	C	-0.717060	-0.898744	-0.980738
C128	C	-0.790537	-0.857162	-1.013564
C129	C	-0.790510	-0.857175	-1.091319
C130	C	-0.717003	-0.898771	-1.136253
C131	C	-0.643526	-0.940353	-1.103427
H132	H	-0.717082	-0.898733	-0.923174
H133	H	-0.844951	-0.826369	-0.980301
H134	H	-0.844902	-0.826393	-1.115619
H135	H	-0.716981	-0.898782	-1.193816
H136	H	-0.589112	-0.971146	-1.136690
H137	H	-0.624532	-0.951134	-0.888895
H138	H	-0.935690	-1.090471	-0.214059
C139	C	-0.363329	-0.760584	-0.387322
C140	C	-0.408705	-0.812932	-0.436681
C141	C	-0.335277	-0.845787	-0.490409
C142	C	-0.216473	-0.826294	-0.494777
C143	C	-0.171090	-0.773943	-0.445416
C144	C	-0.244518	-0.741088	-0.391688
H145	H	-0.496656	-0.827365	-0.433449
H146	H	-0.368873	-0.884541	-0.526950
H147	H	-0.162117	-0.850615	-0.534550
H148	H	-0.083139	-0.759510	-0.448648
H149	H	-0.210922	-0.702334	-0.355147
H150	H	-0.898436	-0.975741	-0.328592
H151	H	-1.070275	-0.948791	-0.355580
C152	C	-0.362977	-1.099092	-0.900339
C153	C	-0.289459	-1.140674	-0.945273
C154	C	-0.215967	-1.182248	-0.912452
C155	C	-0.215993	-1.182240	-0.834697
C156	C	-0.289513	-1.140657	-0.789758
C157	C	-0.363005	-1.099083	-0.822579
H158	H	-0.289437	-1.140680	-1.002836
H159	H	-0.161542	-1.213031	-0.945719
H160	H	-0.161590	-1.213016	-0.810400
H161	H	-0.289535	-1.140650	-0.732195
H162	H	-0.417430	-1.068300	-0.789312
H163	H	-0.382446	-0.396287	-0.373380
H164	H	-1.107536	-1.063509	-0.241056
H165	H	-0.382194	-1.088262	-0.553100
