data_functionalizedCrystal
_audit_creation_method	'MofGen! by Chris Wilmer'
_symmetry_space_group_name_H-M	'P1'
_symmetry_Int_Tables_number	1
_symmetry_cell_setting	triclinic
loop_
_symmetry_equiv_pos_as_xyz
  x,y,z
_cell_length_a	16.120490
_cell_length_b	16.120444
_cell_length_c	13.897441
_cell_angle_alpha	87.133622
_cell_angle_beta	92.917671
_cell_angle_gamma	90.165174
loop_
_atom_site_label
_atom_site_type_symbol
_atom_site_fract_x
_atom_site_fract_y
_atom_site_fract_z
Zn1	Zn	1.254490	-0.395644	0.642071
Zn2	Zn	1.754490	0.104356	1.142071
Zn3	Zn	1.247325	-0.534712	0.488503
Zn4	Zn	1.747325	-0.034712	0.988503
Zn5	Zn	1.115424	-0.388612	0.472229
Zn6	Zn	1.615424	0.111388	0.972229
Zn7	Zn	1.108340	-0.527590	0.641194
Zn8	Zn	1.608340	-0.027590	1.141194
O9	O	1.181395	-0.461640	0.560999
O10	O	1.681395	0.038360	1.060999
O11	O	1.369905	-0.420015	0.628878
O12	O	1.869905	0.079985	1.128878
O13	O	1.229795	-0.515369	0.351362
O14	O	1.729795	-0.015369	0.851362
O15	O	1.139834	-0.273182	0.488316
O16	O	1.639834	0.226818	0.988316
O17	O	1.364642	-0.522188	0.516051
O18	O	1.864642	-0.022188	1.016051
O19	O	1.242006	-0.278349	0.613098
O20	O	1.742006	0.221651	1.113098
O21	O	1.132887	-0.408031	0.339406
O22	O	1.632887	0.091969	0.839406
O23	O	0.998118	-0.401124	0.487465
O24	O	1.498118	0.098876	0.987465
O25	O	1.127760	-0.510049	0.776292
O26	O	1.627760	-0.010049	1.276292
O27	O	0.992913	-0.503231	0.611603
O28	O	1.492913	-0.003231	1.111603
O29	O	1.235136	-0.413109	0.776936
O30	O	1.735136	0.086891	1.276936
O31	O	1.222925	-0.650130	0.515201
O32	O	1.722925	-0.150130	1.015201
O33	O	1.120813	-0.644897	0.627383
O34	O	1.620813	-0.144897	1.127383
C35	C	0.965343	-0.450642	0.547674
C36	C	1.465343	0.049358	1.047674
C37	C	0.872915	-0.445958	0.541997
C38	C	1.372915	0.054042	1.041997
C39	C	0.659946	-0.485933	0.590447
C40	C	1.159946	0.014067	1.090447
C41	C	0.703691	-0.437412	0.531632
C42	C	1.203691	0.062588	1.031632
C43	C	0.797856	-0.442168	0.537401
C44	C	1.297856	0.057832	1.037401
C45	C	0.565773	-0.481178	0.584679
C46	C	1.065773	0.018822	1.084679
C47	C	1.170346	-0.677686	0.572985
C48	C	1.670346	-0.177686	1.072985
C49	C	1.165695	-0.770116	0.578149
C50	C	1.665695	-0.270116	1.078149
C51	C	1.205724	-0.983094	0.534429
C52	C	1.705724	-0.483094	1.034429
C53	C	1.157219	-0.939342	0.587589
C54	C	1.657219	-0.439342	1.087589
C55	C	1.161937	-0.845176	0.582335
C56	C	1.661937	-0.345176	1.082335
C57	C	1.201008	-1.077268	0.539682
C58	C	1.701008	-0.577268	1.039682
C59	C	1.398289	-0.472680	0.574378
C60	C	1.898289	0.027320	1.074378
C61	C	1.490717	-0.477385	0.580078
C62	C	1.990717	0.022615	1.080078
C63	C	1.181457	-0.461569	0.812592
C64	C	1.681457	0.038431	1.312592
C65	C	1.181484	-0.461539	0.919806
C66	C	1.681484	0.038461	1.419806
C67	C	1.192509	-0.244750	0.548989
C68	C	1.692509	0.255250	1.048989
C69	C	1.197246	-0.152325	0.543872
C70	C	1.697246	0.347675	1.043872
C71	C	1.181383	-0.461652	0.310385
C72	C	1.681383	0.038348	0.810385
C73	C	1.181529	-0.461456	0.203169
C74	C	1.681529	0.038544	0.703169
C75	C	1.181510	-0.461484	1.116099
C76	C	1.681510	0.038516	1.616099
C77	C	1.181493	-0.461517	1.006868
C78	C	1.681493	0.038483	1.506868
H79	H	0.693212	-0.531043	0.645127
H80	H	1.193212	-0.031043	1.145127
H81	H	1.112150	-0.972605	0.637047
H82	H	1.612150	-0.472605	1.137047
H83	H	1.250789	-0.949834	0.484973
H84	H	1.750789	-0.449834	0.984973
H85	H	0.670423	-0.392300	0.476946
H86	H	1.170423	0.107700	0.976946
