data_functionalizedCrystal
_audit_creation_method	'MofGen! by Chris Wilmer'
_symmetry_space_group_name_H-M	'P1'
_symmetry_Int_Tables_number	1
_symmetry_cell_setting	triclinic
loop_
_symmetry_equiv_pos_as_xyz
  x,y,z
_cell_length_a	14.395555
_cell_length_b	19.851628
_cell_length_c	14.395555
_cell_angle_alpha	90.004468
_cell_angle_beta	60.002398
_cell_angle_gamma	59.995608
loop_
_atom_site_label
_atom_site_type_symbol
_atom_site_fract_x
_atom_site_fract_y
_atom_site_fract_z
Zr1	Zr	1.016722	0.648937	-0.121805
O2	O	1.210537	0.541363	-0.270148
O3	O	0.822916	0.681919	-0.076328
O4	O	1.016710	0.681913	-0.270123
O5	O	1.016749	0.541369	0.076514
O6	O	1.016692	0.792774	-0.270104
O7	O	1.016742	0.541370	-0.076353
O8	O	0.670029	0.792786	0.076560
O9	O	1.363413	0.541357	-0.270150
O10	O	0.902615	0.778714	-0.056920
O11	O	0.902634	0.695979	0.057149
O12	O	1.130802	0.695971	-0.171020
O13	O	1.130821	0.613235	-0.056951
Zr14	Zr	1.016705	0.825747	0.122031
Zr15	Zr	1.016694	0.825749	-0.121775
Zr16	Zr	1.016733	0.648935	0.122001
Zr17	Zr	1.260542	0.648927	-0.121807
Zr18	Zr	0.772886	0.825757	0.122033
O19	O	1.210512	0.792765	0.076554
O20	O	1.210496	0.792767	-0.270106
O21	O	1.210552	0.541361	0.076512
O22	O	0.822890	0.933321	0.270374
O23	O	0.822875	0.933323	-0.076286
O24	O	0.822931	0.681917	0.270332
O25	O	1.016678	0.933315	-0.076288
O26	O	1.016717	0.792771	0.270349
O27	O	1.016735	0.681910	0.270330
O28	O	1.016685	0.933314	0.076579
O29	O	1.363390	0.681899	-0.270126
O30	O	0.670038	0.792785	0.270352
O31	O	0.670015	0.933327	0.270376
O32	O	0.670006	0.933328	0.076583
O33	O	1.363421	0.541356	-0.076357
O34	O	1.363399	0.681898	-0.076333
O35	O	0.902625	0.778713	0.171246
O36	O	0.902607	0.861449	0.057177
O37	O	1.130794	0.778705	-0.056923
O38	O	1.130812	0.695970	0.057146
C39	C	0.711733	0.737354	0.000116
C40	C	0.608226	0.737358	0.000117
C41	C	0.547637	0.782462	-0.062089
C42	C	0.409528	0.815154	0.045184
C43	C	0.561900	0.704671	-0.107144
C44	C	0.471416	0.770096	0.107454
C45	C	0.623863	0.659570	-0.044952
C46	C	0.485763	0.692243	0.062385
C47	C	1.016749	0.516177	0.000076
C48	C	1.016762	0.441116	0.000063
C49	C	1.141150	0.214656	-0.062110
C50	C	1.078954	0.192297	-0.107186
C51	C	1.016728	0.303710	0.000096
C52	C	1.078932	0.192328	0.045151
C53	C	1.016704	0.170977	0.000127
C54	C	0.954531	0.282340	-0.045043
C55	C	0.954527	0.282367	0.107354
C56	C	0.892240	0.260062	0.062305
C57	C	1.016745	0.380172	0.000076
C58	C	1.016677	0.094520	0.000146
C59	C	1.321694	0.737330	0.000110
C60	C	1.425202	0.737326	0.000109
C61	C	1.016700	0.737344	-0.304851
C62	C	1.016695	0.737344	-0.408352
C63	C	1.016678	0.958507	0.000150
C64	C	1.016666	1.033568	0.000163
C65	C	0.892278	0.782464	-0.406729
C66	C	0.954483	0.704666	-0.499765
C67	C	0.954495	0.815123	-0.499745
C68	C	1.078902	0.659501	-0.500025
C69	C	1.078895	0.770013	-0.499991
C70	C	1.141192	0.692169	-0.593044
C71	C	1.016727	0.737340	0.305077
C72	C	1.016732	0.737340	0.408578
C73	C	0.711697	0.958519	0.000153
C74	C	0.608178	1.033584	0.000167
C75	C	0.711747	0.737353	0.305080
C76	C	0.608244	0.737356	0.408583
C77	C	0.711711	0.958517	0.305117
C78	C	0.608196	1.033582	0.408632
C79	C	1.321716	0.516167	-0.304891
C80	C	1.425231	0.441102	-0.408406
C81	C	1.321730	0.516165	0.000073
C82	C	1.425250	0.441100	0.000059
C83	C	1.321680	0.737331	-0.304854
C84	C	1.425183	0.737328	-0.408357
C85	C	0.559568	1.025649	-0.059394
C86	C	0.462314	1.096174	-0.059404
C87	C	0.413664	1.174634	0.000154
C88	C	0.462283	1.182567	0.059717
C89	C	0.559543	1.112043	0.059720
C90	C	0.559575	1.112028	0.397701
C91	C	0.462325	1.182566	0.494956
C92	C	0.413691	1.174657	0.603140
C93	C	0.462322	1.096203	0.614069
C94	C	0.559577	1.025666	0.516816
C95	C	1.473865	0.362656	-0.397475
C96	C	1.571145	0.292118	-0.494730
C97	C	1.619783	0.300027	-0.602914
C98	C	1.571146	0.378481	-0.613843
C99	C	1.473874	0.449018	-0.516590
C100	C	1.473870	0.449035	0.059610
C101	C	1.571151	0.378510	0.059593
C102	C	1.619804	0.300050	0.000031
C103	C	1.571180	0.292117	-0.059527
C104	C	1.473907	0.362641	-0.059516
C105	C	0.547664	0.692246	0.406961
C106	C	0.409549	0.770049	0.499994
C107	C	0.561905	0.659587	0.499981
C108	C	0.471429	0.815205	0.500252
C109	C	0.623860	0.704686	0.500225
C110	C	0.485754	0.782536	0.593274
H111	H	0.715525	0.593812	-0.083099
H112	H	0.422739	1.246440	0.486037
H113	H	0.901907	0.677028	-0.500700
H114	H	1.131537	0.153486	-0.197881
H115	H	1.610724	0.384985	0.108097
N116	N	1.724719	0.223988	0.000025
H117	H	1.748127	0.240928	0.046794
H118	H	1.690808	0.190074	0.033888
N119	N	0.612000	1.120581	0.281031
H120	H	0.652350	1.151732	0.271927
H121	H	0.680937	1.063974	0.221133
H122	H	1.246354	0.196201	-0.114791
N123	N	0.884822	0.902251	-0.500939
H124	H	0.886091	0.901565	-0.571727
H125	H	0.790870	0.936233	-0.431397
H126	H	0.317920	0.797695	0.500926
N127	N	0.611177	0.572460	0.501172
H128	H	0.703654	0.532852	0.430914
H129	H	0.610670	0.567643	0.571242
H130	H	0.334500	1.232099	0.682321
H131	H	1.610808	0.228226	-0.108021
N132	N	1.421400	0.533625	-0.528393
H133	H	1.352392	0.577116	-0.450374
H134	H	1.495667	0.540160	-0.571400
H135	H	0.599108	1.118515	0.108228
H136	H	0.422711	1.089775	0.702166
H137	H	0.599152	0.961795	0.525732
N138	N	1.421411	0.354113	-0.280799
H139	H	1.466996	0.293710	-0.288648
H140	H	1.438325	0.381498	-0.237846
H141	H	0.599177	0.961770	-0.107908
N142	N	1.623588	0.207507	-0.482928
H143	H	1.578000	0.213207	-0.399635
H144	H	1.606677	0.176359	-0.520693
N145	N	0.449960	0.641717	0.132159
H146	H	0.380355	0.641588	0.131236
H147	H	0.530562	0.583248	0.098814
N148	N	1.724696	0.223945	-0.707804
H149	H	1.748115	0.173052	-0.684453
H150	H	1.690778	0.223980	-0.754571
H151	H	0.901980	0.321037	-0.083239
H152	H	1.434323	0.356169	-0.108007
H153	H	1.610760	0.384912	-0.701938
H154	H	1.434264	0.512914	0.108120
H155	H	0.574752	0.654155	0.327197
H156	H	0.422659	1.246458	0.108208
H157	H	0.434042	0.881012	0.499439
H158	H	0.422740	1.089699	-0.107907
N159	N	0.752926	0.832919	-0.301069
H160	H	0.753894	0.832994	-0.231398
H161	H	0.705501	0.891410	-0.300916
N162	N	0.884952	0.333791	0.227450
H163	H	0.932057	0.300412	0.261412
H164	H	0.884771	0.384726	0.226469
N165	N	0.449950	0.833139	0.698762
H166	H	0.415033	0.891859	0.699522
H167	H	0.380378	0.832414	0.768491
N168	N	0.745259	0.668041	0.498940
H169	H	0.822369	0.618209	0.428126
H170	H	0.764350	0.710506	0.499465
N171	N	0.583511	0.833054	-0.131660
H172	H	0.503353	0.891807	-0.097471
H173	H	0.654281	0.832216	-0.131744
H174	H	0.317888	0.880925	0.083306
N175	N	0.611175	0.668065	-0.227290
H176	H	0.633592	0.702197	-0.274199
H177	H	0.692197	0.609646	-0.261723
H178	H	0.334468	1.232053	0.000144
H179	H	0.434026	0.797802	0.198202
H180	H	0.786949	0.278672	0.114912
H181	H	1.131544	0.153524	0.083243
H182	H	1.131455	0.593692	-0.499214
H183	H	1.246484	0.653958	-0.672679
N184	N	1.148487	0.806640	-0.498695
H185	H	1.101388	0.865427	-0.497630
H186	H	1.148689	0.805808	-0.428646
