data_functionalizedCrystal
_audit_creation_method	'MofGen! by Chris Wilmer'
_symmetry_space_group_name_H-M	'P1'
_symmetry_Int_Tables_number	1
_symmetry_cell_setting	triclinic
loop_
_symmetry_equiv_pos_as_xyz
  x,y,z
_cell_length_a	17.699083
_cell_length_b	15.944551
_cell_length_c	16.176319
_cell_angle_alpha	89.992246
_cell_angle_beta	89.998611
_cell_angle_gamma	83.390877
loop_
_atom_site_label
_atom_site_type_symbol
_atom_site_fract_x
_atom_site_fract_y
_atom_site_fract_z
O1	O	1.004260	0.106222	-0.068632
O2	O	1.504260	0.606222	0.431368
O3	O	0.783905	0.120042	-0.068660
O4	O	1.283905	0.620042	0.431340
O5	O	0.900100	-0.009156	-0.068638
O6	O	1.400100	0.490844	0.431362
O7	O	0.888065	0.235419	-0.068654
O8	O	1.388065	0.735419	0.431346
O9	O	0.900084	-0.009164	0.068855
O10	O	1.400084	0.490836	0.568855
O11	O	0.783889	0.120033	0.068833
O12	O	1.283889	0.620033	0.568833
O13	O	1.004244	0.106214	0.068861
O14	O	1.504244	0.606214	0.568861
Cu15	Cu	0.894065	0.113123	0.081401
Cu16	Cu	1.394065	0.613123	0.581401
Cu17	Cu	0.894084	0.113133	-0.081200
Cu18	Cu	1.394084	0.613133	0.418800
O19	O	0.888049	0.235411	0.068839
O20	O	1.388049	0.735411	0.568839
C21	C	0.755700	0.119542	0.000083
C22	C	1.255700	0.619542	0.500083
C23	C	0.671679	0.118057	0.000073
C24	C	1.171679	0.618057	0.500073
C25	C	0.623187	0.193893	0.000068
C26	C	1.123187	0.693893	0.500068
C27	C	0.544242	0.192492	0.000079
C28	C	1.044242	0.692492	0.500079
C29	C	0.513789	0.115254	0.000089
C30	C	1.013789	0.615254	0.500089
C31	C	0.562287	0.039412	0.000096
C32	C	1.062287	0.539412	0.500096
C33	C	0.641231	0.040814	0.000091
C34	C	1.141231	0.540814	0.500091
C35	C	0.243914	0.033758	0.000117
C36	C	0.743914	0.533758	0.500117
C37	C	0.164964	0.032362	0.000119
C38	C	0.664964	0.532362	0.500119
C39	C	0.146925	0.185436	0.000105
C40	C	0.646925	0.685436	0.500105
C41	C	0.225869	0.186837	0.000100
C42	C	0.725869	0.686837	0.500100
C43	C	0.274360	0.110996	0.000112
C44	C	0.774360	0.610996	0.500112
C45	C	0.359962	0.112516	0.000102
C46	C	0.859962	0.612516	0.500102
C47	C	0.428189	0.113733	0.000093
C48	C	0.928189	0.613733	0.500093
C49	C	0.899593	-0.040453	0.000109
C50	C	1.399593	0.459547	0.500109
C51	C	0.898095	-0.133696	0.000109
C52	C	1.398095	0.366304	0.500109
C53	C	0.822492	-0.348393	0.000088
C54	C	1.322492	0.151607	0.500088
C55	C	0.857591	-0.409488	0.067885
C56	C	1.357591	0.090512	0.567885
C57	C	0.895385	-0.304416	0.000102
C58	C	1.395385	0.195584	0.500102
C59	C	0.857624	-0.409464	-0.067672
C60	C	1.357624	0.090536	0.432328
C61	C	0.892762	-0.469323	0.000092
C62	C	1.392762	0.030677	0.500092
C63	C	0.930505	-0.364283	0.067955
C64	C	1.430505	0.135717	0.567955
C65	C	0.930527	-0.364252	-0.067663
C66	C	1.430527	0.135748	0.432337
C67	C	0.965680	-0.425329	0.000150
C68	C	1.465680	0.074671	0.500150
C69	C	0.896894	-0.209417	0.000109
C70	C	1.396894	0.290583	0.500109
C71	C	0.891259	-0.564321	0.000092
C72	C	1.391259	-0.064321	0.500092
C73	C	1.032450	0.106713	0.000116
C74	C	1.532450	0.606713	0.500116
C75	C	1.116471	0.108199	0.000121
C76	C	1.616471	0.608199	0.500121
C77	C	0.888557	0.266708	0.000090
C78	C	1.388557	0.766708	0.500090
C79	C	0.890055	0.359951	0.000085
C80	C	1.390055	0.859951	0.500085
N81	N	0.894058	0.113116	0.195767
N82	N	1.394058	0.613116	0.695767
N83	N	0.894098	0.113133	-0.195565
N84	N	1.394098	0.613133	0.304435
C85	C	0.945524	0.055930	0.239040
C86	C	1.445524	0.555930	0.739040
C87	C	0.945528	0.055929	0.325588
C88	C	1.445528	0.555929	0.825588
C89	C	0.894068	0.113118	0.368859
C90	C	1.394068	0.613118	0.868859
C91	C	0.842596	0.170306	0.325579
C92	C	1.342596	0.670306	0.825579
C93	C	0.842589	0.170303	0.239034
C94	C	1.342589	0.670303	0.739034
C95	C	0.842622	0.170322	0.674608
C96	C	1.342622	0.670322	1.174608
C97	C	0.842634	0.170323	0.761159
C98	C	1.342634	0.670323	1.261159
C99	C	0.945561	0.055949	0.761161
C100	C	1.445561	0.555949	1.261161
C101	C	0.945554	0.055945	0.674616
C102	C	1.445554	0.555945	1.174616
C103	C	0.894080	0.113130	0.631343
C104	C	1.394080	0.613130	1.131343
C105	C	0.894075	0.113129	0.537499
C106	C	1.394075	0.613129	1.037499
C107	C	0.894076	0.113124	0.462702
C108	C	1.394076	0.613124	0.962702
H109	H	0.537486	-0.023476	0.000116
H110	H	1.037486	0.476524	0.500116
H111	H	0.987435	0.009364	0.360821
H112	H	1.487435	0.509364	0.860821
H113	H	0.283386	-0.027997	0.000127
H114	H	0.783386	0.472003	0.500127
C115	C	0.786024	0.233229	0.808761
C116	C	1.286024	0.733229	1.308761
H117	H	0.793409	0.225045	0.866501
H118	H	1.293409	0.725045	1.366501
H119	H	0.735513	0.224172	0.794590
H120	H	1.235513	0.724172	1.294590
H121	H	0.794242	0.289281	0.794566
H122	H	1.294242	0.789281	1.294566
C123	C	1.002177	-0.006964	0.808759
C124	C	1.502177	0.493036	1.308759
H125	H	1.032828	-0.041017	0.770592
H126	H	1.532828	0.458983	1.270592
H127	H	0.974957	-0.041894	0.842529
H128	H	1.474957	0.458106	1.342529
H129	H	1.033686	0.023214	0.842511
H130	H	1.533686	0.523214	1.342511
C131	C	0.785993	0.233215	0.373176
C132	C	1.285993	0.733215	0.873176
H133	H	0.793373	0.225034	0.430917
H134	H	1.293373	0.725034	0.930917
H135	H	0.735481	0.224164	0.359003
H136	H	1.235481	0.724164	0.859003
H137	H	0.794217	0.289264	0.358978
H138	H	1.294217	0.789264	0.858978
H139	H	0.987460	0.009379	0.639387
H140	H	1.487460	0.509379	1.139387
H141	H	0.961339	-0.344183	-0.124975
H142	H	1.461339	0.155817	0.375025
H143	H	0.800679	0.216868	0.203801
H144	H	1.300679	0.716868	0.703801
H145	H	0.504763	0.254246	0.000074
H146	H	1.004763	0.754246	0.500074
H147	H	0.800711	0.216885	0.639382
H148	H	1.300711	0.716885	1.139382
H149	H	0.647975	0.256789	0.000060
H150	H	1.147975	0.756789	0.500060
C151	C	0.694571	-0.042605	0.000088
C152	C	1.194571	0.457395	0.500088
H153	H	0.665130	-0.088807	0.000086
H154	H	1.165130	0.411193	0.500086
H155	H	0.725746	-0.045246	0.048032
H156	H	1.225746	0.454754	0.548032
H157	H	0.725738	-0.045234	-0.047868
H158	H	1.225738	0.454766	0.452132
C159	C	0.972110	-0.337381	0.145473
C160	C	1.472110	0.162619	0.645473
H161	H	0.988546	-0.385807	0.177805
H162	H	1.488546	0.114193	0.677805
H163	H	0.938511	-0.299275	0.177158
H164	H	1.438511	0.200725	0.677158
H165	H	1.014950	-0.310472	0.129275
H166	H	1.514950	0.189528	0.629275
H167	H	0.107434	0.247189	0.000100
H168	H	0.607434	0.747189	0.500100
C169	C	1.047483	-0.470305	0.000211
C170	C	1.547483	0.029695	0.500211
H171	H	1.073246	-0.454850	0.048414
H172	H	1.573246	0.045150	0.548414
H173	H	1.073574	-0.454134	-0.047485
H174	H	1.573574	0.045866	0.452515
H175	H	1.046093	-0.529688	-0.000239
H176	H	1.546093	-0.029688	0.499761
H177	H	0.140173	-0.030538	0.000128
H178	H	0.640173	0.469462	0.500128
C179	C	0.259363	0.271798	0.000093
C180	C	0.759363	0.771798	0.500093
H181	H	0.219176	0.316764	0.000100
H182	H	0.719176	0.816764	0.500100
H183	H	0.289785	0.275533	-0.047854
H184	H	0.789785	0.775533	0.452146
H185	H	0.289783	0.275519	0.048046
H186	H	0.789783	0.775519	0.548046
C187	C	0.740760	-0.303219	0.000167
C188	C	1.240760	0.196781	0.500167
H189	H	0.714977	-0.318590	0.048393
H190	H	1.214977	0.181410	0.548393
H191	H	0.714610	-0.319333	-0.047505
H192	H	1.214610	0.180667	0.452495
H193	H	0.742274	-0.243856	-0.000319
H194	H	1.242274	0.256144	0.499681
C195	C	0.815935	-0.436576	0.145302
C196	C	1.315935	0.063424	0.645302
H197	H	0.765070	-0.409968	0.145215
H198	H	1.265070	0.090032	0.645215
H199	H	0.841335	-0.420349	0.193445
H200	H	1.341335	0.079651	0.693445
H201	H	0.815689	-0.496125	0.144995
H202	H	1.315689	0.003875	0.644995
C203	C	0.815972	-0.436504	-0.145102
C204	C	1.315972	0.063496	0.354898
H205	H	0.765112	-0.409880	-0.145019
H206	H	1.265112	0.090120	0.354981
H207	H	0.815721	-0.496048	-0.144819
H208	H	1.315721	0.003952	0.355181
H209	H	0.841379	-0.420246	-0.193239
H210	H	1.341379	0.079754	0.306761
H211	H	0.987432	0.009364	0.203814
H212	H	1.487432	0.509364	0.703814
