data_functionalizedCrystal
_audit_creation_method	'MofGen! by Chris Wilmer'
_symmetry_space_group_name_H-M	'P1'
_symmetry_Int_Tables_number	1
_symmetry_cell_setting	triclinic
loop_
_symmetry_equiv_pos_as_xyz
  x,y,z
_cell_length_a	16.625548
_cell_length_b	13.032721
_cell_length_c	16.625539
_cell_angle_alpha	82.846360
_cell_angle_beta	89.979432
_cell_angle_gamma	82.794397
loop_
_atom_site_label
_atom_site_type_symbol
_atom_site_fract_x
_atom_site_fract_y
_atom_site_fract_z
Zn1	Zn	1.191923	0.416011	-0.496664
Zn2	Zn	1.174704	0.590777	-0.378952
Zn3	Zn	1.057081	0.416050	-0.361848
Zn4	Zn	1.039939	0.590717	-0.513736
O5	O	1.115912	0.503389	-0.437800
O6	O	1.302470	0.439202	-0.481062
O7	O	1.159069	0.567641	-0.263855
O8	O	1.089348	0.269806	-0.365429
O9	O	1.289820	0.567603	-0.394580
O10	O	1.188416	0.269777	-0.464477
O11	O	1.072652	0.439270	-0.251289
O12	O	0.941975	0.439212	-0.381983
O13	O	1.060132	0.567500	-0.624300
O14	O	0.929381	0.567539	-0.493575
O15	O	1.171794	0.439144	-0.611757
O16	O	1.142447	0.737009	-0.411134
O17	O	1.043435	0.736965	-0.510160
C18	C	1.089234	0.774905	-0.464373
C19	C	1.077895	0.891061	-0.475768
C20	C	0.906422	0.503374	-0.437776
C21	C	0.816799	0.503393	-0.437787
C22	C	1.115972	0.503311	-0.648101
C23	C	1.115997	0.503278	-0.737719
C24	C	0.488623	0.503400	-0.437823
C25	C	0.579932	0.503395	-0.437810
C26	C	0.652708	0.503397	-0.437804
C27	C	0.744023	0.503391	-0.437793
C28	C	1.326219	0.503405	-0.437825
C29	C	1.415839	0.503411	-0.437835
C30	C	1.142715	0.230813	-0.411141
C31	C	1.154137	0.114657	-0.399780
C32	C	1.121872	0.942834	-0.431889
C33	C	1.110154	1.062887	-0.443665
C34	C	1.116046	0.503161	-1.065884
C35	C	1.116030	0.503197	-0.974579
C36	C	1.116022	0.503220	-0.901805
C37	C	1.116005	0.503255	-0.810494
C38	C	1.115906	0.503391	-0.228310
C39	C	1.116065	0.503130	-0.138663
H40	H	1.168201	0.898282	-0.385607
C41	C	1.048106	1.230307	-0.505724
C42	C	1.047610	1.123018	-0.506153
H43	H	1.009491	1.267428	-0.544297
H44	H	1.100547	1.248064	-0.519306
H45	H	1.034602	1.248193	-0.453277
H46	H	1.061119	1.105131	-0.558599
H47	H	0.995156	1.105254	-0.492576
C48	C	1.177304	0.991871	-0.279365
C49	C	1.216680	1.054532	-0.337289
H50	H	1.215915	0.954760	-0.240783
H51	H	1.151243	0.943834	-0.305368
H52	H	1.138057	1.034530	-0.252650
H53	H	1.255923	1.011872	-0.364007
H54	H	1.242754	1.102575	-0.311283
H55	H	1.031573	0.935614	-0.522056
