data_functionalizedCrystal
_audit_creation_method	'MofGen! by Chris Wilmer'
_symmetry_space_group_name_H-M	'P1'
_symmetry_Int_Tables_number	1
_symmetry_cell_setting	triclinic
loop_
_symmetry_equiv_pos_as_xyz
  x,y,z
_cell_length_a	19.188930
_cell_length_b	11.792241
_cell_length_c	10.268362
_cell_angle_alpha	89.996518
_cell_angle_beta	90.010846
_cell_angle_gamma	83.669099
loop_
_atom_site_label
_atom_site_type_symbol
_atom_site_fract_x
_atom_site_fract_y
_atom_site_fract_z
O1	O	0.095696	1.505470	0.108190
O2	O	0.345696	1.755470	0.358190
O3	O	0.595696	2.005470	0.608190
O4	O	0.845696	2.255470	0.858190
O5	O	0.105558	1.174981	0.108222
O6	O	0.355558	1.424981	0.358222
O7	O	0.605558	1.674981	0.608222
O8	O	0.855558	1.924981	0.858222
O9	O	-0.000974	1.349763	0.108179
O10	O	0.249026	1.599763	0.358179
O11	O	0.499026	1.849763	0.608179
O12	O	0.749026	2.099763	0.858179
O13	O	0.202229	1.330688	0.108232
O14	O	0.452229	1.580688	0.358232
O15	O	0.702229	1.830688	0.608232
O16	O	0.952229	2.080688	0.858232
O17	O	-0.000981	1.349761	-0.108421
O18	O	0.249019	1.599761	0.141579
O19	O	0.499019	1.849761	0.391579
O20	O	0.749019	2.099761	0.641579
O21	O	0.105552	1.174979	-0.108379
O22	O	0.355552	1.424979	0.141621
O23	O	0.605552	1.674979	0.391621
O24	O	0.855552	1.924979	0.641621
O25	O	0.095690	1.505468	-0.108411
O26	O	0.345690	1.755468	0.141589
O27	O	0.595690	2.005468	0.391589
O28	O	0.845690	2.255468	0.641589
Cu29	Cu	0.100621	1.340223	-0.128172
Cu30	Cu	0.350621	1.590223	0.121828
Cu31	Cu	0.600621	1.840223	0.371828
Cu32	Cu	0.850621	2.090223	0.621828
Cu33	Cu	0.100628	1.340226	0.127983
Cu34	Cu	0.350628	1.590226	0.377983
Cu35	Cu	0.600628	1.840226	0.627983
Cu36	Cu	0.850628	2.090226	0.877983
O37	O	0.202223	1.330686	-0.108368
O38	O	0.452223	1.580686	0.141632
O39	O	0.702223	1.830686	0.391632
O40	O	0.952223	2.080686	0.641632
C41	C	0.104936	1.132699	-0.000075
C42	C	0.354936	1.382699	0.249925
C43	C	0.604936	1.632699	0.499925
C44	C	0.854936	1.882699	0.749925
C45	C	0.103082	1.006713	-0.000064
C46	C	0.353082	1.256713	0.249936
C47	C	0.603082	1.506713	0.499936
C48	C	0.853082	1.756713	0.749936
C49	C	0.099672	0.776051	-0.000102
C50	C	0.349672	1.026051	0.249898
C51	C	0.599672	1.276051	0.499898
C52	C	0.849672	1.526051	0.749898
C53	C	0.101566	0.904408	-0.000081
C54	C	0.351566	1.154408	0.249919
C55	C	0.601566	1.404408	0.499919
C56	C	0.851566	1.654408	0.749919
C57	C	-0.026992	1.349144	-0.000125
C58	C	0.223008	1.599144	0.249875
C59	C	0.473008	1.849144	0.499875
C60	C	0.723008	2.099144	0.749875
C61	C	-0.104507	1.347290	-0.000136
C62	C	0.145493	1.597290	0.249864
C63	C	0.395493	1.847290	0.499864
C64	C	0.645493	2.097290	0.749864
C65	C	-0.148850	1.449846	-0.000152
C66	C	0.101150	1.699846	0.249848
C67	C	0.351150	1.949846	0.499848
C68	C	0.601150	2.199846	0.749848
C69	C	-0.221684	1.448104	-0.000131
C70	C	0.028316	1.698104	0.249869
C71	C	0.278316	1.948104	0.499869
C72	C	0.528316	2.198104	0.749869
C73	C	-0.250171	1.343800	-0.000120
C74	C	-0.000171	1.593800	0.249880
C75	C	0.249829	1.843800	0.499880
C76	C	0.499829	2.093800	0.749880
C77	C	-0.205818	1.241230	-0.000096
C78	C	0.044182	1.491230	0.249904
C79	C	0.294182	1.741230	0.499904
C80	C	0.544182	1.991230	0.749904
C81	C	-0.132986	1.242975	-0.000104
C82	C	0.117014	1.492975	0.249896
C83	C	0.367014	1.742975	0.499896
C84	C	0.617014	1.992975	0.749896
N85	N	-0.358630	1.264071	-0.073825
N86	N	-0.108630	1.514071	0.176175
N87	N	0.141370	1.764071	0.426175
N88	N	0.391370	2.014071	0.676175
N89	N	-0.427818	1.262421	-0.073820
N90	N	-0.177818	1.512421	0.176180
N91	N	0.072182	1.762421	0.426180
N92	N	0.322182	2.012421	0.676180
C93	C	-0.469609	1.338536	-0.000093
C94	C	-0.219609	1.588536	0.249907
C95	C	0.030391	1.838536	0.499907
C96	C	0.280391	2.088536	0.749907
N97	N	-0.439601	1.416382	0.073614
N98	N	-0.189601	1.666382	0.323614
N99	N	0.060399	1.916382	0.573614
N100	N	0.310399	2.166382	0.823614
N101	N	-0.370407	1.418036	0.073603
N102	N	-0.120407	1.668036	0.323603
N103	N	0.129593	1.918036	0.573603
N104	N	0.379593	2.168036	0.823603
C105	C	-0.329144	1.341896	-0.000110
C106	C	-0.079144	1.591896	0.249890
C107	C	0.170856	1.841896	0.499890
C108	C	0.420856	2.091896	0.749890
C109	C	-0.592928	1.439211	-0.000084
C110	C	-0.342928	1.689211	0.249916
C111	C	-0.092928	1.939211	0.499916
C112	C	0.157072	2.189211	0.749916
C113	C	-0.665762	1.437464	-0.000055
C114	C	-0.415762	1.687464	0.249945
C115	C	-0.165762	1.937464	0.499945
C116	C	0.084238	2.187464	0.749945
C117	C	-0.649895	1.230588	-0.000034
C118	C	-0.399895	1.480588	0.249966
C119	C	-0.149895	1.730588	0.499966
C120	C	0.100105	1.980588	0.749966
C121	C	-0.577062	1.232337	-0.000050
C122	C	-0.327062	1.482337	0.249950
C123	C	-0.077062	1.732337	0.499950
C124	C	0.172938	1.982337	0.749950
C125	C	-0.548583	1.336652	-0.000081
C126	C	-0.298583	1.586652	0.249919
C127	C	-0.048583	1.836652	0.499919
C128	C	0.201417	2.086652	0.749919
C129	C	0.228240	1.331305	-0.000062
C130	C	0.478240	1.581305	0.249938
C131	C	0.728240	1.831305	0.499938
C132	C	0.978240	2.081305	0.749938
C133	C	0.305755	1.333159	-0.000042
C134	C	0.555755	1.583159	0.249958
C135	C	0.805755	1.833159	0.499958
C136	C	1.055755	2.083159	0.749958
C137	C	0.096313	1.547751	-0.000111
C138	C	0.346313	1.797751	0.249889
C139	C	0.596313	2.047751	0.499889
C140	C	0.846313	2.297751	0.749889
C141	C	0.098167	1.673737	-0.000114
C142	C	0.348167	1.923737	0.249886
C143	C	0.598167	2.173737	0.499886
C144	C	0.848167	2.423737	0.749886
N145	N	0.100628	1.340228	0.308149
N146	N	0.350628	1.590228	0.558149
N147	N	0.600628	1.840228	0.808149
N148	N	0.850628	2.090228	1.058149
N149	N	0.100615	1.340230	-0.308338
N150	N	0.350615	1.590230	-0.058338
N151	N	0.600615	1.840230	0.191662
N152	N	0.850615	2.090230	0.441662
C153	C	0.100624	1.340225	0.573820
C154	C	0.350624	1.590225	0.823820
C155	C	0.600624	1.840225	1.073820
C156	C	0.850624	2.090225	1.323820
C157	C	0.100628	1.340224	0.425982
C158	C	0.350628	1.590224	0.675982
C159	C	0.600628	1.840224	0.925982
C160	C	0.850628	2.090224	1.175982
H161	H	-0.125667	1.534787	-0.000173
H162	H	0.124333	1.784787	0.249827
H163	H	0.374333	2.034787	0.499827
H164	H	0.624333	2.284787	0.749827
Cl165	Cl	-0.277440	1.577041	-0.000150
Cl166	Cl	-0.027440	1.827041	0.249850
Cl167	Cl	0.222560	2.077041	0.499850
Cl168	Cl	0.472560	2.327041	0.749850
H169	H	-0.569739	1.524150	-0.000104
H170	H	-0.319739	1.774150	0.249896
H171	H	-0.069739	2.024150	0.499896
H172	H	0.180261	2.274150	0.749896
H173	H	-0.229017	1.156305	-0.000084
H174	H	0.020983	1.406305	0.249916
H175	H	0.270983	1.656305	0.499916
H176	H	0.520983	1.906305	0.749916
Cl177	Cl	-0.685701	1.099461	-0.000012
Cl178	Cl	-0.435701	1.349461	0.249988
Cl179	Cl	-0.185701	1.599461	0.499988
Cl180	Cl	0.064299	1.849461	0.749988
H181	H	-0.096881	1.159459	-0.000091
H182	H	0.153119	1.409459	0.249909
H183	H	0.403119	1.659459	0.499909
H184	H	0.653119	1.909459	0.749909
Cl185	Cl	-0.721510	1.566405	-0.000067
Cl186	Cl	-0.471510	1.816405	0.249933
Cl187	Cl	-0.221510	2.066405	0.499933
Cl188	Cl	0.028490	2.316405	0.749933
H189	H	-0.540957	1.148825	-0.000044
H190	H	-0.290957	1.398825	0.249956
H191	H	-0.040957	1.648825	0.499956
H192	H	0.209043	1.898825	0.749956
