data_functionalizedCrystal
_audit_creation_method	'MofGen! by Chris Wilmer'
_symmetry_space_group_name_H-M	'P1'
_symmetry_Int_Tables_number	1
_symmetry_cell_setting	triclinic
loop_
_symmetry_equiv_pos_as_xyz
  x,y,z
_cell_length_a	12.759401
_cell_length_b	18.215405
_cell_length_c	18.215399
_cell_angle_alpha	89.973526
_cell_angle_beta	89.983502
_cell_angle_gamma	90.022183
loop_
_atom_site_label
_atom_site_type_symbol
_atom_site_fract_x
_atom_site_fract_y
_atom_site_fract_z
Zn1	Zn	1.606181	-0.292989	-0.416058
Zn2	Zn	1.606059	-0.416060	-0.292995
Zn3	Zn	1.430489	-0.293012	-0.293012
Zn4	Zn	1.430449	-0.416018	-0.416027
O5	O	1.518295	-0.354520	-0.354523
O6	O	1.753186	-0.309322	-0.399739
O7	O	1.582735	-0.399765	-0.190013
O8	O	1.453863	-0.190025	-0.309355
O9	O	1.753096	-0.399742	-0.309325
O10	O	1.582943	-0.190008	-0.399756
O11	O	1.453745	-0.309362	-0.190026
O12	O	1.283463	-0.309322	-0.309325
O13	O	1.453795	-0.399671	-0.519015
O14	O	1.283434	-0.399694	-0.399703
O15	O	1.582904	-0.309282	-0.519038
O16	O	1.582696	-0.519039	-0.309295
O17	O	1.453677	-0.519008	-0.399686
C18	C	1.245327	-0.354506	-0.354513
C19	C	1.128551	-0.354518	-0.354526
C20	C	1.518197	-0.545726	-0.354501
C21	C	1.518252	-0.627525	-0.354517
C22	C	1.585527	-0.892516	-0.401660
C23	C	1.585491	-0.815657	-0.401649
C24	C	1.451197	-0.815782	-0.307428
C25	C	1.451239	-0.892640	-0.307436
C26	C	1.518402	-0.931004	-0.354556
C27	C	1.518325	-0.777288	-0.354537
C28	C	1.518286	-0.693955	-0.354525
C29	C	1.518442	-1.014343	-0.354568
C30	C	1.073701	-0.401650	-0.401508
C31	C	0.963977	-0.401660	-0.401516
C32	C	0.963962	-0.307403	-0.307554
C33	C	1.073684	-0.307390	-0.307550
C34	C	1.128568	-0.448778	-0.448484
C35	C	1.073718	-0.495915	-0.495470
C36	C	0.963994	-0.495924	-0.495478
C37	C	0.909119	-0.448797	-0.448500
C38	C	1.792328	-0.354534	-0.354533
C39	C	1.909105	-0.354540	-0.354538
C40	C	1.518359	-0.354469	-0.546476
C41	C	1.518386	-0.354447	-0.628275
C42	C	1.518421	-0.162567	-0.354561
C43	C	1.518475	-0.080768	-0.354577
C44	C	1.585637	-0.307338	-0.816482
C45	C	1.585650	-0.307316	-0.893341
C46	C	1.451209	-0.401443	-0.893306
C47	C	1.451192	-0.401461	-0.816448
C48	C	1.518412	-0.354409	-0.778039
C49	C	1.518442	-0.354370	-0.931755
C50	C	1.518455	-0.354347	-1.015088
C51	C	1.518398	-0.354431	-0.694700
C52	C	1.518291	-0.354517	-0.163317
C53	C	1.518468	-0.354332	-0.081518
H54	H	1.640211	-0.923750	-0.440031
H55	H	1.640370	-0.269023	-0.785211
C56	C	1.377240	-0.453243	-0.774155
C57	C	1.303309	-0.505005	-0.816400
C58	C	1.229358	-0.556782	-0.774106
C59	C	1.229337	-0.556798	-0.689566
C60	C	1.303271	-0.505034	-0.647315
C61	C	1.377222	-0.453257	-0.689610
H62	H	1.303322	-0.504995	-0.878986
H63	H	1.174628	-0.595101	-0.805383
H64	H	1.174594	-0.595126	-0.658257
H65	H	1.303258	-0.505043	-0.584730
H66	H	1.431952	-0.414938	-0.658333
C67	C	1.659601	-0.255538	-0.935629
C68	C	1.733535	-0.203784	-0.893376
C69	C	1.807487	-0.152002	-0.935664
C70	C	1.807506	-0.151974	-1.020204
C71	C	1.733569	-0.203730	-1.062461
C72	C	1.659617	-0.255512	-1.020174
H73	H	1.733523	-0.203803	-0.830790
H74	H	1.862220	-0.113689	-0.904382
H75	H	1.862249	-0.113642	-1.051508
H76	H	1.733580	-0.203711	-1.125047
H77	H	1.604884	-0.293825	-1.051456
C78	C	1.377285	-0.453204	-0.935565
C79	C	1.422804	-0.510968	-0.988389
C80	C	1.348885	-0.562733	-1.030649
C81	C	1.229447	-0.556733	-1.020084
C82	C	1.183922	-0.498967	-0.967257
C83	C	1.257842	-0.447202	-0.924998
H84	H	1.511224	-0.515412	-0.996212
H85	H	1.382586	-0.605496	-1.069755
H86	H	1.174728	-0.595053	-1.051368
H87	H	1.095502	-0.494523	-0.959435
H88	H	1.224140	-0.404440	-0.885892
H89	H	1.640152	-0.784322	-0.440004
H90	H	1.396513	-0.784538	-0.269065
C91	C	1.377393	-0.934983	-0.255621
C92	C	1.303505	-0.892787	-0.203798
C93	C	1.229665	-0.935131	-0.151984
C94	C	1.229714	-1.019671	-0.151993
C95	C	1.303605	-1.061872	-0.203817
C96	C	1.377444	-1.019528	-0.255631
H97	H	1.303466	-0.830201	-0.203790
H98	H	1.174966	-0.903891	-0.113620
H99	H	1.175054	-1.051017	-0.113637
H100	H	1.303644	-1.124458	-0.203825
H101	H	1.432143	-1.050768	-0.293996
H102	H	1.217910	-0.448777	-0.448482
H103	H	1.118403	-0.534279	-0.533721
H104	H	0.919338	-0.534300	-0.533741
C105	C	0.903604	-0.255569	-0.255878
C106	C	0.963937	-0.203721	-0.204199
C107	C	0.903580	-0.151888	-0.152522
C108	C	0.782890	-0.151902	-0.152523
C109	C	0.722550	-0.203751	-0.204205
C110	C	0.782907	-0.255585	-0.255882
H111	H	1.053285	-0.203709	-0.204196
H112	H	0.948248	-0.113505	-0.114264
H113	H	0.738210	-0.113531	-0.114269
H114	H	0.633202	-0.203763	-0.204208
H115	H	0.738239	-0.293967	-0.294140
H116	H	0.819775	-0.448802	-0.448517
C117	C	1.134034	-0.255543	-0.255876
C118	C	1.118980	-0.171891	-0.262038
C119	C	1.179333	-0.120039	-0.210369
C120	C	1.254739	-0.151838	-0.152537
C121	C	1.269796	-0.235494	-0.146372
C122	C	1.209444	-0.287347	-0.198042
H123	H	1.063156	-0.148348	-0.304850
H124	H	1.168186	-0.058111	-0.214933
H125	H	1.299416	-0.113454	-0.114288
H126	H	1.325620	-0.259038	-0.103560
H127	H	1.220590	-0.349275	-0.193478
