data_functionalizedCrystal
_audit_creation_method	'MofGen! by Chris Wilmer'
_symmetry_space_group_name_H-M	'P1'
_symmetry_Int_Tables_number	1
_symmetry_cell_setting	triclinic
loop_
_symmetry_equiv_pos_as_xyz
  x,y,z
_cell_length_a	10.489741
_cell_length_b	10.489741
_cell_length_c	8.965430
_cell_angle_alpha	89.999293
_cell_angle_beta	89.998843
_cell_angle_gamma	95.460826
loop_
_atom_site_label
_atom_site_type_symbol
_atom_site_fract_x
_atom_site_fract_y
_atom_site_fract_z
O1	O	1.694053	-0.179958	-0.123946
O2	O	1.322858	-0.196851	-0.123969
O3	O	1.516902	-0.002807	-0.123948
O4	O	1.500009	-0.374003	-0.123967
O5	O	1.516886	-0.002820	0.124130
O6	O	1.322841	-0.196864	0.124110
O7	O	1.694037	-0.179971	0.124133
Cu8	Cu	1.508438	-0.188419	0.146773
Cu9	Cu	1.508457	-0.188404	-0.146609
O10	O	1.499993	-0.374016	0.124112
C11	C	1.275318	-0.195582	0.000067
C12	C	1.133688	-0.191765	0.000059
C13	C	1.065548	-0.068300	0.000079
C14	C	0.973430	-0.126617	-0.122237
C15	C	0.973447	-0.126659	0.122349
C16	C	1.043435	-0.250133	-0.122358
C17	C	1.043462	-0.250158	0.122338
C18	C	0.951371	-0.308564	-0.000007
C19	C	1.515618	0.044718	0.000090
C20	C	1.511801	0.186348	0.000087
C21	C	1.741577	-0.181241	0.000093
C22	C	1.883206	-0.185058	0.000092
C23	C	1.501277	-0.421541	0.000070
C24	C	1.505094	-0.563170	0.000063
N25	N	1.508433	-0.188429	0.353122
C26	C	1.388336	0.254488	0.000069
C27	C	1.446652	0.346604	0.122388
C28	C	1.446697	0.346591	-0.122198
C29	C	1.570167	0.276599	0.122508
C30	C	1.570195	0.276576	-0.122189
C31	C	1.628600	0.368665	0.000161
N32	N	1.508471	-0.188384	-0.352958
C33	C	1.418666	-0.278138	0.450418
C34	C	1.534163	-0.303949	0.549838
C35	C	1.392986	-0.162629	0.549830
C36	C	1.623988	-0.214298	0.450352
C37	C	1.482735	-0.072927	0.450336
C38	C	1.598314	-0.098690	0.549711
H39	H	0.901947	-0.410168	-0.000079
H40	H	1.674327	-0.022803	0.593034
O41	O	1.253880	0.188702	0.000231
H42	H	1.257920	0.083354	-0.000809
H43	H	1.074502	-0.302361	0.225749
H44	H	1.460937	0.024699	0.406596
H45	H	1.074270	-0.302327	-0.225883
O46	O	0.932409	-0.057445	0.259332
H47	H	0.866178	-0.123304	0.326572
H48	H	1.295338	-0.140828	0.593530
O49	O	1.377456	0.387672	0.259370
H50	H	1.293267	0.437156	0.224920
O51	O	1.131261	0.066186	-0.000061
H52	H	1.192653	0.080286	-0.100665
O53	O	0.932330	-0.057420	-0.259202
H54	H	0.978469	0.042296	-0.258947
H55	H	1.622355	0.245761	0.226035
H56	H	1.555925	-0.401606	0.593543
O57	O	1.763176	0.434155	0.000249
H58	H	1.814094	0.406118	0.101884
O59	O	1.639347	0.235439	-0.259159
H60	H	1.587909	0.263165	-0.360554
O61	O	1.377495	0.387637	-0.259186
H62	H	1.277791	0.341470	-0.258922
H63	H	1.342824	-0.354072	0.406821
H64	H	1.721659	-0.236216	0.406840
