data_functionalizedCrystal
_audit_creation_method	'MofGen! by Chris Wilmer'
_symmetry_space_group_name_H-M	'P1'
_symmetry_Int_Tables_number	1
_symmetry_cell_setting	triclinic
loop_
_symmetry_equiv_pos_as_xyz
  x,y,z
_cell_length_a	17.019372
_cell_length_b	17.038272
_cell_length_c	9.798715
_cell_angle_alpha	89.996584
_cell_angle_beta	93.872736
_cell_angle_gamma	87.242864
loop_
_atom_site_label
_atom_site_type_symbol
_atom_site_fract_x
_atom_site_fract_y
_atom_site_fract_z
O1	O	1.053348	0.099573	0.010195
O2	O	0.824539	0.112280	-0.016676
O3	O	0.937584	-0.007888	-0.003390
O4	O	0.940304	0.219741	-0.003092
O5	O	0.937575	-0.007888	0.223592
O6	O	0.824530	0.112280	0.210305
O7	O	1.053339	0.099573	0.237176
Zn8	Zn	0.938933	0.105926	0.259779
Zn9	Zn	0.938945	0.105927	-0.039279
O10	O	0.940295	0.219741	0.223889
C11	C	0.795113	0.111799	0.093360
C12	C	0.707447	0.110357	0.083065
C13	C	0.211628	0.102174	0.018541
C14	C	0.294000	0.103529	0.028233
C15	C	0.335172	0.104212	0.156807
C16	C	0.293969	0.103532	0.275698
C17	C	0.211600	0.102172	0.266005
C18	C	0.583875	0.108316	0.192263
C19	C	0.666250	0.109679	0.201947
C20	C	0.666275	0.109674	-0.045519
C21	C	0.583903	0.108318	-0.055201
C22	C	0.542708	0.107634	0.063690
C23	C	0.419369	0.105600	0.166716
C24	C	0.458513	0.106241	0.053779
C25	C	0.935106	-0.037014	0.109810
C26	C	0.927725	-0.123800	0.108943
C27	C	0.995485	-0.173974	0.116902
C28	C	0.988545	-0.255519	0.116074
C29	C	0.913846	-0.286887	0.107297
C30	C	0.846082	-0.236707	0.099334
C31	C	0.853022	-0.155164	0.100152
C32	C	0.889329	-0.532624	0.104399
C33	C	0.882394	-0.614173	0.103586
C34	C	1.024858	-0.632979	0.120324
C35	C	1.031791	-0.551434	0.121149
C36	C	0.964027	-0.501260	0.113179
C37	C	0.906751	-0.370239	0.106455
C38	C	0.971122	-0.417911	0.114011
C39	C	1.082765	0.100054	0.127137
C40	C	1.170431	0.101496	0.137423
C41	C	0.942773	0.248867	0.110686
C42	C	0.950153	0.335653	0.111545
N43	N	0.938931	0.105926	0.463878
N44	N	0.938953	0.105921	-0.243377
C45	C	0.986382	0.055250	0.537232
C46	C	0.986395	0.055248	0.694396
H47	H	1.056312	-0.148441	0.124058
H48	H	1.043722	-0.296368	0.122558
H49	H	0.424987	0.105682	-0.050905
H50	H	0.178111	0.101623	-0.086158
O51	O	0.706211	0.110228	-0.161100
C52	C	0.690503	0.042208	-0.238193
H53	H	0.632161	0.018657	-0.209865
H54	H	0.739940	-0.004414	-0.215221
C55	C	0.757031	0.091624	-0.426496
C56	C	0.685370	0.062702	-0.391712
H57	H	0.753869	0.104264	-0.521194
H58	H	0.767617	0.137450	-0.374556
H59	H	0.798221	0.052767	-0.407342
H60	H	0.644184	0.101562	-0.410850
H61	H	0.674777	0.016884	-0.443659
O62	O	0.459341	0.106129	0.291642
C63	C	0.443589	0.038135	0.365099
H64	H	0.424018	-0.009544	0.290418
H65	H	0.394781	0.052653	0.436516
C66	C	0.542787	0.067220	0.541474
C67	C	0.518756	0.008657	0.449748
H68	H	0.589152	0.049037	0.593695
H69	H	0.553398	0.113030	0.491987
H70	H	0.502107	0.079312	0.600975
H71	H	0.559432	-0.003428	0.390239
H72	H	0.508154	-0.037157	0.499227
O73	O	0.543766	0.107752	0.307644
C74	C	0.491729	0.174645	0.308941
H75	H	0.477936	0.197007	0.199890
H76	H	0.520380	0.222559	0.373378
C77	C	0.431754	0.125315	0.504561
C78	C	0.414809	0.152778	0.370621
H79	H	0.384308	0.111829	0.542614
H80	H	0.466814	0.080250	0.503692
H81	H	0.455632	0.165249	0.558242
H82	H	0.390941	0.112841	0.316939
H83	H	0.379743	0.197836	0.371483
O84	O	1.104415	-0.521095	0.129627
C85	C	1.162735	-0.582867	0.136514
H86	H	1.136912	-0.638233	0.090495
H87	H	1.183886	-0.594438	0.247896
C88	C	1.264465	-0.491917	0.112263
C89	C	1.232752	-0.559918	0.055731
H90	H	1.307657	-0.477761	0.062439
H91	H	1.225175	-0.450299	0.107628
H92	H	1.282085	-0.501569	0.205080
H93	H	1.215124	-0.550262	-0.037078
H94	H	1.272041	-0.601534	0.060349
O95	O	1.090599	-0.681829	0.127984
C96	C	1.068461	-0.760528	0.125414
H97	H	1.006298	-0.763582	0.075144
H98	H	1.069866	-0.784119	0.234472
C99	C	1.202702	-0.806749	0.104935
C100	C	1.126354	-0.810500	0.043182
H101	H	1.238415	-0.837576	0.054216
H102	H	1.217618	-0.753728	0.106671
H103	H	1.203862	-0.826407	0.195814
H104	H	1.125193	-0.790833	-0.047690
H105	H	1.111439	-0.863519	0.041428
H106	H	0.699770	0.110241	0.306653
H107	H	0.327539	0.104076	-0.068573
H108	H	0.845931	-0.395788	0.099312
H109	H	0.898312	0.149306	0.517428
O110	O	0.333867	0.104297	0.400673
C111	C	0.309346	0.171651	0.473036
H112	H	0.248079	0.193225	0.430639
H113	H	0.352628	0.219807	0.460973
C114	C	0.382104	0.124536	0.677723
C115	C	0.306852	0.151029	0.625657
H116	H	0.380568	0.111817	0.771867
H117	H	0.398627	0.079159	0.628970
H118	H	0.418164	0.164670	0.667658
H119	H	0.270795	0.110891	0.635706
H120	H	0.290322	0.196398	0.674415
O121	O	0.171552	0.101376	0.381448
C122	C	0.128288	0.032921	0.383755
H123	H	0.156194	-0.013971	0.316830
H124	H	0.064872	0.047188	0.343048
C125	C	0.094725	0.059808	0.613865
C126	C	0.129003	0.002213	0.531676
H127	H	0.095162	0.040867	0.705110
H128	H	0.123869	0.105929	0.612311
H129	H	0.041880	0.071692	0.579927
H130	H	0.181849	-0.009663	0.565605
H131	H	0.099867	-0.043911	0.533241
H132	H	1.026996	0.011864	0.483683
O133	O	0.809767	-0.644515	0.094977
C134	C	0.751443	-0.582747	0.088145
H135	H	0.777273	-0.527374	0.048213
H136	H	0.730264	-0.571187	0.194547
C137	C	0.649727	-0.673699	0.039937
C138	C	0.681450	-0.605690	-0.009119
H139	H	0.606550	-0.687851	-0.020055
H140	H	0.689020	-0.715314	0.044544
H141	H	0.632084	-0.664057	0.128605
H142	H	0.699101	-0.615336	-0.097778
H143	H	0.642158	-0.564077	-0.013744
O144	O	0.823564	-0.483811	0.096854
C145	C	0.823299	-0.436095	0.214393
H146	H	0.886181	-0.432045	0.260972
H147	H	0.785469	-0.462881	0.292268
C148	C	0.711935	-0.358234	0.117461
C149	C	0.789169	-0.353255	0.174664
H150	H	0.690879	-0.307135	0.092957
H151	H	0.712111	-0.390383	0.038274
H152	H	0.680420	-0.380559	0.182366
H153	H	0.820685	-0.330940	0.109753
H154	H	0.788998	-0.321101	0.253839
O155	O	0.773475	-0.267082	0.090980
C156	C	0.731838	-0.241453	0.203661
H157	H	0.757130	-0.184924	0.245826
H158	H	0.737799	-0.288653	0.286678
C159	C	0.613073	-0.295488	0.105857
C160	C	0.644133	-0.226054	0.157638
H161	H	0.558972	-0.285992	0.077471
H162	H	0.641125	-0.312758	0.029944
H163	H	0.618048	-0.334815	0.175047
H164	H	0.639166	-0.186732	0.088443
H165	H	0.616078	-0.208778	0.233538
H166	H	1.031942	-0.392367	0.121127
O167	O	0.787281	-0.106311	0.092375
C168	C	0.809423	-0.027613	0.095009
H169	H	0.871590	-0.024559	0.059341
H170	H	0.808010	-0.004030	0.203738
C171	C	0.675187	0.018617	0.043002
C172	C	0.751539	0.022369	-0.000817
H173	H	0.639480	0.049450	-0.016102
H174	H	0.660268	-0.034403	0.041232
H175	H	0.674020	0.038268	0.133610
H176	H	0.752707	0.002709	-0.091416
H177	H	0.766457	0.075387	0.000935
H178	H	0.550386	0.107761	-0.159900
H179	H	1.027023	0.011865	0.757456
H180	H	0.898329	0.149311	0.693571
