data_functionalizedCrystal
_audit_creation_method	'MofGen! by Chris Wilmer'
_symmetry_space_group_name_H-M	'P1'
_symmetry_Int_Tables_number	1
_symmetry_cell_setting	triclinic
loop_
_symmetry_equiv_pos_as_xyz
  x,y,z
_cell_length_a	14.044191
_cell_length_b	14.971486
_cell_length_c	13.448316
_cell_angle_alpha	90.006811
_cell_angle_beta	89.995859
_cell_angle_gamma	91.597047
loop_
_atom_site_label
_atom_site_type_symbol
_atom_site_fract_x
_atom_site_fract_y
_atom_site_fract_z
O1	O	1.257956	-0.215694	-0.082644
O2	O	0.981977	-0.207905	-0.082657
O3	O	1.127363	-0.082182	-0.082643
O4	O	1.112570	-0.341417	-0.082658
O5	O	1.127345	-0.082172	0.082740
O6	O	0.981959	-0.207895	0.082727
O7	O	1.257937	-0.215684	0.082739
Cu8	Cu	1.119947	-0.211789	0.097834
Cu9	Cu	1.119968	-0.211800	-0.097752
O10	O	1.112551	-0.341407	0.082726
C11	C	0.946650	-0.204493	0.000033
C12	C	0.841412	-0.194329	0.000029
C13	C	0.591187	-0.247831	0.000036
C14	C	0.648734	-0.175762	0.000038
C15	C	0.755950	-0.186095	0.000033
C16	C	0.483960	-0.237499	0.000041
C17	C	1.126693	-0.048800	0.000048
C18	C	1.124710	0.050653	0.000047
C19	C	1.293265	-0.219096	0.000047
C20	C	1.398502	-0.229260	0.000045
C21	C	1.113222	-0.374788	0.000032
C22	C	1.115205	-0.474242	0.000026
N23	N	1.119938	-0.211780	0.235398
C24	C	1.210121	0.101148	0.000052
C25	C	1.208252	0.194594	0.000042
C26	C	1.120972	0.237545	0.000034
C27	C	1.035555	0.187043	0.000027
C28	C	1.037425	0.093598	0.000030
C29	C	1.031664	0.381812	0.000023
C30	C	1.029794	0.475263	0.000022
C31	C	1.202492	0.482808	0.000035
C32	C	1.204361	0.389364	0.000038
C33	C	1.118944	0.338868	0.000032
N34	N	1.119984	-0.211802	-0.235316
C35	C	1.184335	-0.156137	0.287445
C36	C	1.184341	-0.156137	0.391548
C37	C	1.119954	-0.211785	0.443603
C38	C	1.055550	-0.267431	0.391549
C39	C	1.055540	-0.267426	0.287448
C40	C	1.055576	-0.267439	0.608529
C41	C	1.055587	-0.267446	0.712638
C42	C	1.184377	-0.156150	0.712629
C43	C	1.184368	-0.156145	0.608528
C44	C	1.119965	-0.211792	0.556481
H45	H	0.622439	-0.317285	0.000029
Cl46	Cl	0.600484	-0.068520	0.000043
H47	H	1.272042	0.523926	0.000037
H48	H	1.281194	0.066185	0.000064
Cl49	Cl	0.920069	0.529257	0.000013
H50	H	1.003101	-0.312735	0.245072
Cl51	Cl	0.925831	0.241038	0.000005
Cl52	Cl	0.924280	0.318334	0.000015
Cl53	Cl	1.315630	0.258070	0.000051
H54	H	1.236816	-0.110840	0.755012
H55	H	0.967874	0.052486	0.000026
H56	H	1.275432	0.354396	0.000051
H57	H	1.236771	-0.110826	0.245068
H58	H	1.236777	-0.110827	0.433924
H59	H	1.236801	-0.110836	0.566145
H60	H	1.003155	-0.312759	0.755016
Cl61	Cl	0.974608	-0.337395	0.543103
Cl62	Cl	0.974600	-0.337386	0.456987
