data_functionalizedCrystal
_audit_creation_method	'MofGen! by Chris Wilmer'
_symmetry_space_group_name_H-M	'P1'
_symmetry_Int_Tables_number	1
_symmetry_cell_setting	triclinic
loop_
_symmetry_equiv_pos_as_xyz
  x,y,z
_cell_length_a	6.817900
_cell_length_b	9.582889
_cell_length_c	14.858340
_cell_angle_alpha	92.657508
_cell_angle_beta	104.519754
_cell_angle_gamma	111.207298
loop_
_atom_site_label
_atom_site_type_symbol
_atom_site_fract_x
_atom_site_fract_y
_atom_site_fract_z
V1	V	-4.078396	-0.208010	-0.289789
V2	V	-3.828396	0.041990	-0.039789
V3	V	-3.578396	0.291990	0.210211
V4	V	-3.328396	0.541990	0.460211
O5	O	-4.023831	0.009014	-0.284448
O6	O	-3.773831	0.259014	-0.034448
O7	O	-3.523831	0.509014	0.215552
O8	O	-3.273831	0.759014	0.465552
O9	O	-4.069084	-0.411503	-0.287639
O10	O	-3.819084	-0.161503	-0.037639
O11	O	-3.569084	0.088497	0.212361
O12	O	-3.319084	0.338497	0.462361
O13	O	-4.034483	-0.205241	-0.416253
O14	O	-3.784483	0.044759	-0.166253
O15	O	-3.534483	0.294759	0.083747
O16	O	-3.284483	0.544759	0.333747
O17	O	-4.058671	-0.198677	-0.154943
O18	O	-3.808671	0.051323	0.095057
O19	O	-3.558671	0.301323	0.345057
O20	O	-3.308671	0.551323	0.595057
V21	V	-4.556377	-0.182000	-0.273681
V22	V	-4.306377	0.068000	-0.023681
V23	V	-4.056377	0.318000	0.226319
V24	V	-3.806377	0.568000	0.476319
O25	O	-4.351810	-0.265063	-0.325124
O26	O	-4.101810	-0.015063	-0.075124
O27	O	-3.851810	0.234937	0.174876
O28	O	-3.601810	0.484937	0.424876
O29	O	-4.733161	-0.124946	-0.238346
O30	O	-4.483161	0.125054	0.011654
O31	O	-4.233161	0.375054	0.261654
O32	O	-3.983161	0.625054	0.511654
O33	O	-4.342483	0.021494	-0.275832
O34	O	-4.092483	0.271494	-0.025832
O35	O	-3.842483	0.521494	0.224168
O36	O	-3.592483	0.771494	0.474168
O37	O	-4.728339	-0.399023	-0.279022
O38	O	-4.478339	-0.149023	-0.029022
O39	O	-4.228339	0.100977	0.220978
O40	O	-3.978339	0.350977	0.470978
O41	O	-4.693499	-0.191333	-0.408527
O42	O	-4.443499	0.058667	-0.158527
O43	O	-4.193499	0.308667	0.091473
O44	O	-3.943499	0.558667	0.341473
O45	O	-4.377084	-0.184769	-0.147217
O46	O	-4.127084	0.065231	0.102783
O47	O	-3.877084	0.315231	0.352783
O48	O	-3.627084	0.565231	0.602783
C49	C	-3.923448	-0.461097	-0.283024
C50	C	-3.673448	-0.211097	-0.033024
C51	C	-3.423448	0.038903	0.216976
C52	C	-3.173448	0.288903	0.466976
C53	C	-3.997151	-0.627459	-0.282108
C54	C	-3.747151	-0.377459	-0.032108
C55	C	-3.497151	-0.127459	0.217892
C56	C	-3.247151	0.122541	0.467892
C57	C	-3.879310	-0.197987	-0.447083
C58	C	-3.629310	0.052013	-0.197083
C59	C	-3.379310	0.302013	0.052917
C60	C	-3.129310	0.552013	0.302917
C61	C	-3.924948	-0.197070	-0.550467
C62	C	-3.674948	0.052930	-0.300467
C63	C	-3.424948	0.302930	-0.050467
C64	C	-3.174948	0.552930	0.199533
C65	C	-3.962009	-0.196323	-0.634426
C66	C	-3.712009	0.053677	-0.384426
C67	C	-3.462009	0.303677	-0.134426
C68	C	-3.212009	0.553677	0.115574
C69	C	-4.008517	-0.195380	-0.739756
C70	C	-3.758517	0.054620	-0.489756
C71	C	-3.508517	0.304620	-0.239756
C72	C	-3.258517	0.554620	0.010244
C73	C	-4.045601	-0.194629	-0.823708
C74	C	-3.795601	0.055371	-0.573708
C75	C	-3.545601	0.305371	-0.323708
C76	C	-3.295601	0.555371	-0.073708
C77	C	-4.092115	-0.193689	-0.929045
C78	C	-3.842115	0.056311	-0.679045
C79	C	-3.592115	0.306311	-0.429045
C80	C	-3.342115	0.556311	-0.179045
C81	C	-4.151462	0.071080	-0.280444
C82	C	-3.901462	0.321080	-0.030444
C83	C	-3.651462	0.571080	0.219556
C84	C	-3.401462	0.821080	0.469556
C85	C	-4.056998	0.237440	-0.281365
C86	C	-3.806998	0.487440	-0.031365
C87	C	-3.556998	0.737440	0.218635
C88	C	-3.306998	0.987440	0.468635
C89	C	-4.195600	-0.192028	-0.116382
C90	C	-3.945600	0.057972	0.133618
C91	C	-3.695600	0.307972	0.383618
C92	C	-3.445600	0.557972	0.633618
C93	C	-4.129198	-0.192937	-0.012998
C94	C	-3.879198	0.057063	0.237002
C95	C	-3.629198	0.307063	0.487002
C96	C	-3.379198	0.557063	0.737002
