data_functionalizedCrystal
_audit_creation_method	'MofGen! by Chris Wilmer'
_symmetry_space_group_name_H-M	'P1'
_symmetry_Int_Tables_number	1
_symmetry_cell_setting	triclinic
loop_
_symmetry_equiv_pos_as_xyz
  x,y,z
_cell_length_a	14.853567
_cell_length_b	13.930277
_cell_length_c	14.853567
_cell_angle_alpha	89.999243
_cell_angle_beta	96.365070
_cell_angle_gamma	90.004245
loop_
_atom_site_label
_atom_site_type_symbol
_atom_site_fract_x
_atom_site_fract_y
_atom_site_fract_z
O1	O	1.196368	0.079756	-0.117704
O2	O	0.933909	0.079772	-0.131725
O3	O	1.072149	0.079767	0.006516
O4	O	1.058128	0.079762	-0.255944
O5	O	1.072130	-0.079895	0.006519
O6	O	0.933890	-0.079890	-0.131722
O7	O	1.196349	-0.079905	-0.117701
Zn8	Zn	1.065116	-0.105247	-0.124711
Zn9	Zn	1.065142	0.105114	-0.124715
O10	O	1.058109	-0.079900	-0.255941
C11	C	0.900311	-0.000057	-0.131088
C12	C	0.800227	-0.000051	-0.129184
N13	N	1.065106	-0.248814	-0.124708
C14	C	0.387693	-0.000070	-0.039019
C15	C	0.366412	-0.000073	-0.203251
C16	C	0.460446	-0.000070	-0.205042
C17	C	0.518108	-0.000066	-0.123819
C18	C	0.481736	-0.000065	-0.040806
C19	C	0.496825	-0.000061	-0.288053
C20	C	0.590864	-0.000057	-0.289846
C21	C	0.648528	-0.000060	-0.208623
C22	C	0.612150	-0.000060	-0.125607
C23	C	0.669812	-0.000056	-0.044384
C24	C	0.633437	-0.000063	0.038633
C25	C	0.539399	-0.000067	0.040417
C26	C	0.742565	-0.000055	-0.210407
C27	C	0.763855	-0.000050	-0.046172
C28	C	1.003926	-0.701081	-0.185904
C29	C	1.126382	-0.701055	-0.063519
C30	C	1.126371	-0.600559	-0.063516
C31	C	1.065138	-0.550319	-0.124709
C32	C	1.003916	-0.600576	-0.185904
C33	C	1.187598	-0.550295	-0.002328
C34	C	1.187591	-0.449793	-0.002323
C35	C	1.126353	-0.399552	-0.063512
C36	C	1.065127	-0.449814	-0.124710
C37	C	1.003894	-0.399575	-0.185902
C38	C	0.942664	-0.449835	-0.247096
C39	C	0.942677	-0.550334	-0.247094
C40	C	1.126339	-0.299053	-0.063515
C41	C	1.003883	-0.299070	-0.185903
C42	C	1.229947	-0.000075	-0.118337
C43	C	1.330031	-0.000075	-0.120241
C44	C	1.071504	-0.000061	0.040106
C45	C	1.069601	-0.000053	0.140189
N46	N	1.065160	0.248680	-0.124711
C47	C	1.058754	-0.000070	-0.289531
C48	C	1.060657	-0.000072	-0.389615
C49	C	0.979435	-0.000066	0.552723
C50	C	1.143668	-0.000076	0.574004
C51	C	1.145458	-0.000070	0.479971
C52	C	1.064235	-0.000064	0.422309
C53	C	0.981223	-0.000063	0.458680
C54	C	1.228469	-0.000080	0.443591
C55	C	1.230262	-0.000076	0.349552
C56	C	1.149039	-0.000063	0.291889
C57	C	1.066023	-0.000061	0.328266
C58	C	0.984800	-0.000055	0.270604
C59	C	0.901783	-0.000047	0.306979
C60	C	0.899999	-0.000050	0.401017
C61	C	1.150823	-0.000059	0.197851
C62	C	0.986588	-0.000052	0.176561
H63	H	0.810798	-0.000050	0.019971
H64	H	0.680397	-0.000053	0.104764
H65	H	0.509774	-0.000096	0.108005
C66	C	1.193683	-0.243771	0.003789
H67	H	1.230151	-0.288085	0.040235
H68	H	1.231240	-0.204553	-0.028712
H69	H	1.161200	-0.204578	0.041385
H70	H	0.620472	-0.000051	-0.357443
H71	H	0.920445	-0.000043	0.129618
C72	C	0.347685	-0.000074	0.052293
H73	H	0.283422	-0.000073	0.041730
H74	H	0.367473	-0.055748	0.085743
H75	H	0.367469	0.055614	0.085735
H76	H	1.237457	-0.591203	0.047489
C77	C	0.875303	-0.605617	-0.314373
H78	H	0.838817	-0.561305	-0.350803
H79	H	0.907751	-0.644832	-0.351974
H80	H	0.837754	-0.644813	-0.281835
C81	C	0.302988	-0.000079	-0.292588
H82	H	0.241773	-0.000088	-0.279634
H83	H	0.314027	0.055595	-0.326628
H84	H	0.314024	-0.055767	-0.326615
H85	H	0.449870	-0.000054	-0.354180
C86	C	0.875312	-0.394570	-0.314409
H87	H	0.838851	-0.438891	-0.350858
H88	H	0.837749	-0.355365	-0.281909
H89	H	0.907795	-0.355365	-0.352000
C90	C	0.782576	-0.000044	-0.301713
H91	H	0.734766	-0.000048	-0.349830
H92	H	0.818821	0.055635	-0.305820
H93	H	0.818813	-0.055728	-0.305828
C94	C	0.936527	-0.243814	-0.253218
H95	H	0.900071	-0.288142	-0.289664
H96	H	0.898960	-0.204611	-0.220721
H97	H	0.969004	-0.204608	-0.290814
C98	C	1.317807	-0.000087	0.507014
H99	H	1.367503	-0.000100	0.471884
H100	H	1.320529	0.055592	0.544139
H101	H	1.320513	-0.055770	0.544140
C102	C	0.936581	-0.756361	-0.253214
H103	H	0.945356	-0.823410	-0.244456
H104	H	0.876403	-0.739898	-0.243315
H105	H	0.946450	-0.739887	-0.313404
C106	C	1.193733	-0.756315	0.003787
H107	H	1.184968	-0.823367	-0.004975
H108	H	1.253909	-0.739831	-0.006110
H109	H	1.183859	-0.739851	0.063977
H110	H	1.297860	-0.000082	0.319944
H111	H	1.209795	-0.000088	0.620958
H112	H	0.835652	-0.000048	0.260019
C113	C	1.254932	-0.394515	0.064994
H114	H	1.291396	-0.438831	0.101441
H115	H	1.292494	-0.355296	0.032500
H116	H	1.222443	-0.355325	0.102586
C117	C	0.888121	-0.000052	0.592726
H118	H	0.840007	-0.000040	0.544914
H119	H	0.883996	-0.055725	0.628972
H120	H	0.884020	0.055637	0.628963
H121	H	0.832411	-0.000044	0.430643
C122	C	1.242129	-0.000071	0.157841
H123	H	1.290246	-0.000074	0.205650
H124	H	1.246230	-0.055746	0.121594
H125	H	1.246251	0.055616	0.121605
