data_functionalizedCrystal
_audit_creation_method	'MofGen! by Chris Wilmer'
_symmetry_space_group_name_H-M	'P1'
_symmetry_Int_Tables_number	1
_symmetry_cell_setting	triclinic
loop_
_symmetry_equiv_pos_as_xyz
  x,y,z
_cell_length_a	16.959455
_cell_length_b	25.639240
_cell_length_c	16.959447
_cell_angle_alpha	90.040258
_cell_angle_beta	90.014322
_cell_angle_gamma	90.029705
loop_
_atom_site_label
_atom_site_type_symbol
_atom_site_fract_x
_atom_site_fract_y
_atom_site_fract_z
Zn1	Zn	1.208314	-0.208183	0.446854
Zn2	Zn	1.208207	-0.295624	0.314653
Zn3	Zn	1.076143	-0.208199	0.314692
Zn4	Zn	1.076078	-0.295585	0.446791
O5	O	1.142185	-0.251898	0.380747
O6	O	1.318911	-0.219792	0.429327
O7	O	1.190671	-0.284050	0.204047
O8	O	1.093747	-0.135032	0.332266
O9	O	1.318832	-0.284034	0.332199
O10	O	1.190853	-0.135020	0.429365
O11	O	1.093644	-0.219820	0.204075
O12	O	0.965523	-0.219782	0.332205
O13	O	1.093637	-0.283967	0.557410
O14	O	0.965476	-0.283983	0.429258
O15	O	1.190790	-0.219754	0.557457
O16	O	1.190608	-0.368784	0.332138
O17	O	1.093533	-0.368755	0.429220
C18	C	0.936819	-0.251880	0.380729
C19	C	0.848963	-0.251886	0.380740
C20	C	0.477487	-0.218441	0.330317
C21	C	0.477487	-0.285398	0.431222
C22	C	0.560033	-0.285390	0.431218
C23	C	0.601310	-0.251908	0.380761
C24	C	0.560041	-0.218433	0.330309
C25	C	0.601308	-0.318868	0.481663
C26	C	0.683859	-0.318863	0.481659
C27	C	0.725137	-0.285377	0.431206
C28	C	0.683863	-0.251901	0.380753
C29	C	0.725140	-0.218418	0.330297
C30	C	0.683868	-0.184939	0.279847
C31	C	0.601319	-0.184948	0.279856
C32	C	0.807686	-0.285368	0.431197
C33	C	0.807694	-0.218411	0.330288
C34	C	1.142074	-0.387740	0.380685
C35	C	1.142098	-0.445854	0.380685
C36	C	1.192774	-0.806173	0.431398
C37	C	1.192797	-0.860777	0.431414
O38	O	1.235750	-0.888976	0.474468
N39	N	1.142295	-0.888137	0.380824
C40	C	1.091761	-0.860889	0.330220
O41	O	1.048807	-0.889175	0.287190
C42	C	1.091734	-0.806286	0.330208
C43	C	1.142245	-0.778929	0.380796
C44	C	1.243280	-0.778816	0.481983
C45	C	1.243257	-0.724215	0.481965
C46	C	1.192729	-0.696972	0.431364
C47	C	1.142223	-0.724329	0.380779
C48	C	1.041197	-0.779040	0.279609
C49	C	1.041174	-0.724433	0.279602
C50	C	1.091685	-0.697076	0.330190
C51	C	1.091672	-0.642485	0.330160
N52	N	1.142173	-0.615125	0.380750
C53	C	1.192702	-0.642368	0.431352
C54	C	1.091820	-0.975560	0.330249
C55	C	1.091850	-1.030162	0.330255
C56	C	1.192885	-1.030046	0.431451
C57	C	1.192858	-0.975443	0.431440
C58	C	1.142322	-0.948200	0.380839
C59	C	1.192651	-0.527703	0.431311
C60	C	1.192627	-0.473098	0.431287
C61	C	1.091589	-0.473219	0.330095
C62	C	1.091616	-0.527819	0.330116
C63	C	1.142150	-0.555060	0.380730
O64	O	1.048738	-0.614251	0.287130
O65	O	1.235641	-0.614076	0.474381
C66	C	1.348354	-0.251915	0.380766
C67	C	1.436210	-0.251923	0.380774
C68	C	1.142218	-0.251854	0.586916
C69	C	1.142232	-0.251836	0.674772
C70	C	1.142319	-0.115525	0.380827
C71	C	1.142376	-0.057411	0.380861
C72	C	1.142198	-0.251903	0.175381
C73	C	1.142337	-0.251774	0.087525
C74	C	1.091744	-0.285214	1.046227
C75	C	1.192910	-0.218348	1.046270
C76	C	1.192889	-0.218359	0.963724
C77	C	1.142295	-0.251799	0.922425
C78	C	1.091723	-0.285227	0.963673
C79	C	1.243467	-0.184935	0.922470
C80	C	1.243448	-0.184945	0.839919
C81	C	1.192850	-0.218382	0.798619
C82	C	1.142274	-0.251812	0.839872
C83	C	1.091681	-0.285251	0.798573
C84	C	1.041101	-0.318679	0.839825
C85	C	1.041124	-0.318665	0.922373
C86	C	1.192826	-0.218396	0.716071
C87	C	1.091660	-0.285265	0.716020
H88	H	1.233795	-0.549876	0.472532
C89	C	1.036830	-0.321661	0.671223
C90	C	1.054012	-0.373390	0.691257
C91	C	1.003530	-0.406933	0.649997
H92	H	0.983702	-0.314074	0.684717
H93	H	1.044072	-0.316919	0.616145
H94	H	1.046764	-0.378130	0.746323
H95	H	1.107131	-0.380994	0.677761
H96	H	1.010771	-0.402191	0.594918
H97	H	0.950404	-0.399341	0.663494
H98	H	1.015185	-0.442035	0.663578
C99	C	0.728522	-0.355227	0.536522
C100	C	0.674704	-0.384541	0.580724
C101	C	0.715820	-0.418038	0.631281
H102	H	0.760708	-0.378026	0.506308
H103	H	0.760727	-0.335261	0.571062
H104	H	0.642512	-0.404505	0.546189
H105	H	0.642517	-0.361755	0.610955
H106	H	0.748025	-0.398073	0.665820
H107	H	0.748004	-0.440835	0.601060
H108	H	0.679311	-0.437929	0.661283
H109	H	1.284662	-0.157713	0.956101
H110	H	1.000019	-0.702255	0.238397
H111	H	1.284385	-0.701944	0.523161
C112	C	1.298234	-0.808294	0.536955
C113	C	1.342466	-0.772638	0.581231
C114	C	1.393114	-0.799770	0.631870
H115	H	1.268084	-0.829596	0.571449
H116	H	1.332750	-0.829579	0.506771
H117	H	1.307954	-0.751362	0.611412
H118	H	1.372632	-0.751335	0.546758
H119	H	1.427630	-0.821055	0.601687
H120	H	1.362957	-0.821071	0.666359
H121	H	1.423136	-0.775582	0.661912
C122	C	0.986264	-0.808638	0.224657
C123	C	0.941996	-0.773082	0.180366
C124	C	0.891372	-0.800327	0.129742
H125	H	1.016433	-0.829946	0.190171
H126	H	0.951770	-0.829927	0.254852
H127	H	0.976486	-0.751802	0.150173
H128	H	0.911811	-0.751773	0.214830
H129	H	0.856877	-0.821616	0.159937
H130	H	0.921547	-0.821634	0.095261
H131	H	0.861325	-0.776206	0.099689
H132	H	0.841286	-0.312628	0.472270
C133	C	0.852547	-0.181993	0.275636
C134	C	0.899962	-0.148506	0.320482
C135	C	0.941283	-0.114946	0.270164
H136	H	0.884787	-0.201901	0.241115
H137	H	0.816166	-0.162027	0.245608
H138	H	0.936338	-0.168470	0.350496
H139	H	0.867741	-0.128586	0.355001
H140	H	0.904902	-0.094980	0.240137
H141	H	0.973519	-0.134859	0.235646
H142	H	0.973453	-0.092218	0.300585
C143	C	0.986049	-0.354961	0.795088
C144	C	0.907855	-0.343580	0.815178
C145	C	0.857126	-0.376999	0.773990
H146	H	0.993178	-0.350218	0.740005
H147	H	0.997544	-0.390096	0.808616
H148	H	0.896364	-0.308454	0.801645
H149	H	0.900702	-0.348326	0.870254
H150	H	0.868621	-0.412134	0.787518
H151	H	0.864261	-0.372254	0.718909
H152	H	0.804066	-0.369286	0.787621
H153	H	0.717486	-0.157680	0.238762
C154	C	1.247497	-0.443491	0.486304
C155	C	1.291733	-0.479041	0.530638
C156	C	1.342277	-0.451789	0.581334
H157	H	1.282020	-0.422188	0.456184
H158	H	1.217246	-0.422197	0.520754
H159	H	1.321982	-0.500326	0.496193
H160	H	1.257231	-0.500345	0.560774
H161	H	1.312026	-0.430495	0.615784
H162	H	1.376795	-0.430486	0.551208
H163	H	1.372292	-0.475905	0.611426
H164	H	1.284633	-0.157726	0.806339
C165	C	1.247721	-0.945838	0.486458
C166	C	1.291961	-0.981390	0.530785
C167	C	1.342500	-0.954140	0.581488
H168	H	1.282243	-0.924530	0.456343
H169	H	1.217468	-0.924548	0.520912
H170	H	1.322212	-1.002671	0.496336
H171	H	1.257459	-1.002699	0.560916
H172	H	1.312247	-0.932851	0.615941
H173	H	1.377017	-0.932834	0.551366
H174	H	1.372518	-0.978259	0.611575
H175	H	1.050728	-1.052432	0.289053
C176	C	0.986301	-0.354935	0.967303
C177	C	0.997167	-0.347776	1.048434
C178	C	0.946686	-0.381185	1.089851
H179	H	0.933164	-0.347314	0.953878
H180	H	0.997837	-0.390080	0.953796
H181	H	0.985625	-0.312640	1.061936
H182	H	1.050293	-0.355402	1.061882
H183	H	0.958223	-0.416329	1.076343
H184	H	0.893552	-0.373560	1.076420
H185	H	0.954057	-0.376335	1.144902
H186	H	1.050560	-0.312428	1.079817
H187	H	1.234106	-0.191126	1.079900
H188	H	0.443874	-0.312661	0.472297
C189	C	0.556367	-0.148655	0.225122
C190	C	0.475240	-0.155838	0.235916
C191	C	0.433802	-0.122418	0.185505
H192	H	0.569825	-0.113514	0.236749
H193	H	0.569823	-0.156262	0.171969
H194	H	0.461789	-0.148227	0.289057
H195	H	0.461758	-0.190972	0.224284
H196	H	0.447258	-0.130024	0.132352
H197	H	0.447267	-0.087278	0.197136
H198	H	0.378754	-0.127290	0.192817
C199	C	1.036694	-0.557431	0.275159
C200	C	0.992428	-0.521882	0.230852
C201	C	0.941812	-0.549136	0.180231
H202	H	1.066869	-0.578742	0.240683
H203	H	1.002199	-0.578716	0.305357
H204	H	1.026920	-0.500605	0.200656
H205	H	0.962237	-0.500570	0.265307
H206	H	0.907316	-0.570422	0.210429
H207	H	0.971993	-0.570446	0.145760
H208	H	0.911766	-0.525020	0.150168
H209	H	1.234027	-1.052238	0.472656
H210	H	1.234010	-0.191182	0.682488
H211	H	1.050669	-0.953382	0.289037
H212	H	0.567694	-0.346132	0.522736
C213	C	1.036631	-0.443604	0.275294
C214	C	0.985923	-0.412270	0.320011
C215	C	0.935274	-0.384984	0.269562
H216	H	1.066787	-0.422263	0.240861
H217	H	1.006502	-0.467697	0.245179
H218	H	1.016049	-0.388180	0.350113
H219	H	0.955750	-0.433598	0.354442
H220	H	0.905144	-0.409077	0.239447
H221	H	0.965436	-0.363646	0.235132
H222	H	0.900858	-0.363724	0.299896
H223	H	0.443880	-0.191181	0.289245
