data_functionalizedCrystal
_audit_creation_method	'MofGen! by Chris Wilmer'
_symmetry_space_group_name_H-M	'P1'
_symmetry_Int_Tables_number	1
_symmetry_cell_setting	triclinic
loop_
_symmetry_equiv_pos_as_xyz
  x,y,z
_cell_length_a	10.723024
_cell_length_b	15.538191
_cell_length_c	9.798715
_cell_angle_alpha	89.999989
_cell_angle_beta	89.996609
_cell_angle_gamma	65.869982
loop_
_atom_site_label
_atom_site_type_symbol
_atom_site_fract_x
_atom_site_fract_y
_atom_site_fract_z
O1	O	1.596023	0.131734	-0.113468
O2	O	1.227016	0.144344	-0.113471
O3	O	1.483350	0.001374	-0.113475
O4	O	1.339689	0.274704	-0.113464
O5	O	1.483336	0.001373	0.113507
O6	O	1.227002	0.144343	0.113511
O7	O	1.596009	0.131734	0.113514
Zn8	Zn	1.411503	0.138038	0.149551
Zn9	Zn	1.411522	0.138039	-0.149508
O10	O	1.339675	0.274704	0.113518
C11	C	1.180936	0.143426	0.000019
C12	C	1.043656	0.140680	0.000017
C13	C	0.931530	0.220679	0.000020
C14	C	0.789643	0.217843	0.000018
C15	C	1.498374	-0.033625	0.000011
C16	C	1.543145	-0.137909	-0.000002
C17	C	1.098353	-0.428574	0.000023
C18	C	1.140454	-0.526568	0.000027
C19	C	1.377262	-0.547481	0.000028
C20	C	1.335181	-0.449487	0.000018
C21	C	1.195724	-0.390041	0.000017
C22	C	1.432552	-0.410953	0.000012
C23	C	1.390474	-0.312968	0.000009
C24	C	1.251024	-0.253516	0.000012
C25	C	1.153646	-0.292055	0.000014
C26	C	1.572008	-0.470401	0.000023
C27	C	1.669379	-0.431867	0.000017
C28	C	1.627302	-0.333880	0.000004
C29	C	1.487852	-0.274428	0.000007
C30	C	1.724680	-0.295341	0.000002
C31	C	1.682601	-0.197355	-0.000001
C32	C	1.445773	-0.176443	0.000004
C33	C	1.642090	0.132651	0.000021
C34	C	1.779369	0.135397	0.000014
C35	C	1.324652	0.309702	0.000029
C36	C	1.279880	0.413987	0.000033
N37	N	1.411500	0.138037	0.353651
N38	N	1.411539	0.138032	-0.353608
C39	C	1.519250	0.077744	0.421426
C40	C	1.519272	0.077741	0.578589
H41	H	0.693413	0.286328	0.000015
H42	H	0.875594	0.066908	0.000003
O43	O	1.819788	-0.495986	0.000027
H44	H	1.844635	-0.541130	-0.092487
H45	H	1.319287	0.189658	0.588118
O46	O	1.787619	-0.155787	-0.000025
H47	H	1.852484	-0.179608	0.092479
O48	O	1.289319	0.206429	0.430882
H49	H	1.246619	0.166582	0.496007
O50	O	1.031697	0.047168	0.000022
H51	H	0.975466	0.041955	-0.092496
H52	H	1.216766	-0.173730	0.000018
O53	O	1.641483	0.009360	0.655771
H54	H	1.609501	-0.036494	0.720875
O55	O	1.641410	0.009361	0.344157
H56	H	1.733179	0.021753	0.371467
H57	H	0.940578	0.291268	0.000031
H58	H	1.332214	-0.128038	-0.000007
O59	O	1.003231	-0.227928	0.000017
H60	H	0.954526	-0.241722	-0.092492
O61	O	0.947938	-0.364447	0.000026
H62	H	0.899232	-0.378241	-0.092483
O63	O	1.035426	-0.568133	0.000021
H64	H	0.931389	-0.510332	0.000009
O65	O	1.527671	-0.611597	0.000033
H66	H	1.540576	-0.686207	0.000031
O67	O	1.617409	-0.576088	0.000030
H68	H	1.577415	-0.597419	-0.092493
H69	H	1.838225	-0.343756	0.000016
