data_functionalizedCrystal
_audit_creation_method	'MofGen! by Chris Wilmer'
_symmetry_space_group_name_H-M	'P1'
_symmetry_Int_Tables_number	1
_symmetry_cell_setting	triclinic
loop_
_symmetry_equiv_pos_as_xyz
  x,y,z
_cell_length_a	13.262390
_cell_length_b	23.532407
_cell_length_c	22.010155
_cell_angle_alpha	89.993714
_cell_angle_beta	105.919196
_cell_angle_gamma	83.670349
loop_
_atom_site_label
_atom_site_type_symbol
_atom_site_fract_x
_atom_site_fract_y
_atom_site_fract_z
O1	O	1.391895	0.076637	0.280544
O2	O	1.086219	0.084990	0.230033
O3	O	1.248275	-0.002069	0.256801
O4	O	1.229840	0.163695	0.253776
O5	O	1.248263	-0.002046	0.155748
O6	O	1.086208	0.085013	0.128981
O7	O	1.391884	0.076660	0.179492
Cu8	Cu	1.239045	0.080838	0.145009
Cu9	Cu	1.239058	0.080811	0.264515
O10	O	1.229828	0.163718	0.152724
C11	C	1.047114	0.084535	0.173045
C12	C	0.930609	0.083140	0.153793
C13	C	0.602234	0.079151	0.319868
C14	C	0.711697	0.080458	0.337957
C15	C	0.766430	0.081129	0.291918
C16	C	0.711690	0.080492	0.227786
C17	C	0.602217	0.079179	0.209694
C18	C	0.766413	0.081158	0.181744
C19	C	0.711673	0.080520	0.117612
C20	C	0.602211	0.079208	0.099524
C21	C	0.547478	0.078538	0.145564
C22	C	0.875886	0.082470	0.199836
C23	C	0.875869	0.082499	0.089662
C24	C	0.766406	0.081191	0.071573
C25	C	1.247800	-0.023276	0.206195
C26	C	1.246388	-0.086500	0.205957
C27	C	1.333437	-0.485134	0.220375
C28	C	1.332125	-0.544541	0.220163
O29	O	1.412820	-0.580850	0.233520
N30	N	1.235783	-0.567687	0.204242
C31	C	1.140746	-0.531423	0.188539
O32	O	1.058680	-0.556565	0.174979
C33	C	1.142059	-0.472016	0.188756
C34	C	1.238407	-0.448874	0.204671
C35	C	1.429777	-0.461990	0.236290
C36	C	1.431088	-0.402587	0.236501
C37	C	1.336058	-0.366327	0.220797
C38	C	1.239718	-0.389470	0.204882
C39	C	1.047023	-0.435753	0.173057
C40	C	1.048343	-0.376344	0.173275
C41	C	1.144692	-0.353201	0.189191
C42	C	1.145999	-0.293807	0.189389
N43	N	1.242341	-0.270661	0.205309
C44	C	1.337370	-0.306921	0.221013
C45	C	1.137998	-0.656180	0.188087
C46	C	1.136684	-0.715585	0.187866
C47	C	1.328064	-0.728699	0.219490
C48	C	1.329376	-0.669293	0.219707
C49	C	1.234340	-0.633034	0.204007
C50	C	1.340116	-0.182169	0.221454
C51	C	1.341418	-0.122760	0.221661
C52	C	1.150039	-0.109651	0.190040
C53	C	1.148736	-0.169055	0.189829
C54	C	1.243783	-0.205313	0.205540
O55	O	1.065346	-0.257464	0.176042
O56	O	1.419424	-0.281770	0.234580
C57	C	1.430989	0.077114	0.236481
C58	C	1.547494	0.078509	0.255737
C59	C	1.230303	0.184925	0.203331
C60	C	1.231715	0.248150	0.203573
N61	N	1.239043	0.080857	0.060957
C62	C	1.167260	0.119361	-0.243512
C63	C	1.167258	0.119366	-0.179905
O64	O	1.106195	0.152127	-0.157100
N65	N	1.239035	0.080835	-0.136229
C66	C	1.310812	0.042293	-0.156164
O67	O	1.371863	0.009520	-0.113173
C68	C	1.310809	0.042286	-0.219771
C69	C	1.239034	0.080823	-0.263443
C70	C	1.095491	0.157895	-0.287184
C71	C	1.095495	0.157890	-0.350786
C72	C	1.167269	0.119352	-0.370717
C73	C	1.239039	0.080818	-0.327046
C74	C	1.382580	0.003741	-0.239705
C75	C	1.382571	0.003737	-0.303318
C76	C	1.310796	0.042274	-0.346990
C77	C	1.310817	0.042276	-0.410579
N78	N	1.239040	0.080806	-0.454255
C79	C	1.167266	0.119345	-0.434324
C80	C	1.310812	0.042311	-0.022586
C81	C	1.310821	0.042321	0.041021
C82	C	1.167265	0.119393	0.017275
C83	C	1.167262	0.119386	-0.046332
C84	C	1.239035	0.080842	-0.066262
C85	C	1.167281	0.119332	-0.567893
C86	C	1.167295	0.119326	-0.631500
C87	C	1.310846	0.042252	-0.607749
C88	C	1.310837	0.042260	-0.544147
C89	C	1.239045	0.080802	-0.524222
O90	O	1.371846	0.009530	-0.433430
O91	O	1.106216	0.152107	-0.477322
N92	N	1.239068	0.080788	0.348570
H93	H	0.458343	0.077475	0.130838
H94	H	1.108821	0.150772	0.033513
H95	H	1.058228	-0.734422	0.174895
H96	H	0.920445	0.082990	0.252053
O97	O	1.089875	0.160895	-0.678601
H98	H	1.101937	0.154425	-0.726179
H99	H	0.855560	0.082195	0.306650
O100	O	0.543164	0.078519	0.030355
H101	H	0.599608	0.079212	0.001378
O102	O	1.459996	-0.037836	-0.324806
H103	H	1.416114	-0.065639	-0.361029
O104	O	0.543205	0.078427	0.369521
H105	H	0.457890	0.077410	0.346165
H106	H	1.417512	-0.211684	0.234250
H107	H	1.060603	-0.626660	0.175296
H108	H	0.968566	-0.454585	0.160101
O109	O	1.388250	0.000742	-0.044070
H110	H	1.344377	-0.027068	-0.080289
H111	H	0.721821	0.080672	0.019355
H112	H	1.441025	-0.027640	-0.204155
H113	H	0.756259	0.080974	0.390174
H114	H	1.072669	-0.080118	0.177252
O115	O	1.388250	0.000698	-0.497037
H116	H	1.438156	-0.026102	-0.521586
H117	H	1.070282	-0.187899	0.176853
H118	H	0.920433	0.083044	0.052173
H119	H	1.507166	-0.491508	0.249081
H120	H	1.419880	-0.103921	0.234620
H121	H	0.970951	-0.346823	0.160491
H122	H	1.509544	-0.383750	0.249463
O123	O	1.089860	0.160906	-0.546404
H124	H	1.039969	0.187701	-0.587464
H125	H	1.407831	-0.650455	0.232667
H126	H	1.037047	0.189269	-0.386342
O127	O	1.430567	-0.767813	0.236436
H128	H	1.413459	-0.813008	0.233617
H129	H	1.369277	0.010946	0.076577
O130	O	1.388255	0.000684	-0.629251
H131	H	1.376183	0.007154	-0.680819
H132	H	1.037039	0.189277	-0.270964
O133	O	1.089861	0.160956	-0.093433
H134	H	1.039961	0.187755	-0.068880
