data_functionalizedCrystal
_audit_creation_method	'MofGen! by Chris Wilmer'
_symmetry_space_group_name_H-M	'P1'
_symmetry_Int_Tables_number	1
_symmetry_cell_setting	triclinic
loop_
_symmetry_equiv_pos_as_xyz
  x,y,z
_cell_length_a	18.101398
_cell_length_b	18.050589
_cell_length_c	18.050582
_cell_angle_alpha	89.981795
_cell_angle_beta	89.979764
_cell_angle_gamma	90.023488
loop_
_atom_site_label
_atom_site_type_symbol
_atom_site_fract_x
_atom_site_fract_y
_atom_site_fract_z
Zn1	Zn	1.132106	-0.295800	-0.420040
Zn2	Zn	1.382106	-0.045800	-0.170040
Zn3	Zn	1.632106	0.204200	0.079960
Zn4	Zn	1.882106	0.454200	0.329960
Zn5	Zn	1.132017	-0.419984	-0.295860
Zn6	Zn	1.382017	-0.169984	-0.045860
Zn7	Zn	1.632017	0.080016	0.204140
Zn8	Zn	1.882017	0.330016	0.454140
Zn9	Zn	1.008274	-0.295802	-0.295853
Zn10	Zn	1.258274	-0.045802	-0.045853
Zn11	Zn	1.508274	0.204198	0.204147
Zn12	Zn	1.758274	0.454198	0.454147
Zn13	Zn	1.008222	-0.419943	-0.419997
Zn14	Zn	1.258222	-0.169943	-0.169997
Zn15	Zn	1.508222	0.080057	0.080003
Zn16	Zn	1.758222	0.330057	0.330003
O17	O	1.070155	-0.357882	-0.357937
O18	O	1.320155	-0.107882	-0.107937
O19	O	1.570155	0.142118	0.142063
O20	O	1.820155	0.392118	0.392063
O21	O	1.235727	-0.312290	-0.403589
O22	O	1.485727	-0.062290	-0.153589
O23	O	1.735727	0.187710	0.096411
O24	O	1.985727	0.437710	0.346411
O25	O	1.115587	-0.403528	-0.191934
O26	O	1.365587	-0.153528	0.058066
O27	O	1.615587	0.096472	0.308066
O28	O	1.865587	0.346472	0.558066
O29	O	1.024759	-0.191877	-0.312342
O30	O	1.274759	0.058123	-0.062342
O31	O	1.524759	0.308123	0.187658
O32	O	1.774759	0.558123	0.437658
O33	O	1.235662	-0.403527	-0.312354
O34	O	1.485662	-0.153527	-0.062354
O35	O	1.735662	0.096473	0.187646
O36	O	1.985662	0.346473	0.437646
O37	O	1.115738	-0.191876	-0.403582
O38	O	1.365738	0.058124	-0.153582
O39	O	1.615738	0.308124	0.096418
O40	O	1.865738	0.558124	0.346418
O41	O	1.024673	-0.312292	-0.191929
O42	O	1.274673	-0.062292	0.058071
O43	O	1.524673	0.187708	0.308071
O44	O	1.774673	0.437708	0.558071
O45	O	0.904634	-0.312253	-0.312300
O46	O	1.154634	-0.062253	-0.062300
O47	O	1.404634	0.187747	0.187700
O48	O	1.654634	0.437747	0.437700
O49	O	1.024671	-0.403457	-0.523927
O50	O	1.274671	-0.153457	-0.273927
O51	O	1.524671	0.096543	-0.023927
O52	O	1.774671	0.346543	0.226073
O53	O	0.904596	-0.403459	-0.403508
O54	O	1.154596	-0.153459	-0.153508
O55	O	1.404596	0.096541	0.096492
O56	O	1.654596	0.346541	0.346492
O57	O	1.115688	-0.312250	-0.523959
O58	O	1.365688	-0.062250	-0.273959
O59	O	1.615688	0.187750	-0.023959
O60	O	1.865688	0.437750	0.226041
O61	O	1.115536	-0.523903	-0.312311
O62	O	1.365536	-0.273903	-0.062311
O63	O	1.615536	-0.023903	0.187689
O64	O	1.865536	0.226097	0.437689
O65	O	1.024585	-0.523873	-0.403514
O66	O	1.274585	-0.273873	-0.153514
O67	O	1.524585	-0.023873	0.096486
O68	O	1.774585	0.226127	0.346486
C69	C	0.877744	-0.357852	-0.357899
C70	C	1.127744	-0.107852	-0.107899
C71	C	1.377744	0.142148	0.142101
C72	C	1.627744	0.392148	0.392101
C73	C	0.795430	-0.357857	-0.357900
C74	C	1.045430	-0.107857	-0.107900
C75	C	1.295430	0.142143	0.142100
C76	C	1.545430	0.392143	0.392100
C77	C	0.496339	-0.357903	-0.357962
C78	C	0.746339	-0.107903	-0.107962
C79	C	0.996339	0.142097	0.142038
C80	C	1.246339	0.392097	0.392038
C81	C	0.527663	-0.300232	-0.300857
C82	C	0.777663	-0.050232	-0.050857
C83	C	1.027663	0.199768	0.199143
C84	C	1.277663	0.449768	0.449143
C85	C	0.613282	-0.300387	-0.300613
C86	C	0.863282	-0.050387	-0.050613
C87	C	1.113282	0.199613	0.199387
C88	C	1.363282	0.449613	0.449387
C89	C	0.644722	-0.357880	-0.357931
C90	C	0.894722	-0.107880	-0.107931
C91	C	1.144722	0.142120	0.142069
C92	C	1.394722	0.392120	0.392069
C93	C	0.613609	-0.436109	-0.336553
C94	C	0.863609	-0.186109	-0.086553
C95	C	1.113609	0.063891	0.163447
C96	C	1.363609	0.313891	0.413447
C97	C	0.527964	-0.435788	-0.336156
C98	C	0.777964	-0.185788	-0.086156
C99	C	1.027964	0.064212	0.163844
C100	C	1.277964	0.314212	0.413844
C101	C	0.527947	-0.338025	-0.436581
C102	C	0.777947	-0.088025	-0.186581
C103	C	1.027947	0.161975	0.063419
C104	C	1.277947	0.411975	0.313419
C105	C	0.613598	-0.336283	-0.436152
C106	C	0.863598	-0.086283	-0.186152
C107	C	1.113598	0.163717	0.063848
C108	C	1.363598	0.413717	0.313848
C109	C	0.728581	-0.357871	-0.357915
C110	C	0.978581	-0.107871	-0.107915
C111	C	1.228581	0.142129	0.142085
C112	C	1.478581	0.392129	0.392085
C113	C	0.412480	-0.357917	-0.357977
C114	C	0.662480	-0.107917	-0.107977
C115	C	0.912480	0.142083	0.142023
C116	C	1.162480	0.392083	0.392023
C117	C	1.070065	-0.550834	-0.357925
C118	C	1.320065	-0.300834	-0.107925
C119	C	1.570065	-0.050834	0.142075
C120	C	1.820065	0.199166	0.392075
C121	C	1.070095	-0.633380	-0.357945
C122	C	1.320095	-0.383380	-0.107945
C123	C	1.570095	-0.133380	0.142055
C124	C	1.820095	0.116620	0.392055
C125	C	1.020684	-0.832841	-0.407524
C126	C	1.270684	-0.582841	-0.157524
C127	C	1.520684	-0.332841	0.092476
C128	C	1.770684	-0.082841	0.342476
C129	C	1.002637	-0.882274	-0.339755
C130	C	1.252637	-0.632274	-0.089755
C131	C	1.502637	-0.382274	0.160245
C132	C	1.752637	-0.132274	0.410245
C133	C	1.070167	-0.784510	-0.357954
C134	C	1.320167	-0.534510	-0.107954
C135	C	1.570167	-0.284510	0.142046
C136	C	1.820167	-0.034510	0.392046
C137	C	1.088251	-0.882160	-0.425731
C138	C	1.338251	-0.632160	-0.175731
C139	C	1.588251	-0.382160	0.074269
C140	C	1.838251	-0.132160	0.324269
C141	C	1.070236	-0.930495	-0.357970
C142	C	1.320236	-0.680495	-0.107970
C143	C	1.570236	-0.430495	0.142030
C144	C	1.820236	-0.180495	0.392030
C145	C	1.052085	-0.832856	-0.290149
C146	C	1.302085	-0.582856	-0.040149
C147	C	1.552085	-0.332856	0.209851
C148	C	1.802085	-0.082856	0.459851
C149	C	1.137730	-0.832737	-0.376172
C150	C	1.387730	-0.582737	-0.126172
C151	C	1.637730	-0.332737	0.123828
C152	C	1.887730	-0.082737	0.373828
C153	C	1.119709	-0.882147	-0.308356
C154	C	1.369709	-0.632147	-0.058356
C155	C	1.619709	-0.382147	0.191644
C156	C	1.869709	-0.132147	0.441644
C157	C	1.070126	-0.700412	-0.357947
C158	C	1.320126	-0.450412	-0.107947
C159	C	1.570126	-0.200412	0.142053
C160	C	1.820126	0.049588	0.392053
C161	C	1.070278	-1.014592	-0.357970
C162	C	1.320278	-0.764592	-0.107970
C163	C	1.570278	-0.514592	0.142030
C164	C	1.820278	-0.264592	0.392030
C165	C	1.263316	-0.357913	-0.357977
C166	C	1.513316	-0.107913	-0.107977
C167	C	1.763316	0.142087	0.142023
C168	C	2.013316	0.392087	0.392023
C169	C	1.345631	-0.357926	-0.357994
C170	C	1.595631	-0.107926	-0.107994
C171	C	1.845631	0.142074	0.142006
C172	C	2.095631	0.392074	0.392006
C173	C	1.070184	-0.357849	-0.551643
C174	C	1.320184	-0.107849	-0.301643
C175	C	1.570184	0.142151	-0.051643
C176	C	1.820184	0.392151	0.198357
C177	C	1.070196	-0.357835	-0.634189
C178	C	1.320196	-0.107835	-0.384189
C179	C	1.570196	0.142165	-0.134189
C180	C	1.820196	0.392165	0.115811
C181	C	1.070265	-0.164177	-0.357966
C182	C	1.320265	0.085823	-0.107966
C183	C	1.570265	0.335823	0.142034
C184	C	1.820265	0.585823	0.392034
C185	C	1.070311	-0.081631	-0.357978
C186	C	1.320311	0.168369	-0.107978
C187	C	1.570311	0.418369	0.142022
C188	C	1.820311	0.668369	0.392022
C189	C	1.020739	-0.407366	-0.833622
C190	C	1.270739	-0.157366	-0.583622
C191	C	1.520739	0.092634	-0.333622
C192	C	1.770739	0.342634	-0.083622
C193	C	1.088304	-0.425525	-0.883021
C194	C	1.338304	-0.175525	-0.633021
C195	C	1.588304	0.074475	-0.383021
C196	C	1.838304	0.324475	-0.133021
C197	C	1.070233	-0.357779	-0.785319
C198	C	1.320233	-0.107779	-0.535319
C199	C	1.570233	0.142221	-0.285319
C200	C	1.820233	0.392221	-0.035319
C201	C	1.002705	-0.339599	-0.883002
C202	C	1.252705	-0.089599	-0.633002
C203	C	1.502705	0.160401	-0.383002
C204	C	1.752705	0.410401	-0.133002
C205	C	1.070262	-0.357725	-0.931305
C206	C	1.320262	-0.107725	-0.681305
C207	C	1.570262	0.142275	-0.431305
C208	C	1.820262	0.392275	-0.181305
C209	C	1.137833	-0.375973	-0.833631
C210	C	1.387833	-0.125973	-0.583631
C211	C	1.637833	0.124027	-0.333631
C212	C	1.887833	0.374027	-0.083631
C213	C	1.052188	-0.290016	-0.833608
C214	C	1.302188	-0.040016	-0.583608
C215	C	1.552188	0.209984	-0.333608
C216	C	1.802188	0.459984	-0.083608
C217	C	1.119800	-0.308149	-0.882984
C218	C	1.369800	-0.058149	-0.632984
C219	C	1.619800	0.191851	-0.382984
C220	C	1.869800	0.441851	-0.132984
C221	C	1.070215	-0.357811	-0.701221
C222	C	1.320215	-0.107811	-0.451221
C223	C	1.570215	0.142189	-0.201221
C224	C	1.820215	0.392189	0.048779
C225	C	1.070287	-0.357692	-1.015401
C226	C	1.320287	-0.107692	-0.765401
C227	C	1.570287	0.142308	-0.515401
C228	C	1.820287	0.392308	-0.265401
C229	C	1.070168	-0.357861	-0.164985
C230	C	1.320168	-0.107861	0.085015
C231	C	1.570168	0.142139	0.335015
C232	C	1.820168	0.392139	0.585015
C233	C	1.070299	-0.357666	-0.082440
C234	C	1.320299	-0.107666	0.167560
C235	C	1.570299	0.142334	0.417560
C236	C	1.820299	0.392334	0.667560
H237	H	0.634318	-0.242377	-0.314013
H238	H	0.884318	0.007623	-0.064013
H239	H	1.134318	0.257623	0.185987
H240	H	1.384318	0.507623	0.435987
H241	H	1.103584	-0.482808	-0.904726
H242	H	1.353584	-0.232808	-0.654726
H243	H	1.603584	0.017192	-0.404726
H244	H	1.853584	0.267192	-0.154726
H245	H	0.635002	-0.375228	-0.480979
H246	H	0.885002	-0.125228	-0.230979
H247	H	1.135002	0.124772	0.019021
H248	H	1.385002	0.374772	0.269021
H249	H	1.036889	-0.232749	-0.811886
H250	H	1.286889	0.017251	-0.561886
H251	H	1.536889	0.267251	-0.311886
H252	H	1.786889	0.517251	-0.061886
F253	F	0.499491	-0.317201	-0.225157
F254	F	0.749491	-0.067201	0.024843
F255	F	0.999491	0.182799	0.274843
F256	F	1.249491	0.432799	0.524843
F257	F	0.927995	-0.910713	-0.319615
F258	F	1.177995	-0.660713	-0.069615
F259	F	1.427995	-0.410713	0.180385
F260	F	1.677995	-0.160713	0.430385
F261	F	1.108206	-0.910470	-0.500641
F262	F	1.358206	-0.660470	-0.250641
F263	F	1.608206	-0.410470	-0.000641
F264	F	1.858206	-0.160470	0.249359
H265	H	0.633938	-0.278715	-0.452272
H266	H	0.883938	-0.028715	-0.202272
H267	H	1.133938	0.221285	0.047728
H268	H	1.383938	0.471285	0.297728
H269	H	0.507089	-0.242045	-0.314109
H270	H	0.757089	0.007955	-0.064109
H271	H	1.007089	0.257955	0.185891
H272	H	1.257089	0.507955	0.435891
F273	F	1.174585	-0.253308	-0.911139
F274	F	1.424585	-0.003308	-0.661139
F275	F	1.674585	0.246692	-0.411139
F276	F	1.924585	0.496692	-0.161139
H277	H	0.507690	-0.380031	-0.479130
H278	H	0.757690	-0.130031	-0.229130
H279	H	1.007690	0.119969	0.020870
H280	H	1.257690	0.369969	0.270870
H281	H	1.194969	-0.391392	-0.812035
H282	H	1.444969	-0.141392	-0.562035
H283	H	1.694969	0.108608	-0.312035
H284	H	1.944969	0.358608	-0.062035
H285	H	0.978776	-0.811191	-0.449383
H286	H	1.228776	-0.561191	-0.199383
H287	H	1.478776	-0.311191	0.050617
H288	H	1.728776	-0.061191	0.300617
H289	H	0.945585	-0.324245	-0.904690
H290	H	1.195585	-0.074245	-0.654690
H291	H	1.445585	0.175755	-0.404690
H292	H	1.695585	0.425755	-0.154690
H293	H	1.036751	-0.811288	-0.232822
H294	H	1.286751	-0.561288	0.017178
H295	H	1.536751	-0.311288	0.267178
H296	H	1.786751	-0.061288	0.517178
F297	F	0.966082	-0.462246	-0.805291
F298	F	1.216082	-0.212246	-0.555291
F299	F	1.466082	0.037754	-0.305291
F300	F	1.716082	0.287754	-0.055291
H301	H	1.194821	-0.810964	-0.391599
H302	H	1.444821	-0.560964	-0.141599
H303	H	1.694821	-0.310964	0.108401
H304	H	1.944821	-0.060964	0.358401
F305	F	0.640026	-0.317559	-0.224468
F306	F	0.890026	-0.067559	0.025532
F307	F	1.140026	0.182441	0.275532
F308	F	1.390026	0.432441	0.525532
H309	H	1.161585	-0.903660	-0.266395
H310	H	1.411585	-0.653660	-0.016395
H311	H	1.661585	-0.403660	0.233605
H312	H	1.911585	-0.153660	0.483605
F313	F	0.500875	-0.493855	-0.388146
F314	F	0.750875	-0.243855	-0.138146
F315	F	1.000875	0.006145	0.111854
F316	F	1.250875	0.256145	0.361854
H317	H	0.507957	-0.452647	-0.278682
H318	H	0.757957	-0.202647	-0.028682
H319	H	1.007957	0.047353	0.221318
H320	H	1.257957	0.297353	0.471318
H321	H	0.633973	-0.480229	-0.376844
H322	H	0.883973	-0.230229	-0.126844
H323	H	1.133973	0.019771	0.123156
H324	H	1.383973	0.269771	0.373156
H325	H	0.506371	-0.281974	-0.456019
H326	H	0.756371	-0.031974	-0.206019
H327	H	1.006371	0.218026	0.043981
H328	H	1.256371	0.468026	0.293981
F329	F	0.641603	-0.458528	-0.262241
F330	F	0.891603	-0.208528	-0.012241
F331	F	1.141603	0.041472	0.237759
F332	F	1.391603	0.291472	0.487759
