data_functionalizedCrystal
_audit_creation_method	'MofGen! by Chris Wilmer'
_symmetry_space_group_name_H-M	'P1'
_symmetry_Int_Tables_number	1
_symmetry_cell_setting	triclinic
loop_
_symmetry_equiv_pos_as_xyz
  x,y,z
_cell_length_a	19.288864
_cell_length_b	19.288865
_cell_length_c	17.766277
_cell_angle_alpha	89.989546
_cell_angle_beta	89.976755
_cell_angle_gamma	83.136245
loop_
_atom_site_label
_atom_site_type_symbol
_atom_site_fract_x
_atom_site_fract_y
_atom_site_fract_z
O1	O	-0.921353	-0.086648	0.062844
O2	O	-0.421353	0.413352	0.562844
O3	O	-0.719093	-0.098336	0.062794
O4	O	-0.219093	0.401664	0.562794
O5	O	-0.826067	0.008638	0.062806
O6	O	-0.326067	0.508638	0.562806
O7	O	-0.814379	-0.193622	0.062832
O8	O	-0.314379	0.306378	0.562832
O9	O	-0.826048	0.008641	-0.062383
O10	O	-0.326048	0.508641	0.437617
O11	O	-0.719074	-0.098333	-0.062395
O12	O	-0.219074	0.401667	0.437605
O13	O	-0.921334	-0.086645	-0.062344
O14	O	-0.421334	0.413355	0.437656
Cu15	Cu	-0.820202	-0.092489	-0.073800
Cu16	Cu	-0.320202	0.407511	0.426200
Cu17	Cu	-0.820225	-0.092492	0.074250
Cu18	Cu	-0.320225	0.407508	0.574250
O19	O	-0.814359	-0.193619	-0.062356
O20	O	-0.314359	0.306381	0.437644
C21	C	-0.693207	-0.097959	0.000193
C22	C	-0.193207	0.402041	0.500193
C23	C	-0.616103	-0.096830	0.000173
C24	C	-0.116103	0.403170	0.500173
C25	C	-0.825682	0.034516	0.000209
C26	C	-0.325682	0.534516	0.500209
C27	C	-0.824553	0.111620	0.000202
C28	C	-0.324553	0.611620	0.500202
C29	C	-0.947220	-0.087022	0.000258
C30	C	-0.447220	0.412978	0.500258
C31	C	-1.024324	-0.088151	0.000283
C32	C	-0.524324	0.411849	0.500283
C33	C	-0.814745	-0.219497	0.000242
C34	C	-0.314745	0.280503	0.500242
C35	C	-0.815874	-0.296601	0.000254
C36	C	-0.315874	0.203399	0.500254
C37	C	-0.571407	-0.159598	0.000193
C38	C	-0.071407	0.340402	0.500193
C39	C	-0.498960	-0.158537	0.000201
C40	C	0.001040	0.341463	0.500201
C41	C	-0.471212	-0.094705	0.000205
C42	C	0.028788	0.405295	0.500205
C43	C	-0.515918	-0.031929	0.000180
C44	C	-0.015918	0.468071	0.500180
C45	C	-0.588364	-0.032991	0.000164
C46	C	-0.088364	0.467009	0.500164
C47	C	-0.362957	-0.044527	0.044082
C48	C	0.137043	0.455473	0.544082
C49	C	-0.290512	-0.043467	0.044103
C50	C	0.209488	0.456533	0.544103
C51	C	-0.247767	-0.091425	0.000250
C52	C	0.252233	0.408575	0.500250
C53	C	-0.277473	-0.140455	-0.043614
C54	C	0.222527	0.359545	0.456386
C55	C	-0.349918	-0.141518	-0.043630
C56	C	0.150082	0.358482	0.456370
C57	C	-0.392658	-0.093546	0.000221
C58	C	0.107342	0.406454	0.500221
C59	C	-0.124514	-0.153047	0.000278
C60	C	0.375486	0.346953	0.500278
C61	C	-0.052066	-0.151984	0.000281
C62	C	0.447934	0.348016	0.500281
C63	C	-0.069026	-0.025374	0.000267
C64	C	0.430974	0.474626	0.500267
C65	C	-0.141473	-0.026439	0.000256
C66	C	0.358527	0.473561	0.500256
C67	C	-0.169212	-0.090278	0.000265
C68	C	0.330788	0.409722	0.500265
N69	N	-0.820191	-0.092486	-0.177931
N70	N	-0.320191	0.407514	0.322069
C71	C	-0.887321	0.156316	0.000214
C72	C	-0.387321	0.656316	0.500214
C73	C	-0.886260	0.228763	0.000226
C74	C	-0.386260	0.728763	0.500226
C75	C	-0.822428	0.256511	0.000210
C76	C	-0.322428	0.756511	0.500210
C77	C	-0.759652	0.211805	0.000203
C78	C	-0.259652	0.711805	0.500203
C79	C	-0.760714	0.139359	0.000198
C80	C	-0.260714	0.639359	0.500198
C81	C	-0.772241	0.364799	-0.043653
C82	C	-0.272241	0.864799	0.456347
C83	C	-0.771182	0.437244	-0.043654
C84	C	-0.271182	0.937244	0.456346
C85	C	-0.819148	0.479956	0.000226
C86	C	-0.319148	0.979956	0.500226
C87	C	-0.868186	0.450217	0.044097
C88	C	-0.368186	0.950217	0.544097
C89	C	-0.869249	0.377772	0.044093
C90	C	-0.369249	0.877772	0.544093
C91	C	-0.821269	0.335065	0.000215
C92	C	-0.321269	0.835065	0.500215
C93	C	-0.880770	0.603209	0.000252
C94	C	-0.380770	1.103209	0.500252
C95	C	-0.879707	0.675657	0.000268
C96	C	-0.379707	1.175657	0.500268
C97	C	-0.753097	0.658697	0.000238
C98	C	-0.253097	1.158697	0.500238
C99	C	-0.754162	0.586250	0.000229
C100	C	-0.254162	1.086250	0.500229
C101	C	-0.818001	0.558511	0.000232
C102	C	-0.318001	1.058511	0.500232
C103	C	-0.862179	-0.134509	-0.217294
C104	C	-0.362179	0.365491	0.282706
C105	C	-0.862190	-0.134507	-0.296096
C106	C	-0.362190	0.365493	0.203904
C107	C	-0.820200	-0.092490	-0.335531
C108	C	-0.320200	0.407510	0.164469
C109	C	-0.778210	-0.050457	-0.296158
C110	C	-0.278210	0.449543	0.203842
C111	C	-0.778206	-0.050455	-0.217358
C112	C	-0.278206	0.449545	0.282642
C113	C	-0.757588	-0.090733	-0.460407
C114	C	-0.257588	0.409267	0.039593
C115	C	-0.757591	-0.090740	-0.539206
C116	C	-0.257591	0.409260	-0.039206
C117	C	-0.820215	-0.092492	-0.578577
C118	C	-0.320215	0.407508	-0.078577
C119	C	-0.882836	-0.094251	-0.539141
C120	C	-0.382836	0.405749	-0.039141
C121	C	-0.882832	-0.094249	-0.460341
C122	C	-0.382832	0.405751	0.039659
C123	C	-0.820201	-0.092487	-0.420977
C124	C	-0.320201	0.407513	0.079023
C125	C	-0.862218	-0.134516	-0.703387
C126	C	-0.362218	0.365484	-0.203387
C127	C	-0.862230	-0.134509	-0.782190
C128	C	-0.362230	0.365491	-0.282190
C129	C	-0.778244	-0.050463	-0.782251
C130	C	-0.278244	0.449537	-0.282251
C131	C	-0.778238	-0.050466	-0.703449
C132	C	-0.278238	0.449534	-0.203449
C133	C	-0.820224	-0.092496	-0.664022
C134	C	-0.320224	0.407504	-0.164022
N135	N	-0.820241	-0.092490	0.178380
N136	N	-0.320241	0.407510	0.678380
H137	H	-0.462561	-0.209652	0.000216
H138	H	0.037439	0.290348	0.500216
H139	H	-0.242670	-0.179507	-0.079324
H140	H	0.257330	0.320493	0.420676
H141	H	-0.397755	-0.005472	0.079797
H142	H	0.102245	0.494528	0.579797
N143	N	-0.486000	0.036922	0.000188
N144	N	0.014000	0.536922	0.500188
H145	H	-0.502288	0.064412	-0.046227
H146	H	-0.002288	0.564412	0.453773
H147	H	-0.433328	0.028017	0.000233
H148	H	0.066672	0.528017	0.500233
N149	N	-0.686462	0.538036	0.000211
N150	N	-0.186462	1.038036	0.500211
H151	H	-0.645862	0.566605	0.000203
H152	H	-0.145862	1.066605	0.500203
H153	H	-0.684138	0.507618	-0.046200
H154	H	-0.184138	1.007618	0.453800
H155	H	-0.930822	0.712049	0.000282
H156	H	-0.430822	1.212049	0.500282
N157	N	-0.919927	0.496276	0.091427
N158	N	-0.419927	0.996276	0.591427
H159	H	-0.968979	0.490220	0.075057
H160	H	-0.468979	0.990220	0.575057
H161	H	-0.911751	0.546661	0.084756
H162	H	-0.411751	1.046661	0.584756
N163	N	-0.907470	-0.179844	-0.338563
N164	N	-0.407470	0.320156	0.161437
H165	H	-0.901099	-0.173468	-0.394465
H166	H	-0.401099	0.326532	0.105535
H167	H	-0.958030	-0.166000	-0.324771
H168	H	-0.458030	0.334000	0.175229
H169	H	-0.744013	-0.016234	-0.185308
H170	H	-0.244013	0.483766	0.314692
H171	H	-0.177866	0.024674	0.000244
H172	H	0.322134	0.524674	0.500244
H173	H	-0.933821	-0.095680	-0.428234
H174	H	-0.433821	0.404320	0.071766
N175	N	-0.258473	0.009412	0.091408
N176	N	0.241527	0.509412	0.591408
H177	H	-0.270247	0.002764	0.146134
H178	H	0.229753	0.502764	0.646134
H179	H	-0.277628	0.058071	0.074955
H180	H	0.222372	0.558071	0.574955
N181	N	-0.949620	0.573283	0.000257
N182	N	-0.449620	1.073283	0.500257
H183	H	-0.977120	0.589581	0.046673
H184	H	-0.477120	1.089581	0.546673
H185	H	-0.940707	0.520611	0.000217
H186	H	-0.440707	1.020611	0.500217
H187	H	-0.733180	0.330028	-0.079389
H188	H	-0.233180	0.830028	0.420611
H189	H	-0.624756	0.018124	0.000148
H190	H	-0.124756	0.518124	0.500148
N191	N	-0.381961	-0.194392	-0.090938
N192	N	0.118039	0.305608	0.409062
H193	H	-0.343893	-0.224614	-0.118719
H194	H	0.156107	0.275386	0.381281
H195	H	-0.415421	-0.169268	-0.128408
H196	H	0.084579	0.330732	0.371592
H197	H	-0.707679	0.234401	0.000192
H198	H	-0.207679	0.734401	0.500192
H199	H	-0.147101	-0.205028	0.000274
H200	H	0.352899	0.294972	0.500274
H201	H	-0.933830	-0.095682	-0.571196
H202	H	-0.433830	0.404318	-0.071196
N203	N	-0.684244	0.688608	0.000213
N204	N	-0.184244	1.188608	0.500213
H205	H	-0.656760	0.672282	0.046611
H206	H	-0.156760	1.172282	0.546611
H207	H	-0.693147	0.741280	0.000188
H208	H	-0.193147	1.241280	0.500188
H209	H	-0.731249	0.461451	-0.079371
H210	H	-0.231249	0.961451	0.420629
N211	N	-0.693012	0.091146	0.000186
N212	N	-0.193012	0.591146	0.500186
H213	H	-0.652411	0.119713	0.000181
H214	H	-0.152411	0.619713	0.500181
H215	H	-0.690688	0.060729	-0.046227
H216	H	-0.190688	0.560729	0.453773
N217	N	-0.601326	-0.228449	0.000208
N218	N	-0.101326	0.271551	0.500208
H219	H	-0.562013	-0.268051	0.000224
H220	H	-0.062013	0.231949	0.500224
H221	H	-0.630990	-0.231654	-0.046205
H222	H	-0.130990	0.268346	0.453795
N223	N	-0.907500	-0.179843	-0.660855
N224	N	-0.407500	0.320157	-0.160855
H225	H	-0.934106	-0.206462	-0.697752
H226	H	-0.434106	0.293538	-0.197752
H227	H	-0.941547	-0.149473	-0.628146
H228	H	-0.441547	0.350527	-0.128146
N229	N	-0.003854	-0.219687	0.000243
N230	N	0.496146	0.280313	0.500243
H231	H	-0.032423	-0.260286	0.000230
H232	H	0.467577	0.239714	0.500230
H233	H	0.026575	-0.222036	0.046639
H234	H	0.526575	0.277964	0.546639
N235	N	-0.956172	0.126397	0.000219
N236	N	-0.456172	0.626397	0.500219
H237	H	-0.995774	0.165710	0.000229
H238	H	-0.495774	0.665710	0.500229
H239	H	-0.959381	0.096700	0.046627
H240	H	-0.459381	0.596700	0.546627
H241	H	-0.896369	-0.168731	-0.185197
H242	H	-0.396369	0.331269	0.314803
N243	N	-0.907516	-0.179829	-0.824665
N244	N	-0.407516	0.320171	-0.324665
H245	H	-0.941608	-0.149495	-0.857344
H246	H	-0.441608	0.350505	-0.357344
H247	H	-0.934071	-0.206452	-0.787692
H248	H	-0.434071	0.293548	-0.287692
N249	N	-0.732960	-0.005136	-0.824773
N250	N	-0.232960	0.494864	-0.324773
H251	H	-0.739335	-0.011512	-0.880666
H252	H	-0.239335	0.488488	-0.380666
H253	H	-0.682401	-0.018987	-0.811023
H254	H	-0.182401	0.481013	-0.311023
N255	N	-0.732950	-0.005141	-0.660986
N256	N	-0.232950	0.494859	-0.160986
H257	H	-0.706350	0.021478	-0.697923
H258	H	-0.206350	0.521478	-0.197923
H259	H	-0.698897	-0.035512	-0.628301
H260	H	-0.198897	0.464488	-0.128301
H261	H	-0.706600	-0.089311	-0.571309
H262	H	-0.206600	0.410689	-0.071309
N263	N	-0.690040	-0.088839	-0.417945
N264	N	-0.190040	0.411161	0.082055
H265	H	-0.650371	-0.087731	-0.454882
H266	H	-0.150371	0.412269	0.045118
H267	H	-0.680984	-0.131800	-0.385244
H268	H	-0.180984	0.368200	0.114756
H269	H	-0.744023	-0.016245	-0.328271
H270	H	-0.244023	0.483755	0.171729
H271	H	-0.046435	0.026600	0.000317
H272	H	0.453565	0.526600	0.500317
H273	H	-0.909176	0.353561	0.079815
H274	H	-0.409176	0.853561	0.579815
N275	N	-0.953962	0.276984	0.000240
N276	N	-0.453962	0.776984	0.500240
H277	H	-0.994563	0.248418	0.000243
H278	H	-0.494563	0.748418	0.500243
H279	H	-0.956264	0.307419	-0.046168
H280	H	-0.456264	0.807419	0.453832
