data_functionalizedCrystal
_audit_creation_method	'MofGen! by Chris Wilmer'
_symmetry_space_group_name_H-M	'P1'
_symmetry_Int_Tables_number	1
_symmetry_cell_setting	triclinic
loop_
_symmetry_equiv_pos_as_xyz
  x,y,z
_cell_length_a	10.540539
_cell_length_b	23.532407
_cell_length_c	9.616153
_cell_angle_alpha	89.993077
_cell_angle_beta	89.995174
_cell_angle_gamma	83.687085
loop_
_atom_site_label
_atom_site_type_symbol
_atom_site_fract_x
_atom_site_fract_y
_atom_site_fract_z
O1	O	1.683259	0.080251	-0.115596
O2	O	1.313597	0.087813	-0.115615
O3	O	1.509575	0.001174	-0.115579
O4	O	1.487281	0.166890	-0.115631
O5	O	1.509548	0.001176	0.115712
O6	O	1.313571	0.087814	0.115677
O7	O	1.683232	0.080253	0.115695
Zn8	Zn	1.498397	0.084034	0.152408
Zn9	Zn	1.498432	0.084032	-0.152328
O10	O	1.487254	0.166892	0.115660
C11	C	1.266300	0.087246	0.000029
C12	C	1.125407	0.085550	0.000023
C13	C	0.944114	0.020541	0.000583
C14	C	1.090676	0.022261	0.000047
C15	C	1.062750	0.116006	-0.132060
C16	C	0.916277	0.113846	-0.132156
C17	C	0.915716	0.115136	0.130865
C18	C	1.062678	0.115719	0.132597
C19	C	1.508994	-0.020045	0.000070
C20	C	1.507287	-0.083273	0.000080
C21	C	1.612557	-0.481681	0.000010
C22	C	1.610971	-0.541092	-0.000001
O23	O	1.708557	-0.577192	-0.000048
N24	N	1.494462	-0.564488	-0.000006
C25	C	1.379532	-0.528469	-0.000014
O26	O	1.280287	-0.553824	-0.000021
C27	C	1.381119	-0.469060	-0.000014
C28	C	1.497635	-0.445667	0.000005
C29	C	1.729064	-0.458288	0.000027
C30	C	1.730649	-0.398882	0.000040
C31	C	1.615727	-0.362868	0.000036
C32	C	1.499220	-0.386261	0.000019
C33	C	1.266190	-0.433042	-0.000032
C34	C	1.267787	-0.373629	-0.000032
C35	C	1.384303	-0.350237	-0.000013
C36	C	1.385883	-0.290840	0.000028
N37	N	1.502392	-0.267444	0.000032
C38	C	1.617314	-0.303458	0.000037
C39	C	1.376208	-0.653234	-0.000018
C40	C	1.374620	-0.712642	-0.000009
C41	C	1.606059	-0.725261	0.000002
C42	C	1.607646	-0.665851	0.000002
C43	C	1.492717	-0.629838	-0.000013
C44	C	1.620634	-0.178700	0.000066
C45	C	1.622209	-0.119287	0.000085
C46	C	1.390770	-0.106674	0.000067
C47	C	1.389194	-0.166081	0.000055
C48	C	1.504137	-0.202093	0.000050
O49	O	1.288349	-0.254705	0.000068
O50	O	1.716543	-0.278095	0.000025
C51	C	1.730530	0.080819	0.000049
C52	C	1.871422	0.082516	0.000045
C53	C	1.487835	0.188111	0.000008
C54	C	1.489542	0.251339	-0.000012
N55	N	1.498382	0.084035	0.360383
N56	N	1.498457	0.084026	-0.360302
C57	C	1.393237	0.130226	0.580734
C58	C	1.393459	0.130399	0.419567
C59	C	1.630662	0.097553	0.418834
C60	C	1.630087	0.097880	0.580052
C61	C	1.472575	0.024176	0.580312
C62	C	1.469515	0.024564	0.419085
H63	H	1.133224	-0.001874	-0.094785
H64	H	0.916338	-0.004461	0.095309
H65	H	1.106044	0.094848	-0.230346
C66	C	1.260594	0.119422	0.366175
H67	H	1.205994	0.114819	0.443016
H68	H	1.267980	0.085709	0.311111
H69	H	1.225823	0.150979	0.311479
H70	H	0.914735	-0.004357	-0.093599
H71	H	1.279741	-0.731682	-0.000000
C72	C	0.849898	0.176890	0.132054
H73	H	0.795679	0.182788	0.053261
H74	H	0.912741	0.202869	0.129139
H75	H	0.800644	0.183106	0.214485
H76	H	1.294574	0.122217	0.619543
H77	H	1.822652	-0.487605	0.000025
C78	C	0.873996	0.087470	0.266117
H79	H	0.829171	0.055761	0.244062
H80	H	0.819871	0.114731	0.317673
H81	H	0.947216	0.074835	0.320041
C82	C	1.662395	0.155873	0.364266
H83	H	1.742628	0.163670	0.400213
H84	H	1.598130	0.184917	0.393344
H85	H	1.666021	0.155007	0.265567
C86	C	1.732472	-0.764883	-0.000020
H87	H	1.714831	-0.803614	-0.000042
H88	H	1.780287	-0.757752	0.080633
H89	H	1.780275	-0.757734	-0.080690
H90	H	1.282612	-0.623914	-0.000019
H91	H	1.409455	0.174378	0.621220
H92	H	1.409901	0.174802	0.380974
C93	C	0.879174	0.083431	-0.265506
H94	H	0.953586	0.072507	-0.319107
H95	H	0.821293	0.108638	-0.318318
H96	H	0.839776	0.050375	-0.241356
H97	H	1.714231	-0.208014	0.000056
H98	H	0.866815	0.159363	-0.138165
H99	H	1.104360	0.093469	0.230311
H100	H	1.378260	0.011310	0.621049
H101	H	1.541225	-0.011468	0.378804
C102	C	1.090892	0.178792	-0.138735
H103	H	1.141230	0.187007	-0.060845
H104	H	1.012834	0.203168	-0.137513
H105	H	1.136003	0.184930	-0.221963
C106	C	1.093352	0.178053	0.143356
H107	H	1.145037	0.186534	0.066788
H108	H	1.137776	0.183055	0.227649
H109	H	1.016155	0.203030	0.142235
C110	C	1.338069	0.010720	0.367488
H111	H	1.300930	0.041051	0.310401
H112	H	1.284138	0.006303	0.444996
H113	H	1.348051	-0.023733	0.315204
H114	H	1.717094	-0.100245	0.000104
C115	C	1.576225	-0.022282	0.631831
H116	H	1.560078	-0.058349	0.595599
H117	H	1.575007	-0.023585	0.730551
H118	H	1.657541	-0.013573	0.601107
C119	C	1.138020	-0.458761	-0.000065
H120	H	1.069816	-0.428796	-0.000086
H121	H	1.132557	-0.481680	0.080584
H122	H	1.132602	-0.481666	-0.080739
C123	C	1.858817	-0.373158	0.000035
H124	H	1.927023	-0.403121	0.000019
H125	H	1.864259	-0.350247	0.080687
H126	H	1.864253	-0.350243	-0.080636
C127	C	1.264366	-0.067052	0.000054
H128	H	1.282008	-0.028320	0.000047
H129	H	1.216535	-0.074195	0.080699
H130	H	1.216580	-0.074189	-0.080624
H131	H	1.702524	-0.646810	0.000017
H132	H	1.653008	0.141545	0.617628
H133	H	1.174194	-0.344309	-0.000047
H134	H	1.294317	-0.185128	0.000078
H135	H	1.134065	-0.001703	0.094731
H136	H	1.710789	0.065586	0.619054
H137	H	1.710791	0.064822	0.380495
