data_functionalizedCrystal
_audit_creation_method	'MofGen! by Chris Wilmer'
_symmetry_space_group_name_H-M	'P1'
_symmetry_Int_Tables_number	1
_symmetry_cell_setting	triclinic
loop_
_symmetry_equiv_pos_as_xyz
  x,y,z
_cell_length_a	17.699077
_cell_length_b	10.654551
_cell_length_c	16.776229
_cell_angle_alpha	89.997810
_cell_angle_beta	90.006570
_cell_angle_gamma	83.882969
loop_
_atom_site_label
_atom_site_type_symbol
_atom_site_fract_x
_atom_site_fract_y
_atom_site_fract_z
O1	O	1.005092	0.158762	0.066273
O2	O	0.784844	0.179431	0.066276
O3	O	0.900032	-0.013732	0.066275
O4	O	0.889905	0.351924	0.066274
O5	O	0.900015	-0.013721	-0.066302
O6	O	0.784827	0.179441	-0.066301
O7	O	1.005075	0.158772	-0.066304
Zn8	Zn	0.894948	0.169108	-0.087352
Zn9	Zn	0.894971	0.169095	0.087324
O10	O	0.889888	0.351935	-0.066303
C11	C	0.756634	0.178697	-0.000012
C12	C	0.672602	0.176479	-0.000010
C13	C	0.633118	0.175439	-0.072279
C14	C	0.554162	0.173335	-0.072279
C15	C	0.514691	0.172279	-0.000011
C16	C	0.554180	0.173315	0.072263
C17	C	0.633135	0.175411	0.072263
C18	C	0.235763	0.164864	0.072264
C19	C	0.156802	0.162773	0.072259
C20	C	0.156790	0.162789	-0.072278
C21	C	0.235745	0.164884	-0.072278
C22	C	0.275228	0.165913	-0.000005
C23	C	0.360841	0.168192	-0.000005
C24	C	0.429078	0.170009	-0.000010
C25	C	0.899279	-0.060511	-0.000012
C26	C	0.897054	-0.199915	-0.000006
C27	C	0.896019	-0.265415	0.072260
C28	C	0.893922	-0.396398	0.072256
C29	C	0.893898	-0.396373	-0.072286
C30	C	0.895989	-0.265390	-0.072282
C31	C	0.897084	-0.199940	0.144535
C32	C	0.896050	-0.265440	0.216807
C33	C	0.893953	-0.396423	0.216803
C34	C	0.892890	-0.461907	0.144528
C35	C	1.033285	0.159506	-0.000014
C36	C	1.117318	0.161724	-0.000011
C37	C	0.890640	0.398714	-0.000014
C38	C	0.892865	0.538119	-0.000014
N39	N	0.894939	0.169117	-0.206563
C40	C	0.945998	0.083575	-0.751728
C41	C	0.945994	0.083584	-0.668276
C42	C	0.894975	0.169089	-0.626562
C43	C	0.843961	0.254600	-0.668305
C44	C	0.843969	0.254596	-0.751756
C45	C	0.843929	0.254618	-0.331758
C46	C	0.843923	0.254613	-0.248301
C47	C	0.945954	0.083606	-0.248278
C48	C	0.945962	0.083602	-0.331729
C49	C	0.894951	0.169117	-0.373464
C50	C	0.894957	0.169108	-0.463953
C51	C	0.894965	0.169093	-0.536075
N52	N	0.894986	0.169076	0.206535
H53	H	0.267900	0.165698	0.131114
H54	H	0.898794	-0.093287	0.144546
O55	O	0.118420	0.161549	-0.142467
C56	C	0.080742	0.051631	-0.146788
H57	H	0.110136	-0.023729	-0.105777
H58	H	0.019094	0.074616	-0.127376
C59	C	0.047054	0.094873	-0.283502
C60	C	0.083160	0.002310	-0.233136
H61	H	0.048542	0.064451	-0.336766
H62	H	0.072436	0.168929	-0.280590
H63	H	-0.004316	0.114019	-0.267315
H64	H	0.134531	-0.016823	-0.249317
H65	H	0.057787	-0.071751	-0.236053
O66	O	0.515718	0.172341	0.142394
C67	C	0.437565	0.170241	0.126899
H68	H	0.423848	0.209704	0.064789
H69	H	0.422574	0.068939	0.130324
C70	C	0.407823	0.203016	0.265531
C71	C	0.390974	0.251494	0.189249
H72	H	0.379082	0.253131	0.303993
H73	H	0.460476	0.204426	0.275971
H74	H	0.395330	0.118598	0.268374
H75	H	0.403476	0.335904	0.186404
H76	H	0.338322	0.250100	0.178810
O77	O	0.794336	0.337806	-0.207903
C78	C	0.749303	0.413265	-0.262633
H79	H	0.780342	0.414618	-0.322114
H80	H	0.692866	0.372619	-0.271519
C81	C	0.696295	0.547111	-0.157009
C82	C	0.734421	0.548780	-0.230063
H83	H	0.687111	0.630701	-0.136918
H84	H	0.726632	0.496270	-0.120135
H85	H	0.649268	0.513233	-0.164424
H86	H	0.781450	0.582642	-0.222645
H87	H	0.704091	0.599630	-0.266935
H88	H	0.896816	-0.212056	-0.131127
O89	O	0.794428	0.337539	-0.627663
C90	C	0.805369	0.319228	-0.545057
H91	H	0.833133	0.219326	-0.533650
H92	H	0.843694	0.390231	-0.521367
C93	C	0.693942	0.460967	-0.516243
C94	C	0.728037	0.338261	-0.502232
H95	H	0.646242	0.472713	-0.489825
H96	H	0.686572	0.473308	-0.571896
H97	H	0.725888	0.520122	-0.496501
H98	H	0.696096	0.279110	-0.521983
H99	H	0.735400	0.325911	-0.446581
O100	O	0.893044	-0.460210	0.286953
C101	C	0.957275	-0.550384	0.291281
H102	H	0.978763	-0.574810	0.228531
H103	H	1.003908	-0.510014	0.326941
C104	C	0.909023	-0.640425	0.409669
C105	C	0.935412	-0.670433	0.332599
H106	H	0.895539	-0.714475	0.435159
H107	H	0.865751	-0.579670	0.406756
H108	H	0.947888	-0.606781	0.439376
H109	H	0.896544	-0.704061	0.302890
H110	H	0.978677	-0.731197	0.335508
O111	O	0.892974	-0.459867	-0.142540
C112	C	0.958920	-0.442307	-0.186499
H113	H	0.982255	-0.352015	-0.165950
H114	H	1.003563	-0.526126	-0.176481
C115	C	0.910467	-0.542764	-0.301045
C116	C	0.939125	-0.431860	-0.275811
H117	H	0.898259	-0.536326	-0.356137
H118	H	0.866039	-0.554600	-0.271428
H119	H	0.947675	-0.612602	-0.292690
H120	H	0.901914	-0.362027	-0.284157
H121	H	0.983546	-0.420012	-0.305431
O122	O	0.515921	0.172391	-0.142552
C123	C	0.567692	0.173751	-0.206337
H124	H	0.621049	0.214984	-0.185147
H125	H	0.583504	0.073271	-0.228564
C126	C	0.465274	0.204627	-0.300639
C127	C	0.530805	0.255280	-0.274614
H128	H	0.442520	0.254912	-0.342758
H129	H	0.430394	0.203706	-0.257667
H130	H	0.478460	0.120894	-0.319156
H131	H	0.517617	0.339004	-0.256089
H132	H	0.565682	0.256217	-0.317585
H133	H	0.987540	0.013942	-0.785686
H134	H	0.802393	0.324245	-0.365732
H135	H	0.665281	0.176259	0.131111
O136	O	0.896971	-0.201680	0.286964
C137	C	0.832737	-0.111516	0.291297
H138	H	0.811237	-0.087064	0.228549
H139	H	0.786113	-0.151910	0.326948
C140	C	0.881003	-0.021522	0.409701
C141	C	0.854600	0.008518	0.332632
H142	H	0.894487	0.052519	0.435201
H143	H	0.924278	-0.082270	0.406784
H144	H	0.842145	-0.055185	0.439400
H145	H	0.893461	0.042166	0.302931
H146	H	0.811332	0.069275	0.335545
O147	O	0.995572	0.000402	-0.627857
C148	C	1.040613	-0.075052	-0.682569
H149	H	1.009580	-0.076404	-0.742061
H150	H	1.097050	-0.034402	-0.691436
C151	C	1.093613	-0.208898	-0.576922
C152	C	1.055494	-0.210568	-0.649990
H153	H	1.102796	-0.292490	-0.556825
H154	H	1.063270	-0.158061	-0.540061
H155	H	1.140639	-0.175017	-0.584321
H156	H	1.008465	-0.244433	-0.642588
H157	H	1.085830	-0.261414	-0.686849
H158	H	0.891171	-0.568560	0.144531
H159	H	0.802431	0.324221	-0.785737
H160	H	0.665250	0.176309	-0.131128
H161	H	0.987504	0.013972	-0.365689
H162	H	0.267879	0.165750	-0.131126
O163	O	0.118579	0.161688	0.142536
C164	C	0.170354	0.163075	0.206327
H165	H	0.229561	0.124826	0.185144
H166	H	0.171340	0.264002	0.228554
C167	C	0.072883	0.126902	0.300617
C168	C	0.145601	0.079914	0.274601
H169	H	0.057613	0.075609	0.342734
H170	H	0.038000	0.125972	0.257641
H171	H	0.073714	0.211007	0.319134
H172	H	0.144767	-0.004183	0.256075
H173	H	0.180484	0.080827	0.317576
H174	H	0.987492	0.013979	-0.214288
