data_functionalizedCrystal
_audit_creation_method	'MofGen! by Chris Wilmer'
_symmetry_space_group_name_H-M	'P1'
_symmetry_Int_Tables_number	1
_symmetry_cell_setting	triclinic
loop_
_symmetry_equiv_pos_as_xyz
  x,y,z
_cell_length_a	11.026607
_cell_length_b	10.489741
_cell_length_c	10.065875
_cell_angle_alpha	98.879541
_cell_angle_beta	79.302338
_cell_angle_gamma	96.562595
loop_
_atom_site_label
_atom_site_type_symbol
_atom_site_fract_x
_atom_site_fract_y
_atom_site_fract_z
O1	O	1.632468	0.520484	-0.113500
O2	O	1.278630	0.459543	-0.113501
O3	O	1.463599	0.306188	-0.113492
O4	O	1.447499	0.673839	-0.113509
O5	O	1.428329	0.335581	0.113495
O6	O	1.243360	0.488935	0.113486
O7	O	1.597198	0.549877	0.113487
Zn8	Zn	1.414679	0.524073	0.149526
Zn9	Zn	1.461149	0.485347	-0.149540
O10	O	1.412229	0.703232	0.113478
C11	C	1.215686	0.462996	-0.000008
C12	C	1.080679	0.429482	-0.000008
C13	C	1.007682	0.522021	-0.000013
C14	C	0.868146	0.487384	-0.000013
C15	C	1.444748	0.273085	0.000000
C16	C	1.441110	0.130655	-0.000002
C17	C	1.323420	0.036624	-0.000012
C18	C	1.361626	-0.028776	0.111904
C19	C	1.396427	-0.057724	-0.111887
C20	C	1.479350	0.067142	0.112007
C21	C	1.514151	0.038187	-0.111885
C22	C	1.552438	-0.027164	0.000059
C23	C	1.660143	0.546423	-0.000009
C24	C	1.795151	0.579937	-0.000018
C25	C	1.431080	0.736334	-0.000017
C26	C	1.434720	0.878763	-0.000024
N27	N	1.382974	0.550504	0.353630
N28	N	1.492864	0.458908	-0.353644
C29	C	1.450110	0.494533	0.421412
C30	C	1.425718	0.514887	0.578578
H31	H	1.226637	0.065005	0.000100
C32	C	1.154667	-0.037131	0.239431
C33	C	1.274560	-0.068900	0.239631
H34	H	1.100913	-0.061907	0.318278
H35	H	1.155775	0.053615	0.239936
H36	H	1.125998	-0.081574	0.159951
H37	H	1.303233	-0.024449	0.319106
H38	H	1.273456	-0.159663	0.239139
H39	H	1.578609	0.067924	-0.206507
C40	C	1.082479	0.211863	-0.116685
C41	C	1.025607	0.287906	-0.000004
H42	H	1.048487	0.124458	-0.116675
H43	H	1.068497	0.242967	-0.195826
H44	H	1.169025	0.216580	-0.116670
H45	H	0.939062	0.283197	-0.000023
H46	H	1.039578	0.256794	0.079158
H47	H	1.649281	-0.055275	0.000121
C48	C	0.940463	0.731316	-0.116744
C49	C	0.850209	0.721520	-0.000048
H50	H	0.974444	0.818724	-0.116771
H51	H	1.004341	0.677769	-0.116722
H52	H	0.903805	0.704119	-0.195884
H53	H	0.886870	0.748708	0.079092
H54	H	0.786321	0.775086	-0.000058
C55	C	1.709411	0.425762	0.601694
C56	C	1.594737	0.373814	0.567479
H57	H	1.772267	0.373207	0.552954
H58	H	1.727219	0.511080	0.578377
H59	H	1.706521	0.428209	0.696956
H60	H	1.597625	0.371377	0.472218
H61	H	1.576926	0.288474	0.590787
H62	H	1.361318	-0.111898	-0.206513
H63	H	1.514387	0.121184	0.206730
H64	H	1.525641	0.431539	0.363091
H65	H	1.307434	0.613486	0.411952
C66	C	1.153023	0.673406	-0.116701
C67	C	1.062758	0.663595	-0.000017
H68	H	1.187015	0.760812	-0.116703
H69	H	1.216892	0.619844	-0.116686
H70	H	1.116371	0.646234	-0.195849
H71	H	1.099413	0.690758	0.079131
H72	H	0.998879	0.717176	-0.000019
C73	C	0.685506	0.338892	-0.000019
C74	C	0.813076	0.345802	-0.000014
H75	H	0.651512	0.251486	-0.000029
H76	H	0.646945	0.390484	0.079132
H77	H	0.671548	0.370003	-0.079180
H78	H	0.827033	0.314700	0.079152
H79	H	0.851648	0.294192	-0.079173
C80	C	1.209174	0.547809	0.622887
C81	C	1.323736	0.599920	0.657296
H82	H	1.146217	0.600300	0.671493
H83	H	1.212194	0.545298	0.527608
H84	H	1.191409	0.462491	0.646247
H85	H	1.341505	0.685234	0.633927
H86	H	1.320717	0.602444	0.752597
