data_functionalizedCrystal
_audit_creation_method	'MofGen! by Chris Wilmer'
_symmetry_space_group_name_H-M	'P1'
_symmetry_Int_Tables_number	1
_symmetry_cell_setting	triclinic
loop_
_symmetry_equiv_pos_as_xyz
  x,y,z
_cell_length_a	18.050589
_cell_length_b	19.805407
_cell_length_c	19.805399
_cell_angle_alpha	89.978486
_cell_angle_beta	89.976299
_cell_angle_gamma	90.027468
loop_
_atom_site_label
_atom_site_type_symbol
_atom_site_fract_x
_atom_site_fract_y
_atom_site_fract_z
Zn1	Zn	-0.295681	1.034709	-0.382828
Zn2	Zn	0.204319	1.534709	0.117172
Zn3	Zn	-0.419876	1.034626	-0.269650
Zn4	Zn	0.080124	1.534626	0.230350
Zn5	Zn	-0.295703	0.921529	-0.269644
Zn6	Zn	0.204297	1.421529	0.230356
Zn7	Zn	-0.419832	0.921484	-0.382788
Zn8	Zn	0.080168	1.421484	0.117212
O9	O	-0.357773	0.978087	-0.326227
O10	O	0.142227	1.478087	0.173773
O11	O	-0.312165	1.129415	-0.367834
O12	O	0.187835	1.629415	0.132166
O13	O	-0.403432	1.019607	-0.174933
O14	O	0.096568	1.519607	0.325067
O15	O	-0.191776	0.936597	-0.284672
O16	O	0.308224	1.436597	0.215328
O17	O	-0.403411	1.129353	-0.284683
O18	O	0.096589	1.629353	0.215317
O19	O	-0.191760	1.019750	-0.367828
O20	O	0.308240	1.519750	0.132172
O21	O	-0.312203	0.936516	-0.174928
O22	O	0.187797	1.436516	0.325072
O23	O	-0.312160	0.826807	-0.284633
O24	O	0.187840	1.326807	0.215367
O25	O	-0.403336	0.936519	-0.477510
O26	O	0.096664	1.436519	0.022490
O27	O	-0.403357	0.826773	-0.367759
O28	O	0.096643	1.326773	0.132241
O29	O	-0.312122	1.019706	-0.477539
O30	O	0.187878	1.519706	0.022461
O31	O	-0.523795	1.019563	-0.284644
O32	O	-0.023795	1.519563	0.215356
O33	O	-0.523763	0.936438	-0.367766
O34	O	-0.023763	1.436438	0.132234
C35	C	-0.357757	0.802231	-0.326191
C36	C	0.142243	1.302231	0.173809
C37	C	-0.357767	0.726999	-0.326192
C38	C	0.142233	1.226999	0.173808
C39	C	-0.405349	0.265208	-0.369487
C40	C	0.094651	0.765208	0.130513
C41	C	-0.405348	0.335897	-0.369473
C42	C	0.094652	0.835897	0.130527
C43	C	-0.357791	0.371237	-0.326254
C44	C	0.142209	0.871237	0.173746
C45	C	-0.310238	0.335886	-0.283042
C46	C	0.189762	0.835886	0.216958
C47	C	-0.310244	0.265199	-0.283053
C48	C	0.189756	0.765199	0.216947
C49	C	-0.310215	0.620959	-0.282994
C50	C	0.189785	1.120959	0.217006
C51	C	-0.310212	0.691651	-0.282988
C52	C	0.189788	1.191651	0.217012
C53	C	-0.405319	0.691657	-0.369414
C54	C	0.094681	1.191657	0.130586
C55	C	-0.405325	0.620970	-0.369425
C56	C	0.094675	1.120970	0.130575
C57	C	-0.357775	0.585625	-0.326211
C58	C	0.142225	1.085625	0.173789
C59	C	-0.357778	0.508976	-0.326226
C60	C	0.142222	1.008976	0.173774
C61	C	-0.357784	0.447884	-0.326242
C62	C	0.142216	0.947884	0.173758
C63	C	-0.550725	0.978005	-0.326216
C64	C	-0.050725	1.478005	0.173784
C65	C	-0.633271	0.978032	-0.326234
C66	C	-0.133271	1.478032	0.173766
C67	C	-0.832731	0.932873	-0.371420
C68	C	-0.332731	1.432873	0.128580
C69	C	-0.882171	0.916378	-0.309655
C70	C	-0.382171	1.416378	0.190345
C71	C	-0.784402	0.978099	-0.326243
C72	C	-0.284402	1.478099	0.173757
C73	C	-0.882043	0.994627	-0.388014
C74	C	-0.382043	1.494627	0.111986
C75	C	-0.930387	0.978162	-0.326257
C76	C	-0.430387	1.478162	0.173743
C77	C	-0.832755	0.961571	-0.264446
C78	C	-0.332755	1.461571	0.235554
C79	C	-0.832622	1.039849	-0.342846
C80	C	-0.332622	1.539849	0.157154
C81	C	-0.882040	1.023377	-0.281039
C82	C	-0.382040	1.523377	0.218961
C83	C	-0.700303	0.978061	-0.326236
C84	C	-0.200303	1.478061	0.173764
C85	C	-1.014483	0.978200	-0.326257
C86	C	-0.514483	1.478200	0.173743
C87	C	-0.164068	0.978187	-0.326254
C88	C	0.335932	1.478187	0.173746
C89	C	-0.081522	0.978230	-0.326265
C90	C	0.418478	1.478230	0.173735
C91	C	-0.357722	0.978117	-0.502770
C92	C	0.142278	1.478117	-0.002770
C93	C	-0.357700	0.978129	-0.578002
C94	C	0.142300	1.478129	-0.078002
C95	C	-0.357791	1.154630	-0.326264
C96	C	0.142209	1.654630	0.173736
C97	C	-0.357798	1.229862	-0.326280
C98	C	0.142202	1.729862	0.173720
C99	C	-0.310192	0.934876	-0.613343
C100	C	0.189808	1.434876	-0.113343
C101	C	-0.310178	0.934885	-0.684032
C102	C	0.189822	1.434885	-0.184032
C103	C	-0.357668	0.978152	-0.719378
C104	C	0.142332	1.478152	-0.219378
C105	C	-0.405181	1.021407	-0.684032
C106	C	0.094819	1.521407	-0.184032
C107	C	-0.405198	1.021394	-0.613345
C108	C	0.094802	1.521394	-0.113345
C109	C	-0.405111	1.021461	-0.969105
C110	C	0.094889	1.521461	-0.469105
C111	C	-0.405088	1.021472	-1.039797
C112	C	0.094912	1.521472	-0.539797
C113	C	-0.310091	0.934952	-1.039792
C114	C	0.189909	1.434952	-0.539792
C115	C	-0.310108	0.934939	-0.969105
C116	C	0.189892	1.434939	-0.469105
C117	C	-0.357624	0.978191	-0.933765
C118	C	0.142376	1.478191	-0.433765
C119	C	-0.357640	0.978180	-0.857117
C120	C	0.142360	1.478180	-0.357117
C121	C	-0.357648	0.978167	-0.796025
C122	C	0.142352	1.478167	-0.296025
C123	C	-0.357771	0.978096	-0.150371
C124	C	0.142229	1.478096	0.349629
C125	C	-0.357584	0.978215	-0.075140
C126	C	0.142416	1.478215	0.424860
H127	H	-0.271500	0.592189	-0.247804
H128	H	0.228500	1.092189	0.252196
H129	H	-0.444048	0.592199	-0.404620
H130	H	0.055952	1.092199	0.095380
H131	H	-0.443878	1.056621	-0.584571
H132	H	0.056122	1.556621	-0.084571
H133	H	-0.903554	1.061650	-0.242797
H134	H	-0.403554	1.561650	0.257203
O135	O	-0.451238	1.063414	-0.934678
O136	O	0.048762	1.563414	-0.434678
C137	C	-0.493346	1.101774	-0.825785
C138	C	0.006654	1.601774	-0.325785
C139	C	-0.441081	1.054214	-0.864693
C140	C	0.058919	1.554214	-0.364693
H141	H	-0.485141	1.094362	-0.769196
H142	H	0.014859	1.594362	-0.269196
H143	H	-0.553240	1.089858	-0.839624
H144	H	-0.053240	1.589858	-0.339624
H145	H	-0.480313	1.156353	-0.839737
H146	H	0.019687	1.656353	-0.339737
H147	H	-0.454047	0.999619	-0.850762
H148	H	0.045953	1.499619	-0.350762
H149	H	-0.381202	1.066187	-0.850850
H150	H	0.118798	1.566187	-0.350850
O151	O	-0.264045	0.892856	-1.074152
O152	O	0.235955	1.392856	-0.574152
C153	C	-0.254020	0.801514	-1.153968
C154	C	0.245980	1.301514	-0.653968
C155	C	-0.306250	0.849131	-1.115089
C156	C	0.193750	1.349131	-0.615089
H157	H	-0.288120	0.766160	-1.187085
H158	H	0.211880	1.266160	-0.687085
H159	H	-0.220093	0.770542	-1.116591
H160	H	0.279907	1.270542	-0.616591
H161	H	-0.215168	0.832628	-1.187046
H162	H	0.284832	1.332628	-0.687046
H163	H	-0.345146	0.818070	-1.082009
H164	H	0.154854	1.318070	-0.582009
H165	H	-0.340125	0.880106	-1.152501
H166	H	0.159875	1.380106	-0.652501
H167	H	-0.444039	0.720444	-0.404599
H168	H	0.055961	1.220444	0.095401
O169	O	-0.451458	0.370199	-0.411544
O170	O	0.048542	0.870199	0.088456
C171	C	-0.487691	0.391837	-0.526620
C172	C	0.012309	0.891837	-0.026620
C173	C	-0.435410	0.352962	-0.479049
C174	C	0.064590	0.852962	0.020951
H175	H	-0.474745	0.377904	-0.581207
H176	H	0.025255	0.877904	-0.081207
H177	H	-0.479524	0.448438	-0.519249
H178	H	0.020476	0.948438	-0.019249
H179	H	-0.547554	0.377913	-0.514612
H180	H	-0.047554	0.877913	-0.014612
H181	H	-0.375527	0.366829	-0.491028
H182	H	0.124473	0.866829	0.008972
H183	H	-0.443642	0.296370	-0.486429
H184	H	0.056358	0.796370	0.013571
O185	O	-0.806667	1.102077	-0.359736
O186	O	-0.306667	1.602077	0.140264
C187	C	-0.802325	1.189841	-0.443943
C188	C	-0.302325	1.689841	0.056057
C189	C	-0.831755	1.119357	-0.424898
C190	C	-0.331755	1.619357	0.075102
H191	H	-0.822609	1.203840	-0.496622
H192	H	-0.322609	1.703840	0.003378
H193	H	-0.739173	1.189348	-0.443333
H194	H	-0.239173	1.689348	0.056667
H195	H	-0.823448	1.228541	-0.405945
H196	H	-0.323448	1.728541	0.094055
H197	H	-0.810686	1.080618	-0.462877
H198	H	-0.310686	1.580618	0.037123
H199	H	-0.894905	1.119907	-0.425488
H200	H	-0.394905	1.619907	0.074512
O201	O	-0.264065	0.370318	-0.241122
O202	O	0.235935	0.870318	0.258878
C203	C	-0.221932	0.479210	-0.202774
C204	C	0.278068	0.979210	0.297226
C205	C	-0.274251	0.440302	-0.250292
C206	C	0.225749	0.940302	0.249708
H207	H	-0.230160	0.535799	-0.210161
H208	H	0.269840	1.035799	0.289839
H209	H	-0.162051	0.465389	-0.214755
H210	H	0.337949	0.965389	0.285245
H211	H	-0.234890	0.465238	-0.148186
H212	H	0.265110	0.965238	0.351814
H213	H	-0.261360	0.454253	-0.304896
H214	H	0.238640	0.954253	0.195104
H215	H	-0.334117	0.454126	-0.238252
H216	H	0.165883	0.954126	0.261748
O217	O	-0.451297	1.063522	-1.074029
O218	O	0.048703	1.563522	-0.574029
C219	C	-0.545504	1.149362	-1.066579
C220	C	-0.045504	1.649362	-0.566579
C221	C	-0.493229	1.101767	-1.027728
C222	C	0.006771	1.601767	-0.527728
H223	H	-0.579409	1.180305	-1.029161
H224	H	-0.079409	1.680305	-0.529161
H225	H	-0.584368	1.118301	-1.099644
H226	H	-0.084368	1.618301	-0.599644
H227	H	-0.511392	1.184750	-1.099702
H228	H	-0.011392	1.684750	-0.599702
H229	H	-0.527281	1.066369	-0.994568
H230	H	-0.027281	1.566369	-0.494568
H231	H	-0.454363	1.132870	-0.994705
H232	H	0.045637	1.632870	-0.494705
O233	O	-0.907785	1.011201	-0.450378
O234	O	-0.407785	1.511201	0.049622
C235	C	-0.911959	0.982179	-0.568461
C236	C	-0.411959	1.482179	-0.068461
C237	C	-0.882747	0.963348	-0.497874
C238	C	-0.382747	1.463348	0.002126
H239	H	-0.891740	0.943493	-0.606878
H240	H	-0.391740	1.443493	-0.106878
H241	H	-0.890706	1.034406	-0.583033
H242	H	-0.390706	1.534406	-0.083033
H243	H	-0.975109	0.982558	-0.567716
H244	H	-0.475109	1.482558	-0.067716
H245	H	-0.819599	0.962931	-0.498564
H246	H	-0.319599	1.462931	0.001436
H247	H	-0.904057	0.911134	-0.483329
H248	H	-0.404057	1.411134	0.016671
O249	O	-0.264037	0.892781	-0.579116
O250	O	0.235963	1.392781	-0.079116
C251	C	-0.169782	0.806986	-0.586580
C252	C	0.330218	1.306986	-0.086580
C253	C	-0.222025	0.854616	-0.625424
C254	C	0.277975	1.354616	-0.125424
H255	H	-0.135791	0.776127	-0.624003
H256	H	0.364209	1.276127	-0.124003
H257	H	-0.203849	0.771525	-0.553493
H258	H	0.296151	1.271525	-0.053493
H259	H	-0.130991	0.838083	-0.553479
H260	H	0.369009	1.338083	-0.053479
H261	H	-0.260826	0.823574	-0.658561
H262	H	0.239174	1.323574	-0.158561
H263	H	-0.187912	0.890078	-0.658468
H264	H	0.312088	1.390078	-0.158468
H265	H	-0.271483	0.720423	-0.247792
H266	H	0.228517	1.220423	0.252208
H267	H	-0.443852	1.056632	-0.712816
H268	H	0.056148	1.556632	-0.212816
H269	H	-0.271521	0.236420	-0.247871
H270	H	0.228479	0.736420	0.252129
H271	H	-0.271495	0.899661	-0.712803
H272	H	0.228505	1.399661	-0.212803
H273	H	-0.811080	0.894572	-0.409570
H274	H	-0.311080	1.394572	0.090430
H275	H	-0.811193	0.947556	-0.212197
H276	H	-0.311193	1.447556	0.287803
O277	O	-0.451438	0.230850	-0.411543
O278	O	0.048562	0.730850	0.088457
C279	C	-0.461564	0.151056	-0.502896
C280	C	0.038436	0.651056	-0.002896
C281	C	-0.409281	0.189935	-0.455321
C282	C	0.090719	0.689935	0.044679
H283	H	-0.427502	0.117956	-0.538293
H284	H	0.072498	0.617956	-0.038293
H285	H	-0.495539	0.188432	-0.533824
H286	H	0.004461	0.688432	-0.033824
H287	H	-0.500369	0.117960	-0.471751
H288	H	-0.000369	0.617960	0.028249
H289	H	-0.370431	0.223032	-0.486413
H290	H	0.129569	0.723032	0.013587
H291	H	-0.375359	0.152522	-0.424390
H292	H	0.124641	0.652522	0.075610
O293	O	-0.908105	0.854072	-0.293013
O294	O	-0.408105	1.354072	0.206987
C295	C	-0.912367	0.735925	-0.321770
C296	C	-0.412367	1.235925	0.178230
C297	C	-0.882967	0.806451	-0.340698
C298	C	-0.382967	1.306451	0.159302
H299	H	-0.892042	0.697402	-0.360305
H300	H	-0.392042	1.197402	0.139695
H301	H	-0.975519	0.736637	-0.321485
H302	H	-0.475519	1.236637	0.178515
H303	H	-0.891261	0.721518	-0.269471
H304	H	-0.391261	1.221518	0.230529
H305	H	-0.904018	0.820902	-0.393000
H306	H	-0.404018	1.320902	0.107000
H307	H	-0.819816	0.805701	-0.340936
H308	H	-0.319816	1.305701	0.159064
O309	O	-0.263953	0.892845	-0.934875
O310	O	0.236047	1.392845	-0.434875
C311	C	-0.169696	0.807052	-0.942333
C312	C	0.330304	1.307052	-0.442333
C313	C	-0.221939	0.854680	-0.981180
C314	C	0.278061	1.354680	-0.481180
H315	H	-0.135702	0.776193	-0.979753
H316	H	0.364298	1.276193	-0.479753
H317	H	-0.203763	0.771592	-0.909246
H318	H	0.296237	1.271592	-0.409246
H319	H	-0.130907	0.838151	-0.909232
H320	H	0.369093	1.338151	-0.409232
H321	H	-0.260738	0.823635	-1.014318
H322	H	0.239262	1.323635	-0.514318
H323	H	-0.187825	0.890141	-1.014225
H324	H	0.312175	1.390141	-0.514225
