data_functionalizedCrystal
_audit_creation_method	'MofGen! by Chris Wilmer'
_symmetry_space_group_name_H-M	'P1'
_symmetry_Int_Tables_number	1
_symmetry_cell_setting	triclinic
loop_
_symmetry_equiv_pos_as_xyz
  x,y,z
_cell_length_a	17.699083
_cell_length_b	11.792241
_cell_length_c	16.176319
_cell_angle_alpha	89.993071
_cell_angle_beta	89.998611
_cell_angle_gamma	83.738215
loop_
_atom_site_label
_atom_site_type_symbol
_atom_site_fract_x
_atom_site_fract_y
_atom_site_fract_z
O1	O	1.004844	0.143527	-0.068631
O2	O	0.784565	0.162200	-0.068658
O3	O	0.900050	-0.012371	-0.068638
O4	O	0.889359	0.318098	-0.068651
O5	O	0.900034	-0.012382	0.068855
O6	O	0.784549	0.162189	0.068835
O7	O	1.004828	0.143516	0.068862
Cu8	Cu	0.894687	0.152851	0.081403
Cu9	Cu	0.894706	0.152865	-0.081199
O10	O	0.889343	0.318087	0.068842
C11	C	0.756356	0.161525	0.000085
C12	C	0.672328	0.159518	0.000075
C13	C	0.899370	-0.054660	0.000108
C14	C	0.897360	-0.180649	0.000107
C15	C	0.624253	0.261988	0.000071
C16	C	0.545299	0.260095	0.000082
C17	C	0.514422	0.155731	0.000091
C18	C	0.562503	0.053254	0.000097
C19	C	0.641455	0.055148	0.000092
C20	C	0.244099	0.045613	0.000118
C21	C	0.165141	0.043727	0.000120
C22	C	0.147944	0.250560	0.000108
C23	C	0.226896	0.252454	0.000103
C24	C	0.274970	0.149977	0.000113
C25	C	0.360580	0.152031	0.000103
C26	C	0.428814	0.153676	0.000095
C27	C	0.893664	-0.411317	0.000093
C28	C	0.895718	-0.282956	0.000101
C29	C	1.033036	0.144190	0.000117
C30	C	1.117065	0.146198	0.000122
C31	C	0.890022	0.360375	0.000094
C32	C	0.892032	0.486365	0.000090
N33	N	0.894679	0.152841	0.195768
N34	N	0.894720	0.152865	-0.195564
C35	C	0.945831	0.075573	0.239041
C36	C	0.945835	0.075572	0.325588
C37	C	0.894690	0.152845	0.368861
C38	C	0.843532	0.230118	0.325582
C39	C	0.843525	0.230113	0.239036
C40	C	0.843558	0.230139	0.674610
C41	C	0.843570	0.230140	0.761161
C42	C	0.945868	0.075598	0.761162
C43	C	0.945861	0.075593	0.674617
C44	C	0.894701	0.152861	0.631345
C45	C	0.894697	0.152860	0.537501
C46	C	0.894697	0.152853	0.462703
H47	H	0.649386	0.346973	0.000064
H48	H	0.987511	0.012673	0.639387
O49	O	0.995502	0.000366	0.367528
C50	C	0.982742	-0.111971	0.346408
H51	H	0.953559	-0.111783	0.283578
H52	H	1.039408	-0.167956	0.343438
H53	H	0.944942	-0.147013	0.395130
O54	O	0.498708	0.359739	0.000040
C55	C	0.542891	0.452258	0.000048
H56	H	0.601690	0.423288	-0.025988
H57	H	0.514061	0.524043	-0.039873
H58	H	0.548649	0.484256	0.066007
H59	H	0.801919	0.293068	0.796392
H60	H	0.987523	0.012679	0.796403
O61	O	0.256982	0.353759	0.000197
C62	C	0.302128	0.361053	0.071409
H63	H	0.321419	0.271544	0.095159
H64	H	0.354010	0.406143	0.055381
H65	H	0.267463	0.411368	0.121270
O66	O	0.532637	-0.048225	0.000139
C67	C	0.592003	-0.138262	0.000120
H68	H	0.645760	-0.106597	0.026150
H69	H	0.575206	-0.211146	0.040039
H70	H	0.603045	-0.169850	-0.065842
H71	H	0.801903	0.293055	0.639385
H72	H	0.108792	0.334002	0.000103
H73	H	0.801884	0.293032	0.360819
O74	O	0.135272	-0.057757	0.000170
C75	C	0.194632	-0.147801	0.000159
H76	H	0.248392	-0.116139	0.026186
H77	H	0.177832	-0.220674	0.040086
H78	H	0.205673	-0.179404	-0.065799
H79	H	0.801871	0.293031	0.203804
O80	O	0.290866	-0.053857	0.000007
C81	C	0.337034	-0.058961	-0.071214
H82	H	0.341402	0.031116	-0.094956
H83	H	0.396191	-0.101415	-0.055203
H84	H	0.310844	-0.110712	-0.121076
H85	H	0.680598	-0.028294	0.000095
H86	H	0.987483	0.012653	0.203814
