data_functionalizedCrystal
_audit_creation_method	'MofGen! by Chris Wilmer'
_symmetry_space_group_name_H-M	'P1'
_symmetry_Int_Tables_number	1
_symmetry_cell_setting	triclinic
loop_
_symmetry_equiv_pos_as_xyz
  x,y,z
_cell_length_a	12.759401
_cell_length_b	19.121063
_cell_length_c	19.121595
_cell_angle_alpha	90.075983
_cell_angle_beta	87.546681
_cell_angle_gamma	92.469017
loop_
_atom_site_label
_atom_site_type_symbol
_atom_site_fract_x
_atom_site_fract_y
_atom_site_fract_z
Zn1	Zn	1.615432	-0.262215	-0.408236
Zn2	Zn	2.115432	0.237785	0.091764
Zn3	Zn	1.600337	-0.384455	-0.295992
Zn4	Zn	2.100337	0.115545	0.204008
Zn5	Zn	1.431947	-0.267234	-0.291019
Zn6	Zn	1.931947	0.232766	0.208981
Zn7	Zn	1.432520	-0.379418	-0.413196
Zn8	Zn	1.932520	0.120582	0.086804
O9	O	1.520059	-0.323330	-0.352111
O10	O	2.020059	0.176670	0.147889
O11	O	1.760451	-0.278437	-0.393352
O12	O	2.260451	0.221563	0.106648
O13	O	1.571443	-0.373113	-0.197227
O14	O	2.071443	0.126887	0.302773
O15	O	1.462365	-0.168461	-0.302410
O16	O	1.962365	0.331539	0.197590
O17	O	1.749360	-0.368246	-0.310887
O18	O	2.249360	0.131754	0.189113
O19	O	1.597170	-0.164773	-0.388529
O20	O	2.097170	0.335227	0.111471
O21	O	1.447728	-0.286992	-0.193573
O22	O	1.947728	0.213008	0.306427
O23	O	1.285002	-0.282109	-0.307220
O24	O	1.785002	0.217891	0.192780
O25	O	1.463341	-0.359663	-0.510643
O26	O	1.963341	0.140337	-0.010643
O27	O	1.285423	-0.364530	-0.396983
O28	O	1.785423	0.135470	0.103017
O29	O	1.597726	-0.273554	-0.506999
O30	O	2.097726	0.226446	-0.006999
O31	O	1.571998	-0.481894	-0.315697
O32	O	2.071998	0.018106	0.184303
O33	O	1.448704	-0.478194	-0.401806
O34	O	1.948704	0.021806	0.098194
C35	C	1.247092	-0.323318	-0.352100
C36	C	1.747092	0.176682	0.147900
C37	C	1.130315	-0.323329	-0.352114
C38	C	1.630315	0.176671	0.147886
C39	C	1.075691	-0.366320	-0.398782
C40	C	1.575691	0.133680	0.101218
C41	C	0.965967	-0.366329	-0.398790
C42	C	1.465967	0.133671	0.101210
C43	C	0.965501	-0.280352	-0.305455
C44	C	1.465501	0.219648	0.194545
C45	C	1.075224	-0.280341	-0.305451
C46	C	1.575224	0.219659	0.194549
C47	C	1.075958	-0.415961	-0.452666
C48	C	1.575958	0.084039	0.047334
C49	C	0.966234	-0.415969	-0.452674
C50	C	1.466234	0.084031	0.047326
C51	C	1.508804	-0.505481	-0.359845
C52	C	2.008804	-0.005481	0.140155
C53	C	1.504087	-0.583405	-0.363177
C54	C	2.004087	-0.083405	0.136823
C55	C	1.566119	-0.621916	-0.319947
C56	C	2.066119	-0.121916	0.180053
C57	C	1.561689	-0.695133	-0.323085
C58	C	2.061689	-0.195133	0.176915
C59	C	1.495221	-0.729839	-0.369449
C60	C	1.995221	-0.229839	0.130551
C61	C	1.433187	-0.691324	-0.412684
C62	C	1.933187	-0.191324	0.087316
C63	C	1.437624	-0.618107	-0.409549
C64	C	1.937624	-0.118107	0.090451
C65	C	1.478617	-0.950810	-0.381159
C66	C	1.978617	-0.450810	0.118841
C67	C	1.474184	-1.024032	-0.384289
C68	C	1.974184	-0.524032	0.115711
C69	C	1.602687	-1.027837	-0.294691
C70	C	2.102687	-0.527837	0.205309
C71	C	1.607112	-0.954619	-0.291557
C72	C	2.107112	-0.454619	0.208443
C73	C	1.545083	-0.916109	-0.334794
C74	C	2.045083	-0.416109	0.165206
C75	C	1.490689	-0.804679	-0.372657
C76	C	1.990689	-0.304679	0.127343
C77	C	1.549621	-0.841270	-0.331590
C78	C	2.049621	-0.341270	0.168410
C79	C	1.794092	-0.323343	-0.352121
C80	C	2.294092	0.176657	0.147879
C81	C	1.910869	-0.323349	-0.352126
C82	C	2.410869	0.176651	0.147874
C83	C	1.532281	-0.315486	-0.534970
C84	C	2.032281	0.184514	-0.034970
C85	C	1.537489	-0.312144	-0.612894
C86	C	2.037489	0.187856	-0.112894
C87	C	1.531387	-0.140467	-0.344362
C88	C	2.031387	0.359533	0.155638
C89	C	1.536215	-0.062542	-0.341060
C90	C	2.036215	0.437458	0.158940
C91	C	1.469971	-0.355402	-0.651401
C92	C	1.969971	0.144598	-0.151401
C93	C	1.474873	-0.352261	-0.724619
C94	C	1.974873	0.147739	-0.224619
C95	C	1.547290	-0.305858	-0.759328
C96	C	2.047290	0.194142	-0.259328
C97	C	1.614815	-0.262598	-0.720816
C98	C	2.114815	0.237402	-0.220816
C99	C	1.609917	-0.265742	-0.647600
C100	C	2.109917	0.234258	-0.147600
C101	C	1.565584	-0.294123	-0.980299
C102	C	2.065584	0.205877	-0.480299
C103	C	1.570474	-0.290980	-1.053521
C104	C	2.070474	0.209020	-0.553521
C105	C	1.430533	-0.380645	-1.057319
C106	C	1.930533	0.119355	-0.557319
C107	C	1.425637	-0.383783	-0.984101
C108	C	1.925637	0.116217	-0.484101
C109	C	1.493166	-0.340525	-0.945595
C110	C	1.993166	0.159475	-0.445595
C111	C	1.552300	-0.302645	-0.834169
C112	C	2.052300	0.197355	-0.334169
C113	C	1.488160	-0.343742	-0.870757
C114	C	1.988160	0.156258	-0.370757
C115	C	1.507948	-0.331093	-0.169960
C116	C	2.007948	0.168907	0.330040
C117	C	1.502956	-0.334239	-0.092028
C118	C	2.002956	0.165761	0.407972
H119	H	1.119696	-0.245328	-0.267453
H120	H	1.619696	0.254672	0.232547
H121	H	0.936855	-0.394394	-0.503467
H122	H	1.436855	0.105606	-0.003467
H123	H	0.920633	-0.245353	-0.267464
H124	H	1.420633	0.254647	0.232536
F125	F	1.348557	-0.433169	-0.947166
F126	F	1.848557	0.066831	-0.447166
F127	F	1.403425	-1.060967	-0.433632
F128	F	1.903425	-0.560967	0.066368
H129	H	1.603743	-0.813011	-0.293843
H130	H	2.103743	-0.313011	0.206157
F131	F	1.120803	-0.394018	-0.522864
F132	F	1.620803	0.105982	-0.022864
F133	F	1.114589	-0.484442	-0.430044
F134	F	1.614589	0.015558	0.069956
H135	H	1.612200	-0.726486	-0.287882
H136	H	2.112200	-0.226486	0.212118
F137	F	1.677868	-0.917687	-0.242217
F138	F	2.177868	-0.417687	0.257783
F139	F	1.392890	-0.404788	-0.614468
F140	F	1.892890	0.095212	-0.114468
F141	F	1.412598	-0.909835	-0.427176
F142	F	1.912598	-0.409835	0.072824
H143	H	1.379073	-0.719587	-0.450438
H144	H	1.879073	-0.219587	0.049562
H145	H	1.419894	-0.387488	-0.755969
H146	H	1.919894	0.112512	-0.255969
H147	H	1.673783	-0.224818	-0.749082
H148	H	2.173783	0.275182	-0.249082
F149	F	1.419950	-0.841622	-0.421999
F150	F	1.919950	-0.341622	0.078001
H151	H	0.932131	-0.470876	-0.440348
H152	H	1.432131	0.029124	0.059652
H153	H	1.620239	-0.593663	-0.282189
H154	H	2.120239	-0.093663	0.217811
F155	F	1.629368	-0.253259	-0.871115
F156	F	2.129368	0.246741	-0.371115
F157	F	1.371604	-0.577122	-0.455562
F158	F	1.871604	-0.077122	0.044438
H159	H	1.375555	-0.415863	-1.088678
H160	H	1.875555	0.084137	-0.588678
H161	H	1.629441	-0.253186	-1.081779
H162	H	2.129441	0.246814	-0.581779
H163	H	1.620571	-0.258900	-0.948957
H164	H	2.120571	0.241100	-0.448957
H165	H	1.653189	-1.059199	-0.259491
H166	H	2.153189	-0.559199	0.240509
F167	F	1.681783	-0.219703	-0.606618
F168	F	2.181783	0.280297	-0.106618
F169	F	1.411095	-0.393129	-0.833815
F170	F	1.911095	0.106871	-0.333815
