data_functionalizedCrystal
_audit_creation_method	'MofGen! by Chris Wilmer'
_symmetry_space_group_name_H-M	'P1'
_symmetry_Int_Tables_number	1
_symmetry_cell_setting	triclinic
loop_
_symmetry_equiv_pos_as_xyz
  x,y,z
_cell_length_a	12.837943
_cell_length_b	9.730223
_cell_length_c	12.837942
_cell_angle_alpha	90.000465
_cell_angle_beta	85.171060
_cell_angle_gamma	90.002084
loop_
_atom_site_label
_atom_site_type_symbol
_atom_site_fract_x
_atom_site_fract_y
_atom_site_fract_z
O1	O	1.402333	0.114264	-0.272133
O2	O	1.099200	0.114272	-0.258690
O3	O	1.244045	0.114260	-0.113845
O4	O	1.257488	0.114276	-0.416978
O5	O	1.244035	-0.114320	-0.113853
O6	O	1.099190	-0.114308	-0.258698
O7	O	1.402324	-0.114316	-0.272141
Zn8	Zn	1.250756	-0.150604	-0.265421
Zn9	Zn	1.250768	0.150560	-0.265410
O10	O	1.257479	-0.114303	-0.416986
C11	C	1.060126	-0.000017	-0.254153
C12	C	0.943711	-0.000014	-0.240608
N13	N	1.250755	-0.356140	-0.265428
C14	C	0.718837	-0.000025	-0.403437
C15	C	0.609454	-0.000023	-0.390716
C16	C	0.615562	-0.000018	-0.202445
C17	C	0.724944	-0.000020	-0.215166
C18	C	0.776578	-0.000021	-0.315666
C19	C	0.885962	-0.000013	-0.328386
C20	C	0.892067	-0.000018	-0.140116
C21	C	0.782685	-0.000017	-0.127395
C22	C	1.320515	-0.428077	-0.335223
C23	C	1.320529	-0.571960	-0.335205
C24	C	1.181012	-0.571956	-0.195593
C25	C	1.181004	-0.428076	-0.195607
C26	C	1.390266	-0.356142	-0.405044
C27	C	1.460031	-0.428079	-0.474845
C28	C	1.460045	-0.571962	-0.474827
C29	C	1.390293	-0.643908	-0.405007
C30	C	1.441398	-0.000024	-0.276679
C31	C	1.557813	-0.000018	-0.290223
C32	C	1.239499	-0.000029	-0.074780
C33	C	1.225954	-0.000027	0.041635
N34	N	1.250777	0.356097	-0.265396
C35	C	1.262025	-0.000011	-0.456052
C36	C	1.275569	-0.000005	-0.572467
C37	C	1.388784	-0.000002	0.266510
C38	C	1.376062	0.000000	0.375892
C39	C	1.187791	-0.000009	0.369785
C40	C	1.200513	-0.000011	0.260402
C41	C	1.301012	-0.000010	0.208769
C42	C	1.313732	-0.000023	0.099384
C43	C	1.125462	-0.000022	0.093279
C44	C	1.112741	-0.000019	0.202661
H45	H	0.760878	-0.000023	-0.485268
O46	O	0.553523	0.000041	-0.476089
C47	C	0.559013	-0.000044	-0.664171
C48	C	0.622482	-0.000082	-0.567572
H49	H	0.614740	-0.000173	-0.738159
H50	H	0.507682	0.095640	-0.662998
H51	H	0.507619	-0.095681	-0.662861
H52	H	0.673936	0.095489	-0.568819
H53	H	0.673747	-0.095830	-0.568782
O54	O	1.113137	-0.358400	-0.127775
C55	C	0.974797	-0.373567	0.010743
C56	C	1.051581	-0.452646	-0.066042
H57	H	0.925024	-0.449730	0.060689
H58	H	0.921987	-0.306259	-0.034951
H59	H	1.020596	-0.306151	0.063389
H60	H	1.005868	-0.520135	-0.118706
H61	H	1.104391	-0.519866	-0.020282
O62	O	1.411427	0.000047	0.049389
C63	C	1.596822	-0.000003	0.066997
C64	C	1.486242	-0.000058	0.123744
H65	H	1.657340	-0.000118	0.127087
H66	H	1.607547	0.095680	0.015971
H67	H	1.607439	-0.095641	0.015909
H68	H	1.475548	0.095514	0.174886
H69	H	1.475568	-0.095805	0.174705
H70	H	1.516858	-0.630530	-0.531655
H71	H	0.939092	-0.000006	-0.068646
O72	O	1.015101	0.000222	0.252777
C73	C	0.850270	0.118588	0.280975
C74	C	0.960827	0.118505	0.224175
H75	H	0.806350	0.214194	0.257855
H76	H	0.856192	0.118683	0.369083
H77	H	0.806394	0.022878	0.257981
H78	H	1.004764	0.214198	0.247083
H79	H	0.954830	0.118338	0.136080
H80	H	0.573502	-0.000131	-0.120623
H81	H	1.105969	0.000005	0.411844
H82	H	0.928000	-0.000016	-0.410218
H83	H	0.740630	-0.000032	-0.045571
H84	H	1.390260	-0.238985	-0.405069
H85	H	1.516826	-0.369492	-0.531684
H86	H	1.390319	-0.761067	-0.404989
H87	H	1.124222	-0.630545	-0.138751
H88	H	1.470614	-0.000015	0.224469
H89	H	1.447536	0.000011	0.422901
H90	H	1.053992	-0.000040	0.046254
