data_functionalizedCrystal
_audit_creation_method	'MofGen! by Chris Wilmer'
_symmetry_space_group_name_H-M	'P1'
_symmetry_Int_Tables_number	1
_symmetry_cell_setting	triclinic
loop_
_symmetry_equiv_pos_as_xyz
  x,y,z
_cell_length_a	18.050591
_cell_length_b	19.121063
_cell_length_c	18.050582
_cell_angle_alpha	92.415032
_cell_angle_beta	89.979078
_cell_angle_gamma	92.465257
loop_
_atom_site_label
_atom_site_type_symbol
_atom_site_fract_x
_atom_site_fract_y
_atom_site_fract_z
Zn1	Zn	1.122676	-0.279734	-0.432630
Zn2	Zn	1.117290	-0.397178	-0.313729
Zn3	Zn	0.998495	-0.279737	-0.308441
Zn4	Zn	0.993148	-0.397141	-0.437863
O5	O	1.057903	-0.338447	-0.373166
O6	O	1.225886	-0.295327	-0.416880
O7	O	1.101515	-0.381616	-0.209104
O8	O	1.019460	-0.181452	-0.320512
O9	O	1.221929	-0.381613	-0.329524
O10	O	1.110695	-0.181449	-0.411753
O11	O	1.014237	-0.295332	-0.205219
O12	O	0.893862	-0.295296	-0.325586
O13	O	1.010347	-0.381550	-0.541093
O14	O	0.889934	-0.381552	-0.420672
O15	O	1.105510	-0.295291	-0.537248
O16	O	1.096331	-0.495458	-0.334599
O17	O	1.005124	-0.495430	-0.425799
C18	C	0.864952	-0.338421	-0.373123
C19	C	0.782406	-0.338427	-0.373124
C20	C	0.585072	-0.291466	-0.321528
C21	C	0.532763	-0.355526	-0.306137
C22	C	0.631274	-0.338448	-0.373158
C23	C	0.536500	-0.274410	-0.388548
C24	C	0.485288	-0.338463	-0.373190
C25	C	0.580051	-0.402542	-0.357733
C26	C	0.583794	-0.321383	-0.440174
C27	C	0.531506	-0.385487	-0.424811
C28	C	0.715373	-0.338439	-0.373138
C29	C	0.401191	-0.338480	-0.373211
C30	C	1.049583	-0.520928	-0.381357
C31	C	1.046092	-0.598994	-0.384886
C32	C	1.091975	-0.635661	-0.339100
C33	C	1.088695	-0.709012	-0.342424
C34	C	1.039529	-0.745696	-0.391530
C35	C	0.993644	-0.709024	-0.437321
C36	C	0.996928	-0.635674	-0.434001
C37	C	1.027241	-0.967166	-0.403932
C38	C	1.023960	-1.040521	-0.407247
C39	C	1.119012	-1.040504	-0.312351
C40	C	1.122288	-0.967153	-0.309032
C41	C	1.076406	-0.930487	-0.354825
C42	C	1.036174	-0.820673	-0.394927
C43	C	1.079765	-0.855512	-0.351432
C44	C	1.251607	-0.338474	-0.373208
C45	C	1.334152	-0.338485	-0.373227
C46	C	1.057933	-0.338416	-0.566870
C47	C	1.057946	-0.338403	-0.649415
C48	C	1.066275	-0.155254	-0.364959
C49	C	1.069843	-0.077188	-0.361461
C50	C	1.006237	-0.385246	-0.850954
C51	C	1.073218	-0.402419	-0.901126
C52	C	1.057985	-0.338349	-0.800543
C53	C	0.991042	-0.321157	-0.897452
C54	C	1.058017	-0.338299	-0.946526
C55	C	1.125000	-0.355556	-0.849629
C56	C	1.042780	-0.274264	-0.845950
C57	C	1.109809	-0.291412	-0.896099
C58	C	1.057966	-0.338380	-0.716446
C59	C	1.058044	-0.338268	-1.030621
C60	C	1.057917	-0.338428	-0.180213
C61	C	1.058057	-0.338243	-0.097659
H62	H	0.608520	-0.251778	-0.277822
N63	N	0.951398	-0.435071	-0.825996
N64	N	0.970130	-0.484375	-0.787738
H65	H	0.931405	-0.519567	-0.770111
N66	N	1.165888	-1.077946	-0.265578
N67	N	1.209784	-1.045185	-0.221737
H68	H	1.242893	-1.071627	-0.188702
H69	H	0.606202	-0.306918	-0.496817
H70	H	0.599186	-0.456720	-0.344666
H71	H	0.517235	-0.220255	-0.401527
H72	H	1.132008	-0.605798	-0.299109
H73	H	1.086097	-0.456593	-0.925266
H74	H	0.983931	-1.070387	-0.447248
N75	N	1.026607	-0.206318	-0.815651
N76	N	1.014514	-0.157906	-0.857876
H77	H	1.003086	-0.109918	-0.836478
N78	N	0.943432	-0.746504	-0.487485
N79	N	0.940506	-0.811994	-0.490444
H80	H	0.905043	-0.838464	-0.525872
N81	N	1.135580	-0.746455	-0.295660
N82	N	1.179479	-0.713694	-0.251822
H83	H	1.212598	-0.740137	-0.218796
N84	N	1.172513	-0.929695	-0.258863
N85	N	1.213476	-0.962442	-0.217985
H86	H	1.248946	-0.935987	-0.182551
N87	N	0.504685	-0.373646	-0.235054
N88	N	0.522166	-0.336313	-0.178731
H89	H	0.502340	-0.349106	-0.128526
N90	N	0.502262	-0.435398	-0.479603
N91	N	0.515364	-0.498784	-0.475537
H92	H	0.494711	-0.534035	-0.514232
H93	H	0.989881	-0.937319	-0.441218
H94	H	0.959566	-0.605821	-0.471285
N95	N	1.129974	-0.818034	-0.301269
N96	N	1.105695	-0.777148	-0.252075
H97	H	1.141153	-0.750672	-0.216645
N98	N	0.985949	-0.858159	-0.445072
N99	N	0.936817	-0.899142	-0.420740
H100	H	0.901346	-0.925620	-0.456155
H101	H	1.181639	-0.370137	-0.828690
H102	H	1.153633	-0.251732	-0.915852
H103	H	0.934417	-0.306637	-0.918486
