data_functionalizedCrystal
_audit_creation_method	'MofGen! by Chris Wilmer'
_symmetry_space_group_name_H-M	'P1'
_symmetry_Int_Tables_number	1
_symmetry_cell_setting	triclinic
loop_
_symmetry_equiv_pos_as_xyz
  x,y,z
_cell_length_a	14.908506
_cell_length_b	14.908742
_cell_length_c	21.295420
_cell_angle_alpha	86.712408
_cell_angle_beta	86.704355
_cell_angle_gamma	89.836538
loop_
_atom_site_label
_atom_site_type_symbol
_atom_site_fract_x
_atom_site_fract_y
_atom_site_fract_z
Zn1	Zn	-0.437446	1.353880	0.318905
Zn2	Zn	-0.587747	1.345110	0.220045
Zn3	Zn	-0.428741	1.203532	0.219368
Zn4	Zn	-0.579098	1.194815	0.330994
O5	O	-0.508258	1.274334	0.272328
O6	O	-0.464646	1.478537	0.301016
O7	O	-0.566631	1.326307	0.131866
O8	O	-0.304069	1.230794	0.227229
O9	O	-0.575071	1.472094	0.228383
O10	O	-0.310464	1.341254	0.300359
O11	O	-0.449810	1.222290	0.131368
O12	O	-0.441424	1.076555	0.238951
O13	O	-0.560331	1.215937	0.417480
O14	O	-0.551890	1.070151	0.320962
O15	O	-0.456259	1.332802	0.408598
O16	O	-0.712426	1.317855	0.240105
O17	O	-0.706072	1.207434	0.321619
C18	C	-0.494775	1.040729	0.281195
C19	C	-0.489028	0.940791	0.285004
C20	C	-0.741876	1.260771	0.282260
C21	C	-0.841823	1.255051	0.286526
C22	C	-0.423538	0.803277	0.328251
C23	C	-0.428930	0.897178	0.324675
C24	C	-0.543741	0.890495	0.248908
C25	C	-0.538350	0.796593	0.252485
C26	C	-0.478245	0.752988	0.292157
C27	C	-0.472850	0.659085	0.295729
C28	C	-0.587665	0.652402	0.219966
C29	C	-0.593057	0.746304	0.216390
C30	C	-0.979416	1.189454	0.334944
C31	C	-0.885507	1.194826	0.330939
C32	C	-0.892056	1.309909	0.246116
C33	C	-0.985966	1.304537	0.250121
C34	C	-1.029643	1.244306	0.294536
C35	C	-1.123554	1.238929	0.298537
C36	C	-1.130102	1.354016	0.213717
C37	C	-1.036192	1.359389	0.209713
C38	C	-0.273729	1.287975	0.262370
C39	C	-0.173787	1.293788	0.258127
C40	C	-0.508301	1.274375	0.436518
C41	C	-0.508320	1.274393	0.506486
C42	C	-0.521794	1.508851	0.263427
C43	C	-0.527563	1.608789	0.259633
C44	C	-0.454139	1.335235	0.534730
C45	C	-0.454123	1.335222	0.600473
C46	C	-0.508305	1.274376	0.637969
C47	C	-0.562490	1.213522	0.609718
C48	C	-0.562497	1.213531	0.543976
N49	N	-0.586604	1.262890	0.744805
N50	N	-0.586594	1.262888	0.807256
C51	C	-0.508285	1.274345	0.836044
N52	N	-0.429985	1.285823	0.800021
N53	N	-0.429995	1.285831	0.737564
C54	C	-0.508303	1.274360	0.709255
C55	C	-0.454082	1.335177	0.935573
C56	C	-0.454065	1.335158	1.001317
C57	C	-0.562439	1.213462	1.010561
C58	C	-0.562449	1.213477	0.944818
C59	C	-0.508272	1.274339	0.907328
C60	C	-0.508242	1.274296	1.108777
C61	C	-0.508246	1.274310	1.038809
H62	H	-0.374590	0.767773	0.360547
N63	N	-0.620901	1.147852	0.914363
H64	H	-0.664686	1.181964	0.887483
H65	H	-0.581897	1.108325	0.887138
H66	H	-1.171006	1.398681	0.180814
H67	H	-0.384381	0.938121	0.354067
N68	N	-0.408033	0.612052	0.338522
H69	H	-0.412915	0.544934	0.335311
H70	H	-0.344731	0.632178	0.325445
H71	H	-0.409939	1.384702	1.024311
H72	H	-0.410023	1.384793	0.504210
N73	N	-0.395683	1.400846	0.630947
H74	H	-0.361363	1.439402	0.597221
H75	H	-0.434690	1.440317	0.658212
N76	N	-0.620915	1.147881	0.650155
H77	H	-0.612687	1.157105	0.696089
H78	H	-0.685944	1.158127	0.640877
H79	H	-0.592678	0.926015	0.216611
N80	N	-0.657880	0.793338	0.173603
H81	H	-0.652995	0.860455	0.176813
H82	H	-0.642823	0.777717	0.128688
H83	H	-0.632213	0.611447	0.190577
H84	H	-1.159114	1.189889	0.334703
N85	N	-0.620924	1.147894	0.513509
H86	H	-0.655241	1.109338	0.547236
H87	H	-0.664656	1.182065	0.486622
N88	N	-1.026526	1.124485	0.382840
H89	H	-1.010966	1.139338	0.426601
H90	H	-1.093624	1.129433	0.379190
N91	N	-0.831335	1.135654	0.374517
H92	H	-0.765215	1.148194	0.365241
H93	H	-0.848531	1.148667	0.419652
H94	H	-0.409963	1.384729	0.905047
H95	H	-0.856483	1.358954	0.209959
N96	N	-0.989082	1.424353	0.161814
H97	H	-0.921969	1.419436	0.165409
H98	H	-1.004712	1.409458	0.118079
H99	H	-0.606546	1.163911	1.041090
