data_functionalizedCrystal
_audit_creation_method	'MofGen! by Chris Wilmer'
_symmetry_space_group_name_H-M	'P1'
_symmetry_Int_Tables_number	1
_symmetry_cell_setting	triclinic
loop_
_symmetry_equiv_pos_as_xyz
  x,y,z
_cell_length_a	10.489711
_cell_length_b	12.837942
_cell_length_c	11.892095
_cell_angle_alpha	85.697431
_cell_angle_beta	86.060095
_cell_angle_gamma	90.322026
loop_
_atom_site_label
_atom_site_type_symbol
_atom_site_fract_x
_atom_site_fract_y
_atom_site_fract_z
O1	O	1.717558	-0.139661	-0.094044
O2	O	1.347876	-0.153434	-0.094038
O3	O	1.524519	0.004416	-0.094034
O4	O	1.540915	-0.297510	-0.094048
O5	O	1.509788	-0.008725	0.093973
O6	O	1.333145	-0.166574	0.093970
O7	O	1.702827	-0.152801	0.093963
Zn8	Zn	1.515647	-0.161774	0.123816
Zn9	Zn	1.535056	-0.144461	-0.123891
O10	O	1.526184	-0.310651	0.093959
C11	C	1.292864	-0.158970	-0.000033
C12	C	1.150891	-0.155878	-0.000030
C13	C	0.978972	-0.250803	-0.000048
C14	C	1.073152	-0.196907	-0.092741
C15	C	1.058599	-0.209837	0.092619
C16	C	0.992129	-0.096413	-0.092824
C17	C	0.977561	-0.109364	0.092619
C18	C	1.071708	-0.055393	-0.000097
C19	C	1.511615	0.036507	-0.000031
C20	C	1.495098	0.151706	-0.000032
C21	C	1.757839	-0.147264	-0.000044
C22	C	1.899812	-0.150356	-0.000054
C23	C	1.539088	-0.342742	-0.000046
C24	C	1.555606	-0.457940	-0.000052
N25	N	1.502411	-0.173590	0.292870
C26	C	1.693676	0.391201	-0.000060
C27	C	1.678162	0.499441	-0.000061
C28	C	1.448557	0.476430	-0.000045
C29	C	1.464071	0.368189	-0.000044
C30	C	1.586634	0.325579	-0.000049
C31	C	1.602147	0.217336	-0.000039
C32	C	1.372544	0.194327	-0.000032
C33	C	1.357030	0.302567	-0.000033
N34	N	1.548301	-0.132637	-0.292945
C35	C	1.640399	-0.050361	0.529521
C36	C	1.631157	-0.058627	0.647863
C37	C	1.474679	-0.198383	0.647897
C38	C	1.483921	-0.190117	0.529556
C39	C	1.566785	-0.116104	0.470372
C40	C	1.576033	-0.107843	0.352028
C41	C	1.419549	-0.247594	0.352065
C42	C	1.410307	-0.255860	0.470406
H43	H	0.938391	-0.333356	-0.000144
H44	H	1.793470	0.356507	-0.000053
H45	H	1.114973	-0.233934	-0.171108
H46	H	1.407204	-0.258636	0.696101
C47	C	0.952500	-0.031648	-0.198816
H48	H	0.861919	-0.030078	-0.198199
H49	H	0.985041	0.037578	-0.199084
H50	H	0.986075	-0.062510	-0.264561
C51	C	1.736955	0.170460	-0.000045
H52	H	1.730867	0.096596	-0.000032
H53	H	1.786715	0.197504	-0.065611
H54	H	1.776446	0.188349	0.065522
C55	C	1.319170	-0.337272	0.535515
H56	H	1.324214	-0.332785	0.614467
H57	H	1.234108	-0.323993	0.516139
H58	H	1.342984	-0.405273	0.516116
C59	C	1.731547	0.031040	0.464410
H60	H	1.726514	0.026542	0.385459
H61	H	1.707762	0.099043	0.483807
H62	H	1.816612	0.017740	0.483785
C63	C	1.222221	0.349445	-0.000020
H64	H	1.228310	0.423307	-0.000015
H65	H	1.182718	0.331556	-0.065574
H66	H	1.172471	0.322400	0.065559
H67	H	1.112058	0.027245	-0.000139
H68	H	0.935716	-0.072375	0.170993
C69	C	1.795907	0.571622	-0.000066
H70	H	1.871117	0.530738	-0.000061
H71	H	1.799763	0.618906	-0.065628
H72	H	1.789492	0.609742	0.065505
C73	C	1.313753	0.523314	-0.000040
H74	H	1.319850	0.597177	-0.000038
H75	H	1.274253	0.505426	-0.065596
H76	H	1.263994	0.496275	0.065537
H77	H	1.691099	-0.005091	0.696019
H78	H	1.088103	-0.257833	0.170985
C79	C	1.254794	0.122141	-0.000030
H80	H	1.281584	0.051574	-0.000037
H81	H	1.199943	0.130575	0.065532
H82	H	1.210224	0.139733	-0.065601
C83	C	1.667183	-0.026441	0.286921
H84	H	1.662159	-0.030940	0.207969
H85	H	1.643394	0.041561	0.306316
H86	H	1.752246	-0.039740	0.306303
H87	H	1.359612	-0.301130	0.303892
