data_functionalizedCrystal
_audit_creation_method	'MofGen! by Chris Wilmer'
_symmetry_space_group_name_H-M	'P1'
_symmetry_Int_Tables_number	1
_symmetry_cell_setting	triclinic
loop_
_symmetry_equiv_pos_as_xyz
  x,y,z
_cell_length_a	12.811445
_cell_length_b	12.837942
_cell_length_c	13.448316
_cell_angle_alpha	89.994234
_cell_angle_beta	84.561830
_cell_angle_gamma	89.412982
loop_
_atom_site_label
_atom_site_type_symbol
_atom_site_fract_x
_atom_site_fract_y
_atom_site_fract_z
O1	O	1.406657	0.139724	-0.209532
O2	O	1.102590	0.154905	-0.182116
O3	O	1.247881	-0.003617	-0.195210
O4	O	1.261366	0.298247	-0.196438
O5	O	1.247860	-0.003627	-0.029824
O6	O	1.102569	0.154895	-0.016730
O7	O	1.406636	0.139714	-0.044147
Cu8	Cu	1.254600	0.147304	-0.015337
Cu9	Cu	1.254625	0.147315	-0.210925
O10	O	1.261345	0.298237	-0.031052
C11	C	1.063390	0.154048	-0.095889
C12	C	0.946617	0.151496	-0.085360
C13	C	1.243315	-0.042263	-0.112107
C14	C	1.229729	-0.157399	-0.110884
C15	C	0.727207	0.146732	-0.245897
C16	C	0.617488	0.144335	-0.236009
C17	C	0.617457	0.144312	-0.055695
C18	C	0.727176	0.146709	-0.065584
C19	C	0.782047	0.147917	-0.160688
C20	C	0.891769	0.150307	-0.170576
C21	C	0.891736	0.150292	0.009737
C22	C	0.782016	0.147895	0.019625
C23	C	1.393060	-0.397648	-0.125631
C24	C	1.380299	-0.505830	-0.124482
C25	C	1.191448	-0.481944	-0.107444
C26	C	1.204209	-0.373763	-0.108593
C27	C	1.305018	-0.331620	-0.117685
C28	C	1.317777	-0.223436	-0.118827
C29	C	1.128927	-0.199553	-0.101796
C30	C	1.116167	-0.307734	-0.100647
C31	C	1.445836	0.140571	-0.130375
C32	C	1.562609	0.143123	-0.140911
C33	C	1.265911	0.336882	-0.114158
C34	C	1.279497	0.452018	-0.115388
N35	N	1.254590	0.147295	0.122228
N36	N	1.254643	0.147316	-0.348491
C37	C	1.318950	0.077130	0.168468
C38	C	1.318957	0.077129	0.272571
C39	C	1.254608	0.147299	0.330431
C40	C	1.190241	0.217467	0.284184
C41	C	1.190230	0.217462	0.180084
C42	C	1.190271	0.217474	0.501162
C43	C	1.190283	0.217481	0.605269
C44	C	1.318998	0.077142	0.593648
C45	C	1.318987	0.077137	0.489548
C46	C	1.254620	0.147306	0.443308
H47	H	0.936443	0.151290	-0.248015
H48	H	1.371389	0.020004	0.442437
H49	H	1.399861	-0.189125	-0.126227
Br50	Br	1.499790	-0.595439	-0.135273
Br51	Br	1.102900	0.312693	0.362706
H52	H	1.137820	0.274596	0.142437
H53	H	0.737325	0.146915	0.097056
H54	H	1.475142	-0.363335	-0.133025
Br55	Br	0.801681	0.148352	-0.374962
H56	H	1.109374	-0.516277	-0.100052
H57	H	0.936398	0.151256	0.079120
Br58	Br	0.543064	0.142733	-0.351654
H59	H	0.572762	0.143338	0.021734
Br60	Br	0.979362	-0.364939	-0.088321
Br61	Br	1.406294	-0.018098	0.089953
Br62	Br	1.009434	-0.109936	-0.090994
Br63	Br	1.406299	-0.018099	0.335329
Br64	Br	1.406355	-0.018082	0.656404
Br65	Br	1.102949	0.312715	0.683787
H66	H	1.137853	0.274611	0.463518
