data_functionalizedCrystal
_audit_creation_method	'MofGen! by Chris Wilmer'
_symmetry_space_group_name_H-M	'P1'
_symmetry_Int_Tables_number	1
_symmetry_cell_setting	triclinic
loop_
_symmetry_equiv_pos_as_xyz
  x,y,z
_cell_length_a	19.805407
_cell_length_b	19.120786
_cell_length_c	19.805399
_cell_angle_alpha	87.531070
_cell_angle_beta	89.979591
_cell_angle_gamma	92.466982
loop_
_atom_site_label
_atom_site_type_symbol
_atom_site_fract_x
_atom_site_fract_y
_atom_site_fract_z
Zn1	Zn	1.023246	-0.279610	-0.371232
Zn2	Zn	1.356579	0.053723	-0.037898
Zn3	Zn	1.689912	0.387056	0.295435
Zn4	Zn	1.018334	-0.397069	-0.253211
Zn5	Zn	1.351667	-0.063736	0.080122
Zn6	Zn	1.685000	0.269597	0.413455
Zn7	Zn	0.910059	-0.279634	-0.258054
Zn8	Zn	1.243393	0.053700	0.075280
Zn9	Zn	1.576726	0.387033	0.408613
Zn10	Zn	0.905198	-0.397036	-0.366358
Zn11	Zn	1.238532	-0.063703	-0.033024
Zn12	Zn	1.571865	0.269631	0.300309
O13	O	0.964209	-0.338337	-0.312214
O14	O	1.297542	-0.005004	0.021120
O15	O	1.630876	0.328329	0.354453
O16	O	1.117310	-0.295196	-0.355589
O17	O	1.450644	0.038138	-0.022256
O18	O	1.783977	0.371471	0.311077
O19	O	1.003949	-0.381515	-0.159136
O20	O	1.337283	-0.048182	0.174197
O21	O	1.670616	0.285152	0.507531
O22	O	0.929164	-0.181340	-0.277133
O23	O	1.262497	0.151993	0.056200
O24	O	1.595830	0.485326	0.389533
O25	O	1.113701	-0.381492	-0.268880
O26	O	1.447035	-0.048159	0.064453
O27	O	1.780368	0.285174	0.397786
O28	O	1.012321	-0.181323	-0.360285
O29	O	1.345654	0.152010	-0.026951
O30	O	1.678988	0.485344	0.306382
O31	O	0.924401	-0.295235	-0.162694
O32	O	1.257734	0.038098	0.170640
O33	O	1.591067	0.371431	0.503973
O34	O	0.814698	-0.295203	-0.272407
O35	O	1.148031	0.038130	0.060926
O36	O	1.481365	0.371464	0.394259
O37	O	0.920879	-0.381436	-0.461722
O38	O	1.254212	-0.048102	-0.128389
O39	O	1.587545	0.285231	0.204945
O40	O	0.811127	-0.381458	-0.351978
O41	O	1.144460	-0.048125	-0.018645
O42	O	1.477793	0.285208	0.314689
O43	O	1.007608	-0.295163	-0.465303
O44	O	1.340941	0.038170	-0.131969
O45	O	1.674274	0.371503	0.201364
O46	O	0.999236	-0.495355	-0.264154
O47	O	1.332569	-0.162022	0.069179
O48	O	1.665903	0.171311	0.402513
O49	O	0.916116	-0.495331	-0.347282
O50	O	1.249449	-0.161998	-0.013949
O51	O	1.582783	0.171336	0.319384
C52	C	0.788353	-0.338330	-0.312190
C53	C	1.121687	-0.004997	0.021144
C54	C	1.455020	0.328337	0.354477
C55	C	0.713121	-0.338344	-0.312195
C56	C	1.046454	-0.005011	0.021139
C57	C	1.379787	0.328323	0.354472
C58	C	0.253209	-0.293487	-0.357452
C59	C	0.586543	0.039847	-0.024119
C60	C	0.919876	0.373180	0.309215
C61	C	0.323898	-0.293488	-0.357447
C62	C	0.657231	0.039845	-0.024114
C63	C	0.990564	0.373179	0.309219
C64	C	0.357359	-0.338348	-0.312235
C65	C	0.690692	-0.005015	0.021098
C66	C	1.024026	0.328319	0.354432
C67	C	0.320128	-0.383215	-0.267030
C68	C	0.653461	-0.049881	0.066304
C69	C	0.986795	0.283452	0.399637
C70	C	0.249441	-0.383217	-0.267038
C71	C	0.582774	-0.049883	0.066295
C72	C	0.916107	0.283450	0.399628
C73	C	0.605201	-0.383209	-0.266994
C74	C	0.938535	-0.049876	0.066339
C75	C	1.271868	0.283457	0.399673
C76	C	0.675894	-0.383203	-0.266987
C77	C	1.009227	-0.049869	0.066346
C78	C	1.342560	0.283464	0.399679
C79	C	0.679658	-0.293481	-0.357403
C80	C	1.012992	0.039853	-0.024070
C81	C	1.346325	0.373186	0.309264
C82	C	0.608971	-0.293483	-0.357412
C83	C	0.942304	0.039851	-0.024078
C84	C	1.275638	0.373184	0.309255
C85	C	0.571746	-0.338352	-0.312209
C86	C	0.905079	-0.005018	0.021124
C87	C	1.238413	0.328315	0.354458
C88	C	0.495098	-0.338351	-0.312216
C89	C	0.828431	-0.005017	0.021118
C90	C	1.161764	0.328316	0.354451
C91	C	0.434006	-0.338346	-0.312225
C92	C	0.767339	-0.005013	0.021109
C93	C	1.100673	0.328321	0.354442
C94	C	0.956634	-0.520829	-0.304679
C95	C	1.289967	-0.187495	0.028655
C96	C	1.623300	0.145838	0.361988
C97	C	0.953455	-0.598899	-0.301478
C98	C	1.286788	-0.265566	0.031856
C99	C	1.620122	0.067767	0.365189
C100	C	0.995225	-0.635508	-0.343302
C101	C	1.328558	-0.302174	-0.009968
C102	C	1.661891	0.031159	0.323365
C103	C	0.992235	-0.708863	-0.340295
C104	C	1.325569	-0.375530	-0.006962
C105	C	1.658902	-0.042197	0.326371
C106	C	0.947479	-0.745609	-0.295461
C107	C	1.280812	-0.412276	0.037872
C108	C	1.614145	-0.078942	0.371206
C109	C	0.905704	-0.708996	-0.253636
C110	C	1.239037	-0.375662	0.079698
C111	C	1.572371	-0.042329	0.413031
C112	C	0.908691	-0.635641	-0.256646
C113	C	1.242024	-0.302308	0.076688
C114	C	1.575357	0.031025	0.410021
C115	C	0.936293	-0.967095	-0.284207
C116	C	1.269627	-0.633762	0.049126
C117	C	1.602960	-0.300428	0.382459
C118	C	0.933311	-1.040454	-0.281199
C119	C	1.266645	-0.707121	0.052134
C120	C	1.599978	-0.373788	0.385468
C121	C	1.019842	-1.040317	-0.367860
C122	C	1.353175	-0.706984	-0.034527
C123	C	1.686508	-0.373650	0.298807
C124	C	1.022827	-0.966961	-0.370863
C125	C	1.356161	-0.633628	-0.037530
C126	C	1.689494	-0.300295	0.295803
C127	C	0.981050	-0.930354	-0.329040
C128	C	1.314384	-0.597021	0.004293
C129	C	1.647717	-0.263688	0.337626
C130	C	0.944423	-0.820590	-0.292385
C131	C	1.277756	-0.487257	0.040948
C132	C	1.611090	-0.153924	0.374281
C133	C	0.984103	-0.855374	-0.332120
C134	C	1.317436	-0.522041	0.001214
C135	C	1.650770	-0.188708	0.334547
C136	C	1.140751	-0.338345	-0.312238
C137	C	1.474085	-0.005012	0.021095
C138	C	1.807418	0.328322	0.354428
C139	C	1.215983	-0.338348	-0.312249
C140	C	1.549317	-0.005015	0.021085
C141	C	1.882650	0.328318	0.354418
C142	C	0.964249	-0.338293	-0.488758
C143	C	1.297582	-0.004960	-0.155425
C144	C	1.630916	0.328374	0.177908
C145	C	0.964266	-0.338274	-0.563991
C146	C	1.297599	-0.004941	-0.230658
C147	C	1.630933	0.328392	0.102676
C148	C	0.971833	-0.155133	-0.319793
C149	C	1.305166	0.178200	0.013540
C150	C	1.638499	0.511533	0.346874
C151	C	0.975081	-0.077063	-0.323023
C152	C	1.308414	0.256271	0.010311
C153	C	1.641748	0.589604	0.343644
C154	C	1.009427	-0.293350	-0.601201
C155	C	1.342760	0.039983	-0.267868
C156	C	1.676093	0.373317	0.065466
C157	C	1.009434	-0.293330	-0.671890
C158	C	1.342768	0.040004	-0.338557
C159	C	1.676101	0.373337	-0.005224
C160	C	0.964284	-0.338238	-0.705368
C161	C	1.297617	-0.004904	-0.372035
C162	C	1.630951	0.328429	-0.038702
C163	C	0.919119	-0.383164	-0.668153
C164	C	1.252452	-0.049830	-0.334820
C165	C	1.585785	0.283503	-0.001487
C166	C	0.919108	-0.383180	-0.597465
C167	C	1.252441	-0.049847	-0.264132
C168	C	1.585775	0.283487	0.069201
C169	C	0.919159	-0.383098	-0.953229
C170	C	1.252493	-0.049765	-0.619896
C171	C	1.585826	0.283568	-0.286563
C172	C	0.919175	-0.383080	-1.023922
C173	C	1.252508	-0.049747	-0.690589
C174	C	1.585841	0.283587	-0.357256
C175	C	1.009486	-0.293248	-1.027654
C176	C	1.342819	0.040085	-0.694321
C177	C	1.676152	0.373419	-0.360988
C178	C	1.009475	-0.293264	-0.956966
C179	C	1.342809	0.040069	-0.623633
C180	C	1.676142	0.373402	-0.290300
C181	C	0.964308	-0.338187	-0.919758
C182	C	1.297641	-0.004854	-0.586424
C183	C	1.630974	0.328479	-0.253091
C184	C	0.964299	-0.338208	-0.843109
C185	C	1.297632	-0.004875	-0.509775
C186	C	1.630965	0.328459	-0.176442
C187	C	0.964296	-0.338221	-0.782016
C188	C	1.297629	-0.004888	-0.448683
C189	C	1.630962	0.328446	-0.115349
C190	C	0.964211	-0.338331	-0.136358
C191	C	1.297544	-0.004997	0.196975
C192	C	1.630877	0.328336	0.530309
C193	C	0.964333	-0.338152	-0.061134
C194	C	1.297666	-0.004818	0.272200
C195	C	1.631000	0.328515	0.605533
H196	H	0.354204	-0.256959	-0.394258
H197	H	0.687537	0.076374	-0.060925
H198	H	1.020871	0.409707	0.272408
O199	O	1.053208	-0.249609	-0.708064
O200	O	1.386542	0.083724	-0.374731
O201	O	1.719875	0.417057	-0.041398
C202	C	1.016564	-0.204239	-0.750827
C203	C	1.349898	0.129095	-0.417493
C204	C	1.683231	0.462428	-0.084160
H205	H	0.963432	-0.199912	-0.729692
H206	H	1.296765	0.133421	-0.396359
H207	H	1.630099	0.466755	-0.063025
H208	H	1.043289	-0.150183	-0.753860
H209	H	1.376623	0.183150	-0.420527
H210	H	1.709956	0.516484	-0.087193
H211	H	1.013340	-0.225932	-0.803505
H212	H	1.346674	0.107401	-0.470172
H213	H	1.680007	0.440735	-0.136838
H214	H	0.882405	-0.419651	-1.051178
H215	H	1.215738	-0.086317	-0.717845
H216	H	1.549072	0.247016	-0.384511
O217	O	0.220735	-0.249985	-0.401466
O218	O	0.554068	0.083349	-0.068133
O219	O	0.887401	0.416682	0.265201
C220	C	0.237413	-0.265417	-0.468260
C221	C	0.570746	0.067916	-0.134927
C222	C	0.904079	0.401249	0.198406
H223	H	0.254514	-0.321534	-0.469267
H224	H	0.587848	0.011799	-0.135934
H225	H	0.921181	0.345133	0.197399
H226	H	0.191192	-0.259414	-0.501964
H227	H	0.524526	0.073919	-0.168630
H228	H	0.857859	0.407252	0.164703
H229	H	0.280016	-0.227784	-0.487561
H230	H	0.613350	0.105550	-0.154228
H231	H	0.946683	0.438883	0.179105
H232	H	0.882354	-0.419726	-0.695417
H233	H	1.215687	-0.086393	-0.362083
H234	H	1.549021	0.246941	-0.028750
H235	H	1.046261	-0.256667	-1.057958
H236	H	1.379595	0.076667	-0.724625
H237	H	1.712928	0.410000	-0.391292
H238	H	0.709975	-0.256948	-0.394211
H239	H	1.043309	0.076385	-0.060878
H240	H	1.376642	0.409718	0.272456
H241	H	0.902278	-0.937295	-0.250152
H242	H	1.235611	-0.603962	0.083181
H243	H	1.568945	-0.270629	0.416514
O244	O	0.352737	-0.426726	-0.223135
O245	O	0.686071	-0.093393	0.110199
O246	O	1.019404	0.239940	0.443532
C247	C	0.423110	-0.417117	-0.232829
C248	C	0.756444	-0.083784	0.100505
C249	C	1.089777	0.249550	0.433838
H250	H	0.435026	-0.362941	-0.257317
H251	H	0.768359	-0.029608	0.076016
H252	H	1.101693	0.303726	0.409350
H253	H	0.449755	-0.421811	-0.181924
H254	H	0.783088	-0.088478	0.151409
H255	H	1.116421	0.244856	0.484742
H256	H	0.441456	-0.458827	-0.267082
H257	H	0.774789	-0.125494	0.066251
H258	H	1.108123	0.207839	0.399585
H259	H	0.703136	-0.419736	-0.230169
H260	H	1.036469	-0.086403	0.103164
H261	H	1.369802	0.246930	0.436498
H262	H	1.031673	-0.605594	-0.379807
H263	H	1.365007	-0.272261	-0.046474
H264	H	1.698340	0.061073	0.286859
O265	O	1.053358	-0.249574	-0.924554
O266	O	1.386691	0.083759	-0.591221
O267	O	1.720025	0.417093	-0.257888
C268	C	1.093232	-0.209929	-0.972555
C269	C	1.426565	0.123405	-0.639222
C270	C	1.759899	0.456738	-0.305889
H271	H	1.065619	-0.207484	-1.023040
H272	H	1.398952	0.125849	-0.689706
H273	H	1.732286	0.459182	-0.356373
H274	H	1.102750	-0.154593	-0.954423
H275	H	1.436083	0.178740	-0.621089
H276	H	1.769416	0.512074	-0.287756
H277	H	1.143569	-0.235649	-0.979018
H278	H	1.476903	0.097684	-0.645685
H279	H	1.810236	0.431018	-0.312351
O280	O	0.875223	-0.426895	-0.561419
O281	O	1.208556	-0.093561	-0.228086
O282	O	1.541889	0.239772	0.105248
C283	C	0.835367	-0.466521	-0.606124
C284	C	1.168700	-0.133188	-0.272790
C285	C	1.502033	0.200146	0.060543
H286	H	0.862993	-0.468934	-0.656420
H287	H	1.196327	-0.135601	-0.323087
H288	H	1.529660	0.197732	0.010246
H289	H	0.825851	-0.521869	-0.583410
H290	H	1.159184	-0.188535	-0.250077
H291	H	1.492518	0.144798	0.083256
H292	H	0.785027	-0.440804	-0.614690
H293	H	1.118361	-0.107471	-0.281356
H294	H	1.451694	0.225863	0.051977
O295	O	0.569151	-0.426809	-0.223016
O296	O	0.902484	-0.093476	0.110318
O297	O	1.235818	0.239857	0.443651
C298	C	0.613845	-0.466410	-0.183119
C299	C	0.947179	-0.133077	0.150215
C300	C	1.280512	0.200257	0.483548
H301	H	0.665427	-0.437633	-0.182007
H302	H	0.998760	-0.104300	0.151326
H303	H	1.332093	0.229034	0.484659
H304	H	0.593091	-0.473828	-0.129473
H305	H	0.926424	-0.140495	0.203860
H306	H	1.259758	0.192839	0.537194
H307	H	0.619158	-0.519790	-0.205613
H308	H	0.952492	-0.186457	0.127721
H309	H	1.285825	0.146877	0.461054
H310	H	0.869259	-0.738920	-0.217133
H311	H	1.202593	-0.405587	0.116200
H312	H	1.535926	-0.072253	0.449533
O313	O	0.889927	-1.076179	-0.237570
O314	O	1.223260	-0.742846	0.095763
O315	O	1.556593	-0.409513	0.429097
C316	C	0.926763	-1.118609	-0.192158
C317	C	1.260096	-0.785276	0.141175
C318	C	1.593429	-0.451942	0.474509
H319	H	0.980974	-1.096452	-0.188938
H320	H	1.314308	-0.763119	0.144396
H321	H	1.647641	-0.429785	0.477729
H322	H	0.902277	-1.119495	-0.140009
H323	H	1.235610	-0.786162	0.193324
H324	H	1.568944	-0.452828	0.526657
H325	H	0.926823	-1.174189	-0.210804
H326	H	1.260156	-0.840856	0.122529
H327	H	1.593490	-0.507522	0.455863
O328	O	0.875253	-0.426793	-0.917193
O329	O	1.208587	-0.093459	-0.583860
O330	O	1.541920	0.239874	-0.250527
C331	C	0.835392	-0.466407	-0.961903
C332	C	1.168725	-0.133074	-0.628570
C333	C	1.502059	0.200260	-0.295237
H334	H	0.863031	-0.468843	-1.012191
H335	H	1.196364	-0.135510	-0.678857
H336	H	1.529698	0.197823	-0.345524
H337	H	0.825844	-0.521747	-0.939183
H338	H	1.159178	-0.188414	-0.605850
H339	H	1.492511	0.144919	-0.272517
H340	H	0.785068	-0.440665	-0.970489
H341	H	1.118402	-0.107331	-0.637156
H342	H	1.451735	0.226002	-0.303822
O343	O	0.868088	-0.600186	-0.215951
O344	O	1.201422	-0.266853	0.117382
O345	O	1.534755	0.066480	0.450716
C346	C	0.827931	-0.648347	-0.175746
C347	C	1.161265	-0.315013	0.157587
C348	C	1.494598	0.018320	0.490921
H349	H	0.853530	-0.700611	-0.171279
H350	H	1.186863	-0.367278	0.162055
H351	H	1.520197	-0.033944	0.495388
H352	H	0.821598	-0.627189	-0.123281
H353	H	1.154931	-0.293856	0.210053
H354	H	1.488265	0.039478	0.543386
H355	H	0.776195	-0.656184	-0.200166
H356	H	1.109528	-0.322851	0.133167
H357	H	1.442861	0.010483	0.466500
O358	O	0.213347	-0.426892	-0.223156
O359	O	0.546681	-0.093559	0.110177
O360	O	0.880014	0.239775	0.443511
C361	C	0.227707	-0.496916	-0.234958
C362	C	0.561040	-0.163583	0.098375
C363	C	0.894373	0.169750	0.431708
H364	H	0.278982	-0.498404	-0.260906
H365	H	0.612315	-0.165071	0.072428
H366	H	0.945649	0.168263	0.405761
H367	H	0.228794	-0.528347	-0.184763
H368	H	0.562128	-0.195014	0.148570
H369	H	0.895461	0.138319	0.481904
H370	H	0.186956	-0.520621	-0.268748
H371	H	0.520290	-0.187287	0.064585
H372	H	0.853623	0.146046	0.397918
O373	O	0.576573	-0.249884	-0.401396
O374	O	0.909907	0.083450	-0.068062
O375	O	1.243240	0.416783	0.265271
C376	C	0.624589	-0.210275	-0.441283
C377	C	0.957922	0.123059	-0.107950
C378	C	1.291256	0.456392	0.225384
H379	H	0.673784	-0.239045	-0.442387
H380	H	1.007117	0.094289	-0.109053
H381	H	1.340451	0.427622	0.224280
H382	H	0.604498	-0.202857	-0.494932
H383	H	0.937832	0.130476	-0.161599
H384	H	1.271165	0.463809	0.171735
H385	H	0.634311	-0.156895	-0.418786
H386	H	0.967644	0.176439	-0.085452
H387	H	1.300978	0.509772	0.247881
O388	O	1.032890	-0.744316	-0.380938
O389	O	1.366223	-0.410982	-0.047605
O390	O	1.699557	-0.077649	0.285729
C391	C	1.073030	-0.696153	-0.421158
C392	C	1.406363	-0.362820	-0.087825
C393	C	1.739697	-0.029487	0.245509
H394	H	1.077504	-0.643876	-0.395584
H395	H	1.410838	-0.310543	-0.062251
H396	H	1.744171	0.022790	0.271082
H397	H	1.125498	-0.717289	-0.427543
H398	H	1.458831	-0.383956	-0.094210
H399	H	1.792165	-0.050622	0.239124
H400	H	1.048547	-0.688349	-0.472869
H401	H	1.381880	-0.355016	-0.139536
H402	H	1.715214	-0.021682	0.193798
H403	H	1.059272	-0.937044	-0.407371
H404	H	1.392605	-0.603711	-0.074037
H405	H	1.725938	-0.270378	0.259296
H406	H	1.053853	-1.070130	-0.401911
H407	H	1.387187	-0.736797	-0.068577
H408	H	1.720520	-0.403464	0.264756
H409	H	1.020541	-0.825454	-0.368626
H410	H	1.353875	-0.492120	-0.035293
H411	H	1.687208	-0.158787	0.298040
O412	O	0.900917	-0.856365	-0.248920
O413	O	1.234251	-0.523032	0.084413
O414	O	1.567584	-0.189699	0.417747
C415	C	0.855439	-0.898801	-0.285673
C416	C	1.188773	-0.565468	0.047661
C417	C	1.522106	-0.232134	0.380994
H418	H	0.878831	-0.909728	-0.336545
H419	H	1.212164	-0.576395	-0.003212
H420	H	1.545497	-0.243061	0.330122
H421	H	0.844293	-0.950413	-0.255981
H422	H	1.177626	-0.617080	0.077352
H423	H	1.510959	-0.283747	0.410686
H424	H	0.806421	-0.870577	-0.294211
H425	H	1.139754	-0.537244	0.039123
H426	H	1.473087	-0.203911	0.372456
H427	H	1.046195	-0.256783	-0.573948
H428	H	1.379529	0.076550	-0.240615
H429	H	1.712862	0.409884	0.092718
