data_functionalizedCrystal
_audit_creation_method	'MofGen! by Chris Wilmer'
_symmetry_space_group_name_H-M	'P1'
_symmetry_Int_Tables_number	1
_symmetry_cell_setting	triclinic
loop_
_symmetry_equiv_pos_as_xyz
  x,y,z
_cell_length_a	16.959454
_cell_length_b	18.215407
_cell_length_c	18.215385
_cell_angle_alpha	90.064947
_cell_angle_beta	89.911061
_cell_angle_gamma	89.979477
loop_
_atom_site_label
_atom_site_type_symbol
_atom_site_fract_x
_atom_site_fract_y
_atom_site_fract_z
Zn1	Zn	-0.314171	-1.125424	-0.416139
Zn2	Zn	0.019162	-0.792091	-0.082805
Zn3	Zn	0.352496	-0.458758	0.250528
Zn4	Zn	-0.446507	-1.125246	-0.293081
Zn5	Zn	-0.113174	-0.791913	0.040252
Zn6	Zn	0.220160	-0.458580	0.373585
Zn7	Zn	-0.314348	-1.002260	-0.293086
Zn8	Zn	0.018986	-0.668927	0.040248
Zn9	Zn	0.352319	-0.335593	0.373581
Zn10	Zn	-0.446313	-1.002333	-0.416106
Zn11	Zn	-0.112979	-0.669000	-0.082773
Zn12	Zn	0.220354	-0.335666	0.250560
O13	O	-0.380335	-1.063816	-0.354603
O14	O	-0.047001	-0.730483	-0.021270
O15	O	0.286332	-0.397149	0.312064
O16	O	-0.331733	-1.228385	-0.399826
O17	O	0.001600	-0.895052	-0.066493
O18	O	0.334933	-0.561718	0.266840
O19	O	-0.429131	-1.108827	-0.190097
O20	O	-0.095798	-0.775493	0.143236
O21	O	0.237536	-0.442160	0.476569
O22	O	-0.203713	-1.018642	-0.309424
O23	O	0.129620	-0.685309	0.023909
O24	O	0.462953	-0.351975	0.357242
O25	O	-0.428960	-1.228254	-0.309417
O26	O	-0.095627	-0.894921	0.023917
O27	O	0.237707	-0.561587	0.357250
O28	O	-0.203584	-1.109130	-0.399831
O29	O	0.129750	-0.775797	-0.066497
O30	O	0.463083	-0.442464	0.266836
O31	O	-0.332034	-1.018469	-0.190101
O32	O	0.001299	-0.685136	0.143233
O33	O	0.334633	-0.351803	0.476566
O34	O	-0.331845	-0.899285	-0.309393
O35	O	0.001488	-0.565952	0.023940
O36	O	0.334821	-0.232619	0.357274
O37	O	-0.428629	-1.018767	-0.519095
O38	O	-0.095295	-0.685433	-0.185762
O39	O	0.238038	-0.352100	0.147571
O40	O	-0.428800	-0.899339	-0.399776
O41	O	-0.095466	-0.566006	-0.066443
O42	O	0.237867	-0.232673	0.266891
O43	O	-0.331545	-1.109201	-0.519119
O44	O	0.001789	-0.775868	-0.185786
O45	O	0.335122	-0.442535	0.147548
O46	O	-0.557092	-1.108898	-0.309385
O47	O	-0.223759	-0.775564	0.023948
O48	O	0.109574	-0.442231	0.357281
O49	O	-0.556949	-1.018594	-0.399771
O50	O	-0.223616	-0.685261	-0.066438
O51	O	0.109717	-0.351927	0.266895
C52	C	-0.380321	-0.872610	-0.354582
C53	C	-0.046988	-0.539276	-0.021249
C54	C	0.286346	-0.205943	0.312085
C55	C	-0.380334	-0.790811	-0.354590
C56	C	-0.047001	-0.457477	-0.021257
C57	C	0.286332	-0.124144	0.312076
C58	C	-0.585701	-1.063754	-0.354590
C59	C	-0.252368	-0.730421	-0.021257
C60	C	0.080966	-0.397088	0.312076
C61	C	-0.673557	-1.063795	-0.354610
C62	C	-0.340224	-0.730462	-0.021276
C63	C	-0.006891	-0.397129	0.312057
C64	C	-0.380045	-1.064012	-0.546556
C65	C	-0.046712	-0.730679	-0.213223
C66	C	0.286621	-0.397345	0.120110
C67	C	-0.379922	-1.064096	-0.628356
C68	C	-0.046589	-0.730762	-0.295022
C69	C	0.286745	-0.397429	0.038311
C70	C	-1.044989	-1.016863	-0.401662
C71	C	-0.711655	-0.683530	-0.068329
C72	C	-0.378322	-0.350196	0.265005
C73	C	-1.045077	-1.110974	-0.307619
C74	C	-0.711744	-0.777640	0.025714
C75	C	-0.378411	-0.444307	0.359048
C76	C	-0.962531	-1.110948	-0.307612
C77	C	-0.629198	-0.777615	0.025721
C78	C	-0.295865	-0.444281	0.359055
C79	C	-0.921210	-1.063878	-0.354630
C80	C	-0.587877	-0.730545	-0.021297
C81	C	-0.254544	-0.397212	0.312036
C82	C	-0.962435	-1.016834	-0.401655
C83	C	-0.629102	-0.683501	-0.068322
C84	C	-0.295768	-0.350168	0.265012
C85	C	-0.921301	-1.157986	-0.260583
C86	C	-0.587967	-0.824653	0.072750
C87	C	-0.254634	-0.491319	0.406084
C88	C	-0.838750	-1.157962	-0.260574
C89	C	-0.505416	-0.824628	0.072760
C90	C	-0.172083	-0.491295	0.406093
C91	C	-0.797427	-1.110895	-0.307596
C92	C	-0.464094	-0.777562	0.025737
C93	C	-0.130760	-0.444228	0.359071
C94	C	-0.838657	-1.063850	-0.354623
C95	C	-0.505323	-0.730516	-0.021290
C96	C	-0.171990	-0.397183	0.312043
C97	C	-0.797336	-1.016780	-0.401641
C98	C	-0.464002	-0.683447	-0.068308
C99	C	-0.130669	-0.350113	0.265025
C100	C	-0.838564	-0.969738	-0.448673
C101	C	-0.505231	-0.636404	-0.115340
C102	C	-0.171897	-0.303071	0.217994
C103	C	-0.921112	-0.969768	-0.448677
C104	C	-0.587779	-0.636434	-0.115344
C105	C	-0.254446	-0.303101	0.217989
C106	C	-0.714879	-1.110865	-0.307592
C107	C	-0.381545	-0.777532	0.025742
C108	C	-0.048212	-0.444198	0.359075
C109	C	-0.714782	-1.016751	-0.401635
C110	C	-0.381449	-0.683418	-0.068301
C111	C	-0.048115	-0.350085	0.265032
C112	C	-0.174166	-1.063898	-0.354632
C113	C	0.159167	-0.730565	-0.021298
C114	C	0.492500	-0.397231	0.312035
C115	C	-0.086310	-1.063933	-0.354644
C116	C	0.247024	-0.730599	-0.021311
C117	C	0.580357	-0.397266	0.312023
C118	C	-0.380349	-1.255769	-0.354625
C119	C	-0.047015	-0.922436	-0.021291
C120	C	0.286318	-0.589102	0.312042
C121	C	-0.380355	-1.337568	-0.354634
C122	C	-0.047021	-1.004234	-0.021301
C123	C	0.286312	-0.670901	0.312033
C124	C	-0.430898	-0.602664	-0.401594
C125	C	-0.097565	-0.269331	-0.068260
C126	C	0.235769	0.064003	0.265073
C127	C	-0.430900	-0.525805	-0.401603
C128	C	-0.097567	-0.192472	-0.068269
C129	C	0.235766	0.140861	0.265064
C130	C	-0.329786	-0.525720	-0.307629
C131	C	0.003548	-0.192387	0.025705
C132	C	0.336881	0.140947	0.359038
C133	C	-0.329780	-0.602577	-0.307624
C134	C	0.003554	-0.269244	0.025710
C135	C	0.336887	0.064089	0.359043
C136	C	-0.380340	-0.641047	-0.354605
C137	C	-0.047007	-0.307714	-0.021272
C138	C	0.286326	0.025619	0.312062
C139	C	-0.380349	-0.487331	-0.354619
C140	C	-0.047015	-0.153998	-0.021286
C141	C	0.286318	0.179335	0.312048
C142	C	-0.380351	-0.403998	-0.354629
C143	C	-0.047018	-0.070664	-0.021295
C144	C	0.286316	0.262669	0.312038
C145	C	-0.380337	-0.724386	-0.354597
C146	C	-0.047004	-0.391053	-0.021263
C147	C	0.286329	-0.057720	0.312070
C148	C	-0.380566	-1.063663	-0.163396
C149	C	-0.047232	-0.730330	0.169937
C150	C	0.286101	-0.396996	0.503270
C151	C	-0.380466	-1.063722	-0.081598
C152	C	-0.047133	-0.730389	0.251736
C153	C	0.286200	-0.397055	0.585069
C154	C	-0.330055	-1.016494	0.106560
C155	C	0.003279	-0.683161	0.439893
C156	C	0.336612	-0.349828	0.773226
C157	C	-0.329960	-1.016558	0.183418
C158	C	0.003373	-0.683225	0.516751
C159	C	0.336706	-0.349892	0.850085
C160	C	-0.430336	-1.111329	0.183482
C161	C	-0.097003	-0.777995	0.516815
C162	C	0.236331	-0.444662	0.850149
C163	C	-0.430426	-1.111267	0.106625
C164	C	-0.097092	-0.777934	0.439958
C165	C	0.236241	-0.444601	0.773291
C166	C	-0.380286	-1.063846	0.068166
C167	C	-0.046953	-0.730513	0.401499
C168	C	0.286381	-0.397179	0.734832
C169	C	-0.380102	-1.063971	0.221881
C170	C	-0.046769	-0.730638	0.555215
C171	C	0.286564	-0.397305	0.888548
C172	C	-0.380000	-1.064041	0.305215
C173	C	-0.046667	-0.730708	0.638548
C174	C	0.286666	-0.397375	0.971881
C175	C	-0.380387	-1.063777	-0.015173
C176	C	-0.047053	-0.730444	0.318160
C177	C	0.286280	-0.397110	0.651493
H178	H	-0.681143	-0.978424	-0.439925
H179	H	-0.347810	-0.645091	-0.106592
H180	H	-0.014477	-0.311757	0.226741
H181	H	-0.472068	-0.494557	-0.439867
H182	H	-0.138735	-0.161224	-0.106533
H183	H	0.194598	0.172110	0.226800
H184	H	-0.289056	-0.978001	0.214675
H185	H	0.044278	-0.644668	0.548008
H186	H	0.377611	-0.311334	0.881342
H187	H	-1.078560	-0.978565	-0.439956
H188	H	-0.745227	-0.645231	-0.106623
H189	H	-0.411894	-0.311898	0.226711
Cl190	Cl	-0.266229	-0.477352	-0.248568
Cl191	Cl	0.067104	-0.144019	0.084766
Cl192	Cl	0.400438	0.189314	0.418099
Cl193	Cl	-0.663052	-1.169991	-0.248464
Cl194	Cl	-0.329719	-0.836657	0.084870
Cl195	Cl	0.003614	-0.503324	0.418203
Cl196	Cl	-0.972947	-0.910633	-0.507795
Cl197	Cl	-0.639613	-0.577300	-0.174462
Cl198	Cl	-0.306280	-0.243967	0.158871
Cl199	Cl	-0.266211	-0.650834	-0.248552
Cl200	Cl	0.067122	-0.317501	0.084781
Cl201	Cl	0.400455	0.015832	0.418115
H202	H	-0.289225	-0.977883	0.075248
H203	H	0.044108	-0.644550	0.408582
H204	H	0.377442	-0.311217	0.741915
H205	H	-0.471159	-1.149936	0.214805
H206	H	-0.137826	-0.816603	0.548138
H207	H	0.195508	-0.483270	0.881471
H208	H	-0.472066	-0.633984	-0.439851
H209	H	-0.138732	-0.300651	-0.106517
H210	H	0.194601	0.032683	0.226816
H211	H	-0.471331	-1.149831	0.075363
H212	H	-0.137997	-0.816498	0.408697
H213	H	0.195336	-0.483164	0.742030
H214	H	-0.804911	-0.931410	-0.486952
H215	H	-0.471577	-0.598076	-0.153619
H216	H	-0.138244	-0.264743	0.179714
H217	H	-0.954950	-1.196302	-0.222298
H218	H	-0.621617	-0.862969	0.111035
H219	H	-0.288284	-0.529636	0.444369
Cl220	Cl	-1.097025	-1.170144	-0.248514
Cl221	Cl	-0.763691	-0.836811	0.084819
Cl222	Cl	-0.430358	-0.503478	0.418152
H223	H	-0.805187	-1.196266	-0.222279
H224	H	-0.471853	-0.862933	0.111054
H225	H	-0.138520	-0.529599	0.444388
