data_functionalizedCrystal
_audit_creation_method	'MofGen! by Chris Wilmer'
_symmetry_space_group_name_H-M	'P1'
_symmetry_Int_Tables_number	1
_symmetry_cell_setting	triclinic
loop_
_symmetry_equiv_pos_as_xyz
  x,y,z
_cell_length_a	21.395362
_cell_length_b	19.077068
_cell_length_c	21.395356
_cell_angle_alpha	87.728374
_cell_angle_beta	90.035770
_cell_angle_gamma	92.343691
loop_
_atom_site_label
_atom_site_type_symbol
_atom_site_fract_x
_atom_site_fract_y
_atom_site_fract_z
Zn1	Zn	0.947810	-0.279939	0.364584
Zn2	Zn	1.281144	0.053394	0.697918
Zn3	Zn	1.614477	0.386727	1.031251
Zn4	Zn	0.943524	-0.397635	0.264011
Zn5	Zn	1.276858	-0.064302	0.597344
Zn6	Zn	1.610191	0.269032	0.930677
Zn7	Zn	0.843039	-0.279987	0.259787
Zn8	Zn	1.176372	0.053347	0.593121
Zn9	Zn	1.509705	0.386680	0.926454
Zn10	Zn	0.838791	-0.397635	0.368715
Zn11	Zn	1.172124	-0.064302	0.702049
Zn12	Zn	1.505458	0.269032	1.035382
O13	O	0.893291	-0.338799	0.314274
O14	O	1.226624	-0.005466	0.647608
O15	O	1.559958	0.327868	0.980941
O16	O	1.034921	-0.295532	0.351282
O17	O	1.368254	0.037801	0.684615
O18	O	1.701587	0.371135	1.017948
O19	O	0.930178	-0.382049	0.175773
O20	O	1.263512	-0.048715	0.509107
O21	O	1.596845	0.284618	0.842440
O22	O	0.860508	-0.181488	0.270193
O23	O	1.193842	0.151846	0.603526
O24	O	1.527175	0.485179	0.936859
O25	O	1.031771	-0.382003	0.277391
O26	O	1.365105	-0.048669	0.610724
O27	O	1.698438	0.284664	0.944057
O28	O	0.937484	-0.181453	0.347186
O29	O	1.270817	0.151880	0.680520
O30	O	1.604150	0.485214	1.013853
O31	O	0.856352	-0.295613	0.172670
O32	O	1.189686	0.037721	0.506004
O33	O	1.523019	0.371054	0.839337
O34	O	0.754797	-0.295613	0.274198
O35	O	1.088130	0.037721	0.607532
O36	O	1.421463	0.371054	0.940865
O37	O	0.853269	-0.382003	0.455845
O38	O	1.186602	-0.048669	0.789178
O39	O	1.519935	0.284664	1.122511
O40	O	0.751676	-0.382048	0.354227
O41	O	1.085009	-0.048715	0.687561
O42	O	1.418342	0.284618	1.020894
O43	O	0.933365	-0.295532	0.452810
O44	O	1.266698	0.037801	0.786143
O45	O	1.600032	0.371135	1.119476
O46	O	0.926060	-0.496128	0.281396
O47	O	1.259393	-0.162794	0.614730
O48	O	1.592726	0.170539	0.948063
O49	O	0.849113	-0.496128	0.358323
O50	O	1.182446	-0.162794	0.691656
O51	O	1.515779	0.170539	1.024989
C52	C	0.730502	-0.338836	0.314203
C53	C	1.063835	-0.005503	0.647536
C54	C	1.397169	0.327830	0.980870
C55	C	0.660860	-0.338869	0.314188
C56	C	0.994193	-0.005536	0.647521
C57	C	1.327526	0.327798	0.980855
C58	C	0.626536	-0.383936	0.355801
C59	C	0.959869	-0.050603	0.689135
C60	C	1.293202	0.282731	1.022468
C61	C	0.561101	-0.383919	0.355829
C62	C	0.894434	-0.050585	0.689162
C63	C	1.227768	0.282748	1.022495
C64	C	0.529992	-0.338842	0.314232
C65	C	0.863326	-0.005509	0.647565
C66	C	1.196659	0.327825	0.980898
C67	C	0.564324	-0.293766	0.272615
C68	C	0.897658	0.039567	0.605949
C69	C	1.230991	0.372900	0.939282
C70	C	0.629758	-0.293780	0.272594
C71	C	0.963091	0.039553	0.605927
C72	C	1.296425	0.372887	0.939260
C73	C	0.426478	-0.333180	0.257624
C74	C	0.759811	0.000154	0.590958
C75	C	1.093145	0.333487	0.924291
C76	C	0.361045	-0.333171	0.257645
C77	C	0.694379	0.000162	0.590979
C78	C	1.027712	0.333496	0.924312
C79	C	0.328173	-0.338796	0.314299
C80	C	0.661507	-0.005463	0.647633
C81	C	0.994840	0.327871	0.980966
C82	C	0.360741	-0.344444	0.370935
C83	C	0.694075	-0.011111	0.704268
C84	C	1.027408	0.322222	1.037601
C85	C	0.426175	-0.344458	0.370913
C86	C	0.759508	-0.011125	0.704246
C87	C	1.092842	0.322209	1.037579
C88	C	0.459041	-0.338822	0.314251
C89	C	0.792374	-0.005489	0.647584
C90	C	1.125707	0.327845	0.980918
C91	C	0.222897	-0.383847	0.355946
C92	C	0.556231	-0.050513	0.689279
C93	C	0.889564	0.282820	1.022612
C94	C	0.157462	-0.383824	0.355974
C95	C	0.490795	-0.050491	0.689307
C96	C	0.824128	0.282842	1.022640
C97	C	0.160686	-0.293676	0.272755
C98	C	0.494020	0.039658	0.606088
C99	C	0.827353	0.372991	0.939422
C100	C	0.226121	-0.293694	0.272732
C101	C	0.559454	0.039639	0.606066
C102	C	0.892788	0.372972	0.939399
C103	C	0.257222	-0.338783	0.314327
C104	C	0.590556	-0.005450	0.647660
C105	C	0.923889	0.327883	0.980994
C106	C	0.886677	-0.521666	0.320780
C107	C	1.220010	-0.188332	0.654113
C108	C	1.553344	0.145001	0.987446
C109	C	0.883905	-0.599897	0.323584
C110	C	1.217238	-0.266563	0.656917
C111	C	1.550571	0.066770	0.990250
C112	C	0.922696	-0.636626	0.284883
C113	C	1.256029	-0.303293	0.618216
C114	C	1.589362	0.030040	0.951550
C115	C	0.920092	-0.710133	0.287524
C116	C	1.253425	-0.376799	0.620857
C117	C	1.586759	-0.043466	0.954191
C118	C	0.878694	-0.746908	0.328863
C119	C	1.212027	-0.413575	0.662196
C120	C	1.545361	-0.080241	0.995529
C121	C	0.839901	-0.710173	0.367568
C122	C	1.173235	-0.376840	0.700901
C123	C	1.506568	-0.043506	1.034234
C124	C	0.842509	-0.636668	0.364930
C125	C	1.175842	-0.303335	0.698263
C126	C	1.509175	0.029999	1.031596
C127	C	0.866600	-0.966747	0.341047
C128	C	1.199933	-0.633414	0.674381
C129	C	1.533266	-0.300081	1.007714
C130	C	0.863994	-1.040257	0.343681
C131	C	1.197327	-0.706924	0.677015
C132	C	1.530661	-0.373591	1.010348
C133	C	0.944186	-1.040212	0.263638
C134	C	1.277519	-0.706879	0.596971
C135	C	1.610853	-0.373545	0.930304
C136	C	0.946787	-0.966706	0.261001
C137	C	1.280120	-0.633372	0.594334
C138	C	1.613453	-0.300039	0.927667
C139	C	0.907997	-0.929977	0.299708
C140	C	1.241330	-0.596644	0.633041
C141	C	1.574663	-0.263310	0.966375
N142	N	0.876030	-0.822043	0.331562
N143	N	1.209363	-0.488710	0.664895
N144	N	1.542697	-0.155377	0.998229
N145	N	0.910664	-0.854843	0.297012
N146	N	1.243997	-0.521510	0.630345
N147	N	1.577331	-0.188176	0.963678
C148	C	1.056716	-0.338762	0.314347
C149	C	1.390049	-0.005429	0.647680
C150	C	1.723382	0.327905	0.981013
C151	C	1.126358	-0.338746	0.314377
C152	C	1.459691	-0.005413	0.647711
C153	C	1.793024	0.327920	0.981044
C154	C	0.893321	-0.338762	0.477697
C155	C	1.226654	-0.005429	0.811030
C156	C	1.559988	0.327905	1.144363
C157	C	0.893334	-0.338746	0.547337
C158	C	1.226667	-0.005413	0.880671
C159	C	1.560001	0.327920	1.214004
C160	C	0.899948	-0.155218	0.307758
C161	C	1.233281	0.178115	0.641091
C162	C	1.566615	0.511448	0.974424
C163	C	0.902785	-0.076987	0.304980
C164	C	1.236118	0.256346	0.638314
C165	C	1.569452	0.589679	0.971647
C166	C	0.893299	-0.338785	0.151486
C167	C	1.226632	-0.005452	0.484820
C168	C	1.559966	0.327882	0.818153
C169	C	0.893415	-0.338602	0.081839
C170	C	1.226748	-0.005269	0.415172
C171	C	1.560081	0.328064	0.748506
C172	C	0.931851	-0.383606	1.050745
C173	C	1.265184	-0.050272	1.384078
C174	C	1.598518	0.283061	1.717411
C175	C	0.931839	-0.383628	0.985310
C176	C	1.265172	-0.050295	1.318643
C177	C	1.598506	0.283039	1.651977
C178	C	0.893398	-0.338635	0.950972
C179	C	1.226731	-0.005301	1.284305
C180	C	1.560064	0.328032	1.617638
C181	C	0.854954	-0.293628	0.982074
C182	C	1.188287	0.039705	1.315407
C183	C	1.521620	0.373039	1.648741
C184	C	0.854962	-0.293612	1.047508
C185	C	1.188296	0.039721	1.380841
C186	C	1.521629	0.373055	1.714174
C187	C	0.890736	-0.275249	0.845051
C188	C	1.224069	0.058084	1.178384
C189	C	1.557403	0.391418	1.511718
C190	C	0.890732	-0.275264	0.779618
C191	C	1.224065	0.058069	1.112952
C192	C	1.557399	0.391403	1.446285
C193	C	0.893368	-0.338685	0.749153
C194	C	1.226701	-0.005351	1.082486
C195	C	1.560034	0.327982	1.415819
C196	C	0.896021	-0.402092	0.784128
C197	C	1.229354	-0.068759	1.117461
C198	C	1.562687	0.264575	1.450794
C199	C	0.896029	-0.402076	0.849561
C200	C	1.229362	-0.068743	1.182895
C201	C	1.562696	0.264591	1.516228
C202	C	0.893384	-0.338647	0.880020
C203	C	1.226717	-0.005314	1.213353
C204	C	1.560051	0.328019	1.546687
C205	C	0.931793	-0.383716	0.647107
C206	C	1.265126	-0.050383	0.980440
C207	C	1.598459	0.282951	1.313773
C208	C	0.931776	-0.383739	0.581671
C209	C	1.265110	-0.050406	0.915004
C210	C	1.598443	0.282927	1.248338
C211	C	0.854895	-0.293733	0.578436
C212	C	1.188228	0.039600	0.911769
C213	C	1.521561	0.372934	1.245103
C214	C	0.854908	-0.293716	0.643871
C215	C	1.188241	0.039617	0.977204
C216	C	1.521574	0.372951	1.310537
C217	C	0.893360	-0.338706	0.678202
C218	C	1.226693	-0.005373	1.011535
C219	C	1.560027	0.327960	1.344869
H220	H	0.254068	-0.257000	0.238843
H221	H	0.587401	0.076334	0.572177
H222	H	0.920734	0.409667	0.905510
H223	H	0.888575	-0.223634	0.751147
H224	H	1.221909	0.109700	1.084480
H225	H	1.555242	0.443033	1.417814
Br226	Br	0.676344	-0.232612	0.216115
Br227	Br	1.009677	0.100722	0.549449
Br228	Br	1.343011	0.434055	0.882782
H229	H	0.888631	-0.223597	0.869850
H230	H	1.221964	0.109737	1.203184
H231	H	1.555298	0.443070	1.536517
Br232	Br	0.813956	-0.916910	0.393579
Br233	Br	1.147289	-0.583577	0.726913
Br234	Br	1.480622	-0.250244	1.060246
Br235	Br	0.802729	-0.232649	0.686074
Br236	Br	1.136063	0.100684	1.019407
Br237	Br	1.469396	0.434017	1.352741
Br238	Br	0.522108	-0.232585	0.216167
Br239	Br	0.855441	0.100749	0.549500
Br240	Br	1.188774	0.434082	0.882834
H241	H	0.898188	-0.453705	0.878035
H242	H	1.231521	-0.120371	1.211368
H243	H	1.564854	0.212962	1.544702
H244	H	0.823654	-0.256995	0.954112
H245	H	1.156987	0.076338	1.287445
H246	H	1.490321	0.409672	1.620778
H247	H	0.248222	-0.420557	0.389817
H248	H	0.581555	-0.087224	0.723151
H249	H	0.914889	0.246110	1.056484
H250	H	0.823662	-0.256963	1.072824
H251	H	1.156996	0.076370	1.406157
H252	H	1.490329	0.409703	1.739491
H253	H	0.333979	-0.349023	0.417068
H254	H	0.667312	-0.015690	0.750401
H255	H	1.000645	0.317643	1.083735
Br256	Br	0.668742	-0.445126	0.412252
Br257	Br	1.002076	-0.111793	0.745585
Br258	Br	1.335409	0.221541	1.078919
H259	H	0.533149	-0.420617	0.389717
H260	H	0.866482	-0.087284	0.723051
H261	H	1.199816	0.246050	1.056384
Br262	Br	0.783723	-0.760082	0.423677
Br263	Br	1.117056	-0.426748	0.757010
Br264	Br	1.450389	-0.093415	1.090344
H265	H	0.135358	-0.256970	0.238889
H266	H	0.468692	0.076363	0.572222
H267	H	0.802025	0.409696	0.905556
Br268	Br	0.110878	-0.444986	0.412459
Br269	Br	0.444211	-0.111653	0.745793
Br270	Br	0.777544	0.221681	1.079126
H271	H	0.810922	-0.606763	0.396445
H272	H	1.144255	-0.273430	0.729778
H273	H	1.477588	0.059903	1.063111
H274	H	0.334533	-0.328576	0.211529
H275	H	0.667866	0.004757	0.544863
H276	H	1.001200	0.338090	0.878196
Br277	Br	0.972743	-0.759978	0.235003
Br278	Br	1.306077	-0.426645	0.568336
Br279	Br	1.639410	-0.093311	0.901669
Br280	Br	0.996830	-1.090061	0.211113
Br281	Br	1.330163	-0.756728	0.544446
Br282	Br	1.663496	-0.423395	0.877779
H283	H	0.956404	-0.606689	0.251218
H284	H	1.289737	-0.273355	0.584551
H285	H	1.623071	0.059978	0.917884
Br286	Br	0.802703	-0.232691	0.531842
Br287	Br	1.136036	0.100642	0.865175
Br288	Br	1.469370	0.433975	1.198509
Br289	Br	0.471083	-0.325546	0.180730
Br290	Br	0.804416	0.007787	0.514063
Br291	Br	1.137750	0.341121	0.847396
Br292	Br	0.470373	-0.352120	0.447771
Br293	Br	0.803707	-0.018787	0.781104
Br294	Br	1.137040	0.314546	1.114437
Br295	Br	0.807796	-1.090167	0.399777
Br296	Br	1.141130	-0.756833	0.733111
Br297	Br	1.474463	-0.423500	1.066444
H298	H	0.963160	-0.420243	1.078693
H299	H	1.296493	-0.086909	1.412027
H300	H	1.629827	0.246424	1.745360
Br301	Br	1.002980	-0.916801	0.204904
Br302	Br	1.336314	-0.583468	0.538237
Br303	Br	1.669647	-0.250134	0.871570
H304	H	0.963148	-0.420267	0.959988
H305	H	1.296481	-0.086934	1.293321
H306	H	1.629814	0.246399	1.626654
Br307	Br	0.899603	-0.488169	0.742790
Br308	Br	1.232936	-0.154836	1.076124
Br309	Br	1.566269	0.178498	1.409457
Br310	Br	0.983977	-0.444772	0.693703
Br311	Br	1.317310	-0.111439	1.027036
Br312	Br	1.650644	0.221895	1.360370
H313	H	0.963072	-0.420393	0.556355
H314	H	1.296406	-0.087060	0.889689
H315	H	1.629739	0.246274	1.223022
