data_functionalizedCrystal
_audit_creation_method	'MofGen! by Chris Wilmer'
_symmetry_space_group_name_H-M	'P1'
_symmetry_Int_Tables_number	1
_symmetry_cell_setting	triclinic
loop_
_symmetry_equiv_pos_as_xyz
  x,y,z
_cell_length_a	12.837943
_cell_length_b	11.892095
_cell_length_c	12.811442
_cell_angle_alpha	88.493659
_cell_angle_beta	90.586273
_cell_angle_gamma	94.310562
loop_
_atom_site_label
_atom_site_type_symbol
_atom_site_fract_x
_atom_site_fract_y
_atom_site_fract_z
O1	O	-1.385150	-0.121160	0.265179
O2	O	-1.083190	-0.119794	0.251783
O3	O	-1.240671	-0.104991	0.107445
O4	O	-1.227668	-0.135964	0.409517
O5	O	-1.227540	0.081785	0.119459
O6	O	-1.070059	0.066981	0.263797
O7	O	-1.372019	0.065615	0.277193
Zn8	Zn	-1.218954	0.095953	0.272403
Zn9	Zn	-1.236254	-0.150132	0.256573
O10	O	-1.214537	0.050811	0.421531
C11	C	-1.037951	-0.025943	0.253264
C12	C	-0.922718	-0.024563	0.239767
C13	C	-1.232973	-0.007614	0.074520
C14	C	-1.229585	0.004274	-0.041488
N15	N	-1.207155	0.263899	0.283206
C16	C	-1.417257	-0.028238	0.275712
C17	C	-1.532491	-0.029627	0.289208
C18	C	-0.683637	-0.041184	0.402027
C19	C	-0.575365	-0.039886	0.389350
C20	C	-0.597898	-0.020661	0.201738
C21	C	-0.706171	-0.021959	0.214414
C22	C	-0.749036	-0.032222	0.314562
C23	C	-0.857311	-0.033528	0.327238
C24	C	-0.879842	-0.014295	0.139627
C25	C	-0.771569	-0.012997	0.126950
N26	N	-1.248062	-0.318077	0.245763
C27	C	-1.330167	0.512103	0.170531
C28	C	-1.321927	0.629669	0.178091
C29	C	-1.182430	0.616601	0.305878
C30	C	-1.190670	0.499035	0.298318
C31	C	-1.264542	0.446790	0.230644
C32	C	-1.272787	0.329220	0.223091
C33	C	-1.133285	0.316155	0.350872
C34	C	-1.125045	0.433722	0.358431
C35	C	-1.217658	0.122838	-0.198450
C36	C	-1.220837	0.111671	-0.089450
C37	C	-1.235152	-0.091963	-0.102534
C38	C	-1.231974	-0.080796	-0.211534
C39	C	-1.223228	0.026608	-0.259488
C40	C	-1.220057	0.037774	-0.368490
C41	C	-1.234365	-0.165859	-0.381572
C42	C	-1.237544	-0.177026	-0.272572
C43	C	-1.222236	-0.046568	0.454456
C44	C	-1.225624	-0.058463	0.570464
H45	H	-0.892210	-0.041883	0.408783
F46	F	-1.246871	-0.291327	-0.221525
F47	F	-1.046426	0.489335	0.430449
H48	H	-1.079852	0.262963	0.399823
H49	H	-1.216292	0.190032	-0.039757
F50	F	-1.244511	-0.206261	-0.051482
F51	F	-1.240294	-0.268281	-0.446541
H52	H	-1.332939	0.286683	0.167990
H53	H	-1.212937	0.125228	-0.407533
H54	H	-0.718539	-0.049542	0.483571
F55	F	-0.949453	-0.004771	0.046533
F56	F	-0.505765	-0.049421	0.482443
H57	H	-1.375364	0.682845	0.129139
F58	F	-0.552258	-0.009726	0.095162
F59	F	-1.208365	0.237143	-0.249490
H60	H	-0.736652	-0.004628	0.045413
F61	F	-1.408796	0.456498	0.098518
H62	H	-1.122278	0.659155	0.360969
