data_functionalizedCrystal
_audit_creation_method	'MofGen! by Chris Wilmer'
_symmetry_space_group_name_H-M	'P1'
_symmetry_Int_Tables_number	1
_symmetry_cell_setting	triclinic
loop_
_symmetry_equiv_pos_as_xyz
  x,y,z
_cell_length_a	13.897448
_cell_length_b	19.077236
_cell_length_c	19.077271
_cell_angle_alpha	90.072744
_cell_angle_beta	87.674307
_cell_angle_gamma	92.310527
loop_
_atom_site_label
_atom_site_type_symbol
_atom_site_fract_x
_atom_site_fract_y
_atom_site_fract_z
Zn1	Zn	-0.301621	1.058321	-0.440556
Zn2	Zn	-0.469144	1.062974	-0.323050
Zn3	Zn	-0.314577	0.945536	-0.318334
Zn4	Zn	-0.469595	0.940794	-0.435790
O5	O	-0.388734	1.001906	-0.379433
O6	O	-0.318232	1.157271	-0.428937
O7	O	-0.453874	1.051328	-0.224092
O8	O	-0.177874	0.960535	-0.334568
O9	O	-0.441311	1.160690	-0.342606
O10	O	-0.168355	1.043397	-0.424364
O11	O	-0.340314	0.965047	-0.220627
O12	O	-0.340751	0.846574	-0.329947
O13	O	-0.442079	0.952452	-0.534755
O14	O	-0.454643	0.843090	-0.416241
O15	O	-0.318669	1.038799	-0.538257
O16	O	-0.604189	1.046730	-0.337984
O17	O	-0.604520	0.956965	-0.420814
C18	C	-0.399153	0.819335	-0.372066
C19	C	-0.403632	0.741230	-0.368931
C20	C	-0.639353	1.001856	-0.379410
C21	C	-0.746563	1.001898	-0.379427
C22	C	-0.942852	1.001970	-0.379474
C23	C	-0.833623	1.001928	-0.379450
C24	C	-0.341750	0.702754	-0.412474
C25	C	-0.345954	0.629366	-0.409523
C26	C	-0.412046	0.594455	-0.363030
C27	C	-0.473931	0.632937	-0.319482
C28	C	-0.469721	0.706323	-0.322430
C29	C	-0.431494	0.375163	-0.349381
C30	C	-0.435701	0.301771	-0.346437
C31	C	-0.307723	0.298205	-0.436477
C32	C	-0.303523	0.371594	-0.439425
C33	C	-0.365404	0.410069	-0.395874
N34	N	-0.416348	0.519441	-0.360013
N35	N	-0.361097	0.485082	-0.398887
C36	C	-0.137135	1.001976	-0.379471
C37	C	-0.029919	1.002005	-0.379488
C38	C	-0.378979	0.994577	-0.562715
C39	C	-0.374822	0.991454	-0.640820
C40	C	-0.378276	1.185190	-0.386829
C41	C	-0.373819	1.263295	-0.389981
C42	C	-0.345084	0.969054	-1.080271
C43	C	-0.348986	0.971992	-1.006884
C44	C	-0.410067	1.018379	-0.971993
C45	C	-0.467242	1.061836	-1.010494
C46	C	-0.463334	1.058901	-1.083880
C47	C	-0.428090	1.031976	-0.752706
C48	C	-0.431995	1.034906	-0.679315
C49	C	-0.313737	0.945063	-0.675710
C50	C	-0.309839	0.942129	-0.749097
C51	C	-0.367011	0.985589	-0.787592
N52	N	-0.414059	1.021382	-0.896980
N53	N	-0.363013	0.982589	-0.862604
C54	C	-0.398379	1.009247	-0.196864
C55	C	-0.402257	1.012507	-0.118766
H56	H	-0.295565	0.598042	-0.444982
H57	H	-0.481883	0.406481	-0.313919
H58	H	-0.509889	1.094286	-1.115222
H59	H	-0.249707	0.400013	-0.477287
O60	O	-0.277464	0.736553	-0.457658
C61	C	-0.223765	0.686852	-0.495470
H62	H	-0.224895	0.635686	-0.464588
H63	H	-0.146161	0.707762	-0.503917
H64	H	-0.256813	0.676918	-0.548478
H65	H	-0.257342	0.266871	-0.471933
H66	H	-0.527740	0.604507	-0.281623
O67	O	-0.499935	0.267969	-0.301209
C68	C	-0.553668	0.317663	-0.263415
H69	H	-0.511280	0.370075	-0.263127
H70	H	-0.568004	0.298656	-0.207187
H71	H	-0.625169	0.324443	-0.289366
O72	O	-0.529935	0.743594	-0.280108
C73	C	-0.589158	0.697046	-0.238428
H74	H	-0.594029	0.643587	-0.265104
H75	H	-0.664329	0.718544	-0.231688
H76	H	-0.557008	0.691369	-0.184791
H77	H	-0.295348	0.931279	-1.108673
H78	H	-0.302431	0.936608	-0.975544
H79	H	-0.260105	0.904353	-0.777500
H80	H	-0.267190	0.909682	-0.644360
O81	O	-0.491360	1.080027	-0.645532
C82	C	-0.541006	1.117741	-0.695243
H83	H	-0.498568	1.118108	-0.747658
H84	H	-0.549282	1.173946	-0.676263
H85	H	-0.615313	1.091668	-0.702006
H86	H	-0.474645	1.067363	-0.784040
H87	H	-0.516971	1.099608	-0.982080
