data_functionalizedCrystal
_audit_creation_method	'MofGen! by Chris Wilmer'
_symmetry_space_group_name_H-M	'P1'
_symmetry_Int_Tables_number	1
_symmetry_cell_setting	triclinic
loop_
_symmetry_equiv_pos_as_xyz
  x,y,z
_cell_length_a	12.503584
_cell_length_b	17.699083
_cell_length_c	17.699083
_cell_angle_alpha	96.716985
_cell_angle_beta	86.484170
_cell_angle_gamma	86.494770
loop_
_atom_site_label
_atom_site_type_symbol
_atom_site_fract_x
_atom_site_fract_y
_atom_site_fract_z
O1	O	-0.089171	1.008441	-0.091331
O2	O	0.244162	1.341775	0.242002
O3	O	0.577495	1.675108	0.575335
O4	O	-0.089207	0.788065	-0.103782
O5	O	0.244126	1.121398	0.229551
O6	O	0.577460	1.454731	0.562885
O7	O	-0.089179	0.904479	0.012632
O8	O	0.244155	1.237812	0.345965
O9	O	0.577488	1.571145	0.679299
O10	O	-0.089200	0.892027	-0.207745
O11	O	0.244134	1.225361	0.125588
O12	O	0.577467	1.558694	0.458921
O13	O	0.089461	0.895723	0.003861
O14	O	0.422794	1.229056	0.337195
O15	O	0.756128	1.562390	0.670528
O16	O	0.089433	0.779309	-0.112553
O17	O	0.422766	1.112642	0.220780
O18	O	0.756100	1.445976	0.554114
O19	O	0.089468	0.999686	-0.100102
O20	O	0.422802	1.333019	0.233231
O21	O	0.756135	1.666352	0.566565
Cu22	Cu	0.105762	0.888698	-0.107128
Cu23	Cu	0.439095	1.222031	0.226205
Cu24	Cu	0.772429	1.555365	0.559538
Cu25	Cu	-0.105500	0.899052	-0.096756
Cu26	Cu	0.227833	1.232386	0.236578
Cu27	Cu	0.561166	1.565719	0.569911
O28	O	0.089440	0.883272	-0.216516
O29	O	0.422774	1.216605	0.116817
O30	O	0.756107	1.549938	0.450150
C31	C	0.000109	0.755490	-0.107721
C32	C	0.333442	1.088823	0.225612
C33	C	0.666775	1.422157	0.558946
C34	C	0.000095	0.671473	-0.106382
C35	C	0.333429	1.004806	0.226952
C36	C	0.666762	1.338139	0.560285
N37	N	0.254352	0.881421	-0.114423
N38	N	0.587686	1.214754	0.218910
N39	N	0.921019	1.548087	0.552243
C40	C	0.000089	0.622852	-0.174715
C41	C	0.333423	0.956185	0.158618
C42	C	0.666756	1.289519	0.491952
C43	C	0.000103	0.543908	-0.173453
C44	C	0.333437	0.877241	0.159880
C45	C	0.666770	1.210575	0.493213
C46	C	0.000116	0.513587	-0.103857
C47	C	0.333449	0.846920	0.229476
C48	C	0.666782	1.180253	0.562809
C49	C	0.000125	0.562213	-0.035519
C50	C	0.333458	0.895547	0.297814
C51	C	0.666792	1.228880	0.631147
C52	C	0.000119	0.641155	-0.036782
C53	C	0.333452	0.974489	0.296551
C54	C	0.666785	1.307822	0.629885
C55	C	0.000152	0.243849	-0.030425
C56	C	0.333485	0.577182	0.302908
C57	C	0.666819	0.910516	0.636241
C58	C	0.000155	0.164901	-0.029168
C59	C	0.333489	0.498234	0.304166
C60	C	0.666822	0.831567	0.637499
C61	C	0.000137	0.146602	-0.167097
C62	C	0.333470	0.479935	0.166237
C63	C	0.666803	0.813268	0.499570
C64	C	0.000130	0.225544	-0.168359
C65	C	0.333464	0.558877	0.164974
C66	C	0.666797	0.892210	0.498307
C67	C	0.000145	0.274163	-0.100022
C68	C	0.333479	0.607496	0.233311
C69	C	0.666812	0.940830	0.566645
C70	C	0.000132	0.359763	-0.101391
C71	C	0.333465	0.693096	0.231943
C72	C	0.666799	1.026430	0.565276
C73	C	0.000121	0.427989	-0.102487
C74	C	0.333455	0.761322	0.230846
C75	C	0.666788	1.094655	0.564179
C76	C	0.473465	0.870716	-0.125161
C77	C	0.806798	1.204049	0.208172
C78	C	1.140132	1.537382	0.541506
C79	C	0.526803	0.917036	-0.078727
C80	C	0.860137	1.250369	0.254606
C81	C	1.193470	1.583702	0.587939
C82	C	0.648725	0.911079	-0.084702
C83	C	0.982059	1.244412	0.248631
C84	C	1.315392	1.577746	0.581965
C85	C	0.351532	0.876671	-0.119187
C86	C	0.684866	1.210004	0.214146
C87	C	1.018199	1.543338	0.547479
N88	N	0.745909	0.906333	-0.089463
N89	N	1.079242	1.239666	0.243871
N90	N	1.412576	1.573000	0.577204
C91	C	0.000141	0.899655	0.036444
C92	C	0.333475	1.232988	0.369777
C93	C	0.666808	1.566321	0.703110
C94	C	0.000142	0.898316	0.120462
C95	C	0.333475	1.231649	0.453795
C96	C	0.666808	1.564983	0.787128
C97	C	0.000151	1.032260	-0.096163
C98	C	0.333484	1.365594	0.237170
C99	C	0.666817	1.698927	0.570504
C100	C	0.000157	1.116278	-0.097502
C101	C	0.333490	1.449612	0.235831
C102	C	0.666823	1.782945	0.569165
C103	C	0.000118	0.888096	-0.240328
C104	C	0.333451	1.221429	0.093006
C105	C	0.666785	1.554762	0.426339
C106	C	0.000111	0.889435	-0.324345
C107	C	0.333444	1.222768	0.008988
C108	C	0.666777	1.556101	0.342321
C109	C	0.000154	0.966649	0.169082
C110	C	0.333487	1.299982	0.502415
C111	C	0.666821	1.633316	0.835749
C112	C	0.000144	0.965387	0.248026
C113	C	0.333478	1.298720	0.581359
C114	C	0.666811	1.632054	0.914692
C115	C	0.000130	0.895791	0.278347
C116	C	0.333463	1.229125	0.611681
C117	C	0.666796	1.562458	0.945014
C118	C	0.000114	0.827453	0.229721
C119	C	0.333447	1.160787	0.563054
C120	C	0.666781	1.494120	0.896388
C121	C	0.000116	0.828716	0.150779
C122	C	0.333449	1.162050	0.484112
C123	C	0.666783	1.495383	0.817446
C124	C	0.000105	0.822359	0.548084
C125	C	0.333438	1.155692	0.881418
C126	C	0.666771	1.489025	1.214751
C127	C	0.000106	0.821101	0.627032
C128	C	0.333439	1.154434	0.960366
C129	C	0.666772	1.487767	1.293699
C130	C	0.000133	0.959029	0.645331
C131	C	0.333466	1.292363	0.978665
C132	C	0.666799	1.625696	1.311998
C133	C	0.000135	0.960292	0.566389
C134	C	0.333468	1.293626	0.899723
C135	C	0.666801	1.626959	1.233056
C136	C	0.000113	0.891955	0.517770
C137	C	0.333447	1.225288	0.851103
C138	C	0.666780	1.558622	1.184437
C139	C	0.000122	0.893324	0.432171
C140	C	0.333455	1.226658	0.765504
C141	C	0.666789	1.559991	1.098837
C142	C	0.000129	0.894421	0.363945
C143	C	0.333462	1.227754	0.697278
C144	C	0.666796	1.561088	1.030612
H145	H	0.000078	0.647533	-0.231388
H146	H	0.333412	0.980866	0.101945
H147	H	0.666745	1.314200	0.435279
Cl148	Cl	0.455940	0.985457	-0.010712
Cl149	Cl	0.789273	1.318790	0.322621
Cl150	Cl	1.122607	1.652124	0.655954
H151	H	0.519362	0.826590	-0.169399
H152	H	0.852695	1.159923	0.163934
H153	H	1.186028	1.493256	0.497268
Cl154	Cl	0.000183	1.054145	0.130971
Cl155	Cl	0.333517	1.387479	0.464305
Cl156	Cl	0.666850	1.720812	0.797638
Cl157	Cl	0.000155	1.044941	0.706458
Cl158	Cl	0.333489	1.378274	1.039791
Cl159	Cl	0.666822	1.711607	1.373124
H160	H	0.000087	0.766714	0.508508
H161	H	0.333421	1.100047	0.841841
H162	H	0.666754	1.433381	1.175174
H163	H	0.000157	1.021031	0.287610
H164	H	0.333490	1.354364	0.620943
H165	H	0.666824	1.687697	0.954276
H166	H	0.000095	0.770788	0.254415
H167	H	0.333429	1.104121	0.587748
H168	H	0.666762	1.437454	0.921082
H169	H	0.000152	1.016964	0.541706
H170	H	0.333485	1.350297	0.875039
H171	H	0.666819	1.683631	1.208373
Cl172	Cl	0.000096	0.742809	0.089656
Cl173	Cl	0.333430	1.076142	0.422989
Cl174	Cl	0.666763	1.409475	0.756322
H175	H	0.000096	0.764424	0.651716
H176	H	0.333429	1.097757	0.985050
H177	H	0.666763	1.431091	1.318383
H178	H	0.000130	0.107005	-0.222741
H179	H	0.333463	0.440339	0.110593
H180	H	0.666797	0.773672	0.443926
H181	H	0.000097	0.504324	-0.229097
H182	H	0.333430	0.837657	0.104236
H183	H	0.666764	1.170990	0.437570
H184	H	0.000165	0.283426	0.025219
H185	H	0.333499	0.616759	0.358553
H186	H	0.666832	0.950093	0.691886
Cl187	Cl	0.000108	0.263658	-0.255854
Cl188	Cl	0.333442	0.596991	0.077479
Cl189	Cl	0.666775	0.930324	0.410812
H190	H	0.000151	0.537519	0.021146
H191	H	0.333484	0.870852	0.354480
H192	H	0.666817	1.204185	0.687813
Cl193	Cl	0.000172	0.126784	0.058331
Cl194	Cl	0.333505	0.460117	0.391664
Cl195	Cl	0.666838	0.793451	0.724998
H196	H	0.000123	0.680742	0.018862
H197	H	0.333457	1.014076	0.352195
H198	H	0.666790	1.347409	0.685529
