data_functionalizedCrystal
_audit_creation_method	'MofGen! by Chris Wilmer'
_symmetry_space_group_name_H-M	'P1'
_symmetry_Int_Tables_number	1
_symmetry_cell_setting	triclinic
loop_
_symmetry_equiv_pos_as_xyz
  x,y,z
_cell_length_a	26.374263
_cell_length_b	26.373608
_cell_length_c	26.370205
_cell_angle_alpha	60.005297
_cell_angle_beta	60.010839
_cell_angle_gamma	59.993700
loop_
_atom_site_label
_atom_site_type_symbol
_atom_site_fract_x
_atom_site_fract_y
_atom_site_fract_z
O1	O	0.070152	-0.740800	0.619517
O2	O	0.570152	-0.240800	1.119517
O3	O	0.026377	-0.576764	0.499159
O4	O	0.526377	-0.076764	0.999159
O5	O	0.130245	-0.680560	0.499088
O6	O	0.630245	-0.180560	0.999088
O7	O	-0.033715	-0.637003	0.619589
O8	O	0.466285	-0.137003	1.119589
O9	O	0.164701	-0.646107	0.533470
O10	O	0.664701	-0.146107	1.033470
O11	O	0.060833	-0.542310	0.533541
O12	O	0.560833	-0.042310	1.033541
O13	O	0.104608	-0.706346	0.653899
O14	O	0.604608	-0.206346	1.153899
Cu15	Cu	0.085867	-0.621182	0.596859
Cu16	Cu	0.585867	-0.121182	1.096859
Cu17	Cu	0.045119	-0.661927	0.556199
Cu18	Cu	0.545119	-0.161927	1.056199
O19	O	0.000741	-0.602549	0.653971
O20	O	0.500741	-0.102549	1.153971
N21	N	0.114528	-0.592529	0.625461
N22	N	0.614528	-0.092529	1.125461
N23	N	0.016463	-0.690587	0.527598
N24	N	0.516463	-0.190587	1.027598
C25	C	0.181428	-0.355400	0.692330
C26	C	0.681428	0.144600	1.192330
C27	C	0.181530	-0.525690	0.862573
C28	C	0.681530	-0.025690	1.362573
C29	C	0.181440	-0.525667	0.692313
C30	C	0.681440	-0.025667	1.192313
C31	C	0.351736	-0.525673	0.692271
C32	C	0.851736	-0.025673	1.192271
C33	C	0.200174	-0.411588	0.711047
C34	C	0.700174	0.088412	1.211047
C35	C	0.200232	-0.506954	0.806384
C36	C	0.700232	-0.006954	1.306384
C37	C	0.295546	-0.506943	0.711016
C38	C	0.795546	-0.006943	1.211016
C39	C	0.200182	-0.506940	0.711037
C40	C	0.700182	-0.006940	1.211037
C41	C	0.157567	-0.283881	0.668507
C42	C	0.657567	0.216119	1.168507
C43	C	0.157587	-0.549500	0.668479
C44	C	0.657587	-0.049500	1.168479
C45	C	0.224035	-0.483107	0.734871
C46	C	0.724035	0.016893	1.234871
C47	C	0.455739	-0.507754	0.637520
C48	C	0.955739	-0.007754	1.137520
C49	C	0.520749	-0.529425	0.615835
C50	C	1.020749	-0.029425	1.115835
C51	C	0.520768	-0.634611	0.655947
C52	C	1.020768	-0.134611	1.155947
C53	C	0.455759	-0.612939	0.677633
C54	C	0.955759	-0.112939	1.177633
C55	C	0.173240	-0.251367	0.604595
C56	C	0.673240	0.248633	1.104595
C57	C	0.151546	-0.186351	0.582941
C58	C	0.651546	0.313649	1.082941
C59	C	0.098512	-0.186369	0.689113
C60	C	0.598512	0.313631	1.189113
C61	C	0.120206	-0.251385	0.710768
C62	C	0.620206	0.248615	1.210768
C63	C	0.093669	-0.533798	0.684205
C64	C	0.593669	-0.033798	1.184205
C65	C	0.071992	-0.555464	0.662532
C66	C	0.571992	-0.055464	1.162532
C67	C	0.178144	-0.608536	0.609422
C68	C	0.678144	-0.108536	1.109422
C69	C	0.199825	-0.586869	0.631088
C70	C	0.699825	-0.086869	1.131088
C71	C	0.093821	-0.533842	0.966616
C72	C	0.593821	-0.033842	1.466616
C73	C	0.072187	-0.555526	1.031630
C74	C	0.572187	-0.055526	1.531630
C75	C	0.178370	-0.608608	1.031591
C76	C	0.678370	-0.108608	1.531591
C77	C	0.200004	-0.586926	0.966576
C78	C	0.700004	-0.086926	1.466576
C79	C	0.157728	-0.549541	0.934090
C80	C	0.657728	-0.049541	1.434090
C81	C	0.423247	-0.549509	0.668416
C82	C	0.923247	-0.049509	1.168416
C83	C	-0.097522	-0.709158	0.508557
C84	C	0.402478	-0.209158	1.008557
C85	C	-0.002050	-0.709295	0.413344
C86	C	0.497950	-0.209295	0.913344
C87	C	-0.002241	-0.804604	0.508735
C88	C	0.497759	-0.304604	1.008735
C89	C	-0.002225	-0.709288	0.508793
C90	C	0.497775	-0.209288	1.008793
C91	C	-0.026009	-0.733087	0.484858
C92	C	0.473991	-0.233087	0.984858
N93	N	0.552340	-0.592538	0.625346
N94	N	1.052340	-0.092538	1.125346
O95	O	0.750867	-0.598274	0.477076
O96	O	1.250867	-0.098274	0.977076
O97	O	0.751048	-0.718989	0.640960
O98	O	1.251048	-0.218989	1.140960
O99	O	0.750981	-0.718715	0.537020
O100	O	1.250981	-0.218715	1.037020
O101	O	0.750934	-0.598547	0.581017
O102	O	1.250934	-0.098547	1.081017
O103	O	0.647701	-0.684348	0.571512
O104	O	1.147701	-0.184348	1.071512
O105	O	0.647768	-0.684622	0.675452
O106	O	1.147768	-0.184622	1.175452
O107	O	0.647587	-0.563907	0.511569
O108	O	1.147587	-0.063907	1.011569
Cu109	Cu	0.638247	-0.621127	0.596660
Cu110	Cu	1.138247	-0.121127	1.096660
Cu111	Cu	0.760388	-0.661769	0.555869
Cu112	Cu	1.260388	-0.161769	1.055869
O113	O	0.647654	-0.564181	0.615509
O114	O	1.147654	-0.064181	1.115509
N115	N	0.846295	-0.690358	0.527176
N116	N	1.346295	-0.190358	1.027176
N117	N	0.114503	-0.154778	0.625499
N118	N	0.614503	0.345222	1.125499
O119	O	-0.033701	0.043855	0.619632
O120	O	0.466299	0.543855	1.119632
O121	O	0.130190	0.043858	0.498933
O122	O	0.630190	0.543858	0.998933
O123	O	0.026233	0.043841	0.499224
O124	O	0.526233	0.543841	0.999224
O125	O	0.070257	0.043872	0.619341
O126	O	0.570257	0.543872	1.119341
O127	O	0.060690	-0.059448	0.533654
O128	O	0.560690	0.440552	1.033654
O129	O	0.164647	-0.059431	0.533363
O130	O	0.664647	0.440569	1.033363
O131	O	0.000756	-0.059434	0.654062
O132	O	0.500756	0.440566	1.154062
Cu133	Cu	0.085848	-0.068863	0.596857
Cu134	Cu	0.585848	0.431137	1.096857
Cu135	Cu	0.045099	0.053287	0.556138
Cu136	Cu	0.545099	0.553287	1.056138
O137	O	0.104714	-0.059417	0.653771
O138	O	0.604714	0.440583	1.153771
N139	N	0.016435	0.139202	0.527497
N140	N	0.516435	0.639202	1.027497
N141	N	0.114760	-0.592585	1.063190
N142	N	0.614760	-0.092585	1.563190
O143	O	0.108896	-0.740779	1.261808
O144	O	0.608896	-0.240779	1.761808
O145	O	-0.011787	-0.576838	1.261822
O146	O	0.488213	-0.076838	1.761822
O147	O	-0.011509	-0.680779	1.261780
O148	O	0.488491	-0.180779	1.761780
O149	O	0.108618	-0.636838	1.261850
O150	O	0.608618	-0.136838	1.761850
O151	O	0.022916	-0.646341	1.158496
O152	O	0.522916	-0.146341	1.658496
O153	O	0.022638	-0.542399	1.158538
O154	O	0.522638	-0.042399	1.658538
O155	O	0.143321	-0.706341	1.158524
O156	O	0.643321	-0.206341	1.658524
Cu157	Cu	0.086123	-0.621225	1.149100
Cu158	Cu	0.586123	-0.121225	1.649100
Cu159	Cu	0.045411	-0.661953	1.271246
Cu160	Cu	0.545411	-0.161953	1.771246
O161	O	0.143044	-0.602399	1.158566
O162	O	0.643044	-0.102399	1.658566
N163	N	0.016774	-0.690600	1.357156
N164	N	0.516774	-0.190600	1.857156
C165	C	0.039504	-0.538867	0.499769
C166	C	0.539504	-0.038867	0.999769
C167	C	0.168130	-0.667407	0.499680
C168	C	0.668130	-0.167407	0.999680
C169	C	0.091482	-0.744243	0.653289
C170	C	0.591482	-0.244243	1.153289
C171	C	-0.037145	-0.615703	0.653378
C172	C	0.462855	-0.115703	1.153378
C173	C	0.699429	-0.718429	0.678853
C174	C	1.199429	-0.218429	1.178853
C175	C	0.699348	-0.718091	0.550135
C176	C	1.199348	-0.218091	1.050135
C177	C	0.699202	-0.564465	0.473677
C178	C	1.199202	-0.064465	0.973677
C179	C	0.699287	-0.564805	0.602393
C180	C	1.199287	-0.064805	1.102393
C181	C	0.168023	-0.007659	0.499484
C182	C	0.668023	0.492341	0.999484
C183	C	0.039327	-0.007807	0.499887
C184	C	0.539327	0.492193	0.999887
C185	C	-0.037119	-0.007789	0.653468
C186	C	0.462881	0.492211	1.153468
C187	C	0.091620	-0.007770	0.653109
C188	C	0.591620	0.492230	1.153109
C189	C	-0.011194	-0.538964	1.210181
C190	C	0.488806	-0.038964	1.710181
C191	C	-0.010843	-0.667676	1.210109
C192	C	0.489157	-0.167676	1.710109
C193	C	0.142729	-0.744214	1.210165
C194	C	0.642729	-0.244214	1.710165
C195	C	0.142386	-0.615494	1.210214
C196	C	0.642386	-0.115494	1.710214
H197	H	0.020147	-0.542732	1.058106
H198	H	0.520147	-0.042732	1.558106
H199	H	0.699278	-0.527058	0.611808
H200	H	1.199278	-0.027058	1.111808
H201	H	0.215222	-0.676694	0.461838
H202	H	0.715222	-0.176694	0.961838
C203	C	-0.061808	-0.680346	1.210022
C204	C	0.438192	-0.180346	1.710022
H205	H	-0.097948	-0.644437	1.210012
H206	H	0.402052	-0.144437	1.710012
H207	H	-0.047436	-0.690193	1.173986
H208	H	0.452564	-0.190193	1.673986
H209	H	-0.071489	-0.714221	1.246025
H210	H	0.428511	-0.214221	1.746025
C211	C	0.699124	-0.513264	0.410099
C212	C	1.199124	-0.013264	0.910099
H213	H	0.699119	-0.528268	0.384002
H214	H	1.199119	-0.028268	0.884002
H215	H	0.663089	-0.477987	0.415564
H216	H	1.163089	0.022013	0.915564
H217	H	0.735125	-0.501956	0.391501
H218	H	1.235125	-0.001956	0.891501
H219	H	0.101045	-0.007760	0.690842
H220	H	0.601045	0.492240	1.190842
H221	H	0.699474	-0.756325	0.725922
H222	H	1.199474	-0.256325	1.225922
C223	C	0.026601	-0.007823	0.448910
C224	C	0.526601	0.492177	0.948910
H225	H	-0.014519	-0.007832	0.464093
H226	H	0.485481	0.492168	0.964093
H227	H	0.031219	0.028192	0.413586
H228	H	0.531219	0.528192	0.913586
H229	H	0.055251	-0.043851	0.437609
H230	H	0.555251	0.456149	0.937609
H231	H	0.100832	-0.791364	0.691090
H232	H	0.600832	-0.291364	1.191090
C233	C	-0.100761	-0.603165	0.704499
C234	C	0.399239	-0.103165	1.204499
H235	H	-0.126813	-0.562055	0.689433
H236	H	0.373187	-0.062055	1.189433
H237	H	-0.119375	-0.631864	0.715812
H238	H	0.380625	-0.131864	1.215812
H239	H	-0.095341	-0.607831	0.739789
H240	H	0.404659	-0.107831	1.239789
H241	H	-0.084187	-0.007791	0.691362
H242	H	0.415813	0.492209	1.191362
H243	H	0.547206	-0.495421	0.590679
H244	H	1.047206	0.004579	1.090679
C245	C	-0.062381	-0.475360	1.210186
C246	C	0.437619	0.024640	1.710186
H247	H	-0.047385	-0.449273	1.210208
H248	H	0.452615	0.050727	1.710208
H249	H	-0.073665	-0.456773	1.174163
H250	H	0.426335	0.043227	1.674163
H251	H	-0.097671	-0.480797	1.246202
H252	H	0.402329	0.019203	1.746202
C253	C	0.193916	-0.807818	1.210159
C254	C	0.693916	-0.307818	1.710159
H255	H	0.178917	-0.833908	1.210145
H256	H	0.678917	-0.333908	1.710145
H257	H	0.229206	-0.802384	1.174149
H258	H	0.729206	-0.302384	1.674149
H259	H	0.205195	-0.826407	1.246189
H260	H	0.705195	-0.326407	1.746189
C261	C	0.193373	-0.602802	1.210233
C262	C	0.693373	-0.102802	1.710233
H263	H	0.229515	-0.638710	1.210237
H264	H	0.729515	-0.138710	1.710237
H265	H	0.203032	-0.568928	1.174223
H266	H	0.703032	-0.068928	1.674223
H267	H	0.179027	-0.592950	1.246262
H268	H	0.679027	-0.092950	1.746262
C269	C	0.047315	-0.492718	0.930888
C270	C	0.547315	0.007282	1.430888
H271	H	0.006156	-0.486478	0.959572
H272	H	0.506156	0.013522	1.459572
H273	H	0.053545	-0.453749	0.905529
H274	H	0.553545	0.046251	1.405529
H275	H	0.053547	-0.512569	0.905526
H276	H	0.553547	-0.012569	1.405526
H277	H	0.214995	-0.007372	0.461496
H278	H	0.714995	0.492628	0.961496
C279	C	0.224874	-0.649688	1.067323
C280	C	0.724874	-0.149688	1.567323
H281	H	0.266034	-0.655924	1.038640
H282	H	0.766034	-0.155924	1.538640
H283	H	0.218618	-0.629816	1.092674
H284	H	0.718618	-0.129816	1.592674
H285	H	0.218665	-0.688669	1.092692
H286	H	0.718665	-0.188669	1.592692
C287	C	0.699368	-0.769088	0.537420
C288	C	1.199368	-0.269088	1.037420
H289	H	0.699327	-0.753906	0.496304
H290	H	1.199327	-0.253906	0.996304
H291	H	0.735407	-0.804395	0.542026
H292	H	1.235407	-0.304395	1.042026
H293	H	0.663371	-0.780418	0.566083
H294	H	1.163371	-0.280418	1.066083
H295	H	0.059274	-0.503369	0.714648
H296	H	0.559274	-0.003369	1.214648
C297	C	0.270304	-0.604193	0.930801
C298	C	0.770304	-0.104193	1.430801
H299	H	0.292380	-0.629556	0.959461
H300	H	0.792380	-0.129556	1.459461
H301	H	0.280957	-0.626246	0.905434
H302	H	0.780957	-0.126246	1.405434
H303	H	0.280944	-0.567425	0.905445
H304	H	0.780944	-0.067425	1.405445
C305	C	0.026881	-0.475215	0.448698
C306	C	0.526881	0.024785	0.948698
H307	H	0.062803	-0.475050	0.412585
H308	H	0.562803	0.024950	0.912585
H309	H	-0.006987	-0.467676	0.439011
H310	H	0.493013	0.032324	0.939011
H311	H	0.017049	-0.443649	0.462992
H312	H	0.517049	0.056351	0.962992
C313	C	0.001683	-0.538199	0.679830
C314	C	0.501683	-0.038199	1.179830
H315	H	-0.020368	-0.512849	0.705211
H316	H	0.479632	-0.012849	1.205211
H317	H	-0.009003	-0.516134	0.643080
H318	H	0.490997	-0.016134	1.143080
H319	H	-0.008955	-0.574969	0.701884
H320	H	0.491045	-0.074969	1.201884
H321	H	0.251872	-0.599651	0.618278
H322	H	0.751872	-0.099651	1.118278
C323	C	0.224610	-0.649644	0.568295
C324	C	0.724610	-0.149644	1.068295
H325	H	0.265781	-0.655890	0.562033
H326	H	0.765781	-0.155890	1.062033
H327	H	0.218376	-0.688612	0.588139
H328	H	0.718376	-0.188612	1.088139
H329	H	0.218342	-0.629782	0.529331
H330	H	0.718342	-0.129782	1.029331
H331	H	0.429307	-0.646943	0.702793
H332	H	0.929307	-0.146943	1.202793
H333	H	0.547237	-0.686258	0.663446
H334	H	1.047237	-0.186258	1.163446
H335	H	0.203661	-0.277820	0.570179
H336	H	0.703661	0.222180	1.070179
C337	C	0.419975	-0.437981	0.627386
C338	C	0.919975	0.062019	1.127386
H339	H	0.448641	-0.416220	0.605884
H340	H	0.948641	0.083780	1.105884
H341	H	0.394599	-0.422728	0.603572
H342	H	0.894599	0.077272	1.103572
H343	H	0.394630	-0.431952	0.666453
H344	H	0.894630	0.068048	1.166453
H345	H	0.164306	-0.159876	0.530897
H346	H	0.664306	0.340124	1.030897
H347	H	0.107441	-0.277854	0.762810
H348	H	0.607441	0.222146	1.262810
C349	C	0.057420	-0.150622	0.735599
C350	C	0.557420	0.349378	1.235599
H351	H	0.051195	-0.179300	0.776765
H352	H	0.551195	0.320700	1.276765
H353	H	0.077265	-0.125256	0.729346
H354	H	0.577265	0.374744	1.229346
H355	H	0.018439	-0.125265	0.729369
H356	H	0.518439	0.374735	1.229369
