data_functionalizedCrystal
_audit_creation_method	'MofGen! by Chris Wilmer'
_symmetry_space_group_name_H-M	'P1'
_symmetry_Int_Tables_number	1
_symmetry_cell_setting	triclinic
loop_
_symmetry_equiv_pos_as_xyz
  x,y,z
_cell_length_a	17.077404
_cell_length_b	17.077402
_cell_length_c	17.077396
_cell_angle_alpha	89.969381
_cell_angle_beta	89.982756
_cell_angle_gamma	90.023108
loop_
_atom_site_label
_atom_site_type_symbol
_atom_site_fract_x
_atom_site_fract_y
_atom_site_fract_z
Zn1	Zn	1.200037	-0.312497	-0.443836
Zn2	Zn	1.199949	-0.443774	-0.312567
Zn3	Zn	1.068774	-0.312526	-0.312584
Zn4	Zn	1.068737	-0.443725	-0.443790
O5	O	1.134374	-0.378131	-0.378194
O6	O	1.309872	-0.329919	-0.426434
O7	O	1.182528	-0.426396	-0.202722
O8	O	1.086239	-0.202676	-0.330021
O9	O	1.309808	-0.426368	-0.329992
O10	O	1.182677	-0.202654	-0.426451
O11	O	1.086154	-0.329969	-0.202734
O12	O	0.958922	-0.329922	-0.329976
O13	O	1.086175	-0.426285	-0.553643
O14	O	0.958895	-0.426313	-0.426373
O15	O	1.182641	-0.329872	-0.553677
O16	O	1.182492	-0.553614	-0.329948
O17	O	1.086090	-0.553579	-0.426357
C18	C	0.930427	-0.378116	-0.378172
C19	C	0.843177	-0.378129	-0.378182
C20	C	0.802193	-0.428396	-0.428295
C21	C	0.720212	-0.428398	-0.428308
C22	C	0.679217	-0.378136	-0.378202
C23	C	0.720207	-0.327864	-0.328087
C24	C	0.802186	-0.327859	-0.328079
C25	C	0.549337	-0.327879	-0.328106
C26	C	0.467352	-0.327885	-0.328112
C27	C	0.467363	-0.428418	-0.428335
C28	C	0.549342	-0.428413	-0.428326
C29	C	0.590326	-0.378142	-0.378210
C30	C	1.134299	-0.582078	-0.378163
C31	C	1.134338	-0.669328	-0.378176
C32	C	1.184585	-0.710311	-0.328029
C33	C	1.184624	-0.792291	-0.328049
C34	C	1.134410	-0.833288	-0.378212
C35	C	1.084161	-0.792299	-0.428364
C36	C	1.084127	-0.710320	-0.428348
C37	C	1.084233	-0.963169	-0.428394
C38	C	1.084266	-1.045154	-0.428410
C39	C	1.184730	-1.045140	-0.328096
C40	C	1.184697	-0.963161	-0.328079
C41	C	1.134446	-0.922179	-0.378230
C42	C	1.339119	-0.378145	-0.378216
C43	C	1.426368	-0.378152	-0.378226
C44	C	1.134414	-0.378070	-0.582938
C45	C	1.134431	-0.378044	-0.670188
C46	C	1.134472	-0.173386	-0.378243
C47	C	1.134513	-0.086136	-0.378263
C48	C	1.084264	-0.327828	-0.711184
C49	C	1.084277	-0.327811	-0.793165
C50	C	1.134461	-0.378005	-0.834148
C51	C	1.184630	-0.428226	-0.793146
C52	C	1.184612	-0.428247	-0.711167
C53	C	1.184664	-0.428177	-0.964016
C54	C	1.184682	-0.428155	-1.046001
C55	C	1.084328	-0.327740	-1.046014
C56	C	1.084311	-0.327762	-0.964035
C57	C	1.134481	-0.377982	-0.923039
C58	C	1.134380	-0.378135	-0.174246
C59	C	1.134516	-0.377939	-0.086997
H60	H	0.686847	-0.469330	-0.469114
H61	H	1.043279	-0.825685	-0.469211
H62	H	1.043316	-0.929804	-0.469235
Cl63	Cl	1.247714	-0.491333	-0.844668
H64	H	0.433976	-0.286948	-0.287321
Cl65	Cl	1.020959	-0.658799	-0.491394
H66	H	1.225469	-0.469132	-0.677789
H67	H	1.225524	-0.469065	-0.930640
Cl68	Cl	1.021259	-0.264605	-1.097551
Cl69	Cl	0.600858	-0.264680	-0.265100
Cl70	Cl	0.853709	-0.264662	-0.265078
H71	H	0.686822	-0.286937	-0.287293
Cl72	Cl	1.021176	-0.264719	-0.659671
H73	H	1.043423	-0.286923	-0.826540
Cl74	Cl	1.021227	-0.264654	-0.912514
H75	H	1.225546	-0.469027	-1.079367
H76	H	1.225649	-1.078512	-0.287263
Cl77	Cl	0.853722	-0.491589	-0.491285
H78	H	0.433990	-0.469349	-0.469144
H79	H	1.225472	-0.676937	-0.287177
Cl80	Cl	1.247797	-0.843809	-0.265007
Cl81	Cl	1.247823	-0.911624	-0.265016
Cl82	Cl	0.600878	-0.491605	-0.491312
H83	H	1.043392	-1.078531	-0.469272
