data_functionalizedCrystal
_audit_creation_method	'MofGen! by Chris Wilmer'
_symmetry_space_group_name_H-M	'P1'
_symmetry_Int_Tables_number	1
_symmetry_cell_setting	triclinic
loop_
_symmetry_equiv_pos_as_xyz
  x,y,z
_cell_length_a	25.639242
_cell_length_b	15.298671
_cell_length_c	15.296720
_cell_angle_alpha	88.402671
_cell_angle_beta	99.661653
_cell_angle_gamma	99.672940
loop_
_atom_site_label
_atom_site_type_symbol
_atom_site_fract_x
_atom_site_fract_y
_atom_site_fract_z
Zn1	Zn	0.799281	0.434586	-0.434972
Zn2	Zn	0.828621	0.555735	-0.263182
Zn3	Zn	0.724005	0.409260	-0.288512
Zn4	Zn	0.729067	0.580993	-0.409615
O5	O	0.770243	0.495143	-0.349070
O6	O	0.876340	0.450685	-0.412195
O7	O	0.824904	0.515134	-0.143965
O8	O	0.719593	0.290047	-0.329154
O9	O	0.897896	0.539693	-0.285981
O10	O	0.774898	0.308654	-0.436757
O11	O	0.748043	0.407520	-0.162576
O12	O	0.651509	0.432012	-0.304566
O13	O	0.728221	0.582742	-0.535555
O14	O	0.655229	0.558184	-0.393539
O15	O	0.779807	0.475177	-0.554185
O16	O	0.829812	0.681657	-0.261394
O17	O	0.756671	0.700215	-0.368977
C18	C	0.634398	0.495091	-0.349050
C19	C	0.576283	0.495094	-0.349059
C20	C	0.313880	0.448915	-0.414875
C21	C	0.368484	0.448905	-0.414871
O22	O	0.387187	0.409603	-0.470831
N23	N	0.407011	0.495135	-0.349082
C24	C	0.390932	0.541385	-0.283297
O25	O	0.428716	0.580707	-0.227339
C26	C	0.336329	0.541399	-0.283305
C27	C	0.297805	0.495159	-0.349094
C28	C	0.275357	0.402679	-0.480658
C29	C	0.220757	0.402687	-0.480660
C30	C	0.204681	0.448931	-0.414879
C31	C	0.243205	0.495167	-0.349096
C32	C	0.320252	0.587654	-0.217525
C33	C	0.265644	0.587664	-0.217539
C34	C	0.227119	0.541424	-0.283327
C35	C	0.172529	0.541419	-0.283317
N36	N	0.134002	0.495189	-0.349106
C37	C	0.150078	0.448945	-0.414887
C38	C	0.505601	0.541353	-0.283287
C39	C	0.560202	0.541334	-0.283274
C40	C	0.537751	0.448856	-0.414849
C41	C	0.483148	0.448870	-0.414857
C42	C	0.467074	0.495123	-0.349076
C43	C	0.035415	0.448966	-0.414887
C44	C	-0.019189	0.448975	-0.414881
C45	C	0.003268	0.541457	-0.283309
C46	C	0.057867	0.541444	-0.283312
C47	C	0.073938	0.495197	-0.349108
O48	O	0.153787	0.580705	-0.227388
O49	O	0.112289	0.409640	-0.470843
C50	C	0.796987	0.722721	-0.309704
C51	C	0.808474	0.820085	-0.292893
C52	C	0.851971	0.856139	-0.229030
C53	C	0.862768	0.947617	-0.213238
C54	C	0.830065	1.003050	-0.261302
C55	C	0.786564	0.966996	-0.325162
C56	C	0.775769	0.875509	-0.340961
C57	C	0.753862	1.022420	-0.373233
C58	C	0.710362	0.986366	-0.437093
C59	C	0.699568	0.894887	-0.452888
C60	C	0.732271	0.839455	-0.404823
C61	C	0.764657	1.113907	-0.357435
C62	C	0.688455	1.133277	-0.469365
C63	C	0.677659	1.041798	-0.485157
C64	C	0.906620	0.495197	-0.349091
C65	C	0.964735	0.495219	-0.349100
C66	C	0.743403	1.266682	-0.388620
C67	C	0.731953	1.169331	-0.405503
C68	C	0.751306	0.534602	-0.577542
C69	C	0.743235	0.551417	-0.674902
C70	C	0.827924	0.374810	-0.988143
C71	C	0.835510	0.359013	-0.896668
C72	C	0.812442	0.407113	-0.841222
C73	C	0.781787	0.471012	-0.877261
C74	C	0.774204	0.486816	-0.968744
C75	C	0.758721	0.519118	-0.821823
C76	C	0.728066	0.583018	-0.857862
C77	C	0.720484	0.598818	-0.949337
C78	C	0.743552	0.550719	-1.004782
C79	C	0.766304	0.503315	-0.730339
C80	C	0.712584	0.615320	-0.710940
C81	C	0.704998	0.631117	-0.802416
C82	C	0.789130	0.455775	-0.121499
C83	C	0.797273	0.438713	-0.024181
H84	H	0.189393	0.365038	-0.534235
H85	H	0.693801	0.654488	-0.665796
Cl86	Cl	0.647342	1.202958	-0.529796
H87	H	0.089235	0.579088	-0.229735
H88	H	0.252561	0.625333	-0.163972
H89	H	-0.009832	0.579104	-0.229749
H90	H	0.664151	0.865533	-0.504893
H91	H	0.737378	0.563577	-1.079270
Cl92	Cl	0.819342	1.159221	-0.277156
Cl93	Cl	0.295554	0.344536	-0.563367
H94	H	0.791264	0.451286	-0.701006
H95	H	0.846706	0.335660	-1.033294
H96	H	0.680039	0.683145	-0.831772
H97	H	0.642240	1.012431	-0.537153
H98	H	0.818620	0.394247	-0.766739
Cl99	Cl	0.434722	0.390739	-0.497567
Cl100	Cl	0.874045	0.278686	-0.851368
H101	H	0.838858	1.077536	-0.248441
Cl102	Cl	0.917453	0.992937	-0.132963
H103	H	0.695528	0.650857	-0.978675
Cl104	Cl	-0.067618	0.390839	-0.497592
H105	H	0.048493	0.411306	-0.468464
H106	H	0.878597	0.811001	-0.189906
H107	H	0.550849	0.411201	-0.468412
H108	H	0.492518	0.579015	-0.229712
Cl109	Cl	0.608627	0.599448	-0.200552
H110	H	0.351610	0.625308	-0.163953
H111	H	0.723483	0.764964	-0.417678
