data_functionalizedCrystal
_audit_creation_method	'MofGen! by Chris Wilmer'
_symmetry_space_group_name_H-M	'P1'
_symmetry_Int_Tables_number	1
_symmetry_cell_setting	triclinic
loop_
_symmetry_equiv_pos_as_xyz
  x,y,z
_cell_length_a	21.395362
_cell_length_b	12.594516
_cell_length_c	21.395355
_cell_angle_alpha	90.011407
_cell_angle_beta	90.043940
_cell_angle_gamma	90.031933
loop_
_atom_site_label
_atom_site_type_symbol
_atom_site_fract_x
_atom_site_fract_y
_atom_site_fract_z
Zn1	Zn	0.957923	-0.423414	0.354617
Zn2	Zn	0.957853	-0.601379	0.249852
Zn3	Zn	0.853138	-0.423464	0.249818
Zn4	Zn	0.853134	-0.601400	0.354557
O5	O	0.905512	-0.512414	0.302211
O6	O	1.045592	-0.446992	0.340759
O7	O	0.943934	-0.577789	0.162170
O8	O	0.867069	-0.274511	0.263730
O9	O	1.045540	-0.577741	0.263789
O10	O	0.944055	-0.274475	0.340725
O11	O	0.867001	-0.447076	0.162144
O12	O	0.765460	-0.447097	0.263672
O13	O	0.867063	-0.577779	0.442243
O14	O	0.765457	-0.577827	0.340624
O15	O	0.944051	-0.447013	0.442287
O16	O	0.943930	-0.750327	0.263731
O17	O	0.866994	-0.750343	0.340657
C18	C	0.742724	-0.512471	0.302138
C19	C	0.673083	-0.512520	0.302122
C20	C	0.640385	-0.580681	0.342130
C21	C	0.574949	-0.580655	0.342158
C22	C	0.542215	-0.512479	0.302167
C23	C	0.574921	-0.444305	0.262155
C24	C	0.640355	-0.444326	0.262133
C25	C	0.438489	-0.503905	0.245761
C26	C	0.373056	-0.503892	0.245782
C27	C	0.340394	-0.512410	0.302236
C28	C	0.373173	-0.520963	0.358670
C29	C	0.438608	-0.520984	0.358648
C30	C	0.471262	-0.512449	0.302187
C31	C	0.236743	-0.580546	0.342278
C32	C	0.171307	-0.580513	0.342307
C33	C	0.171280	-0.444168	0.262298
C34	C	0.236715	-0.444196	0.262275
C35	C	0.269443	-0.512391	0.302264
C36	C	0.905471	-0.788955	0.302205
C37	C	0.905511	-0.907261	0.302223
C38	C	0.863661	-0.976561	0.344034
C39	C	0.848392	-1.047409	0.286856
C40	C	0.920837	-1.047212	0.359410
C41	C	0.890211	-0.976550	0.245015
C42	C	0.962683	-0.976347	0.317608
C43	C	0.947436	-1.047163	0.260391
C44	C	1.068935	-0.512359	0.302284
C45	C	1.138577	-0.512335	0.302315
C46	C	0.905564	-0.512393	0.465634
C47	C	0.905586	-0.512384	0.535275
C48	C	0.905570	-0.234793	0.302231
C49	C	0.905595	-0.116488	0.302239
C50	C	0.905496	-0.512359	0.139423
C51	C	0.905596	-0.512068	0.069782
C52	C	0.945672	-0.444291	0.568012
C53	C	0.945671	-0.444245	0.633448
C54	C	0.905591	-0.512311	0.666144
C55	C	0.865497	-0.580408	0.633399
C56	C	0.865495	-0.580445	0.567965
C57	C	0.900630	-0.608151	0.769815
C58	C	0.900636	-0.608116	0.835248
C59	C	0.905595	-0.512199	0.867965
C60	C	0.910560	-0.416312	0.835241
C61	C	0.910557	-0.416349	0.769806
C62	C	0.905589	-0.512279	0.737096
C63	C	0.945682	-0.444051	0.971654
C64	C	0.945677	-0.444003	1.037091
C65	C	0.865506	-0.580176	1.037041
C66	C	0.865508	-0.580214	0.971605
C67	C	0.905599	-0.512153	0.938916
H68	H	0.263392	-0.636069	0.374843
C69	C	0.554887	-0.632772	0.448207
C70	C	0.538995	-0.655579	0.386139
H71	H	0.532693	-0.679030	0.475358
H72	H	0.544206	-0.561285	0.457446
H73	H	0.598542	-0.642553	0.453912
H74	H	0.495341	-0.645790	0.380432
H75	H	0.549672	-0.727083	0.376897
C76	C	1.068038	-1.019764	0.346622
C77	C	1.027884	-0.934174	0.335194
H78	H	1.108289	-0.993724	0.357488
H79	H	1.071063	-1.062337	0.310102
H80	H	1.051997	-1.061267	0.380035
H81	H	1.043923	-0.892675	0.301778
H82	H	1.024861	-0.891583	0.371718
C83	C	0.379513	-0.486993	0.134197
C84	C	0.337028	-0.494487	0.183751
H85	H	0.357270	-0.481179	0.095902
H86	H	0.405005	-0.548691	0.133310
H87	H	0.405068	-0.426012	0.139767
H88	H	0.311476	-0.555472	0.178184
H89	H	0.311525	-0.432782	0.184637
C90	C	0.786268	-0.714810	0.978130
C91	C	0.821449	-0.655073	0.935617
H92	H	0.759068	-0.761027	0.955911
H93	H	0.762314	-0.668429	1.003630
H94	H	0.813565	-0.755499	1.003676
H95	H	0.794151	-0.614377	0.910074
H96	H	0.845404	-0.701459	0.910106
H97	H	0.978313	-0.388790	0.660108
C98	C	0.831231	-0.971913	0.451412
C99	C	0.815803	-0.934702	0.391697
H100	H	0.801682	-0.946075	0.480833
H101	H	0.871795	-0.947571	0.462431
H102	H	0.830668	-1.047333	0.451470
H103	H	0.816370	-0.859282	0.391637
H104	H	0.775228	-0.959039	0.380675
H105	H	0.896598	-0.686193	0.861887
C106	C	0.071015	-0.641013	0.377871
C107	C	0.135361	-0.655437	0.386290
H108	H	0.048825	-0.687265	0.405028
H109	H	0.060239	-0.656478	0.335767
H110	H	0.060343	-0.569515	0.387119
H111	H	0.146035	-0.726934	0.377037
H112	H	0.146142	-0.639980	0.428404
C113	C	0.511968	-0.584459	0.175504
C114	C	0.474392	-0.494545	0.183704
H115	H	0.534136	-0.578675	0.137197
H116	H	0.486412	-0.646133	0.174636
H117	H	0.540847	-0.589537	0.209116
H118	H	0.445510	-0.489471	0.150094
H119	H	0.499950	-0.432854	0.184566
H120	H	0.978319	-0.388548	1.063744
C121	C	0.829924	-0.640603	1.137321
C122	C	0.821455	-0.655008	1.072973
H123	H	0.802731	-0.686810	1.159504
H124	H	0.820762	-0.569098	1.148031
H125	H	0.872023	-0.656151	1.148067
H126	H	0.779358	-0.639453	1.062225
H127	H	0.830614	-0.726530	1.062258
C128	C	0.890726	-0.797730	0.776394
C129	C	0.895107	-0.713583	0.733856
H130	H	0.887299	-0.862812	0.754194
H131	H	0.854850	-0.788297	0.801914
H132	H	0.927066	-0.799156	0.801917
H133	H	0.858765	-0.712152	0.708336
H134	H	0.930987	-0.723018	0.708325
C135	C	0.834939	-0.760643	0.653530
C136	C	0.821440	-0.655232	0.669333
H137	H	0.807735	-0.806833	0.675712
H138	H	0.877029	-0.776194	0.664288
H139	H	0.829199	-0.770393	0.609873
H140	H	0.827185	-0.645480	0.712990
H141	H	0.779341	-0.639676	0.658580
H142	H	0.877226	-0.945639	0.196646
H143	H	0.832849	-0.635892	0.541311
H144	H	0.978323	-0.388625	0.945037
H145	H	0.465294	-0.527945	0.404598
H146	H	0.346582	-0.527898	0.404640
H147	H	0.982863	-1.077968	0.224999
C148	C	0.714050	-0.595702	0.426374
C149	C	0.676358	-0.655627	0.386094
H150	H	0.736261	-0.641970	0.453514
H151	H	0.688567	-0.549388	0.450390
H152	H	0.742891	-0.555119	0.402536
H153	H	0.647514	-0.696204	0.409933
H154	H	0.701843	-0.701959	0.362076
C155	C	0.920356	-0.226751	0.776364
C156	C	0.916005	-0.310956	0.733836
H157	H	0.923713	-0.161686	0.754156
H158	H	0.956263	-0.236073	0.801909
H159	H	0.884037	-0.225379	0.801862
H160	H	0.952326	-0.312333	0.708340
H161	H	0.880095	-0.301631	0.708280
C162	C	1.024916	-0.309686	0.574640
C163	C	0.989733	-0.369467	0.532081
H164	H	1.052113	-0.263488	0.552455
H165	H	1.048873	-0.356040	0.600179
H166	H	0.997620	-0.268973	0.600142
H167	H	1.017029	-0.410187	0.506582
H168	H	0.965774	-0.323108	0.506532
C169	C	0.070965	-0.383648	0.226777
C170	C	0.135305	-0.369259	0.218318
H171	H	0.048755	-0.337412	0.199617
H172	H	0.060290	-0.368138	0.268882
H173	H	0.060216	-0.455150	0.217558
H174	H	0.146055	-0.297759	0.227542
H175	H	0.145985	-0.384761	0.176203
H176	H	0.800081	-1.078645	0.273857
H177	H	0.263338	-0.388697	0.229692
H178	H	0.933766	-1.078251	0.407766
C179	C	0.863059	-0.297090	0.908759
C180	C	0.915998	-0.310860	0.871188
H181	H	0.866414	-0.231985	0.930947
H182	H	0.860113	-0.354173	0.937614
H183	H	0.826749	-0.295756	0.883192
H184	H	0.952308	-0.312202	0.896755
H185	H	0.918950	-0.253762	0.842329
C186	C	0.554689	-0.392187	0.156116
C187	C	0.538945	-0.369365	0.218192
H188	H	0.532482	-0.345912	0.128977
H189	H	0.543921	-0.463665	0.146884
H190	H	0.598341	-0.382442	0.150388
H191	H	0.495294	-0.379117	0.223921
H192	H	0.549709	-0.297869	0.227428
H193	H	0.666978	-0.388818	0.229553
