data_functionalizedCrystal
_audit_creation_method	'MofGen! by Chris Wilmer'
_symmetry_space_group_name_H-M	'P1'
_symmetry_Int_Tables_number	1
_symmetry_cell_setting	triclinic
loop_
_symmetry_equiv_pos_as_xyz
  x,y,z
_cell_length_a	16.109301
_cell_length_b	14.044220
_cell_length_c	15.186229
_cell_angle_alpha	89.995248
_cell_angle_beta	89.999362
_cell_angle_gamma	88.325179
loop_
_atom_site_label
_atom_site_type_symbol
_atom_site_fract_x
_atom_site_fract_y
_atom_site_fract_z
O1	O	1.112195	0.121835	-0.073175
O2	O	1.612195	0.621835	0.426825
O3	O	0.871261	0.136997	-0.073189
O4	O	1.371261	0.636997	0.426811
O5	O	0.988112	-0.008568	-0.073174
O6	O	1.488112	0.491432	0.426826
O7	O	0.995345	0.267399	-0.073191
O8	O	1.495345	0.767399	0.426809
O9	O	0.988103	-0.008570	0.073284
O10	O	1.488103	0.491430	0.573284
O11	O	0.871253	0.136995	0.073268
O12	O	1.371253	0.636995	0.573268
O13	O	1.112187	0.121832	0.073282
O14	O	1.612187	0.621832	0.573282
Zn15	Zn	0.991718	0.129413	0.096528
Zn16	Zn	1.491718	0.629413	0.596528
Zn17	Zn	0.991730	0.129416	-0.096435
Zn18	Zn	1.491730	0.629416	0.403565
O19	O	0.995336	0.267397	0.073267
O20	O	1.495336	0.767397	0.573267
C21	C	0.840236	0.136381	0.000038
C22	C	1.340236	0.636381	0.500038
C23	C	0.747804	0.134540	0.000033
C24	C	1.247804	0.634540	0.500033
C25	C	0.531640	0.216634	0.000038
C26	C	1.031640	0.716634	0.500038
C27	C	0.444790	0.214896	0.000043
C28	C	0.944790	0.714896	0.500043
C29	C	0.451815	0.042189	0.000050
C30	C	0.951815	0.542189	0.500050
C31	C	0.538663	0.043927	0.000051
C32	C	1.038663	0.543927	0.500051
C33	C	0.578573	0.131153	0.000040
C34	C	1.078573	0.631153	0.500040
C35	C	0.404875	0.127677	0.000045
C36	C	0.904875	0.627677	0.500045
C37	C	0.310709	0.125792	0.000052
C38	C	0.810709	0.625792	0.500052
C39	C	0.672745	0.133038	0.000036
C40	C	1.172745	0.633038	0.500036
C41	C	0.984941	-0.043882	0.000055
C42	C	1.484941	0.456118	0.500055
C43	C	0.975498	-0.149105	0.000056
C44	C	1.475498	0.350895	0.500056
C45	C	0.958232	-0.341761	0.000042
C46	C	1.458232	0.158239	0.500042
C47	C	1.025212	-0.399415	0.000043
C48	C	1.525212	0.100585	0.500043
C49	C	1.015605	-0.506616	0.000036
C50	C	1.515605	-0.006616	0.500036
C51	C	0.967838	-0.234551	0.000050
C52	C	1.467838	0.265449	0.500050
C53	C	1.143211	0.122448	0.000053
C54	C	1.643211	0.622448	0.500053
C55	C	1.235644	0.124289	0.000053
C56	C	1.735644	0.624289	0.500053
C57	C	0.998506	0.302711	0.000036
C58	C	1.498506	0.802711	0.500036
C59	C	1.007950	0.407934	0.000030
C60	C	1.507950	0.907934	0.500030
N61	N	0.991716	0.129411	0.228221
N62	N	1.491716	0.629411	0.728221
N63	N	0.991737	0.129411	-0.228128
N64	N	1.491737	0.629411	0.271872
C65	C	1.043479	0.064976	0.453951
C66	C	1.543479	0.564976	0.953951
C67	C	1.043481	0.064974	0.546141
C68	C	1.543481	0.564974	1.046141
C69	C	0.939969	0.193848	0.546136
C70	C	1.439969	0.693848	1.046136
C71	C	0.939963	0.193845	0.453948
C72	C	1.439963	0.693845	0.953948
C73	C	0.991723	0.129410	0.407858
C74	C	1.491723	0.629410	0.907858
C75	C	0.991731	0.129411	0.592235
C76	C	1.491731	0.629411	1.092235
C77	C	0.991734	0.129409	0.692192
C78	C	1.491734	0.629409	1.192192
C79	C	0.991719	0.129411	0.307895
C80	C	1.491719	0.629411	0.807895
H81	H	0.406580	0.284504	0.000043
H82	H	0.906580	0.784504	0.500043
O83	O	0.889776	0.256407	0.591046
O84	O	1.389776	0.756407	1.091046
C85	C	0.900865	0.242581	0.682298
C86	C	1.400865	0.742581	1.182298
H87	H	0.964337	0.207174	0.694887
H88	H	1.464337	0.707174	1.194887
H89	H	0.850284	0.195028	0.708471
H90	H	1.350284	0.695028	1.208471
C91	C	0.817608	0.383031	0.714155
C92	C	1.317608	0.883031	1.214155
C93	C	0.895569	0.339551	0.729617
C94	C	1.395569	0.839551	1.229617
H95	H	0.814337	0.442845	0.743345
H96	H	1.314337	0.942845	1.243345
H97	H	0.810134	0.392344	0.652677
H98	H	1.310134	0.892344	1.152677
H99	H	0.775466	0.343394	0.735966
H100	H	1.275466	0.843394	1.235966
H101	H	0.937709	0.379182	0.707796
H102	H	1.437709	0.879182	1.207796
H103	H	0.903050	0.330246	0.791093
H104	H	1.403050	0.830246	1.291093
O105	O	1.102292	-0.362418	0.000022
O106	O	1.602292	0.137582	0.500022
C107	C	1.162681	-0.437138	0.000050
C108	C	1.662681	0.062862	0.500050
H109	H	1.134497	-0.504342	-0.027691
H110	H	1.634497	-0.004342	0.472309
H111	H	1.184770	-0.451109	0.070317
H112	H	1.684770	0.048891	0.570317
C113	C	1.271496	-0.326560	-0.023292
C114	C	1.771496	0.173440	0.476708
C115	C	1.236882	-0.409100	-0.057371
C116	C	1.736882	0.090900	0.442629
H117	H	1.317269	-0.309265	-0.058708
H118	H	1.817269	0.190735	0.441292
H119	H	1.230812	-0.276220	-0.023308
H120	H	1.730812	0.223780	0.476692
H121	H	1.289897	-0.338214	0.035264
H122	H	1.789897	0.161786	0.535264
H123	H	1.218473	-0.397442	-0.115921
H124	H	1.718473	0.102558	0.384079
H125	H	1.277566	-0.459439	-0.057366
H126	H	1.777566	0.040561	0.442634
H127	H	1.085623	0.012508	0.416427
H128	H	1.585623	0.512508	0.916427
O129	O	1.093803	0.002515	0.591012
O130	O	1.593803	0.502515	1.091012
C131	C	1.148873	0.053295	0.644314
C132	C	1.648873	0.553295	1.144314
H133	H	1.121259	0.127454	0.658123
H134	H	1.621259	0.627454	1.158123
H135	H	1.210793	0.059757	0.608781
H136	H	1.710793	0.559757	1.108781
C137	C	1.196601	-0.091228	0.714926
C138	C	1.696601	0.408772	1.214926
C139	C	1.162681	-0.000146	0.731892
C140	C	1.662681	0.499854	1.231892
H141	H	1.205123	-0.124193	0.768946
H142	H	1.705123	0.375807	1.268946
H143	H	1.159502	-0.125440	0.679013
H144	H	1.659502	0.374560	1.179013
H145	H	1.248198	-0.085829	0.685313
H146	H	1.748198	0.414171	1.185313
H147	H	1.111081	-0.005545	0.761494
H148	H	1.611081	0.494455	1.261494
H149	H	1.199772	0.034065	0.767812
H150	H	1.699772	0.534065	1.267812
H151	H	0.897813	0.246315	0.416416
H152	H	1.397813	0.746315	0.916416
H153	H	0.419309	-0.028827	0.000065
H154	H	0.919309	0.471173	0.500065
H155	H	0.893680	-0.372911	0.000036
H156	H	1.393680	0.127089	0.500036
H157	H	0.564132	0.287658	0.000035
H158	H	1.064132	0.787658	0.500035
H159	H	0.576877	-0.025686	0.000055
H160	H	1.076877	0.474314	0.500055
