data_functionalizedCrystal
_audit_creation_method	'MofGen! by Chris Wilmer'
_symmetry_space_group_name_H-M	'P1'
_symmetry_Int_Tables_number	1
_symmetry_cell_setting	triclinic
loop_
_symmetry_equiv_pos_as_xyz
  x,y,z
_cell_length_a	16.959455
_cell_length_b	16.959453
_cell_length_c	15.296720
_cell_angle_alpha	80.355972
_cell_angle_beta	80.343069
_cell_angle_gamma	90.017008
loop_
_atom_site_label
_atom_site_type_symbol
_atom_site_fract_x
_atom_site_fract_y
_atom_site_fract_z
Zn1	Zn	1.131012	-0.392082	0.510172
Zn2	Zn	1.631012	0.107918	1.010172
Zn3	Zn	1.153813	-0.501402	0.359323
Zn4	Zn	1.653813	-0.001402	0.859323
Zn5	Zn	1.021718	-0.369236	0.359327
Zn6	Zn	1.521718	0.130764	0.859327
Zn7	Zn	0.998815	-0.524206	0.510109
Zn8	Zn	1.498815	-0.024206	1.010109
O9	O	1.076339	-0.446731	0.434733
O10	O	1.576339	0.053269	0.934733
O11	O	1.244644	-0.406602	0.490187
O12	O	1.744644	0.093398	0.990187
O13	O	1.155417	-0.464765	0.233089
O14	O	1.655417	0.035235	0.733089
O15	O	1.036259	-0.261660	0.379365
O16	O	1.536259	0.238340	0.879365
O17	O	1.261395	-0.486919	0.379358
O18	O	1.761395	0.013081	0.879358
O19	O	1.116557	-0.278445	0.490191
O20	O	1.616557	0.221555	0.990191
O21	O	1.058367	-0.367663	0.233092
O22	O	1.558367	0.132337	0.733092
O23	O	0.908073	-0.389775	0.379304
O24	O	1.408073	0.110225	0.879304
O25	O	0.997225	-0.525784	0.636351
O26	O	1.497225	-0.025784	1.136351
O27	O	0.891246	-0.503631	0.490083
O28	O	1.391246	-0.003631	0.990083
O29	O	1.094349	-0.428713	0.636398
O30	O	1.594349	0.071287	1.136398
O31	O	1.133209	-0.615034	0.379296
O32	O	1.633209	-0.115034	0.879296
O33	O	1.019333	-0.631788	0.490078
O34	O	1.519333	-0.131788	0.990078
C35	C	0.870980	-0.446699	0.434687
C36	C	1.370980	0.053301	0.934687
C37	C	0.783123	-0.446707	0.434689
C38	C	1.283123	0.053293	0.934689
C39	C	0.420357	-0.488498	0.376995
C40	C	0.920357	0.011502	0.876995
C41	C	0.402908	-0.405047	0.492581
C42	C	0.902908	0.094953	0.992581
C43	C	0.485457	-0.405031	0.492559
C44	C	0.985457	0.094969	0.992559
C45	C	0.535460	-0.446750	0.434755
C46	C	1.035460	0.053250	0.934755
C47	C	0.502914	-0.488485	0.376973
C48	C	1.002914	0.011515	0.876973
C49	C	0.518009	-0.363303	0.550346
C50	C	1.018009	0.136697	1.050346
C51	C	0.600563	-0.363286	0.550327
C52	C	1.100563	0.136714	1.050327
C53	C	0.650568	-0.405000	0.492518
C54	C	1.150568	0.095000	0.992518
C55	C	0.618017	-0.446737	0.434733
C56	C	1.118017	0.053263	0.934733
C57	C	0.668020	-0.488455	0.376929
C58	C	1.168020	0.011545	0.876929
C59	C	0.635472	-0.530188	0.319139
C60	C	1.135472	-0.030188	0.819139
C61	C	0.552919	-0.530200	0.319164
C62	C	1.052919	-0.030200	0.819164
C63	C	0.733120	-0.404988	0.492493
C64	C	1.233120	0.095012	0.992493
C65	C	0.750577	-0.488442	0.376907
C66	C	1.250577	0.011558	0.876907
C67	C	1.076279	-0.652093	0.434700
C68	C	1.576279	-0.152093	0.934700
C69	C	1.076320	-0.739952	0.434716
C70	C	1.576320	-0.239952	0.934716
C71	C	1.118199	-1.120128	0.492549
C72	C	1.618199	-0.620128	0.992549
C73	C	1.034680	-1.102752	0.377051
C74	C	1.534680	-0.602752	0.877051
C75	C	1.034654	-1.020203	0.377030
C76	C	1.534654	-0.520203	0.877030
C77	C	1.076400	-0.987613	0.434771
C78	C	1.576400	-0.487613	0.934771
C79	C	1.118172	-1.037572	0.492532
C80	C	1.618172	-0.537572	0.992532
C81	C	0.992876	-0.970239	0.319277
C82	C	1.492876	-0.470239	0.819277
C83	C	0.992848	-0.887685	0.319255
C84	C	1.492848	-0.387685	0.819255
C85	C	1.034599	-0.855093	0.376991
C86	C	1.534599	-0.355093	0.876991
C87	C	1.076373	-0.905057	0.434754
C88	C	1.576373	-0.405057	0.934754
C89	C	1.118119	-0.872467	0.492494
C90	C	1.618119	-0.372467	0.992494
C91	C	1.159899	-0.922429	0.550252
C92	C	1.659899	-0.422429	1.050252
C93	C	1.159923	-1.004980	0.550268
C94	C	1.659923	-0.504980	1.050268
C95	C	1.034574	-0.772542	0.376976
C96	C	1.534574	-0.272542	0.876976
C97	C	1.118092	-0.789911	0.492477
C98	C	1.618092	-0.289911	0.992477
C99	C	1.282501	-0.446765	0.434779
C100	C	1.782501	0.053235	0.934779
C101	C	1.370354	-0.446779	0.434799
C102	C	1.870354	0.053221	0.934799
C103	C	1.040689	-0.482341	0.670021
C104	C	1.540689	0.017659	1.170021
C105	C	1.025497	-0.497516	0.770287
C106	C	1.525497	0.002484	1.270287
C107	C	1.076419	-0.240571	0.434786
C108	C	1.576419	0.259429	0.934786
C109	C	1.076453	-0.152718	0.434808
C110	C	1.576453	0.347282	0.934808
C111	C	1.111897	-0.411204	0.200360
C112	C	1.611897	0.088796	0.700360
C113	C	1.127242	-0.395806	0.100095
C114	C	1.627242	0.104194	0.600095
C115	C	1.184950	-0.338138	1.053017
C116	C	1.684950	0.161862	1.553017
C117	C	1.199228	-0.323882	0.958812
C118	C	1.699228	0.176118	1.458812
C119	C	1.155797	-0.367289	0.911676
C120	C	1.655797	0.132711	1.411676
C121	C	1.098084	-0.424955	0.958754
C122	C	1.598084	0.075045	1.458754
C123	C	1.083808	-0.439216	1.052968
C124	C	1.583808	0.060784	1.552968
C125	C	1.054655	-0.468367	0.911627
C126	C	1.554655	0.031633	1.411627
C127	C	0.996942	-0.526033	0.958705
C128	C	1.496942	-0.026033	1.458705
C129	C	0.982669	-0.540292	1.052910
C130	C	1.482669	-0.040292	1.552910
C131	C	1.026100	-0.496885	1.100046
C132	C	1.526100	0.003115	1.600046
C133	C	1.068931	-0.454106	0.817413
C134	C	1.568931	0.045894	1.317413
C135	C	0.967789	-0.555184	0.817365
C136	C	1.467789	-0.055184	1.317365
C137	C	0.953510	-0.569440	0.911569
C138	C	1.453510	-0.069440	1.411569
H139	H	0.759617	-0.371013	0.539547
H140	H	1.259617	0.128987	1.039547
H141	H	0.935682	-0.587254	1.091238
H142	H	1.435682	-0.087254	1.591238
H143	H	1.193884	-0.895885	0.597269
H144	H	1.693884	-0.395885	1.097269
H145	H	0.676194	-0.564160	0.272080
H146	H	1.176194	-0.064160	0.772080
C147	C	1.010396	-0.512566	1.203672
C148	C	1.510396	-0.012566	1.703672
H149	H	1.044529	-0.478455	1.224998
H150	H	1.544529	0.021545	1.724998
H151	H	0.956165	-0.502116	1.224975
H152	H	1.456165	-0.002116	1.724975
H153	H	1.020821	-0.566802	1.224975
H154	H	1.520821	-0.066802	1.724975
C155	C	0.920014	-0.602941	0.765529
C156	C	1.420014	-0.102941	1.265529
H157	H	0.883608	-0.639336	0.807059
H158	H	1.383608	-0.139336	1.307059
H159	H	0.891155	-0.567141	0.728776
H160	H	1.391155	-0.067141	1.228776
H161	H	0.955814	-0.631822	0.728780
H162	H	1.455814	-0.131822	1.228780
H163	H	1.000689	-1.129293	0.330045
H164	H	1.500689	-0.629293	0.830045
C165	C	0.946902	-0.832733	0.255715
C166	C	1.446902	-0.332733	0.755715
H167	H	0.922049	-0.863966	0.221326
H168	H	1.422049	-0.363966	0.721326
H169	H	0.907206	-0.805750	0.290169
H170	H	1.407206	-0.305750	0.790169
H171	H	0.983117	-0.794586	0.216435
H172	H	1.483117	-0.294586	0.716435
C173	C	0.890037	-0.632875	0.963361
C174	C	1.390037	-0.132875	1.463361
H175	H	0.887762	-0.635153	1.026218
H176	H	1.387762	-0.135153	1.526218
H177	H	0.839272	-0.618965	0.947916
H178	H	1.339272	-0.118965	1.447916
H179	H	0.903929	-0.683650	0.947912
H180	H	1.403929	-0.183650	1.447912
H181	H	0.393853	-0.522473	0.329941
H182	H	0.893853	-0.022473	0.829941
H183	H	0.958887	-0.996781	0.272270
H184	H	1.458887	-0.496781	0.772270
H185	H	1.115920	-0.407153	0.779092
H186	H	1.615920	0.092847	1.279092
C187	C	0.347908	-0.359159	0.556158
C188	C	0.847908	0.140841	1.056158
H189	H	0.294082	-0.365141	0.547891
H190	H	0.794082	0.134859	1.047891
H191	H	0.352278	-0.379971	0.616742
H192	H	0.852278	0.120029	1.116742
H193	H	0.363426	-0.304045	0.543049
H194	H	0.863426	0.195955	1.043049
C195	C	0.988621	-0.717589	0.313452
C196	C	1.488621	-0.217589	0.813452
H197	H	0.963764	-0.748821	0.279066
H198	H	1.463764	-0.248821	0.779066
H199	H	0.948927	-0.690610	0.347915
H200	H	1.448927	-0.190610	0.847915
H201	H	1.024829	-0.679438	0.274168
H202	H	1.524829	-0.179438	0.774168
C203	C	0.805574	-0.534338	0.313326
C204	C	1.305574	-0.034338	0.813326
H205	H	0.774363	-0.559197	0.278921
H206	H	1.274363	-0.059197	0.778921
H207	H	0.843719	-0.498109	0.274076
H208	H	1.343719	0.001891	0.774076
H209	H	0.832559	-0.574038	0.347764
H210	H	1.332559	-0.074038	0.847764
H211	H	1.246220	-0.276932	0.920488
H212	H	1.746220	0.223068	1.420488
H213	H	0.526411	-0.564175	0.272114
H214	H	1.026411	-0.064175	0.772114
C215	C	1.171496	-0.351601	0.808053
C216	C	1.671496	0.148399	1.308053
H217	H	1.212081	-0.311036	0.786766
H218	H	1.712081	0.188964	1.286766
H219	H	1.188367	-0.399381	0.786723
H220	H	1.688367	0.100619	1.286723
H221	H	1.123720	-0.334688	0.786740
H222	H	1.623720	0.165312	1.286740
H223	H	0.477290	-0.329344	0.597412
H224	H	0.977290	0.170656	1.097412
H225	H	0.627056	-0.329304	0.597383
H226	H	1.127056	0.170696	1.097383
C227	C	1.164005	-0.754069	0.556000
C228	C	1.664005	-0.254069	1.056000
H229	H	1.188882	-0.795650	0.590405
H230	H	1.688882	-0.295650	1.090405
H231	H	1.203681	-0.716633	0.521536
H232	H	1.703681	-0.216633	1.021536
H233	H	1.127768	-0.727823	0.595268
H234	H	1.627768	-0.227823	1.095268
C235	C	1.232715	-0.290396	1.104866
C236	C	1.732715	0.209604	1.604866
H237	H	1.215942	-0.307146	1.167715
H238	H	1.715942	0.192854	1.667715
H239	H	1.288157	-0.299632	1.089438
H240	H	1.788157	0.200368	1.589438
H241	H	1.223501	-0.234948	1.089442
H242	H	1.723501	0.265052	1.589442
H243	H	1.152217	-1.160810	0.539572
H244	H	1.652217	-0.660810	1.039572
C245	C	1.205866	-1.059939	0.613804
C246	C	1.705866	-0.559939	1.113804
H247	H	1.199892	-1.113772	0.605552
H248	H	1.699892	-0.613772	1.105552
H249	H	1.260972	-1.044399	0.600668
H250	H	1.760972	-0.544399	1.100668
H251	H	1.185059	-1.055564	0.674399
H252	H	1.685059	-0.555564	1.174399
