data_functionalizedCrystal
_audit_creation_method	'MofGen! by Chris Wilmer'
_symmetry_space_group_name_H-M	'P1'
_symmetry_Int_Tables_number	1
_symmetry_cell_setting	triclinic
loop_
_symmetry_equiv_pos_as_xyz
  x,y,z
_cell_length_a	14.044191
_cell_length_b	14.044220
_cell_length_c	12.503572
_cell_angle_alpha	93.843168
_cell_angle_beta	86.162165
_cell_angle_gamma	93.190327
loop_
_atom_site_label
_atom_site_type_symbol
_atom_site_fract_x
_atom_site_fract_y
_atom_site_fract_z
O1	O	1.282208	0.225145	-0.089273
O2	O	1.005536	0.216832	-0.089287
O3	O	1.139719	0.082653	-0.089269
O4	O	1.148026	0.359324	-0.089290
O5	O	1.129629	0.092762	0.089371
O6	O	0.995447	0.226941	0.089354
O7	O	1.272118	0.235254	0.089368
Cu8	Cu	1.132861	0.232021	0.105672
Cu9	Cu	1.144794	0.220065	-0.105591
O10	O	1.137936	0.369433	0.089350
C11	C	0.964870	0.218250	0.000032
C12	C	0.858727	0.207402	0.000027
C13	C	0.613268	0.264503	0.000034
C14	C	0.664393	0.187587	0.000038
C15	C	0.772531	0.198615	0.000032
C16	C	0.505121	0.253477	0.000040
C17	C	1.131038	0.052086	0.000051
C18	C	1.120194	-0.054057	0.000052
C19	C	1.100368	-0.248396	0.000036
C20	C	1.177283	-0.299524	0.000036
C21	C	1.166252	-0.407661	0.000027
C22	C	1.111398	-0.140249	0.000045
C23	C	1.312785	0.233836	0.000046
C24	C	1.418929	0.244683	0.000044
C25	C	1.146617	0.400000	0.000027
C26	C	1.157462	0.506143	0.000020
N27	N	1.124476	0.240429	0.254263
N28	N	1.153186	0.211650	-0.254182
C29	C	1.112141	0.252807	0.473377
C30	C	1.165518	0.199275	0.526711
C31	C	1.158655	0.206162	0.648633
C32	C	1.119003	0.245921	0.351444
H33	H	0.626954	0.113450	-0.000032
C34	C	1.227448	0.136515	0.354210
C35	C	1.233947	0.130200	0.464748
H36	H	1.269630	0.093810	0.315957
H37	H	1.163785	0.120018	0.335987
H38	H	1.244540	0.200001	0.335721
H39	H	1.216849	0.066716	0.483239
H40	H	1.297625	0.146691	0.482979
C41	C	1.321829	-0.270270	0.091894
C42	C	1.277363	-0.248988	0.000057
H43	H	1.383613	-0.239071	0.091904
H44	H	1.284603	-0.248807	0.154173
H45	H	1.327441	-0.337366	0.091875
H46	H	1.271745	-0.181892	0.000079
H47	H	1.314598	-0.270446	-0.062239
C48	C	1.008601	-0.397827	0.000040
C49	C	1.000294	-0.298933	0.000040
H50	H	0.946819	-0.429031	0.000053
H51	H	1.045809	-0.419281	-0.062256
H52	H	1.038795	-0.412236	0.062336
H53	H	0.970106	-0.284523	-0.062260
H54	H	0.963072	-0.277470	0.062343
H55	H	1.061292	0.303807	0.519278
H56	H	0.650710	0.338629	0.000025
