data_functionalizedCrystal
_audit_creation_method	'MofGen! by Chris Wilmer'
_symmetry_space_group_name_H-M	'P1'
_symmetry_Int_Tables_number	1
_symmetry_cell_setting	triclinic
loop_
_symmetry_equiv_pos_as_xyz
  x,y,z
_cell_length_a	16.793024
_cell_length_b	16.793047
_cell_length_c	33.586455
_cell_angle_alpha	113.253857
_cell_angle_beta	66.219990
_cell_angle_gamma	112.758327
loop_
_atom_site_label
_atom_site_type_symbol
_atom_site_fract_x
_atom_site_fract_y
_atom_site_fract_z
O1	O	0.005016	-0.570216	-0.583573
O2	O	-0.034529	-0.474528	-0.453458
O3	O	0.114723	-0.474535	-0.528082
O4	O	-0.144235	-0.570209	-0.508949
O5	O	0.108729	-0.346329	-0.530229
O6	O	-0.040523	-0.346322	-0.455605
O7	O	-0.000977	-0.442010	-0.585721
Zn8	Zn	-0.021701	-0.373810	-0.521004
Zn9	Zn	-0.013805	-0.542728	-0.518175
O10	O	-0.150229	-0.442003	-0.511097
C11	C	0.005100	-0.790970	-0.238461
C12	C	0.009223	-0.693065	-0.217557
C13	C	0.003804	-0.645758	-0.241627
C14	C	-0.075059	-0.538459	-0.266316
C15	C	0.049838	-0.422849	-0.250165
C16	C	-0.040584	-0.395375	-0.435637
C17	C	-0.044693	-0.353446	-0.386631
C18	C	-0.039275	-0.401741	-0.363054
C19	C	-0.040566	-0.125547	-0.300731
C20	C	-0.044689	-0.223451	-0.321635
C21	C	-0.039266	-0.270752	-0.297563
C22	C	0.039597	-0.378051	-0.272874
C23	C	-0.085304	-0.493667	-0.289026
C24	C	0.005118	-0.521142	-0.103554
C25	C	0.009231	-0.563064	-0.152559
C26	C	0.003809	-0.514775	-0.176138
C27	C	0.010758	-0.652581	-0.172822
C28	C	0.001010	-0.556371	-0.220792
C29	C	-0.008251	-0.506059	-0.245823
C30	C	-0.046224	-0.263935	-0.366370
C31	C	-0.036476	-0.360146	-0.318399
C32	C	-0.027211	-0.410451	-0.293367
C33	C	0.815184	-0.521162	-0.508596
C34	C	0.717729	-0.563083	-0.506815
C35	C	0.669923	-0.514793	-0.509201
C36	C	0.564072	-0.463272	-0.548285
C37	C	0.445555	-0.498966	-0.486078
C38	C	0.415541	-0.125553	-0.528781
C39	C	0.375032	-0.223457	-0.531493
C40	C	0.423813	-0.270761	-0.529101
C41	C	0.149318	-0.395376	-0.530584
C42	C	0.246774	-0.353455	-0.532364
C43	C	0.294574	-0.401748	-0.529976
C44	C	0.400424	-0.453269	-0.490892
C45	C	0.518948	-0.417572	-0.553101
C46	C	0.548961	-0.790984	-0.510398
C47	C	0.589464	-0.693083	-0.507684
C48	C	0.540690	-0.645776	-0.510078
C49	C	0.678399	-0.652598	-0.506649
C50	C	0.581167	-0.556389	-0.510877
C51	C	0.530434	-0.506073	-0.515170
C52	C	0.286104	-0.263940	-0.532530
C53	C	0.383336	-0.360149	-0.528302
C54	C	0.434062	-0.410467	-0.524008
C55	C	-0.040530	-0.395407	-0.935652
C56	C	-0.044651	-0.353482	-0.886645
C57	C	-0.039242	-0.401770	-0.863061
C58	C	0.039602	-0.453292	-0.810474
C59	C	-0.085288	-0.417587	-0.750981
C60	C	0.005063	-0.791004	-0.738448
C61	C	0.009186	-0.693099	-0.717543
C62	C	0.003779	-0.645796	-0.741620
C63	C	0.005077	-0.521171	-0.603544
C64	C	0.009198	-0.563096	-0.652550
C65	C	0.003786	-0.514804	-0.676131
C66	C	-0.075058	-0.463283	-0.728717
C67	C	0.049835	-0.498991	-0.788214
C68	C	-0.040516	-0.125574	-0.800747
C69	C	-0.044642	-0.223476	-0.821649
C70	C	-0.039232	-0.270782	-0.797575
C71	C	-0.046172	-0.263965	-0.866386
C72	C	-0.036447	-0.360171	-0.818406
C73	C	-0.027197	-0.410486	-0.793373
C74	C	0.010719	-0.652613	-0.672809
C75	C	0.000994	-0.556406	-0.720789
C76	C	-0.008259	-0.506089	-0.745819
O77	O	-0.000965	0.173549	-0.277957
O78	O	-0.040516	-0.085616	-0.325254
O79	O	0.108737	0.059592	-0.327284
O80	O	-0.150219	0.028341	-0.275927
O81	O	0.114753	0.055151	-0.263265
O82	O	-0.034500	-0.090057	-0.261234
O83	O	0.005051	0.169108	-0.213937
Zn84	Zn	-0.013769	0.038820	-0.227421
Zn85	Zn	-0.021696	0.044672	-0.311770
O86	O	-0.144202	0.023900	-0.211907
O87	O	-0.034458	-0.474571	0.046517
O88	O	0.005076	-0.570190	-0.083599
O89	O	-0.144170	-0.570237	-0.008972
O90	O	0.114787	-0.474523	-0.028110
O91	O	-0.150200	-0.442024	-0.011093
O92	O	-0.000954	-0.441976	-0.085720
O93	O	-0.040488	-0.346357	0.044396
Zn94	Zn	-0.021679	-0.373810	-0.020999
Zn95	Zn	-0.013734	-0.542737	-0.018204
O96	O	0.108757	-0.346309	-0.030231
C97	C	-0.850734	0.086244	-0.289716
C98	C	-0.753280	0.087165	-0.312001
C99	C	-0.705462	0.081107	-0.288506
C100	C	-0.599592	0.000085	-0.264184
C101	C	-0.481080	0.121287	-0.283645
C102	C	-0.450996	0.035117	-0.097351
C103	C	-0.410501	0.028587	-0.146852
C104	C	-0.459292	0.034683	-0.169840
C105	C	-0.184802	0.024283	-0.235878
C106	C	-0.282257	0.023363	-0.213592
C107	C	-0.330068	0.029423	-0.237088
C108	C	-0.435938	0.110445	-0.261411
C109	C	-0.554456	-0.010759	-0.241948
C110	C	-0.584541	0.075410	-0.428242
C111	C	-0.625029	0.081943	-0.378743
C112	C	-0.576244	0.075844	-0.355753
C113	C	-0.713963	0.086424	-0.357292
C114	C	-0.616708	0.075351	-0.310510
C115	C	-0.565963	0.065400	-0.286043
C116	C	-0.321573	0.024104	-0.168302
C117	C	-0.418828	0.035176	-0.215083
C118	C	-0.469568	0.045131	-0.239552
O119	O	0.585213	0.169090	-0.504004
O120	O	0.494056	-0.090076	-0.525516
O121	O	0.488081	0.055124	-0.449918
O122	O	0.591189	0.023889	-0.579602
O123	O	0.359978	0.059584	-0.452885
O124	O	0.365953	-0.085616	-0.528483
O125	O	0.457110	0.173550	-0.506971
Zn126	Zn	0.391193	0.044675	-0.518198
Zn127	Zn	0.559974	0.038798	-0.514289
O128	O	0.463086	0.028349	-0.582569
C129	C	0.815354	-0.521094	-0.008709
C130	C	0.717898	-0.563028	-0.006927
C131	C	0.670072	-0.514739	-0.009298
C132	C	0.564182	-0.463204	-0.048354
C133	C	0.445681	-0.498945	0.013847
C134	C	0.415547	-0.125494	-0.028771
C135	C	0.375059	-0.223405	-0.031498
C136	C	0.423859	-0.270708	-0.029121
C137	C	0.149365	-0.395355	-0.030599
C138	C	0.246820	-0.353421	-0.032381
C139	C	0.294640	-0.401713	-0.030008
C140	C	0.400530	-0.453248	0.009048
C141	C	0.519038	-0.417504	-0.053155
C142	C	0.549171	-0.790955	-0.010537
C143	C	0.589653	-0.693047	-0.007809
C144	C	0.540859	-0.645741	-0.010187
C145	C	0.678588	-0.652551	-0.006775
C146	C	0.581317	-0.556344	-0.010973
C147	C	0.530562	-0.506029	-0.015250
C148	C	0.286131	-0.263897	-0.032533
C149	C	0.383402	-0.360104	-0.028335
C150	C	0.434150	-0.410423	-0.024057
O151	O	-0.620614	0.089309	0.052274
O152	O	-0.529507	0.043784	-0.078544
O153	O	-0.523494	0.194833	-0.006033
O154	O	-0.626628	-0.061740	-0.020236
O155	O	-0.395386	0.185419	-0.005549
O156	O	-0.401400	0.034370	-0.078059
O157	O	-0.492507	0.079895	0.052758
Zn158	Zn	-0.426614	0.055638	-0.012574
Zn159	Zn	-0.595401	0.068041	-0.013212
O160	O	-0.498521	-0.071154	-0.019752
C161	C	-0.437537	0.048335	0.402491
C162	C	-0.397043	0.041789	0.352989
C163	C	-0.445822	0.047883	0.329994
C164	C	-0.496646	0.126653	0.277022
C165	C	-0.465894	-0.000633	0.218811
C166	C	-0.837226	0.099430	0.210091
C167	C	-0.739773	0.100339	0.187806
C168	C	-0.691967	0.094287	0.211308
C169	C	-0.571027	0.088563	0.071568
C170	C	-0.611521	0.095108	0.121070
C171	C	-0.562739	0.089011	0.144061
C172	C	-0.511915	0.010241	0.197033
C173	C	-0.542670	0.137531	0.255247
C174	C	-0.171338	0.037467	0.263967
C175	C	-0.268788	0.036555	0.286249
C176	C	-0.316597	0.042611	0.262750
C177	C	-0.308112	0.037305	0.331542
C178	C	-0.405351	0.048369	0.284750
C179	C	-0.456092	0.058317	0.260279
C180	C	-0.700452	0.099593	0.142516
C181	C	-0.603213	0.088528	0.189308
C182	C	-0.552469	0.078578	0.213776
O183	O	-0.040608	-1.085661	-0.825229
O184	O	-0.001018	-0.826491	-0.777938
O185	O	-0.150287	-0.971682	-0.775894
O186	O	0.108661	-0.940470	-0.827272
O187	O	-0.144253	-0.976123	-0.711878
O188	O	0.005016	-0.830932	-0.713922
O189	O	-0.034575	-1.090102	-0.761213
Zn190	Zn	-0.013821	-0.961222	-0.727403
Zn191	Zn	-0.021771	-0.955371	-0.811747
O192	O	0.114695	-0.944911	-0.763256
N193	N	-0.036407	-0.225921	-0.249165
H194	H	-0.039036	-0.161729	-0.239716
H195	H	-0.089781	-0.259822	-0.228626
N196	N	0.731873	-0.705469	-0.505264
H197	H	0.794681	-0.665767	-0.504644
H198	H	0.700612	-0.726956	-0.477151
H199	H	-0.267732	0.034117	0.350946
H200	H	-0.037138	-0.474881	-0.380005
H201	H	-0.048864	-0.224020	-0.386283
H202	H	-0.123560	-0.607102	-0.263443
N203	N	-0.036384	-0.225948	-0.749175
H204	H	-0.032481	-0.270113	-0.737004
H205	H	0.018261	-0.172088	-0.748168
H206	H	-0.738384	0.080845	-0.251490
N207	N	0.103838	-0.287129	-0.276675
H208	H	0.086498	-0.263576	-0.294564
H209	H	0.100495	-0.243839	-0.245321
N210	N	0.250970	-0.498634	-0.529213
H211	H	0.187104	-0.517462	-0.530659
H212	H	0.286861	-0.538243	-0.556171
N213	N	0.561222	-0.372950	-0.090861
H214	H	0.521209	-0.399081	-0.111277
H215	H	0.568100	-0.306065	-0.077422
H216	H	-0.490116	0.084434	0.126151
N217	N	0.251049	-0.498604	-0.029253
H218	H	0.295451	-0.523050	-0.027477
H219	H	0.195756	-0.502135	-0.001956
H220	H	0.702857	-0.441654	-0.509785
H221	H	0.001632	-0.679646	-0.778160
H222	H	-0.518447	0.052455	0.347905
H223	H	0.496441	-0.236915	-0.527803
N224	N	-0.555495	0.040732	-0.146126
H225	H	-0.593645	-0.014598	-0.135434
H226	H	-0.556791	0.096168	-0.119199
H227	H	-0.037104	-0.474911	-0.880014
N228	N	-0.480040	0.069806	-0.379478
H229	H	-0.438444	0.122507	-0.363126
H230	H	-0.475286	0.011742	-0.379382
N231	N	0.656822	-0.469142	-0.580436
H232	H	0.652978	-0.499411	-0.612490
H233	H	0.699204	-0.406527	-0.578318
H234	H	-0.754334	0.089615	-0.376700
N235	N	-0.487813	0.191883	0.322361
H236	H	-0.549911	0.190833	0.344881
H237	H	-0.451683	0.173844	0.333609
H238	H	-0.574318	0.196197	0.271049
N239	N	-0.735565	0.093943	0.260341
H240	H	-0.799432	0.098559	0.270620
H241	H	-0.736665	0.036151	0.263521
H242	H	0.413699	-0.532573	-0.457601
N243	N	-0.692340	-0.061719	-0.265856
H244	H	-0.710197	-0.106817	-0.248797
H245	H	-0.737557	-0.025049	-0.251426
H246	H	-0.586315	-0.066836	-0.224702
H247	H	-0.740818	0.102779	0.123104
H248	H	-0.281187	0.020914	-0.148901
H249	H	-0.434254	-0.059305	0.203012
N250	N	0.125874	-0.382127	-0.228937
H251	H	0.162224	-0.321865	-0.234889
H252	H	0.099916	-0.373705	-0.195146
H253	H	0.550810	-0.383955	-0.581575
H254	H	0.001660	-0.441639	-0.159184
N255	N	0.307782	-0.447422	0.041208
H256	H	0.289938	-0.481071	0.063990
H257	H	0.308838	-0.382199	0.057628
N258	N	0.444489	-0.690604	-0.511803
H259	H	0.426448	-0.754794	-0.510914
H260	H	0.402960	-0.656700	-0.484891
N261	N	0.232630	-0.211078	-0.533924
H262	H	0.169868	-0.250823	-0.534613
H263	H	0.228372	-0.157523	-0.506086
N264	N	0.656934	-0.469048	-0.080510
H265	H	0.653087	-0.499302	-0.112564
H266	H	0.699305	-0.406427	-0.078385
N267	N	0.732091	-0.705395	-0.005390
H268	H	0.700907	-0.726894	0.022720
H269	H	0.736308	-0.758980	-0.033215
N270	N	-0.161329	-0.534401	-0.310263
H271	H	-0.197676	-0.594663	-0.304310
H272	H	-0.201751	-0.492883	-0.296637
H273	H	0.013390	-0.692483	-0.152899
N274	N	0.307680	-0.447412	-0.458737
H275	H	0.265252	-0.510003	-0.460816
H276	H	0.311618	-0.417110	-0.426702
N277	N	0.000959	-0.690590	-0.290027
H278	H	0.003587	-0.754781	-0.299473
H279	H	-0.056952	-0.690205	-0.292403
H280	H	-0.123559	-0.467696	-0.693740
N281	N	0.000979	-0.417914	-0.653687
H282	H	0.003620	-0.399083	-0.621629
H283	H	0.054372	-0.378313	-0.671370
H284	H	-0.283673	0.042875	0.225734
H285	H	-0.142686	-0.383972	-0.734830
N286	N	-0.438906	0.195565	-0.306488
H287	H	-0.478923	0.237477	-0.292875
H288	H	-0.377505	0.230337	-0.301862
H289	H	0.088099	-0.448874	-0.845454
N290	N	-0.049656	-0.211103	-0.892772
H291	H	-0.050497	-0.147785	-0.872890
H292	H	0.005307	-0.209053	-0.920293
N293	N	0.014204	-0.705473	-0.646423
H294	H	0.015052	-0.665725	-0.614777
H295	H	-0.040761	-0.759025	-0.644650
H296	H	0.413839	-0.532573	0.042316
N297	N	0.713668	-0.417853	-0.010064
H298	H	0.677855	-0.378169	0.016894
H299	H	0.777540	-0.399105	-0.008643
H300	H	0.468233	-0.679598	-0.011487
H301	H	0.107227	-0.532615	-0.804368
H302	H	0.496488	-0.236853	-0.027824
H303	H	-0.297145	0.029698	-0.274103
H304	H	0.245737	-0.223998	-0.033572
H305	H	-0.365918	0.157102	-0.260160
H306	H	-0.518563	-0.039000	0.162804
