data_functionalizedCrystal
_audit_creation_method	'MofGen! by Chris Wilmer'
_symmetry_space_group_name_H-M	'P1'
_symmetry_Int_Tables_number	1
_symmetry_cell_setting	triclinic
loop_
_symmetry_equiv_pos_as_xyz
  x,y,z
_cell_length_a	14.519709
_cell_length_b	27.732048
_cell_length_c	12.996460
_cell_angle_alpha	89.988908
_cell_angle_beta	90.000034
_cell_angle_gamma	83.161400
loop_
_atom_site_label
_atom_site_type_symbol
_atom_site_fract_x
_atom_site_fract_y
_atom_site_fract_z
O1	O	1.222766	0.063362	-0.085445
O2	O	0.954160	0.070824	-0.085477
O3	O	1.096805	-0.003264	-0.085440
O4	O	1.080121	0.137450	-0.085482
O5	O	1.096791	-0.003268	0.085693
O6	O	0.954145	0.070820	0.085656
O7	O	1.222752	0.063358	0.085689
Cu8	Cu	1.088447	0.067089	0.101299
Cu9	Cu	1.088464	0.067093	-0.101087
O10	O	1.080106	0.137446	0.085652
C11	C	0.919799	0.070474	0.000086
C12	C	0.817435	0.069432	0.000074
C13	C	0.442606	0.065596	0.000122
C14	C	0.546896	0.066661	0.000108
C15	C	0.630018	0.067514	0.000097
C16	C	0.734314	0.068579	0.000085
C17	C	1.096448	-0.021274	0.000129
C18	C	1.095393	-0.074934	0.000138
C19	C	1.173048	-0.413378	0.000094
C20	C	1.169135	-0.615057	0.000080
O21	O	1.240145	-0.645973	0.000043
N22	N	1.084552	-0.634585	0.000070
C23	C	1.000941	-0.603690	0.000058
O24	O	0.928909	-0.624927	0.000039
C25	C	1.004855	-0.402012	0.000065
C26	C	1.089444	-0.382487	0.000085
C27	C	1.257630	-0.393853	0.000113
C28	C	1.258607	-0.343436	0.000122
C29	C	1.175003	-0.312545	0.000113
C30	C	1.090421	-0.332071	0.000094
C31	C	0.921246	-0.371118	0.000045
C32	C	0.922232	-0.320696	0.000045
C33	C	1.006820	-0.301171	0.000064
C34	C	1.007794	-0.250763	0.000094
N35	N	1.092377	-0.231235	0.000104
C36	C	1.175981	-0.262126	0.000113
C37	C	0.998893	-0.709574	0.000056
C38	C	0.997914	-0.759993	0.000056
C39	C	1.166108	-0.771356	0.000076
C40	C	1.167086	-0.720936	0.000083
C41	C	1.083476	-0.690045	0.000065
C42	C	1.178028	-0.156247	0.000133
C43	C	1.178998	-0.105825	0.000147
C44	C	1.010804	-0.094466	0.000122
C45	C	1.009833	-0.144883	0.000114
C46	C	1.093453	-0.175773	0.000116
O47	O	0.936822	-0.219818	0.000119
O48	O	1.248004	-0.240879	0.000109
C49	C	1.172071	-0.463795	0.000085
C50	C	1.087489	-0.483320	0.000066
C51	C	1.003885	-0.452429	0.000057
C52	C	1.086510	-0.533740	0.000066
C53	C	1.170115	-0.564631	0.000076
C54	C	1.254698	-0.545103	0.000085
C55	C	1.255675	-0.494686	0.000094
C56	C	0.919302	-0.471957	0.000048
C57	C	0.918331	-0.522375	0.000039
C58	C	1.001936	-0.553266	0.000049
C59	C	1.257113	0.063708	0.000124
C60	C	1.359476	0.064750	0.000129
C61	C	1.080464	0.155456	0.000080
C62	C	1.081518	0.209116	0.000065
N63	N	1.088442	0.067085	0.243646
N64	N	1.088477	0.067093	-0.243434
C65	C	1.088463	0.067094	0.663460
C66	C	1.088454	0.067093	0.546655
C67	C	1.088453	0.067090	0.453557
C68	C	1.088443	0.067088	0.336744
H69	H	1.246119	-0.181392	0.000131
H70	H	0.942736	-0.069306	0.000118
C71	C	0.822530	-0.421223	0.087979
C72	C	0.828263	-0.392572	0.000013
H73	H	0.765120	-0.434465	0.087956
H74	H	0.872168	-0.446839	0.087983
H75	H	0.826399	-0.401794	0.147655
H76	H	0.824400	-0.412003	-0.059664
H77	H	0.778611	-0.366953	-0.000001
C78	C	0.774682	-0.528190	-0.087970
C79	C	0.825343	-0.543833	0.000014
H80	H	0.717280	-0.541439	-0.087994
H81	H	0.763309	-0.493745	-0.087954
H82	H	0.809095	-0.538785	-0.147634
H83	H	0.790932	-0.533235	0.059679
H84	H	0.836713	-0.578285	0.000008
H85	H	1.247882	-0.089931	0.000166
C86	C	1.424755	-0.359748	0.000131
C87	C	1.351590	-0.321979	0.000130
H88	H	1.482161	-0.346503	0.000127
H89	H	1.420868	-0.379180	0.059805
H90	H	1.420863	-0.379172	-0.059552
H91	H	1.355479	-0.302557	0.059817
H92	H	1.355480	-0.302539	-0.059550
H93	H	0.854144	-0.295547	0.000029
C94	C	1.354142	-0.457132	-0.087848
C95	C	1.349540	-0.427802	0.000124
H96	H	1.410892	-0.478086	-0.087837
H97	H	1.303645	-0.475983	-0.087849
H98	H	1.351026	-0.437217	-0.147521
H99	H	1.352650	-0.447717	0.059797
H100	H	1.400051	-0.408950	0.000134
C101	C	1.351166	-0.608387	-0.087892
C102	C	1.346599	-0.579064	0.000089
H103	H	1.407901	-0.629352	-0.087896
H104	H	1.300651	-0.627226	-0.087891
H105	H	1.348057	-0.588469	-0.147559
H106	H	1.349701	-0.598983	0.059756
H107	H	1.397127	-0.560223	0.000097
C108	C	1.333236	-0.737244	0.000096
C109	C	1.260067	-0.699477	0.000089
H110	H	1.390640	-0.723997	0.000090
H111	H	1.329350	-0.756674	0.059773
H112	H	1.329346	-0.756670	-0.059584
H113	H	1.263953	-0.680053	0.059772
H114	H	1.263955	-0.680038	-0.059595
C115	C	1.239275	-0.853694	0.000060
C116	C	1.258008	-0.805318	0.000071
H117	H	1.296008	-0.874661	0.000044
H118	H	1.204573	-0.859625	0.059737
H119	H	1.204551	-0.859605	-0.059619
H120	H	1.292726	-0.799406	0.059755
H121	H	1.292725	-0.799385	-0.059612
C122	C	0.831763	-0.743683	0.000027
C123	C	0.904932	-0.781451	0.000042
H124	H	0.774359	-0.756931	0.000008
H125	H	0.835639	-0.724262	0.059704
H126	H	0.835662	-0.724249	-0.059652
H127	H	0.901036	-0.800884	0.059726
H128	H	0.901054	-0.800880	-0.059641
H129	H	0.930803	-0.684426	0.000042
H130	H	0.940955	-0.160781	0.000126
H131	H	0.851220	-0.446810	0.000038
H132	H	1.324556	-0.478794	0.000110
