data_functionalizedCrystal
_audit_creation_method	'MofGen! by Chris Wilmer'
_symmetry_space_group_name_H-M	'P1'
_symmetry_Int_Tables_number	1
_symmetry_cell_setting	triclinic
loop_
_symmetry_equiv_pos_as_xyz
  x,y,z
_cell_length_a	10.489741
_cell_length_b	14.971486
_cell_length_c	13.448316
_cell_angle_alpha	90.006811
_cell_angle_beta	89.995953
_cell_angle_gamma	95.923349
loop_
_atom_site_label
_atom_site_type_symbol
_atom_site_fract_x
_atom_site_fract_y
_atom_site_fract_z
O1	O	1.692597	-0.126198	-0.082631
O2	O	1.321264	-0.138043	-0.082646
O3	O	1.516883	-0.001977	-0.082631
O4	O	1.496978	-0.262264	-0.082646
O5	O	1.516859	-0.001968	0.082753
O6	O	1.321240	-0.138035	0.082737
O7	O	1.692572	-0.126189	0.082753
Cu8	Cu	1.506904	-0.132111	0.097846
Cu9	Cu	1.506933	-0.132121	-0.097740
O10	O	1.496953	-0.262255	0.082738
C11	C	1.273731	-0.137144	0.000043
C12	C	1.132132	-0.134468	0.000038
C13	C	1.064994	-0.047893	0.000052
C14	C	0.972406	-0.088794	-0.081491
C15	C	0.972415	-0.088806	0.081564
C16	C	1.041409	-0.175405	-0.081573
C17	C	1.041428	-0.175405	0.081556
C18	C	0.948867	-0.216369	-0.000007
C19	C	1.515981	0.031357	0.000060
C20	C	1.513313	0.130669	0.000059
C21	C	1.740106	-0.127088	0.000061
C22	C	1.881704	-0.129765	0.000060
C23	C	1.497856	-0.295589	0.000044
C24	C	1.500523	-0.394902	0.000038
N25	N	1.506893	-0.132103	0.235410
C26	C	1.628234	0.187241	0.000065
C27	C	1.625720	0.280554	0.000055
C28	C	1.508283	0.317295	0.000046
C29	C	1.393354	0.260716	0.000038
C30	C	1.395869	0.167404	0.000041
C31	C	1.388119	0.455209	0.000034
C32	C	1.385603	0.548527	0.000033
C33	C	1.617969	0.568359	0.000048
C34	C	1.620485	0.475047	0.000051
C35	C	1.505554	0.418474	0.000044
N36	N	1.506954	-0.132122	-0.235304
C37	C	1.593540	-0.071879	0.287457
C38	C	1.593548	-0.071878	0.391561
C39	C	1.506914	-0.132107	0.443615
C40	C	1.420257	-0.192335	0.391560
C41	C	1.420244	-0.192331	0.287459
C42	C	1.420293	-0.192341	0.608540
C43	C	1.420307	-0.192347	0.712649
C44	C	1.593596	-0.071888	0.712642
C45	C	1.593583	-0.071884	0.608541
C46	C	1.506928	-0.132113	0.556493
H47	H	1.723864	0.157334	0.000078
H48	H	1.716112	0.445136	0.000065
H49	H	1.719300	0.326611	0.000061
C50	C	1.082486	-0.224846	-0.174820
C51	C	1.224957	-0.236478	-0.192086
C52	C	1.266038	-0.285913	-0.285335
C53	C	1.164648	-0.323716	-0.361317
C54	C	1.022168	-0.312086	-0.344052
C55	C	0.981087	-0.262651	-0.250804
H56	H	1.300021	-0.208493	-0.135838
H57	H	1.371512	-0.294523	-0.298114
H58	H	1.195059	-0.360311	-0.430345
H59	H	0.947105	-0.340071	-0.400301
H60	H	0.875613	-0.254041	-0.238024
C61	C	1.688879	-0.005634	0.551276
C62	C	1.686597	0.096240	0.565598
C63	C	1.781890	0.162491	0.508332
C64	C	1.879467	0.126869	0.436742
C65	C	1.881753	0.024990	0.422416
C66	C	1.786459	-0.041262	0.479683
H67	H	1.614361	0.122614	0.618596
H68	H	1.780197	0.237909	0.518937
H69	H	1.950009	0.175913	0.394350
H70	H	1.953988	-0.001384	0.369419
H71	H	1.788152	-0.116680	0.469078
C72	C	1.324933	-0.258581	0.230204
C73	C	1.229681	-0.324864	0.287458
C74	C	1.134362	-0.391114	0.230205
C75	C	1.134294	-0.391080	0.115697
C76	C	1.229550	-0.324795	0.058437
C77	C	1.324869	-0.258545	0.115690
H78	H	1.229728	-0.324891	0.372229
H79	H	1.063847	-0.440183	0.272593
H80	H	1.063733	-0.440122	0.073315
H81	H	1.229503	-0.324767	-0.026334
H82	H	1.395383	-0.209476	0.073302
H83	H	1.664153	-0.022848	0.755025
H84	H	1.115507	0.023277	-0.000046
H85	H	0.941826	-0.052166	-0.150427
H86	H	0.941851	-0.052155	0.150503
C87	C	1.261697	0.392976	0.000027
C88	C	1.165511	0.397611	-0.085854
C89	C	1.039095	0.335377	-0.085856
C90	C	1.008864	0.268508	0.000023
C91	C	1.105052	0.263870	0.085911
C92	C	1.231469	0.326104	0.085913
H93	H	1.187888	0.447114	-0.149433
H94	H	0.967890	0.338810	-0.149437
H95	H	0.915283	0.222438	0.000022
H96	H	1.082675	0.214367	0.149490
H97	H	1.302673	0.322670	0.149493
H98	H	1.349759	-0.241391	0.755026
H99	H	0.898618	-0.287614	-0.000056
C100	C	1.688840	-0.005624	0.230203
C101	C	1.784144	0.060626	0.287460
C102	C	1.879445	0.126885	0.230209
C103	C	1.879442	0.126895	0.115702
C104	C	1.784134	0.060643	0.058439
C105	C	1.688834	-0.005617	0.115689
H106	H	1.784150	0.060621	0.372231
H107	H	1.949998	0.175930	0.272600
H108	H	1.949989	0.175944	0.073322
H109	H	1.784129	0.060647	-0.026332
H110	H	1.618281	-0.054661	0.073299
H111	H	1.072040	-0.212003	0.150495
H112	H	1.711550	0.614424	0.000050
H113	H	1.289976	0.578438	0.000042
H114	H	1.297735	0.290638	0.000025
H115	H	1.302289	0.121344	0.000036
H116	H	1.664101	-0.022838	0.433937
H117	H	1.349725	-0.241383	0.566167
H118	H	1.349712	-0.241372	0.433949
