data_functionalizedCrystal
_audit_creation_method	'MofGen! by Chris Wilmer'
_symmetry_space_group_name_H-M	'P1'
_symmetry_Int_Tables_number	1
_symmetry_cell_setting	triclinic
loop_
_symmetry_equiv_pos_as_xyz
  x,y,z
_cell_length_a	10.489716
_cell_length_b	19.188924
_cell_length_c	9.565339
_cell_angle_alpha	89.998167
_cell_angle_beta	89.996780
_cell_angle_gamma	83.835550
loop_
_atom_site_label
_atom_site_type_symbol
_atom_site_fract_x
_atom_site_fract_y
_atom_site_fract_z
O1	O	1.691866	0.098416	-0.116256
O2	O	1.320459	0.107680	-0.116262
O3	O	1.516885	0.001464	-0.116242
O4	O	1.495440	0.204633	-0.116275
O5	O	1.516869	0.001470	0.116278
O6	O	1.320443	0.107687	0.116258
O7	O	1.691850	0.098423	0.116264
Zn8	Zn	1.506144	0.103056	0.153179
Zn9	Zn	1.506165	0.103047	-0.153176
O10	O	1.495424	0.204639	0.116245
C11	C	1.272934	0.106987	-0.000002
C12	C	1.131350	0.104905	-0.000004
C13	C	1.032217	0.170040	-0.000018
C14	C	0.955634	0.135625	0.114639
C15	C	0.955657	0.135603	-0.114608
C16	C	1.056633	0.070517	0.114747
C17	C	1.056660	0.070504	-0.114602
C18	C	0.980128	0.036041	0.000082
C19	C	1.516184	-0.024549	0.000019
C20	C	1.514104	-0.102068	0.000023
C21	C	1.513141	-0.138476	-0.126724
C22	C	1.511169	-0.211312	-0.126735
C23	C	1.510184	-0.247738	0.000009
C24	C	1.511139	-0.211320	0.126773
C25	C	1.513099	-0.138485	0.126780
N26	N	1.579683	-0.366936	0.094342
N27	N	1.577824	-0.436127	0.094327
C28	C	1.504276	-0.467187	-0.000005
N29	N	1.432674	-0.426443	-0.094342
N30	N	1.434539	-0.357246	-0.094331
C31	C	1.508058	-0.326716	0.000015
C32	C	1.501173	-0.582572	-0.126772
C33	C	1.499192	-0.655409	-0.126778
C34	C	1.499176	-0.655416	0.126733
C35	C	1.501143	-0.582580	0.126735
C36	C	1.502148	-0.546163	-0.000022
C37	C	1.739375	0.099116	0.000002
C38	C	1.880959	0.101198	-0.000006
C39	C	1.496125	0.230652	-0.000020
C40	C	1.498205	0.308170	-0.000033
N41	N	1.506140	0.103061	0.362258
N42	N	1.506180	0.103036	-0.362256
C43	C	1.415272	0.152167	0.453452
C44	C	1.530454	0.166288	0.546630
C45	C	1.391008	0.088946	0.546635
C46	C	1.621379	0.117214	0.453385
C47	C	1.481858	0.039844	0.453381
C48	C	1.597123	0.053939	0.546517
H49	H	0.911529	0.163124	0.211561
H50	H	1.338497	0.193732	0.412590
H51	H	1.100558	0.043039	0.211776
F52	F	1.502234	-0.543812	-0.261676
F53	F	0.898024	0.171555	-0.241289
F54	F	1.514204	-0.099722	-0.261631
F55	F	1.697692	-0.000355	0.599601
H56	H	0.956968	-0.020659	0.000158
H57	H	1.501938	-0.552936	0.229947
H58	H	1.498364	-0.685072	0.229931
H59	H	1.551019	0.219738	0.587589
H60	H	1.718782	0.129207	0.412596
H61	H	1.498402	-0.685051	-0.229994
F62	F	1.454931	-0.029997	0.399799
H63	H	1.293626	0.077018	0.587600
F64	F	1.514121	-0.099734	0.261687
H65	H	1.100778	0.043026	-0.211530
H66	H	1.510334	-0.240982	0.229968
F67	F	1.510143	-0.250069	-0.261642
F68	F	1.062814	0.244094	0.000111
