data_functionalizedCrystal
_audit_creation_method	'MofGen! by Chris Wilmer'
_symmetry_space_group_name_H-M	'P1'
_symmetry_Int_Tables_number	1
_symmetry_cell_setting	triclinic
loop_
_symmetry_equiv_pos_as_xyz
  x,y,z
_cell_length_a	25.639239
_cell_length_b	16.625548
_cell_length_c	16.625539
_cell_angle_alpha	89.979432
_cell_angle_beta	89.968745
_cell_angle_gamma	90.039754
loop_
_atom_site_label
_atom_site_type_symbol
_atom_site_fract_x
_atom_site_fract_y
_atom_site_fract_z
Zn1	Zn	-0.208135	1.232590	-0.455893
Zn2	Zn	-0.295573	1.232455	-0.321053
Zn3	Zn	-0.208155	1.097751	-0.321073
Zn4	Zn	-0.295543	1.097684	-0.455843
O5	O	-0.251851	1.165120	-0.388466
O6	O	-0.219738	1.345404	-0.438018
O7	O	-0.283998	1.214558	-0.208223
O8	O	-0.134987	1.115723	-0.338987
O9	O	-0.283978	1.345305	-0.338952
O10	O	-0.134972	1.214788	-0.438038
O11	O	-0.219772	1.115592	-0.208238
O12	O	-0.219743	0.984910	-0.338938
O13	O	-0.283927	1.115607	-0.568682
O14	O	-0.283946	0.984860	-0.437953
O15	O	-0.219709	1.214722	-0.568719
O16	O	-0.368734	1.214492	-0.338904
O17	O	-0.368712	1.115477	-0.437933
C18	C	-0.251844	0.955629	-0.388443
C19	C	-0.251853	0.866008	-0.388452
C20	C	-0.387694	1.164984	-0.388429
C21	C	-0.445808	1.165000	-0.388440
C22	C	-0.251857	0.537832	-0.388487
C23	C	-0.251854	0.629141	-0.388475
C24	C	-0.251855	0.701917	-0.388469
C25	C	-0.251852	0.793231	-0.388458
C26	C	-0.806170	1.216812	-0.336989
C27	C	-0.860774	1.216843	-0.337000
O28	O	-0.889010	1.260755	-0.293213
N29	N	-0.888090	1.165262	-0.388519
C30	C	-0.860799	1.113651	-0.440037
O31	O	-0.889048	1.069780	-0.483860
C32	C	-0.806196	1.113625	-0.440029
C33	C	-0.778883	1.165204	-0.388501
C34	C	-0.778857	1.268387	-0.285465
C35	C	-0.724256	1.268355	-0.285453
C36	C	-0.696969	1.216747	-0.336965
C37	C	-0.724282	1.165171	-0.388489
C38	C	-0.778906	1.062019	-0.491551
C39	C	-0.724299	1.061997	-0.491539
C40	C	-0.696986	1.113576	-0.440011
C41	C	-0.642395	1.113531	-0.439990
N42	N	-0.615078	1.165112	-0.388470
C43	C	-0.642366	1.216720	-0.336958
C44	C	-0.975470	1.113712	-0.440049
C45	C	-1.030072	1.113734	-0.440053
C46	C	-1.030043	1.216927	-0.337017
C47	C	-0.975440	1.216900	-0.337009
C48	C	-0.948154	1.165293	-0.388530
C49	C	-0.527700	1.216648	-0.336937
C50	C	-0.473095	1.216608	-0.336928
C51	C	-0.473129	1.113418	-0.439967
C52	C	-0.527729	1.113454	-0.439973
C53	C	-0.555014	1.165076	-0.388456
O54	O	-0.614124	1.069644	-0.483756
O55	O	-0.614110	1.260591	-0.293150
C56	C	-0.115478	1.165278	-0.388520
C57	C	-0.057364	1.165345	-0.388544
C58	C	-0.251812	1.165172	-0.598775
C59	C	-0.251796	1.165195	-0.688396
C60	C	-0.251859	1.375429	-0.388489
C61	C	-0.251863	1.465050	-0.388498
C62	C	-0.251737	1.165232	-1.016572
C63	C	-0.251755	1.165219	-0.925263
C64	C	-0.251767	1.165214	-0.852487
C65	C	-0.251784	1.165200	-0.761172
C66	C	-0.251852	1.165114	-0.178975
C67	C	-0.251722	1.165248	-0.089354
H68	H	-0.450858	1.258610	-0.294964
H69	H	-0.953256	1.071681	-0.482001
H70	H	-0.549909	1.258684	-0.294988
H71	H	-0.801068	1.310417	-0.243517
H72	H	-0.702021	1.310357	-0.243497
H73	H	-0.953205	1.258901	-0.295051
C74	C	-1.059770	1.272999	-0.281244
C75	C	-1.113434	1.262023	-0.292332
C76	C	-1.140836	1.313695	-0.241008
H77	H	-1.050941	1.261343	-0.226999
H78	H	-1.050789	1.327159	-0.293166
H79	H	-1.122411	1.207876	-0.280404
H80	H	-1.122278	1.273685	-0.346566
H81	H	-1.131855	1.367854	-0.252929
H82	H	-1.132003	1.302035	-0.186766
H83	H	-1.177249	1.306260	-0.248529
H84	H	-0.801135	1.020014	-0.533507
C85	C	-0.694646	1.006098	-0.547576
C86	C	-0.663255	1.051708	-0.599305
C87	C	-0.635937	1.000243	-0.650941
H88	H	-0.673340	0.970953	-0.516793
H89	H	-0.718719	0.975401	-0.578311
H90	H	-0.639185	1.082392	-0.568573
H91	H	-0.684548	1.086852	-0.630106
H92	H	-0.660010	0.969546	-0.681676
H93	H	-0.614634	0.965100	-0.620151
H94	H	-0.614638	1.031182	-0.686050
H95	H	-1.052306	1.071725	-0.482005
C96	C	-0.557293	1.057423	-0.496004
C97	C	-0.521706	1.012233	-0.541125
C98	C	-0.548916	0.960622	-0.592764
H99	H	-0.578638	1.022249	-0.465229
H100	H	-0.578541	1.088247	-0.531214
H101	H	-0.500467	0.981411	-0.505920
H102	H	-0.500360	1.047385	-0.571917
H103	H	-0.570165	0.991446	-0.627974
H104	H	-0.570260	0.925454	-0.561983
H105	H	-0.524775	0.929960	-0.623391
H106	H	-0.450903	1.071397	-0.481905
