data_functionalizedCrystal
_audit_creation_method	'MofGen! by Chris Wilmer'
_symmetry_space_group_name_H-M	'P1'
_symmetry_Int_Tables_number	1
_symmetry_cell_setting	triclinic
loop_
_symmetry_equiv_pos_as_xyz
  x,y,z
_cell_length_a	27.780882
_cell_length_b	27.780884
_cell_length_c	27.780936
_cell_angle_alpha	90.002261
_cell_angle_beta	59.997799
_cell_angle_gamma	119.999789
loop_
_atom_site_label
_atom_site_type_symbol
_atom_site_fract_x
_atom_site_fract_y
_atom_site_fract_z
O1	O	0.424592	-0.330213	-0.014321
O2	O	0.326022	-0.260214	0.014251
O3	O	0.424588	-0.260214	-0.084318
O4	O	0.326026	-0.330213	0.084247
O5	O	0.344528	-0.340274	-0.084318
O6	O	0.245962	-0.340274	0.014251
O7	O	0.344532	-0.410273	-0.014321
Zn8	Zn	0.282536	-0.387985	-0.000035
Zn9	Zn	0.388018	-0.282503	-0.000035
O10	O	0.245966	-0.410273	0.084248
C11	C	0.177734	-0.120430	0.029862
C12	C	0.211527	-0.056934	0.025772
C13	C	0.119397	-0.149664	0.030267
C14	C	0.177730	-0.207598	0.029867
C15	C	0.211519	-0.237303	0.025783
C16	C	0.119393	-0.236700	0.030273
C17	C	0.090568	-0.207596	0.029862
C18	C	0.031162	-0.237298	0.025772
C19	C	0.206427	-0.149666	0.030273
C20	C	-0.016831	-0.261295	0.022466
C21	C	0.238829	-0.005636	0.022467
C22	C	0.238818	-0.261301	0.022482
C23	C	-0.077040	-0.291400	0.018321
C24	C	0.273079	0.058719	0.018322
C25	C	0.273065	-0.291409	0.018343
O26	O	-0.234707	-0.410266	-0.014339
O27	O	-0.094711	-0.340265	0.014229
O28	O	-0.094704	-0.340270	-0.084338
O29	O	-0.234714	-0.410261	0.084228
O30	O	-0.094701	-0.260209	-0.084343
O31	O	-0.094708	-0.260204	0.014225
O32	O	-0.234704	-0.330205	-0.014344
Zn33	Zn	-0.164706	-0.282493	-0.000061
Zn34	Zn	-0.164709	-0.387977	-0.000054
O35	O	-0.234711	-0.330200	0.084223
C36	C	0.492828	-0.207603	-0.372394
C37	C	0.459037	-0.237307	-0.402098
C38	C	0.551166	-0.149673	-0.401496
C39	C	0.492828	-0.207604	-0.285228
C40	C	0.459036	-0.237307	-0.221733
C41	C	0.551166	-0.149673	-0.314463
C42	C	0.579994	-0.120438	-0.372393
C43	C	0.639400	-0.056943	-0.402096
C44	C	0.464132	-0.236706	-0.314464
C45	C	0.687394	-0.005646	-0.426092
C46	C	0.431736	-0.261304	-0.426095
C47	C	0.431736	-0.261304	-0.170435
C48	C	0.747605	0.058709	-0.456197
C49	C	0.397486	-0.291409	-0.456201
C50	C	0.397486	-0.291410	-0.106080
C51	C	0.580008	-0.462879	-0.029964
C52	C	0.639417	-0.433174	-0.025878
C53	C	0.551182	-0.520809	-0.030373
C54	C	0.492839	-0.462880	-0.029960
C55	C	0.459045	-0.433178	-0.025869
C56	C	0.464144	-0.520811	-0.030368
C57	C	0.492842	-0.550045	-0.029964
C58	C	0.459052	-0.613540	-0.025878
C59	C	0.551178	-0.433777	-0.030369
C60	C	0.431752	-0.664837	-0.022575
C61	C	0.687412	-0.409177	-0.022576
C62	C	0.431742	-0.409182	-0.022562
C63	C	0.397504	-0.729192	-0.018433
C64	C	0.747625	-0.379070	-0.018434
C65	C	0.397490	-0.379077	-0.018415
O66	O	0.344549	0.249047	-0.014343
O67	O	0.245980	0.080483	0.014226
O68	O	0.344550	0.179042	-0.084342
O69	O	0.245978	0.150488	0.084224
O70	O	0.424607	0.179040	-0.084336
O71	O	0.326036	0.080480	0.014231
O72	O	0.424605	0.249045	-0.014338
Zn73	Zn	0.388031	0.164762	-0.000053
Zn74	Zn	0.282554	0.164766	-0.000059
O75	O	0.326034	0.150486	0.084230
O76	O	0.905273	0.249033	-0.494995
O77	O	0.765273	0.080470	-0.425001
O78	O	0.765270	0.179032	-0.424994
O79	O	0.905276	0.150471	-0.495003
O80	O	0.765272	0.179034	-0.505055
O81	O	0.765275	0.080472	-0.505062
O82	O	0.905275	0.249035	-0.575056
Zn83	Zn	0.835275	0.164754	-0.552770
Zn84	Zn	0.835273	0.164751	-0.447287
O85	O	0.905278	0.150473	-0.575063
O86	O	0.326020	-0.330218	-0.575063
O87	O	0.424588	-0.260215	-0.505065
O88	O	0.326020	-0.260217	-0.505059
O89	O	0.424589	-0.330216	-0.575069
O90	O	0.245961	-0.340275	-0.425000
O91	O	0.344530	-0.340273	-0.425006
O92	O	0.245962	-0.410276	-0.495003
Zn93	Zn	0.282535	-0.387986	-0.447293
Zn94	Zn	0.388015	-0.282505	-0.552775
O95	O	0.344531	-0.410274	-0.495009
C96	C	0.090559	-0.550051	0.372323
C97	C	0.031152	-0.613546	0.402025
C98	C	0.119386	-0.520817	0.401426
C99	C	0.177725	-0.462885	0.285158
C100	C	0.211517	-0.433181	0.221663
C101	C	0.206420	-0.433783	0.314394
C102	C	0.177724	-0.462886	0.372324
C103	C	0.211515	-0.433183	0.402029
C104	C	0.119387	-0.520816	0.314392
C105	C	0.238815	-0.409187	0.426026
C106	C	-0.016842	-0.664843	0.426021
C107	C	0.238818	-0.409184	0.170365
C108	C	0.273064	-0.379082	0.456133
C109	C	-0.077053	-0.729198	0.456125
C110	C	0.273068	-0.379078	0.106010
C111	C	0.177761	-0.120445	-0.372420
C112	C	0.211554	-0.056951	-0.402125
C113	C	0.206457	-0.149682	-0.401521
C114	C	0.090590	-0.207608	-0.285252
C115	C	0.031179	-0.237308	-0.221756
C116	C	0.119418	-0.236712	-0.314485
C117	C	0.177759	-0.207612	-0.372416
C118	C	0.211551	-0.237318	-0.402117
C119	C	0.119420	-0.149677	-0.314489
C120	C	0.238852	-0.261316	-0.426113
C121	C	0.238857	-0.005654	-0.426124
C122	C	-0.016817	-0.261303	-0.170458
C123	C	0.273102	-0.291424	-0.456216
C124	C	0.273109	0.058701	-0.456232
C125	C	-0.077032	-0.291406	-0.106103
C126	C	-0.507174	-0.462860	0.372301
C127	C	-0.540966	-0.433155	0.402003
C128	C	-0.535872	-0.520790	0.401406
C129	C	-0.420004	-0.462864	0.285137
C130	C	-0.360594	-0.433163	0.221642
C131	C	-0.448834	-0.520794	0.314373
C132	C	-0.507175	-0.550027	0.372304
C133	C	-0.540968	-0.613521	0.402010
C134	C	-0.448833	-0.433760	0.314371
C135	C	-0.568270	-0.664818	0.426008
C136	C	-0.568268	-0.409157	0.425999
C137	C	-0.312597	-0.409168	0.170343
C138	C	-0.602522	-0.729173	0.456115
C139	C	-0.602518	-0.379050	0.456103
C140	C	-0.252383	-0.379064	0.105988
C141	C	0.580005	0.194619	-0.372405
C142	C	0.639409	0.190525	-0.402104
C143	C	0.551178	0.195023	-0.401510
C144	C	0.492843	0.194635	-0.285245
C145	C	0.459054	0.190558	-0.221751
C146	C	0.464149	0.195039	-0.314482
C147	C	0.492843	0.194621	-0.372410
C148	C	0.459052	0.190530	-0.402115
C149	C	0.551179	0.195036	-0.314476
C150	C	0.431752	0.187222	-0.426113
C151	C	0.687401	0.187216	-0.426097
C152	C	0.431754	0.187263	-0.170455
C153	C	0.397503	0.183075	-0.456220
C154	C	0.747609	0.183066	-0.456199
C155	C	0.397506	0.183130	-0.106101
O156	O	0.424649	0.249027	-0.575092
O157	O	0.326070	0.080461	-0.505095
O158	O	0.424629	0.179018	-0.505082
O159	O	0.326090	0.150471	-0.575105
O160	O	0.344563	0.179021	-0.425026
O161	O	0.246004	0.080464	-0.425039
O162	O	0.344583	0.249030	-0.495036
Zn163	Zn	0.282581	0.164748	-0.447327
Zn164	Zn	0.388072	0.164744	-0.552804
O165	O	0.246024	0.150474	-0.495049
C166	C	0.177742	0.134906	0.372298
C167	C	0.211532	0.138997	0.402003
C168	C	0.119406	0.134505	0.401398
C169	C	0.177741	0.134893	0.285133
C170	C	0.211531	0.138970	0.221639
C171	C	0.119406	0.134492	0.314364
C172	C	0.090580	0.134909	0.372293
C173	C	0.031176	0.139004	0.401992
C174	C	0.206435	0.134489	0.314370
C175	C	-0.016815	0.142313	0.425985
C176	C	0.238832	0.142304	0.426002
C177	C	0.238831	0.142265	0.170343
C178	C	-0.077023	0.146464	0.456086
C179	C	0.273081	0.146451	0.456109
C180	C	0.273079	0.146398	0.105989
H181	H	0.253368	-0.126194	0.030932
O182	O	0.262404	-0.376991	0.286319
C183	C	0.345165	-0.293117	0.197053
C184	C	0.281759	-0.357426	0.228779
H185	H	0.360842	-0.277283	0.150522
H186	H	0.332975	-0.264043	0.222459
H187	H	0.388652	-0.290431	0.194680
H188	H	0.238244	-0.360168	0.231159
H189	H	0.294005	-0.386470	0.203361
O190	O	0.090703	-0.548837	0.286330
C191	C	0.105719	-0.583474	0.203756
C192	C	0.138276	-0.551738	0.235482
H193	H	0.144171	-0.585819	0.162633
H194	H	0.059015	-0.630010	0.234582
H195	H	0.089879	-0.558048	0.190545
H196	H	0.154159	-0.577115	0.248696
H197	H	0.184951	-0.505199	0.204636
O198	O	0.090505	-0.548894	0.458217
C199	C	0.000004	-0.638100	0.542148
C200	C	0.032668	-0.606390	0.477823
H201	H	-0.046771	-0.684586	0.558023
H202	H	0.038332	-0.640570	0.544925
H203	H	-0.015756	-0.612596	0.571133
H204	H	0.048428	-0.631867	0.448799
H205	H	-0.005681	-0.603912	0.475092
H206	H	0.575284	-0.126201	-0.290985
O207	O	0.090730	-0.293460	-0.286467
C208	C	0.105732	-0.361029	-0.251834
C209	C	0.138295	-0.296743	-0.283562
H210	H	0.144178	-0.363706	-0.249486
H211	H	0.059022	-0.376910	-0.205298
H212	H	0.089899	-0.390073	-0.277268
H213	H	0.154170	-0.267653	-0.258177
H214	H	0.184976	-0.280910	-0.330101
H215	H	-0.424738	-0.386177	0.290884
O216	O	0.262485	-0.121588	-0.458294
C217	C	0.345214	-0.032343	-0.542188
C218	C	0.281773	-0.064083	-0.477893
H219	H	0.360820	0.014152	-0.558057
H220	H	0.388751	-0.029892	-0.544900
H221	H	0.333009	-0.057812	-0.571219
H222	H	0.293913	-0.038640	-0.448823
H223	H	0.238255	-0.066540	-0.475228
O224	O	-0.420156	-0.548894	0.286454
C225	C	-0.425510	-0.638140	0.293008
C226	C	-0.458062	-0.606391	0.324688
H227	H	-0.456134	-0.684627	0.323911
H228	H	-0.425249	-0.640609	0.251924
H229	H	-0.371009	-0.612665	0.279745
H230	H	-0.512575	-0.631839	0.337990
H231	H	-0.458269	-0.603915	0.365747
O232	O	-0.591921	-0.548728	0.458169
C233	C	-0.674699	-0.542225	0.542035
C234	C	-0.611219	-0.510513	0.477759
H235	H	-0.690313	-0.511338	0.557897
H236	H	-0.718214	-0.583300	0.544712
H237	H	-0.662535	-0.555505	0.571096
H238	H	-0.623317	-0.497193	0.448659
H239	H	-0.567724	-0.469463	0.475129
H240	H	0.575312	-0.544278	-0.031030
O241	O	0.408167	-0.548716	-0.031186
C242	C	0.325420	-0.542203	-0.032320
C243	C	0.388814	-0.510529	-0.031400
H244	H	0.309745	-0.511347	-0.032481
H245	H	0.337623	-0.555411	-0.073590
H246	H	0.281926	-0.583321	0.008475
H247	H	0.432336	-0.469390	-0.072166
H248	H	0.376554	-0.497365	0.009896
O249	O	0.090663	0.133810	0.286356
C250	C	0.057698	0.183423	0.251736
C251	C	0.090279	0.184276	0.283448
H252	H	0.057364	0.224214	0.249385
H253	H	0.088339	0.183239	0.205202
H254	H	0.003220	0.142154	0.277184
H255	H	0.144754	0.225539	0.258048
H256	H	0.059588	0.184429	0.329984
O257	O	0.408170	0.195858	-0.286411
C258	C	0.325420	0.196997	-0.197153
C259	C	0.388819	0.196080	-0.228873
H260	H	0.309747	0.197164	-0.150624
H261	H	0.337619	0.238260	-0.222566
H262	H	0.281928	0.156198	-0.194776
H263	H	0.432339	0.236850	-0.231258
H264	H	0.376564	0.154790	-0.203448
O265	O	0.090706	-0.121598	-0.286581
C266	C	0.096109	-0.032326	-0.293086
C267	C	0.128686	-0.064058	-0.324767
H268	H	0.126810	0.014205	-0.323942
H269	H	0.041630	-0.057726	-0.279869
H270	H	0.095796	-0.029955	-0.251972
H271	H	0.129048	-0.066437	-0.365902
H272	H	0.183148	-0.038647	-0.337940
H273	H	0.575310	0.195676	-0.449109
H274	H	0.095268	-0.284299	0.030928
H275	H	0.575291	-0.126204	-0.449095
H276	H	0.575306	0.195692	-0.291005
H277	H	0.095280	0.133853	0.448996
O278	O	0.262421	0.133680	0.286463
C279	C	0.345189	0.132581	0.292969
C280	C	0.281777	0.133479	0.324649
H281	H	0.360866	0.132430	0.323824
H282	H	0.333004	0.091316	0.279756
H283	H	0.388673	0.173379	0.251852
H284	H	0.238265	0.092709	0.365786
H285	H	0.294018	0.174770	0.337818
H286	H	0.417177	-0.284299	-0.290989
H287	H	0.095271	-0.126191	0.030925
O288	O	0.580056	-0.376987	-0.031168
C289	C	0.670424	-0.293119	-0.032262
C290	C	0.637805	-0.357423	-0.031376
H291	H	0.717111	-0.277286	-0.032418
H292	H	0.686284	-0.264038	-0.073521
H293	H	0.631987	-0.290443	0.008543
H294	H	0.676206	-0.360156	-0.072153
H295	H	0.621930	-0.386475	0.009910
