data_functionalizedCrystal
_audit_creation_method	'MofGen! by Chris Wilmer'
_symmetry_space_group_name_H-M	'P1'
_symmetry_Int_Tables_number	1
_symmetry_cell_setting	triclinic
loop_
_symmetry_equiv_pos_as_xyz
  x,y,z
_cell_length_a	21.395363
_cell_length_b	12.645331
_cell_length_c	21.395355
_cell_angle_alpha	90.017800
_cell_angle_beta	90.003952
_cell_angle_gamma	90.001376
loop_
_atom_site_label
_atom_site_type_symbol
_atom_site_fract_x
_atom_site_fract_y
_atom_site_fract_z
Zn1	Zn	-0.249524	1.620867	0.354212
Zn2	Zn	-0.354284	1.620791	0.249461
Zn3	Zn	-0.249523	1.443576	0.249461
Zn4	Zn	-0.354266	1.443612	0.354214
O5	O	-0.301899	1.532211	0.301837
O6	O	-0.263428	1.769204	0.340316
O7	O	-0.340394	1.597236	0.161783
O8	O	-0.161845	1.467111	0.263356
O9	O	-0.340395	1.769148	0.263356
O10	O	-0.161846	1.597366	0.340316
O11	O	-0.263426	1.467036	0.161783
O12	O	-0.263409	1.295233	0.263357
O13	O	-0.340365	1.467172	0.441891
O14	O	-0.340364	1.295260	0.340319
O15	O	-0.263411	1.597401	0.441890
O16	O	-0.441959	1.597271	0.263358
O17	O	-0.441946	1.467098	0.340319
C18	C	-0.301885	1.256782	0.301839
C19	C	-0.301894	1.138952	0.301854
C20	C	-0.350571	0.971440	0.350018
C21	C	-0.350414	1.094000	0.350219
C22	C	-0.235906	1.094444	0.319884
C23	C	-0.236203	0.971846	0.320223
C24	C	-0.318672	0.971710	0.235508
C25	C	-0.320116	1.094316	0.235866
C26	C	-0.464687	1.532209	0.301852
C27	C	-0.534328	1.532305	0.301879
C28	C	-0.138476	1.532243	0.301836
C29	C	-0.068835	1.532256	0.301835
C30	C	-0.036120	1.464452	0.261767
C31	C	0.029315	1.464450	0.261774
C32	C	0.062034	1.532273	0.301843
C33	C	0.029311	1.600082	0.341919
C34	C	-0.036123	1.600074	0.341915
C35	C	0.165698	1.627799	0.306795
C36	C	0.231131	1.627809	0.306794
C37	C	0.263855	1.532298	0.301860
C38	C	0.231137	1.436773	0.296912
C39	C	0.165703	1.436765	0.296908
C40	C	0.132986	1.532289	0.301852
C41	C	0.367522	1.464486	0.261797
C42	C	0.432958	1.464483	0.261809
C43	C	0.432953	1.600124	0.341951
C44	C	0.367518	1.600118	0.341942
C45	C	0.334806	1.532300	0.301862
C46	C	-0.301886	1.532299	0.465260
C47	C	-0.301881	1.532337	0.534902
C48	C	-0.301914	1.808717	0.301836
C49	C	-0.301920	1.926547	0.301835
C50	C	-0.301866	1.532185	0.139049
C51	C	-0.301695	1.532352	0.069408
C52	C	-0.261809	1.600144	0.567615
C53	C	-0.261783	1.600143	0.633050
C54	C	-0.301838	1.532345	0.665770
C55	C	-0.341913	1.464525	0.633049
C56	C	-0.341934	1.464520	0.567614
C57	C	-0.358254	1.523974	0.769450
C58	C	-0.358233	1.523985	0.834883
C59	C	-0.301772	1.532352	0.867591
C60	C	-0.245329	1.540729	0.834857
C61	C	-0.245351	1.540725	0.769423
C62	C	-0.301819	1.532341	0.736722
C63	C	-0.261668	1.600161	0.971257
C64	C	-0.261640	1.600152	1.036693
C65	C	-0.341776	1.464540	1.036690
C66	C	-0.341798	1.464543	0.971255
C67	C	-0.301745	1.532359	0.938542
H68	H	-0.283235	0.942674	0.199607
H69	H	-0.339629	0.940647	0.398879
H70	H	-0.287250	1.124916	0.198041
H71	H	0.055957	1.409233	0.229145
H72	H	0.055954	1.655302	0.374545
H73	H	-0.365969	0.940809	0.219119
H74	H	-0.339329	1.123347	0.399366
H75	H	-0.404219	1.516877	0.742826
O76	O	0.332226	1.673260	0.385153
H77	H	0.365968	1.720428	0.413014
O78	O	-0.218605	1.673279	0.532334
H79	H	-0.246662	1.727210	0.502541
H80	H	0.257767	1.705588	0.310819
H81	H	0.139060	1.705580	0.310821
H82	H	-0.374524	1.409320	0.659693
O83	O	-0.218419	1.673292	1.071983
H84	H	-0.190578	1.720452	1.038239
H85	H	-0.062750	1.409227	0.229132
O86	O	-0.217383	0.933977	0.384449
H87	H	-0.208158	1.003228	0.414974
H88	H	-0.198673	1.123558	0.285885
H89	H	-0.198656	0.942146	0.286737
H90	H	-0.221436	1.125166	0.367846
O91	O	0.130411	1.333745	0.291581
H92	H	0.164154	1.267326	0.288155
O93	O	-0.218567	1.673289	0.668347
H94	H	-0.190723	1.720449	0.634606
H95	H	-0.199393	1.547543	0.742774
O96	O	-0.384980	1.391410	1.071970
H97	H	-0.378236	1.402807	1.122967
O98	O	-0.385001	1.391379	0.935964
H99	H	-0.412846	1.344225	0.969707
H100	H	-0.199353	1.547543	0.861486
O101	O	-0.071414	1.673215	0.385129
H102	H	-0.037673	1.720381	0.412993
O103	O	-0.419106	1.514939	0.870188
H104	H	-0.458369	1.509094	0.836454
H105	H	-0.229051	1.655375	0.944621
H106	H	-0.374564	1.409299	0.540979
O107	O	-0.384419	1.132914	0.217829
H108	H	-0.403329	1.183673	0.255700
H109	H	-0.399348	1.124094	0.338921
H110	H	0.257780	1.359000	0.292893
H111	H	-0.399668	0.941970	0.338845
H112	H	0.340886	1.409259	0.229165
O113	O	0.468249	1.391357	0.218586
H114	H	0.434506	1.344212	0.190711
O115	O	0.468231	1.673282	0.385169
H116	H	0.519228	1.661902	0.378438
