data_functionalizedCrystal
_audit_creation_method	'MofGen! by Chris Wilmer'
_symmetry_space_group_name_H-M	'P1'
_symmetry_Int_Tables_number	1
_symmetry_cell_setting	triclinic
loop_
_symmetry_equiv_pos_as_xyz
  x,y,z
_cell_length_a	12.759393
_cell_length_b	12.759400
_cell_length_c	12.759401
_cell_angle_alpha	89.996793
_cell_angle_beta	90.019554
_cell_angle_gamma	89.975733
loop_
_atom_site_label
_atom_site_type_symbol
_atom_site_fract_x
_atom_site_fract_y
_atom_site_fract_z
Zn1	Zn	-0.594027	-0.418211	-1.606351
Zn2	Zn	-0.418366	-0.593926	-1.606278
Zn3	Zn	-0.418366	-0.418263	-1.430650
Zn4	Zn	-0.594007	-0.593849	-1.430678
O5	O	-0.506192	-0.506062	-1.518489
O6	O	-0.570733	-0.441531	-1.753363
O7	O	-0.271345	-0.570678	-1.582939
O8	O	-0.441676	-0.271235	-1.453976
O9	O	-0.441676	-0.570628	-1.753309
O10	O	-0.570733	-0.271197	-1.583063
O11	O	-0.271345	-0.441619	-1.453905
O12	O	-0.441657	-0.441544	-1.283633
O13	O	-0.741031	-0.570496	-1.454023
O14	O	-0.570700	-0.570546	-1.283653
O15	O	-0.741045	-0.441456	-1.583090
O16	O	-0.441657	-0.740937	-1.582965
O17	O	-0.570700	-0.740880	-1.453952
C18	C	-0.506177	-0.506043	-1.245522
C19	C	-0.506196	-0.506060	-1.128745
C20	C	-0.780225	-0.505961	-1.518568
C21	C	-0.897002	-0.505918	-1.518601
C22	C	-0.506207	-0.232029	-1.518525
C23	C	-0.506213	-0.115252	-1.518540
C24	C	-0.951873	-0.438716	-1.585811
C25	C	-1.061597	-0.438671	-1.585829
C26	C	-1.061569	-0.573039	-1.451424
C27	C	-0.951847	-0.573078	-1.451402
C28	C	-1.211561	-0.314715	-1.623416
C29	C	-1.266435	-0.247523	-1.690643
C30	C	-1.230840	-0.231414	-1.793152
C31	C	-1.140371	-0.282514	-1.828456
C32	C	-1.085502	-0.349715	-1.761235
C33	C	-1.121096	-0.365803	-1.658711
C34	C	-0.801882	-0.697035	-1.413826
C35	C	-0.747010	-0.764242	-1.346609
C36	C	-0.782604	-0.780361	-1.244098
C37	C	-0.873076	-0.729279	-1.208798
C38	C	-0.927947	-0.662072	-1.276014
C39	C	-0.892346	-0.645952	-1.378525
C40	C	-0.233224	-0.506087	-1.518472
C41	C	-0.116448	-0.505834	-1.518642
C42	C	-0.506199	-0.779030	-1.518483
C43	C	-0.506238	-0.895806	-1.518576
C44	C	-0.439024	-0.060408	-1.451344
C45	C	-0.439038	0.049316	-1.451359
C46	C	-0.573435	0.049342	-1.585774
C47	C	-0.573425	-0.060380	-1.585753
C48	C	-0.361428	-0.060423	-1.373744
C49	C	-0.361442	0.049301	-1.373759
C50	C	-0.506207	-0.506082	-1.792523
C51	C	-0.506213	-0.506091	-1.909299
C52	C	-0.573278	-0.573339	-1.073921
C53	C	-0.573289	-0.573352	-0.964197
C54	C	-0.439128	-0.438804	-0.964131
C55	C	-0.439123	-0.438787	-1.073853
C56	C	-0.650731	-0.651022	-1.073959
C57	C	-0.650743	-0.651036	-0.964235
H58	H	-0.907221	-0.384028	-1.640527
H59	H	-0.284134	-0.094485	-1.402865
H60	H	-0.280077	0.079051	-1.395540
H61	H	-0.902060	-0.742407	-1.125326
O62	O	-0.638842	-0.113536	-1.650976
C63	C	-0.743554	-0.086706	-1.628026
H64	H	-0.745733	-0.007038	-1.587647
H65	H	-0.778931	-0.148444	-1.574013
C66	C	-0.804529	-0.179468	-1.780059
C67	C	-0.807205	-0.081614	-1.730472
H68	H	-0.843794	-0.176331	-1.843251
H69	H	-0.733982	-0.197548	-1.795519
H70	H	-0.834008	-0.230906	-1.735037
H71	H	-0.777715	-0.030180	-1.775488
H72	H	-0.877749	-0.063525	-1.715022
H73	H	-0.384506	-0.383995	-1.118486
H74	H	-0.390583	0.083351	-1.296474
O75	O	-0.729155	-0.845651	-1.178926
C76	C	-0.641691	-0.887317	-1.232070
H77	H	-0.619240	-0.833124	-1.299449
H78	H	-0.662123	-0.968076	-1.264359
C79	C	-0.576452	-0.963505	-1.072732
C80	C	-0.548872	-0.896939	-1.155483
H81	H	-0.519198	-0.969445	-1.025489
H82	H	-0.635380	-0.935437	-1.036928
H83	H	-0.593479	-1.030797	-1.099652
H84	H	-0.531859	-0.829645	-1.128563
H85	H	-0.489939	-0.924995	-1.191281
H86	H	-0.383211	-0.090181	-1.292374
O87	O	-0.638618	0.102810	-1.651032
C88	C	-0.624244	0.211415	-1.636620
H89	H	-0.543163	0.226381	-1.602194
H90	H	-0.686561	0.242575	-1.580692
C91	C	-0.733475	0.249358	-1.785217
C92	C	-0.633886	0.267740	-1.742942
H93	H	-0.739427	0.284105	-1.850799
H94	H	-0.743163	0.176190	-1.794924
H95	H	-0.785394	0.275326	-1.738599
H96	H	-0.581969	0.241762	-1.789552
H97	H	-0.624189	0.340907	-1.733245
O98	O	-0.747761	-0.625016	-1.109656
C99	C	-0.741156	-0.533337	-1.170989
H100	H	-0.657931	-0.524365	-1.202184
H101	H	-0.761996	-0.462374	-1.120855
C102	C	-0.920433	-0.552190	-1.225256
C103	C	-0.818216	-0.541175	-1.263578
H104	H	-0.967969	-0.557022	-1.282366
H105	H	-0.924885	-0.613954	-1.183931
H106	H	-0.937785	-0.493052	-1.183478
H107	H	-0.800861	-0.600319	-1.305344
H108	H	-0.813762	-0.479421	-1.304911
O109	O	-0.997724	-0.399516	-1.795526
C110	C	-1.012453	-0.508838	-1.789109
H111	H	-1.099883	-0.527175	-1.790100
H112	H	-0.976439	-0.539366	-1.713232
C113	C	-0.851706	-0.539723	-1.882044
C114	C	-0.959089	-0.562246	-1.883270
H115	H	-0.818785	-0.572670	-1.940124
H116	H	-0.841780	-0.466072	-1.886364
H117	H	-0.821708	-0.565164	-1.818809
H118	H	-0.989087	-0.536794	-1.946498
H119	H	-0.969019	-0.635895	-1.878963
O120	O	-1.105986	-0.266897	-1.928109
C121	C	-1.184211	-0.298500	-1.999484
H122	H	-1.263906	-0.296384	-1.959177
H123	H	-1.167155	-0.381629	-2.027456
C124	C	-1.087159	-0.226184	-2.143615
C125	C	-1.185043	-0.223576	-2.094112
H126	H	-1.087671	-0.179971	-2.201989
H127	H	-1.034455	-0.204896	-2.095529
H128	H	-1.072957	-0.295462	-2.166916
H129	H	-1.199238	-0.154302	-2.070800
H130	H	-1.237750	-0.244851	-2.142196
H131	H	-0.384521	-0.384032	-0.919424
O132	O	-1.245989	-0.330248	-1.523765
C133	C	-1.167757	-0.298686	-1.452381
H134	H	-1.113400	-0.239850	-1.491906
H135	H	-1.120596	-0.370003	-1.426362
C136	C	-1.286194	-0.319614	-1.307613
C137	C	-1.219438	-0.247344	-1.356156
H138	H	-1.318072	-0.287948	-1.248254
H139	H	-1.338900	-0.340881	-1.355704
H140	H	-1.246883	-0.379040	-1.285940
H141	H	-1.258751	-0.187926	-1.377839
H142	H	-1.166739	-0.226065	-1.308065
O143	O	-1.114734	-0.638427	-1.386209
C144	C	-1.087937	-0.743151	-1.409167
H145	H	-1.008275	-0.745360	-1.449535
H146	H	-1.149693	-0.778520	-1.463192
C147	C	-1.180694	-0.804072	-1.257153
C148	C	-1.082848	-0.806786	-1.306726
H149	H	-1.177559	-0.843328	-1.193965
H150	H	-1.198751	-0.733518	-1.241688
H151	H	-1.232147	-0.833545	-1.302185
H152	H	-1.031399	-0.777302	-1.261700
H153	H	-1.064781	-0.877337	-1.322182
H154	H	-1.275527	-0.176704	-1.847888
H155	H	-0.621455	-0.728274	-1.107988
H156	H	-1.340095	-0.205917	-1.661888
H157	H	-1.001615	-0.620479	-1.247264
H158	H	-0.728091	-0.621993	-0.930233
H159	H	-0.673350	-0.805845	-1.375364
H160	H	-0.628819	-0.732385	-0.934455
H161	H	-0.772887	-0.683909	-1.497297
