data_functionalizedCrystal
_audit_creation_method	'MofGen! by Chris Wilmer'
_symmetry_space_group_name_H-M	'P1'
_symmetry_Int_Tables_number	1
_symmetry_cell_setting	triclinic
loop_
_symmetry_equiv_pos_as_xyz
  x,y,z
_cell_length_a	10.654559
_cell_length_b	16.109301
_cell_length_c	15.186229
_cell_angle_alpha	89.993794
_cell_angle_beta	89.990689
_cell_angle_gamma	83.975197
loop_
_atom_site_label
_atom_site_type_symbol
_atom_site_fract_x
_atom_site_fract_y
_atom_site_fract_z
O1	O	0.161434	1.104099	-0.073175
O2	O	0.181522	0.862157	-0.073186
O3	O	-0.011336	0.988687	-0.073181
O4	O	0.354292	0.977570	-0.073180
O5	O	-0.011367	0.988668	0.073277
O6	O	0.181490	0.862138	0.073271
O7	O	0.161402	1.104080	0.073283
Zn8	Zn	0.171441	0.983106	0.096530
Zn9	Zn	0.171483	0.983131	-0.096434
O10	O	0.354260	0.977550	0.073277
C11	C	0.180692	0.831168	0.000041
C12	C	0.178253	0.738858	0.000036
C13	C	-0.058138	0.987859	0.000046
C14	C	-0.197548	0.985412	0.000040
C15	C	0.284715	0.430495	0.000052
C16	C	0.287020	0.517229	0.000046
C17	C	0.058200	0.535737	0.000034
C18	C	0.055897	0.449004	0.000033
C19	C	0.169159	0.396385	0.000046
C20	C	0.173766	0.569852	0.000042
C21	C	0.176263	0.663893	0.000037
C22	C	0.166662	0.302338	0.000050
C23	C	-0.379045	0.906320	0.000043
C24	C	-0.248054	0.908613	0.000036
C25	C	-0.278040	1.059923	0.000043
C26	C	-0.409029	1.057629	0.000044
C27	C	-0.051018	0.820865	-0.051283
C28	C	0.029469	0.746356	-0.051273
C29	C	0.000184	0.678810	0.000044
C30	C	-0.109586	0.685769	0.051373
C31	C	-0.190068	0.760280	0.051371
C32	C	-0.160783	0.827823	0.000033
C33	C	-0.606066	1.145371	0.051370
C34	C	-0.686550	1.219883	0.051375
C35	C	-0.657268	1.287436	0.000063
C36	C	-0.547496	1.280485	-0.051253
C37	C	-0.467012	1.205974	-0.051258
C38	C	-0.496302	1.138420	0.000053
C39	C	0.401063	0.978378	0.000049
C40	C	0.540472	0.980825	0.000049
C41	C	0.162232	1.135069	0.000054
C42	C	0.164672	1.227379	0.000053
N43	N	0.171412	0.983095	0.228223
C44	C	0.095279	0.932256	0.546172
C45	C	0.095261	0.932250	0.453983
C46	C	0.247635	1.033983	0.453931
C47	C	0.247645	1.033993	0.546119
C48	C	0.171470	0.983125	0.592237
C49	C	0.171441	0.983108	0.407859
C50	C	0.171423	0.983102	0.307903
C51	C	0.171486	0.983132	0.692200
N52	N	0.171499	0.983138	0.771874
H53	H	0.376940	0.387655	0.000062
N54	N	0.013092	0.877378	0.404301
H55	H	0.024637	0.885090	0.338901
H56	H	-0.078235	0.893274	0.420431
N57	N	-0.223572	1.142758	0.000057
H58	H	-0.169873	1.147096	-0.054229
H59	H	-0.169974	1.147014	0.054390
H60	H	-0.722806	1.348109	0.000077
N61	N	0.147849	0.738851	-0.106644
H62	H	0.144675	0.691997	-0.150510
H63	H	0.223943	0.726610	-0.067286
N64	N	0.329800	1.088834	0.404179
H65	H	0.421166	1.072965	0.420212
H66	H	0.304949	1.149163	0.420227
N67	N	0.411658	0.554017	0.000063
H68	H	0.395936	0.616946	0.000060
H69	H	0.461237	0.534817	-0.054225
N70	N	-0.348610	1.198472	-0.106604
H71	H	-0.342267	1.252573	-0.139111
H72	H	-0.351849	1.151597	-0.150433
N73	N	-0.515896	1.353346	-0.106597
H74	H	-0.583539	1.401602	-0.098809
H75	H	-0.511122	1.336275	-0.170599
N76	N	0.329793	1.088883	0.595811
H77	H	0.378046	1.121107	0.552608
H78	H	0.391181	1.053012	0.634071
H79	H	-0.034013	0.578589	0.000026
N80	N	-0.804945	1.227387	0.106727
H81	H	-0.811292	1.173284	0.139230
H82	H	-0.881023	1.239704	0.067369
H83	H	-0.038208	0.421233	0.000026
H84	H	-0.420156	0.843781	0.000050
N85	N	-0.308452	0.767796	0.106728
H86	H	-0.314792	0.713700	0.139245
H87	H	-0.384533	0.780102	0.067371
H88	H	-0.027184	0.875854	-0.093096
N89	N	0.013112	0.877401	0.595916
H90	H	-0.035160	0.845178	0.552742
H91	H	-0.048258	0.913302	0.634166
N92	N	-0.637655	1.072503	0.106709
H93	H	-0.719402	1.088215	0.139223
H94	H	-0.567628	1.057546	0.150532
H95	H	-0.133412	0.630767	0.093168
H96	H	0.065727	0.618143	0.000051
