data_functionalizedCrystal
_audit_creation_method	'MofGen! by Chris Wilmer'
_symmetry_space_group_name_H-M	'P1'
_symmetry_Int_Tables_number	1
_symmetry_cell_setting	triclinic
loop_
_symmetry_equiv_pos_as_xyz
  x,y,z
_cell_length_a	21.395364
_cell_length_b	19.076808
_cell_length_c	19.076929
_cell_angle_alpha	90.124583
_cell_angle_beta	87.716639
_cell_angle_gamma	92.319192
loop_
_atom_site_label
_atom_site_type_symbol
_atom_site_fract_x
_atom_site_fract_y
_atom_site_fract_z
Zn1	Zn	0.933436	-0.295801	0.386053
Zn2	Zn	1.433436	0.204199	0.886053
Zn3	Zn	0.933704	-0.408601	0.263822
Zn4	Zn	1.433704	0.091399	0.763822
Zn5	Zn	0.833039	-0.291097	0.268561
Zn6	Zn	1.333039	0.208903	0.768561
Zn7	Zn	0.824599	-0.413268	0.381290
Zn8	Zn	1.324599	0.086732	0.881290
O9	O	0.881194	-0.352192	0.324931
O10	O	1.381194	0.147808	0.824931
O11	O	1.021148	-0.310779	0.369849
O12	O	1.521148	0.189221	0.869849
O13	O	0.923994	-0.389093	0.166120
O14	O	1.423994	0.110907	0.666120
O15	O	0.849777	-0.193385	0.288123
O16	O	1.349777	0.306615	0.788123
O17	O	1.021345	-0.393653	0.280046
O18	O	1.521345	0.106347	0.780046
O19	O	0.923538	-0.196840	0.374444
O20	O	1.423538	0.303160	0.874444
O21	O	0.850037	-0.302763	0.169601
O22	O	1.350037	0.197237	0.669601
O23	O	0.744242	-0.307288	0.283505
O24	O	1.244242	0.192712	0.783505
O25	O	0.835392	-0.401608	0.480253
O26	O	1.335392	0.098392	0.980253
O27	O	0.738042	-0.397047	0.366326
O28	O	1.238042	0.102953	0.866326
O29	O	0.915354	-0.315304	0.483752
O30	O	1.415354	0.184696	0.983752
O31	O	0.915811	-0.507557	0.275428
O32	O	1.415811	-0.007557	0.775428
O33	O	0.835652	-0.510986	0.361731
O34	O	1.335652	-0.010986	0.861731
C35	C	0.718408	-0.352164	0.324913
C36	C	1.218408	0.147836	0.824913
C37	C	0.648767	-0.352170	0.324921
C38	C	1.148767	0.147830	0.824921
C39	C	0.874861	-0.534770	0.317563
C40	C	1.374861	-0.034770	0.817563
C41	C	0.872208	-0.612878	0.314435
C42	C	1.372208	-0.112878	0.814435
C43	C	0.146859	-0.309149	0.371770
C44	C	0.646859	0.190851	0.871770
C45	C	0.212295	-0.309144	0.371770
C46	C	0.712295	0.190856	0.871770
C47	C	0.245126	-0.352214	0.324946
C48	C	0.745126	0.147786	0.824946
C49	C	0.212515	-0.395306	0.278131
C50	C	0.712515	0.104694	0.778131
C51	C	0.147080	-0.395316	0.278137
C52	C	0.647080	0.104684	0.778137
C53	C	0.350941	-0.355125	0.261400
C54	C	0.850941	0.144875	0.761400
C55	C	0.416375	-0.355111	0.261392
C56	C	0.916375	0.144889	0.761392
C57	C	0.446948	-0.352190	0.324928
C58	C	0.946948	0.147810	0.824928
C59	C	0.412080	-0.349268	0.388473
C60	C	0.912080	0.150732	0.888473
C61	C	0.346645	-0.349277	0.388479
C62	C	0.846645	0.150723	0.888479
C63	C	0.316079	-0.352209	0.324935
C64	C	0.816079	0.147791	0.824935
C65	C	0.550504	-0.309098	0.371744
C66	C	1.050504	0.190902	0.871744
C67	C	0.615940	-0.309098	0.371745
C68	C	1.115940	0.190902	0.871745
C69	C	0.616159	-0.395257	0.278099
C70	C	1.116159	0.104743	0.778099
C71	C	0.550723	-0.395261	0.278104
C72	C	1.050723	0.104739	0.778104
C73	C	0.517900	-0.352178	0.324926
C74	C	1.017900	0.147822	0.824926
C75	C	0.909334	-0.651314	0.357944
C76	C	1.409334	-0.151314	0.857944
C77	C	0.906838	-0.724705	0.355005
C78	C	1.406838	-0.224705	0.855005
C79	C	0.867220	-0.759659	0.308554
C80	C	1.367220	-0.259659	0.808554
C81	C	0.830090	-0.721218	0.265043
C82	C	1.330090	-0.221218	0.765043
C83	C	0.832583	-0.647829	0.267985
C84	C	1.332583	-0.147829	0.767985
C85	C	0.855648	-0.978964	0.294934
C86	C	1.355648	-0.478964	0.794934
C87	C	0.853160	-1.052359	0.291993
C88	C	1.353160	-0.552359	0.791993
C89	C	0.929907	-1.055841	0.381957
C90	C	1.429907	-0.555841	0.881957
C91	C	0.932399	-0.982449	0.384892
C92	C	1.432399	-0.482449	0.884892
C93	C	0.895267	-0.944015	0.341384
C94	C	1.395267	-0.444015	0.841384
N95	N	0.864670	-0.834677	0.305548
N96	N	1.364670	-0.334677	0.805548
N97	N	0.897814	-0.868999	0.344394
N98	N	1.397814	-0.368999	0.844394
C99	C	1.044616	-0.352220	0.324950
C100	C	1.544616	0.147780	0.824950
C101	C	1.114256	-0.352232	0.324958
C102	C	1.614256	0.147768	0.824958
C103	C	0.874402	-0.359501	0.508211
C104	C	1.374402	0.140499	1.008211
C105	C	0.871507	-0.362616	0.586314
C106	C	1.371507	0.137384	1.086314
C107	C	0.887569	-0.168902	0.332344
C108	C	1.387569	0.331098	0.832344
C109	C	0.890285	-0.090795	0.335502
C110	C	1.390285	0.409205	0.835502
C111	C	0.887998	-0.344860	0.142366
C112	C	1.387998	0.155140	0.642366
C113	C	0.891021	-0.341548	0.064272
C114	C	1.391021	0.158452	0.564272
C115	C	0.850749	-0.385012	1.025755
C116	C	1.350749	0.114988	1.525755
C117	C	0.853466	-0.382075	0.952369
C118	C	1.353466	0.117925	1.452369
C119	C	0.896460	-0.335677	0.917502
C120	C	1.396460	0.164323	1.417502
C121	C	0.936734	-0.292208	0.956024
C122	C	1.436734	0.207792	1.456024
C123	C	0.934013	-0.295142	1.029408
C124	C	1.434013	0.204858	1.529408
C125	C	0.909060	-0.322081	0.698221
C126	C	1.409060	0.177919	1.198221
C127	C	0.911780	-0.319152	0.624831
C128	C	1.411780	0.180848	1.124831
C129	C	0.828511	-0.409018	0.621182
C130	C	1.328511	0.090982	1.121182
C131	C	0.825796	-0.411951	0.694568
C132	C	1.325796	0.088049	1.194568
C133	C	0.866068	-0.368480	0.733084
C134	C	1.366068	0.131520	1.233084
N135	N	0.899240	-0.332675	0.842490
N136	N	1.399240	0.167325	1.342490
N137	N	0.863284	-0.371478	0.808094
N138	N	1.363284	0.128522	1.308094
H139	H	0.120138	-0.274070	0.409899
H140	H	0.620138	0.225930	0.909899
H141	H	0.966805	-0.259747	1.060768
H142	H	1.466805	0.240253	1.560768
C143	C	0.514856	-0.442650	0.226609
C144	C	1.014856	0.057350	0.726609
H145	H	0.471183	-0.436492	0.233323
H146	H	0.971183	0.063508	0.733323
H147	H	0.527676	-0.430415	0.179829
H148	H	1.027676	0.069585	0.679829
H149	H	0.523572	-0.490288	0.234919
H150	H	1.023572	0.009712	0.734919
C151	C	0.651807	-0.261709	0.423243
C152	C	1.151807	0.238291	0.923243
H153	H	0.695478	-0.267880	0.416542
H154	H	1.195478	0.232120	0.916542
H155	H	0.643095	-0.214072	0.414941
H156	H	1.143095	0.285928	0.914941
H157	H	0.638980	-0.273952	0.470024
H158	H	1.138980	0.226048	0.970024
C159	C	0.445698	-0.346054	0.458367
C160	C	0.945698	0.153946	0.958367
H161	H	0.415561	-0.344311	0.496210
H162	H	0.915561	0.155689	0.996210
H163	H	0.469606	-0.386577	0.462854
H164	H	0.969606	0.113423	0.962854
H165	H	0.472663	-0.305278	0.459160
H166	H	0.972663	0.194722	0.959160
H167	H	0.444760	-0.357486	0.209650
H168	H	0.944760	0.142514	0.709650
H169	H	0.790786	-0.449733	0.722952
H170	H	1.290786	0.050267	1.222952
H171	H	0.239250	-0.430377	0.240008
H172	H	0.739250	0.069623	0.740008
C173	C	0.952906	-0.612871	0.409050
C174	C	1.452906	-0.112871	0.909050
H175	H	0.974652	-0.646276	0.434548
H176	H	1.474652	-0.146276	0.934548
H177	H	0.982196	-0.583151	0.383357
H178	H	1.482196	-0.083151	0.883357
H179	H	0.928743	-0.585478	0.440789
H180	H	1.428743	-0.085478	0.940789
C181	C	0.514392	-0.261717	0.423247
C182	C	1.014392	0.238283	0.923247
H183	H	0.470752	-0.267885	0.416540
H184	H	0.970752	0.232115	0.916540
H185	H	0.523014	-0.273953	0.470025
H186	H	1.023014	0.226047	0.970025
H187	H	0.527127	-0.214075	0.414940
H188	H	1.027127	0.285925	0.914940
H189	H	0.120535	-0.430401	0.240016
H190	H	0.620535	0.069599	0.740016
C191	C	0.970743	-1.098120	0.429817
C192	C	1.470743	-0.598120	0.929817
H193	H	0.963582	-1.146834	0.421419
H194	H	1.463582	-0.646834	0.921419
H195	H	1.013637	-1.085651	0.420065
H196	H	1.513637	-0.585651	0.920065
H197	H	0.960191	-1.087964	0.477505
H198	H	1.460191	-0.587964	0.977505
C199	C	0.652265	-0.442635	0.226594
C200	C	1.152265	0.057365	0.726594
H201	H	0.695906	-0.436457	0.233292
H202	H	1.195906	0.063543	0.733292
H203	H	0.639532	-0.490274	0.234897
H204	H	1.139532	0.009726	0.734897
H205	H	0.643641	-0.430394	0.179814
H206	H	1.143641	0.069606	0.679814
C207	C	0.814806	-0.936693	0.247077
C208	C	1.314806	-0.436693	0.747077
H209	H	0.821956	-0.887978	0.255485
H210	H	1.321956	-0.387978	0.755485
H211	H	0.825348	-0.946845	0.199391
H212	H	1.325348	-0.446845	0.699391
H213	H	0.771911	-0.949167	0.256842
H214	H	1.271911	-0.449167	0.756842
C215	C	0.984023	-0.241166	0.917675
C216	C	1.484023	0.258834	1.417675
H217	H	1.007614	-0.215695	0.951127
H218	H	1.507614	0.284305	1.451127
H219	H	1.011450	-0.266905	0.887960
H220	H	1.511450	0.233095	1.387960
H221	H	0.962177	-0.209397	0.890288
H222	H	1.462177	0.290603	1.390288
C223	C	0.809581	-1.090811	0.240893
C224	C	1.309581	-0.590811	0.740893
H225	H	0.813423	-1.140023	0.245367
H226	H	1.313423	-0.640023	0.745367
H227	H	0.767502	-1.079232	0.251612
H228	H	1.267502	-0.579232	0.751612
H229	H	0.820946	-1.076907	0.194170
H230	H	1.320946	-0.576907	0.694170
C231	C	0.975989	-0.944004	0.435978
C232	C	1.475989	-0.444004	0.935978
H233	H	0.997744	-0.977407	0.461470
H234	H	1.497744	-0.477407	0.961470
H235	H	1.005271	-0.914296	0.410261
H236	H	1.505271	-0.414296	0.910261
H237	H	0.951845	-0.916599	0.467724
H238	H	1.451845	-0.416599	0.967724
C239	C	0.803458	-0.436051	1.064106
C240	C	1.303458	0.063949	1.564106
H241	H	0.807608	-0.431580	1.113328
H242	H	1.307608	0.068420	1.613328
H243	H	0.762165	-0.425278	1.052491
H244	H	1.262165	0.074722	1.552491
H245	H	0.811435	-0.482789	1.050164
H246	H	1.311435	0.017211	1.550164
C247	C	0.317317	-0.358337	0.191506
C248	C	0.817317	0.141663	0.691506
H249	H	0.347453	-0.360064	0.153662
H250	H	0.847453	0.139936	0.653662
H251	H	0.290351	-0.399108	0.190709
H252	H	0.790351	0.100892	0.690709
H253	H	0.293410	-0.317808	0.187025
H254	H	0.793410	0.182192	0.687025
H255	H	0.937075	-0.755996	0.390430
H256	H	1.437075	-0.255996	0.890430
C257	C	0.809154	-0.429870	0.910004
C258	C	1.309154	0.070130	1.410004
H259	H	0.783160	-0.457924	0.941280
H260	H	1.283160	0.042076	1.441280
H261	H	0.783855	-0.401825	0.882473
H262	H	1.283855	0.098175	1.382473
H263	H	0.833106	-0.459356	0.880129
H264	H	1.333106	0.040644	1.380129
H265	H	0.802350	-0.616535	0.232557
H266	H	1.302350	-0.116535	0.732557
H267	H	0.318258	-0.346900	0.440219
H268	H	0.818258	0.153100	0.940219
H269	H	0.797830	-0.749684	0.227224
H270	H	1.297830	-0.249684	0.727224
C271	C	0.784210	-0.456825	0.578813
C272	C	1.284210	0.043175	1.078813
H273	H	0.791983	-0.448430	0.530115
H274	H	1.291983	0.051570	1.030115
H275	H	0.791286	-0.504524	0.588927
H276	H	1.291286	-0.004524	1.088927
H277	H	0.742024	-0.447003	0.591254
H278	H	1.242024	0.052997	1.091254
H279	H	0.238846	-0.274056	0.409890
H280	H	0.738846	0.225944	0.909890
H281	H	0.946790	-0.281365	0.596445
H282	H	1.446790	0.218635	1.096445
H283	H	0.941856	-0.286687	0.729572
H284	H	1.441856	0.213313	1.229572
