data_functionalizedCrystal
_audit_creation_method	'MofGen! by Chris Wilmer'
_symmetry_space_group_name_H-M	'P1'
_symmetry_Int_Tables_number	1
_symmetry_cell_setting	triclinic
loop_
_symmetry_equiv_pos_as_xyz
  x,y,z
_cell_length_a	21.883469
_cell_length_b	21.882911
_cell_length_c	21.879399
_cell_angle_alpha	60.006540
_cell_angle_beta	60.013207
_cell_angle_gamma	59.992231
loop_
_atom_site_label
_atom_site_type_symbol
_atom_site_fract_x
_atom_site_fract_y
_atom_site_fract_z
O1	O	0.084645	-0.892842	0.746620
O2	O	0.031867	-0.695139	0.601571
O3	O	0.157054	-0.820237	0.601476
O4	O	-0.040542	-0.767744	0.746716
O5	O	0.198586	-0.778715	0.642912
O6	O	0.073399	-0.653617	0.643007
O7	O	0.126177	-0.851320	0.788056
Cu8	Cu	0.103580	-0.748677	0.719315
Cu9	Cu	0.054464	-0.797782	0.670313
O10	O	0.000990	-0.726222	0.788151
N11	N	0.138128	-0.714145	0.753785
N12	N	0.019923	-0.832320	0.635843
C13	C	0.190018	-0.547369	0.805644
C14	C	0.190029	-0.662289	0.805630
C15	C	0.218780	-0.633565	0.834353
C16	C	0.344122	-0.611968	0.768360
C17	C	0.422474	-0.638085	0.742222
C18	C	0.422504	-0.764859	0.790561
C19	C	0.344154	-0.738739	0.816702
C20	C	0.208899	-0.508180	0.728617
C21	C	0.182748	-0.429822	0.702522
C22	C	0.118843	-0.429847	0.830485
C23	C	0.144993	-0.508205	0.856580
C24	C	0.112994	-0.643364	0.824587
C25	C	0.086865	-0.669476	0.798467
C26	C	0.214799	-0.733437	0.734451
C27	C	0.240932	-0.707325	0.760562
C28	C	0.113084	-0.643389	0.959747
C29	C	0.087018	-0.669524	1.038102
C30	C	0.214996	-0.733501	1.038048
C31	C	0.241061	-0.707367	0.959690
C32	C	0.190103	-0.662308	0.920542
C33	C	0.304966	-0.662293	0.805598
C34	C	-0.117460	-0.854702	0.612901
C35	C	-0.002405	-0.854864	0.498145
C36	C	-0.002621	-0.969735	0.613108
C37	C	-0.002603	-0.854858	0.613180
C38	C	-0.031272	-0.883541	0.584334
N39	N	0.460550	-0.714150	0.753681
O40	O	0.699805	-0.721060	0.574973
O41	O	0.700047	-0.866553	0.772482
O42	O	0.699952	-0.866219	0.647213
O43	O	0.699900	-0.721394	0.700242
O44	O	0.575478	-0.824800	0.688791
O45	O	0.575573	-0.825134	0.814060
O46	O	0.575331	-0.679641	0.616551
Cu47	Cu	0.564087	-0.748606	0.719102
Cu48	Cu	0.711292	-0.797588	0.669931
O49	O	0.575426	-0.679975	0.741820
N50	N	0.814828	-0.832044	0.635345
N51	N	0.138106	-0.391772	0.753815
O52	O	-0.040520	-0.152377	0.746758
O53	O	0.156993	-0.152371	0.601281
O54	O	0.031698	-0.152390	0.601639
O55	O	0.084775	-0.152358	0.746401
O56	O	0.073234	-0.276876	0.643130
O57	O	0.198529	-0.276856	0.642772
O58	O	0.001015	-0.276863	0.788249
Cu59	Cu	0.103564	-0.288226	0.719299
Cu60	Cu	0.054444	-0.141007	0.670231
O61	O	0.126310	-0.276844	0.787892
N62	N	0.019892	-0.037461	0.635717
N63	N	0.138332	-0.714192	1.076133
O64	O	0.131293	-0.892804	1.315506
O65	O	-0.014162	-0.695219	1.315533
O66	O	-0.013826	-0.820490	1.315480
O67	O	0.130957	-0.767533	1.315559
O68	O	0.027651	-0.778981	1.191001
O69	O	0.027314	-0.653710	1.191054
O70	O	0.172770	-0.851295	1.191026
Cu71	Cu	0.103829	-0.748713	1.179674
Cu72	Cu	0.054778	-0.797802	1.326885
O73	O	0.172434	-0.726024	1.191079
N74	N	0.020275	-0.832331	1.430426
C75	C	0.047687	-0.649466	0.602306
C76	C	0.202716	-0.804385	0.602188
C77	C	0.110357	-0.896993	0.787321
C78	C	-0.044672	-0.742074	0.787439
C79	C	0.637839	-0.865879	0.818154
C80	C	0.637724	-0.865466	0.663023
C81	C	0.637536	-0.680313	0.570880
C82	C	0.637655	-0.680728	0.726010
C83	C	0.202592	-0.214459	0.601942
C84	C	0.047481	-0.214636	0.602435
C85	C	-0.044635	-0.214620	0.787537
C86	C	0.110528	-0.214598	0.787096
C87	C	-0.013455	-0.649572	1.253296
C88	C	-0.013030	-0.804697	1.253206
C89	C	0.172063	-0.896942	1.253263
C90	C	0.171648	-0.741808	1.253325
H91	H	0.024299	-0.654107	1.070013
H92	H	0.217133	-0.730478	1.253340
H93	H	0.259199	-0.214112	0.556156
O94	O	-0.112252	-0.214652	0.842119
C95	C	-0.112209	-0.214620	0.906523
H96	H	-0.052163	-0.238182	0.905628
H97	H	-0.145464	-0.250760	0.958626
H98	H	-0.138965	-0.154895	0.907396
H99	H	-0.059121	-0.592825	1.253304
O100	O	0.034322	-0.581685	0.547974
C101	C	0.085686	-0.548452	0.527802
H102	H	0.107588	-0.573240	0.575782
H103	H	0.056575	-0.485490	0.515576
H104	H	0.134426	-0.559750	0.475738
O105	O	-0.067180	-0.818295	1.253082
C106	C	-0.039918	-0.891871	1.253059
H107	H	0.023834	-0.911590	1.229542
H108	H	-0.062668	-0.892919	1.216856
H109	H	-0.058873	-0.930598	1.312759
H110	H	0.217732	-0.953686	1.253245
H111	H	0.071582	-0.606692	0.927876
H112	H	0.121892	-0.214588	0.832572
O113	O	0.637770	-0.626471	0.739463
C114	C	0.702180	-0.606276	0.688116
H115	H	0.747249	-0.654210	0.666143
H116	H	0.723840	-0.594140	0.717270
H117	H	0.687534	-0.554149	0.639417
O118	O	0.033824	-0.214701	0.548278
C119	C	-0.039749	-0.214699	0.575546
H120	H	-0.059422	-0.238241	0.639300
H121	H	-0.040828	-0.250872	0.552788
H122	H	-0.078489	-0.154985	0.556602
O123	O	0.270472	-0.817842	0.547865
C124	C	0.316974	-0.891397	0.574917
H125	H	0.296662	-0.911216	0.638670
H126	H	0.376948	-0.892352	0.552003
H127	H	0.314916	-0.930101	0.555953
O128	O	0.638051	-0.920394	0.885793
C129	C	0.702529	-0.937729	0.899199
H130	H	0.747540	-0.921131	0.843632
H131	H	0.724228	-1.000406	0.929426
H132	H	0.687957	-0.905670	0.935381
H133	H	0.256495	-0.770176	1.069914
H134	H	0.637457	-0.634634	0.514159
O135	O	0.315906	-0.725793	0.921724
C136	C	0.355289	-0.771177	0.973083
H137	H	0.317947	-0.761185	1.028946
H138	H	0.407572	-0.756493	0.950429
H139	H	0.372193	-0.832552	0.981403
O140	O	0.123790	-0.964800	0.841604
C141	C	0.141388	-1.021169	0.815904
H142	H	0.117271	-0.995632	0.769395
H143	H	0.116353	-1.065963	0.864135
H144	H	0.204766	-1.047493	0.793400
O145	O	0.063446	-0.599594	0.868327
C146	C	-0.010149	-0.588503	0.879465
H147	H	-0.010038	-0.597245	0.832225
H148	H	-0.047357	-0.529078	0.879896
H149	H	-0.032564	-0.630216	0.935279
H150	H	0.024137	-0.654049	0.813885
O151	O	-0.112407	-0.728596	0.841783
C152	C	-0.158923	-0.655055	0.814718
H153	H	-0.122882	-0.619515	0.766651
H154	H	-0.194776	-0.629991	0.861687
H155	H	-0.196724	-0.656189	0.793931
O156	O	0.637613	-0.919678	0.649499
C157	C	0.573124	-0.893918	0.631905
H158	H	0.528054	-0.847460	0.656092
H159	H	0.551531	-0.942140	0.656876
H160	H	0.587638	-0.871323	0.568524
O161	O	0.264349	-0.777154	0.690659
C162	C	0.337943	-0.788273	0.679553
H163	H	0.337802	-0.741037	0.688315
H164	H	0.375114	-0.788674	0.620120
H165	H	0.360422	-0.844098	0.721242
H166	H	0.312274	-0.779724	0.847024
O167	O	0.460461	-0.839147	0.801428
C168	C	0.409099	-0.877965	0.839881
H169	H	0.353256	-0.843786	0.872005
H170	H	0.431771	-0.934473	0.880771
H171	H	0.400737	-0.887025	0.797965
O172	O	0.460396	-0.589095	0.706033
C173	C	0.409006	-0.516022	0.701853
H174	H	0.353147	-0.512967	0.707001
H175	H	0.431617	-0.474614	0.645852
H176	H	0.400700	-0.501398	0.749325
O177	O	0.315754	-0.725568	0.742069
C178	C	0.334639	-0.659718	0.702657
H179	H	0.290438	-0.612650	0.676162
H180	H	0.391504	-0.670024	0.656982
H181	H	0.337248	-0.643232	0.742955
H182	H	0.129609	-0.540114	0.919306
H183	H	0.245557	-0.540066	0.687141
O184	O	0.305976	-0.537738	0.757707
C185	C	0.260703	-0.527084	0.827650
H186	H	0.248988	-0.580955	0.871313
H187	H	0.205594	-0.480032	0.823145
H188	H	0.290918	-0.511651	0.845050
H189	H	0.198119	-0.397913	0.639797
H190	H	0.082193	-0.397958	0.871963
