data_functionalizedCrystal
_audit_creation_method	'MofGen! by Chris Wilmer'
_symmetry_space_group_name_H-M	'P1'
_symmetry_Int_Tables_number	1
_symmetry_cell_setting	triclinic
loop_
_symmetry_equiv_pos_as_xyz
  x,y,z
_cell_length_a	10.540535
_cell_length_b	10.540539
_cell_length_c	16.776229
_cell_angle_alpha	89.995514
_cell_angle_beta	89.995263
_cell_angle_gamma	84.524567
loop_
_atom_site_label
_atom_site_type_symbol
_atom_site_fract_x
_atom_site_fract_y
_atom_site_fract_z
O1	O	1.685895	0.178876	-0.066241
O2	O	1.316481	0.195738	-0.066251
O3	O	1.509616	0.002600	-0.066245
O4	O	1.492760	0.372014	-0.066247
O5	O	1.509590	0.002588	0.066332
O6	O	1.316455	0.195726	0.066325
O7	O	1.685869	0.178864	0.066336
Zn8	Zn	1.501158	0.187293	0.087380
Zn9	Zn	1.501192	0.187309	-0.087295
O10	O	1.492734	0.372002	0.066329
C11	C	1.269165	0.194469	0.000036
C12	C	1.128217	0.190689	0.000031
C13	C	1.091546	0.049675	0.000036
C14	C	0.944946	0.045698	0.000344
C15	C	0.918866	0.255052	0.075601
C16	C	1.065632	0.258053	0.075656
C17	C	1.065545	0.260119	-0.075113
C18	C	0.919199	0.253597	-0.076098
C19	C	1.508339	-0.044709	0.000042
C20	C	1.504557	-0.185657	0.000038
C21	C	1.359640	-0.369081	-0.000264
C22	C	1.363474	-0.222463	0.000034
C23	C	1.572438	-0.247322	0.075747
C24	C	1.567623	-0.393867	0.075811
C25	C	1.570522	-0.394371	-0.074953
C26	C	1.571822	-0.247389	-0.075954
C27	C	1.733185	0.180133	0.000047
C28	C	1.874134	0.183913	0.000046
C29	C	1.494011	0.419311	0.000041
C30	C	1.497793	0.560259	0.000040
N31	N	1.501144	0.187281	0.206591
N32	N	1.501216	0.187311	-0.206506
C33	C	1.586691	0.101796	0.248311
C34	C	1.586698	0.101795	0.331763
C35	C	1.501163	0.187286	0.373494
C36	C	1.415607	0.272776	0.331768
C37	C	1.415595	0.272770	0.248318
C38	C	1.415654	0.272801	0.668315
C39	C	1.415675	0.272804	0.751772
C40	C	1.586756	0.101826	0.751761
C41	C	1.586744	0.101820	0.668311
C42	C	1.501184	0.187304	0.626592
C43	C	1.501176	0.187303	0.536104
C44	C	1.501177	0.187295	0.463981
H45	H	1.105792	0.209999	0.132352
H46	H	1.674683	-0.223169	-0.080523
H47	H	1.133526	-0.004471	-0.054138
N48	N	1.674142	0.014505	0.794389
N49	N	1.674144	0.014512	0.868898
H50	H	1.735859	-0.047155	0.899004
H51	H	1.303919	-0.397675	-0.054557
H52	H	1.676045	-0.224970	0.078565
N53	N	1.698363	-0.453606	-0.075574
N54	N	1.735895	-0.528924	-0.021084
H55	H	1.826181	-0.570759	-0.021513
H56	H	1.134994	-0.003574	0.054138
N57	N	1.328293	0.360135	0.625696
N58	N	1.328291	0.360131	0.551187
H59	H	1.266593	0.421818	0.521082
N60	N	1.328272	0.360110	0.794400
N61	N	1.249132	0.319057	0.840979
H62	H	1.187406	0.380713	0.871086
N63	N	1.328216	0.360083	0.374394
N64	N	1.249068	0.319041	0.420972
H65	H	1.187346	0.380704	0.451077
N66	N	1.290022	-0.406935	0.067482
N67	N	1.247601	-0.325565	0.117355
H68	H	1.198445	-0.352295	0.165208
H69	H	0.870151	0.354471	-0.080896
N70	N	1.673988	0.014409	0.205674
N71	N	1.671100	-0.102935	0.215009
H72	H	1.732725	-0.164674	0.184889
N73	N	1.328215	0.360113	0.205711
N74	N	1.331012	0.477469	0.215023
H75	H	1.269294	0.539157	0.184933
N76	N	0.908165	-0.024089	-0.067592
N77	N	0.990843	-0.070193	-0.115564
H78	H	0.964874	-0.119485	-0.163546
N79	N	0.909248	-0.023774	0.068691
N80	N	0.992658	-0.069460	0.116315
H81	H	0.967449	-0.118527	0.164589
N82	N	1.094551	0.387724	0.079693
N83	N	1.157141	0.433189	0.025146
H84	H	1.177561	0.524768	0.028001
N85	N	0.859433	0.382704	0.078875
N86	N	0.790914	0.418153	0.137059
H87	H	0.748933	0.508307	0.139371
N88	N	0.880078	0.193807	0.146406
N89	N	0.819504	0.097783	0.141420
H90	H	0.792110	0.054522	0.191425
N91	N	1.674027	0.014434	0.374391
N92	N	1.673988	0.014406	0.448900
H93	H	1.735644	-0.047319	0.479007
H94	H	1.087730	0.363870	-0.075845
N95	N	1.118858	0.205028	-0.146999
N96	N	1.235542	0.204901	-0.160341
H97	H	1.273210	0.166015	-0.211113
N98	N	0.883337	0.188653	-0.146222
N99	N	0.924020	0.074715	-0.157290
H100	H	0.898684	0.028845	-0.206813
N101	N	1.296461	-0.169020	-0.068049
N102	N	1.246524	-0.240000	-0.116118
H103	H	1.199187	-0.202262	-0.164204
N104	N	1.504640	-0.429278	0.146790
N105	N	1.489695	-0.543705	0.159668
H106	H	1.445208	-0.568711	0.209797
N107	N	1.295961	-0.170075	0.068222
N108	N	1.180620	-0.185189	0.077079
H109	H	1.132937	-0.148192	0.125240
H110	H	1.669088	-0.441837	0.079249
N111	N	1.513234	-0.193902	0.146419
N112	N	1.397814	-0.204092	0.159192
H113	H	1.355992	-0.166367	0.209103
N114	N	1.513255	-0.433965	-0.146935
N115	N	1.418131	-0.496111	-0.143835
H116	H	1.377675	-0.524078	-0.194668
H117	H	1.522154	-0.206525	-0.131962
H118	H	1.656398	0.032209	0.634336
