data_functionalizedCrystal
_audit_creation_method	'MofGen! by Chris Wilmer'
_symmetry_space_group_name_H-M	'P1'
_symmetry_Int_Tables_number	1
_symmetry_cell_setting	triclinic
loop_
_symmetry_equiv_pos_as_xyz
  x,y,z
_cell_length_a	19.288864
_cell_length_b	10.654550
_cell_length_c	17.766277
_cell_angle_alpha	89.994852
_cell_angle_beta	89.976791
_cell_angle_gamma	83.810575
loop_
_atom_site_label
_atom_site_type_symbol
_atom_site_fract_x
_atom_site_fract_y
_atom_site_fract_z
O1	O	0.922379	0.156657	-0.062834
O2	O	0.720257	0.177789	-0.062782
O3	O	0.825965	-0.015616	-0.062807
O4	O	0.816670	0.350062	-0.062810
O5	O	0.825946	-0.015625	0.062382
O6	O	0.720238	0.177780	0.062406
O7	O	0.922360	0.156647	0.062355
Cu8	Cu	0.821297	0.167212	0.073811
Cu9	Cu	0.821319	0.167224	-0.074239
O10	O	0.816652	0.350052	0.062379
C11	C	0.694366	0.177105	-0.000181
C12	C	0.617249	0.175063	-0.000162
C13	C	0.825273	-0.062404	-0.000213
C14	C	0.823231	-0.201803	-0.000215
C15	C	0.573296	0.288545	-0.000175
C16	C	0.500836	0.286627	-0.000183
C17	C	0.472333	0.171222	-0.000193
C18	C	0.516296	0.057725	-0.000176
C19	C	0.588754	0.059646	-0.000160
C20	C	0.363484	0.080503	-0.044077
C21	C	0.291027	0.078587	-0.044098
C22	C	0.248849	0.165292	-0.000239
C23	C	0.279135	0.253934	0.043630
C24	C	0.351593	0.255855	0.043646
C25	C	0.393766	0.169126	-0.000210
C26	C	0.126326	0.276702	-0.000260
C27	C	0.053865	0.274779	-0.000263
C28	C	0.069327	0.045875	-0.000264
C29	C	0.141786	0.047800	-0.000253
C30	C	0.170281	0.163217	-0.000254
C31	C	0.885471	-0.282621	-0.000229
C32	C	0.883548	-0.413601	-0.000234
C33	C	0.757141	-0.382932	-0.000208
C34	C	0.759065	-0.251955	-0.000208
C35	C	0.949637	-0.232470	-0.000235
C36	C	1.011882	-0.313290	-0.000248
C37	C	1.009959	-0.444269	-0.000253
C38	C	0.945792	-0.494429	-0.000245
C39	C	0.948250	0.157332	-0.000248
C40	C	1.025367	0.159373	-0.000273
C41	C	0.817344	0.396840	-0.000216
C42	C	0.819385	0.536240	-0.000219
N43	N	0.821287	0.167203	0.177941
N44	N	0.821335	0.167223	-0.178369
C45	C	0.868110	0.081606	0.217318
C46	C	0.868114	0.081600	0.296119
C47	C	0.821301	0.167213	0.335542
C48	C	0.774469	0.252818	0.296156
C49	C	0.774462	0.252813	0.217356
C50	C	0.812752	0.281634	0.460380
C51	C	0.812764	0.281641	0.539179
C52	C	0.821320	0.167229	0.578588
C53	C	0.829879	0.052804	0.539189
C54	C	0.829871	0.052799	0.460389
C55	C	0.821304	0.167228	0.420988
C56	C	0.868150	0.081617	0.703410
C57	C	0.868149	0.081610	0.782214
C58	C	0.774508	0.252839	0.782249
C59	C	0.774506	0.252835	0.703447
C60	C	0.821330	0.167226	0.664033
H61	H	0.596492	0.382526	-0.000177
H62	H	0.736332	0.322518	0.185295
H63	H	0.704899	-0.423784	-0.000200
H64	H	0.266373	0.006415	-0.079822
O65	O	1.074227	-0.264628	-0.000394
C66	C	1.112224	-0.305974	-0.065231
H67	H	1.074722	-0.332999	-0.110540
H68	H	1.142160	-0.226788	-0.087000
H69	H	1.150514	-0.391563	-0.050585
H70	H	0.244795	0.324537	0.079345
O71	O	0.804471	0.392898	0.422219
C72	C	0.796913	0.493887	0.473888
H73	H	0.821174	0.461443	0.530052
H74	H	0.824302	0.575586	0.451102
H75	H	0.739154	0.526297	0.482292
H76	H	0.906275	0.011905	0.671318
H77	H	0.944232	-0.601083	-0.000257
O78	O	0.729096	0.336172	0.665229
C79	C	0.740974	0.460433	0.684485
H80	H	0.796586	0.460788	0.706116
H81	H	0.733283	0.523496	0.632663
H82	H	0.702660	0.497497	0.730244
O83	O	0.698541	-0.173619	-0.000163
C84	C	0.641494	-0.245966	-0.000170
H85	H	0.658642	-0.343829	0.023531
H86	H	0.597839	-0.197394	0.036180
H87	H	0.621870	-0.255178	-0.060226
H88	H	0.906244	0.011893	0.328185
H89	H	0.376250	0.328027	0.079369
O90	O	0.804570	0.392756	0.577485
C91	C	0.863567	0.402624	0.623049
H92	H	0.910026	0.339822	0.599280
H93	H	0.875964	0.504839	0.623934
H94	H	0.852419	0.371194	0.682778
H95	H	0.018079	0.367194	-0.000269
H96	H	0.046120	-0.048091	-0.000320
O97	O	0.913614	-0.001683	0.179148
C98	C	0.954954	-0.077216	0.230807
H99	H	0.926478	-0.078495	0.286995
H100	H	0.965068	-0.177558	0.208045
H101	H	1.006744	-0.036674	0.239154
O102	O	0.154047	0.388778	-0.000382
C103	C	0.195545	0.396738	-0.065200
H104	H	0.178117	0.331227	-0.110525
H105	H	0.189545	0.497989	-0.086956
H106	H	0.252528	0.367438	-0.050532
H107	H	0.836838	-0.040369	0.428313
O108	O	0.838066	-0.058325	0.577489
C109	C	0.779074	-0.068185	0.623114
H110	H	0.732617	-0.005363	0.599391
H111	H	0.766667	-0.170393	0.624014
H112	H	0.790234	-0.036774	0.682830
H113	H	0.736390	0.322542	0.814346
H114	H	0.465043	0.379040	-0.000191
H115	H	0.177574	-0.044609	-0.000247
H116	H	0.624542	-0.032767	-0.000150
O117	O	0.951598	-0.105261	-0.000130
C118	C	0.986878	-0.069931	0.064713
H119	H	1.022667	-0.154372	0.086320
H120	H	1.019242	0.010157	0.050132
H121	H	0.947256	-0.037007	0.110121
O122	O	0.913704	-0.001591	0.820350
C123	C	0.955017	-0.077165	0.768659
H124	H	0.956040	-0.025682	0.712484
H125	H	1.010394	-0.096563	0.791399
H126	H	0.932026	-0.170359	0.760297
H127	H	0.736353	0.322524	0.328258
H128	H	1.060642	-0.510069	-0.000271
H129	H	0.397820	0.009895	-0.079796
H130	H	0.493084	-0.036239	-0.000195
