data_functionalizedCrystal
_audit_creation_method	'MofGen! by Chris Wilmer'
_symmetry_space_group_name_H-M	'P1'
_symmetry_Int_Tables_number	1
_symmetry_cell_setting	triclinic
loop_
_symmetry_equiv_pos_as_xyz
  x,y,z
_cell_length_a	14.628931
_cell_length_b	16.704494
_cell_length_c	14.628931
_cell_angle_alpha	90.000601
_cell_angle_beta	60.000000
_cell_angle_gamma	56.632160
loop_
_atom_site_label
_atom_site_type_symbol
_atom_site_fract_x
_atom_site_fract_y
_atom_site_fract_z
Zr1	Zr	0.905010	0.815197	-0.072169
O2	O	1.111557	0.680078	-0.226052
O3	O	0.709448	0.856618	-0.024996
O4	O	0.900154	0.856617	-0.215702
O5	O	0.920850	0.680079	0.115086
O6	O	0.883828	0.995874	-0.207538
O7	O	0.920850	0.680079	-0.035346
O8	O	0.542689	0.995875	0.133601
O9	O	1.261989	0.680078	-0.226053
O10	O	0.773633	0.978209	0.001216
O11	O	0.785817	0.874283	0.107388
O12	O	1.010349	0.874283	-0.117143
O13	O	1.022532	0.770357	-0.010971
Zr14	Zr	0.878972	1.037295	0.180773
Zr15	Zr	0.878972	1.037295	-0.059148
Zr16	Zr	0.905010	0.815197	0.167752
Zr17	Zr	1.144932	0.815196	-0.072170
Zr18	Zr	0.639050	1.037296	0.180774
O19	O	1.074534	0.995874	0.133600
O20	O	1.074534	0.995873	-0.207538
O21	O	1.111556	0.680079	0.115085
O22	O	0.672425	1.172414	0.334656
O23	O	0.672425	1.172413	-0.006481
O24	O	0.709448	0.856619	0.316142
O25	O	0.863131	1.172413	-0.006482
O26	O	0.883828	0.995875	0.324306
O27	O	0.900154	0.856618	0.316141
O28	O	0.863131	1.172413	0.143950
O29	O	1.241292	0.856617	-0.215703
O30	O	0.542689	0.995875	0.324306
O31	O	0.521993	1.172414	0.334656
O32	O	0.521993	1.172414	0.143951
O33	O	1.261989	0.680078	-0.035347
O34	O	1.241292	0.856617	-0.024997
O35	O	0.773633	0.978209	0.225747
O36	O	0.761449	1.082135	0.119574
O37	O	0.998165	0.978209	0.001215
O38	O	1.010349	0.874283	0.107388
C39	C	0.591885	0.926247	0.054303
C40	C	0.490032	0.926247	0.054303
C41	C	0.531929	0.853338	-0.028731
C42	C	0.426661	0.853336	-0.028733
C43	C	0.924560	0.648435	0.038014
C44	C	0.935614	0.554148	0.032487
C45	C	0.709232	0.485481	0.145693
C46	C	0.719612	0.396893	0.140502
C47	C	0.966752	0.288384	0.016921
C48	C	0.956372	0.376972	0.022112
C49	C	0.827608	0.475519	0.086499
C50	C	0.817230	0.564108	0.091683
C51	C	1.064368	0.455598	-0.031892
C52	C	1.074748	0.367010	-0.037082
C53	C	1.192097	0.926245	0.054301
C54	C	1.293950	0.926245	0.054301
C55	C	0.891991	0.926245	-0.245803
C56	C	0.891991	0.926245	-0.347656
C57	C	0.859421	1.204057	0.070589
C58	C	0.848367	1.298344	0.076117
C59	C	0.883443	0.999154	-0.388791
C60	C	0.883443	0.999155	-0.494061
C61	C	0.891991	0.926247	0.354407
C62	C	0.891991	0.926247	0.456260
C63	C	0.559315	1.204058	0.070590
C64	C	0.446408	1.298344	0.076118
C65	C	0.591885	0.926247	0.354408
C66	C	0.490031	0.926248	0.456261
C67	C	0.559315	1.204058	0.370695
C68	C	0.446408	1.298345	0.478076
C69	C	1.224666	0.648434	-0.262092
C70	C	1.337573	0.554147	-0.369473
C71	C	1.224666	0.648434	0.038014
C72	C	1.337573	0.554148	0.032486
C73	C	1.192097	0.926245	-0.245804
C74	C	1.293950	0.926244	-0.347657
C75	C	0.399746	1.288374	0.016922
C76	C	0.293672	1.376958	0.022093
C77	C	0.234256	1.475511	0.086468
C78	C	0.280928	1.485479	0.145665
C79	C	0.387006	1.396897	0.140487
C80	C	0.387025	1.396881	0.473083
C81	C	0.280949	1.485482	0.573970
C82	C	0.234252	1.475545	0.679850
C83	C	0.293646	1.376999	0.684840
C84	C	0.399726	1.288400	0.583954
C85	C	1.396968	0.455611	-0.364479
C86	C	1.503074	0.367010	-0.465367
C87	C	1.549776	0.376947	-0.571246
C88	C	1.490376	0.475493	-0.576236
C89	C	1.384279	0.564092	-0.475350
C90	C	1.384246	0.564118	0.091672
C91	C	1.490346	0.475534	0.086474
C92	C	1.549766	0.376981	0.022096
C93	C	1.503089	0.367012	-0.037097
C94	C	1.396997	0.455595	-0.031905
C95	C	0.438578	0.977802	0.560384
C96	C	0.333307	0.977804	0.665656
H97	H	0.376228	0.988667	0.125388
C98	C	0.873556	1.083486	-0.541864
C99	C	0.748425	1.198474	-0.466226
C100	C	0.738538	1.282808	-0.514030
C101	C	0.853782	1.252154	-0.637473
C102	C	0.978922	1.137160	-0.713118
C103	C	0.988809	1.052827	-0.665314
H104	H	0.663107	1.221171	-0.374839
H105	H	0.645901	1.367934	-0.458031
H106	H	0.846463	1.314583	-0.672860
H107	H	1.064241	1.114464	-0.804505
H108	H	1.081447	0.967701	-0.721313
H109	H	0.462357	0.790914	-0.099819
H110	H	0.338161	0.882115	0.563032
H111	H	0.258245	0.988665	0.125397
H112	H	0.289080	1.021943	0.754974
C113	C	0.444267	0.866618	0.441105
C114	C	0.292672	0.924837	0.494282
C115	C	0.246911	0.865205	0.479121
C116	C	0.352745	0.747354	0.410783
C117	C	0.504350	0.689129	0.357601
C118	C	0.550111	0.748760	0.372762
H119	H	0.214319	1.012083	0.544874
H120	H	0.134682	0.908309	0.518490
H121	H	0.318870	0.703211	0.399560
H122	H	0.582703	0.601882	0.307009
H123	H	0.662339	0.705657	0.333393
C124	C	0.589397	0.407851	0.205613
C125	C	0.600805	0.310412	0.199909
C126	C	0.470584	0.321372	0.265024
C127	C	0.328955	0.429771	0.335843
C128	C	0.317541	0.527218	0.341551
C129	C	0.447762	0.516258	0.276436
H130	H	0.705653	0.230161	0.147481
H131	H	0.479035	0.249235	0.260798
H132	H	0.232558	0.437885	0.384045
H133	H	0.212694	0.607469	0.393978
H134	H	0.439312	0.588395	0.280661
H135	H	1.528332	0.483670	0.134681
C136	C	0.465096	1.179973	-0.053903
C137	C	0.413759	1.169028	-0.119022
C138	C	0.479109	1.060630	-0.189857
C139	C	0.595795	0.963177	-0.195573
C140	C	0.647139	0.974119	-0.130451
C141	C	0.581789	1.082517	-0.059616
H142	H	0.327375	1.241171	-0.114792
H143	H	0.441100	1.052531	-0.238064
H144	H	0.644171	0.882934	-0.248009
H145	H	0.733523	0.901975	-0.134681
H146	H	0.619798	1.090616	-0.011409
H147	H	0.899316	0.863820	-0.508359
H148	H	0.712383	0.644347	0.144117
C149	C	0.465027	1.180013	0.589459
C150	C	0.618651	1.104165	0.535358
C151	C	0.683946	0.995780	0.540874
C152	C	0.595617	0.963242	0.600491
C153	C	0.441983	1.039091	0.654597
C154	C	0.376689	1.147476	0.649081
H155	H	0.684046	1.128250	0.491221
H156	H	0.797676	0.939632	0.500820
H157	H	0.643952	0.883009	0.604574
H158	H	0.376589	1.015006	0.698733
H159	H	0.262959	1.203625	0.689134
C160	C	1.318903	0.672520	0.162486
C161	C	1.407200	0.705090	0.133775
C162	C	1.341870	0.813489	0.204586
C163	C	1.188245	0.889319	0.304108
C164	C	1.099939	0.856751	0.332824
C165	C	1.165268	0.748351	0.262013
H166	H	1.520931	0.648955	0.060099
H167	H	1.407241	0.837598	0.183329
H168	H	1.139884	0.969562	0.356527
H169	H	0.986208	0.912886	0.406501
H170	H	1.099898	0.724243	0.283271
H171	H	0.645733	0.790922	-0.099822
H172	H	0.604387	0.565721	0.198127
H173	H	1.071585	0.208135	-0.035484
H174	H	0.876118	1.061577	-0.346072
H175	H	1.179584	0.286763	-0.089500
H176	H	1.160759	0.447492	-0.080096
H177	H	0.899301	0.863829	-0.390369
H178	H	0.255685	1.368822	-0.026113
H179	H	1.551421	0.286779	-0.461281
H180	H	0.147880	1.547633	0.090676
H181	H	1.359001	0.447463	-0.080099
H182	H	0.232536	1.565733	0.198077
H183	H	0.424985	1.405029	0.188699
H184	H	0.425029	1.404991	0.386881
H185	H	0.232601	1.565714	0.569887
H186	H	0.147873	1.547696	0.761989
H187	H	0.255609	1.368924	0.771061
H188	H	1.358951	0.447501	-0.278277
H189	H	1.636167	0.304795	-0.653385
H190	H	1.528415	0.483571	-0.662455
H191	H	1.636151	0.304859	0.017878
H192	H	1.335920	0.644321	-0.479429
H193	H	1.551484	0.286759	-0.089512
H194	H	0.472467	1.021934	0.571592
