data_functionalizedCrystal
_audit_creation_method	'MofGen! by Chris Wilmer'
_symmetry_space_group_name_H-M	'P1'
_symmetry_Int_Tables_number	1
_symmetry_cell_setting	triclinic
loop_
_symmetry_equiv_pos_as_xyz
  x,y,z
_cell_length_a	11.169417
_cell_length_b	18.101396
_cell_length_c	11.169409
_cell_angle_alpha	89.964958
_cell_angle_beta	90.019824
_cell_angle_gamma	89.962098
loop_
_atom_site_label
_atom_site_type_symbol
_atom_site_fract_x
_atom_site_fract_y
_atom_site_fract_z
Zn1	Zn	1.834740	0.294752	0.678520
Zn2	Zn	1.834536	0.418619	0.477828
Zn3	Zn	1.634026	0.294797	0.477854
Zn4	Zn	1.633940	0.418558	0.678472
O5	O	1.734310	0.356682	0.578169
O6	O	2.002662	0.311190	0.651907
O7	O	1.807888	0.402238	0.309881
O8	O	1.660772	0.191159	0.504504
O9	O	2.002512	0.402194	0.504459
O10	O	1.808236	0.191125	0.651933
O11	O	1.660574	0.311267	0.309901
O12	O	1.466065	0.311208	0.504458
O13	O	1.660626	0.402091	0.846429
O14	O	1.466001	0.402135	0.651851
O15	O	1.808153	0.311131	0.846464
O16	O	1.807805	0.522244	0.504412
O17	O	1.660428	0.522199	0.651825
C18	C	1.422486	0.356671	0.578153
C19	C	1.289086	0.356684	0.578175
C20	C	1.734117	0.549092	0.578137
C21	C	1.734145	0.631406	0.578163
C22	C	1.734358	0.930497	0.578233
C23	C	1.641853	0.899175	0.671211
C24	C	1.641427	0.813557	0.670919
C25	C	1.734252	0.782115	0.578200
C26	C	1.699995	0.813278	0.451713
C27	C	1.699385	0.898923	0.452271
C28	C	1.861328	0.898837	0.610628
C29	C	1.860596	0.813186	0.613400
C30	C	1.734194	0.698255	0.578173
C31	C	1.734413	1.014357	0.578252
C32	C	2.047353	0.356694	0.578185
C33	C	2.180753	0.356699	0.578192
C34	C	1.734402	0.356599	0.891211
C35	C	1.734442	0.356564	1.024611
C36	C	1.734494	1.163520	0.578231
C37	C	1.734465	1.081206	0.578270
C38	C	1.734288	0.356710	0.266344
C39	C	1.734481	0.356537	0.132944
H40	H	1.663067	0.919714	0.765304
O41	O	1.784759	0.926387	0.357390
H42	H	1.734959	0.960425	0.291340
H43	H	1.606571	0.918969	0.424829
O44	O	1.516785	0.786497	0.642465
H45	H	1.456580	0.834584	0.628850
O46	O	1.902691	0.927356	0.730726
H47	H	1.833203	0.964418	0.768670
O48	O	1.786431	0.786305	0.357433
H49	H	1.854883	0.750313	0.399829
O50	O	1.578361	0.784967	0.414700
H51	H	1.542111	0.748711	0.486179
H52	H	1.933172	0.791778	0.550614
O53	O	1.952691	0.925832	0.521129
H54	H	1.907956	0.961603	0.453872
O55	O	1.894841	0.786192	0.736692
H56	H	1.822192	0.750790	0.772759
H57	H	1.548312	0.920764	0.650024
O58	O	1.669725	0.785634	0.795169
H59	H	1.683843	0.833303	0.856006
