data_functionalizedCrystal
_audit_creation_method	'MofGen! by Chris Wilmer'
_symmetry_space_group_name_H-M	'P1'
_symmetry_Int_Tables_number	1
_symmetry_cell_setting	triclinic
loop_
_symmetry_equiv_pos_as_xyz
  x,y,z
_cell_length_a	15.995350
_cell_length_b	19.188930
_cell_length_c	15.072220
_cell_angle_alpha	89.993728
_cell_angle_beta	89.991149
_cell_angle_gamma	83.318578
loop_
_atom_site_label
_atom_site_type_symbol
_atom_site_fract_x
_atom_site_fract_y
_atom_site_fract_z
O1	O	1.110666	0.089991	-0.073718
O2	O	0.866850	0.101105	-0.073737
O3	O	0.995794	-0.006090	-0.073709
O4	O	0.981722	0.197186	-0.073745
O5	O	0.995763	-0.006084	0.073856
O6	O	0.866819	0.101111	0.073828
O7	O	1.110634	0.089997	0.073848
Zn8	Zn	0.988721	0.095555	0.097267
Zn9	Zn	0.988763	0.095547	-0.097156
O10	O	0.981690	0.197192	0.073820
C11	C	0.835641	0.100648	0.000043
C12	C	0.742696	0.099271	0.000037
C13	C	0.404967	0.094324	0.000056
C14	C	0.452680	0.017982	0.000398
C15	C	0.549365	0.019360	0.000059
C16	C	0.572518	0.096778	0.000047
C17	C	0.531311	0.134429	-0.084223
C18	C	0.434683	0.132511	-0.084287
C19	C	0.434302	0.134095	0.083522
C20	C	0.531247	0.134077	0.084629
C21	C	0.667211	0.098169	0.000039
C22	C	0.310274	0.092936	0.000058
C23	C	0.995323	-0.032099	0.000076
C24	C	0.993955	-0.109607	0.000083
C25	C	1.069615	-0.154338	0.000093
C26	C	1.068330	-0.227165	0.000079
C27	C	0.991380	-0.255258	0.000072
C28	C	0.915710	-0.210517	0.000057
C29	C	0.916997	-0.137691	0.000062
N30	N	0.932550	-0.363410	0.050287
N31	N	0.931333	-0.432592	0.050284
C32	C	0.987497	-0.474676	0.000054
N33	N	1.044937	-0.444966	-0.050161
N34	N	1.046158	-0.375779	-0.050154
C35	C	0.989976	-0.334224	0.000066
C36	C	1.061769	-0.598375	0.000048
C37	C	1.060480	-0.671204	0.000028
C38	C	0.907859	-0.654553	0.000015
C39	C	0.909149	-0.581727	0.000025
C40	C	0.986106	-0.553643	0.000046
C41	C	1.141843	0.090454	0.000065
C42	C	1.234789	0.091831	0.000066
C43	C	0.982162	0.223201	0.000033
C44	C	0.983530	0.300709	0.000019
N45	N	0.988699	0.095560	0.229956
N46	N	0.988792	0.095537	-0.229845
C47	C	0.988762	0.095544	0.589157
C48	C	0.919536	0.152710	0.551535
C49	C	0.919693	0.152918	0.448710
C50	C	0.988730	0.095552	0.410953
C51	C	1.076036	0.111464	0.448248
C52	C	1.075648	0.111870	0.551106
C53	C	0.971460	0.022298	0.551269
C54	C	0.969454	0.022787	0.448405
C55	C	0.988717	0.095555	0.310240
C56	C	0.988780	0.095543	0.689871
H57	H	0.402230	0.188560	-0.088121
H58	H	0.577345	-0.010441	-0.060444
N59	N	0.832710	-0.240806	0.000051
H60	H	0.828786	-0.270647	-0.054652
H61	H	0.828810	-0.270619	0.054789
H62	H	0.855384	-0.101270	0.000054
H63	H	0.413844	0.109140	0.147396
N64	N	0.587146	-0.019853	0.080072
H65	H	0.628643	-0.060487	0.059950
H66	H	0.617062	0.012888	0.117966
N67	N	1.144767	-0.568077	0.000066
H68	H	1.192504	-0.607469	0.000063
H69	H	1.148637	-0.538215	-0.054633
H70	H	1.122095	-0.707624	0.000031
N71	N	0.824861	-0.684842	-0.000003
H72	H	0.835524	-0.737765	-0.000008
H73	H	0.791749	-0.668485	0.054699
N74	N	1.038327	-0.034050	0.583512
H75	H	1.011112	-0.070113	0.618729
H76	H	1.069019	-0.057456	0.530908
N77	N	1.149937	-0.275423	0.000088
H78	H	1.198883	-0.246581	0.000101
H79	H	1.152707	-0.306006	0.054792
H80	H	0.559795	0.108273	-0.146930
N81	N	1.145889	0.058809	0.584102
H82	H	1.136959	0.010621	0.561714
H83	H	1.201567	0.071648	0.561583
N84	N	0.391953	0.208650	0.084287
H85	H	0.436104	0.242208	0.082316
H86	H	0.353943	0.216597	0.030855
N87	N	0.934246	0.224954	0.416189
H88	H	0.987167	0.221361	0.379098
H89	H	0.884687	0.245120	0.379060
N90	N	0.549754	0.209766	-0.088403
H91	H	0.526332	0.235626	-0.033823
H92	H	0.612630	0.211140	-0.091126
H93	H	0.558651	0.106592	0.146972
N94	N	0.551314	0.208862	0.091365
H95	H	0.614297	0.209282	0.095120
H96	H	0.529051	0.235911	0.037186
H97	H	1.132280	-0.131477	0.000107
N98	N	1.145892	0.057781	0.415862
H99	H	1.121558	0.022546	0.376606
H100	H	1.187955	0.082105	0.380970
N101	N	0.827546	-0.533472	0.000025
H102	H	0.793972	-0.542500	-0.054680
H103	H	0.794017	-0.542534	0.054761
N104	N	0.428284	-0.022438	0.080453
H105	H	0.386062	0.008342	0.117275
H106	H	0.402506	-0.065364	0.060288
H107	H	0.854788	0.143438	0.423496
N108	N	0.410569	0.096131	-0.167709
H109	H	0.427580	0.122760	-0.221314
H110	H	0.440298	0.046737	-0.169042
H111	H	0.930403	0.206759	0.577365
N112	N	0.833279	0.140367	0.584329
H113	H	0.838234	0.097602	0.623894
H114	H	0.807873	0.182661	0.618991
N115	N	1.096788	0.181413	0.414107
H116	H	1.049763	0.202890	0.374491
H117	H	1.103523	0.213724	0.465853
H118	H	1.090935	0.165288	0.575079
H119	H	0.909194	0.006998	0.577257
N120	N	0.884356	0.006811	0.416182
H121	H	0.858396	0.046534	0.377477
H122	H	0.891194	-0.038167	0.380760
N123	N	1.031935	-0.036204	0.414379
H124	H	1.001199	-0.070681	0.380233
H125	H	1.073789	-0.016448	0.374064
N126	N	0.426875	-0.022271	-0.079177
H127	H	0.384413	0.008731	-0.115448
H128	H	0.478035	-0.037505	-0.116748
