data_functionalizedCrystal
_audit_creation_method	'MofGen! by Chris Wilmer'
_symmetry_space_group_name_H-M	'P1'
_symmetry_Int_Tables_number	1
_symmetry_cell_setting	triclinic
loop_
_symmetry_equiv_pos_as_xyz
  x,y,z
_cell_length_a	17.038272
_cell_length_b	19.188930
_cell_length_c	15.500227
_cell_angle_alpha	92.813384
_cell_angle_beta	86.956295
_cell_angle_gamma	87.128169
loop_
_atom_site_label
_atom_site_type_symbol
_atom_site_fract_x
_atom_site_fract_y
_atom_site_fract_z
O1	O	1.040536	0.148564	-0.071852
O2	O	0.812914	0.146156	-0.071877
O3	O	0.933292	0.046114	-0.071847
O4	O	0.920157	0.248607	-0.071882
O5	O	0.925988	0.052159	0.072040
O6	O	0.805609	0.152202	0.072009
O7	O	1.033231	0.154610	0.072035
Cu8	Cu	0.918753	0.153958	0.085160
Cu9	Cu	0.927392	0.146808	-0.085003
O10	O	0.912852	0.254653	0.072004
C11	C	0.780140	0.146990	0.000063
C12	C	0.693368	0.140458	0.000054
C13	C	0.643067	0.200424	0.000044
C14	C	0.561535	0.194283	0.000057
C15	C	0.530306	0.128176	0.000074
C16	C	0.580613	0.068205	0.000086
C17	C	0.662143	0.074347	0.000080
C18	C	0.284614	0.106479	0.000101
C19	C	0.203078	0.100342	0.000105
C20	C	0.184005	0.226421	0.000078
C21	C	0.265538	0.232556	0.000066
C22	C	0.315838	0.172586	0.000083
C23	C	0.446967	0.121897	0.000085
C24	C	0.399174	0.178865	0.000078
C25	C	0.929214	0.023099	0.000099
C26	C	0.927937	-0.054485	0.000106
C27	C	0.998572	-0.095020	0.000118
C28	C	0.997373	-0.167919	0.000104
C29	C	0.925534	-0.200279	0.000095
C30	C	0.854890	-0.159734	0.000079
C31	C	0.856092	-0.086837	0.000084
N32	N	0.868136	-0.309638	0.049057
N33	N	0.866999	-0.378887	0.049053
C34	C	0.921909	-0.419913	0.000077
N35	N	0.978011	-0.389074	-0.048884
N36	N	0.979150	-0.319818	-0.048877
C37	C	0.924223	-0.279323	0.000089
C38	C	0.991249	-0.539494	0.000073
C39	C	0.990047	-0.612395	0.000054
C40	C	0.847562	-0.604208	0.000037
C41	C	0.848767	-0.531310	0.000048
C42	C	0.920612	-0.498957	0.000070
C43	C	1.066004	0.153776	0.000092
C44	C	1.152777	0.160308	0.000095
C45	C	0.916930	0.277667	0.000057
C46	C	0.918208	0.355250	0.000044
N47	N	0.912682	0.158986	0.204843
N48	N	0.933468	0.141775	-0.204686
C49	C	0.963709	0.116612	0.250133
C50	C	0.959125	0.120422	0.340705
C51	C	0.903518	0.166610	0.385985
C52	C	0.852486	0.208985	0.340689
C53	C	0.857067	0.205171	0.250119
C54	C	0.887017	0.180337	0.659448
C55	C	0.882442	0.184149	0.750024
C56	C	0.989080	0.095584	0.750033
C57	C	0.993659	0.091778	0.659461
C58	C	0.942624	0.134150	0.614174
C59	C	0.898833	0.170506	0.478564
C60	C	0.947306	0.130250	0.521596
H61	H	0.703099	0.025516	0.000087
H62	H	0.845464	0.214840	0.622582
H63	H	0.143042	0.275245	0.000066
Br64	Br	0.823367	0.233189	0.540020
H65	H	0.325559	0.057647	0.000115
Br66	Br	1.069128	0.029097	0.598008
Br67	Br	0.493271	0.275670	0.000041
H68	H	1.030629	0.061085	0.786915
H69	H	0.798571	-0.053833	0.000074
Br70	Br	1.085918	-0.667409	0.000061
Br71	Br	0.685441	0.290145	0.000013
Br72	Br	0.404578	0.032182	0.000106
Br73	Br	1.088750	-0.495582	0.000112
Br74	Br	1.028373	0.062911	0.402172
H75	H	0.290958	0.286387	0.000042
H76	H	0.424604	0.232690	0.000070
H77	H	0.837158	0.221763	0.786888
Br78	Br	0.160696	0.010619	0.000146
Br79	Br	0.777012	0.271665	0.402138
Br80	Br	0.752900	-0.476294	0.000032
Br81	Br	1.093241	-0.222942	0.000116
Br82	Br	0.750065	-0.648118	0.000017
Br83	Br	0.787809	0.262677	0.188655
Br84	Br	1.039185	0.053931	0.188690
Br85	Br	0.538232	-0.021513	0.000117
Br86	Br	0.757395	-0.203650	0.000056
H87	H	1.057074	-0.068683	0.000133
H88	H	0.992579	0.092641	0.484726
