data_functionalizedCrystal
_audit_creation_method	'MofGen! by Chris Wilmer'
_symmetry_space_group_name_H-M	'P1'
_symmetry_Int_Tables_number	1
_symmetry_cell_setting	triclinic
loop_
_symmetry_equiv_pos_as_xyz
  x,y,z
_cell_length_a	21.295417
_cell_length_b	19.077269
_cell_length_c	21.295411
_cell_angle_alpha	92.275197
_cell_angle_beta	89.978356
_cell_angle_gamma	87.733796
loop_
_atom_site_label
_atom_site_type_symbol
_atom_site_fract_x
_atom_site_fract_y
_atom_site_fract_z
Zn1	Zn	-0.289322	1.075941	-0.317219
Zn2	Zn	0.210678	1.575941	0.182781
Zn3	Zn	-0.394570	1.075832	-0.211949
Zn4	Zn	0.105430	1.575832	0.288051
Zn5	Zn	-0.285095	0.958239	-0.216197
Zn6	Zn	0.214905	1.458239	0.283803
Zn7	Zn	-0.390329	0.958204	-0.321410
Zn8	Zn	0.109671	1.458204	0.178590
O9	O	-0.339829	1.017054	-0.266694
O10	O	0.160171	1.517054	0.233306
O11	O	-0.306827	1.174413	-0.299723
O12	O	0.193173	1.674413	0.200277
O13	O	-0.380054	1.060202	-0.124424
O14	O	0.119946	1.560202	0.375576
O15	O	-0.197568	0.973912	-0.229622
O16	O	0.302432	1.473912	0.270378
O17	O	-0.384152	1.174333	-0.222381
O18	O	0.115848	1.674333	0.277619
O19	O	-0.200674	1.060388	-0.303843
O20	O	0.299326	1.560388	0.196157
O21	O	-0.299623	0.973806	-0.127545
O22	O	0.200377	1.473806	0.372455
O23	O	-0.295511	0.859748	-0.233686
O24	O	0.204489	1.359748	0.266314
O25	O	-0.376924	0.973854	-0.408943
O26	O	0.123076	1.473854	0.091057
O27	O	-0.372825	0.859722	-0.310986
O28	O	0.127175	1.359722	0.189014
O29	O	-0.302714	1.060354	-0.405864
O30	O	0.197286	1.560354	0.094136
O31	O	-0.482094	1.060168	-0.226445
O32	O	0.017906	1.560168	0.273555
O33	O	-0.478978	0.973748	-0.306866
O34	O	0.021022	1.473748	0.193134
C35	C	-0.333250	0.834199	-0.273252
C36	C	0.166750	1.334199	0.226748
C37	C	-0.330450	0.755972	-0.276072
C38	C	0.169550	1.255972	0.223928
C39	C	-0.369329	0.719177	-0.237070
C40	C	0.130671	1.219177	0.262930
C41	C	-0.366699	0.645675	-0.239728
C42	C	0.133301	1.145675	0.260272
C43	C	-0.325186	0.608970	-0.281386
C44	C	0.174814	1.108970	0.218614
C45	C	-0.286306	0.645770	-0.320393
C46	C	0.213694	1.145770	0.179607
C47	C	-0.288940	0.719271	-0.317738
C48	C	0.211060	1.219271	0.182262
C49	C	-0.313002	0.389151	-0.293657
C50	C	0.186998	0.889151	0.206343
C51	C	-0.310370	0.315645	-0.296308
C52	C	0.189630	0.815645	0.203692
C53	C	-0.390764	0.315555	-0.215643
C54	C	0.109236	0.815555	0.284357
C55	C	-0.393391	0.389057	-0.212989
C56	C	0.106609	0.889057	0.287011
C57	C	-0.354513	0.425851	-0.251998
C58	C	0.145487	0.925851	0.248002
N59	N	-0.322496	0.533839	-0.284103
N60	N	0.177504	1.033839	0.215897
N61	N	-0.357208	0.500980	-0.249284
N62	N	0.142792	1.000980	0.250716
C63	C	-0.503377	1.016962	-0.266662
C64	C	-0.003377	1.516962	0.233338
C65	C	-0.573346	1.016987	-0.266668
C66	C	-0.073346	1.516987	0.233332
C67	C	-0.607816	1.062026	-0.224832
C68	C	-0.107816	1.562026	0.275168
C69	C	-0.673559	1.062059	-0.224845
C70	C	-0.173559	1.562059	0.275155
C71	C	-0.704830	1.017040	-0.266687
C72	C	-0.204830	1.517040	0.233313
C73	C	-0.670353	0.971998	-0.308531
C74	C	-0.170353	1.471998	0.191469
C75	C	-0.604611	0.971971	-0.308521
C76	C	-0.104611	1.471971	0.191479
N77	N	-0.805886	0.955473	-0.273694
N78	N	-0.305886	1.455473	0.226306
N79	N	-0.868338	0.955501	-0.273700
N80	N	-0.368338	1.455501	0.226300
C81	C	-0.902908	1.017119	-0.266721
C82	C	-0.402908	1.517119	0.233279
N83	N	-0.872666	1.078710	-0.259723
N84	N	-0.372666	1.578710	0.240277
N85	N	-0.810208	1.078682	-0.259714
N86	N	-0.310208	1.578682	0.240286
C87	C	-0.776117	1.017064	-0.266703
C88	C	-0.276117	1.517064	0.233297
C89	C	-1.008665	1.062198	-0.224897
C90	C	-0.508665	1.562198	0.275103
C91	C	-1.074409	1.062232	-0.224914
C92	C	-0.574409	1.562232	0.275086
C93	C	-1.071201	0.972164	-0.308597
C94	C	-0.571201	1.472164	0.191403
C95	C	-1.005458	0.972137	-0.308583
C96	C	-0.505458	1.472137	0.191417
C97	C	-0.974193	1.017152	-0.266729
C98	C	-0.474193	1.517152	0.233271
C99	C	-0.175642	1.017166	-0.266739
C100	C	0.324358	1.517166	0.233261
C101	C	-0.105676	1.017213	-0.266758
C102	C	0.394324	1.517213	0.233242
C103	C	-0.339818	1.017112	-0.430882
C104	C	0.160182	1.517112	0.069118
C105	C	-0.339813	1.017137	-0.500849
C106	C	0.160187	1.517137	-0.000849
C107	C	-0.346434	1.200623	-0.260111
C108	C	0.153566	1.700623	0.239889
C109	C	-0.349249	1.278850	-0.257305
C110	C	0.150751	1.778850	0.242695
C111	C	-0.301170	1.062176	-0.532114
C112	C	0.198830	1.562176	-0.032114
C113	C	-0.301143	1.062175	-0.597856
C114	C	0.198857	1.562175	-0.097856
C115	C	-0.339770	1.017143	-0.632332
C116	C	0.160230	1.517143	-0.132332
C117	C	-0.378415	0.972095	-0.601060
C118	C	0.121585	1.472095	-0.101060
C119	C	-0.378436	0.972092	-0.535319
C120	C	0.121564	1.472092	-0.035319
N121	N	-0.394642	1.011713	-0.735742
N122	N	0.105358	1.511713	-0.235742
N123	N	-0.394620	1.011719	-0.798194
N124	N	0.105380	1.511719	-0.298194
C125	C	-0.339706	1.017147	-0.830406
C126	C	0.160294	1.517147	-0.330406
N127	N	-0.284814	1.022582	-0.797808
N128	N	0.215186	1.522582	-0.297808
N129	N	-0.284837	1.022579	-0.735351
N130	N	0.215163	1.522579	-0.235351
C131	C	-0.339750	1.017140	-0.703617
C132	C	0.160250	1.517140	-0.203617
C133	C	-0.301030	1.062187	-0.932956
C134	C	0.198970	1.562187	-0.432956
C135	C	-0.301002	1.062182	-0.998700
C136	C	0.198998	1.562182	-0.498700
C137	C	-0.378280	0.972105	-1.001902
C138	C	0.121720	1.472105	-0.501902
C139	C	-0.378302	0.972107	-0.936160
C140	C	0.121698	1.472107	-0.436160
C141	C	-0.339679	1.017152	-0.901691
C142	C	0.160321	1.517152	-0.401691
C143	C	-0.339796	1.017036	-0.103143
C144	C	0.160204	1.517036	0.396857
C145	C	-0.339628	1.017148	-0.033171
C146	C	0.160372	1.517148	0.466829
H147	H	-0.281346	0.419100	-0.325421
H148	H	0.218654	0.919100	0.174579
H149	H	-0.257281	0.749229	-0.349497
H150	H	0.242719	1.249229	0.150503
H151	H	-0.582362	1.098682	-0.190754
H152	H	-0.082362	1.598682	0.309246
O153	O	-0.259512	1.110758	-0.494937
O154	O	0.240488	1.610758	0.005063
H155	H	-0.209669	1.098722	-0.507982
H156	H	0.290331	1.598722	-0.007982
H157	H	-0.409773	0.935436	-0.910704
H158	H	0.090227	1.435436	-0.410704
O159	O	-0.414102	0.758765	-0.192137
O160	O	0.085898	1.258765	0.307863
H161	H	-0.440698	0.720827	-0.165467
H162	H	0.059302	1.220827	0.334533
O163	O	-0.259468	1.110760	-0.631590
O164	O	0.240532	1.610760	-0.131590
H165	H	-0.232619	1.142085	-0.596576
H166	H	0.267381	1.642085	-0.096576
H167	H	-0.398358	0.615719	-0.207968
H168	H	0.101642	1.115719	0.292032
O169	O	-0.265591	0.276051	-0.341238
O170	O	0.234409	0.776051	0.158762
H171	H	-0.292613	0.242562	-0.374413
H172	H	0.207387	0.742562	0.125587
H173	H	-0.576545	0.935294	-0.342589
H174	H	-0.076545	1.435294	0.157411
H175	H	-0.427194	0.418937	-0.179065
H176	H	0.072806	0.918937	0.320935
H177	H	-0.701630	1.098737	-0.190778
H178	H	-0.201630	1.598737	0.309222
H179	H	-0.409863	0.935427	-0.629134
H180	H	0.090137	1.435427	-0.129134
O181	O	-0.420102	0.923498	-0.501592
O182	O	0.079898	1.423498	-0.001592
H183	H	-0.446954	0.892177	-0.536607
H184	H	0.053046	1.392177	-0.036607
O185	O	-0.968280	0.923538	-0.353694
O186	O	-0.468280	1.423538	0.146306
H187	H	-0.981296	0.935574	-0.402680
H188	H	-0.481296	1.435574	0.097320
O189	O	-0.432698	0.275872	-0.173574
O190	O	0.067302	0.775872	0.326426
H191	H	-0.423898	0.218595	-0.182420
H192	H	0.076102	0.718595	0.317580
O193	O	-0.704075	0.923432	-0.353656
O194	O	-0.204075	1.423432	0.146344
H195	H	-0.755581	0.931009	-0.346628
H196	H	-0.255581	1.431009	0.153372
O197	O	-0.241526	0.606187	-0.365322
O198	O	0.258474	1.106187	0.134678
H199	H	-0.246219	0.548895	-0.360610
H200	H	0.253781	1.048895	0.139390
O201	O	-0.259322	1.110763	-1.032426
O202	O	0.240678	1.610763	-0.532426
H203	H	-0.232475	1.142087	-0.997410
H204	H	0.267525	1.642087	-0.497410
O205	O	-0.974936	1.110756	-0.179767
O206	O	-0.474936	1.610756	0.320233
H207	H	-1.009953	1.142090	-0.150685
H208	H	-0.509953	1.642090	0.349315
O209	O	-1.111593	1.110811	-0.179789
O210	O	-0.611593	1.610811	0.320211
H211	H	-1.078805	1.142100	-0.150682
H212	H	-0.578805	1.642100	0.349318
O213	O	-1.104918	0.923603	-0.353726
O214	O	-0.604918	1.423603	0.146274
H215	H	-1.156425	0.931184	-0.346703
H216	H	-0.656425	1.431184	0.153297
O217	O	-0.259368	1.110760	-0.895772
O218	O	0.240632	1.610760	-0.395772
H219	H	-0.232483	1.142071	-0.928560
H220	H	0.267517	1.642071	-0.428560
O221	O	-0.419943	0.923531	-1.039076
O222	O	0.080057	1.423531	-0.539076
H223	H	-0.413439	0.931101	-1.090043
H224	H	0.086561	1.431101	-0.590043
