data_functionalizedCrystal
_audit_creation_method	'MofGen! by Chris Wilmer'
_symmetry_space_group_name_H-M	'P1'
_symmetry_Int_Tables_number	1
_symmetry_cell_setting	triclinic
loop_
_symmetry_equiv_pos_as_xyz
  x,y,z
_cell_length_a	11.792254
_cell_length_b	11.792254
_cell_length_c	15.186229
_cell_angle_alpha	89.996078
_cell_angle_beta	89.996693
_cell_angle_gamma	84.198598
loop_
_atom_site_label
_atom_site_type_symbol
_atom_site_fract_x
_atom_site_fract_y
_atom_site_fract_z
O1	O	1.506906	0.155634	-0.073228
O2	O	1.756906	0.405634	0.176772
O3	O	2.006906	0.655634	0.426772
O4	O	2.256906	0.905634	0.676772
O5	O	1.176567	0.171652	-0.073230
O6	O	1.426567	0.421652	0.176770
O7	O	1.676567	0.671652	0.426770
O8	O	1.926567	0.921652	0.676770
O9	O	1.349745	-0.001526	-0.073223
O10	O	1.599745	0.248474	0.176777
O11	O	1.849745	0.498474	0.426777
O12	O	2.099745	0.748474	0.676777
O13	O	1.333727	0.328812	-0.073236
O14	O	1.583727	0.578812	0.176764
O15	O	1.833727	0.828812	0.426764
O16	O	2.083727	1.078812	0.676764
O17	O	1.349734	-0.001529	0.073234
O18	O	1.599734	0.248471	0.323234
O19	O	1.849734	0.498471	0.573234
O20	O	2.099734	0.748471	0.823234
O21	O	1.176555	0.171649	0.073227
O22	O	1.426555	0.421649	0.323227
O23	O	1.676555	0.671649	0.573227
O24	O	1.926555	0.921649	0.823227
O25	O	1.506894	0.155631	0.073229
O26	O	1.756894	0.405631	0.323229
O27	O	2.006894	0.655631	0.573229
O28	O	2.256894	0.905631	0.823229
Zn29	Zn	1.341723	0.163640	0.096481
Zn30	Zn	1.591723	0.413640	0.346481
Zn31	Zn	1.841723	0.663640	0.596481
Zn32	Zn	2.091723	0.913640	0.846481
Zn33	Zn	1.341738	0.163643	-0.096483
Zn34	Zn	1.591738	0.413643	0.153517
Zn35	Zn	1.841738	0.663643	0.403517
Zn36	Zn	2.091738	0.913643	0.653517
O37	O	1.333716	0.328810	0.073222
O38	O	1.583716	0.578810	0.323222
O39	O	1.833716	0.828810	0.573222
O40	O	2.083716	1.078810	0.823222
C41	C	1.134271	0.170642	-0.000002
C42	C	1.384271	0.420642	0.249998
C43	C	1.634271	0.670642	0.499998
C44	C	1.884271	0.920642	0.749998
C45	C	1.008257	0.167621	-0.000002
C46	C	1.258257	0.417621	0.249998
C47	C	1.508257	0.667621	0.499998
C48	C	1.758257	0.917621	0.749998
C49	C	1.348730	-0.043818	0.000005
C50	C	1.598730	0.206182	0.250005
C51	C	1.848730	0.456182	0.500005
C52	C	2.098730	0.706182	0.750005
C53	C	1.345710	-0.169832	0.000005
C54	C	1.595710	0.080168	0.250005
C55	C	1.845710	0.330168	0.500005
C56	C	2.095710	0.580168	0.750005
C57	C	0.905921	0.165168	-0.000006
C58	C	1.155921	0.415168	0.249994
C59	C	1.405921	0.665168	0.499994
C60	C	1.655921	0.915168	0.749994
C61	C	0.777534	0.162099	-0.000007
C62	C	1.027534	0.412099	0.249993
C63	C	1.277534	0.662099	0.499993
C64	C	1.527534	0.912099	0.749993
C65	C	1.343256	-0.272168	0.000001
C66	C	1.593256	-0.022168	0.250001
C67	C	1.843256	0.227832	0.500001
C68	C	2.093256	0.477832	0.750001
C69	C	1.340188	-0.400555	-0.000007
C70	C	1.590188	-0.150555	0.249993
C71	C	1.840188	0.099445	0.499993
C72	C	2.090188	0.349445	0.749993
C73	C	1.549190	0.156642	-0.000001
C74	C	1.799190	0.406642	0.249999
C75	C	2.049190	0.656642	0.499999
C76	C	2.299190	0.906642	0.749999
C77	C	1.675204	0.159662	-0.000007
C78	C	1.925204	0.409662	0.249993
C79	C	2.175204	0.659662	0.499993
C80	C	2.425204	0.909662	0.749993
C81	C	1.334731	0.371102	-0.000009
C82	C	1.584731	0.621102	0.249991
C83	C	1.834731	0.871102	0.499991
C84	C	2.084731	1.121102	0.749991
C85	C	1.337751	0.497115	-0.000014
C86	C	1.587751	0.747115	0.249986
C87	C	1.837751	0.997115	0.499986
C88	C	2.087751	1.247115	0.749986
N89	N	1.341721	0.163637	0.228174
N90	N	1.591721	0.413637	0.478174
N91	N	1.841721	0.663637	0.728174
N92	N	2.091721	0.913637	0.978174
N93	N	1.341749	0.163637	-0.228175
N94	N	1.591749	0.413637	0.021825
N95	N	1.841749	0.663637	0.271825
N96	N	2.091749	0.913637	0.521825
C97	C	1.418430	0.086980	0.453900
C98	C	1.668430	0.336980	0.703900
C99	C	1.918430	0.586980	0.953900
C100	C	2.168430	0.836980	1.203900
C101	C	1.418434	0.086977	0.546090
C102	C	1.668434	0.336977	0.796090
C103	C	1.918434	0.586977	1.046090
C104	C	2.168434	0.836977	1.296090
C105	C	1.265031	0.240298	0.546092
C106	C	1.515031	0.490298	0.796092
C107	C	1.765031	0.740298	1.046092
C108	C	2.015031	0.990298	1.296092
C109	C	1.265023	0.240294	0.453904
C110	C	1.515023	0.490294	0.703904
C111	C	1.765023	0.740294	0.953904
C112	C	2.015023	0.990294	1.203904
C113	C	1.341729	0.163637	0.407811
C114	C	1.591729	0.413637	0.657811
C115	C	1.841729	0.663637	0.907811
C116	C	2.091729	0.913637	1.157811
C117	C	1.341741	0.163638	0.592188
C118	C	1.591741	0.413638	0.842188
C119	C	1.841741	0.663638	1.092188
C120	C	2.091741	0.913638	1.342188
C121	C	1.341744	0.163635	0.692144
C122	C	1.591744	0.413635	0.942144
C123	C	1.841744	0.663635	1.192144
C124	C	2.091744	0.913635	1.442144
C125	C	1.341725	0.163637	0.307848
C126	C	1.591725	0.413637	0.557848
C127	C	1.841725	0.663637	0.807848
C128	C	2.091725	0.913637	1.057848
H129	H	1.480887	0.024559	0.416373
H130	H	1.730887	0.274559	0.666373
H131	H	1.980887	0.524559	0.916373
H132	H	2.230887	0.774559	1.166373
N133	N	1.182319	0.322989	0.595811
N134	N	1.432319	0.572989	0.845811
N135	N	1.682319	0.822989	1.095811
N136	N	1.932319	1.072989	1.345811
H137	H	1.133727	0.371550	0.552622
H138	H	1.383727	0.621550	0.802622
H139	H	1.633727	0.871550	1.052622
H140	H	1.883727	1.121550	1.302622
H141	H	1.131878	0.279203	0.634072
H142	H	1.381878	0.529203	0.884072
H143	H	1.631878	0.779203	1.134072
H144	H	1.881878	1.029203	1.384072
N145	N	1.182281	0.322976	0.404193
N146	N	1.432281	0.572976	0.654193
N147	N	1.682281	0.822976	0.904193
N148	N	1.932281	1.072976	1.154193
H149	H	1.195846	0.403624	0.420225
H150	H	1.445846	0.653624	0.670225
H151	H	1.695846	0.903624	0.920225
H152	H	1.945846	1.153624	1.170225
H153	H	1.193949	0.311240	0.338814
H154	H	1.443949	0.561240	0.588814
H155	H	1.693949	0.811240	0.838814
H156	H	1.943949	1.061240	1.088814
H157	H	1.480889	0.024555	0.583613
H158	H	1.730889	0.274555	0.833613
H159	H	1.980889	0.524555	1.083613
H160	H	2.230889	0.774555	1.333613
