data_functionalizedCrystal
_audit_creation_method	'MofGen! by Chris Wilmer'
_symmetry_space_group_name_H-M	'P1'
_symmetry_Int_Tables_number	1
_symmetry_cell_setting	triclinic
loop_
_symmetry_equiv_pos_as_xyz
  x,y,z
_cell_length_a	21.395364
_cell_length_b	25.639240
_cell_length_c	21.395355
_cell_angle_alpha	89.973484
_cell_angle_beta	89.975448
_cell_angle_gamma	90.047709
loop_
_atom_site_label
_atom_site_type_symbol
_atom_site_fract_x
_atom_site_fract_y
_atom_site_fract_z
Zn1	Zn	0.957850	-0.208003	-0.354227
Zn2	Zn	1.457850	0.291997	0.145773
Zn3	Zn	0.957749	-0.295422	-0.249435
Zn4	Zn	1.457749	0.204578	0.250565
Zn5	Zn	0.853065	-0.208026	-0.249463
Zn6	Zn	1.353065	0.291974	0.250537
Zn7	Zn	0.853031	-0.295432	-0.354175
Zn8	Zn	1.353031	0.204568	0.145825
O9	O	0.905424	-0.251721	-0.301825
O10	O	1.405424	0.248279	0.198175
O11	O	1.045515	-0.219586	-0.340335
O12	O	1.545515	0.280414	0.159665
O13	O	0.943835	-0.283835	-0.161760
O14	O	1.443835	0.216165	0.338240
O15	O	0.867022	-0.134857	-0.263394
O16	O	1.367022	0.365143	0.236606
O17	O	1.045440	-0.283813	-0.263345
O18	O	1.545440	0.216187	0.236655
O19	O	0.944007	-0.134841	-0.340363
O20	O	1.444007	0.365159	0.159637
O21	O	0.866924	-0.219625	-0.161782
O22	O	1.366924	0.280375	0.338218
O23	O	0.765383	-0.219634	-0.263344
O24	O	1.265383	0.280366	0.236656
O25	O	0.866963	-0.283828	-0.441860
O26	O	1.366963	0.216172	0.058140
O27	O	0.765357	-0.283851	-0.340275
O28	O	1.265357	0.216149	0.159725
O29	O	0.943974	-0.219595	-0.441898
O30	O	1.443974	0.280405	0.058102
O31	O	0.943801	-0.368589	-0.263295
O32	O	1.443801	0.131411	0.236705
O33	O	0.866865	-0.368596	-0.340247
O34	O	1.366865	0.131404	0.159753
C35	C	0.742636	-0.251746	-0.301807
C36	C	1.242636	0.248254	0.198193
C37	C	0.672995	-0.251770	-0.301815
C38	C	1.172995	0.248230	0.198185
C39	C	0.640343	-0.218381	-0.341965
C40	C	1.140343	0.281619	0.158035
C41	C	0.574907	-0.218368	-0.341968
C42	C	1.074907	0.281632	0.158032
C43	C	0.542127	-0.251751	-0.301826
C44	C	1.042127	0.248249	0.198174
C45	C	0.574787	-0.285142	-0.261667
C46	C	1.074787	0.214858	0.238333
C47	C	0.640221	-0.285151	-0.261662
C48	C	1.140221	0.214849	0.238338
C49	C	0.438400	-0.298836	-0.296781
C50	C	0.938400	0.201164	0.203219
C51	C	0.372967	-0.298828	-0.296791
C52	C	0.872967	0.201172	0.203209
C53	C	0.340306	-0.251722	-0.301840
C54	C	0.840306	0.248278	0.198160
C55	C	0.373086	-0.204624	-0.306892
C56	C	0.873086	0.295376	0.193108
C57	C	0.438520	-0.204633	-0.306887
C58	C	0.938520	0.295367	0.193113
C59	C	0.471174	-0.251745	-0.301827
C60	C	0.971174	0.248255	0.198173
C61	C	0.236701	-0.218316	-0.341995
C62	C	0.736701	0.281684	0.158005
C63	C	0.171265	-0.218301	-0.341994
C64	C	0.671265	0.281699	0.158006
C65	C	0.171145	-0.285080	-0.261696
C66	C	0.671145	0.214920	0.238304
C67	C	0.236580	-0.285090	-0.261695
C68	C	0.736580	0.214910	0.238305
C69	C	0.269355	-0.251709	-0.301848
C70	C	0.769355	0.248291	0.198152
C71	C	0.905335	-0.387563	-0.301776
C72	C	1.405335	0.112437	0.198224
C73	C	0.905355	-0.445677	-0.301776
C74	C	1.405355	0.054323	0.198224
C75	C	0.945530	-0.805993	-0.341975
C76	C	1.445530	-0.305993	0.158025
C77	C	0.945548	-0.860597	-0.341988
C78	C	1.445548	-0.360597	0.158012
O79	O	0.979601	-0.888794	-0.376116
O80	O	1.479601	-0.388794	0.123884
N81	N	0.905511	-0.887960	-0.301885
N82	N	1.405511	-0.387960	0.198115
C83	C	0.865448	-0.860715	-0.261772
C84	C	1.365448	-0.360715	0.238228
O85	O	0.831394	-0.889003	-0.227664
O86	O	1.331394	-0.389003	0.272336
C87	C	0.865426	-0.806112	-0.261763
C88	C	1.365426	-0.306112	0.238237
C89	C	0.905471	-0.778752	-0.301864
C90	C	1.405471	-0.278752	0.198136
C91	C	0.985571	-0.778634	-0.382073
C92	C	1.485571	-0.278634	0.117927
C93	C	0.985553	-0.724033	-0.382059
C94	C	1.485553	-0.224033	0.117941
C95	C	0.945494	-0.696792	-0.341948
C96	C	1.445494	-0.196792	0.158052
C97	C	0.905453	-0.724152	-0.301850
C98	C	1.405453	-0.224152	0.198150
C99	C	0.825361	-0.778868	-0.221654
C100	C	1.325361	-0.278868	0.278346
C101	C	0.825342	-0.724261	-0.221648
C102	C	1.325342	-0.224261	0.278352
C103	C	0.865387	-0.696901	-0.261749
C104	C	1.365387	-0.196901	0.238251
C105	C	0.865377	-0.642310	-0.261725
C106	C	1.365377	-0.142310	0.238275
N107	N	0.905414	-0.614948	-0.301827
N108	N	1.405414	-0.114948	0.198173
C109	C	0.945473	-0.642189	-0.341938
C110	C	1.445473	-0.142189	0.158062
C111	C	0.865494	-0.975385	-0.261795
C112	C	1.365494	-0.475385	0.238205
C113	C	0.865518	-1.029988	-0.261801
C114	C	1.365518	-0.529988	0.238199
C115	C	0.945618	-1.029867	-0.342017
C116	C	1.445618	-0.529867	0.157983
C117	C	0.945597	-0.975263	-0.342008
C118	C	1.445597	-0.475263	0.157992
C119	C	0.905532	-0.948023	-0.301897
C120	C	1.405532	-0.448023	0.198103
C121	C	0.945433	-0.527524	-0.341906
C122	C	1.445433	-0.027524	0.158094
C123	C	0.945413	-0.472918	-0.341887
C124	C	1.445413	0.027082	0.158113
C125	C	0.865311	-0.473044	-0.261673
C126	C	1.365311	0.026956	0.238327
C127	C	0.865333	-0.527645	-0.261690
C128	C	1.365333	-0.027645	0.238310
C129	C	0.905396	-0.554883	-0.301811
C130	C	1.405396	-0.054883	0.198189
O131	O	0.831339	-0.614079	-0.227616
O132	O	1.331339	-0.114079	0.272384
O133	O	0.979515	-0.613894	-0.376047
O134	O	1.479515	-0.113894	0.123953
C135	C	1.068847	-0.251696	-0.301843
C136	C	1.568847	0.248304	0.198157
C137	C	1.138488	-0.251685	-0.301851
C138	C	1.638488	0.248315	0.198149
C139	C	0.905476	-0.251710	-0.465248
C140	C	1.405476	0.248290	0.034752
C141	C	0.905498	-0.251706	-0.534889
C142	C	1.405498	0.248294	-0.034889
C143	C	0.905530	-0.115348	-0.301888
C144	C	1.405530	0.384652	0.198112
C145	C	0.905575	-0.057234	-0.301915
C146	C	1.405575	0.442766	0.198085
C147	C	0.945596	-0.218258	-0.567623
C148	C	1.445596	0.281742	-0.067623
C149	C	0.945595	-0.218235	-0.633059
C150	C	1.445595	0.281765	-0.133059
C151	C	0.905503	-0.251670	-0.665758
C152	C	1.405503	0.248330	-0.165758
C153	C	0.865397	-0.285120	-0.633016
C154	C	1.365397	0.214880	-0.133016
C155	C	0.865395	-0.285138	-0.567582
C156	C	1.365395	0.214862	-0.067582
C157	C	0.900525	-0.298748	-0.769416
C158	C	1.400525	0.201252	-0.269416
C159	C	0.900532	-0.298731	-0.834849
C160	C	1.400532	0.201269	-0.334849
C161	C	0.905507	-0.251615	-0.867579
C162	C	1.405507	0.248385	-0.367579
C163	C	0.910488	-0.204513	-0.834868
C164	C	1.410488	0.295487	-0.334868
C165	C	0.910486	-0.204531	-0.769434
C166	C	1.410486	0.295469	-0.269434
C167	C	0.905501	-0.251654	-0.736710
C168	C	1.405501	0.248346	-0.236710
C169	C	0.945606	-0.218140	-0.971265
C170	C	1.445606	0.281860	-0.471265
C171	C	0.945600	-0.218116	-1.036702
C172	C	1.445600	0.281884	-0.536702
C173	C	0.865406	-0.285006	-1.036658
C174	C	1.365406	0.214994	-0.536658
C175	C	0.865408	-0.285025	-0.971222
C176	C	1.365408	0.214975	-0.471222
C177	C	0.905511	-0.251592	-0.938530
C178	C	1.405511	0.248408	-0.438530
C179	C	0.905408	-0.251694	-0.139037
C180	C	1.405408	0.248306	0.360963
C181	C	0.905507	-0.251551	-0.069396
C182	C	1.405507	0.248449	0.430604
H183	H	0.346494	-0.166266	-0.311004
H184	H	0.846494	0.333734	0.188996
Br185	Br	0.810988	-0.330422	-0.926794
Br186	Br	1.310988	0.169578	-0.426794
H187	H	0.464988	-0.337198	-0.292668
H188	H	0.964988	0.162802	0.207332
Br189	Br	1.000027	-0.172767	-0.926893
Br190	Br	1.500027	0.327233	-0.426893
H191	H	0.832756	-0.312224	-1.063281
H192	H	1.332756	0.187776	-0.563281
H193	H	0.978205	-0.952990	-0.374662
H194	H	1.478205	-0.452990	0.125338
H195	H	0.263388	-0.191132	-0.374686
H196	H	0.763388	0.308868	0.125314
Br197	Br	0.893780	-0.362654	-0.879235
Br198	Br	1.393780	0.137346	-0.379235
H199	H	0.548092	-0.312322	-0.228983
H200	H	1.048092	0.187678	0.271017
Br201	Br	1.000033	-0.172726	-1.081128
Br202	Br	1.500033	0.327274	-0.581128
H203	H	0.144681	-0.191110	-0.374688
H204	H	0.644681	0.308890	0.125312
H205	H	0.666806	-0.312340	-0.228965
H206	H	1.166806	0.187660	0.271035
Br207	Br	0.810971	-0.330534	-0.523154
Br208	Br	1.310971	0.169466	-0.023154
H209	H	1.018191	-0.800807	-0.414740
H210	H	1.518191	-0.300807	0.085260
H211	H	1.018159	-0.701760	-0.414714
H212	H	1.518159	-0.201760	0.085286
Br213	Br	0.811180	-1.067112	-0.207366
Br214	Br	1.311180	-0.567112	0.292634
H215	H	0.832870	-0.953209	-0.229127
H216	H	1.332870	-0.453209	0.270873
H217	H	0.914540	-0.166180	-0.742803
H218	H	1.414540	0.333820	-0.242803
H219	H	0.667024	-0.191199	-0.374661
H220	H	1.167024	0.308801	0.125339
H221	H	0.832730	-0.549922	-0.229032
H222	H	1.332730	-0.049922	0.270968
H223	H	0.896306	-0.337107	-0.742772
H224	H	1.396306	0.162893	-0.242772
H225	H	0.978246	-0.190995	-0.659716
H226	H	1.478246	0.309005	-0.159716
H227	H	0.978235	-1.052056	-0.374679
H228	H	1.478235	-0.552056	0.125321
Br229	Br	0.126664	-0.330382	-0.207210
Br230	Br	0.626664	0.169618	0.292790
H231	H	0.792752	-0.801135	-0.188999
H232	H	1.292752	-0.301135	0.311001
Br233	Br	0.810982	-0.330493	-0.677391
Br234	Br	1.310982	0.169507	-0.177391
H235	H	0.548317	-0.191176	-0.374662
H236	H	1.048317	0.308824	0.125338
Br237	Br	0.999766	-0.435791	-0.396310
Br238	Br	1.499766	0.064209	0.103690
Br239	Br	0.999805	-0.564481	-0.396356
Br240	Br	1.499805	-0.064481	0.103644
H241	H	0.465206	-0.166284	-0.310998
H242	H	0.965206	0.333716	0.189002
H243	H	0.263166	-0.312281	-0.229002
H244	H	0.763166	0.187719	0.270998
Br245	Br	0.328487	-0.362747	-0.289948
Br246	Br	0.828487	0.137253	0.210052
H247	H	0.792715	-0.702085	-0.188986
H248	H	1.292715	-0.202085	0.311014
Br249	Br	0.810949	-0.436064	-0.207238
Br250	Br	1.310949	0.063936	0.292762
Br251	Br	1.000018	-0.172883	-0.523258
Br252	Br	1.500018	0.327117	-0.023258
H253	H	0.914540	-0.166147	-0.861515
H254	H	1.414540	0.333853	-0.361515
