data_functionalizedCrystal
_audit_creation_method	'MofGen! by Chris Wilmer'
_symmetry_space_group_name_H-M	'P1'
_symmetry_Int_Tables_number	1
_symmetry_cell_setting	triclinic
loop_
_symmetry_equiv_pos_as_xyz
  x,y,z
_cell_length_a	12.503572
_cell_length_b	10.654541
_cell_length_c	10.654556
_cell_angle_alpha	84.487002
_cell_angle_beta	93.559386
_cell_angle_gamma	86.448909
loop_
_atom_site_label
_atom_site_type_symbol
_atom_site_fract_x
_atom_site_fract_y
_atom_site_fract_z
O1	O	0.089283	-1.675028	-0.169184
O2	O	0.089292	-1.309550	-0.185992
O3	O	0.089285	-1.500683	0.005150
O4	O	0.089290	-1.483894	-0.360326
O5	O	-0.089356	-1.486309	-0.009249
O6	O	-0.089350	-1.295176	-0.200392
O7	O	-0.089358	-1.660653	-0.183583
Cu8	Cu	-0.105665	-1.476602	-0.193302
Cu9	Cu	0.105599	-1.493601	-0.176273
O10	O	-0.089352	-1.469520	-0.374725
C11	C	-0.000028	-1.255565	-0.191958
C12	C	-0.000024	-1.116122	-0.188267
N13	N	-0.254257	-1.464655	-0.205278
C14	C	-0.000034	-1.492260	0.044748
C15	C	-0.000029	-1.488563	0.184191
C16	C	-0.473372	-1.447080	-0.222906
C17	C	-0.526702	-1.523129	-0.146663
C18	C	-0.648625	-1.513350	-0.156472
C19	C	-0.351438	-1.456858	-0.213099
N20	N	0.254191	-1.505558	-0.164287
C21	C	-0.000037	-1.714639	-0.177617
C22	C	-0.000033	-1.854083	-0.181307
C23	C	-0.000008	-1.088162	-0.416829
C24	C	0.000005	-1.008674	-0.529371
C25	C	0.000006	-0.877656	-0.525895
C26	C	-0.000009	-0.826124	-0.409866
C27	C	-0.000022	-0.905613	-0.297324
C28	C	-0.000019	-1.036632	-0.300812
C29	C	-0.000046	-0.933571	-0.068766
C30	C	-0.000039	-1.064590	-0.072238
C31	C	-0.000060	-0.882039	0.047263
C32	C	-0.000065	-0.961528	0.159808
C33	C	-0.000065	-1.092554	0.156328
C34	C	-0.000051	-1.144078	0.040304
C35	C	-0.194799	-1.465950	0.430523
C36	C	-0.292178	-1.459846	0.357159
C37	C	-0.292177	-1.463315	0.226141
C38	C	-0.194787	-1.472885	0.168483
C39	C	-0.097408	-1.478989	0.241846
C40	C	-0.097420	-1.475523	0.372868
C41	C	0.097350	-1.494667	0.257555
C42	C	0.097351	-1.491207	0.388575
C43	C	0.194740	-1.504237	0.199897
C44	C	0.292121	-1.510350	0.273262
C45	C	0.292116	-1.506882	0.404288
C46	C	0.194730	-1.497311	0.461938
C47	C	-0.000033	-1.477942	0.585676
C48	C	-0.000039	-1.481636	0.446233
H49	H	-0.480791	-1.595581	-0.074024
H50	H	-0.519277	-1.374635	-0.295543
H51	H	0.000015	-1.194845	-0.419669
H52	H	-0.000021	-0.719440	-0.407047
C53	C	-0.194791	-1.476689	0.024357
N54	N	-0.194794	-1.479556	-0.084201
H55	H	-0.000065	-0.775356	0.050085
C56	C	0.399238	-1.520881	0.209830
N57	N	0.479920	-1.528819	0.162049
C58	C	0.000019	-0.790216	-0.649696
N59	N	0.000031	-0.724357	-0.742942
H60	H	-0.000076	-0.919560	0.254270
C61	C	-0.399302	-1.449312	0.420592
N62	N	-0.479988	-1.441375	0.468366
H63	H	0.000014	-1.050646	-0.623840
C64	C	-0.000079	-1.179982	0.280136
N65	N	-0.000089	-1.245829	0.373391
C66	C	-0.000054	-1.288199	0.036464
N67	N	-0.000062	-1.396752	0.033567
C68	C	-0.194809	-1.462145	0.574648
N69	N	-0.194820	-1.459277	0.683204
H70	H	-0.371471	-1.458322	0.166405
C71	C	0.194738	-1.508053	0.055773
N72	N	0.194739	-1.510934	-0.052783
C73	C	0.399242	-1.513612	0.484981
N74	N	0.479933	-1.518690	0.545754
C75	C	0.194715	-1.493492	0.606061
N76	N	0.194699	-1.490610	0.714615
