data_functionalizedCrystal
_audit_creation_method	'MofGen! by Chris Wilmer'
_symmetry_space_group_name_H-M	'P1'
_symmetry_Int_Tables_number	1
_symmetry_cell_setting	triclinic
loop_
_symmetry_equiv_pos_as_xyz
  x,y,z
_cell_length_a	19.077409
_cell_length_b	17.637651
_cell_length_c	19.076919
_cell_angle_alpha	99.433464
_cell_angle_beta	85.523525
_cell_angle_gamma	103.923911
loop_
_atom_site_label
_atom_site_type_symbol
_atom_site_fract_x
_atom_site_fract_y
_atom_site_fract_z
Zn1	Zn	1.012774	-0.282861	0.306438
Zn2	Zn	1.346107	0.050473	0.639771
Zn3	Zn	1.679440	0.383806	0.973104
Zn4	Zn	0.995528	-0.409545	0.166607
Zn5	Zn	1.328861	-0.076212	0.499940
Zn6	Zn	1.662195	0.257122	0.833274
Zn7	Zn	0.899624	-0.282887	0.193282
Zn8	Zn	1.232958	0.050446	0.526615
Zn9	Zn	1.566291	0.383780	0.859948
Zn10	Zn	0.871051	-0.420570	0.287259
Zn11	Zn	1.204384	-0.087237	0.620592
Zn12	Zn	1.537717	0.246096	0.953926
O13	O	0.944744	-0.348966	0.238396
O14	O	1.278077	-0.015632	0.571730
O15	O	1.611411	0.317701	0.905063
O16	O	1.109933	-0.295041	0.284752
O17	O	1.443267	0.038293	0.618085
O18	O	1.776600	0.371626	0.951418
O19	O	0.987547	-0.388140	0.072296
O20	O	1.320880	-0.054807	0.405629
O21	O	1.654213	0.278526	0.738963
O22	O	0.933809	-0.172245	0.227482
O23	O	1.267143	0.161089	0.560815
O24	O	1.600476	0.494422	0.894148
O25	O	1.097263	-0.388115	0.182019
O26	O	1.430596	-0.054782	0.515352
O27	O	1.763930	0.278552	0.848686
O28	O	1.016940	-0.172225	0.310617
O29	O	1.350273	0.161108	0.643950
O30	O	1.683606	0.494441	0.977284
O31	O	0.917087	-0.295085	0.091894
O32	O	1.250420	0.038248	0.425227
O33	O	1.583753	0.371581	0.758560
O34	O	0.796386	-0.305776	0.208885
O35	O	1.129720	0.027557	0.542218
O36	O	1.463053	0.360891	0.875552
O37	O	0.885110	-0.406906	0.387652
O38	O	1.218443	-0.073573	0.720986
O39	O	1.551777	0.259761	1.054319
O40	O	0.775394	-0.406931	0.277930
O41	O	1.108727	-0.073598	0.611263
O42	O	1.442060	0.259735	0.944596
O43	O	0.989233	-0.305731	0.401743
O44	O	1.322566	0.027602	0.735076
O45	O	1.655900	0.360935	1.068410
O46	O	0.959840	-0.521646	0.163422
O47	O	1.293174	-0.188313	0.496755
O48	O	1.626507	0.145020	0.830089
O49	O	0.868388	-0.529746	0.252064
O50	O	1.201721	-0.196413	0.585398
O51	O	1.535054	0.136920	0.918731
C52	C	0.760104	-0.357554	0.244221
C53	C	1.093438	-0.024220	0.577554
C54	C	1.426771	0.309113	0.910888
C55	C	0.681110	-0.361247	0.246726
C56	C	1.014444	-0.027914	0.580059
C57	C	1.347777	0.305419	0.913393
C58	C	0.235288	-0.387678	0.264737
C59	C	0.568621	-0.054345	0.598070
C60	C	0.901955	0.278988	0.931404
C61	C	0.309511	-0.384213	0.262369
C62	C	0.642844	-0.050880	0.595703
C63	C	0.976177	0.282454	0.929036
C64	C	0.357539	-0.329736	0.225326
C65	C	0.690873	0.003597	0.558659
C66	C	1.024206	0.336930	0.891992
C67	C	0.331341	-0.278727	0.190642
C68	C	0.664675	0.054606	0.523975
C69	C	0.998008	0.387939	0.857308
C70	C	0.257119	-0.282197	0.193006
C71	C	0.590453	0.051136	0.526339
C72	C	0.923786	0.384470	0.859672
C73	C	0.580690	-0.313708	0.214406
C74	C	0.914024	0.019626	0.547739
C75	C	1.247357	0.352959	0.881073
C76	C	0.654917	-0.310240	0.212047
C77	C	0.988250	0.023093	0.545380
C78	C	1.321584	0.356426	0.878713
C79	C	0.633081	-0.415728	0.283773
C80	C	0.966414	-0.082394	0.617107
C81	C	1.299748	0.250939	0.950440
C82	C	0.558859	-0.419189	0.286137
C83	C	0.892192	-0.085856	0.619471
C84	C	1.225526	0.247478	0.952804
C85	C	0.532667	-0.368183	0.251451
C86	C	0.866000	-0.034849	0.584784
C87	C	1.199334	0.298484	0.918117
N88	N	0.433407	-0.326191	0.222906
N89	N	0.766741	0.007142	0.556240
N90	N	1.100074	0.340475	0.889573
N91	N	0.456800	-0.371732	0.253866
N92	N	0.790133	-0.038399	0.587199
N93	N	1.123466	0.294934	0.920533
C94	C	0.909160	-0.554383	0.202782
C95	C	1.242494	-0.221050	0.536116
C96	C	1.575827	0.112283	0.869449
C97	C	0.894002	-0.642260	0.187568
C98	C	1.227335	-0.308927	0.520901
C99	C	1.560668	0.024407	0.854234
C100	C	1.060356	-0.930950	0.354185
C101	C	1.393690	-0.597617	0.687518
C102	C	1.727023	-0.264284	1.020852
C103	C	1.046090	-1.013524	0.339877
C104	C	1.379423	-0.680191	0.673211
C105	C	1.712757	-0.346858	1.006544
C106	C	0.959591	-1.013645	0.253220
C107	C	1.292924	-0.680311	0.586554
C108	C	1.626258	-0.346978	0.919887
C109	C	0.973853	-0.931069	0.267518
C110	C	1.307186	-0.597736	0.600852
C111	C	1.640519	-0.264402	0.934185
C112	C	1.024235	-0.889728	0.318002
C113	C	1.357569	-0.556395	0.651335
C114	C	1.690902	-0.223062	0.984669
C115	C	0.937732	-0.889847	0.231335
C116	C	1.271065	-0.556514	0.564668
C117	C	1.604398	-0.223180	0.898002
C118	C	0.951990	-0.807278	0.245635
C119	C	1.285323	-0.473945	0.578968
C120	C	1.618656	-0.140612	0.912302
C121	C	1.002368	-0.765932	0.296118
C122	C	1.335702	-0.432599	0.629451
C123	C	1.669035	-0.099265	0.962785
C124	C	1.038493	-0.807160	0.332302
C125	C	1.371826	-0.473826	0.665635
C126	C	1.705160	-0.140493	0.998968
C127	C	0.887346	-0.931189	0.180855
C128	C	1.220679	-0.597856	0.514189
C129	C	1.554012	-0.264523	0.847522
C130	C	0.851225	-0.889967	0.144672
C131	C	1.184558	-0.556634	0.478006
C132	C	1.517891	-0.223301	0.811339
C133	C	0.865486	-0.807397	0.158968
C134	C	1.198819	-0.474064	0.492301
C135	C	1.532153	-0.140730	0.825635
C136	C	0.915865	-0.766051	0.209451
C137	C	1.249198	-0.432717	0.542784
C138	C	1.582531	-0.099384	0.876118
C139	C	0.829361	-0.766169	0.122784
C140	C	1.162694	-0.432836	0.456118
C141	C	1.496028	-0.099503	0.789451
C142	C	0.843619	-0.683601	0.137084
C143	C	1.176952	-0.350268	0.470417
C144	C	1.510286	-0.016934	0.803751
C145	C	0.930122	-0.683482	0.223751
C146	C	1.263456	-0.350149	0.557084
C147	C	1.596789	-0.016816	0.890417
C148	C	1.130105	-0.340345	0.232549
C149	C	1.463438	-0.007012	0.565883
C150	C	1.796772	0.326322	0.899216
C151	C	1.209095	-0.336671	0.230058
C152	C	1.542428	-0.003338	0.563391
C153	C	1.875761	0.329995	0.896724
C154	C	0.935908	-0.357546	0.420778
C155	C	1.269241	-0.024212	0.754112
C156	C	1.602575	0.309121	1.087445
C157	C	0.932142	-0.361202	0.498499
C158	C	1.265476	-0.027868	0.831832
C159	C	1.598809	0.305465	1.165165
C160	C	0.980485	-0.142746	0.274164
C161	C	1.313819	0.190588	0.607497
C162	C	1.647152	0.523921	0.940831
C163	C	0.995716	-0.054867	0.289406
C164	C	1.329050	0.278466	0.622740
C165	C	1.662383	0.611800	0.956073
C166	C	0.953597	-0.340360	0.056732
C167	C	1.286930	-0.007027	0.390066
C168	C	1.620263	0.326306	0.723399
C169	C	0.957538	-0.336475	-0.020953
C170	C	1.290872	-0.003142	0.312380
C171	C	1.624205	0.330192	0.645713
C172	C	0.984582	-0.310246	0.542349
C173	C	1.317915	0.023088	0.875682
C174	C	1.651249	0.356421	1.209015
C175	C	0.981036	-0.313678	0.615376
C176	C	1.314369	0.019655	0.948709
C177	C	1.647702	0.352988	1.282043
C178	C	0.925052	-0.368072	0.644551
C179	C	1.258386	-0.034738	0.977884
C180	C	1.591719	0.298595	1.311218
C181	C	0.872608	-0.419030	0.600696
C182	C	1.205941	-0.085697	0.934029
C183	C	1.539274	0.247637	1.267362
C184	C	0.876152	-0.415593	0.527670
C185	C	1.209485	-0.082259	0.861004
C186	C	1.542818	0.251074	1.194337
C187	C	0.908638	-0.383996	0.862166
C188	C	1.241971	-0.050663	1.195500
C189	C	1.575304	0.282670	1.528833
C190	C	0.905099	-0.387431	0.935197
C191	C	1.238432	-0.054098	1.268530
C192	C	1.571766	0.279236	1.601863
C193	C	1.013527	-0.282078	0.949872
C194	C	1.346860	0.051255	1.283206
C195	C	1.680193	0.384589	1.616539
C196	C	1.017068	-0.278649	0.876845
C197	C	1.350401	0.054684	1.210178
C198	C	1.683735	0.388018	1.543511
C199	C	0.964621	-0.329604	0.832996
C200	C	1.297955	0.003729	1.166329
C201	C	1.631288	0.337062	1.499663
N202	N	0.921427	-0.371583	0.719196
N203	N	1.254761	-0.038250	1.052529
N204	N	1.588094	0.295083	1.385863
N205	N	0.968244	-0.326088	0.758353
N206	N	1.301577	0.007245	1.091687
N207	N	1.634911	0.340578	1.425020
H208	H	0.559374	-0.272178	0.186158
H209	H	0.892707	0.061156	0.519492
H210	H	1.226041	0.394489	0.852825
H211	H	0.918568	-1.047316	0.212118
H212	H	1.251901	-0.713983	0.545451
H213	H	1.585234	-0.380649	0.878785
H214	H	0.519758	-0.463551	0.316300
H215	H	0.853091	-0.130218	0.649634
H216	H	1.186424	0.203115	0.982967
F217	F	1.044171	-0.252356	0.511305
F218	F	1.377504	0.080977	0.844638
F219	F	1.710837	0.414311	1.177972
H220	H	0.654415	-0.457255	0.312013
H221	H	0.987748	-0.123921	0.645346
H222	H	1.321082	0.209412	0.978679
F223	F	0.706032	-0.252258	0.172615
F224	F	1.039365	0.081075	0.505949
F225	F	1.372699	0.414408	0.839282
F226	F	0.382459	-0.220752	0.151214
F227	F	0.715792	0.112582	0.484547
F228	F	1.049125	0.445915	0.817881
F229	F	0.813023	-0.476917	0.631748
F230	F	1.146357	-0.143583	0.965082
F231	F	1.479690	0.189750	1.298415
H232	H	1.023739	-0.272186	0.651076
H233	H	1.357072	0.061147	0.984409
H234	H	1.690406	0.394480	1.317743
F235	F	0.845508	-0.445323	0.966245
F236	F	1.178842	-0.111990	1.299578
F237	F	1.512175	0.221343	1.632912
H238	H	0.810201	-0.923638	0.103570
H239	H	1.143535	-0.590305	0.436903
H240	H	1.476868	-0.256972	0.770237
H241	H	0.875732	-0.998423	0.169221
H242	H	1.209065	-0.665089	0.502554
H243	H	1.542398	-0.331756	0.835888
F244	F	0.184179	-0.445656	0.304169
F245	F	0.517512	-0.112323	0.637502
F246	F	0.850845	0.221010	0.970835
H247	H	0.833444	-0.457079	0.491969
H248	H	1.166777	-0.123746	0.825303
H249	H	1.500110	0.209588	1.158636
H250	H	0.235795	-0.240659	0.164768
H251	H	0.569128	0.092674	0.498101
H252	H	0.902462	0.426007	0.831435
H253	H	0.865940	-0.425499	0.826471
H254	H	1.199273	-0.092166	1.159804
H255	H	1.532607	0.241168	1.493137
H256	H	0.971155	-0.649821	0.264855
H257	H	1.304488	-0.316487	0.598188
H258	H	1.637821	0.016846	0.931521
H259	H	1.013976	-0.698699	0.307759
H260	H	1.347310	-0.365366	0.641093
H261	H	1.680643	-0.032033	0.974426
H262	H	1.079525	-0.773498	0.373405
H263	H	1.412859	-0.440165	0.706739
H264	H	1.746192	-0.106831	1.040072
F265	F	1.113987	-0.886947	0.407908
F266	F	1.447321	-0.553614	0.741241
F267	F	1.780654	-0.220281	1.074575
H268	H	0.330833	-0.425750	0.290607
H269	H	0.664166	-0.092417	0.623940
H270	H	0.997499	0.240917	0.957274
H271	H	1.075497	-1.047085	0.369356
H272	H	1.408831	-0.713752	0.702689
H273	H	1.742164	-0.380419	1.036023
F274	F	0.805177	-0.639727	0.098572
F275	F	1.138510	-0.306393	0.431905
F276	F	1.471844	0.026940	0.765239
F277	F	0.775733	-0.810178	0.069067
F278	F	1.109066	-0.476845	0.402400
F279	F	1.442399	-0.143511	0.735734
F280	F	1.076654	-0.220757	0.845800
F281	F	1.409987	0.112577	1.179133
F282	F	1.743320	0.445910	1.512467
F283	F	1.069339	-0.227850	0.996544
F284	F	1.402672	0.105483	1.329877
F285	F	1.736006	0.438817	1.663211
