data_functionalizedCrystal
_audit_creation_method	'MofGen! by Chris Wilmer'
_symmetry_space_group_name_H-M	'P1'
_symmetry_Int_Tables_number	1
_symmetry_cell_setting	triclinic
loop_
_symmetry_equiv_pos_as_xyz
  x,y,z
_cell_length_a	17.699077
_cell_length_b	15.944493
_cell_length_c	16.776229
_cell_angle_alpha	89.999222
_cell_angle_beta	89.993415
_cell_angle_gamma	83.377810
loop_
_atom_site_label
_atom_site_type_symbol
_atom_site_fract_x
_atom_site_fract_y
_atom_site_fract_z
O1	O	1.004243	0.106201	-0.066267
O2	O	0.783885	0.120026	-0.066270
O3	O	0.900104	-0.009177	-0.066275
O4	O	0.888023	0.235405	-0.066262
O5	O	0.900089	-0.009185	0.066301
O6	O	0.783869	0.120018	0.066307
O7	O	1.004227	0.106193	0.066309
Zn8	Zn	0.894046	0.113104	0.087357
Zn9	Zn	0.894066	0.113115	-0.087318
O10	O	0.888008	0.235397	0.066314
C11	C	0.755679	0.119528	0.000018
C12	C	0.671659	0.118044	0.000016
C13	C	0.899603	-0.040475	0.000010
C14	C	0.898122	-0.133721	-0.000000
C15	C	0.632182	0.117341	0.072285
C16	C	0.553237	0.115933	0.072285
C17	C	0.513770	0.115235	0.000017
C18	C	0.553253	0.115936	-0.072257
C19	C	0.632197	0.117338	-0.072257
C20	C	0.234881	0.110283	-0.072259
C21	C	0.155931	0.108885	-0.072253
C22	C	0.155921	0.108879	0.072284
C23	C	0.234865	0.110281	0.072284
C24	C	0.274342	0.110977	0.000010
C25	C	0.359943	0.112501	0.000010
C26	C	0.428170	0.113717	0.000016
C27	C	0.966532	-0.369626	0.000015
C28	C	0.929649	-0.420112	-0.065352
C29	C	0.895379	-0.304436	0.000009
C30	C	0.929617	-0.420096	0.065358
C31	C	0.892735	-0.469340	0.000022
C32	C	0.858516	-0.353693	-0.065412
C33	C	0.858494	-0.353674	0.065357
C34	C	0.821559	-0.404126	-0.000026
C35	C	0.896905	-0.209439	0.000001
C36	C	0.891204	-0.564334	0.000025
C37	C	1.032433	0.106691	0.000020
C38	C	1.116453	0.108175	0.000016
C39	C	0.888509	0.266694	0.000028
C40	C	0.889990	0.359940	0.000033
N41	N	0.894038	0.113097	0.206569
N42	N	0.894081	0.113116	-0.206529
C43	C	0.945515	0.055909	0.248283
C44	C	0.945519	0.055908	0.331735
C45	C	0.894049	0.113100	0.373471
C46	C	0.842566	0.170291	0.331751
C47	C	0.842559	0.170287	0.248300
C48	C	0.842593	0.170307	0.668298
C49	C	0.842606	0.170308	0.751755
C50	C	0.945554	0.055929	0.751733
C51	C	0.945547	0.055925	0.668283
C52	C	0.894061	0.113112	0.626569
C53	C	0.894056	0.113111	0.536081
C54	C	0.894057	0.113106	0.463958
H55	H	0.664309	0.117916	0.131134
Br56	Br	0.288423	0.111236	0.170365
Br57	Br	1.015378	-0.021708	0.191650
Br58	Br	1.015380	-0.021708	0.388351
Br59	Br	0.102368	0.107938	-0.170338
H60	H	0.828491	-0.324806	-0.120734
H61	H	1.027820	-0.354128	-0.000050
Br62	Br	0.772706	0.247904	0.388389
Br63	Br	0.772688	0.247897	0.191687
H64	H	0.123771	0.108308	0.131132
Br65	Br	1.015405	-0.021690	0.611643
Br66	Br	1.015428	-0.021686	0.808348
Br67	Br	0.499662	0.114993	0.170368
Br68	Br	0.772749	0.247932	0.808397
Br69	Br	0.772724	0.247918	0.611692
H70	H	0.267013	0.110848	-0.131108
Br71	Br	0.979711	-0.468429	0.157461
H72	H	0.521113	0.115362	-0.131099
H73	H	0.959704	-0.449118	-0.120615
H74	H	0.664338	0.117912	-0.131105
Br75	Br	0.719329	-0.429690	-0.000082
H76	H	0.828465	-0.324652	0.120622
