data_functionalizedCrystal
_audit_creation_method	'MofGen! by Chris Wilmer'
_symmetry_space_group_name_H-M	'P1'
_symmetry_Int_Tables_number	1
_symmetry_cell_setting	triclinic
loop_
_symmetry_equiv_pos_as_xyz
  x,y,z
_cell_length_a	6.817900
_cell_length_b	11.102183
_cell_length_c	16.255661
_cell_angle_alpha	93.854172
_cell_angle_beta	103.488922
_cell_angle_gamma	108.603876
loop_
_atom_site_label
_atom_site_type_symbol
_atom_site_fract_x
_atom_site_fract_y
_atom_site_fract_z
V1	V	-4.052928	-0.176865	-0.263870
O2	O	-4.013087	0.007443	-0.258848
O3	O	-4.030096	-0.349678	-0.262063
O4	O	-4.004156	-0.174608	-0.378953
O5	O	-4.039207	-0.168839	-0.141149
V6	V	-4.533291	-0.154765	-0.249191
O7	O	-4.321118	-0.225344	-0.296067
O8	O	-4.715299	-0.106287	-0.216994
O9	O	-4.332918	0.018048	-0.250998
O10	O	-4.690529	-0.339073	-0.254213
O11	O	-4.664410	-0.162791	-0.371912
O12	O	-4.358858	-0.157022	-0.134108
C13	C	-3.881328	-0.391791	-0.257900
C14	C	-3.943944	-0.533071	-0.257191
C15	C	-3.848238	-0.168471	-0.407003
C16	C	-3.889814	-0.167769	-0.501085
C17	C	-3.858008	-0.496191	-0.102181
C18	C	-3.844453	-0.544123	-0.024346
C19	C	-3.903293	-0.676868	-0.023684
C20	C	-3.975700	-0.761687	-0.100865
C21	C	-3.989255	-0.713754	-0.178700
C22	C	-3.930403	-0.581004	-0.179354
C23	C	-4.075205	-0.750635	-0.333709
C24	C	-4.016351	-0.617889	-0.334372
C25	C	-4.147612	-0.835453	-0.410890
C26	C	-4.161154	-0.787521	-0.488727
C27	C	-4.102306	-0.654766	-0.489386
C28	C	-4.029906	-0.569957	-0.412208
C29	C	-3.799128	-0.159385	-0.723903
C30	C	-3.971583	-0.267595	-0.793379
C31	C	-3.966003	-0.166453	-0.673333
C32	C	-3.867654	-0.057005	-0.771495
C33	C	-4.039582	-0.165176	-0.839717
C34	C	-4.137955	-0.274759	-0.741578
C35	C	-4.033950	-0.064074	-0.719680
C36	C	-4.206547	-0.172315	-0.789136
C37	C	-3.923611	-0.167190	-0.577484
C38	C	-4.081992	-0.164449	-0.935565
C39	C	-4.145028	0.060155	-0.255158
C40	C	-4.061650	0.201433	-0.255873
C41	C	-4.178118	-0.163163	-0.106053
C42	C	-4.115780	-0.163859	-0.011971
H43	H	-3.810033	-0.388098	-0.102711
H44	H	-4.059790	0.021975	-0.687572
Br45	Br	-3.950024	-0.389798	-0.413095
Br46	Br	-4.494363	-0.181464	-0.836383
H47	H	-3.785499	-0.475050	0.038494
H48	H	-3.945664	-0.353639	-0.825464
Br49	Br	-3.677863	0.096379	-0.794135
H50	H	-4.220121	-0.856589	-0.551562
Br51	Br	-4.227493	-1.015610	-0.409994
Br52	Br	-3.884919	-0.741926	0.081949
Br53	Br	-4.327761	-0.428310	-0.719139
Br54	Br	-3.511545	-0.150501	-0.676429
Br55	Br	-4.120736	-0.589729	-0.595026
Br56	Br	-4.055606	-0.941844	-0.099966
