data_functionalizedCrystal
_audit_creation_method	'MofGen! by Chris Wilmer'
_symmetry_space_group_name_H-M	'P1'
_symmetry_Int_Tables_number	1
_symmetry_cell_setting	triclinic
loop_
_symmetry_equiv_pos_as_xyz
  x,y,z
_cell_length_a	12.645331
_cell_length_b	12.645330
_cell_length_c	19.076919
_cell_angle_alpha	92.274320
_cell_angle_beta	92.280814
_cell_angle_gamma	90.011625
loop_
_atom_site_label
_atom_site_type_symbol
_atom_site_fract_x
_atom_site_fract_y
_atom_site_fract_z
Zn1	Zn	1.596633	-0.446173	-0.397967
Zn2	Zn	1.603668	-0.616330	-0.280279
Zn3	Zn	1.426485	-0.439078	-0.280286
Zn4	Zn	1.419347	-0.623389	-0.397934
O5	O	1.511533	-0.531242	-0.339116
O6	O	1.745913	-0.468759	-0.382367
O7	O	1.586095	-0.586894	-0.181790
O8	O	1.449098	-0.291673	-0.295914
O9	O	1.751081	-0.593773	-0.295901
O10	O	1.574105	-0.296885	-0.382374
O11	O	1.455919	-0.456668	-0.181796
O12	O	1.277191	-0.463513	-0.295881
O13	O	1.436933	-0.605805	-0.496427
O14	O	1.271947	-0.598925	-0.382316
O15	O	1.567184	-0.475604	-0.496452
O16	O	1.579174	-0.765613	-0.295869
O17	O	1.443754	-0.770799	-0.382309
C18	C	1.236104	-0.531216	-0.339096
C19	C	1.118274	-0.531231	-0.339104
C20	C	0.953955	-0.445685	-0.285028
C21	C	1.076529	-0.445883	-0.284789
C22	C	1.074992	-0.641678	-0.318842
C23	C	0.952416	-0.641206	-0.318473
C24	C	0.946601	-0.507407	-0.413651
C25	C	1.069232	-0.504887	-0.413237
C26	C	1.511481	-0.806671	-0.339100
C27	C	1.511554	-0.924502	-0.339116
C28	C	1.596622	-1.088753	-0.284626
C29	C	1.596880	-0.966200	-0.284759
C30	C	1.537355	-0.973380	-0.413305
C31	C	1.538021	-1.095961	-0.413015
C32	C	1.400609	-1.090678	-0.320149
C33	C	1.401247	-0.967973	-0.318485
C34	C	1.788037	-0.531270	-0.339137
C35	C	1.905866	-0.531281	-0.339146
C36	C	1.500478	-0.542283	-0.522691
C37	C	1.495767	-0.546988	-0.600919
C38	C	1.511613	-0.254739	-0.339148
C39	C	1.511647	-0.136910	-0.339162
C40	C	1.561365	-0.481413	-0.637685
C41	C	1.556925	-0.485830	-0.711189
C42	C	1.486892	-0.555828	-0.747926
C43	C	1.421287	-0.621405	-0.711155
C44	C	1.425722	-0.616983	-0.637652
C45	C	1.466352	-0.576319	-0.967754
C46	C	1.461924	-0.580739	-1.041262
C47	C	1.597562	-0.445162	-1.041291
C48	C	1.601995	-0.440750	-0.967787
C49	C	1.536386	-0.506324	-0.931023
N50	N	1.482355	-0.560347	-0.823059
N51	N	1.540918	-0.501799	-0.855891
C52	C	1.522606	-0.520168	-0.156256
C53	C	1.527523	-0.515165	-0.078028
H54	H	1.105853	-0.363842	-0.297490
H55	H	1.477153	-0.946761	-0.455027
F56	F	1.643933	-1.134509	-0.434065
F57	F	1.110087	-0.727012	-0.368750
H58	H	0.923722	-0.363386	-0.297591
F59	F	1.368807	-1.126999	-0.250671
H60	H	1.659026	-0.383753	-0.937881
F61	F	1.667380	-0.375377	-1.080424
F62	F	1.460311	-1.138068	-0.467932
F63	F	1.704495	-0.928755	-0.301200
F64	F	1.576405	-0.922624	-0.212866
F65	F	1.317926	-1.131739	-0.372065
F66	F	1.119331	-0.669420	-0.248413
H67	H	1.109158	-0.461301	-0.229578
F68	F	0.905534	-0.588966	-0.466357
F69	F	1.626781	-0.416072	-0.750315
F70	F	1.635910	-0.406917	-0.598594
F71	F	1.346748	-0.695898	-0.750255
F72	F	1.387378	-0.655240	-1.080358
H73	H	1.617442	-0.943585	-0.429678
F74	F	1.375707	-0.925744	-0.247125
H75	H	1.412944	-0.629729	-0.937829
F76	F	1.106065	-0.398690	-0.433215
H77	H	1.372294	-0.670370	-0.607718
H78	H	0.926438	-0.460914	-0.230141
H79	H	0.927076	-0.661980	-0.264006
F80	F	1.576533	-1.123015	-0.212513
H81	H	0.920491	-0.706899	-0.356172
H82	H	0.914580	-0.428512	-0.432078
H83	H	1.097318	-0.563044	-0.455716
H84	H	1.334884	-0.939588	-0.355294
F85	F	1.703668	-1.129901	-0.300879
