data_functionalizedCrystal
_audit_creation_method	'MofGen! by Chris Wilmer'
_symmetry_space_group_name_H-M	'P1'
_symmetry_Int_Tables_number	1
_symmetry_cell_setting	triclinic
loop_
_symmetry_equiv_pos_as_xyz
  x,y,z
_cell_length_a	14.908571
_cell_length_b	12.594516
_cell_length_c	14.908294
_cell_angle_alpha	93.271593
_cell_angle_beta	90.175425
_cell_angle_gamma	86.712497
loop_
_atom_site_label
_atom_site_type_symbol
_atom_site_fract_x
_atom_site_fract_y
_atom_site_fract_z
Zn1	Zn	1.345326	-0.555461	-0.587618
Zn2	Zn	1.353917	-0.723817	-0.437269
Zn3	Zn	1.203641	-0.535017	-0.428615
Zn4	Zn	1.194944	-0.722552	-0.578921
O5	O	1.274457	-0.634212	-0.508106
O6	O	1.472292	-0.586879	-0.574936
O7	O	1.341218	-0.690745	-0.310296
O8	O	1.222479	-0.388787	-0.449725
O9	O	1.478604	-0.710569	-0.464475
O10	O	1.326575	-0.403808	-0.566544
O11	O	1.230810	-0.552035	-0.303937
O12	O	1.076661	-0.550809	-0.441291
O13	O	1.207657	-0.708414	-0.705900
O14	O	1.070271	-0.688590	-0.551721
O15	O	1.318142	-0.585653	-0.712290
O16	O	1.332785	-0.872591	-0.456042
O17	O	1.215988	-0.871662	-0.560113
C18	C	1.040840	-0.617345	-0.494623
C19	C	0.940897	-0.610156	-0.488877
C20	C	0.746497	-0.740320	-0.592914
C21	C	0.652591	-0.733569	-0.587518
C22	C	0.659177	-0.589898	-0.472694
C23	C	0.753083	-0.596649	-0.478090
C24	C	0.796740	-0.671864	-0.538201
C25	C	0.890647	-0.678619	-0.543592
C26	C	0.897232	-0.534944	-0.428773
C27	C	0.803326	-0.528193	-0.423377
C28	C	1.274398	-0.910748	-0.508093
C29	C	1.274454	-1.029059	-0.508123
C30	C	1.210925	-1.097843	-0.564685
C31	C	1.193755	-1.161863	-0.481377
C32	C	1.291704	-1.175844	-0.591449
C33	C	1.257244	-1.091516	-0.424770
C34	C	1.355228	-1.105497	-0.534899
C35	C	1.338093	-1.169484	-0.451537
C36	C	1.508986	-0.651146	-0.521641
C37	C	1.608928	-0.658362	-0.527409
C38	C	1.260971	-0.649173	-0.742632
C39	C	1.255224	-0.655549	-0.842573
C40	C	1.274539	-0.356599	-0.508139
C41	C	1.274574	-0.238297	-0.508153
C42	C	1.189603	-0.728437	-0.980110
C43	C	1.195001	-0.722454	-0.886207
C44	C	1.310052	-0.594619	-0.892851
C45	C	1.304654	-0.600602	-0.986754
C46	C	1.244428	-0.667514	-1.030381
C47	C	1.239035	-0.673502	-1.124287
C48	C	1.354081	-0.545662	-1.130929
C49	C	1.359479	-0.539679	-1.037025
C50	C	1.287942	-0.619236	-0.274495
C51	C	1.293863	-0.612573	-0.174564
H52	H	1.157114	-1.066392	-0.612438
O53	O	1.239643	-1.047693	-0.340734
C54	C	1.160928	-0.980221	-0.342467
H55	H	1.118215	-1.004952	-0.402828
H56	H	1.179844	-0.894392	-0.347899
C57	C	1.159549	-0.958678	-0.181345
C58	C	1.107084	-0.989058	-0.255478
H59	H	1.126337	-0.964124	-0.127685
H60	H	1.212583	-1.004131	-0.180177
H61	H	1.175309	-0.887156	-0.185884
H62	H	1.091335	-1.060583	-0.250943
H63	H	1.054046	-0.943617	-0.256643
H64	H	1.408510	-0.485198	-1.001491
O65	O	0.933105	-0.751784	-0.601858
C66	C	0.990371	-0.821061	-0.553701
H67	H	0.966128	-0.820963	-0.481247
H68	H	1.061719	-0.793070	-0.554738
C69	C	1.019070	-0.934801	-0.686557
C70	C	0.989290	-0.934687	-0.597570
H71	H	1.018407	-1.004890	-0.713619
H72	H	0.980492	-0.888126	-0.719003
H73	H	1.078524	-0.911470	-0.687409
H74	H	0.929833	-0.958005	-0.596719
H75	H	1.027858	-0.981369	-0.565125
O76	O	1.368437	-0.529575	-0.850348
C77	C	1.320392	-0.453659	-0.793091
H78	H	1.253037	-0.485366	-0.775107
H79	H	1.308479	-0.376362	-0.828701
C80	C	1.457716	-0.393373	-0.728823
C81	C	1.374992	-0.432320	-0.706729
H82	H	1.491397	-0.380205	-0.675553
H83	H	1.490086	-0.444516	-0.767401
H84	H	1.447776	-0.328964	-0.758500
H85	H	1.384933	-0.496734	-0.677063
H86	H	1.342626	-0.381187	-0.668144
H87	H	0.782043	-0.801568	-0.641855
H88	H	0.623615	-0.528656	-0.423760
H89	H	0.938150	-0.479204	-0.384219
H90	H	0.767768	-0.466953	-0.374438
O91	O	1.308951	-1.219636	-0.675563
C92	C	1.241729	-1.183108	-0.734945
H93	H	1.208990	-1.104454	-0.706289
H94	H	1.188716	-1.244615	-0.743649
C95	C	1.324347	-1.262972	-0.861958
C96	C	1.284141	-1.166363	-0.826765
H97	H	1.350506	-1.252647	-0.918599
H98	H	1.369634	-1.287586	-0.821951
H99	H	1.280162	-1.314218	-0.869204
H100	H	1.328328	-1.115123	-0.819509
H101	H	1.238862	-1.141740	-0.866773
O102	O	1.407208	-0.486347	-1.179790
C103	C	1.352913	-0.417387	-1.231175
H104	H	1.283721	-0.403905	-1.198795
H105	H	1.345722	-0.454601	-1.302165
C106	C	1.481767	-0.326557	-1.274919
C107	C	1.396787	-0.309992	-1.235145
H108	H	1.508832	-0.260312	-1.277372
H109	H	1.518348	-0.373019	-1.240303
H110	H	1.475763	-0.357572	-1.334073
H111	H	1.402793	-0.278990	-1.175988
H112	H	1.360208	-0.263521	-1.269751
H113	H	0.611686	-0.789312	-0.632073
H114	H	1.125502	-1.186888	-0.458752
H115	H	1.391872	-1.200728	-0.403659
O116	O	1.436595	-1.075695	-0.562088
C117	C	1.454465	-1.118842	-0.649992
H118	H	1.388500	-1.136661	-0.685056
H119	H	1.498459	-1.195625	-0.646881
C120	C	1.584685	-1.016296	-0.659784
C121	C	1.503665	-1.038173	-0.702852
H122	H	1.615038	-0.966539	-0.692390
H123	H	1.572648	-0.987230	-0.600560
H124	H	1.621336	-1.080289	-0.657194
H125	H	1.467012	-0.974183	-0.705431
H126	H	1.515698	-1.067226	-0.762078
H127	H	1.140571	-0.782927	-1.015632
O128	O	1.180486	-0.738352	-1.166765
C129	C	1.119294	-0.677020	-1.217720
H130	H	1.150223	-0.599548	-1.233624
H131	H	1.054743	-0.658207	-1.177687
C132	C	1.059880	-0.835244	-1.286442
C133	C	1.097871	-0.740095	-1.305982
H134	H	1.046662	-0.874152	-1.340884
H135	H	1.101104	-0.876566	-1.252111
H136	H	1.006092	-0.819552	-1.253079
H137	H	1.151663	-0.755788	-1.339334
H138	H	1.056656	-0.698777	-1.340321
H139	H	1.150351	-0.772057	-0.845279
