data_functionalizedCrystal
_audit_creation_method	'MofGen! by Chris Wilmer'
_symmetry_space_group_name_H-M	'P1'
_symmetry_Int_Tables_number	1
_symmetry_cell_setting	triclinic
loop_
_symmetry_equiv_pos_as_xyz
  x,y,z
_cell_length_a	10.723022
_cell_length_b	10.723023
_cell_length_c	9.798715
_cell_angle_alpha	90.002387
_cell_angle_beta	89.995970
_cell_angle_gamma	95.532613
loop_
_atom_site_label
_atom_site_type_symbol
_atom_site_fract_x
_atom_site_fract_y
_atom_site_fract_z
O1	O	-1.657188	0.175016	0.113499
O2	O	-1.294035	0.191771	0.113499
O3	O	-1.483989	0.001817	0.113493
O4	O	-1.467234	0.364970	0.113504
O5	O	-1.483975	0.001816	-0.113489
O6	O	-1.294021	0.191770	-0.113483
O7	O	-1.657174	0.175014	-0.113483
Zn8	Zn	-1.475595	0.183392	-0.149522
Zn9	Zn	-1.475614	0.183394	0.149537
O10	O	-1.467220	0.364968	-0.113478
C11	C	-1.247529	0.190551	0.000008
C12	C	-1.108974	0.186904	0.000008
C13	C	-1.060414	0.077365	0.000004
C14	C	-0.917211	0.073593	0.000004
C15	C	-1.482763	-0.044683	0.000004
C16	C	-1.479115	-0.183238	0.000008
C17	C	-0.703681	0.176234	0.000008
C18	C	-0.842235	0.179881	0.000008
C19	C	-1.477497	-0.245003	0.117593
C20	C	-1.473727	-0.388206	0.117601
C21	C	-1.468446	0.411469	0.000015
C22	C	-1.472094	0.550023	0.000019
N23	N	-1.475592	0.183390	-0.353621
C24	C	-1.548356	0.255751	-0.421397
C25	C	-1.548376	0.255749	-0.578560
N26	N	-1.475627	0.183386	0.353637
H27	H	-1.044532	0.277893	0.000016
C28	C	-1.147453	-0.045562	0.000013
H29	H	-1.098416	-0.114776	0.000024
H30	H	-1.198817	-0.048888	-0.079134
H31	H	-1.198809	-0.048871	0.079183
C32	C	-1.479396	-0.173236	0.253590
H33	H	-1.477884	-0.230556	0.327364
H34	H	-1.553376	-0.131336	0.258659
H35	H	-1.408078	-0.113553	0.258661
C36	C	-1.471865	-0.459948	0.253605
H37	H	-1.473393	-0.402618	0.327372
H38	H	-1.397892	-0.501856	0.258694
H39	H	-1.543190	-0.519623	0.258666
C40	C	-1.391441	0.099700	-0.432397
H41	H	-1.345790	0.054297	-0.369495
H42	H	-1.334629	0.150508	-0.488148
H43	H	-1.441996	0.042642	-0.488129
H44	H	-0.884038	0.273673	0.000003
C45	C	-0.860737	-0.053111	0.000007
H46	H	-0.771898	-0.039024	0.000019
H47	H	-0.887724	-0.099244	-0.079143
H48	H	-0.887734	-0.099228	0.079174
H49	H	-1.477702	-0.236375	-0.100656
H50	H	-1.473492	-0.396870	-0.100655
C51	C	-1.632495	0.339448	-0.342615
H52	H	-1.621436	0.328476	-0.247319
H53	H	-1.717659	0.316833	-0.365947
H54	H	-1.610277	0.424684	-0.365966
H55	H	-1.610666	0.317707	-0.636845
H56	H	-1.413322	0.121438	-0.588087
