data_functionalizedCrystal
_audit_creation_method	'MofGen! by Chris Wilmer'
_symmetry_space_group_name_H-M	'P1'
_symmetry_Int_Tables_number	1
_symmetry_cell_setting	triclinic
loop_
_symmetry_equiv_pos_as_xyz
  x,y,z
_cell_length_a	10.686220
_cell_length_b	10.686285
_cell_length_c	10.686551
_cell_angle_alpha	80.915481
_cell_angle_beta	90.308082
_cell_angle_gamma	90.345431
loop_
_atom_site_label
_atom_site_type_symbol
_atom_site_fract_x
_atom_site_fract_y
_atom_site_fract_z
Zn1	Zn	1.994012	-0.307898	-0.537149
Zn2	Zn	1.993911	-0.536485	-0.308653
Zn3	Zn	1.770410	-0.340205	-0.340818
Zn4	Zn	1.800161	-0.533926	-0.534641
O5	O	1.889623	-0.429629	-0.430315
O6	O	2.168662	-0.325771	-0.494427
O7	O	1.951770	-0.525040	-0.136178
O8	O	1.787663	-0.159182	-0.381372
O9	O	2.168588	-0.493713	-0.326552
O10	O	1.951942	-0.135446	-0.525615
O11	O	1.787565	-0.380834	-0.159810
O12	O	1.599693	-0.378352	-0.378940
O13	O	1.838368	-0.489351	-0.711715
O14	O	1.621551	-0.520678	-0.521341
O15	O	1.980790	-0.323289	-0.713557
O16	O	1.980618	-0.712883	-0.324121
O17	O	1.838270	-0.711003	-0.490153
C18	C	1.565334	-0.452744	-0.453360
C19	C	1.426605	-0.462661	-0.463246
C20	C	1.912697	-0.757764	-0.403399
C21	C	1.922686	-0.898130	-0.391919
C22	C	2.215179	-0.406424	-0.407181
C23	C	2.353912	-0.396535	-0.397323
C24	C	1.912909	-0.402431	-0.759745
C25	C	1.922832	-0.390841	-0.900128
C26	C	1.866495	-0.100207	-0.457361
C27	C	1.856639	0.040173	-0.468887
C28	C	1.866493	-0.456624	-0.102170
C29	C	1.856787	-0.467841	0.038201
H30	H	1.792453	-0.905265	-0.543568
C31	C	2.002862	-1.101237	-0.298901
C32	C	2.009387	-0.971779	-0.291132
H33	H	2.056408	-1.146699	-0.236698
H34	H	1.919247	-1.130399	-0.284503
H35	H	2.028527	-1.114410	-0.380769
H36	H	1.983713	-0.958606	-0.209266
H37	H	2.093020	-0.942608	-0.305521
C38	C	1.405742	-0.509714	-0.674783
C39	C	1.367354	-0.549338	-0.549654
H40	H	1.369166	-0.563229	-0.728124
H41	H	1.379771	-0.424866	-0.701850
H42	H	1.494325	-0.514196	-0.679236
H43	H	1.278771	-0.544847	-0.545200
H44	H	1.393317	-0.634207	-0.522579
H45	H	1.792656	-0.542634	-0.907200
H46	H	1.397808	-0.332337	-0.333320
C47	C	2.002818	-0.297532	-1.103300
C48	C	2.009416	-0.289863	-0.973831
H49	H	2.056263	-0.235186	-1.148799
H50	H	2.028558	-0.379317	-1.116587
H51	H	1.919158	-0.283272	-1.132322
H52	H	2.093074	-0.304132	-0.944807
H53	H	1.983683	-0.208059	-0.960537
