data_functionalizedCrystal
_audit_creation_method	'MofGen! by Chris Wilmer'
_symmetry_space_group_name_H-M	'P1'
_symmetry_Int_Tables_number	1
_symmetry_cell_setting	triclinic
loop_
_symmetry_equiv_pos_as_xyz
  x,y,z
_cell_length_a	16.109301
_cell_length_b	9.798715
_cell_length_c	16.109301
_cell_angle_alpha	89.995430
_cell_angle_beta	96.538519
_cell_angle_gamma	90.000966
loop_
_atom_site_label
_atom_site_type_symbol
_atom_site_fract_x
_atom_site_fract_y
_atom_site_fract_z
O1	O	1.103131	0.113409	-0.106865
O2	O	0.861069	0.113431	-0.120165
O3	O	0.988750	0.113406	0.007516
O4	O	0.975450	0.113435	-0.234546
O5	O	0.988740	-0.113577	0.007516
O6	O	0.861060	-0.113551	-0.120164
O7	O	1.103122	-0.113573	-0.106865
Zn8	Zn	0.982089	-0.149600	-0.113515
Zn9	Zn	0.982102	0.149458	-0.113515
O10	O	0.975441	-0.113547	-0.234546
C11	C	0.830090	-0.000057	-0.119626
C12	C	0.737794	-0.000049	-0.118011
N13	N	0.982087	-0.353700	-0.113514
C14	C	0.515522	-0.000056	-0.190018
C15	C	0.428801	-0.000065	-0.188494
C16	C	0.448676	-0.000078	-0.037006
C17	C	0.535394	-0.000078	-0.038530
C18	C	0.568815	-0.000061	-0.115039
C19	C	0.395376	-0.000069	-0.111990
C20	C	0.301350	-0.000079	-0.110337
C21	C	0.662847	-0.000054	-0.116693
C22	C	1.035698	-0.421488	-0.059670
C23	C	1.035712	-0.578650	-0.059667
C24	C	1.134101	-0.000082	-0.107404
C25	C	1.226397	-0.000081	-0.109019
C26	C	0.988206	-0.000086	0.038491
C27	C	0.986591	-0.000088	0.130786
N28	N	0.982111	0.353558	-0.113509
C29	C	0.975984	-0.000053	-0.265521
C30	C	0.977600	-0.000042	-0.357816
C31	C	1.058599	-0.000073	0.353059
C32	C	1.057075	-0.000061	0.439779
C33	C	0.905586	-0.000053	0.419905
C34	C	0.907111	-0.000055	0.333186
C35	C	0.983620	-0.000071	0.299766
C36	C	0.980571	-0.000058	0.473205
C37	C	0.978918	-0.000046	0.567231
C38	C	0.985273	-0.000081	0.205734
H39	H	0.542730	-0.000052	-0.252317
H40	H	0.385413	-0.000064	-0.249550
H41	H	0.843295	-0.000042	0.447127
H42	H	0.421454	-0.000100	0.025285
O43	O	0.927303	-0.423409	-0.168394
C44	C	0.875928	-0.506052	-0.123958
H45	H	0.908903	-0.527314	-0.058824
H46	H	0.814415	-0.451082	-0.118499
C47	C	0.817861	-0.615746	-0.250778
C48	C	0.858364	-0.641870	-0.170781
H49	H	0.807023	-0.699522	-0.279661
H50	H	0.852470	-0.560065	-0.280716
H51	H	0.766604	-0.569934	-0.246217
H52	H	0.909624	-0.687665	-0.175343
H53	H	0.823763	-0.697562	-0.140845
H54	H	1.081585	-0.363174	-0.013571
O55	O	0.587051	-0.000021	0.034386
C56	C	0.538960	-0.000058	0.102241
H57	H	0.474231	0.042919	0.081127
H58	H	0.532791	-0.108955	0.125695
C59	C	0.661701	0.036162	0.199137
C60	C	0.582201	0.088958	0.173205
H61	H	0.688375	0.091066	0.242913
H62	H	0.694101	0.036182	0.153422
H63	H	0.656549	-0.054585	0.218676
H64	H	0.587355	0.179696	0.153657
H65	H	0.549802	0.088955	0.218919
O66	O	1.090435	-0.648037	-0.004555
C67	C	1.076711	-0.613260	0.077708
H68	H	1.044709	-0.509486	0.077584
H69	H	1.035209	-0.693662	0.103258
C70	C	1.200320	-0.734302	0.133373
C71	C	1.161020	-0.606838	0.133221
H72	H	1.252325	-0.730346	0.167618
H73	H	1.209565	-0.757736	0.077951
H74	H	1.165726	-0.801290	0.154663
H75	H	1.195610	-0.539856	0.111922
H76	H	1.151784	-0.583392	0.188640
H77	H	1.120897	-0.000084	0.325851
O78	O	1.129833	-0.000004	0.491666
C79	C	1.112086	-0.000026	0.575374
H80	H	1.046784	0.042951	0.578676
H81	H	1.115242	-0.108918	0.600464
C82	C	1.256854	0.036205	0.624404
C83	C	1.176652	0.089001	0.628460
H84	H	1.296683	0.091116	0.657152
H85	H	1.268812	0.036215	0.568009
H86	H	1.259472	-0.054537	0.645311
H87	H	1.174032	0.179735	0.607544
H88	H	1.164696	0.089009	0.684854
H89	H	0.936212	-0.588156	-0.159612
H90	H	0.846050	-0.000049	0.289792
