data_functionalizedCrystal
_audit_creation_method	'MofGen! by Chris Wilmer'
_symmetry_space_group_name_H-M	'P1'
_symmetry_Int_Tables_number	1
_symmetry_cell_setting	triclinic
loop_
_symmetry_equiv_pos_as_xyz
  x,y,z
_cell_length_a	14.853567
_cell_length_b	9.616153
_cell_length_c	14.853567
_cell_angle_alpha	90.001538
_cell_angle_beta	96.365070
_cell_angle_gamma	90.003896
loop_
_atom_site_label
_atom_site_type_symbol
_atom_site_fract_x
_atom_site_fract_y
_atom_site_fract_z
O1	O	1.196368	0.115538	-0.117701
O2	O	0.933909	0.115560	-0.131722
O3	O	1.072149	0.115553	0.006519
O4	O	1.058128	0.115545	-0.255941
O5	O	1.072130	-0.115739	0.006516
O6	O	0.933890	-0.115731	-0.131725
O7	O	1.196349	-0.115754	-0.117704
Zn8	Zn	1.065117	-0.152465	-0.124715
Zn9	Zn	1.065142	0.152271	-0.124711
O10	O	1.058109	-0.115746	-0.255944
C11	C	0.900311	-0.000083	-0.131088
C12	C	0.800227	-0.000073	-0.129184
N13	N	1.065106	-0.360440	-0.124717
C14	C	0.387693	-0.000102	-0.039019
C15	C	0.366412	-0.000105	-0.203251
C16	C	0.460446	-0.000101	-0.205042
C17	C	0.518108	-0.000095	-0.123819
C18	C	0.481736	-0.000093	-0.040806
C19	C	0.496825	-0.000088	-0.288053
C20	C	0.590864	-0.000082	-0.289846
C21	C	0.648528	-0.000086	-0.208623
C22	C	0.612150	-0.000086	-0.125607
C23	C	0.669812	-0.000081	-0.044384
C24	C	0.633437	-0.000091	0.038633
C25	C	0.539399	-0.000098	0.040417
C26	C	0.742565	-0.000079	-0.210407
C27	C	0.763855	-0.000072	-0.046172
C28	C	0.990934	-0.580805	-0.198422
C29	C	0.991094	-0.419638	-0.198695
C30	C	1.159202	-0.418898	-0.145382
C31	C	1.158797	-0.580116	-0.145903
C32	C	1.046122	-0.580346	-0.030100
C33	C	1.043954	-0.419119	-0.030731
C34	C	1.229947	-0.000108	-0.118337
C35	C	1.330031	-0.000108	-0.120241
C36	C	1.071504	-0.000089	0.040106
C37	C	1.069601	-0.000077	0.140189
N38	N	1.065159	0.360246	-0.124701
C39	C	1.058754	-0.000101	-0.289531
C40	C	1.060657	-0.000105	-0.389615
C41	C	0.979435	-0.000096	0.552723
C42	C	1.143668	-0.000110	0.574004
C43	C	1.145458	-0.000101	0.479971
C44	C	1.064235	-0.000093	0.422309
C45	C	0.981223	-0.000092	0.458680
C46	C	1.228469	-0.000116	0.443591
C47	C	1.230262	-0.000110	0.349552
C48	C	1.149039	-0.000091	0.291889
C49	C	1.066023	-0.000089	0.328266
C50	C	0.984800	-0.000080	0.270604
C51	C	0.901783	-0.000068	0.306979
C52	C	0.899999	-0.000073	0.401017
C53	C	1.150823	-0.000086	0.197851
C54	C	0.986588	-0.000076	0.176561
H55	H	0.810798	-0.000073	0.019971
H56	H	0.974735	-0.380913	-0.015051
H57	H	1.215761	-0.619107	-0.094332
H58	H	0.772178	-0.000074	-0.277998
O59	O	0.898978	-0.000066	0.114375
H60	H	0.914164	-0.000060	0.042873
O61	O	0.889900	-0.000101	0.591953
H62	H	0.885162	0.094163	0.634296
O63	O	1.316066	-0.000134	0.505785
H64	H	1.374091	-0.000158	0.464695
H65	H	1.002936	-0.621307	-0.268226
O66	O	1.007211	-0.368518	-0.291680
H67	H	1.014930	-0.458949	-0.336625
O68	O	0.898450	-0.367269	-0.182381
H69	H	0.853128	-0.457095	-0.174229
H70	H	0.319459	-0.000098	-0.269379
O71	O	0.695631	-0.000094	0.126238
H72	H	0.767130	-0.000093	0.111041
H73	H	0.509774	-0.000139	0.108005
H74	H	1.176351	-0.378511	-0.213594
O75	O	1.180993	-0.629929	-0.237293
H76	H	1.191909	-0.538869	-0.280702
H77	H	0.449870	-0.000079	-0.354180
O78	O	0.630098	-0.000105	-0.379379
H79	H	0.574202	-0.000126	-0.435557
H80	H	1.094489	-0.378827	0.026706
H81	H	1.218414	-0.000105	0.168238
H82	H	1.297860	-0.000118	0.319944
O83	O	0.814178	-0.000062	0.244785
H84	H	0.829375	-0.000059	0.173287
O85	O	0.810464	-0.000090	0.440247
H86	H	0.822869	-0.000118	0.515324
H87	H	0.920775	-0.619610	-0.186291
H88	H	1.215754	-0.380549	-0.093123
O89	O	0.957192	-0.634241	-0.003818
H90	H	0.901402	-0.601939	-0.055524
O91	O	0.348469	-0.000122	0.050520
H92	H	0.306138	0.094145	0.055275
O93	O	1.117806	-0.630847	0.042580
H94	H	1.166762	-0.697932	0.011534
O95	O	1.231270	-0.000133	0.636189
H96	H	1.216081	-0.000134	0.707690
