data_functionalizedCrystal
_audit_creation_method	'MofGen! by Chris Wilmer'
_symmetry_space_group_name_H-M	'P1'
_symmetry_Int_Tables_number	1
_symmetry_cell_setting	triclinic
loop_
_symmetry_equiv_pos_as_xyz
  x,y,z
_cell_length_a	10.686220
_cell_length_b	12.594516
_cell_length_c	10.686551
_cell_angle_alpha	85.596700
_cell_angle_beta	90.308082
_cell_angle_gamma	94.397503
loop_
_atom_site_label
_atom_site_type_symbol
_atom_site_fract_x
_atom_site_fract_y
_atom_site_fract_z
Zn1	Zn	1.972283	-0.259491	-0.562399
Zn2	Zn	1.956050	-0.452140	-0.352650
Zn3	Zn	1.746401	-0.286719	-0.368718
Zn4	Zn	1.762480	-0.449983	-0.578427
O5	O	1.859303	-0.362083	-0.465548
O6	O	2.145671	-0.274554	-0.521143
O7	O	1.914717	-0.442494	-0.179236
O8	O	1.776429	-0.134156	-0.394426
O9	O	2.133745	-0.416093	-0.367041
O10	O	1.942383	-0.114152	-0.536723
O11	O	1.760688	-0.320960	-0.191041
O12	O	1.572992	-0.318868	-0.409968
O13	O	1.803834	-0.412416	-0.751846
O14	O	1.584805	-0.438818	-0.564041
O15	O	1.957975	-0.272463	-0.740070
O16	O	1.930308	-0.600805	-0.382583
O17	O	1.788093	-0.599220	-0.548461
C18	C	1.533382	-0.381564	-0.490488
C19	C	1.393954	-0.389922	-0.501188
C20	C	1.859220	-0.638630	-0.465542
C21	C	1.859303	-0.756928	-0.465573
C22	C	1.781939	-0.825363	-0.555736
C23	C	1.742587	-0.906041	-0.443608
C24	C	1.898771	-0.887040	-0.577711
C25	C	1.819885	-0.836056	-0.353389
C26	C	1.976128	-0.817041	-0.487566
C27	C	1.936813	-0.897690	-0.375356
C28	C	2.186497	-0.342527	-0.440512
C29	C	2.325928	-0.334193	-0.429842
C30	C	1.884508	-0.339162	-0.792747
C31	C	1.895249	-0.329394	-0.932180
C32	C	1.859423	-0.084453	-0.465579
C33	C	1.859474	0.033857	-0.465592
C34	C	1.834268	-0.384834	-0.139617
C35	C	1.823770	-0.394288	-0.000166
H36	H	1.643870	-0.944860	-0.425026
C37	C	2.025290	-0.940315	-0.272265
C38	C	2.042591	-1.060773	-0.253800
C39	C	2.131062	-1.103405	-0.150710
C40	C	2.202230	-1.025579	-0.066085
C41	C	2.184930	-0.905114	-0.084548
C42	C	2.096460	-0.862482	-0.187638
H43	H	1.989906	-1.118391	-0.316447
H44	H	2.143868	-1.192581	-0.137043
H45	H	2.267721	-1.057137	0.010228
H46	H	2.237615	-0.847496	-0.021902
H47	H	2.083654	-0.773305	-0.201305
H48	H	1.964673	-0.266362	-0.980651
C49	C	1.391339	-0.261091	-0.336267
C50	C	1.374268	-0.140431	-0.348096
C51	C	1.439689	-0.067328	-0.254519
C52	C	1.522180	-0.114886	-0.149112
C53	C	1.539254	-0.235553	-0.137278
C54	C	1.473834	-0.308656	-0.230855
H55	H	1.313200	-0.105220	-0.426129
H56	H	1.427048	0.021997	-0.263280
H57	H	1.570608	-0.060771	-0.079841
H58	H	1.600322	-0.270764	-0.059245
H59	H	1.486474	-0.397981	-0.222094
C60	C	1.328538	-0.463027	-0.594768
C61	C	1.184428	-0.471575	-0.605701
C62	C	1.119011	-0.544678	-0.699279
C63	C	1.197705	-0.609235	-0.781925
C64	C	1.341824	-0.600689	-0.770996
C65	C	1.407240	-0.527586	-0.677417
H66	H	1.126166	-0.423784	-0.544519
H67	H	1.012325	-0.551004	-0.707370
H68	H	1.149280	-0.663350	-0.851198
H69	H	1.400085	-0.648480	-0.832178
H70	H	1.513926	-0.521260	-0.669327
H71	H	1.754361	-0.457322	-0.951701
C72	C	1.693383	-0.782496	-0.658613
C73	C	1.552752	-0.819931	-0.654990
C74	C	1.464194	-0.777063	-0.757858
C75	C	1.516266	-0.696760	-0.864350
C76	C	1.656903	-0.659321	-0.867977
C77	C	1.745462	-0.702189	-0.765108
H78	H	1.514199	-0.879380	-0.576155
H79	H	1.360084	-0.804778	-0.755173
H80	H	1.450709	-0.665026	-0.940499
H81	H	1.695457	-0.599872	-0.946811
H82	H	1.849572	-0.674474	-0.767794
H83	H	1.786459	-0.813470	-0.258545
C84	C	1.943781	-0.917740	-0.705810
C85	C	1.870433	-0.886800	-0.825861
C86	C	1.915431	-0.917497	-0.953962
C87	C	2.033778	-0.979133	-0.962012
C88	C	2.107133	-1.010076	-0.841957
C89	C	2.062135	-0.979379	-0.713856
H90	H	1.782819	-0.841171	-0.819906
H91	H	1.861128	-0.894591	-1.042835
H92	H	2.067088	-1.001856	-1.056841
H93	H	2.194747	-1.055706	-0.847912
H94	H	2.116438	-1.002286	-0.624983
H95	H	2.074827	-0.778222	-0.506205
