data_functionalizedCrystal
_audit_creation_method	'MofGen! by Chris Wilmer'
_symmetry_space_group_name_H-M	'P1'
_symmetry_Int_Tables_number	1
_symmetry_cell_setting	triclinic
loop_
_symmetry_equiv_pos_as_xyz
  x,y,z
_cell_length_a	11.169417
_cell_length_b	19.805405
_cell_length_c	19.805398
_cell_angle_alpha	89.969674
_cell_angle_beta	89.991171
_cell_angle_gamma	90.027289
loop_
_atom_site_label
_atom_site_type_symbol
_atom_site_fract_x
_atom_site_fract_y
_atom_site_fract_z
Zn1	Zn	1.834698	-0.269456	-0.382634
Zn2	Zn	1.834570	-0.382647	-0.269442
Zn3	Zn	1.634022	-0.269479	-0.269467
Zn4	Zn	1.633935	-0.382610	-0.382598
O5	O	1.734306	-0.326048	-0.326035
O6	O	2.002631	-0.284477	-0.367624
O7	O	1.807949	-0.367659	-0.174729
O8	O	1.660733	-0.174759	-0.284505
O9	O	2.002536	-0.367637	-0.284462
O10	O	1.808168	-0.174743	-0.367648
O11	O	1.660608	-0.284515	-0.174747
O12	O	1.466061	-0.284480	-0.284469
O13	O	1.660584	-0.367576	-0.477319
O14	O	1.465997	-0.367597	-0.367586
O15	O	1.808084	-0.284442	-0.477346
O16	O	1.807865	-0.477358	-0.284427
O17	O	1.660459	-0.477332	-0.367562
C18	C	1.422482	-0.326038	-0.326027
C19	C	1.289082	-0.326050	-0.326039
C20	C	1.734171	-0.501904	-0.326003
C21	C	1.734223	-0.577136	-0.326011
C22	C	1.811052	-0.612472	-0.282768
C23	C	1.811103	-0.683160	-0.282783
C24	C	1.734318	-0.718512	-0.326038
C25	C	1.657486	-0.683171	-0.369286
C26	C	1.657442	-0.612484	-0.369274
C27	C	1.657663	-0.968244	-0.369336
C28	C	1.657711	-1.038936	-0.369343
C29	C	1.811324	-1.038920	-0.282845
C30	C	1.811280	-0.968233	-0.282833
C31	C	1.734453	-0.932899	-0.326083
C32	C	1.734400	-0.856250	-0.326067
C33	C	1.734364	-0.795159	-0.326051
C34	C	2.047349	-0.326059	-0.326044
C35	C	2.180749	-0.326063	-0.326048
C36	C	1.734338	-0.326002	-0.502578
C37	C	1.734352	-0.325983	-0.577810
C38	C	1.734475	-0.149505	-0.326083
C39	C	1.734546	-0.074273	-0.326103
C40	C	1.811262	-0.369168	-1.039589
C41	C	1.811229	-0.369187	-0.968901
C42	C	1.734501	-0.325906	-0.933572
C43	C	1.657793	-0.282610	-0.968935
C44	C	1.657821	-0.282595	-1.039622
C45	C	1.657677	-0.282668	-0.683862
C46	C	1.657658	-0.282684	-0.613170
C47	C	1.811085	-0.369259	-0.613140
C48	C	1.811113	-0.369244	-0.683828
C49	C	1.734401	-0.325951	-0.719185
C50	C	1.734436	-0.325932	-0.795833
C51	C	1.734471	-0.325921	-0.856925
C52	C	1.734343	-0.326045	-0.150179
C53	C	1.734562	-0.325874	-0.074948
H54	H	1.873663	-0.711927	-0.247570
H55	H	1.873800	-0.939452	-0.247609
H56	H	1.873885	-1.067698	-0.247632
H57	H	1.595173	-0.247438	-0.584407
H58	H	1.595212	-0.247416	-0.712641
H59	H	1.873596	-0.404485	-0.712589
C60	C	1.574302	-1.077198	-0.416387
C61	C	1.507035	-1.031125	-0.454276
C62	C	1.430203	-1.066347	-0.497623
H63	H	1.521949	-1.104817	-0.390552
H64	H	1.620176	-1.104717	-0.445937
H65	H	1.461165	-1.003617	-0.424730
H66	H	1.559357	-1.003504	-0.480125
H67	H	1.476076	-1.093866	-0.527172
H68	H	1.377857	-1.093965	-0.471782
H69	H	1.384561	-1.035092	-0.523340
H70	H	1.873748	-0.404409	-1.068349
C71	C	1.574440	-0.929856	-0.416371
C72	C	1.642304	-0.889226	-0.459799
C73	C	1.565674	-0.853859	-0.503145
H74	H	1.522135	-0.902267	-0.390530
H75	H	1.528739	-0.961017	-0.442168
H76	H	1.687985	-0.858068	-0.434005
H77	H	1.694606	-0.916798	-0.485655
H78	H	1.519973	-0.885021	-0.528941
H79	H	1.513373	-0.826275	-0.477298
H80	H	1.611709	-0.826293	-0.532619
C81	C	1.574618	-0.235644	-0.930458
C82	C	1.591033	-0.244908	-0.860985
C83	C	1.514446	-0.201646	-0.825521
H84	H	1.493924	-0.245502	-0.941960
H85	H	1.592243	-0.190151	-0.942020
H86	H	1.573399	-0.290391	-0.849428
H87	H	1.671711	-0.235046	-0.849464
H88	H	1.532071	-0.156153	-0.837082
H89	H	1.433757	-0.211507	-0.837028
H90	H	1.525581	-0.207921	-0.778380
C91	C	1.894489	-0.574007	-0.235913
C92	C	1.971321	-0.533349	-0.274265
C93	C	2.048194	-0.497902	-0.231125
H94	H	1.940367	-0.605101	-0.210147
H95	H	1.848632	-0.546436	-0.206404
H96	H	2.017174	-0.560918	-0.303762
H97	H	1.925476	-0.502243	-0.300030
H98	H	2.002336	-0.470331	-0.201617
H99	H	2.094063	-0.529001	-0.205362
H100	H	2.100326	-0.470307	-0.257141
C101	C	1.574270	-0.721516	-0.416363
C102	C	1.600332	-0.704278	-0.483342
C103	C	1.523705	-0.739593	-0.526728
H104	H	1.493592	-0.710005	-0.406508
H105	H	1.585308	-0.768682	-0.410222
H106	H	1.589284	-0.657122	-0.489481
H107	H	1.680996	-0.715791	-0.493219
H108	H	1.534743	-0.786759	-0.520587
H109	H	1.443031	-0.728079	-0.516867
H110	H	1.541384	-0.727907	-0.572179
H111	H	1.873671	-0.404450	-0.940115
C112	C	1.574228	-0.574079	-0.416307
C113	C	1.642114	-0.533451	-0.459725
C114	C	1.565502	-0.498070	-0.503070
H115	H	1.521927	-0.546489	-0.390465
H116	H	1.528522	-0.605233	-0.442110
H117	H	1.687799	-0.502301	-0.433924
H118	H	1.694411	-0.561024	-0.485582
H119	H	1.519796	-0.529224	-0.528874
H120	H	1.513205	-0.470484	-0.477223
H121	H	1.611552	-0.470504	-0.532539
H122	H	1.873544	-0.404513	-0.584344
C123	C	1.574502	-0.235514	-1.077892
C124	C	1.507323	-0.197601	-1.031825
C125	C	1.430562	-0.154218	-1.067053
H126	H	1.522090	-0.261325	-1.105462
H127	H	1.620423	-0.205982	-1.105462
H128	H	1.461406	-0.227129	-1.004267
H129	H	1.559704	-0.171777	-1.004253
H130	H	1.476483	-0.124686	-1.094623
H131	H	1.378158	-0.180034	-1.094622
H132	H	1.384980	-0.128484	-1.035802
