data_functionalizedCrystal
_audit_creation_method	'MofGen! by Chris Wilmer'
_symmetry_space_group_name_H-M	'P1'
_symmetry_Int_Tables_number	1
_symmetry_cell_setting	triclinic
loop_
_symmetry_equiv_pos_as_xyz
  x,y,z
_cell_length_a	19.288859
_cell_length_b	10.654546
_cell_length_c	17.766277
_cell_angle_alpha	90.013515
_cell_angle_beta	89.993242
_cell_angle_gamma	96.191375
loop_
_atom_site_label
_atom_site_type_symbol
_atom_site_fract_x
_atom_site_fract_y
_atom_site_fract_z
O1	O	0.922377	-0.156617	-0.062624
O2	O	1.422377	0.343383	0.437376
O3	O	0.720254	-0.177758	-0.062624
O4	O	1.220254	0.322242	0.437376
O5	O	0.825964	0.015652	-0.062602
O6	O	1.325964	0.515652	0.437398
O7	O	0.816667	-0.350027	-0.062646
O8	O	1.316667	0.149973	0.437354
O9	O	0.825952	0.015656	0.062587
O10	O	1.325952	0.515656	0.562587
O11	O	0.720242	-0.177754	0.062564
O12	O	1.220242	0.322246	0.562564
O13	O	0.922365	-0.156613	0.062565
O14	O	1.422365	0.343387	0.562565
Cu15	Cu	0.821302	-0.167183	0.073995
Cu16	Cu	1.321302	0.332817	0.573995
Cu17	Cu	0.821316	-0.167188	-0.074055
Cu18	Cu	1.321316	0.332812	0.425945
O19	O	0.816655	-0.350023	0.062542
O20	O	1.316655	0.149977	0.562542
C21	C	0.694367	-0.177077	-0.000030
C22	C	1.194367	0.322923	0.499970
C23	C	0.617250	-0.175039	-0.000029
C24	C	1.117250	0.324961	0.499971
C25	C	0.825276	0.062437	-0.000003
C26	C	1.325276	0.562437	0.499997
C27	C	0.823235	0.201837	0.000009
C28	C	1.323235	0.701837	0.500009
C29	C	0.053861	-0.274735	-0.000042
C30	C	0.553861	0.225265	0.499958
C31	C	0.126320	-0.276662	-0.000046
C32	C	0.626320	0.223338	0.499954
C33	C	0.170285	-0.163178	-0.000031
C34	C	0.670285	0.336822	0.499969
C35	C	0.141785	-0.047759	-0.000031
C36	C	0.641785	0.452241	0.499969
C37	C	0.069327	-0.045836	-0.000034
C38	C	0.569327	0.454164	0.499966
C39	C	0.290997	-0.078540	0.043841
C40	C	0.790997	0.421460	0.543841
C41	C	0.363453	-0.080468	0.043849
C42	C	0.863453	0.419532	0.543849
C43	C	0.393769	-0.169103	-0.000024
C44	C	0.893769	0.330897	0.499976
C45	C	0.351619	-0.255832	-0.043895
C46	C	0.851619	0.244168	0.456105
C47	C	0.279161	-0.253910	-0.043899
C48	C	0.779161	0.246090	0.456101
C49	C	0.248854	-0.165250	-0.000028
C50	C	0.748854	0.334750	0.499972
C51	C	0.500829	-0.286603	-0.000034
C52	C	1.000829	0.213397	0.499966
C53	C	0.573290	-0.288524	-0.000043
C54	C	1.073290	0.211476	0.499957
C55	C	0.588753	-0.059618	-0.000020
C56	C	1.088753	0.440382	0.499980
C57	C	0.516294	-0.057700	-0.000018
C58	C	1.016294	0.442300	0.499982
C59	C	0.472336	-0.171196	-0.000022
C60	C	0.972336	0.328804	0.499978
C61	C	0.885475	0.282657	0.000019
C62	C	1.385475	0.782657	0.500019
C63	C	0.883553	0.413637	0.000028
C64	C	1.383553	0.913637	0.500028
C65	C	0.757146	0.382963	0.000019
C66	C	1.257146	0.882963	0.500019
C67	C	0.759068	0.251986	0.000005
C68	C	1.259068	0.751986	0.500005
C69	C	0.958455	0.300368	0.000027
C70	C	1.458455	0.800368	0.500027
C71	C	0.956533	0.431348	0.000036
C72	C	1.456533	0.931348	0.500036
C73	C	0.948252	-0.157294	-0.000032
C74	C	1.448252	0.342706	0.499968
C75	C	1.025369	-0.159332	-0.000038
C76	C	1.525369	0.340668	0.499962
N77	N	0.821297	-0.167179	0.178125
N78	N	1.321297	0.332821	0.678125
C79	C	0.817345	0.603192	-0.000031
C80	C	1.317345	1.103192	0.499969
C81	C	0.819391	0.463794	0.000032
C82	C	1.319391	0.963794	0.500032
C83	C	0.868134	-0.081567	0.782424
C84	C	1.368134	0.418433	1.282424
C85	C	0.868135	-0.081569	0.703622
C86	C	1.368135	0.418431	1.203622
C87	C	0.821315	-0.167179	0.664214
C88	C	1.321315	0.332821	1.164214
C89	C	0.774501	-0.252813	0.703615
C90	C	1.274501	0.247187	1.203615
C91	C	0.774506	-0.252816	0.782415
C92	C	1.274506	0.247184	1.282415
C93	C	0.758132	-0.183940	0.539381
C94	C	1.258132	0.316060	1.039381
C95	C	0.758126	-0.183928	0.460582
C96	C	1.258126	0.316072	0.960582
C97	C	0.821300	-0.167176	0.421168
C98	C	1.321300	0.332824	0.921168
C99	C	0.884482	-0.150409	0.460562
C100	C	1.384482	0.349591	0.960562
C101	C	0.884487	-0.150412	0.539362
C102	C	1.384487	0.349588	1.039362
C103	C	0.821305	-0.167185	0.578769
C104	C	1.321305	0.332815	1.078769
C105	C	0.868115	-0.081556	0.296331
C106	C	1.368115	0.418444	0.796331
C107	C	0.868117	-0.081567	0.217528
C108	C	1.368117	0.418433	0.717528
C109	C	0.774478	-0.252805	0.217522
C110	C	1.274478	0.247195	0.717522
C111	C	0.774481	-0.252799	0.296324
C112	C	1.274481	0.247201	0.796324
C113	C	0.821299	-0.167168	0.335724
C114	C	1.321299	0.332832	0.835724
N115	N	0.821324	-0.167185	0.821815
N116	N	1.321324	0.332815	1.321815
H117	H	0.018074	-0.367153	-0.000048
H118	H	0.518074	0.132847	0.499952
H119	H	0.736362	-0.322513	0.328398
H120	H	1.236362	0.177487	0.828398
Br121	Br	0.710963	-0.369008	0.650135
Br122	Br	1.210963	0.130992	1.150135
Br123	Br	1.006040	0.252440	-0.087290
Br124	Br	1.506040	0.752440	0.412710
Br125	Br	1.002355	0.501949	0.087360
Br126	Br	1.502355	1.001949	0.587360
Br127	Br	0.931669	0.034636	0.650154
Br128	Br	1.431669	0.534636	1.150154
H129	H	0.906239	-0.011833	0.328412
H130	H	1.406239	0.488167	0.828412
Br131	Br	0.420649	0.037220	0.103398
Br132	Br	0.920649	0.537220	0.603398
H133	H	0.978595	0.477462	-0.054012
H134	H	1.478595	0.977462	0.445988
Br135	Br	0.997164	0.241804	0.090119
Br136	Br	1.497164	0.741804	0.590119
Br137	Br	0.674596	0.142302	-0.000032
Br138	Br	1.174596	0.642302	0.499968
Br139	Br	0.970229	-0.127668	0.592824
Br140	Br	1.470229	0.372332	1.092824
H141	H	0.704903	0.423810	0.000016
H142	H	1.204903	0.923810	0.500016
Br143	Br	0.931656	0.034627	0.164065
Br144	Br	1.431656	0.534627	0.664065
Br145	Br	0.931673	0.034639	0.835896
Br146	Br	1.431673	0.534639	1.335896
H147	H	0.706680	-0.197567	0.428514
H148	H	1.206680	0.302433	0.928514
Br149	Br	0.970224	-0.127657	0.407082
Br150	Br	1.470224	0.372343	0.907082
H151	H	0.244845	-0.324525	-0.079622
H152	H	0.744845	0.175475	0.420378
Br153	Br	0.672389	-0.206688	0.592864
Br154	Br	1.172389	0.293312	1.092864
Br155	Br	0.249867	0.041834	0.103338
Br156	Br	0.749867	0.541834	0.603338
H157	H	0.736387	-0.322539	0.814487
H158	H	1.236387	0.177461	1.314487
Br159	Br	0.164999	-0.433292	-0.000052
Br160	Br	0.664999	0.066708	0.499948
Br161	Br	0.392750	-0.376149	-0.103430
Br162	Br	0.892750	0.123851	0.396570
Br163	Br	0.710942	-0.369003	0.164046
Br164	Br	1.210942	0.130997	0.664046
H165	H	0.465037	-0.379018	-0.000038
H166	H	0.965037	0.120982	0.499962
H167	H	0.624549	0.032783	-0.000013
H168	H	1.124549	0.532783	0.499987
Br169	Br	0.611959	-0.445157	-0.000060
Br170	Br	1.111959	0.054843	0.499940
Br171	Br	0.201449	0.106257	-0.000017
Br172	Br	0.701449	0.606257	0.499983
Br173	Br	0.477623	0.098928	-0.000019
Br174	Br	0.977623	0.598928	0.499981
Br175	Br	0.030656	0.110795	-0.000033
Br176	Br	0.530656	0.610795	0.499967
