data_functionalizedCrystal
_audit_creation_method	'MofGen! by Chris Wilmer'
_symmetry_space_group_name_H-M	'P1'
_symmetry_Int_Tables_number	1
_symmetry_cell_setting	triclinic
loop_
_symmetry_equiv_pos_as_xyz
  x,y,z
_cell_length_a	12.759401
_cell_length_b	19.077068
_cell_length_c	12.759393
_cell_angle_alpha	92.262182
_cell_angle_beta	89.981636
_cell_angle_gamma	92.327081
loop_
_atom_site_label
_atom_site_type_symbol
_atom_site_fract_x
_atom_site_fract_y
_atom_site_fract_z
Zn1	Zn	1.589360	-0.280162	-0.610734
Zn2	Zn	1.582156	-0.397876	-0.442092
Zn3	Zn	1.413660	-0.280197	-0.435075
Zn4	Zn	1.406555	-0.397824	-0.617731
O5	O	1.497933	-0.339015	-0.526408
O6	O	1.735425	-0.295785	-0.588371
O7	O	1.559763	-0.382302	-0.294143
O8	O	1.442955	-0.181702	-0.452511
O9	O	1.730132	-0.382268	-0.464471
O10	O	1.572041	-0.181676	-0.581567
O11	O	1.435970	-0.295844	-0.288987
O12	O	1.265697	-0.295793	-0.459296
O13	O	1.430846	-0.382179	-0.763821
O14	O	1.260477	-0.382213	-0.593493
O15	O	1.565151	-0.295734	-0.758681
O16	O	1.552874	-0.496360	-0.471256
O17	O	1.423861	-0.496322	-0.600297
C18	C	1.224966	-0.339002	-0.526393
C19	C	1.108189	-0.339013	-0.526412
C20	C	1.486843	-0.521878	-0.537320
C21	C	1.482195	-0.600108	-0.542024
C22	C	1.050632	-0.384084	-0.596182
C23	C	0.940907	-0.384093	-0.596194
C24	C	0.946306	-0.293958	-0.456658
C25	C	1.056029	-0.293947	-0.456652
C26	C	1.047514	-0.436125	-0.676738
C27	C	0.937789	-0.436134	-0.676750
C28	C	1.547234	-0.636857	-0.477105
C29	C	1.542868	-0.710362	-0.481535
C30	C	1.473458	-0.747117	-0.550879
C31	C	1.408417	-0.710363	-0.615805
C32	C	1.412788	-0.636859	-0.611380
C33	C	1.453180	-0.966950	-0.571318
C34	C	1.448811	-1.040459	-0.575737
C35	C	1.583265	-1.040453	-0.441467
C36	C	1.587626	-0.966948	-0.437043
C37	C	1.522589	-0.930200	-0.501973
N38	N	1.468992	-0.822251	-0.555407
N39	N	1.527061	-0.855068	-0.497450
C40	C	1.771965	-0.339028	-0.526424
C41	C	1.888741	-0.339034	-0.526430
C42	C	1.498010	-0.338947	-0.800437
C43	C	1.498042	-0.338918	-0.917212
C44	C	1.509094	-0.155438	-0.515476
C45	C	1.513850	-0.077208	-0.510817
C46	C	1.568010	-0.293868	-1.079122
C47	C	1.567983	-0.293897	-0.969400
C48	C	1.428131	-0.383918	-0.974754
C49	C	1.428164	-0.383891	-1.084474
C50	C	1.648749	-0.241893	-1.076030
C51	C	1.648723	-0.241922	-0.966307
C52	C	1.497919	-0.339032	-0.253442
C53	C	1.498102	-0.338863	-0.136655
H54	H	1.102888	-0.257241	-0.399846
H55	H	1.636217	-1.070381	-0.388606
H56	H	1.622756	-0.190106	-1.106978
N57	N	1.755357	-0.261234	-1.116645
H58	H	1.786558	-0.221575	-1.158268
H59	H	1.802832	-0.269899	-1.055576
N60	N	1.373944	-1.080104	-0.650532
H61	H	1.333407	-1.045672	-0.690996
H62	H	1.414877	-1.110554	-0.701015
H63	H	1.359828	-0.606938	-0.664245
N64	N	1.352777	-0.432430	-1.146531
H65	H	1.308468	-0.460957	-1.096823
H66	H	1.305906	-0.403772	-1.190349
H67	H	1.371191	-0.420579	-0.932254
H68	H	1.078198	-0.421589	-0.757276
H69	H	1.078407	-0.487876	-0.650548
H70	H	1.351906	-0.740294	-0.672272
H71	H	1.400222	-0.937036	-0.624185
H72	H	1.724822	-0.261462	-0.933444
N73	N	0.894299	-0.410302	-0.777625
H74	H	0.953988	-0.397824	-0.826364
H75	H	0.847400	-0.448409	-0.812133
N76	N	1.624231	-0.169730	-0.922549
H77	H	1.613313	-0.137495	-0.982162
H78	H	1.558404	-0.172930	-0.878730
N79	N	0.890044	-0.245364	-0.381405
H80	H	0.846500	-0.212786	-0.422233
H81	H	0.842837	-0.273992	-0.334379
N82	N	0.893947	-0.508312	-0.652009
H83	H	0.918189	-0.543729	-0.706777
H84	H	0.919503	-0.521157	-0.580635
N85	N	1.622095	-0.597217	-0.402307
H86	H	1.662636	-0.631654	-0.361857
H87	H	1.672508	-0.566670	-0.443278
N88	N	1.613017	-0.750000	-0.411515
H89	H	1.657645	-0.715562	-0.366909
H90	H	1.568457	-0.780548	-0.364701
N91	N	1.662505	-0.927307	-0.362265
H92	H	1.703053	-0.961741	-0.321816
H93	H	1.712911	-0.896766	-0.403252
