data_functionalizedCrystal
_audit_creation_method	'MofGen! by Chris Wilmer'
_symmetry_space_group_name_H-M	'P1'
_symmetry_Int_Tables_number	1
_symmetry_cell_setting	triclinic
loop_
_symmetry_equiv_pos_as_xyz
  x,y,z
_cell_length_a	14.519709
_cell_length_b	10.654550
_cell_length_c	9.130313
_cell_angle_alpha	89.998405
_cell_angle_beta	90.002092
_cell_angle_gamma	84.082537
loop_
_atom_site_label
_atom_site_type_symbol
_atom_site_fract_x
_atom_site_fract_y
_atom_site_fract_z
O1	O	1.224720	0.164623	-0.121599
O2	O	0.956343	0.184009	-0.121642
O3	O	1.096702	-0.008483	-0.121621
O4	O	1.084361	0.357115	-0.121620
O5	O	1.096692	-0.008488	0.121978
O6	O	0.956334	0.184004	0.121956
O7	O	1.224710	0.164617	0.122000
Cu8	Cu	1.090521	0.174310	0.144221
Cu9	Cu	1.090532	0.174317	-0.143863
O10	O	1.084351	0.357109	0.121978
C11	C	0.921974	0.183103	0.000151
C12	C	0.819579	0.180396	0.000134
C13	C	1.095791	-0.055275	0.000175
C14	C	1.093080	-0.194692	0.000165
C15	C	1.089255	-0.391192	-0.132611
C16	C	1.091811	-0.260197	-0.132619
C17	C	1.091801	-0.260191	0.132966
C18	C	1.089251	-0.391185	0.132973
C19	C	0.444631	0.170428	0.000201
C20	C	0.548954	0.173196	0.000182
C21	C	0.632102	0.175412	0.000166
C22	C	0.736431	0.178180	0.000150
C23	C	1.259079	0.165524	0.000203
C24	C	1.361475	0.168231	0.000211
C25	C	1.085262	0.403901	0.000179
C26	C	1.087973	0.543318	0.000180
N27	N	1.090520	0.174305	0.346843
N28	N	1.090541	0.174312	-0.346486
C29	C	1.152692	0.089105	0.423505
C30	C	1.152701	0.089105	0.576842
C31	C	1.028362	0.259516	0.576842
C32	C	1.028350	0.259509	0.423508
H33	H	1.092856	-0.206881	-0.240751
H34	H	0.977746	0.328889	0.639278
O35	O	1.213185	0.006298	0.651083
C36	C	1.268034	-0.068924	0.550530
H37	H	1.269392	-0.017432	0.441225
H38	H	1.341563	-0.087854	0.594825
H39	H	1.237500	-0.162312	0.534231
H40	H	1.088213	-0.444516	-0.240739
H41	H	0.977717	0.328889	0.361086
H42	H	1.088211	-0.444509	0.241114
O43	O	1.092867	-0.196469	0.261909
C44	C	1.014619	-0.106634	0.269801
H45	H	0.958132	-0.136310	0.194437
H46	H	0.987874	-0.100419	0.387238
H47	H	1.034576	-0.010534	0.234111
H48	H	1.203313	0.019725	0.361088
