data_functionalizedCrystal
_audit_creation_method	'MofGen! by Chris Wilmer'
_symmetry_space_group_name_H-M	'P1'
_symmetry_Int_Tables_number	1
_symmetry_cell_setting	triclinic
loop_
_symmetry_equiv_pos_as_xyz
  x,y,z
_cell_length_a	8.597187
_cell_length_b	8.559649
_cell_length_c	7.540329
_cell_angle_alpha	89.998238
_cell_angle_beta	82.295245
_cell_angle_gamma	77.625088
loop_
_atom_site_label
_atom_site_type_symbol
_atom_site_fract_x
_atom_site_fract_y
_atom_site_fract_z
O1	O	2.053774	0.238052	-0.461293
O2	O	1.594633	0.256310	-0.391138
O3	O	1.864654	0.015212	-0.432395
O4	O	1.783753	0.479151	-0.420037
O5	O	1.864640	0.015208	-0.137428
O6	O	1.594619	0.256307	-0.096171
O7	O	2.053760	0.238049	-0.166326
Cu8	Cu	1.824188	0.247178	-0.104316
Cu9	Cu	1.824205	0.247182	-0.453149
O10	O	1.783739	0.479148	-0.125070
C11	C	1.536389	0.254347	-0.234757
C12	C	1.362867	0.248483	-0.208243
C13	C	1.870778	-0.044224	-0.285851
C14	C	1.889028	-0.221319	-0.288650
C15	C	2.112003	0.240012	-0.322712
C16	C	2.285526	0.245876	-0.349237
C17	C	1.777615	0.538584	-0.271617
C18	C	1.759365	0.715679	-0.268831
N19	N	1.824188	0.247174	0.141033
N20	N	1.824219	0.247173	-0.698499
H21	H	1.296327	0.246247	-0.067259
N22	N	2.054586	-0.329321	-0.313945
H23	H	2.115030	-0.307771	-0.213839
H24	H	2.044471	-0.444724	-0.312455
N25	N	1.373651	0.248836	-0.536008
H26	H	1.320760	0.346483	-0.598270
H27	H	1.489266	0.252672	-0.528967
N28	N	1.593818	-0.176322	-0.243510
H29	H	1.603808	-0.060877	-0.245038
H30	H	1.533442	-0.197990	-0.343623
