data_functionalizedCrystal
_audit_creation_method	'MofGen! by Chris Wilmer'
_symmetry_space_group_name_H-M	'P1'
_symmetry_Int_Tables_number	1
_symmetry_cell_setting	triclinic
loop_
_symmetry_equiv_pos_as_xyz
  x,y,z
_cell_length_a	18.050591
_cell_length_b	18.050589
_cell_length_c	18.050582
_cell_angle_alpha	89.981795
_cell_angle_beta	90.020922
_cell_angle_gamma	89.975773
loop_
_atom_site_label
_atom_site_type_symbol
_atom_site_fract_x
_atom_site_fract_y
_atom_site_fract_z
Zn1	Zn	1.135293	0.295786	0.420054
Zn2	Zn	1.135203	0.419969	0.295873
Zn3	Zn	1.011112	0.295789	0.295865
Zn4	Zn	1.011060	0.419930	0.420009
O5	O	1.073167	0.357868	0.357950
O6	O	1.239205	0.312274	0.403603
O7	O	1.118727	0.403514	0.191948
O8	O	1.027644	0.191864	0.312354
O9	O	1.239140	0.403511	0.312369
O10	O	1.118879	0.191862	0.403595
O11	O	1.027557	0.312279	0.191942
O12	O	0.907180	0.312241	0.312311
O13	O	1.027555	0.403444	0.523940
O14	O	0.907142	0.403447	0.403519
O15	O	1.118828	0.312236	0.523973
O16	O	1.118676	0.523888	0.312325
O17	O	1.027468	0.523860	0.403527
C18	C	0.880215	0.357841	0.357909
C19	C	0.797669	0.357847	0.357909
C20	C	1.073077	0.550820	0.357938
C21	C	1.073107	0.633366	0.357958
C22	C	0.598217	0.308191	0.308425
C23	C	0.548798	0.375927	0.290154
C24	C	0.646539	0.357869	0.357943
C25	C	0.548877	0.290157	0.376212
C26	C	0.500553	0.357885	0.357974
C27	C	0.598206	0.425641	0.339637
C28	C	0.598289	0.339825	0.425726
C29	C	0.548892	0.407607	0.407481
C30	C	0.730637	0.357859	0.357923
C31	C	0.416457	0.357903	0.357994
C32	C	1.073196	0.357835	0.551656
C33	C	1.073208	0.357821	0.634202
C34	C	1.266872	0.357897	0.357992
C35	C	1.349418	0.357909	0.358010
C36	C	1.073277	0.164163	0.357979
C37	C	1.073324	0.081617	0.357991
C38	C	1.023557	0.832828	0.407536
C39	C	1.005459	0.882261	0.339767
C40	C	1.073180	0.784497	0.357967
C41	C	1.091314	0.882146	0.425744
C42	C	1.073249	0.930482	0.357983
C43	C	1.055046	0.832842	0.290162
C44	C	1.140933	0.832722	0.376186
C45	C	1.122861	0.882133	0.308370
C46	C	1.073138	0.700398	0.357959
C47	C	1.073291	1.014578	0.357983
C48	C	1.073181	0.357848	0.164998
C49	C	1.073312	0.357652	0.082453
C50	C	1.023612	0.407353	0.833635
C51	C	1.091367	0.425511	0.883034
C52	C	1.073245	0.357765	0.785332
C53	C	1.005527	0.339586	0.883014
C54	C	1.073274	0.357711	0.931317
C55	C	1.141036	0.375958	0.833645
C56	C	1.055150	0.290002	0.833620
C57	C	1.122952	0.308134	0.882998
C58	C	1.073227	0.357797	0.701234
C59	C	1.073300	0.357679	1.015414
H60	H	0.619875	0.266226	0.266503
C61	C	1.054165	0.530226	0.956111
C62	C	1.112050	0.502837	0.912345
H63	H	1.066933	0.577963	0.974207
H64	H	1.010349	0.533594	0.927149
H65	H	1.045966	0.497700	0.996667
H66	H	1.120246	0.535361	0.871785
H67	H	1.155879	0.499474	0.941308
C68	C	1.250540	0.270680	0.887025
C69	C	1.179692	0.251495	0.912083
H70	H	1.285569	0.235717	0.904987
H71	H	1.251116	0.270677	0.834409
H72	H	1.262987	0.318653	0.904698
H73	H	1.167243	0.203523	0.894406
H74	H	1.179114	0.251489	0.964711
H75	H	0.527370	0.449673	0.449370
H76	H	1.106625	0.903802	0.483056
C77	C	0.602812	0.248203	0.522074
C78	C	0.627667	0.319179	0.503068
H79	H	0.620954	0.235451	0.569820
H80	H	0.550197	0.247615	0.522541
H81	H	0.620439	0.213406	0.486757
H82	H	0.610035	0.353977	0.538383
H83	H	0.680292	0.319772	0.502607
H84	H	1.198184	0.810948	0.391613
C85	C	0.876311	0.370889	0.887367
C86	C	0.928202	0.318853	0.912289
H87	H	0.828573	0.358090	0.905436
H88	H	0.889517	0.418660	0.905015
H89	H	0.875642	0.371196	0.834745
H90	H	0.928875	0.318549	0.964912
H91	H	0.914992	0.271069	0.894645
C92	C	0.908709	0.885678	0.248503
C93	C	0.928153	0.911640	0.318965
H94	H	0.860982	0.903811	0.235667
H95	H	0.943935	0.902557	0.213259
H96	H	0.908014	0.833057	0.248800
H97	H	0.928854	0.964262	0.318666
H98	H	0.892918	0.894765	0.354217
H99	H	0.981678	0.449342	0.811961
H100	H	0.619785	0.482928	0.324134
C101	C	0.963449	0.193798	0.829160
C102	C	1.034438	0.212698	0.804285
H103	H	0.950655	0.146076	0.811044
H104	H	0.962865	0.193323	0.881775
H105	H	0.928679	0.229174	0.811521
H106	H	1.069208	0.177325	0.821929
H107	H	1.035027	0.213168	0.751660
H108	H	0.527060	0.391202	0.232844
H109	H	1.198333	0.391377	0.812050
H110	H	0.527169	0.232894	0.391625
C111	C	1.179550	0.988753	0.252620
C112	C	1.179550	0.911185	0.251729
H113	H	1.214548	1.006689	0.217654
H114	H	1.131594	1.006458	0.240093
H115	H	1.192522	1.005717	0.300717
H116	H	1.166573	0.894221	0.203634
H117	H	1.227516	0.893473	0.264252
C118	C	0.931415	0.863434	0.498431
C119	C	0.966826	0.803595	0.464043
H120	H	0.896389	0.845384	0.533309
H121	H	0.967151	0.893065	0.523191
H122	H	0.906680	0.892427	0.462112
H123	H	0.991567	0.774604	0.500362
H124	H	0.931085	0.773951	0.439282
C125	C	1.034400	0.726164	0.213474
C126	C	1.034281	0.803734	0.212771
H127	H	1.021574	0.708195	0.165699
H128	H	1.082350	0.708795	0.226483
H129	H	0.999345	0.708896	0.248710
H130	H	1.069340	0.821001	0.177539
H131	H	0.986324	0.821110	0.199753
