data_functionalizedCrystal
_audit_creation_method	'MofGen! by Chris Wilmer'
_symmetry_space_group_name_H-M	'P1'
_symmetry_Int_Tables_number	1
_symmetry_cell_setting	triclinic
loop_
_symmetry_equiv_pos_as_xyz
  x,y,z
_cell_length_a	16.625547
_cell_length_b	16.625539
_cell_length_c	10.686285
_cell_angle_alpha	85.609990
_cell_angle_beta	85.631193
_cell_angle_gamma	89.978691
loop_
_atom_site_label
_atom_site_type_symbol
_atom_site_fract_x
_atom_site_fract_y
_atom_site_fract_z
Zn1	Zn	1.257367	-0.431441	-0.502369
Zn2	Zn	1.757367	0.068559	-0.002369
Zn3	Zn	1.267659	-0.286293	-0.713382
Zn4	Zn	1.767659	0.213707	-0.213382
Zn5	Zn	1.122538	-0.296610	-0.502406
Zn6	Zn	1.622538	0.203390	-0.002406
Zn7	Zn	1.132876	-0.421076	-0.713312
Zn8	Zn	1.632876	0.078924	-0.213312
O9	O	1.195110	-0.358855	-0.607867
O10	O	1.695110	0.141145	-0.107867
O11	O	1.371565	-0.412207	-0.530374
O12	O	1.871565	0.087793	-0.030374
O13	O	1.248389	-0.174827	-0.685440
O14	O	1.748389	0.325173	-0.185440
O15	O	1.131790	-0.323152	-0.325826
O16	O	1.631790	0.176848	0.174174
O17	O	1.379127	-0.305567	-0.685404
O18	O	1.879127	0.194433	-0.185404
O19	O	1.230848	-0.422212	-0.325799
O20	O	1.730848	0.077788	0.174201
O21	O	1.141770	-0.182407	-0.530437
O22	O	1.641770	0.317593	-0.030437
O23	O	1.011077	-0.313101	-0.530369
O24	O	1.511077	0.186899	-0.030369
O25	O	1.149409	-0.535286	-0.685285
O26	O	1.649409	-0.035286	-0.185285
O27	O	1.018672	-0.404545	-0.685321
O28	O	1.518672	0.095455	-0.185321
O29	O	1.240872	-0.542901	-0.530306
O30	O	1.740872	-0.042901	-0.030306
O31	O	1.258413	-0.295516	-0.889948
O32	O	1.758413	0.204484	-0.389948
O33	O	1.159389	-0.394541	-0.889896
O34	O	1.659389	0.105459	-0.389896
C35	C	0.985618	-0.358818	-0.607843
C36	C	1.485618	0.141182	-0.107843
C37	C	0.895998	-0.358820	-0.607863
C38	C	1.395998	0.141180	-0.107863
C39	C	0.823215	-0.358830	-0.607865
C40	C	1.323215	0.141170	-0.107865
C41	C	0.731907	-0.358850	-0.607872
C42	C	1.231907	0.141150	-0.107872
C43	C	0.659131	-0.358870	-0.607883
C44	C	1.159131	0.141130	-0.107883
C45	C	0.567818	-0.358889	-0.607892
C46	C	1.067818	0.141111	-0.107892
C47	C	1.195145	-0.569168	-0.607784
C48	C	1.695145	-0.069168	-0.107784
C49	C	1.195160	-0.658791	-0.607748
C50	C	1.695160	-0.158791	-0.107748
C51	C	1.195172	-0.731575	-0.607720
C52	C	1.695172	-0.231575	-0.107720
C53	C	1.195189	-0.822886	-0.607673
C54	C	1.695189	-0.322886	-0.107673
C55	C	1.195206	-0.895664	-0.607629
C56	C	1.695206	-0.395664	-0.107629
C57	C	1.195223	-0.986981	-0.607583
C58	C	1.695223	-0.486981	-0.107583
C59	C	1.405420	-0.358893	-0.607893
C60	C	1.905420	0.141107	-0.107893
C61	C	1.495042	-0.358909	-0.607903
C62	C	1.995042	0.141091	-0.107903
C63	C	1.211162	-0.342802	-0.935706
C64	C	1.711162	0.157198	-0.435706
C65	C	1.218102	-0.335961	-1.075957
C66	C	1.718102	0.164039	-0.575957
C67	C	1.195117	-0.149365	-0.607859
C68	C	1.695117	0.350635	-0.107859
C69	C	1.195240	-0.059760	-0.607539
C70	C	1.695240	0.440240	-0.107539
C71	C	1.179018	-0.374989	-0.278748
C72	C	1.679018	0.125011	0.221252
C73	C	1.172160	-0.381864	-0.138497
C74	C	1.672160	0.118136	0.361503
H75	H	1.127517	-0.426398	-1.084746
H76	H	1.627517	0.073602	-0.584746
H77	H	1.262742	-0.291419	-1.129716
H78	H	1.762742	0.208581	-0.629716
