data_functionalizedCrystal
_audit_creation_method	'MofGen! by Chris Wilmer'
_symmetry_space_group_name_H-M	'P1'
_symmetry_Int_Tables_number	1
_symmetry_cell_setting	triclinic
loop_
_symmetry_equiv_pos_as_xyz
  x,y,z
_cell_length_a	14.044220
_cell_length_b	17.038272
_cell_length_c	12.503572
_cell_angle_alpha	93.777379
_cell_angle_beta	86.164750
_cell_angle_gamma	92.150217
loop_
_atom_site_label
_atom_site_type_symbol
_atom_site_fract_x
_atom_site_fract_y
_atom_site_fract_z
O1	O	1.278116	0.185401	-0.089207
O2	O	1.001597	0.178559	-0.089234
O3	O	1.138213	0.068050	-0.089212
O4	O	1.141501	0.295910	-0.089229
O5	O	1.127940	0.076376	0.089428
O6	O	0.991324	0.186885	0.089406
O7	O	1.267843	0.193727	0.089433
Cu8	Cu	1.128646	0.191066	0.105731
Cu9	Cu	1.140795	0.181220	-0.105532
O10	O	1.131228	0.304236	0.089411
C11	C	0.960905	0.179728	0.000083
C12	C	0.854959	0.170796	0.000072
C13	C	0.660980	0.154469	0.000095
C14	C	0.608455	0.217814	0.000095
C15	C	0.500518	0.208729	0.000107
C16	C	0.768927	0.163552	0.000082
C17	C	1.130087	0.042876	0.000108
C18	C	1.121168	-0.044541	0.000106
C19	C	1.203055	-0.088926	0.000115
C20	C	1.194670	-0.171064	0.000104
C21	C	1.104395	-0.208815	0.000092
C22	C	1.022502	-0.164424	0.000080
C23	C	1.030888	-0.082288	0.000083
C24	C	1.074766	-0.456646	0.000074
C25	C	1.066385	-0.538788	0.000074
C26	C	1.238555	-0.545422	0.000097
C27	C	1.246933	-0.463284	0.000107
C28	C	1.165040	-0.418901	0.000089
C29	C	1.095822	-0.292772	0.000084
C30	C	1.173615	-0.334945	0.000089
C31	C	1.308536	0.192558	0.000114
C32	C	1.414481	0.201490	0.000117
C33	C	1.139354	0.329410	0.000089
C34	C	1.148273	0.416827	0.000083
N35	N	1.120107	0.197992	0.254322
N36	N	1.149340	0.174289	-0.254123
C37	C	1.107548	0.208186	0.473435
C38	C	1.161896	0.164097	0.526771
C39	C	1.154908	0.169769	0.648693
C40	C	1.114535	0.202515	0.351502
H41	H	1.261352	-0.207199	0.000114
H42	H	0.624887	0.093419	0.000105
O43	O	1.223555	0.113809	0.472176
C44	C	1.269987	-0.020701	0.437921
C45	C	1.200090	0.036198	0.499729
H46	H	1.251053	-0.083459	0.460192
H47	H	1.264775	-0.016578	0.347877
H48	H	1.345931	-0.004174	0.459992
H49	H	1.124115	0.019709	0.477748
H50	H	1.205385	0.032066	0.589757
O51	O	1.290825	-0.052386	0.000077
C52	C	1.460704	-0.067643	0.000148
C53	C	1.361363	-0.109122	0.000173
H54	H	1.517759	-0.113494	0.000248
H55	H	1.473296	-0.032861	-0.074629
H56	H	1.464591	-0.025851	0.074892
H57	H	1.357405	-0.150952	-0.074520
H58	H	1.348813	-0.143854	0.075000
O59	O	1.045731	0.258195	0.528309
C60	C	0.909723	0.271800	0.655411
C61	C	0.979674	0.215079	0.593334
H62	H	0.856286	0.236961	0.707981
H63	H	0.951111	0.316305	0.708129
H64	H	0.869946	0.304128	0.596007
H65	H	1.019469	0.182697	0.652660
H66	H	0.938233	0.170624	0.540599
O67	O	0.651665	0.290592	0.000009
C68	C	0.800205	0.366121	-0.000012
C69	C	0.751388	0.283659	0.000079
H70	H	0.880837	0.360545	0.000069
H71	H	0.782291	0.395944	-0.074803
H72	H	0.773610	0.402933	0.074718
H73	H	0.777955	0.246784	-0.074599
H74	H	0.769299	0.253898	0.074921
H75	H	1.320444	-0.432554	0.000117
H76	H	1.305227	-0.581568	0.000110
O77	O	0.978757	-0.575583	0.000107
C78	C	0.889549	-0.699183	0.000038
C79	C	0.988837	-0.657612	0.000021
H80	H	0.897666	-0.765511	-0.000054
H81	H	0.844423	-0.677973	0.074809
H82	H	0.853053	-0.684836	-0.074713
H83	H	1.025415	-0.671940	0.074721
H84	H	1.033893	-0.678826	-0.074799
H85	H	1.247117	-0.304206	0.000075
O86	O	0.995154	-0.413633	-0.000074
C87	C	0.855910	-0.387118	-0.092659
C88	C	0.946034	-0.435900	-0.092616
H89	H	0.816182	-0.405092	-0.167483
H90	H	0.807453	-0.398170	-0.017952
H91	H	0.877418	-0.321930	-0.092605
H92	H	0.924613	-0.501104	-0.092708
H93	H	0.994468	-0.424781	-0.167318
O94	O	0.934799	-0.201067	-0.000126
C95	C	0.790384	-0.224797	-0.092662
C96	C	0.889695	-0.183272	-0.092579
H97	H	0.753881	-0.210412	-0.167391
H98	H	0.798403	-0.291136	-0.092729
H99	H	0.745318	-0.203539	-0.017873
H100	H	0.934815	-0.204465	-0.167355
H101	H	0.881605	-0.116938	-0.092456
H102	H	0.964206	-0.046150	0.000075
O103	O	1.008069	-0.329347	0.000221
C104	C	0.853051	-0.344544	0.092788
C105	C	0.952385	-0.303051	0.092759
H106	H	0.808009	-0.323311	0.167608
H107	H	0.816479	-0.330217	0.018076
H108	H	0.861155	-0.410872	0.092730
H109	H	0.944366	-0.236714	0.092854
H110	H	0.988921	-0.317443	0.167464
