data_functionalizedCrystal
_audit_creation_method	'MofGen! by Chris Wilmer'
_symmetry_space_group_name_H-M	'P1'
_symmetry_Int_Tables_number	1
_symmetry_cell_setting	triclinic
loop_
_symmetry_equiv_pos_as_xyz
  x,y,z
_cell_length_a	19.288864
_cell_length_b	10.654541
_cell_length_c	18.366186
_cell_angle_alpha	89.994034
_cell_angle_beta	89.977106
_cell_angle_gamma	83.810087
loop_
_atom_site_label
_atom_site_type_symbol
_atom_site_fract_x
_atom_site_fract_y
_atom_site_fract_z
O1	O	0.922378	0.156657	-0.060783
O2	O	0.720255	0.177790	-0.060733
O3	O	0.825965	-0.015616	-0.060755
O4	O	0.816669	0.350062	-0.060761
O5	O	0.825946	-0.015625	0.060344
O6	O	0.720237	0.177780	0.060366
O7	O	0.922360	0.156647	0.060316
Zn8	Zn	0.821296	0.167212	0.079568
Zn9	Zn	0.821319	0.167225	-0.079985
O10	O	0.816650	0.350053	0.060338
C11	C	0.694365	0.177105	-0.000177
C12	C	0.617248	0.175064	-0.000158
C13	C	0.573295	0.288545	-0.000172
C14	C	0.500835	0.286627	-0.000180
C15	C	0.472332	0.171222	-0.000189
C16	C	0.516296	0.057725	-0.000171
C17	C	0.588754	0.059646	-0.000156
C18	C	0.363483	0.080504	-0.042638
C19	C	0.291026	0.078587	-0.042658
C20	C	0.248848	0.165292	-0.000233
C21	C	0.279134	0.253935	0.042203
C22	C	0.351592	0.255856	0.042218
C23	C	0.393765	0.169126	-0.000205
C24	C	0.126325	0.276702	-0.000254
C25	C	0.053864	0.274780	-0.000257
C26	C	0.069327	0.045875	-0.000256
C27	C	0.141786	0.047800	-0.000245
C28	C	0.170280	0.163218	-0.000248
C29	C	0.825273	-0.062404	-0.000205
C30	C	0.823232	-0.201804	-0.000206
C31	C	0.949636	-0.232480	-0.000228
C32	C	1.011877	-0.313307	-0.000237
C33	C	1.009955	-0.444284	-0.000239
C34	C	0.945785	-0.494436	-0.000234
C35	C	0.883545	-0.413609	-0.000225
C36	C	0.885474	-0.282631	-0.000221
C37	C	0.757142	-0.382933	-0.000208
C38	C	0.759063	-0.251955	-0.000201
C39	C	0.692973	-0.433084	-0.000203
C40	C	0.630732	-0.352257	-0.000188
C41	C	0.632656	-0.221273	-0.000186
C42	C	0.696823	-0.171129	-0.000192
C43	C	0.948250	0.157332	-0.000241
C44	C	1.025367	0.159373	-0.000265
C45	C	0.817342	0.396841	-0.000213
C46	C	0.819383	0.536241	-0.000217
N47	N	0.821284	0.167203	0.188459
N48	N	0.821336	0.167224	-0.188876
C49	C	0.868108	0.081605	0.226550
C50	C	0.868112	0.081599	0.302778
C51	C	0.821300	0.167213	0.340912
C52	C	0.774467	0.252818	0.302812
C53	C	0.774459	0.252813	0.226586
C54	C	0.812750	0.281635	0.461672
C55	C	0.812763	0.281642	0.537897
C56	C	0.821320	0.167229	0.576020
C57	C	0.829878	0.052805	0.537908
C58	C	0.829871	0.052799	0.461682
C59	C	0.821303	0.167228	0.423567
C60	C	0.868151	0.081618	0.696765
C61	C	0.868150	0.081611	0.772995
C62	C	0.774508	0.252840	0.773027
C63	C	0.774505	0.252836	0.696800
C64	C	0.821330	0.167227	0.658673
H65	H	0.177574	-0.044609	-0.000238
O66	O	1.070459	-0.522678	-0.000346
C67	C	1.109387	-0.500022	-0.063079
H68	H	1.092824	-0.400558	-0.083986
H69	H	1.167269	-0.509585	-0.048983
H70	H	1.099548	-0.571602	-0.106996
O71	O	0.943827	-0.621644	-0.000147
C72	C	0.908518	-0.657019	0.062583
H73	H	0.872719	-0.572592	0.083507
H74	H	0.876161	-0.737096	0.048475
H75	H	0.948120	-0.689973	0.106491
H76	H	0.736329	0.322518	0.195572
O77	O	0.691014	-0.560292	-0.000110
C78	C	0.655699	-0.595650	0.062620
H79	H	0.619900	-0.511216	0.083536
H80	H	0.623341	-0.675728	0.048516
H81	H	0.695297	-0.628597	0.106533
O82	O	0.913394	-0.001949	0.189546
C83	C	0.875651	-0.079243	0.145656
H84	H	0.821636	-0.028672	0.134153
H85	H	0.904529	-0.099790	0.092083
H86	H	0.870268	-0.171766	0.175239
O87	O	0.804323	0.392817	0.574879
C88	C	0.739604	0.459405	0.556265
H89	H	0.703015	0.390338	0.535341
H90	H	0.715748	0.510299	0.606401
H91	H	0.747714	0.531421	0.512004
H92	H	0.581972	-0.155470	-0.000181
O93	O	0.568345	-0.400765	-0.000218
C94	C	0.513821	-0.301345	-0.000185
H95	H	0.533724	-0.212464	-0.023106
H96	H	0.469071	-0.328453	-0.035340
H97	H	0.494577	-0.282724	0.057917
O98	O	0.698783	-0.043921	-0.000092
C99	C	0.734062	-0.008585	0.062633
H100	H	0.769849	-0.093026	0.083539
H101	H	0.766428	0.071497	0.048524
H102	H	0.694439	0.024348	0.106554
H103	H	0.805770	0.374810	0.430638
H104	H	0.624542	-0.032767	-0.000145
O105	O	0.913663	-0.001607	0.339677
C106	C	0.954973	-0.077197	0.289680
H107	H	0.956003	-0.025719	0.235338
H108	H	1.010347	-0.096611	0.311681
H109	H	0.931973	-0.170383	0.281592
H110	H	0.046121	-0.048091	-0.000309
H111	H	0.244794	0.324538	0.076750
H112	H	0.836846	-0.040361	0.568946
O113	O	0.600999	0.400633	-0.000309
C114	C	0.642492	0.408574	-0.063015
H115	H	0.625073	0.343024	-0.106844
H116	H	0.636476	0.509811	-0.084083
H117	H	0.699479	0.379308	-0.048825
O118	O	0.838155	-0.058457	0.424773
C119	C	0.845728	-0.159447	0.474759
H120	H	0.821473	-0.127008	0.529109
H121	H	0.818344	-0.241153	0.452754
H122	H	0.903491	-0.191842	0.482834
H123	H	0.951208	-0.125834	-0.000217
H124	H	0.906276	0.011905	0.665722
H125	H	0.906278	0.011900	0.804009
O126	O	0.729099	0.335956	0.810174
C127	C	0.739130	0.317582	0.885623
H128	H	0.794126	0.270396	0.896010
H129	H	0.731857	0.412721	0.914590
H130	H	0.699521	0.254773	0.907278
H131	H	0.736380	0.322543	0.665784
O132	O	0.728965	0.335812	0.339933
C133	C	0.685791	0.268755	0.384043
H134	H	0.712987	0.170361	0.395456
H135	H	0.675062	0.321225	0.437647
H136	H	0.634416	0.260453	0.354697
O137	O	0.011095	0.384942	-0.000369
C138	C	-0.031234	0.390687	-0.063104
H139	H	-0.035368	0.291028	-0.084007
H140	H	-0.085465	0.437780	-0.049012
H141	H	-0.007098	0.447897	-0.107022
H142	H	0.376249	0.328028	0.076773
O143	O	0.458056	0.396785	-0.000294
C144	C	0.415733	0.402520	-0.063033
H145	H	0.411608	0.302859	-0.083937
H146	H	0.361498	0.449601	-0.048945
H147	H	0.439867	0.459737	-0.106949
O148	O	0.261725	-0.007636	-0.083894
C149	C	0.314487	-0.083746	-0.121340
H150	H	0.366109	-0.082218	-0.091326
H151	H	0.300340	-0.184799	-0.124079
H152	H	0.319675	-0.045766	-0.178895
O153	O	1.074165	-0.264437	-0.000338
C154	C	1.079083	-0.189605	-0.063065
H155	H	1.024502	-0.156665	-0.083967
H156	H	1.107180	-0.103994	-0.048960
H157	H	1.109543	-0.247641	-0.106987
H158	H	0.397820	0.009895	-0.077190
H159	H	0.149526	0.370682	-0.000245
O160	O	0.488645	-0.054412	-0.000054
C161	C	0.511029	-0.123587	0.062660
H162	H	0.526398	-0.056099	0.106502
H163	H	0.466871	-0.176767	0.083700
H164	H	0.557916	-0.193833	0.048492
