data_functionalizedCrystal
_audit_creation_method	'MofGen! by Chris Wilmer'
_symmetry_space_group_name_H-M	'P1'
_symmetry_Int_Tables_number	1
_symmetry_cell_setting	triclinic
loop_
_symmetry_equiv_pos_as_xyz
  x,y,z
_cell_length_a	6.817900
_cell_length_b	9.514072
_cell_length_c	12.908943
_cell_angle_alpha	92.322723
_cell_angle_beta	100.860631
_cell_angle_gamma	118.843421
loop_
_atom_site_label
_atom_site_type_symbol
_atom_site_fract_x
_atom_site_fract_y
_atom_site_fract_z
V1	V	-4.080081	-0.220195	-0.329500
O2	O	-3.979494	0.012644	-0.322378
O3	O	-4.114990	-0.438593	-0.328064
O4	O	-4.016724	-0.215902	-0.472834
O5	O	-4.078440	-0.211588	-0.176606
V6	V	-4.554853	-0.192451	-0.311114
O7	O	-4.360537	-0.281052	-0.369833
O8	O	-4.724594	-0.131594	-0.270781
O9	O	-4.296738	0.025947	-0.312550
O10	O	-4.772837	-0.425290	-0.318236
O11	O	-4.673891	-0.201058	-0.464008
O12	O	-4.395004	-0.196744	-0.167780
C13	C	-3.980741	-0.491862	-0.323077
C14	C	-4.090470	-0.670400	-0.322858
C15	C	-3.855391	-0.207796	-0.507744
C16	C	-3.885424	-0.205732	-0.624925
C17	C	-4.311189	-0.217790	-0.855917
C18	C	-4.339417	-0.215852	-0.966019
C19	C	-3.970104	-0.199904	-0.955234
C20	C	-3.941875	-0.201843	-0.845131
C21	C	-4.112428	-0.210789	-0.795477
C22	C	-4.084204	-0.212739	-0.685374
C23	C	-3.714886	-0.196780	-0.674589
C24	C	-3.743114	-0.194841	-0.784692
C25	C	-4.094332	0.079207	-0.317534
C26	C	-3.963841	0.257743	-0.317760
C27	C	-4.219681	-0.204855	-0.132865
C28	C	-4.168884	-0.206911	-0.015682
H29	H	-4.282857	-0.745483	-0.327093
H30	H	-3.771462	-0.667178	-0.313510
C31	C	-4.479702	-0.365530	-0.675389
C32	C	-4.271668	-0.222568	-0.630791
H33	H	-4.595436	-0.371586	-0.641697
H34	H	-4.459847	-0.456586	-0.665103
H35	H	-4.524927	-0.365357	-0.749612
H36	H	-4.226434	-0.222746	-0.556569
H37	H	-4.291522	-0.131488	-0.641068
C38	C	-4.752281	-0.367481	-1.023831
C39	C	-4.557908	-0.223568	-1.032463
H40	H	-4.887170	-0.372247	-1.064858
H41	H	-4.759869	-0.369899	-0.951159
H42	H	-4.741638	-0.457900	-1.049640
H43	H	-4.568543	-0.133148	-1.006647
H44	H	-4.550321	-0.221135	-1.105150
H45	H	-4.450070	-0.225091	-0.815489
H46	H	-3.831251	-0.192610	-0.995681
H47	H	-3.604260	-0.187552	-0.825135
H48	H	-3.553041	-0.191085	-0.625368
