data_functionalizedCrystal
_audit_creation_method	'MofGen! by Chris Wilmer'
_symmetry_space_group_name_H-M	'P1'
_symmetry_Int_Tables_number	1
_symmetry_cell_setting	triclinic
loop_
_symmetry_equiv_pos_as_xyz
  x,y,z
_cell_length_a	16.120484
_cell_length_b	16.120530
_cell_length_c	16.120297
_cell_angle_alpha	90.128140
_cell_angle_beta	84.385569
_cell_angle_gamma	89.832673
loop_
_atom_site_label
_atom_site_type_symbol
_atom_site_fract_x
_atom_site_fract_y
_atom_site_fract_z
Zn1	Zn	-0.422264	-1.224987	0.554813
Zn2	Zn	-0.554948	-1.224883	0.422118
Zn3	Zn	-0.408180	-1.093726	0.408056
Zn4	Zn	-0.554181	-1.078880	0.554051
O5	O	-0.484893	-1.155619	0.484760
O6	O	-0.446081	-1.341009	0.543415
O7	O	-0.529906	-1.213654	0.303620
O8	O	-0.293418	-1.117395	0.421958
O9	O	-0.543563	-1.340932	0.445925
O10	O	-0.303765	-1.213832	0.529780
O11	O	-0.422076	-1.117294	0.293289
O12	O	-0.421332	-0.975721	0.421218
O13	O	-0.542255	-1.092092	0.670785
O14	O	-0.528598	-0.964814	0.528480
O15	O	-0.445336	-1.199436	0.671345
O16	O	-0.671477	-1.199258	0.445185
O17	O	-0.670913	-1.091990	0.542116
C18	C	-0.473354	-0.940181	0.473241
C19	C	-0.468438	-0.848013	0.468334
C20	C	-0.701438	-1.144023	0.495113
C21	C	-0.794083	-1.139137	0.499574
C22	C	-0.495281	-1.144119	0.702152
C23	C	-0.499708	-1.139219	0.794791
C24	C	-0.963706	-1.130220	0.507736
C25	C	-1.005249	-1.181166	0.461804
C26	C	-1.099633	-1.176204	0.466346
C27	C	-0.869313	-1.135180	0.503196
C28	C	-0.267505	-1.167282	0.474385
C29	C	-0.174867	-1.172251	0.469964
C30	C	-0.496479	-1.371899	0.496324
C31	C	-0.501416	-1.464064	0.501252
C32	C	-0.459445	-0.679262	0.459381
C33	C	-0.510407	-0.632810	0.510202
C34	C	-0.505403	-0.538911	0.505220
C35	C	-0.464448	-0.773169	0.464361
C36	C	-0.474489	-1.167125	0.268213
C37	C	-0.469836	-1.172198	0.175571
C38	C	-0.507770	-1.130243	0.964403
C39	C	-0.461776	-1.181172	1.005965
C40	C	-0.466262	-1.176177	1.100342
C41	C	-0.503285	-1.135236	0.870017
H42	H	-0.969931	-1.228508	0.419069
H43	H	-0.999022	-1.082881	0.550467
H44	H	-0.557794	-0.663563	0.557453
H45	H	-0.412060	-0.648511	0.412135
H46	H	-0.550512	-1.082894	0.999698
H47	H	-0.419031	-1.228524	0.970668
