data_functionalizedCrystal
_audit_creation_method	'MofGen! by Chris Wilmer'
_symmetry_space_group_name_H-M	'P1'
_symmetry_Int_Tables_number	1
_symmetry_cell_setting	triclinic
loop_
_symmetry_equiv_pos_as_xyz
  x,y,z
_cell_length_a	15.297475
_cell_length_b	29.839131
_cell_length_c	15.292211
_cell_angle_alpha	80.173938
_cell_angle_beta	69.223149
_cell_angle_gamma	80.343089
loop_
_atom_site_label
_atom_site_type_symbol
_atom_site_fract_x
_atom_site_fract_y
_atom_site_fract_z
Zn1	Zn	1.512211	-0.242026	-0.771930
Zn2	Zn	1.485200	-0.328406	-0.616268
Zn3	Zn	1.329868	-0.242225	-0.589438
Zn4	Zn	1.356616	-0.306052	-0.744971
O5	O	1.420974	-0.279677	-0.680652
O6	O	1.638752	-0.262757	-0.773791
O7	O	1.442096	-0.326412	-0.482473
O8	O	1.354167	-0.179336	-0.613700
O9	O	1.618907	-0.326220	-0.659427
O10	O	1.488133	-0.179190	-0.747775
O11	O	1.327974	-0.263095	-0.462761
O12	O	1.203292	-0.241420	-0.587560
O13	O	1.399755	-0.288121	-0.878783
O14	O	1.222944	-0.288314	-0.701829
O15	O	1.514070	-0.241081	-0.898589
O16	O	1.468033	-0.388303	-0.633287
O17	O	1.373563	-0.371880	-0.727845
C18	C	1.179379	-0.262463	-0.638858
C19	C	1.076027	-0.255108	-0.621001
C20	C	0.825661	-0.332249	-0.808284
C21	C	0.922765	-0.339164	-0.825059
C22	C	0.961085	-0.318150	-0.774046
C23	C	0.902293	-0.290221	-0.706255
C24	C	0.805179	-0.283310	-0.689472
C25	C	0.940603	-0.269210	-0.655235
C26	C	0.881810	-0.241282	-0.587443
C27	C	0.784706	-0.234371	-0.570665
C28	C	0.746385	-0.255384	-0.621677
C29	C	1.037717	-0.276122	-0.672017
C30	C	1.017234	-0.227182	-0.553206
C31	C	0.920130	-0.220268	-0.536430
C32	C	1.420798	-0.396391	-0.680577
C33	C	1.420813	-0.446326	-0.680590
C34	C	1.470287	-0.764518	-0.631521
C35	C	1.470408	-0.952197	-0.631577
O36	O	1.512334	-0.983723	-0.589798
N37	N	1.421179	-0.967128	-0.680755
C38	C	1.371921	-0.935136	-0.729928
O39	O	1.330059	-0.952143	-0.771766
C40	C	1.371806	-0.747459	-0.729877
C41	C	1.421031	-0.732530	-0.680688
C42	C	1.519509	-0.749589	-0.582337
C43	C	1.519474	-0.702672	-0.582319
C44	C	1.470217	-0.670684	-0.631486
C45	C	1.420996	-0.685613	-0.680670
C46	C	1.322554	-0.715468	-0.779055
C47	C	1.322531	-0.668546	-0.779039
C48	C	1.371756	-0.653618	-0.729850
C49	C	1.371704	-0.606709	-0.729819
N50	N	1.420934	-0.591777	-0.680641
C51	C	1.470190	-0.623765	-0.631474
C52	C	1.371983	-1.033670	-0.729950
C53	C	1.372010	-1.080590	-0.729961
C54	C	1.470500	-1.097647	-0.631612
C55	C	1.470466	-1.050727	-0.631595
C56	C	1.421212	-1.018739	-0.680772
C57	C	1.470113	-0.525236	-0.631440
C58	C	1.470070	-0.478314	-0.631424
C59	C	1.371585	-0.461261	-0.729777
C60	C	1.371623	-0.508178	-0.729790
C61	C	1.420894	-0.540165	-0.680620
O62	O	1.329809	-0.575157	-0.771584
O63	O	1.512063	-0.606749	-0.589659
C64	C	1.470322	-0.811435	-0.631539
C65	C	1.421101	-0.826364	-0.680723
C66	C	1.371844	-0.794376	-0.729890
C67	C	1.421128	-0.873283	-0.680735
C68	C	1.470384	-0.905271	-0.631568
C69	C	1.519614	-0.890340	-0.582390
C70	C	1.519579	-0.843423	-0.582372
C71	C	1.322614	-0.809308	-0.779068
C72	C	1.322652	-0.856225	-0.779081
C73	C	1.371909	-0.888213	-0.729914
C74	C	1.663512	-0.296959	-0.722609
C75	C	1.766868	-0.304324	-0.740489
C76	C	1.462910	-0.262085	-0.923399
C77	C	1.480780	-0.254589	-1.026844
C78	C	1.421179	-0.162508	-0.680752
C79	C	1.421267	-0.112577	-0.680795
C80	C	1.379255	-0.297173	-0.438858
C81	C	1.361565	-0.304555	-0.335445
C82	C	1.548218	-0.226370	-0.085918
C83	C	1.564834	-0.219430	-0.183079
C84	C	1.514018	-0.240711	-0.221175
C85	C	1.446584	-0.268933	-0.162101
C86	C	1.429961	-0.275870	-0.064930
C87	C	1.395761	-0.290211	-0.200188
C88	C	1.328327	-0.318433	-0.141114
C89	C	1.311708	-0.325370	-0.043952
C90	C	1.362523	-0.304089	-0.005856
C91	C	1.412384	-0.283274	-0.297359
C92	C	1.294127	-0.332774	-0.276371
C93	C	1.277511	-0.339714	-0.179210
H94	H	1.085577	-0.298862	-0.727214
N95	N	1.318521	-0.524284	-0.782830
H96	H	1.287309	-0.496898	-0.813970
H97	H	1.363799	-0.543290	-0.832483
N98	N	1.318472	-0.426754	-0.782814
H99	H	1.287292	-0.443328	-0.813981
H100	H	1.268907	-0.406998	-0.737455
H101	H	0.872248	-0.197529	-0.481233
H102	H	1.252743	-0.350099	-0.307387
H103	H	1.048433	-0.210072	-0.511665
N104	N	1.204781	-0.370152	-0.115492
H105	H	1.201966	-0.371317	-0.048159
H106	H	1.141167	-0.357449	-0.120889
N107	N	1.485111	-0.252835	-0.361059
H108	H	1.548763	-0.265519	-0.355733
H109	H	1.487854	-0.251675	-0.428365
H110	H	1.559663	-0.831272	-0.542318
N111	N	0.986165	-0.369281	-0.898182
H112	H	1.033949	-0.350795	-0.948348
H113	H	1.019810	-0.395680	-0.867167
N114	N	0.784321	-0.354909	-0.863293
H115	H	0.812729	-0.344367	-0.932741
H116	H	0.798663	-0.389248	-0.851553
N117	N	1.269455	-0.731562	-0.832104
H118	H	1.238255	-0.704172	-0.863246
H119	H	1.314726	-0.750571	-0.881755
N120	N	0.641646	-0.247933	-0.603569
H121	H	0.626296	-0.265485	-0.646171
H122	H	0.607280	-0.259104	-0.535628
H123	H	1.527550	-0.235058	-0.300288
N124	N	1.269546	-0.872319	-0.832134
H125	H	1.295423	-0.860335	-0.901125
H126	H	1.277049	-0.906896	-0.824619
N127	N	1.065817	-0.325607	-0.792134
H128	H	1.097248	-0.346487	-0.842820
H129	H	1.092148	-0.295203	-0.813371
H130	H	1.349000	-0.309739	0.073259
H131	H	0.736837	-0.211635	-0.515454
H132	H	1.256795	-0.348348	0.004144
H133	H	1.619740	-0.196453	-0.231170
N134	N	1.523167	-0.462213	-0.578371
H135	H	1.554379	-0.489599	-0.547232
H136	H	1.572705	-0.443032	-0.623724
N137	N	1.603037	-0.203429	-0.044833
H138	H	1.582279	-0.212110	0.025683
H139	H	1.672453	-0.213717	-0.073406
H140	H	1.559560	-0.690521	-0.542269
H141	H	1.559625	-0.775630	-0.542300
N142	N	1.523254	-0.559732	-0.578409
H143	H	1.554425	-0.543148	-0.547251
H144	H	1.478007	-0.579656	-0.528771
N145	N	1.523562	-1.034627	-0.578546
H146	H	1.554766	-1.062014	-0.547403
H147	H	1.573106	-1.015449	-0.623899
N148	N	1.318843	-0.999171	-0.782979
H149	H	1.364032	-0.979238	-0.832672
H150	H	1.287663	-1.015788	-0.814067
H151	H	1.510607	-1.123700	-0.591579
H152	H	1.559718	-0.916393	-0.542354
N153	N	1.318899	-1.096689	-0.782996
H154	H	1.287694	-1.069301	-0.814139
H155	H	1.364167	-1.115700	-0.832647
H156	H	1.282424	-0.642503	-0.819088
H157	H	1.282505	-0.783266	-0.819107
