data_functionalizedCrystal
_audit_creation_method	'MofGen! by Chris Wilmer'
_symmetry_space_group_name_H-M	'P1'
_symmetry_Int_Tables_number	1
_symmetry_cell_setting	triclinic
loop_
_symmetry_equiv_pos_as_xyz
  x,y,z
_cell_length_a	16.625548
_cell_length_b	16.625546
_cell_length_c	17.077396
_cell_angle_alpha	90.030215
_cell_angle_beta	90.019578
_cell_angle_gamma	90.023536
loop_
_atom_site_label
_atom_site_type_symbol
_atom_site_fract_x
_atom_site_fract_y
_atom_site_fract_z
Zn1	Zn	1.232673	-0.320979	0.443835
Zn2	Zn	1.566006	0.012355	0.777168
Zn3	Zn	1.899339	0.345688	1.110502
Zn4	Zn	1.232578	-0.455821	0.312565
Zn5	Zn	1.565911	-0.122488	0.645898
Zn6	Zn	1.899245	0.210845	0.979232
Zn7	Zn	1.097837	-0.321009	0.312583
Zn8	Zn	1.431170	0.012324	0.645916
Zn9	Zn	1.764503	0.345658	0.979249
Zn10	Zn	1.097805	-0.455775	0.443788
Zn11	Zn	1.431138	-0.122442	0.777122
Zn12	Zn	1.764471	0.210891	1.110455
O13	O	1.165223	-0.388396	0.378193
O14	O	1.498556	-0.055063	0.711526
O15	O	1.831890	0.278271	1.044859
O16	O	1.345492	-0.338872	0.426434
O17	O	1.678826	-0.005539	0.759767
O18	O	2.012159	0.327794	1.093100
O19	O	1.214678	-0.437970	0.202720
O20	O	1.548012	-0.104637	0.536054
O21	O	1.881345	0.228697	0.869387
O22	O	1.115776	-0.208173	0.330020
O23	O	1.449109	0.125161	0.663354
O24	O	1.782443	0.458494	0.996687
O25	O	1.345423	-0.437941	0.329990
O26	O	1.678756	-0.104607	0.663324
O27	O	2.012090	0.228726	0.996657
O28	O	1.214839	-0.208150	0.426451
O29	O	1.548173	0.125183	0.759784
O30	O	1.881506	0.458516	1.093118
O31	O	1.115684	-0.338924	0.202733
O32	O	1.449018	-0.005591	0.536067
O33	O	1.782351	0.327743	0.869400
O34	O	0.985000	-0.338879	0.329975
O35	O	1.318333	-0.005546	0.663309
O36	O	1.651667	0.327787	0.996642
O37	O	1.115721	-0.437863	0.553641
O38	O	1.449055	-0.104529	0.886975
O39	O	1.782388	0.228804	1.220308
O40	O	0.984977	-0.437892	0.426372
O41	O	1.318310	-0.104559	0.759705
O42	O	1.651643	0.228775	1.093038
O43	O	1.214808	-0.338828	0.553676
O44	O	1.548142	-0.005495	0.887009
O45	O	1.881475	0.327839	1.220342
O46	O	1.214647	-0.568648	0.329945
O47	O	1.547981	-0.235314	0.663278
O48	O	1.881314	0.098019	0.996612
O49	O	1.115630	-0.568614	0.426354
O50	O	1.448963	-0.235281	0.759688
O51	O	1.782297	0.098053	1.093021
C52	C	0.955732	-0.388385	0.378171
C53	C	1.289066	-0.055051	0.711504
C54	C	1.622399	0.278282	1.044837
C55	C	0.866111	-0.388399	0.378180
C56	C	1.199444	-0.055066	0.711513
C57	C	1.532778	0.278268	1.044847
C58	C	0.537935	-0.388404	0.378214
C59	C	0.871269	-0.055071	0.711547
C60	C	1.204602	0.278262	1.044880
C61	C	0.629244	-0.388401	0.378202
C62	C	0.962577	-0.055067	0.711535
C63	C	1.295911	0.278266	1.044868
C64	C	0.702020	-0.388402	0.378196
C65	C	1.035354	-0.055069	0.711529
C66	C	1.368687	0.278265	1.044863
C67	C	0.793335	-0.388398	0.378186
C68	C	1.126668	-0.055064	0.711519
C69	C	1.460001	0.278269	1.044852
C70	C	1.165147	-0.597887	0.378160
C71	C	1.498480	-0.264554	0.711493
C72	C	1.831813	0.068780	1.044826
C73	C	1.165188	-0.687508	0.378172
C74	C	1.498521	-0.354175	0.711505
C75	C	1.831855	-0.020841	1.044839
C76	C	1.165329	-1.015684	0.378254
C77	C	1.498662	-0.682350	0.711587
C78	C	1.831995	-0.349017	1.044920
C79	C	1.165287	-0.924375	0.378233
C80	C	1.498620	-0.591042	0.711567
C81	C	1.831953	-0.257709	1.044900
C82	C	1.165258	-0.851599	0.378212
C83	C	1.498591	-0.518265	0.711546
C84	C	1.831924	-0.184932	1.044879
C85	C	1.165217	-0.760285	0.378193
C86	C	1.498550	-0.426951	0.711526
C87	C	1.831884	-0.093618	1.044859
C88	C	1.375532	-0.388408	0.378215
C89	C	1.708865	-0.055075	0.711549
C90	C	2.042199	0.278258	1.044882
C91	C	1.465153	-0.388413	0.378225
C92	C	1.798486	-0.055080	0.711558
C93	C	2.131820	0.278253	1.044891
C94	C	1.165272	-0.388337	0.582937
C95	C	1.498605	-0.055003	0.916270
C96	C	1.831939	0.278330	1.249604
C97	C	1.165293	-0.388311	0.670187
C98	C	1.498626	-0.054978	1.003520
C99	C	1.831959	0.278355	1.336854
C100	C	1.165322	-0.178087	0.378243
C101	C	1.498655	0.155246	0.711576
C102	C	1.831988	0.488579	1.044910
C103	C	1.165364	-0.088466	0.378264
C104	C	1.498697	0.244867	0.711598
C105	C	1.832030	0.578201	1.044931
C106	C	1.165221	-0.388397	0.174245
C107	C	1.498554	-0.055064	0.507578
C108	C	1.831888	0.278270	0.840912
C109	C	1.165356	-0.388195	0.086995
C110	C	1.498690	-0.054862	0.420329
C111	C	1.832023	0.278471	0.753662
C112	C	1.216889	-0.336740	0.711196
C113	C	1.550222	-0.003406	1.044529
C114	C	1.883556	0.329927	1.377863
C115	C	1.216899	-0.336713	0.793177
C116	C	1.550232	-0.003380	1.126510
C117	C	1.883565	0.329954	1.459843
C118	C	1.165316	-0.388262	0.834146
C119	C	1.498649	-0.054929	1.167480
C120	C	1.831982	0.278404	1.500813
C121	C	1.113713	-0.439836	0.793131
C122	C	1.447047	-0.106503	1.126465
C123	C	1.780380	0.226830	1.459798
C124	C	1.113700	-0.439858	0.711152
C125	C	1.447034	-0.106525	1.044486
C126	C	1.780367	0.226808	1.377819
C127	C	1.113746	-0.439788	0.964002
C128	C	1.447079	-0.106454	1.297335
C129	C	1.780413	0.226879	1.630668
C130	C	1.113760	-0.439767	1.045986
C131	C	1.447093	-0.106434	1.379320
C132	C	1.780427	0.226900	1.712653
C133	C	1.216944	-0.336642	1.046026
C134	C	1.550278	-0.003309	1.379359
C135	C	1.883611	0.330024	1.712692
C136	C	1.216931	-0.336664	0.964047
C137	C	1.550264	-0.003331	1.297380
C138	C	1.883598	0.330002	1.630713
C139	C	1.165330	-0.388240	0.923037
C140	C	1.498663	-0.054906	1.256371
C141	C	1.831997	0.278427	1.589704
H142	H	1.258897	-0.294765	0.677844
H143	H	1.592230	0.038569	1.011178
H144	H	1.925563	0.371902	1.344511
F145	F	1.271842	-0.281851	0.836818
F146	F	1.605176	0.051482	1.170151
F147	F	1.938509	0.384816	1.503485
H148	H	1.258939	-0.294693	0.930691
H149	H	1.592273	0.038641	1.264025
H150	H	1.925606	0.371974	1.597358
F151	F	1.271863	-0.281752	1.089672
F152	F	1.605197	0.051581	1.423005
F153	F	1.938530	0.384914	1.756338
H154	H	1.071755	-0.481741	1.079342
H155	H	1.405088	-0.148408	1.412675
H156	H	1.738421	0.184925	1.746008
F157	F	1.058824	-0.494678	0.920358
F158	F	1.392157	-0.161345	1.253692
F159	F	1.725491	0.171988	1.587025
H160	H	1.071711	-0.481806	0.826496
H161	H	1.405044	-0.148472	1.159829
H162	H	1.738377	0.184861	1.493162
F163	F	1.058782	-0.494746	0.667508
F164	F	1.392116	-0.161413	1.000841
F165	F	1.725449	0.171921	1.334174
