data_functionalizedCrystal
_audit_creation_method	'MofGen! by Chris Wilmer'
_symmetry_space_group_name_H-M	'P1'
_symmetry_Int_Tables_number	1
_symmetry_cell_setting	triclinic
loop_
_symmetry_equiv_pos_as_xyz
  x,y,z
_cell_length_a	14.853566
_cell_length_b	10.489716
_cell_length_c	13.330367
_cell_angle_alpha	89.999430
_cell_angle_beta	89.995295
_cell_angle_gamma	84.081775
loop_
_atom_site_label
_atom_site_type_symbol
_atom_site_fract_x
_atom_site_fract_y
_atom_site_fract_z
O1	O	1.197293	0.166522	-0.083348
O2	O	0.934943	0.186362	-0.083363
O3	O	1.072099	-0.009225	-0.083359
O4	O	1.060137	0.362109	-0.083352
O5	O	1.072079	-0.009230	0.083488
O6	O	0.934923	0.186357	0.083484
O7	O	1.197273	0.166518	0.083499
Cu8	Cu	1.066096	0.176437	0.098726
Cu9	Cu	1.066120	0.176442	-0.098590
O10	O	1.060117	0.362105	0.083495
C11	C	0.901339	0.185461	0.000058
C12	C	0.801241	0.182768	0.000052
C13	C	0.378004	0.171380	-0.090879
C14	C	0.378003	0.171376	0.091024
C15	C	0.472051	0.173905	0.091021
C16	C	0.519080	0.175173	0.000066
C17	C	0.472060	0.173913	-0.090885
C18	C	0.519077	0.175178	0.181971
C19	C	0.613131	0.177709	0.181971
C20	C	0.660161	0.178968	0.091016
C21	C	0.613136	0.177706	0.000061
C22	C	0.660165	0.178975	-0.090894
C23	C	0.613142	0.177703	-0.181850
C24	C	0.519091	0.175172	-0.181841
C25	C	0.754212	0.181499	0.091006
C26	C	0.754221	0.181507	-0.090900
C27	C	1.071190	-0.056749	0.000061
C28	C	1.068501	-0.198350	0.000052
C29	C	1.152610	-0.296969	0.000066
C30	C	1.108175	-0.373828	-0.082198
C31	C	1.108136	-0.373796	0.082300
C32	C	1.024102	-0.273344	-0.082280
C33	C	1.024075	-0.273307	0.082292
C34	C	0.979578	-0.350117	0.000008
C35	C	1.230877	0.167419	0.000075
C36	C	1.330975	0.170112	0.000075
C37	C	1.061026	0.409629	0.000072
C38	C	1.063715	0.551230	0.000075
N39	N	1.066086	0.176433	0.237507
N40	N	1.066137	0.176437	-0.237372
C41	C	1.005384	0.263014	0.710128
C42	C	1.126880	0.089861	0.710100
C43	C	1.126869	0.089857	0.605082
C44	C	1.066117	0.176434	0.552582
C45	C	1.005374	0.263015	0.605100
C46	C	1.187617	0.003286	0.552556
C47	C	1.187610	0.003279	0.447531
C48	C	1.126852	0.089851	0.395029
C49	C	1.066106	0.176435	0.447554
C50	C	1.005354	0.263013	0.395054
C51	C	0.944603	0.349591	0.447577
C52	C	0.944616	0.349588	0.552598
C53	C	1.126839	0.089855	0.290007
C54	C	1.005343	0.263014	0.290026
H55	H	0.480779	0.174154	0.256021
C56	C	0.374918	0.171313	-0.262597
C57	C	0.467401	0.173791	-0.281813
H58	H	0.343005	0.170471	-0.324316
H59	H	0.365904	0.096578	-0.225236
H60	H	0.353121	0.245224	-0.225219
H61	H	0.489199	0.099874	-0.319184
H62	H	0.476420	0.248533	-0.319189
H63	H	0.988624	-0.229640	-0.151905
H64	H	0.651444	0.178745	-0.255905
C65	C	1.152320	-0.565914	-0.175529
C66	C	1.156106	-0.433089	-0.176085
H67	H	1.181909	-0.602492	-0.233493
H68	H	1.181589	-0.601643	-0.117120
H69	H	1.090890	-0.583687	-0.175614
H70	H	1.217536	-0.415316	-0.175993
H71	H	1.126839	-0.397349	-0.234509
H72	H	0.339714	0.170340	-0.164934
H73	H	0.988592	-0.229393	0.151840
C74	C	0.233829	0.167503	0.171795
C75	C	0.326311	0.169987	0.190997
H76	H	0.201917	0.166638	0.233519
H77	H	0.212030	0.241408	0.134433
H78	H	0.224821	0.092762	0.134424
H79	H	0.335320	0.244733	0.228362
H80	H	0.348118	0.096075	0.228375
C81	C	1.307695	-0.167891	0.541987
C82	C	1.254380	-0.091896	0.610262
H83	H	1.348910	-0.226655	0.577618
H84	H	1.269870	-0.213848	0.501022
H85	H	1.340473	-0.114704	0.501028
H86	H	1.221596	-0.145081	0.651217
H87	H	1.292209	-0.045935	0.651244
H88	H	0.906363	-0.373725	-0.000041
H89	H	0.895156	0.420078	0.595369
C90	C	0.651506	0.068912	0.337011
C91	C	0.664815	0.179089	0.281947
H92	H	0.683420	0.069759	0.398729
H93	H	0.588768	0.067239	0.350027
H94	H	0.673319	-0.004985	0.299625
H95	H	0.642996	0.252986	0.319330
H96	H	0.727566	0.180774	0.268934
C97	C	1.246608	-0.406762	0.176025
C98	C	1.156071	-0.433012	0.176193
H99	H	1.276202	-0.443313	0.233990
H100	H	1.275869	-0.442522	0.117617
H101	H	1.249150	-0.316646	0.176370
H102	H	1.153528	-0.523129	0.175841
H103	H	1.126801	-0.397258	0.234616
H104	H	1.176305	0.019370	0.247248
H105	H	1.225770	-0.273114	-0.000013
H106	H	1.176347	0.019378	0.752849
H107	H	0.955868	0.333512	0.247286
C108	C	0.890653	0.426469	0.286590
C109	C	0.877824	0.444756	0.389861
H110	H	0.849424	0.485214	0.250959
H111	H	0.950901	0.440484	0.269382
H112	H	0.880320	0.341308	0.269393
H113	H	0.888164	0.529914	0.407060
H114	H	0.817563	0.430751	0.407077
C115	C	0.792599	0.072721	0.246047
C116	C	0.805903	0.182892	0.190972
H117	H	0.824517	0.073577	0.307762
H118	H	0.729862	0.071047	0.259068
H119	H	0.814411	-0.001180	0.208666
H120	H	0.784085	0.256793	0.228351
H121	H	0.868653	0.184578	0.177954
H122	H	0.955919	0.333502	0.752895
C123	C	1.205790	-0.170525	0.329705
C124	C	1.254273	-0.092176	0.389926
H125	H	1.246914	-0.229535	0.294175
H126	H	1.167872	-0.216204	0.370776
H127	H	1.169714	-0.118968	0.283310
H128	H	1.290344	-0.143732	0.436326
H129	H	1.292207	-0.046493	0.348852
H130	H	0.792506	0.182536	-0.164967
