data_functionalizedCrystal
_audit_creation_method	'MofGen! by Chris Wilmer'
_symmetry_space_group_name_H-M	'P1'
_symmetry_Int_Tables_number	1
_symmetry_cell_setting	triclinic
loop_
_symmetry_equiv_pos_as_xyz
  x,y,z
_cell_length_a	12.784890
_cell_length_b	10.654551
_cell_length_c	11.892095
_cell_angle_alpha	93.929772
_cell_angle_beta	86.513306
_cell_angle_gamma	78.795960
loop_
_atom_site_label
_atom_site_type_symbol
_atom_site_fract_x
_atom_site_fract_y
_atom_site_fract_z
O1	O	1.417105	-0.000910	-0.093968
O2	O	1.108046	0.052830	-0.093976
O3	O	1.269681	-0.157628	-0.093973
O4	O	1.255471	0.209548	-0.093972
O5	O	1.256204	-0.140106	0.094035
O6	O	1.094569	0.070353	0.094031
O7	O	1.403628	0.016613	0.094039
Zn8	Zn	1.246959	0.046265	0.123885
Zn9	Zn	1.264716	0.023178	-0.123822
O10	O	1.241994	0.227071	0.094035
C11	C	1.061734	0.065086	0.000027
C12	C	0.943817	0.075486	0.000023
C13	C	0.765802	0.205824	0.000022
C14	C	0.876595	0.196061	0.000022
C15	C	0.900240	-0.035334	0.000021
C16	C	0.789447	-0.025571	0.000021
C17	C	0.722231	0.095013	0.000023
C18	C	0.611436	0.104776	0.000032
C19	C	0.635083	-0.126619	0.000023
C20	C	0.745876	-0.136382	0.000023
C21	C	1.261899	-0.195541	0.000028
C22	C	1.258777	-0.334611	0.000021
C23	C	1.264659	-0.409500	-0.102460
C24	C	1.261715	-0.540168	-0.102455
C25	C	1.247013	-0.521048	0.102521
C26	C	1.249949	-0.390380	0.102514
C27	C	1.273487	-0.353731	-0.204954
C28	C	1.279370	-0.428620	-0.307443
C29	C	1.276427	-0.559289	-0.307438
C30	C	1.267600	-0.615067	-0.204944
C31	C	1.449941	0.004356	0.000034
C32	C	1.567858	-0.006044	0.000029
C33	C	1.249776	0.264983	0.000032
C34	C	1.252898	0.404053	0.000032
N35	N	1.234849	0.062020	0.292939
N36	N	1.276834	0.007412	-0.292876
C37	C	1.361105	-0.102289	0.529589
C38	C	1.352648	-0.091268	0.647931
C39	C	1.209472	0.095075	0.647966
C40	C	1.217929	0.084055	0.529625
C41	C	1.293749	-0.014629	0.470440
C42	C	1.302211	-0.025644	0.352096
C43	C	1.159031	0.160693	0.352134
C44	C	1.150574	0.171714	0.470475
H45	H	0.912065	0.286295	0.000023
Br46	Br	1.047674	0.305632	0.550804
H47	H	1.265189	-0.721463	-0.204948
H48	H	1.239828	-0.566474	0.185967
H49	H	1.286546	-0.383194	-0.390890
Br50	Br	0.991478	-0.198970	0.000011
Br51	Br	0.837105	-0.300023	0.000018
H52	H	0.599603	-0.216859	-0.000066
Br53	Br	0.674575	0.369469	0.000051
H54	H	1.281206	-0.620258	-0.390889
Br55	Br	1.277492	-0.176399	-0.204966
H56	H	1.245137	-0.329398	0.185963
Br57	Br	1.405113	-0.159565	0.271776
H58	H	1.104188	0.232074	0.303961
H59	H	0.556709	0.202962	0.000039
H60	H	1.422848	-0.182634	0.481401
Br61	Br	1.444057	-0.210244	0.728203
H62	H	1.147734	0.175414	0.696169
