data_functionalizedCrystal
_audit_creation_method	'MofGen! by Chris Wilmer'
_symmetry_space_group_name_H-M	'P1'
_symmetry_Int_Tables_number	1
_symmetry_cell_setting	triclinic
loop_
_symmetry_equiv_pos_as_xyz
  x,y,z
_cell_length_a	9.065215
_cell_length_b	15.944493
_cell_length_c	7.540329
_cell_angle_alpha	90.002283
_cell_angle_beta	89.997574
_cell_angle_gamma	84.244871
loop_
_atom_site_label
_atom_site_type_symbol
_atom_site_fract_x
_atom_site_fract_y
_atom_site_fract_z
O1	O	1.957477	0.123152	-0.147435
O2	O	1.527952	0.133257	-0.147441
O3	O	1.754489	0.006016	-0.147453
O4	O	1.730941	0.250394	-0.147424
O5	O	1.754475	0.006014	0.147512
O6	O	1.527939	0.133255	0.147524
O7	O	1.957464	0.123150	0.147530
Cu8	Cu	1.742700	0.128203	0.174459
Cu9	Cu	1.742716	0.128205	-0.174371
O10	O	1.730927	0.250392	0.147541
C11	C	1.472982	0.132286	0.000040
C12	C	1.309207	0.129384	0.000037
C13	C	1.753519	-0.025287	0.000022
C14	C	1.750634	-0.118558	-0.000001
C15	C	1.883979	-0.353308	0.000035
C16	C	1.812077	-0.404420	-0.145398
C17	C	1.745287	-0.289319	0.000021
C18	C	1.812032	-0.404398	0.145414
C19	C	1.740133	-0.454268	0.000050
C20	C	1.673424	-0.339202	-0.145532
C21	C	1.673398	-0.339177	0.145411
C22	C	1.601396	-0.390256	-0.000058
C23	C	1.748261	-0.194297	0.000003
C24	C	1.737149	-0.549288	0.000055
C25	C	2.012434	0.124122	0.000044
C26	C	2.176208	0.127024	0.000036
C27	C	1.731896	0.281695	0.000062
C28	C	1.734782	0.374965	0.000073
N29	N	1.742700	0.128201	0.419808
N30	N	1.742728	0.128200	-0.419719
H31	H	2.003443	-0.336775	-0.000110
H32	H	1.481838	-0.406627	-0.000139
N33	N	1.599987	-0.303410	0.299673
N34	N	1.647297	-0.324457	0.450573
H35	H	1.595460	-0.299197	0.559536
H36	H	1.614892	-0.310825	-0.268616
N37	N	1.885569	-0.440166	-0.299642
N38	N	2.019280	-0.431217	-0.325560
H39	H	2.071193	-0.456459	-0.434492
N40	N	1.885515	-0.440114	0.299679
N41	N	1.839602	-0.418095	0.450617
H42	H	1.891508	-0.443316	0.559562
