data_functionalizedCrystal
_audit_creation_method	'MofGen! by Chris Wilmer'
_symmetry_space_group_name_H-M	'P1'
_symmetry_Int_Tables_number	1
_symmetry_cell_setting	triclinic
loop_
_symmetry_equiv_pos_as_xyz
  x,y,z
_cell_length_a	14.519709
_cell_length_b	14.519709
_cell_length_c	8.140239
_cell_angle_alpha	89.995533
_cell_angle_beta	90.002892
_cell_angle_gamma	83.680145
loop_
_atom_site_label
_atom_site_type_symbol
_atom_site_fract_x
_atom_site_fract_y
_atom_site_fract_z
O1	O	1.223865	0.120890	-0.136403
O2	O	1.473865	0.370890	0.113597
O3	O	1.723865	0.620890	0.363597
O4	O	1.973865	0.870890	0.613597
O5	O	0.955388	0.135126	-0.136454
O6	O	1.205388	0.385126	0.113546
O7	O	1.455388	0.635126	0.363546
O8	O	1.705388	0.885126	0.613546
O9	O	1.096745	-0.006230	-0.136412
O10	O	1.346745	0.243770	0.113588
O11	O	1.596745	0.493770	0.363588
O12	O	1.846745	0.743770	0.613588
O13	O	1.082509	0.262247	-0.136445
O14	O	1.332509	0.512247	0.113555
O15	O	1.582509	0.762247	0.363555
O16	O	1.832509	1.012247	0.613555
O17	O	1.096737	-0.006232	0.136815
O18	O	1.346737	0.243768	0.386815
O19	O	1.596737	0.493768	0.636815
O20	O	1.846737	0.743768	0.886815
O21	O	0.955381	0.135125	0.136773
O22	O	1.205381	0.385125	0.386773
O23	O	1.455381	0.635125	0.636773
O24	O	1.705381	0.885125	0.886773
O25	O	1.223857	0.120888	0.136824
O26	O	1.473857	0.370888	0.386824
O27	O	1.723857	0.620888	0.636824
O28	O	1.973857	0.870888	0.886824
Zn29	Zn	1.089618	0.128006	0.180179
Zn30	Zn	1.339618	0.378006	0.430179
Zn31	Zn	1.589618	0.628006	0.680179
Zn32	Zn	1.839618	0.878006	0.930179
Zn33	Zn	1.089628	0.128008	-0.179809
Zn34	Zn	1.339628	0.378008	0.070191
Zn35	Zn	1.589628	0.628008	0.320191
Zn36	Zn	1.839628	0.878008	0.570191
O37	O	1.082501	0.262245	0.136783
O38	O	1.332501	0.512245	0.386783
O39	O	1.582501	0.762245	0.636783
O40	O	1.832501	1.012245	0.886783
C41	C	0.921025	0.134462	0.000153
C42	C	1.171025	0.384462	0.250153
C43	C	1.421025	0.634462	0.500153
C44	C	1.671025	0.884462	0.750153
C45	C	0.818643	0.132474	0.000135
C46	C	1.068643	0.382474	0.250135
C47	C	1.318643	0.632474	0.500135
C48	C	1.568643	0.882474	0.750135
C49	C	1.096078	-0.040591	0.000201
C50	C	1.346078	0.209409	0.250201
C51	C	1.596078	0.459409	0.500201
C52	C	1.846078	0.709409	0.750201
C53	C	1.094090	-0.142972	0.000202
C54	C	1.344090	0.107028	0.250202
C55	C	1.594090	0.357028	0.500202
C56	C	1.844090	0.607028	0.750202
C57	C	0.443748	0.125154	0.000210
C58	C	0.693748	0.375154	0.250210
C59	C	0.943748	0.625154	0.500210
C60	C	1.193748	0.875154	0.750210
C61	C	0.548056	0.127187	0.000189
C62	C	0.798056	0.377187	0.250189
C63	C	1.048056	0.627187	0.500189
C64	C	1.298056	0.877187	0.750189
C65	C	0.631192	0.128814	0.000171
C66	C	0.881192	0.378814	0.250171
C67	C	1.131192	0.628814	0.500171
C68	C	1.381192	0.878814	0.750171
C69	C	0.735507	0.130847	0.000152
C70	C	0.985507	0.380847	0.250152
C71	C	1.235507	0.630847	0.500152
C72	C	1.485507	0.880847	0.750152
C73	C	1.086770	-0.517868	0.000158
C74	C	1.336770	-0.267868	0.250158
C75	C	1.586770	-0.017868	0.500158
C76	C	1.836770	0.232132	0.750158
C77	C	1.088803	-0.413560	0.000171
C78	C	1.338803	-0.163560	0.250171
C79	C	1.588803	0.086440	0.500171
C80	C	1.838803	0.336440	0.750171
C81	C	1.090430	-0.330423	0.000181
C82	C	1.340430	-0.080423	0.250181
C83	C	1.590430	0.169577	0.500181
C84	C	1.840430	0.419577	0.750181
C85	C	1.092463	-0.226109	0.000191
C86	C	1.342463	0.023891	0.250191
C87	C	1.592463	0.273891	0.500191
C88	C	1.842463	0.523891	0.750191
C89	C	1.258221	0.121553	0.000213
C90	C	1.508221	0.371553	0.250213
C91	C	1.758221	0.621553	0.500213
C92	C	2.008221	0.871553	0.750213
C93	C	1.360602	0.123541	0.000221
C94	C	1.610602	0.373541	0.250221
C95	C	1.860602	0.623541	0.500221
C96	C	2.110602	0.873541	0.750221
C97	C	1.083168	0.296606	0.000165
C98	C	1.333168	0.546606	0.250165
C99	C	1.583168	0.796606	0.500165
C100	C	1.833168	1.046606	0.750165
C101	C	1.085156	0.398987	0.000154
C102	C	1.335156	0.648987	0.250154
C103	C	1.585156	0.898987	0.500154
C104	C	1.835156	1.148987	0.750154
N105	N	1.089618	0.128004	0.425862
N106	N	1.339618	0.378004	0.675862
N107	N	1.589618	0.628004	0.925862
N108	N	1.839618	0.878004	1.175862
N109	N	1.089636	0.128003	-0.425492
N110	N	1.339636	0.378003	-0.175492
N111	N	1.589636	0.628003	0.074508
N112	N	1.839636	0.878003	0.324508
