data_functionalizedCrystal
_audit_creation_method	'MofGen! by Chris Wilmer'
_symmetry_space_group_name_H-M	'P1'
_symmetry_Int_Tables_number	1
_symmetry_cell_setting	triclinic
loop_
_symmetry_equiv_pos_as_xyz
  x,y,z
_cell_length_a	9.065218
_cell_length_b	16.109301
_cell_length_c	7.540329
_cell_angle_alpha	89.994987
_cell_angle_beta	89.996962
_cell_angle_gamma	84.238683
loop_
_atom_site_label
_atom_site_type_symbol
_atom_site_fract_x
_atom_site_fract_y
_atom_site_fract_z
O1	O	1.957449	0.121905	-0.147494
O2	O	2.457449	0.621905	0.352506
O3	O	1.527922	0.131904	-0.147497
O4	O	2.027922	0.631904	0.352503
O5	O	1.754485	0.005964	-0.147477
O6	O	2.254485	0.505964	0.352523
O7	O	1.730886	0.247845	-0.147513
O8	O	2.230886	0.747845	0.352487
O9	O	1.754472	0.005963	0.147488
O10	O	2.254472	0.505963	0.647488
O11	O	1.527909	0.131903	0.147468
O12	O	2.027909	0.631903	0.647468
O13	O	1.957435	0.121903	0.147471
O14	O	2.457435	0.621903	0.647471
Cu15	Cu	1.742671	0.126903	0.174402
Cu16	Cu	2.242671	0.626903	0.674402
Cu17	Cu	1.742687	0.126905	-0.174428
Cu18	Cu	2.242687	0.626905	0.325572
O19	O	1.730873	0.247843	0.147452
O20	O	2.230873	0.747843	0.647452
C21	C	1.472952	0.130943	-0.000014
C22	C	1.972952	0.630943	0.499986
C23	C	1.309179	0.128069	-0.000015
C24	C	1.809179	0.628069	0.499985
C25	C	1.753522	-0.025019	0.000006
C26	C	2.253522	0.474981	0.500006
C27	C	1.750656	-0.117336	0.000009
C28	C	2.250656	0.382664	0.500009
C29	C	1.878430	-0.338627	-0.000018
C30	C	2.378430	0.161373	0.499982
C31	C	1.875726	-0.425368	-0.000033
C32	C	2.375726	0.074632	0.499967
C33	C	1.606917	-0.407559	-0.000028
C34	C	2.106917	0.092441	0.499972
C35	C	1.609623	-0.320819	-0.000026
C36	C	2.109623	0.179181	0.499974
C37	C	1.745384	-0.286356	-0.000012
C38	C	2.245384	0.213644	0.499988
C39	C	1.739974	-0.459836	-0.000029
C40	C	2.239974	0.040164	0.499971
C41	C	1.737040	-0.553885	-0.000045
C42	C	2.237040	-0.053885	0.499955
C43	C	1.748318	-0.192301	0.000000
C44	C	2.248318	0.307699	0.500000
C45	C	2.012405	0.122865	-0.000015
C46	C	2.512405	0.622865	0.499985
C47	C	2.176179	0.125739	-0.000026
C48	C	2.676179	0.625739	0.499974
C49	C	1.731835	0.278826	-0.000036
C50	C	2.231835	0.778826	0.499964
C51	C	1.734701	0.371144	-0.000050
C52	C	2.234701	0.871144	0.499950
N53	N	1.742670	0.126901	0.419751
N54	N	2.242670	0.626901	0.919751
N55	N	1.742699	0.126900	-0.419776
N56	N	2.242699	0.626900	0.080224
H57	H	1.988976	-0.310570	-0.000011
H58	H	2.488976	0.189430	0.499989
Cl59	Cl	2.042993	-0.491077	-0.000044
Cl60	Cl	2.542993	0.008923	0.499956
H61	H	1.496385	-0.435630	-0.000036
H62	H	1.996385	0.064370	0.499964
Cl63	Cl	1.442350	-0.255102	-0.000034
Cl64	Cl	1.942350	0.244898	0.499966
