data_functionalizedCrystal
_audit_creation_method	'MofGen! by Chris Wilmer'
_symmetry_space_group_name_H-M	'P1'
_symmetry_Int_Tables_number	1
_symmetry_cell_setting	triclinic
loop_
_symmetry_equiv_pos_as_xyz
  x,y,z
_cell_length_a	14.908742
_cell_length_b	12.759394
_cell_length_c	14.908308
_cell_angle_alpha	86.731597
_cell_angle_beta	83.239341
_cell_angle_gamma	86.721332
loop_
_atom_site_label
_atom_site_type_symbol
_atom_site_fract_x
_atom_site_fract_y
_atom_site_fract_z
Zn1	Zn	1.354271	-0.538220	0.431779
Zn2	Zn	1.362922	-0.704335	0.280427
Zn3	Zn	1.211644	-0.519100	0.289186
Zn4	Zn	1.202894	-0.704276	0.440491
O5	O	1.282933	-0.616483	0.360471
O6	O	1.482080	-0.568282	0.404391
O7	O	1.350137	-0.671786	0.154927
O8	O	1.230605	-0.374619	0.308122
O9	O	1.488436	-0.690326	0.293193
O10	O	1.335392	-0.388666	0.412884
O11	O	1.238994	-0.535694	0.161362
O12	O	1.083821	-0.535637	0.316569
O13	O	1.215693	-0.690225	0.565998
O14	O	1.077393	-0.671685	0.427731
O15	O	1.326908	-0.568224	0.559598
O16	O	1.341653	-0.851344	0.301640
O17	O	1.224081	-0.851301	0.419238
C18	C	1.047765	-0.601581	0.374046
C19	C	0.947158	-0.595232	0.379875
C20	C	1.282880	-0.889445	0.360452
C21	C	1.282938	-1.006227	0.360470
C22	C	0.802039	-0.522867	0.446069
C23	C	0.896568	-0.528823	0.440597
C24	C	0.903213	-0.655692	0.324624
C25	C	0.808684	-0.649736	0.330096
C26	C	0.758100	-0.583320	0.390820
C27	C	0.663570	-0.577359	0.396287
C28	C	0.670216	-0.704233	0.280320
C29	C	0.764745	-0.710189	0.274847
C30	C	1.405447	-1.006230	0.238097
C31	C	1.466725	-1.061094	0.176920
C32	C	1.466776	-1.170821	0.176941
C33	C	1.405546	-1.225686	0.238148
C34	C	1.344268	-1.170821	0.299325
C35	C	1.344221	-1.061092	0.299295
C36	C	1.221765	-1.170819	0.421701
C37	C	1.221707	-1.061092	0.421677
C38	C	1.160534	-1.225684	0.482908
C39	C	1.099251	-1.170819	0.544082
C40	C	1.099201	-1.061086	0.544058
C41	C	1.160430	-1.006228	0.482854
C42	C	1.519019	-0.631444	0.346843
C43	C	1.619624	-0.637819	0.341036
C44	C	1.269359	-0.631351	0.596558
C45	C	1.263575	-0.637687	0.697164
C46	C	1.283010	-0.342457	0.360508
C47	C	1.283042	-0.225683	0.360524
C48	C	1.296505	-0.601599	0.125299
C49	C	1.302465	-0.594979	0.024683
C50	C	1.368512	-0.522529	0.879552
C51	C	1.363080	-0.528479	0.974080
C52	C	1.247275	-0.655530	0.980752
C53	C	1.252707	-0.649581	0.886223
C54	C	1.313329	-0.583079	0.835626
C55	C	1.318765	-0.577135	0.741096
C56	C	1.202956	-0.704181	0.747770
C57	C	1.197524	-0.710130	0.842298
H58	H	0.622386	-0.523275	0.445727
C59	C	0.746395	-0.449815	0.512860
H60	H	0.786103	-0.414667	0.544985
H61	H	0.711498	-0.399479	0.480440
H62	H	0.707265	-0.490242	0.554377
H63	H	1.160390	-0.916882	0.482822
H64	H	1.158024	-0.753488	0.711996
C65	C	1.130847	-0.783280	0.897955
H66	H	1.098757	-0.818486	0.858253
H67	H	1.163342	-0.833565	0.932828
H68	H	1.089293	-0.742911	0.937110
H69	H	1.417877	-0.468386	0.838355
C70	C	1.180595	-0.728672	1.036414
H71	H	1.148501	-0.763879	0.996717
H72	H	1.213088	-0.778956	1.071290
H73	H	1.139045	-0.688294	1.075566
H74	H	1.049406	-1.215499	0.593916
H75	H	0.932340	-0.479596	0.485586
C76	C	1.385438	-0.503980	0.685441
H77	H	1.417517	-0.468762	0.725144
H78	H	1.426989	-0.544335	0.646280
H79	H	1.352931	-0.453690	0.650575
H80	H	0.944414	-0.709768	0.275189
C81	C	1.031797	-1.000743	0.611356
H82	H	0.995339	-1.049137	0.647805
H83	H	1.064105	-0.962557	0.648810
H84	H	0.994348	-0.953320	0.578968
C85	C	0.820391	-0.783236	0.208054
H86	H	0.882983	-0.778121	0.212702
H87	H	0.804144	-0.853703	0.222085
H88	H	0.808385	-0.762931	0.148156
H89	H	1.408014	-0.479170	1.009840
H90	H	0.634431	-0.753461	0.235333
H91	H	1.405400	-0.916884	0.238062
H92	H	1.516678	-1.215492	0.127130
C93	C	1.534074	-1.000747	0.109595
H94	H	1.570580	-1.049139	0.073169
H95	H	1.501729	-0.953321	0.072120
H96	H	1.571480	-0.962566	0.141968
C97	C	1.405608	-1.346382	0.238175
H98	H	1.450870	-1.371199	0.192974
H99	H	1.417867	-1.375824	0.295702
H100	H	1.348121	-1.366584	0.225850
H101	H	1.160584	-1.315029	0.482925
