data_functionalizedCrystal
_audit_creation_method	'MofGen! by Chris Wilmer'
_symmetry_space_group_name_H-M	'P1'
_symmetry_Int_Tables_number	1
_symmetry_cell_setting	triclinic
loop_
_symmetry_equiv_pos_as_xyz
  x,y,z
_cell_length_a	18.050591
_cell_length_b	29.839126
_cell_length_c	29.839131
_cell_angle_alpha	90.031806
_cell_angle_beta	89.968767
_cell_angle_gamma	89.974078
loop_
_atom_site_label
_atom_site_type_symbol
_atom_site_fract_x
_atom_site_fract_y
_atom_site_fract_z
Zn1	Zn	1.135293	-0.254057	0.178936
Zn2	Zn	1.385293	-0.004057	0.428936
Zn3	Zn	1.635293	0.245943	0.678936
Zn4	Zn	1.885293	0.495943	0.928936
Zn5	Zn	1.135178	-0.178916	0.254056
Zn6	Zn	1.385178	0.071084	0.504056
Zn7	Zn	1.635178	0.321084	0.754056
Zn8	Zn	1.885178	0.571084	1.004056
Zn9	Zn	1.011101	-0.178931	0.178936
Zn10	Zn	1.261101	0.071069	0.428936
Zn11	Zn	1.511101	0.321069	0.678936
Zn12	Zn	1.761101	0.571069	0.928936
Zn13	Zn	1.011045	-0.254010	0.254034
Zn14	Zn	1.261045	-0.004010	0.504034
Zn15	Zn	1.511045	0.245990	0.754034
Zn16	Zn	1.761045	0.495990	1.004034
O17	O	1.073154	-0.216478	0.216490
O18	O	1.323154	0.033522	0.466490
O19	O	1.573154	0.283522	0.716490
O20	O	1.823154	0.533522	0.966490
O21	O	1.239202	-0.244103	0.188910
O22	O	1.489202	0.005897	0.438910
O23	O	1.739202	0.255897	0.688910
O24	O	1.989202	0.505897	0.938910
O25	O	1.118694	-0.116051	0.244100
O26	O	1.368694	0.133949	0.494100
O27	O	1.618694	0.383949	0.744100
O28	O	1.868694	0.633949	0.994100
O29	O	1.027647	-0.188922	0.116069
O30	O	1.277647	0.061078	0.366069
O31	O	1.527647	0.311078	0.616069
O32	O	1.777647	0.561078	0.866069
O33	O	1.239118	-0.188898	0.244100
O34	O	1.489118	0.061102	0.494100
O35	O	1.739118	0.311102	0.744100
O36	O	1.989118	0.561102	0.994100
O37	O	1.118891	-0.244117	0.116068
O38	O	1.368891	0.005883	0.366068
O39	O	1.618891	0.255883	0.616068
O40	O	1.868891	0.505883	0.866068
O41	O	1.027536	-0.116062	0.188910
O42	O	1.277536	0.133938	0.438910
O43	O	1.527536	0.383938	0.688910
O44	O	1.777536	0.633938	0.938910
O45	O	0.907169	-0.188877	0.188888
O46	O	1.157169	0.061123	0.438888
O47	O	1.407169	0.311123	0.688888
O48	O	1.657169	0.561123	0.938888
O49	O	1.027551	-0.316883	0.244063
O50	O	1.277551	-0.066883	0.494063
O51	O	1.527551	0.183117	0.744063
O52	O	1.777551	0.433117	0.994063
O53	O	0.907128	-0.244037	0.244063
O54	O	1.157128	0.005963	0.494063
O55	O	1.407128	0.255963	0.744063
O56	O	1.657128	0.505963	0.994063
O57	O	1.118836	-0.316918	0.188888
O58	O	1.368836	-0.066918	0.438888
O59	O	1.618836	0.183082	0.688888
O60	O	1.868836	0.433082	0.938888
O61	O	1.118639	-0.188852	0.316920
O62	O	1.368639	0.061148	0.566920
O63	O	1.618639	0.311148	0.816920
O64	O	1.868639	0.561148	1.066920
O65	O	1.027440	-0.244023	0.316904
O66	O	1.277440	0.005977	0.566904
O67	O	1.527440	0.255977	0.816904
O68	O	1.777440	0.505977	1.066904
C69	C	0.880202	-0.216454	0.216474
C70	C	1.130202	0.033546	0.466474
C71	C	1.380202	0.283546	0.716474
C72	C	1.630202	0.533546	0.966474
C73	C	0.797656	-0.216454	0.216477
C74	C	1.047656	0.033546	0.466477
C75	C	1.297656	0.283546	0.716477
C76	C	1.547656	0.533546	0.966477
C77	C	0.598207	-0.186527	0.186439
C78	C	0.848207	0.063473	0.436439
C79	C	1.098207	0.313473	0.686439
C80	C	1.348207	0.563473	0.936439
C81	C	0.548777	-0.175463	0.227414
C82	C	0.798777	0.074537	0.477414
C83	C	1.048777	0.324537	0.727414
C84	C	1.298777	0.574537	0.977414
C85	C	0.646526	-0.216474	0.216491
C86	C	0.896526	0.033526	0.466491
C87	C	1.146526	0.283526	0.716491
C88	C	1.396526	0.533526	0.966491
C89	C	0.548874	-0.227536	0.175530
C90	C	0.798874	0.022464	0.425530
C91	C	1.048874	0.272464	0.675530
C92	C	1.298874	0.522464	0.925530
C93	C	0.500541	-0.216493	0.216500
C94	C	0.750541	0.033507	0.466500
C95	C	1.000541	0.283507	0.716500
C96	C	1.250541	0.533507	0.966500
C97	C	0.598184	-0.205389	0.257488
C98	C	0.848184	0.044611	0.507488
C99	C	1.098184	0.294611	0.757488
C100	C	1.348184	0.544611	1.007488
C101	C	0.598285	-0.257481	0.205576
C102	C	0.848285	-0.007481	0.455576
C103	C	1.098285	0.242519	0.705576
C104	C	1.348285	0.492519	0.955576
C105	C	0.548877	-0.246433	0.246580
C106	C	0.798877	0.003567	0.496580
C107	C	1.048877	0.253567	0.746580
C108	C	1.298877	0.503567	0.996580
C109	C	0.730624	-0.216462	0.216485
C110	C	0.980624	0.033538	0.466485
C111	C	1.230624	0.283538	0.716485
C112	C	1.480624	0.533538	0.966485
C113	C	0.416444	-0.216505	0.216511
C114	C	0.666444	0.033495	0.466511
C115	C	0.916444	0.283495	0.716511
C116	C	1.166444	0.533495	0.966511
C117	C	1.073200	-0.333657	0.216473
C118	C	1.323200	-0.083657	0.466473
C119	C	1.573200	0.166343	0.716473
C120	C	1.823200	0.416343	0.966473
C121	C	1.073220	-0.383591	0.216466
C122	C	1.323220	-0.133591	0.466466
C123	C	1.573220	0.116409	0.716466
C124	C	1.823220	0.366409	0.966466
C125	C	1.025769	-0.693243	0.187683
C126	C	1.275769	-0.443243	0.437683
C127	C	1.525769	-0.193243	0.687683
C128	C	1.775769	0.056757	0.937683
C129	C	1.025790	-0.880916	0.187652
C130	C	1.275790	-0.630916	0.437652
C131	C	1.525790	-0.380916	0.687652
C132	C	1.775790	-0.130916	0.937652
O133	O	0.985408	-0.905188	0.163225
O134	O	1.235408	-0.655188	0.413225
O135	O	1.485408	-0.405188	0.663225
O136	O	1.735408	-0.155188	0.913225
N137	N	1.073255	-0.904377	0.216382
N138	N	1.323255	-0.654377	0.466382
N139	N	1.573255	-0.404377	0.716382
N140	N	1.823255	-0.154377	0.966382
C141	C	1.120715	-0.880916	0.245123
C142	C	1.370715	-0.630916	0.495123
C143	C	1.620715	-0.380916	0.745123
C144	C	1.870715	-0.130916	0.995123
O145	O	1.161083	-0.905176	0.269562
O146	O	1.411083	-0.655176	0.519562
O147	O	1.661083	-0.405176	0.769562
O148	O	1.911083	-0.155176	1.019562
C149	C	1.120690	-0.693243	0.245156
C150	C	1.370690	-0.443243	0.495156
C151	C	1.620690	-0.193243	0.745156
C152	C	1.870690	0.056757	0.995156
C153	C	1.073227	-0.669786	0.216421
C154	C	1.323227	-0.419786	0.466421
C155	C	1.573227	-0.169786	0.716421
C156	C	1.823227	0.080214	0.966421
C157	C	0.978309	-0.669785	0.158951
C158	C	1.228309	-0.419785	0.408951
C159	C	1.478309	-0.169785	0.658951
C160	C	1.728309	0.080215	0.908951
C161	C	0.978307	-0.622870	0.158957
C162	C	1.228307	-0.372870	0.408957
C163	C	1.478307	-0.122870	0.658957
C164	C	1.728307	0.127130	0.908957
C165	C	1.025765	-0.599412	0.187696
C166	C	1.275765	-0.349412	0.437696
C167	C	1.525765	-0.099412	0.687696
C168	C	1.775765	0.150588	0.937696
C169	C	1.073225	-0.622870	0.216428
C170	C	1.323225	-0.372870	0.466428
C171	C	1.573225	-0.122870	0.716428
C172	C	1.823225	0.127130	0.966428
C173	C	1.168146	-0.669783	0.273900
C174	C	1.418146	-0.419783	0.523900
C175	C	1.668146	-0.169783	0.773900
C176	C	1.918146	0.080217	1.023900
C177	C	1.168134	-0.622862	0.273906
C178	C	1.418134	-0.372862	0.523906
C179	C	1.668134	-0.122862	0.773906
C180	C	1.918134	0.127138	1.023906
C181	C	1.120671	-0.599404	0.245171
C182	C	1.370671	-0.349404	0.495171
C183	C	1.620671	-0.099404	0.745171
C184	C	1.870671	0.150596	0.995171
C185	C	1.120681	-0.552497	0.245173
C186	C	1.370681	-0.302497	0.495173
C187	C	1.620681	-0.052497	0.745173
C188	C	1.870681	0.197503	0.995173
N189	N	1.073215	-0.529037	0.216443
N190	N	1.323215	-0.279037	0.466443
N191	N	1.573215	-0.029037	0.716443
N192	N	1.823215	0.220963	0.966443
C193	C	1.025757	-0.552494	0.187705
C194	C	1.275757	-0.302494	0.437705
C195	C	1.525757	-0.052494	0.687705
C196	C	1.775757	0.197506	0.937705
C197	C	1.120726	-0.979446	0.245103
C198	C	1.370726	-0.729446	0.495103
C199	C	1.620726	-0.479446	0.745103
C200	C	1.870726	-0.229446	0.995103
C201	C	1.120734	-1.026364	0.245094
C202	C	1.370734	-0.776364	0.495094
C203	C	1.620734	-0.526364	0.745094
C204	C	1.870734	-0.276364	0.995094
C205	C	1.025807	-1.026362	0.187624
C206	C	1.275807	-0.776362	0.437624
C207	C	1.525807	-0.526362	0.687624
C208	C	1.775807	-0.276362	0.937624
C209	C	1.025804	-0.979443	0.187630
C210	C	1.275804	-0.729443	0.437630
C211	C	1.525804	-0.479443	0.687630
C212	C	1.775804	-0.229443	0.937630
C213	C	1.073261	-0.955986	0.216373
C214	C	1.323261	-0.705986	0.466373
C215	C	1.573261	-0.455986	0.716373
C216	C	1.823261	-0.205986	0.966373
C217	C	1.025757	-0.453969	0.187720
C218	C	1.275757	-0.203969	0.437720
C219	C	1.525757	0.046031	0.687720
C220	C	1.775757	0.296031	0.937720
C221	C	1.025762	-0.407049	0.187727
C222	C	1.275762	-0.157049	0.437727
C223	C	1.525762	0.092951	0.687727
C224	C	1.775762	0.342951	0.937727
C225	C	1.120685	-0.407056	0.245200
C226	C	1.370685	-0.157056	0.495200
C227	C	1.620685	0.092944	0.745200
C228	C	1.870685	0.342944	0.995200
C229	C	1.120684	-0.453971	0.245190
C230	C	1.370684	-0.203971	0.495190
C231	C	1.620684	0.046029	0.745190
C232	C	1.870684	0.296029	0.995190
C233	C	1.073214	-0.477426	0.216449
C234	C	1.323214	-0.227426	0.466449
C235	C	1.573214	0.022574	0.716449
C236	C	1.823214	0.272574	0.966449
O237	O	1.161036	-0.528196	0.269591
O238	O	1.411036	-0.278196	0.519591
O239	O	1.661036	-0.028196	0.769591
O240	O	1.911036	0.221804	1.019591
O241	O	0.985384	-0.528226	0.163276
O242	O	1.235384	-0.278226	0.413276
O243	O	1.485384	-0.028226	0.663276
O244	O	1.735384	0.221774	0.913276
C245	C	1.025770	-0.740159	0.187677
C246	C	1.275770	-0.490159	0.437677
C247	C	1.525770	-0.240159	0.687677
C248	C	1.775770	0.009841	0.937677
C249	C	1.073230	-0.763617	0.216409
C250	C	1.323230	-0.513617	0.466409
C251	C	1.573230	-0.263617	0.716409
C252	C	1.823230	-0.013617	0.966409
C253	C	1.120689	-0.740159	0.245147
C254	C	1.370689	-0.490159	0.495147
C255	C	1.620689	-0.240159	0.745147
C256	C	1.870689	0.009841	0.995147
C257	C	1.073238	-0.810534	0.216400
C258	C	1.323238	-0.560534	0.466400
C259	C	1.573238	-0.310534	0.716400
C260	C	1.823238	-0.060534	0.966400
C261	C	1.025780	-0.833992	0.187662
C262	C	1.275780	-0.583992	0.437662
C263	C	1.525780	-0.333992	0.687662
C264	C	1.775780	-0.083992	0.937662
C265	C	0.978314	-0.810532	0.158932
C266	C	1.228314	-0.560532	0.408932
C267	C	1.478314	-0.310532	0.658932
C268	C	1.728314	-0.060532	0.908932
C269	C	0.978312	-0.763616	0.158938
C270	C	1.228312	-0.513616	0.408938
C271	C	1.478312	-0.263616	0.658938
C272	C	1.728312	-0.013616	0.908938
C273	C	1.168154	-0.763619	0.273877
C274	C	1.418154	-0.513619	0.523877
C275	C	1.668154	-0.263619	0.773877
C276	C	1.918154	-0.013619	1.023877
C277	C	1.168153	-0.810535	0.273868
C278	C	1.418153	-0.560535	0.523868
C279	C	1.668153	-0.310535	0.773868
C280	C	1.918153	-0.060535	1.023868
C281	C	1.120695	-0.833992	0.245129
C282	C	1.370695	-0.583992	0.495129
C283	C	1.620695	-0.333992	0.745129
C284	C	1.870695	-0.083992	0.995129
C285	C	1.266860	-0.216504	0.216507
C286	C	1.516860	0.033496	0.466507
C287	C	1.766860	0.283496	0.716507
C288	C	2.016860	0.533496	0.966507
C289	C	1.349406	-0.216514	0.216515
C290	C	1.599406	0.033486	0.466515
C291	C	1.849406	0.283486	0.716515
C292	C	2.099406	0.533486	0.966515
C293	C	1.073041	-0.216441	0.333213
C294	C	1.323041	0.033559	0.583213
C295	C	1.573041	0.283559	0.833213
C296	C	1.823041	0.533559	1.083213
C297	C	1.073060	-0.216439	0.383147
C298	C	1.323060	0.033561	0.633147
C299	C	1.573060	0.283561	0.883147
C300	C	1.823060	0.533561	1.133147
C301	C	1.073151	-0.099756	0.216475
C302	C	1.323151	0.150244	0.466475
C303	C	1.573151	0.400244	0.716475
C304	C	1.823151	0.650244	0.966475
C305	C	1.073276	-0.049822	0.216356
C306	C	1.323276	0.200178	0.466356
C307	C	1.573276	0.450178	0.716356
C308	C	1.823276	0.700178	0.966356
C309	C	1.073288	-0.216526	0.099312
C310	C	1.323288	0.033474	0.349312
C311	C	1.573288	0.283474	0.599312
C312	C	1.823288	0.533474	0.849312
C313	C	1.073345	-0.216547	0.049378
C314	C	1.323345	0.033453	0.299378
C315	C	1.573345	0.283453	0.549378
C316	C	1.823345	0.533453	0.799378
C317	C	1.120654	-0.245259	0.692756
C318	C	1.370654	0.004741	0.942756
C319	C	1.620654	0.254741	1.192756
C320	C	1.870654	0.504741	1.442756
C321	C	1.120735	-0.245286	0.880429
C322	C	1.370735	0.004714	1.130429
C323	C	1.620735	0.254714	1.380429
C324	C	1.870735	0.504714	1.630429
O325	O	1.161090	-0.269762	0.904664
O326	O	1.411090	-0.019762	1.154664
O327	O	1.661090	0.230238	1.404664
O328	O	1.911090	0.480238	1.654664
N329	N	1.073280	-0.216528	0.903932
N330	N	1.323280	0.033472	1.153932
N331	N	1.573280	0.283472	1.403932
N332	N	1.823280	0.533472	1.653932
C333	C	1.025799	-0.187764	0.880515
C334	C	1.275799	0.062236	1.130515
C335	C	1.525799	0.312236	1.380515
C336	C	1.775799	0.562236	1.630515
O337	O	0.985433	-0.163307	0.904812
O338	O	1.235433	0.086693	1.154812
O339	O	1.485433	0.336693	1.404812
O340	O	1.735433	0.586693	1.654812
C341	C	1.025715	-0.187739	0.692843
C342	C	1.275715	0.062261	0.942843
C343	C	1.525715	0.312261	1.192843
C344	C	1.775715	0.562261	1.442843
C345	C	1.073178	-0.216496	0.669342
C346	C	1.323178	0.033504	0.919342
C347	C	1.573178	0.283504	1.169342
C348	C	1.823178	0.533504	1.419342
C349	C	1.168112	-0.274014	0.669255
C350	C	1.418112	-0.024014	0.919255
C351	C	1.668112	0.225986	1.169255
C352	C	1.918112	0.475986	1.419255
C353	C	1.168095	-0.274005	0.622339
C354	C	1.418095	-0.024005	0.872339
C355	C	1.668095	0.225995	1.122339
C356	C	1.918095	0.475995	1.372339
C357	C	1.120619	-0.245242	0.598925
C358	C	1.370619	0.004758	0.848925
C359	C	1.620619	0.254758	1.098925
C360	C	1.870619	0.504758	1.348925
C361	C	1.073160	-0.216487	0.622426
C362	C	1.323160	0.033513	0.872426
C363	C	1.573160	0.283513	1.122426
C364	C	1.823160	0.533513	1.372426
C365	C	0.978231	-0.158977	0.669426
C366	C	1.228231	0.091023	0.919426
C367	C	1.478231	0.341023	1.169426
C368	C	1.728231	0.591023	1.419426
C369	C	0.978213	-0.158975	0.622505
C370	C	1.228213	0.091025	0.872505
C371	C	1.478213	0.341025	1.122505
C372	C	1.728213	0.591025	1.372505
C373	C	1.025675	-0.187731	0.599004
C374	C	1.275675	0.062269	0.849004
C375	C	1.525675	0.312269	1.099004
C376	C	1.775675	0.562269	1.349004
C377	C	1.025666	-0.187715	0.552096
C378	C	1.275666	0.062285	0.802096
C379	C	1.525666	0.312285	1.052096
C380	C	1.775666	0.562285	1.302096
N381	N	1.073121	-0.216473	0.528593
N382	N	1.323121	0.033527	0.778593
N383	N	1.573121	0.283527	1.028593
N384	N	1.823121	0.533527	1.278593
C385	C	1.120597	-0.245236	0.552007
C386	C	1.370597	0.004764	0.802007
C387	C	1.620597	0.254764	1.052007
C388	C	1.870597	0.504764	1.302007
C389	C	1.025847	-0.187778	0.979045
C390	C	1.275847	0.062222	1.229045
C391	C	1.525847	0.312222	1.479045
C392	C	1.775847	0.562222	1.729045
C393	C	1.025869	-0.187783	1.025963
C394	C	1.275869	0.062217	1.275963
C395	C	1.525869	0.312217	1.525963
C396	C	1.775869	0.562217	1.775963
C397	C	1.120804	-0.245307	1.025874
C398	C	1.370804	0.004693	1.275874
C399	C	1.620804	0.254693	1.525874
C400	C	1.870804	0.504693	1.775874
C401	C	1.120786	-0.245299	0.978955
C402	C	1.370786	0.004701	1.228955
C403	C	1.620786	0.254701	1.478955
C404	C	1.870786	0.504701	1.728955
C405	C	1.073302	-0.216536	0.955542
C406	C	1.323302	0.033464	1.205542
C407	C	1.573302	0.283464	1.455542
C408	C	1.823302	0.533464	1.705542
C409	C	1.120556	-0.245215	0.453481
C410	C	1.370556	0.004785	0.703481
C411	C	1.620556	0.254785	0.953481
C412	C	1.870556	0.504785	1.203481
C413	C	1.120537	-0.245203	0.406562
C414	C	1.370537	0.004797	0.656562
C415	C	1.620537	0.254797	0.906562
C416	C	1.870537	0.504797	1.156562
C417	C	1.025599	-0.187681	0.406655
C418	C	1.275599	0.062319	0.656655
C419	C	1.525599	0.312319	0.906655
C420	C	1.775599	0.562319	1.156655
C421	C	1.025621	-0.187692	0.453570
C422	C	1.275621	0.062308	0.703570
C423	C	1.525621	0.312308	0.953570
C424	C	1.775621	0.562308	1.203570
C425	C	1.073103	-0.216463	0.476982
C426	C	1.323103	0.033537	0.726982
C427	C	1.573103	0.283537	0.976982
C428	C	1.823103	0.533537	1.226982
O429	O	0.985327	-0.163256	0.527832
O430	O	1.235327	0.086744	0.777832
O431	O	1.485327	0.336744	1.027832
O432	O	1.735327	0.586744	1.277832
O433	O	1.160946	-0.269696	0.527702
O434	O	1.410946	-0.019696	0.777702
O435	O	1.660946	0.230304	1.027702
O436	O	1.910946	0.480304	1.277702
C437	C	1.120672	-0.245268	0.739671
C438	C	1.370672	0.004732	0.989671
C439	C	1.620672	0.254732	1.239671
C440	C	1.870672	0.504732	1.489671
C441	C	1.073214	-0.216513	0.763172
C442	C	1.323214	0.033487	1.013172
C443	C	1.573214	0.283487	1.263172
C444	C	1.823214	0.533487	1.513172
C445	C	1.025737	-0.187750	0.739758
C446	C	1.275737	0.062250	0.989758
C447	C	1.525737	0.312250	1.239758
C448	C	1.775737	0.562250	1.489758
C449	C	1.073235	-0.216519	0.810090
C450	C	1.323235	0.033481	1.060090
C451	C	1.573235	0.283481	1.310090
C452	C	1.823235	0.533481	1.560090
C453	C	1.120711	-0.245282	0.833505
C454	C	1.370711	0.004718	1.083505
C455	C	1.620711	0.254718	1.333505
C456	C	1.870711	0.504718	1.583505
C457	C	1.168166	-0.274040	0.810001
C458	C	1.418166	-0.024040	1.060001
C459	C	1.668166	0.225960	1.310001
C460	C	1.918166	0.475960	1.560001
C461	C	1.168148	-0.274031	0.763086
C462	C	1.418148	-0.024031	1.013086
C463	C	1.668148	0.225969	1.263086
C464	C	1.918148	0.475969	1.513086
C465	C	0.978283	-0.158992	0.763262
C466	C	1.228283	0.091008	1.013262
C467	C	1.478283	0.341008	1.263262
C468	C	1.728283	0.591008	1.513262
C469	C	0.978305	-0.159003	0.810177
C470	C	1.228305	0.090997	1.060177
C471	C	1.478305	0.340997	1.310177
C472	C	1.728305	0.590997	1.560177
C473	C	1.025781	-0.187766	0.833591
C474	C	1.275781	0.062234	1.083591
C475	C	1.525781	0.312234	1.333591
C476	C	1.775781	0.562234	1.583591
H477	H	0.527032	-0.140793	0.236653
H478	H	0.777032	0.109207	0.486653
H479	H	1.027032	0.359207	0.736653
H480	H	1.277032	0.609207	0.986653
Cl481	Cl	1.180487	-0.281466	1.055318
Cl482	Cl	1.430487	-0.031466	1.305318
Cl483	Cl	1.680487	0.218534	1.555318
Cl484	Cl	1.930487	0.468534	1.805318
H485	H	0.987111	-0.387952	0.164326
H486	H	1.237111	-0.137952	0.414326
H487	H	1.487111	0.112048	0.664326
H488	H	1.737111	0.362048	0.914326
Cl489	Cl	1.180397	-0.949964	0.281239
Cl490	Cl	1.430397	-0.699964	0.531239
Cl491	Cl	1.680397	-0.449964	0.781239
Cl492	Cl	1.930397	-0.199964	1.031239
H493	H	0.527174	-0.236869	0.140890
H494	H	0.777174	0.013131	0.390890
H495	H	1.027174	0.263131	0.640890
H496	H	1.277174	0.513131	0.890890
H497	H	1.159215	-0.268646	0.472538
H498	H	1.409215	-0.018646	0.722538
H499	H	1.659215	0.231354	0.972538
H500	H	1.909215	0.481354	1.222538
Cl501	Cl	0.966085	-0.483448	0.151584
Cl502	Cl	1.216085	-0.233448	0.401584
Cl503	Cl	1.466085	0.016552	0.651584
Cl504	Cl	1.716085	0.266552	0.901584
H505	H	1.206825	-0.297459	0.829073
H506	H	1.456825	-0.047459	1.079073
H507	H	1.706825	0.202541	1.329073
H508	H	1.956825	0.452541	1.579073
Cl509	Cl	0.631481	-0.190893	0.310991
Cl510	Cl	0.881481	0.059107	0.560991
Cl511	Cl	1.131481	0.309107	0.810991
Cl512	Cl	1.381481	0.559107	1.060991
H513	H	0.987228	-0.164362	1.045094
H514	H	1.237228	0.085638	1.295094
H515	H	1.487228	0.335638	1.545094
H516	H	1.737228	0.585638	1.795094
Cl517	Cl	0.918630	-0.593387	0.122835
Cl518	Cl	1.168630	-0.343387	0.372835
Cl519	Cl	1.418630	-0.093387	0.622835
Cl520	Cl	1.668630	0.156613	0.872835
H521	H	0.939656	-0.135582	0.829308
H522	H	1.189656	0.114418	1.079308
H523	H	1.439656	0.364418	1.329308
H524	H	1.689656	0.614418	1.579308
Cl525	Cl	0.631651	-0.147386	0.147243
Cl526	Cl	0.881651	0.102614	0.397243
Cl527	Cl	1.131651	0.352614	0.647243
Cl528	Cl	1.381651	0.602614	0.897243
Cl529	Cl	0.918630	-0.699267	0.122823
Cl530	Cl	1.168630	-0.449267	0.372823
Cl531	Cl	1.418630	-0.199267	0.622823
Cl532	Cl	1.668630	0.050733	0.872823
Cl533	Cl	0.515643	-0.285547	0.285867
Cl534	Cl	0.765643	-0.035547	0.535867
Cl535	Cl	1.015643	0.214453	0.785867
Cl536	Cl	1.265643	0.464453	1.035867
H537	H	0.987179	-0.164355	0.959985
H538	H	1.237179	0.085645	1.209985
H539	H	1.487179	0.335645	1.459985
H540	H	1.737179	0.585645	1.709985
H541	H	0.987155	-0.960347	0.164232
H542	H	1.237155	-0.710347	0.414232
H543	H	1.487155	-0.460347	0.664232
H544	H	1.737155	-0.210347	0.914232
H545	H	0.986979	-0.164273	0.472706
H546	H	1.236979	0.085727	0.722706
H547	H	1.486979	0.335727	0.972706
H548	H	1.736979	0.585727	1.222706
H549	H	1.206796	-0.297448	0.743954
H550	H	1.456796	-0.047448	0.993954
H551	H	1.706796	0.202552	1.243954
H552	H	1.956796	0.452552	1.493954
H553	H	0.939675	-0.829639	0.135530
H554	H	1.189675	-0.579639	0.385530
H555	H	1.439675	-0.329639	0.635530
H556	H	1.689675	-0.079639	0.885530
Cl557	Cl	0.918589	-0.122831	0.733834
Cl558	Cl	1.168589	0.127169	0.983834
Cl559	Cl	1.418589	0.377169	1.233834
Cl560	Cl	1.668589	0.627169	1.483834
Cl561	Cl	0.631884	-0.310996	0.191294
Cl562	Cl	0.881884	-0.060996	0.441294
Cl563	Cl	1.131884	0.189004	0.691294
Cl564	Cl	1.381884	0.439004	0.941294
H565	H	1.159391	-1.045460	0.268488
H566	H	1.409391	-0.795460	0.518488
H567	H	1.659391	-0.545460	0.768488
H568	H	1.909391	-0.295460	1.018488
H569	H	1.206741	-0.297422	0.603207
H570	H	1.456741	-0.047422	0.853207
H571	H	1.706741	0.202578	1.103207
H572	H	1.956741	0.452578	1.353207
Cl573	Cl	0.966144	-1.055860	0.151496
Cl574	Cl	1.216144	-0.805860	0.401496
Cl575	Cl	1.466144	-0.555860	0.651496
Cl576	Cl	1.716144	-0.305860	0.901496
Cl577	Cl	0.918515	-0.122813	0.593074
Cl578	Cl	1.168515	0.127187	0.843074
Cl579	Cl	1.418515	0.377187	1.093074
Cl580	Cl	1.668515	0.627187	1.343074
Cl581	Cl	1.180454	-0.281452	0.949416
Cl582	Cl	1.430454	-0.031452	1.199416
Cl583	Cl	1.680454	0.218548	1.449416
Cl584	Cl	1.930454	0.468548	1.699416
H585	H	1.206795	-0.688875	0.297299
H586	H	1.456795	-0.438875	0.547299
H587	H	1.706795	-0.188875	0.797299
H588	H	1.956795	0.061125	1.047299
H589	H	1.206785	-0.603766	0.297310
H590	H	1.456785	-0.353766	0.547310
H591	H	1.706785	-0.103766	0.797310
H592	H	1.956785	0.146234	1.047310
Cl593	Cl	1.227803	-0.310180	0.698681
Cl594	Cl	1.477803	-0.060180	0.948681
Cl595	Cl	1.727803	0.189820	1.198681
Cl596	Cl	1.977803	0.439820	1.448681
H597	H	1.159341	-0.473071	0.268584
H598	H	1.409341	-0.223071	0.518584
H599	H	1.659341	0.026929	0.768584
H600	H	1.909341	0.276929	1.018584
Cl601	Cl	1.180347	-0.377557	0.281324
Cl602	Cl	1.430347	-0.127557	0.531324
Cl603	Cl	1.680347	0.122443	0.781324
Cl604	Cl	1.930347	0.372443	1.031324
Cl605	Cl	0.918640	-0.734134	0.122813
Cl606	Cl	1.168640	-0.484134	0.372813
Cl607	Cl	1.418640	-0.234134	0.622813
Cl608	Cl	1.668640	0.015866	0.872813
Cl609	Cl	1.227829	-0.840019	0.309994
Cl610	Cl	1.477829	-0.590019	0.559994
Cl611	Cl	1.727829	-0.340019	0.809994
Cl612	Cl	1.977829	-0.090019	1.059994
Cl613	Cl	0.918556	-0.122826	0.698959
Cl614	Cl	1.168556	0.127174	0.948959
Cl615	Cl	1.418556	0.377174	1.198959
Cl616	Cl	1.668556	0.627174	1.448959
H617	H	0.986947	-0.164261	0.387584
H618	H	1.236947	0.085739	0.637584
H619	H	1.486947	0.335739	0.887584
H620	H	1.736947	0.585739	1.137584
H621	H	1.206798	-0.744525	0.297281
H622	H	1.456798	-0.494525	0.547281
H623	H	1.706798	-0.244525	0.797281
H624	H	1.956798	0.005475	1.047281
H625	H	1.159189	-0.268620	0.387428
H626	H	1.409189	-0.018620	0.637428
H627	H	1.659189	0.231380	0.887428
H628	H	1.909189	0.481380	1.137428
