data_functionalizedCrystal
_audit_creation_method	'MofGen! by Chris Wilmer'
_symmetry_space_group_name_H-M	'P1'
_symmetry_Int_Tables_number	1
_symmetry_cell_setting	triclinic
loop_
_symmetry_equiv_pos_as_xyz
  x,y,z
_cell_length_a	19.077105
_cell_length_b	18.101395
_cell_length_c	19.076919
_cell_angle_alpha	87.727683
_cell_angle_beta	89.923776
_cell_angle_gamma	87.727498
loop_
_atom_site_label
_atom_site_type_symbol
_atom_site_fract_x
_atom_site_fract_y
_atom_site_fract_z
Zn1	Zn	1.058231	-0.358271	0.440421
Zn2	Zn	1.558231	0.141729	0.940421
Zn3	Zn	1.062857	-0.477344	0.322915
Zn4	Zn	1.562857	0.022656	0.822915
Zn5	Zn	0.945450	-0.348351	0.318214
Zn6	Zn	1.445450	0.151649	0.818214
Zn7	Zn	0.940679	-0.476897	0.435668
Zn8	Zn	1.440679	0.023103	0.935668
O9	O	1.001804	-0.415216	0.379305
O10	O	1.501804	0.084784	0.879305
O11	O	1.157176	-0.378405	0.428790
O12	O	1.657176	0.121595	0.928790
O13	O	1.051216	-0.456268	0.223960
O14	O	1.551216	0.043732	0.723960
O15	O	0.960470	-0.246037	0.334447
O16	O	1.460470	0.253963	0.834447
O17	O	1.160575	-0.465887	0.342459
O18	O	1.660575	0.034113	0.842459
O19	O	1.043330	-0.253326	0.424232
O20	O	1.543330	0.246674	0.924232
O21	O	0.964957	-0.361497	0.220507
O22	O	1.464957	0.138503	0.720507
O23	O	0.846486	-0.361064	0.329838
O24	O	1.346486	0.138936	0.829838
O25	O	0.952340	-0.465126	0.534630
O26	O	1.452340	0.034874	1.034630
O27	O	0.842981	-0.455506	0.416131
O28	O	1.342981	0.044494	0.916131
O29	O	1.038704	-0.377972	0.538122
O30	O	1.538704	0.122028	1.038122
O31	O	1.046590	-0.580914	0.337850
O32	O	1.546590	-0.080914	0.837850
O33	O	0.956826	-0.580586	0.420689
O34	O	1.456826	-0.080586	0.920689
C35	C	0.819237	-0.407161	0.371959
C36	C	1.319237	0.092839	0.871959
C37	C	0.741133	-0.403733	0.368833
C38	C	1.241133	0.096267	0.868833
C39	C	0.702636	-0.451363	0.412222
C40	C	1.202636	0.048637	0.912222
C41	C	0.629249	-0.448133	0.409288
C42	C	1.129249	0.051867	0.909288
C43	C	0.594361	-0.397276	0.362962
C44	C	1.094361	0.102724	0.862962
C45	C	0.632863	-0.349642	0.319571
C46	C	1.132863	0.150358	0.819571
C47	C	0.706248	-0.352869	0.322509
C48	C	1.206248	0.147131	0.822509
C49	C	0.375075	-0.382341	0.349369
C50	C	0.875075	0.117659	0.849369
C51	C	0.301684	-0.379119	0.346433
C52	C	0.801684	0.120881	0.846433
C53	C	0.298076	-0.477610	0.436152
C54	C	0.798076	0.022390	0.936152
C55	C	0.371463	-0.480836	0.439082
C56	C	0.871463	0.019164	0.939082
C57	C	0.409959	-0.433198	0.395694
C58	C	0.909959	0.066802	0.895694
N59	N	0.519348	-0.393975	0.359960
N60	N	1.019348	0.106025	0.859960
N61	N	0.484970	-0.436497	0.398700
N62	N	0.984970	0.063503	0.898700
C63	C	1.001711	-0.607621	0.379280
C64	C	1.501711	-0.107621	0.879280
C65	C	1.001735	-0.689937	0.379296
C66	C	1.501735	-0.189937	0.879296
C67	C	1.001887	-0.989036	0.379340
C68	C	1.501887	-0.489036	0.879340
C69	C	0.945531	-0.957547	0.431600
C70	C	1.445531	-0.457547	0.931600
C71	C	0.945280	-0.871910	0.431419
C72	C	1.445280	-0.371910	0.931419
C73	C	1.001811	-0.840650	0.379319
C74	C	1.501811	-0.340650	0.879319
C75	C	0.984741	-0.867911	0.304458
C76	C	1.484741	-0.367911	0.804458
C77	C	0.984379	-0.953554	0.304770
C78	C	1.484379	-0.453554	0.804770
C79	C	1.075459	-0.961424	0.401293
C80	C	1.575459	-0.461424	0.901293
C81	C	1.074956	-0.875820	0.402900
C82	C	1.574956	-0.375820	0.902900
C83	C	1.001770	-0.756788	0.379302
C84	C	1.501770	-0.256788	0.879302
C85	C	1.001927	-1.072898	0.379351
C86	C	1.501927	-0.572898	0.879351
C87	C	1.185084	-0.423303	0.386679
C88	C	1.685084	0.076697	0.886679
C89	C	1.263188	-0.426749	0.389822
C90	C	1.763188	0.073251	0.889822
C91	C	0.994474	-0.422606	0.562585
C92	C	1.494474	0.077394	1.062585
C93	C	0.991350	-0.425755	0.640688
C94	C	1.491350	0.074245	1.140688
C95	C	1.001916	-0.222060	0.379345
C96	C	1.501916	0.277940	0.879345
C97	C	1.001964	-0.139749	0.379363
C98	C	1.501964	0.360251	0.879363
C99	C	1.009146	-0.407803	0.196739
C100	C	1.509146	0.092197	0.696739
C101	C	1.012406	-0.404451	0.118642
C102	C	1.512406	0.095549	0.618642
C103	C	1.034846	-0.381860	0.679200
C104	C	1.534846	0.118140	1.179200
C105	C	1.031902	-0.384816	0.752586
C106	C	1.531902	0.115184	1.252586
C107	C	0.985466	-0.431671	0.787458
C108	C	1.485466	0.068329	1.287458
C109	C	0.941966	-0.475568	0.748941
C110	C	1.441966	0.024432	1.248941
C111	C	0.944906	-0.472608	0.675556
C112	C	1.444906	0.027392	1.175556
C113	C	0.971847	-0.445387	1.006740
C114	C	1.471847	0.054613	1.506740
C115	C	0.968911	-0.448346	1.080130
C116	C	1.468911	0.051654	1.580130
C117	C	1.058847	-0.357593	1.083770
C118	C	1.558847	0.142407	1.583770
C119	C	1.061786	-0.354640	1.010384
C120	C	1.561786	0.145360	1.510384
C121	C	1.018283	-0.398533	0.971872
C122	C	1.518283	0.101467	1.471872
N123	N	0.982458	-0.434696	0.862471
N124	N	1.482458	0.065304	1.362471
N125	N	1.021289	-0.395505	0.896861
N126	N	1.521289	0.104495	1.396861
H127	H	0.737591	-0.314080	0.287181
H128	H	1.237591	0.185920	0.787181
O129	O	1.105746	-0.310229	1.125304
O130	O	1.605746	0.189771	1.625304
H131	H	1.095892	-0.320146	1.182191
H132	H	1.595892	0.179854	1.682191
H133	H	0.955615	-0.853628	0.486834
H134	H	1.455615	-0.353628	0.986834
O135	O	0.958998	-0.988813	0.505118
O136	O	1.458998	-0.488813	1.005118
H137	H	1.011789	-0.973525	0.522570
H138	H	1.511789	-0.473525	1.022570
H139	H	0.731037	-0.492778	0.449944
H140	H	1.231037	0.007222	0.949944
O141	O	0.595223	-0.294798	0.269603
O142	O	1.095223	0.205202	0.769603
H143	H	0.608837	-0.237800	0.282314
H144	H	1.108837	0.262200	0.782314
H145	H	0.273280	-0.337698	0.308713
H146	H	0.773280	0.162302	0.808713
O147	O	0.873645	-0.982262	0.412253
O148	O	1.373645	-0.482262	0.912253
H149	H	0.877881	-1.016875	0.365578
H150	H	1.377881	-0.516875	0.865578
H151	H	0.890687	-0.848550	0.416642
H152	H	1.390687	-0.348550	0.916642
O153	O	0.918819	-0.498879	1.117746
O154	O	1.418819	0.001121	1.617746
H155	H	0.889057	-0.528898	1.078639
H156	H	1.389057	-0.028898	1.578639
O157	O	1.133203	-0.847960	0.356471
O158	O	1.633203	-0.347960	0.856471
H159	H	1.184056	-0.873857	0.374560
H160	H	1.684056	-0.373857	0.874560
H161	H	0.266725	-0.516393	0.471476
H162	H	0.766725	-0.016393	0.971476
H163	H	1.091602	-0.985932	0.455108
H164	H	1.591602	-0.485932	0.955108
O165	O	1.036593	-0.980951	0.251214
O166	O	1.536593	-0.480951	0.751214
H167	H	1.061986	-0.933027	0.225203
H168	H	1.561986	-0.433027	0.725203
H169	H	0.597908	-0.486918	0.444619
H170	H	1.097908	0.013082	0.944619
H171	H	0.399864	-0.522250	0.476804
H172	H	0.899864	-0.022250	0.976804
O173	O	0.924892	-0.492687	0.965204
O174	O	1.424892	0.007313	1.465204
H175	H	0.892101	-0.525754	1.001784
H176	H	1.392101	-0.025754	1.501784
H177	H	0.930687	-0.970551	0.286519
H178	H	1.430687	-0.470551	0.786519
O179	O	1.078818	-0.337473	0.794123
O180	O	1.578818	0.162527	1.294123
H181	H	1.113203	-0.373546	0.828996
H182	H	1.613203	0.126454	1.328996
O183	O	0.891875	-0.526102	0.786548
O184	O	1.391875	-0.026102	1.286548
H185	H	0.897140	-0.520791	0.844047
H186	H	1.397140	-0.020791	1.344047
O187	O	1.131097	-0.988467	0.350997
O188	O	1.631097	-0.488467	0.850997
H189	H	1.171128	-1.023499	0.380279
H190	H	1.671128	-0.523499	0.880279
O191	O	0.416593	-0.330986	0.302553
O192	O	0.916593	0.169014	0.802553
H193	H	0.380002	-0.295095	0.269835
H194	H	0.880002	0.204905	0.769835
H195	H	1.024629	-0.847532	0.264328
H196	H	1.524629	-0.347532	0.764328
O197	O	0.914397	-0.835579	0.279926
O198	O	1.414397	-0.335579	0.779926
H199	H	0.891484	-0.800094	0.320923
H200	H	1.391484	-0.300094	0.820923
O201	O	1.092095	-0.852651	0.475890
O202	O	1.592095	-0.352651	0.975890
H203	H	1.048706	-0.816236	0.495297
H204	H	1.548706	-0.316236	0.995297
H205	H	1.072661	-0.343708	0.650813
H206	H	1.572661	0.156292	1.150813
H207	H	1.099601	-0.316487	0.981996
H208	H	1.599601	0.183513	1.481996
O209	O	0.897985	-0.519940	0.634012
O210	O	1.397985	-0.019940	1.134012
H211	H	0.865201	-0.553020	0.670588
H212	H	1.365201	-0.053020	1.170588
