data_functionalizedCrystal
_audit_creation_method	'MofGen! by Chris Wilmer'
_symmetry_space_group_name_H-M	'P1'
_symmetry_Int_Tables_number	1
_symmetry_cell_setting	triclinic
loop_
_symmetry_equiv_pos_as_xyz
  x,y,z
_cell_length_a	14.519709
_cell_length_b	17.699083
_cell_length_c	16.176319
_cell_angle_alpha	90.001389
_cell_angle_beta	89.992256
_cell_angle_gamma	96.518420
loop_
_atom_site_label
_atom_site_type_symbol
_atom_site_fract_x
_atom_site_fract_y
_atom_site_fract_z
O1	O	0.116624	-1.004413	-0.068632
O2	O	0.616624	-0.504413	0.431368
O3	O	0.131798	-0.784078	-0.068660
O4	O	0.631798	-0.284078	0.431340
O5	O	-0.010052	-0.900087	-0.068638
O6	O	0.489948	-0.400087	0.431362
O7	O	0.258474	-0.888403	-0.068654
O8	O	0.758474	-0.388403	0.431346
O9	O	-0.010061	-0.900071	0.068855
O10	O	0.489939	-0.400071	0.568855
O11	O	0.131789	-0.784062	0.068833
O12	O	0.631789	-0.284062	0.568833
O13	O	0.116615	-1.004397	0.068861
O14	O	0.616615	-0.504397	0.568861
Cu15	Cu	0.124201	-0.894228	0.081401
Cu16	Cu	0.624201	-0.394228	0.581401
Cu17	Cu	0.124212	-0.894247	-0.081200
Cu18	Cu	0.624212	-0.394247	0.418800
O19	O	0.258465	-0.888387	0.068839
O20	O	0.758465	-0.388387	0.568839
C21	C	-0.044414	-0.899534	0.000109
C22	C	0.455586	-0.399534	0.500109
C23	C	-0.146789	-0.897903	0.000109
C24	C	0.353211	-0.397903	0.500109
C25	C	0.131249	-0.755871	0.000083
C26	C	0.631249	-0.255871	0.500083
C27	C	0.129618	-0.671848	0.000073
C28	C	0.629618	-0.171848	0.500073
C29	C	0.117164	-1.032603	0.000116
C30	C	0.617164	-0.532603	0.500116
C31	C	0.118795	-1.116626	0.000121
C32	C	0.618795	-0.616626	0.500121
C33	C	-0.521659	-0.891896	0.000087
C34	C	-0.021659	-0.391896	0.500087
C35	C	-0.417358	-0.893564	0.000093
C36	C	0.082642	-0.393564	0.500093
C37	C	-0.334227	-0.894899	0.000099
C38	C	0.165773	-0.394899	0.500099
C39	C	-0.229920	-0.896568	0.000104
C40	C	0.270080	-0.396568	0.500104
C41	C	0.292827	-0.888940	0.000090
C42	C	0.792827	-0.388940	0.500090
C43	C	0.395202	-0.890572	0.000085
C44	C	0.895202	-0.390572	0.500085
N45	N	0.124193	-0.894220	0.195767
N46	N	0.624193	-0.394220	0.695767
C47	C	0.212881	-0.623466	0.000068
C48	C	0.712881	-0.123466	0.500068
C49	C	0.211343	-0.544518	0.000079
C50	C	0.711343	-0.044518	0.500079
C51	C	0.126541	-0.513954	0.000089
C52	C	0.626541	-0.013954	0.500089
C53	C	0.043272	-0.562343	0.000096
C54	C	0.543272	-0.062343	0.500096
C55	C	0.044811	-0.641289	0.000091
C56	C	0.544811	-0.141289	0.500091
C57	C	0.037064	-0.243962	0.000117
C58	C	0.537064	0.256038	0.500117
C59	C	0.035531	-0.165010	0.000119
C60	C	0.535531	0.334990	0.500119
C61	C	0.203596	-0.147191	0.000105
C62	C	0.703596	0.352809	0.500105
C63	C	0.205135	-0.226137	0.000100
C64	C	0.705135	0.273863	0.500100
C65	C	0.121866	-0.274519	0.000112
C66	C	0.621866	0.225481	0.500112
C67	C	0.123535	-0.360123	0.000102
C68	C	0.623535	0.139877	0.500102
C69	C	0.124872	-0.428352	0.000093
C70	C	0.624872	0.071648	0.500093
N71	N	0.124213	-0.894260	-0.195565
N72	N	0.624213	-0.394260	0.304435
C73	C	0.061408	-0.945604	0.239040
C74	C	0.561408	-0.445604	0.739040
C75	C	0.061407	-0.945608	0.325588
C76	C	0.561407	-0.445608	0.825588
C77	C	0.124196	-0.894231	0.368859
C78	C	0.624196	-0.394231	0.868859
C79	C	0.186985	-0.842841	0.325579
C80	C	0.686985	-0.342841	0.825579
C81	C	0.186981	-0.842834	0.239034
C82	C	0.686981	-0.342834	0.739034
C83	C	0.187002	-0.842867	0.674608
C84	C	0.687002	-0.342867	1.174608
C85	C	0.187003	-0.842879	0.761159
C86	C	0.687003	-0.342879	1.261159
C87	C	0.061428	-0.945641	0.761161
C88	C	0.561428	-0.445641	1.261161
C89	C	0.061424	-0.945634	0.674616
C90	C	0.561424	-0.445634	1.174616
C91	C	0.124209	-0.894242	0.631343
C92	C	0.624209	-0.394242	1.131343
C93	C	0.124208	-0.894237	0.537499
C94	C	0.624208	-0.394237	1.037499
C95	C	0.124202	-0.894238	0.462702
C96	C	0.624202	-0.394238	0.962702
H97	H	0.281937	-0.648344	0.000060
H98	H	0.781937	-0.148344	0.500060
O99	O	0.248011	-0.793024	0.196904
O100	O	0.748011	-0.293024	0.696904
C101	C	0.304858	-0.833624	0.146841
C102	C	0.804858	-0.333624	0.646841
H103	H	0.268038	-0.892797	0.133875
H104	H	0.768038	-0.392797	0.633875
H105	H	0.319490	-0.802049	0.085984
H106	H	0.819490	-0.302049	0.585984
H107	H	0.373013	-0.838856	0.180182
H108	H	0.873013	-0.338856	0.680182
H109	H	0.010281	-0.987449	0.360821
H110	H	0.510281	-0.487449	0.860821
O111	O	-0.046931	-0.135445	0.000171
O112	O	0.453069	0.364555	0.500171
C113	C	-0.120098	-0.195076	0.000161
C114	C	0.379902	0.304924	0.500161
H115	H	-0.094370	-0.248741	0.026187
H116	H	0.405630	0.251259	0.526187
H117	H	-0.179311	-0.178494	0.040088
H118	H	0.320689	0.321506	0.540088
H119	H	-0.145777	-0.206212	-0.065798
H120	H	0.354223	0.293788	0.434202
H121	H	0.238106	-0.801004	0.360816
H122	H	0.738106	-0.301004	0.860816
O123	O	0.000340	-0.995570	0.632711
O124	O	0.500340	-0.495570	1.132711
C125	C	-0.055063	-1.040938	0.689465
C126	C	0.444937	-0.540938	1.189465
H127	H	-0.056055	-1.009914	0.751163
H128	H	0.443945	-0.509914	1.251163
H129	H	-0.128733	-1.052383	0.664469
H130	H	0.371267	-0.552383	1.164469
H131	H	-0.025206	-1.097200	0.698655
H132	H	0.474794	-0.597200	1.198655
H133	H	0.010302	-0.987485	0.796403
H134	H	0.510302	-0.487485	1.296403
H135	H	0.238125	-0.801023	0.639382
H136	H	0.738125	-0.301023	1.139382
O137	O	-0.043762	-0.291028	0.000008
O138	O	0.456238	0.208972	0.500008
C139	C	-0.047910	-0.337211	-0.071214
C140	C	0.452090	0.162789	0.428786
H141	H	0.025283	-0.341308	-0.094956
H142	H	0.525283	0.158692	0.405044
H143	H	-0.082406	-0.396496	-0.055201
H144	H	0.417594	0.103504	0.444799
H145	H	-0.089960	-0.311176	-0.121075
H146	H	0.410040	0.188824	0.378925
H147	H	0.279144	-0.505128	0.000074
H148	H	0.779144	-0.005128	0.500074
H149	H	-0.025775	-0.537452	0.000116
H150	H	0.474225	-0.037452	0.500116
H151	H	0.238136	-0.801038	0.796389
H152	H	0.738136	-0.301038	1.296389
O153	O	-0.036156	-0.688183	0.000055
O154	O	0.463844	-0.188183	0.500055
C155	C	-0.111335	-0.644280	0.000083
C156	C	0.388665	-0.144280	0.500083
H157	H	-0.087796	-0.585391	-0.025946
H158	H	0.412204	-0.085391	0.474054
H159	H	-0.169661	-0.673323	-0.039832
H160	H	0.330339	-0.173323	0.460168
H161	H	-0.137342	-0.638626	0.066048
H162	H	0.362658	-0.138626	0.566048
H163	H	0.271397	-0.107789	0.000100
H164	H	0.771397	0.392211	0.500100
O165	O	0.287571	-0.255732	-0.000021
O166	O	0.787571	0.244268	0.499979
C167	C	0.338310	-0.231029	-0.071243
C168	C	0.838310	0.268971	0.428757
H169	H	0.313295	-0.176244	-0.094978
H170	H	0.813295	0.323756	0.405022
H171	H	0.415133	-0.220171	-0.055233
H172	H	0.915133	0.279829	0.444767
H173	H	0.327534	-0.276695	-0.121108
H174	H	0.827534	0.223305	0.378892
O175	O	0.000324	-0.995542	0.197138
O176	O	0.500324	-0.495542	0.697138
C177	C	-0.055077	-1.040908	0.253896
C178	C	0.444923	-0.540908	0.753896
H179	H	-0.056067	-1.009881	0.315592
H180	H	0.443933	-0.509881	0.815592
H181	H	-0.128747	-1.052355	0.228903
H182	H	0.371253	-0.552355	0.728903
H183	H	-0.025218	-1.097169	0.263089
H184	H	0.474782	-0.597169	0.763089
