data_functionalizedCrystal
_audit_creation_method	'MofGen! by Chris Wilmer'
_symmetry_space_group_name_H-M	'P1'
_symmetry_Int_Tables_number	1
_symmetry_cell_setting	triclinic
loop_
_symmetry_equiv_pos_as_xyz
  x,y,z
_cell_length_a	14.908795
_cell_length_b	16.625545
_cell_length_c	14.908694
_cell_angle_alpha	93.268702
_cell_angle_beta	83.203537
_cell_angle_gamma	93.315945
loop_
_atom_site_label
_atom_site_type_symbol
_atom_site_fract_x
_atom_site_fract_y
_atom_site_fract_z
Zn1	Zn	1.413361	-0.278722	-0.591772
Zn2	Zn	1.746694	0.054612	-0.258439
Zn3	Zn	2.080028	0.387945	0.074895
Zn4	Zn	1.404516	-0.406218	-0.440403
Zn5	Zn	1.737849	-0.072884	-0.107070
Zn6	Zn	2.071182	0.260449	0.226263
Zn7	Zn	1.253258	-0.278742	-0.431677
Zn8	Zn	1.586591	0.054591	-0.098343
Zn9	Zn	1.919924	0.387925	0.234990
Zn10	Zn	1.261941	-0.420860	-0.582974
Zn11	Zn	1.595274	-0.087527	-0.249641
Zn12	Zn	1.928608	0.245807	0.083692
O13	O	1.333269	-0.346135	-0.511707
O14	O	1.666602	-0.012802	-0.178373
O15	O	1.999936	0.320531	0.154960
O16	O	1.538860	-0.289498	-0.579027
O17	O	1.872193	0.043836	-0.245693
O18	O	2.205526	0.377169	0.087640
O19	O	1.377115	-0.383189	-0.312579
O20	O	1.710449	-0.049855	0.020755
O21	O	2.043782	0.283478	0.354088
O22	O	1.274563	-0.165905	-0.452944
O23	O	1.607897	0.167428	-0.119610
O24	O	1.941230	0.500762	0.213723
O25	O	1.532361	-0.383169	-0.467817
O26	O	1.865694	-0.049835	-0.134483
O27	O	2.199028	0.283498	0.198850
O28	O	1.392191	-0.165890	-0.570565
O29	O	1.725524	0.167443	-0.237231
O30	O	2.058857	0.500777	0.096102
O31	O	1.265986	-0.289533	-0.306167
O32	O	1.599320	0.043800	0.027166
O33	O	1.932653	0.377134	0.360499
O34	O	1.127738	-0.303731	-0.444413
O35	O	1.461071	0.029603	-0.111079
O36	O	1.794404	0.362936	0.222254
O37	O	1.289363	-0.408124	-0.710808
O38	O	1.622697	-0.074791	-0.377475
O39	O	1.956030	0.258543	-0.044141
O40	O	1.134117	-0.408144	-0.555570
O41	O	1.467451	-0.074811	-0.222237
O42	O	1.800784	0.258523	0.111096
O43	O	1.400611	-0.303696	-0.717272
O44	O	1.733944	0.029638	-0.383938
O45	O	2.067277	0.362971	-0.050605
O46	O	1.385535	-0.520994	-0.459286
O47	O	1.718869	-0.187661	-0.125952
O48	O	2.052202	0.145672	0.207381
O49	O	1.280786	-0.531752	-0.564032
O50	O	1.614120	-0.198419	-0.230699
O51	O	1.947453	0.134915	0.102635
C52	C	1.098083	-0.357529	-0.498090
C53	C	1.431416	-0.024196	-0.164757
C54	C	1.764750	0.309138	0.168576
C55	C	0.997471	-0.362424	-0.492287
C56	C	1.330804	-0.029091	-0.158954
C57	C	1.664137	0.304243	0.174380
C58	C	1.333169	-0.555630	-0.511672
C59	C	1.666502	-0.222296	-0.178339
C60	C	1.999836	0.111037	0.154994
C61	C	1.333211	-0.645250	-0.511693
C62	C	1.666544	-0.311916	-0.178359
C63	C	1.999877	0.021417	0.154974
C64	C	0.852275	-0.418002	-0.426117
C65	C	1.185608	-0.084668	-0.092783
C66	C	1.518942	0.248665	0.240550
C67	C	0.946809	-0.413406	-0.431569
C68	C	1.280142	-0.080073	-0.098236
C69	C	1.613476	0.253261	0.235097
C70	C	0.953591	-0.316032	-0.547554
C71	C	1.286924	0.017301	-0.214221
C72	C	1.620258	0.350634	0.119113
C73	C	0.859057	-0.320628	-0.542102
C74	C	1.192390	0.012705	-0.208768
C75	C	1.525724	0.346039	0.124565
C76	C	0.808402	-0.371616	-0.481382
C77	C	1.141735	-0.038282	-0.148048
C78	C	1.475069	0.295051	0.185285
C79	C	0.713866	-0.376215	-0.475934
C80	C	1.047200	-0.042882	-0.142601
C81	C	1.380533	0.290452	0.190732
C82	C	0.720650	-0.278838	-0.591914
C83	C	1.053983	0.054496	-0.258581
C84	C	1.387316	0.387829	0.074753
C85	C	0.815184	-0.274242	-0.597367
C86	C	1.148517	0.059091	-0.264033
C87	C	1.481851	0.392425	0.069300
C88	C	1.333247	-0.718031	-0.511713
C89	C	1.666580	-0.384698	-0.178379
C90	C	1.999914	-0.051365	0.154954
C91	C	1.333301	-0.809338	-0.511736
C92	C	1.666634	-0.476005	-0.178403
C93	C	1.999967	-0.142671	0.154931
C94	C	1.333348	-0.882113	-0.511750
C95	C	1.666682	-0.548779	-0.178417
C96	C	2.000015	-0.215446	0.154917
C97	C	1.333401	-0.973425	-0.511772
C98	C	1.666735	-0.640092	-0.178438
C99	C	2.000068	-0.306759	0.154895
C100	C	1.569373	-0.334698	-0.525376
C101	C	1.902707	-0.001364	-0.192043
C102	C	2.236040	0.331969	0.141290
C103	C	1.669987	-0.329824	-0.531202
C104	C	2.003320	0.003510	-0.197868
C105	C	2.336654	0.336843	0.135465
C106	C	1.346942	-0.357541	-0.747802
C107	C	1.680276	-0.024208	-0.414468
C108	C	2.013609	0.309126	-0.081135
C109	C	1.352769	-0.362401	-0.848411
C110	C	1.686102	-0.029068	-0.515078
C111	C	2.019436	0.304265	-0.181745
C112	C	1.333395	-0.135823	-0.511762
C113	C	1.666728	0.197511	-0.178429
C114	C	2.000062	0.530844	0.154905
C115	C	1.333449	-0.046200	-0.511786
C116	C	1.666782	0.287133	-0.178452
C117	C	2.000116	0.620467	0.154881
C118	C	1.247979	-0.274014	-1.030792
C119	C	1.581312	0.059320	-0.697458
C120	C	1.914645	0.392653	-0.364125
C121	C	1.253450	-0.278578	-1.125323
C122	C	1.586784	0.054755	-0.791990
C123	C	1.920117	0.388089	-0.458656
C124	C	1.369179	-0.376098	-1.132007
C125	C	1.702512	-0.042764	-0.798674
C126	C	2.035846	0.290569	-0.465340
C127	C	1.363707	-0.371534	-1.037476
C128	C	1.697041	-0.038200	-0.704142
C129	C	2.030374	0.295133	-0.370809
C130	C	1.303106	-0.320489	-0.986871
C131	C	1.636439	0.012844	-0.653538
C132	C	1.969773	0.346178	-0.320204
C133	C	1.297640	-0.315921	-0.892338
C134	C	1.630973	0.017412	-0.559005
C135	C	1.964306	0.350746	-0.225671
C136	C	1.413363	-0.413444	-0.899024
C137	C	1.746696	-0.080111	-0.565690
C138	C	2.080030	0.253222	-0.232357
C139	C	1.418835	-0.418009	-0.993555
C140	C	1.752168	-0.084675	-0.660222
C141	C	2.085501	0.248658	-0.326889
C142	C	1.319701	-0.334713	-0.276533
C143	C	1.653034	-0.001380	0.056800
C144	C	1.986367	0.331953	0.390134
C145	C	1.314049	-0.329617	-0.175934
C146	C	1.647383	0.003716	0.157399
C147	C	1.980716	0.337049	0.490733
H148	H	0.672624	-0.417734	-0.426496
H149	H	1.005958	-0.084401	-0.093163
H150	H	1.339291	0.248932	0.240170
H151	H	0.811031	-0.459524	-0.376683
H152	H	1.144364	-0.126191	-0.043350
H153	H	1.477698	0.207142	0.289983
H154	H	0.856440	-0.232727	-0.646800
H155	H	1.189773	0.100606	-0.313467
H156	H	1.523107	0.433939	0.019866
H157	H	0.982526	-0.451178	-0.386566
H158	H	1.315860	-0.117844	-0.053233
H159	H	1.649193	0.215489	0.280101
H160	H	0.994850	-0.274516	-0.596984
H161	H	1.328184	0.058817	-0.263651
H162	H	1.661517	0.392150	0.069683
N163	N	0.675827	-0.231434	-0.648347
N164	N	1.009161	0.101899	-0.315014
N165	N	1.342494	0.435232	0.018319
N166	N	0.686068	-0.156227	-0.643089
N167	N	1.019401	0.177106	-0.309756
N168	N	1.352735	0.510440	0.023578
H169	H	0.654409	-0.122749	-0.682942
H170	H	0.987743	0.210585	-0.349609
H171	H	1.321076	0.543918	-0.016275
H172	H	1.248299	-0.274354	-0.851137
H173	H	1.581632	0.058979	-0.517804
H174	H	1.914965	0.392312	-0.184471
H175	H	1.468171	-0.459570	-1.034770
H176	H	1.801504	-0.126237	-0.701437
H177	H	2.134838	0.207096	-0.368103
H178	H	1.198643	-0.232444	-0.989589
H179	H	1.531976	0.100890	-0.656256
H180	H	1.865310	0.434223	-0.322922
H181	H	1.208560	-0.240733	-1.161079
H182	H	1.541893	0.092600	-0.827746
H183	H	1.875227	0.425934	-0.494413
H184	H	1.418505	-0.417667	-1.173225
H185	H	1.751838	-0.084334	-0.839891
H186	H	2.085172	0.248999	-0.506558
N187	N	1.469691	-0.460899	-0.854146
N188	N	1.803024	-0.127566	-0.520813
N189	N	2.136357	0.205768	-0.187480
N190	N	1.464812	-0.456806	-0.769745
N191	N	1.798145	-0.123473	-0.436411
N192	N	2.131479	0.209861	-0.103078
H193	H	1.504599	-0.490312	-0.738049
H194	H	1.837933	-0.156979	-0.404715
H195	H	2.171266	0.176354	-0.071382
