data_functionalizedCrystal
_audit_creation_method	'MofGen! by Chris Wilmer'
_symmetry_space_group_name_H-M	'P1'
_symmetry_Int_Tables_number	1
_symmetry_cell_setting	triclinic
loop_
_symmetry_equiv_pos_as_xyz
  x,y,z
_cell_length_a	12.478026
_cell_length_b	23.196402
_cell_length_c	23.196402
_cell_angle_alpha	59.999836
_cell_angle_beta	84.701687
_cell_angle_gamma	57.040191
loop_
_atom_site_label
_atom_site_type_symbol
_atom_site_fract_x
_atom_site_fract_y
_atom_site_fract_z
Zr1	Zr	1.036816	0.631025	-0.127142
O2	O	0.864954	0.751298	-0.210656
O3	O	1.089504	0.510755	-0.101543
O4	O	1.089496	0.631029	-0.221812
O5	O	0.864965	0.631020	0.004485
O6	O	1.266615	0.631029	-0.230610
O7	O	0.864962	0.631024	-0.090387
O8	O	1.266630	0.415880	-0.015470
O9	O	0.864951	0.846169	-0.210654
O10	O	1.244153	0.560223	-0.097188
O11	O	1.111973	0.560220	-0.019820
O12	O	1.111964	0.701827	-0.161422
O13	O	0.979784	0.701824	-0.084054
Zr14	Zr	1.319305	0.631019	0.010137
Zr15	Zr	1.319301	0.631026	-0.141174
Zr16	Zr	1.036821	0.631019	0.024168
Zr17	Zr	1.036810	0.782333	-0.127139
Zr18	Zr	1.319311	0.479712	0.010133
O19	O	1.266617	0.751290	-0.015463
O20	O	1.266611	0.751299	-0.230607
O21	O	0.864960	0.751289	0.004488
O22	O	1.491167	0.510747	0.093651
O23	O	1.491161	0.510755	-0.121494
O24	O	1.089511	0.510746	0.113601
O25	O	1.491156	0.631025	-0.121491
O26	O	1.266625	0.631016	0.104806
O27	O	1.089506	0.631015	0.113604
O28	O	1.491159	0.631021	-0.026618
O29	O	1.089488	0.846169	-0.221807
O30	O	1.266633	0.415875	0.104802
O31	O	1.491171	0.415876	0.093648
O32	O	1.491167	0.415881	-0.026623
O33	O	0.864954	0.846164	-0.090382
O34	O	1.089491	0.846164	-0.101535
O35	O	1.244157	0.560217	0.044416
O36	O	1.376337	0.560220	-0.032952
O37	O	1.244148	0.701825	-0.097185
O38	O	1.111968	0.701822	-0.019817
C39	C	1.178068	0.441759	-0.058507
C40	C	1.178070	0.377525	-0.058508
C41	C	0.824716	0.631022	-0.040952
C42	C	0.704794	0.631021	-0.034995
C43	C	1.247060	-0.085316	-0.098876
C44	C	1.247057	-0.024957	-0.098882
C45	C	1.178062	0.005223	-0.058497
C46	C	1.109038	-0.024946	-0.018115
C47	C	1.109032	-0.085297	-0.018116
C48	C	1.187922	0.067248	0.002920
C49	C	1.187937	0.127595	0.002921
C50	C	1.178072	0.191371	-0.058497
C51	C	1.168218	0.194785	-0.119917
C52	C	1.168212	0.134433	-0.119917
C53	C	1.178060	0.070665	-0.058492
C54	C	1.247080	0.286985	-0.098886
C55	C	1.247067	0.347348	-0.098893
C56	C	1.109058	0.347353	-0.018120
C57	C	1.109061	0.286996	-0.018119
C58	C	1.178080	0.256813	-0.058500
C59	C	1.531406	0.631023	-0.076054
C60	C	1.651328	0.631023	-0.082011
C61	C	1.178055	0.631030	-0.247769
C62	C	1.178053	0.631033	-0.312005
C63	C	1.178053	0.820285	-0.058498
C64	C	1.178051	0.884519	-0.058497
C65	C	1.109080	0.704927	-0.808361
C66	C	1.109069	0.704932	-0.748008
C67	C	1.178071	0.631017	-0.684296
C68	C	1.247062	0.557091	-0.680939
C69	C	1.247060	0.557089	-0.741291
C70	C	1.293649	0.574390	-0.566106
C71	C	1.293655	0.574396	-0.505756
C72	C	1.178074	0.631022	-0.498148
C73	C	1.062488	0.687655	-0.550903
C74	C	1.062487	0.687653	-0.611256
C75	C	1.178080	0.631011	-0.618850
C76	C	1.109067	0.704947	-0.436068
C77	C	1.109052	0.704949	-0.375712
C78	C	1.247058	0.557106	-0.308644
C79	C	1.247060	0.557107	-0.369000
C80	C	1.178068	0.631029	-0.432709
C81	C	1.178066	0.631014	0.130764
C82	C	1.178068	0.631012	0.194999
C83	C	1.531413	0.441760	-0.076058
C84	C	1.651337	0.377526	-0.082016
C85	C	1.178073	0.441752	0.130760
C86	C	1.178078	0.377515	0.194993
C87	C	1.531418	0.441752	0.113208
C88	C	1.651345	0.377516	0.171486
C89	C	0.824703	0.820292	-0.230214
C90	C	0.704777	0.884529	-0.288491
C91	C	0.824708	0.820284	-0.040947
C92	C	0.704784	0.884518	-0.034989
C93	C	1.178048	0.820293	-0.247765
C94	C	1.178044	0.884530	-0.311999
C95	C	1.638657	0.347363	-0.118351
C96	C	1.751328	0.287017	-0.123963
C97	C	1.876678	0.256831	-0.093236
C98	C	1.889357	0.287000	-0.056899
C99	C	1.776687	0.347350	-0.051292
C100	C	1.247078	0.347347	0.258696
C101	C	1.247077	0.286998	0.319056
C102	C	1.178083	0.256814	0.315713
C103	C	1.109074	0.286988	0.252004
C104	C	1.109068	0.347340	0.191645
C105	C	1.776672	0.347351	0.158467
C106	C	1.889366	0.287003	0.213219
C107	C	1.876731	0.256816	0.280988
C108	C	1.751390	0.286986	0.294005
C109	C	1.638699	0.347338	0.239254
C110	C	0.579449	0.914701	-0.275473
C111	C	0.466755	0.975068	-0.330224
C112	C	0.479391	1.005258	-0.397993
C113	C	0.604731	0.975084	-0.411011
C114	C	0.717422	0.914722	-0.356260
C115	C	0.717465	0.914688	0.001340
C116	C	0.604794	0.975051	0.006935
C117	C	0.479443	1.005239	-0.023795
C118	C	0.466765	0.975066	-0.060129
C119	C	0.579435	0.914709	-0.065727
C120	C	1.247052	0.914695	-0.308633
C121	C	1.247073	0.975044	-0.368984
C122	C	1.178078	1.005231	-0.432698
C123	C	1.109068	0.975060	-0.436062
C124	C	1.109055	0.914708	-0.375713
H125	H	1.303255	-0.109888	-0.131758
H126	H	0.569091	0.890146	-0.095308
H127	H	0.968371	0.733766	-0.544712
Cl128	Cl	1.333827	1.012966	-0.364738
H129	H	0.387619	1.054409	-0.442568
H130	H	0.615003	0.999673	-0.466195
H131	H	1.052894	0.999648	-0.487946
H132	H	0.569136	0.890123	-0.220296
Cl133	Cl	1.792591	0.385294	0.073277
Cl134	Cl	0.309201	1.012986	-0.313844
Cl135	Cl	2.018415	0.180942	0.349811
Cl136	Cl	0.633825	0.631012	0.034199
Cl137	Cl	1.022335	0.797859	-0.888449
H138	H	1.536656	0.371890	0.249864
Cl139	Cl	1.155811	0.138730	-0.197129
Cl140	Cl	1.178106	0.180941	0.391600
H141	H	0.387711	1.054386	-0.019231
Cl142	Cl	0.722304	0.631020	-0.151195
Cl143	Cl	1.022358	0.797862	-0.752228
Cl144	Cl	1.178103	1.081106	-0.508559
H145	H	1.303241	0.496909	-0.629061
Cl146	Cl	2.046920	0.249083	0.196838
H147	H	0.819521	0.890114	0.026369
H148	H	0.968373	0.733765	-0.654207
H149	H	1.052883	0.765140	-0.487943
Cl150	Cl	1.333802	0.876757	-0.228543
Cl151	Cl	1.792652	0.385257	-0.005604
Cl152	Cl	1.022284	0.797880	-0.379938
H153	H	1.303263	0.371917	0.261431
Cl154	Cl	1.022278	0.876801	-0.379955
H155	H	1.303245	0.496916	-0.366261
Cl156	Cl	1.333821	0.012970	-0.149646
Cl157	Cl	1.333794	0.464183	-0.228555
Cl158	Cl	1.022273	-0.123222	0.032652
H159	H	1.741122	0.262399	0.349190
Cl160	Cl	1.155829	0.274952	-0.197133
H161	H	0.819466	0.890156	-0.366868
Cl162	Cl	0.620763	1.012966	0.052617
H163	H	0.364689	0.999655	-0.085147
H164	H	1.303257	0.371912	-0.131779
Cl165	Cl	1.333852	0.249033	-0.149646
H166	H	1.052883	0.371894	0.139778
Cl167	Cl	1.022306	0.385296	0.032644
H168	H	1.052873	0.262432	0.014765
Cl169	Cl	1.438967	0.503197	-0.575662
Cl170	Cl	1.200352	0.123288	0.080137
H171	H	1.536600	0.371939	-0.143383
H172	H	1.195949	0.015322	0.052937
H173	H	1.052859	-0.000367	0.014765
H174	H	1.387773	0.528285	-0.462808
H175	H	1.740979	0.262460	-0.153551
Cl176	Cl	1.333797	0.464159	-0.737066
H177	H	1.968410	0.207690	-0.097806
Cl178	Cl	1.333844	0.249076	0.399138
Cl179	Cl	1.022347	0.249031	0.247812
H180	H	1.991432	0.262414	-0.031883
