data_functionalizedCrystal
_audit_creation_method	'MofGen! by Chris Wilmer'
_symmetry_space_group_name_H-M	'P1'
_symmetry_Int_Tables_number	1
_symmetry_cell_setting	triclinic
loop_
_symmetry_equiv_pos_as_xyz
  x,y,z
_cell_length_a	16.109301
_cell_length_b	10.654550
_cell_length_c	9.730223
_cell_angle_alpha	90.002337
_cell_angle_beta	89.999366
_cell_angle_gamma	83.973205
loop_
_atom_site_label
_atom_site_type_symbol
_atom_site_fract_x
_atom_site_fract_y
_atom_site_fract_z
O1	O	1.104088	0.161424	0.114190
O2	O	0.862146	0.181513	0.114210
O3	O	0.988680	-0.011346	0.114205
O4	O	0.977554	0.354283	0.114195
O5	O	0.988675	-0.011360	-0.114375
O6	O	0.862141	0.181499	-0.114370
O7	O	1.104084	0.161411	-0.114390
Zn8	Zn	0.983112	0.171453	-0.150672
Zn9	Zn	0.983118	0.171471	0.150492
O10	O	0.977550	0.354270	-0.114385
C11	C	0.831164	0.180692	-0.000077
C12	C	0.738854	0.178253	-0.000069
N13	N	0.983114	0.171440	-0.356208
C14	C	0.987861	-0.058140	-0.000080
C15	C	0.985417	-0.197550	-0.000067
C16	C	0.517228	0.287019	-0.000088
C17	C	0.430494	0.284717	-0.000097
C18	C	0.449008	0.055896	-0.000084
C19	C	0.535741	0.058199	-0.000085
C20	C	0.569848	0.173764	-0.000080
C21	C	0.396382	0.169159	-0.000088
C22	C	0.302341	0.166662	-0.000097
C23	C	0.663895	0.176262	-0.000073
C24	C	1.135066	0.162231	-0.000100
C25	C	1.227376	0.164671	-0.000099
C26	C	0.978369	0.401063	-0.000097
C27	C	0.980813	0.540473	-0.000101
C28	C	0.906312	0.620970	-0.000091
C29	C	0.908613	0.751959	-0.000070
C30	C	1.059924	0.721943	-0.000072
C31	C	1.057621	0.590956	-0.000084
N32	N	0.983123	0.171474	0.356028
C33	C	1.039253	0.086225	0.571844
C34	C	1.039256	0.086238	0.427961
C35	C	0.926977	0.256693	0.427986
C36	C	0.926971	0.256672	0.571866
H37	H	0.544996	0.381119	-0.000094
H38	H	0.881251	0.326065	0.630449
H39	H	1.122458	0.763063	-0.000073
F40	F	1.136920	0.505280	-0.000088
H41	H	0.387654	0.376940	-0.000106
F42	F	0.824566	0.567246	-0.000104
H43	H	1.084969	0.016847	0.369386
F44	F	0.412701	-0.067090	-0.000084
H45	H	0.881268	0.326089	0.369409
H46	H	0.578586	-0.034032	-0.000083
H47	H	0.847947	0.817495	-0.000060
F48	F	1.099003	-0.004490	0.648388
