data_functionalizedCrystal
_audit_creation_method	'MofGen! by Chris Wilmer'
_symmetry_space_group_name_H-M	'P1'
_symmetry_Int_Tables_number	1
_symmetry_cell_setting	triclinic
loop_
_symmetry_equiv_pos_as_xyz
  x,y,z
_cell_length_a	16.956984
_cell_length_b	14.853559
_cell_length_c	15.455313
_cell_angle_alpha	92.670929
_cell_angle_beta	87.518126
_cell_angle_gamma	79.842436
loop_
_atom_site_label
_atom_site_type_symbol
_atom_site_fract_x
_atom_site_fract_y
_atom_site_fract_z
O1	O	1.061570	0.033147	-0.072134
O2	O	1.394904	0.366480	0.261200
O3	O	1.728237	0.699813	0.594533
O4	O	0.829447	0.064796	-0.072133
O5	O	1.162780	0.398130	0.261200
O6	O	1.496114	0.731463	0.594533
O7	O	0.951713	-0.082730	-0.072133
O8	O	1.285046	0.250603	0.261201
O9	O	1.618379	0.583937	0.594534
O10	O	0.939305	0.180673	-0.072134
O11	O	1.272638	0.514006	0.261199
O12	O	1.605972	0.847339	0.594532
O13	O	0.944721	-0.074326	0.072130
O14	O	1.278054	0.259007	0.405463
O15	O	1.611387	0.592340	0.738796
O16	O	0.822455	0.073200	0.072129
O17	O	1.155789	0.406533	0.405462
O18	O	1.489122	0.739867	0.738795
O19	O	1.054579	0.041550	0.072128
O20	O	1.387912	0.374883	0.405462
O21	O	1.721245	0.708217	0.738795
Cu22	Cu	0.937879	0.058142	0.085301
Cu23	Cu	1.271212	0.391476	0.418634
Cu24	Cu	1.604545	0.724809	0.751968
Cu25	Cu	0.946147	0.048204	-0.085306
Cu26	Cu	1.279480	0.381537	0.248028
Cu27	Cu	1.612814	0.714871	0.581361
O28	O	0.932313	0.189076	0.072128
O29	O	1.265646	0.522410	0.405461
O30	O	1.598980	0.855743	0.738794
C31	C	0.796245	0.070619	-0.000002
C32	C	1.129578	0.403952	0.333331
C33	C	1.462911	0.737285	0.666664
C34	C	0.707729	0.075437	-0.000002
C35	C	1.041063	0.408770	0.333331
C36	C	1.374396	0.742104	0.666664
C37	C	0.675558	-0.005126	-0.000000
C38	C	1.008891	0.328208	0.333333
C39	C	1.342225	0.661541	0.666666
C40	C	0.592388	-0.000593	-0.000006
C41	C	0.925721	0.332740	0.333327
C42	C	1.259055	0.666073	0.666660
C43	C	0.541390	0.084503	-0.000009
C44	C	0.874724	0.417837	0.333325
C45	C	1.208057	0.751170	0.666658
C46	C	0.573567	0.165072	-0.000013
C47	C	0.906900	0.498405	0.333320
C48	C	1.240234	0.831739	0.666653
C49	C	0.656736	0.160538	-0.000013
C50	C	0.990069	0.493872	0.333320
C51	C	1.323403	0.827205	0.666653
C52	C	0.291642	0.106944	-0.000015
C53	C	0.624976	0.440277	0.333319
C54	C	0.958309	0.773611	0.666652
C55	C	0.208468	0.111472	-0.000012
C56	C	0.541802	0.444805	0.333321
C57	C	0.875135	0.778138	0.666654
C58	C	0.227295	-0.054194	-0.000007
C59	C	0.560628	0.279139	0.333326
C60	C	0.893962	0.612472	0.666660
C61	C	0.310464	-0.058720	-0.000002
C62	C	0.643798	0.274613	0.333332
C63	C	0.977131	0.607947	0.666665
C64	C	0.342634	0.021848	-0.000011
C65	C	0.675967	0.355182	0.333322
C66	C	1.009301	0.688515	0.666656
N67	N	0.456377	0.089138	-0.000012
N68	N	0.789710	0.422472	0.333321
N69	N	1.123044	0.755805	0.666654
N70	N	0.427646	0.017212	-0.000014
N71	N	0.760980	0.350545	0.333320
N72	N	1.094313	0.683879	0.666653
C73	C	0.947656	-0.112074	-0.000003
C74	C	1.280989	0.221259	0.333330
C75	C	1.614322	0.554592	0.666664
C76	C	0.945975	-0.212031	-0.000008
C77	C	1.279308	0.121302	0.333325
C78	C	1.612642	0.454636	0.666659
C79	C	0.942654	-0.639245	-0.078645
C80	C	1.275988	-0.305912	0.254688
C81	C	1.609321	0.027421	0.588021
C82	C	0.935032	-0.630078	0.078635
C83	C	1.268365	-0.296745	0.411968
C84	C	1.601698	0.036588	0.745301
C85	C	0.936618	-0.536165	0.078635
C86	C	1.269951	-0.202832	0.411969
C87	C	1.603284	0.130501	0.745302
C88	C	0.941221	-0.493788	-0.000005
C89	C	1.274554	-0.160455	0.333328
C90	C	1.607888	0.172879	0.666661
C91	C	0.944238	-0.545323	-0.078647
C92	C	1.277572	-0.211990	0.254686
C93	C	1.610905	0.121343	0.588020
C94	C	0.933593	-0.484621	0.157276
C95	C	1.266926	-0.151288	0.490609
C96	C	1.600259	0.182046	0.823942
C97	C	0.935178	-0.390702	0.157280
C98	C	1.268511	-0.057369	0.490613
C99	C	1.601844	0.275965	0.823946
C100	C	0.939787	-0.348324	0.078638
C101	C	1.273120	-0.014991	0.411971
C102	C	1.606453	0.318342	0.745304
C103	C	0.942805	-0.399866	-0.000007
C104	C	1.276138	-0.066533	0.333326
C105	C	1.609472	0.266801	0.666660
C106	C	0.947408	-0.357489	-0.078648
C107	C	1.280742	-0.024155	0.254685
C108	C	1.614075	0.309178	0.588019
C109	C	0.950432	-0.409030	-0.157294
C110	C	1.283766	-0.075697	0.176040
C111	C	1.617099	0.257637	0.509373
C112	C	0.948847	-0.502946	-0.157289
C113	C	1.282181	-0.169612	0.176044
C114	C	1.615514	0.163721	0.509378
C115	C	0.941372	-0.254409	0.078633
C116	C	1.274705	0.078925	0.411966
C117	C	1.608038	0.412258	0.745300
C118	C	0.948992	-0.263567	-0.078650
C119	C	1.282326	0.069767	0.254684
C120	C	1.615659	0.403100	0.588017
C121	C	1.087781	0.035728	-0.000004
C122	C	1.421114	0.369061	0.333329
C123	C	1.754448	0.702394	0.666662
C124	C	1.176297	0.030909	-0.000010
C125	C	1.509630	0.364242	0.333323
C126	C	1.842963	0.697576	0.666657
C127	C	0.936370	0.218421	-0.000004
C128	C	1.269703	0.551754	0.333330
C129	C	1.603037	0.885087	0.666663
C130	C	0.938051	0.318377	-0.000004
C131	C	1.271384	0.651711	0.333329
C132	C	1.604718	0.985044	0.666662
N133	N	0.932069	0.065131	0.205296
N134	N	1.265402	0.398465	0.538630
N135	N	1.598735	0.731798	0.871963
N136	N	0.951963	0.041207	-0.205301
N137	N	1.285297	0.374541	0.128032
N138	N	1.618630	0.707874	0.461365
C139	C	0.984030	0.002477	0.250691
C140	C	1.317363	0.335811	0.584024
C141	C	1.650696	0.669144	0.917357
C142	C	0.979643	0.007771	0.341499
C143	C	1.312977	0.341104	0.674832
C144	C	1.646310	0.674437	1.008165
C145	C	0.923299	0.075723	0.386910
C146	C	1.256633	0.409056	0.720244
C147	C	1.589966	0.742389	1.053577
C148	C	0.871333	0.138380	0.341510
C149	C	1.204666	0.471713	0.674843
C150	C	1.538000	0.805046	1.008176
C151	C	0.875716	0.133082	0.250703
C152	C	1.209049	0.466415	0.584037
C153	C	1.542383	0.799748	0.917370
C154	C	0.904380	0.098567	0.658492
C155	C	1.237713	0.431900	0.991825
C156	C	1.571047	0.765233	1.325158
C157	C	0.900002	0.103862	0.749304
C158	C	1.233336	0.437195	1.082638
C159	C	1.566669	0.770528	1.415971
C160	C	1.008312	-0.026749	0.749287
C161	C	1.341646	0.306584	1.082620
C162	C	1.674979	0.639917	1.415954
C163	C	1.012694	-0.032038	0.658479
C164	C	1.346027	0.301295	0.991813
C165	C	1.679360	0.634629	1.325146
C166	C	0.960724	0.030616	0.613086
C167	C	1.294058	0.363949	0.946420
C168	C	1.627391	0.697283	1.279753
N169	N	0.918816	0.081137	0.479731
N170	N	1.252149	0.414470	0.813064
N171	N	1.585483	0.747803	1.146397
N172	N	0.965204	0.025197	0.520268
N173	N	1.298538	0.358531	0.853601
N174	N	1.631871	0.691864	1.186934
H175	H	0.717075	-0.074420	0.000005
H176	H	1.050408	0.258913	0.333338
H177	H	1.383742	0.592246	0.666672
H178	H	0.854118	0.159200	0.786274
H179	H	1.187451	0.492534	1.119608
H180	H	1.520785	0.825867	1.452941
H181	H	0.825452	0.193705	0.378489
H182	H	1.158786	0.527039	0.711822
H183	H	1.492119	0.860372	1.045156
H184	H	0.952745	-0.229071	-0.142689
H185	H	1.286078	0.104262	0.190644
H186	H	1.619411	0.437596	0.523977
H187	H	0.351982	-0.128014	0.000004
H188	H	0.685315	0.205319	0.333337
H189	H	1.018648	0.538652	0.666671
H190	H	1.058573	-0.087370	0.621507
H191	H	1.391907	0.245964	0.954840
H192	H	1.725240	0.579297	1.288173
H193	H	0.201093	-0.119789	-0.000009
H194	H	0.534427	0.213544	0.333324
H195	H	0.867760	0.546878	0.666658
H196	H	0.938891	-0.212444	0.142665
H197	H	1.272225	0.120889	0.475998
H198	H	1.605558	0.454223	0.809332
H199	H	1.021953	-0.043248	0.378458
H200	H	1.355287	0.290086	0.711792
H201	H	1.688620	0.623419	1.045125
H202	H	0.954174	-0.374513	-0.221323
H203	H	1.287508	-0.041179	0.112010
H204	H	1.620841	0.292154	0.445344
H205	H	0.951309	-0.544919	-0.221318
H206	H	1.284642	-0.211585	0.112015
H207	H	1.617975	0.121748	0.445349
H208	H	0.931279	-0.664586	0.142661
H209	H	1.264612	-0.331253	0.475994
H210	H	1.597945	0.002080	0.809327
H211	H	0.862066	0.149584	0.621540
H212	H	1.195399	0.482917	0.954873
H213	H	1.528733	0.816250	1.288207
H214	H	0.566199	-0.066196	-0.000006
H215	H	0.899532	0.267137	0.333328
H216	H	1.232865	0.600471	0.666661
H217	H	0.945120	-0.681215	-0.142677
H218	H	1.278453	-0.347882	0.190657
H219	H	1.611786	-0.014548	0.523990
H220	H	1.029914	-0.052853	0.213723
H221	H	1.363247	0.280480	0.547056
H222	H	1.696581	0.613814	0.880389
H223	H	0.166947	0.180771	-0.000010
H224	H	0.500280	0.514105	0.333323
H225	H	0.833613	0.847438	0.666657
H226	H	0.929840	-0.519131	0.221301
H227	H	1.263174	-0.185798	0.554634
H228	H	1.596507	0.147536	0.887967
H229	H	0.932718	-0.348745	0.221318
H230	H	1.266052	-0.015412	0.554651
H231	H	1.599385	0.317921	0.887984
H232	H	0.317825	0.172548	-0.000028
H233	H	0.651158	0.505881	0.333305
H234	H	0.984491	0.839214	0.666639
H235	H	1.050622	-0.077760	0.786254
H236	H	1.383956	0.255573	1.119588
H237	H	1.717289	0.588906	1.452921
H238	H	0.682928	0.226141	-0.000011
H239	H	1.016261	0.559475	0.333322
H240	H	1.349594	0.892808	0.666656
H241	H	0.532038	0.234359	-0.000021
H242	H	0.865372	0.567692	0.333313
H243	H	1.198705	0.901025	0.666646
H244	H	0.833403	0.184100	0.213744
H245	H	1.166736	0.517434	0.547077
H246	H	1.500070	0.850767	0.880411
