data_functionalizedCrystal
_audit_creation_method	'MofGen! by Chris Wilmer'
_symmetry_space_group_name_H-M	'P1'
_symmetry_Int_Tables_number	1
_symmetry_cell_setting	triclinic
loop_
_symmetry_equiv_pos_as_xyz
  x,y,z
_cell_length_a	25.639239
_cell_length_b	21.395362
_cell_length_c	21.395356
_cell_angle_alpha	90.047076
_cell_angle_beta	89.971496
_cell_angle_gamma	89.943053
loop_
_atom_site_label
_atom_site_type_symbol
_atom_site_fract_x
_atom_site_fract_y
_atom_site_fract_z
Zn1	Zn	-0.207909	-0.957819	-0.354651
Zn2	Zn	-0.295343	-0.957709	-0.249872
Zn3	Zn	-0.207951	-0.853036	-0.249844
Zn4	Zn	-0.295343	-0.852988	-0.354569
O5	O	-0.251637	-0.905388	-0.302234
O6	O	-0.219490	-1.045482	-0.340797
O7	O	-0.283768	-0.943797	-0.162190
O8	O	-0.134780	-0.867001	-0.263770
O9	O	-0.283727	-1.045401	-0.263816
O10	O	-0.134749	-0.943985	-0.340771
O11	O	-0.219561	-0.866894	-0.162170
O12	O	-0.219562	-0.765351	-0.263691
O13	O	-0.283728	-0.866921	-0.442258
O14	O	-0.283768	-0.765317	-0.340631
O15	O	-0.219490	-0.943939	-0.442318
O16	O	-0.368508	-0.943751	-0.263737
O17	O	-0.368508	-0.866814	-0.340658
C18	C	-0.251670	-0.742600	-0.302149
C19	C	-0.251697	-0.672959	-0.302128
C20	C	-0.285175	-0.640244	-0.342129
C21	C	-0.285164	-0.574809	-0.342152
C22	C	-0.251681	-0.542091	-0.302164
C23	C	-0.218197	-0.574813	-0.262160
C24	C	-0.218205	-0.640247	-0.262142
C25	C	-0.247480	-0.438368	-0.245751
C26	C	-0.247476	-0.372935	-0.245768
C27	C	-0.251654	-0.340270	-0.302218
C28	C	-0.255847	-0.373046	-0.358654
C29	C	-0.255855	-0.438480	-0.358637
C30	C	-0.251669	-0.471138	-0.302178
C31	C	-0.285122	-0.236603	-0.342247
C32	C	-0.285108	-0.171166	-0.342272
C33	C	-0.218144	-0.171172	-0.262274
C34	C	-0.218155	-0.236607	-0.262255
C35	C	-0.251647	-0.269319	-0.302241
C36	C	-0.387479	-0.905283	-0.302205
C37	C	-0.445593	-0.905295	-0.302214
C38	C	-0.805943	-0.945554	-0.262250
C39	C	-0.860548	-0.945578	-0.262258
O40	O	-0.888774	-0.979698	-0.228247
N41	N	-0.887876	-0.905498	-0.302275
C42	C	-0.860596	-0.865396	-0.342292
O43	O	-0.888855	-0.831307	-0.376331
C44	C	-0.805993	-0.865375	-0.342286
C45	C	-0.778668	-0.905453	-0.302261
C46	C	-0.778618	-0.985629	-0.222229
C47	C	-0.724018	-0.985604	-0.222220
C48	C	-0.696742	-0.945503	-0.262231
C49	C	-0.724067	-0.905428	-0.302252
C50	C	-0.778715	-0.825276	-0.382305
C51	C	-0.724108	-0.825259	-0.382296
C52	C	-0.696783	-0.865337	-0.342271
C53	C	-0.642191	-0.865302	-0.342255
N54	N	-0.614864	-0.905382	-0.302237
C55	C	-0.642139	-0.945483	-0.262226
C56	C	-0.975267	-0.865443	-0.342301
C57	C	-1.029869	-0.865460	-0.342304
C58	C	-1.029817	-0.945643	-0.262271
C59	C	-0.975214	-0.945623	-0.262266
C60	C	-0.947939	-0.905523	-0.302284
C61	C	-0.527474	-0.945426	-0.262209
C62	C	-0.472869	-0.945395	-0.262202
C63	C	-0.472926	-0.865215	-0.342237
C64	C	-0.527526	-0.865243	-0.342242
C65	C	-0.554799	-0.905354	-0.302226
O66	O	-0.613931	-0.831201	-0.376250
O67	O	-0.613874	-0.979571	-0.228198
C68	C	-0.115264	-0.905511	-0.302276
C69	C	-0.057149	-0.905563	-0.302295
C70	C	-0.251604	-0.905437	-0.465657
C71	C	-0.251590	-0.905458	-0.535298
C72	C	-0.251612	-0.068811	-0.302301
C73	C	-0.251624	-0.138452	-0.302284
C74	C	-0.218154	-0.865426	-0.567991
C75	C	-0.218145	-0.865424	-0.633427
C76	C	-0.251565	-0.905465	-0.666167
C77	C	-0.285008	-0.945501	-0.633466
C78	C	-0.285020	-0.945497	-0.568032
C79	C	-0.255661	-0.961916	-0.769876
C80	C	-0.255645	-0.961921	-0.835309
C81	C	-0.251530	-0.905475	-0.867988
C82	C	-0.247421	-0.849024	-0.835225
C83	C	-0.247433	-0.849020	-0.769791
C84	C	-0.251556	-0.905473	-0.737119
C85	C	-0.218082	-0.865437	-0.971633
C86	C	-0.218076	-0.865434	-1.037070
C87	C	-0.284936	-0.945517	-1.037108
C88	C	-0.284945	-0.945514	-0.971672
C89	C	-0.251515	-0.905475	-0.938939
C90	C	-0.251631	-0.905375	-0.139446
C91	C	-0.251498	-0.905475	-0.069805
H92	H	-0.190934	-0.548170	-0.229602
H93	H	-0.312446	-0.666874	-0.374689
F94	F	-0.320797	-0.539984	-0.384728
H95	H	-0.259248	-0.346452	-0.404622
F96	F	-0.243062	-0.788942	-0.734925
H97	H	-0.190896	-0.263244	-0.229679
H98	H	-0.190935	-0.832821	-0.541344
H99	H	-0.244066	-0.803061	-0.861831
H100	H	-0.259007	-1.007885	-0.743275
F101	F	-0.182547	-0.822824	-0.668228
H102	H	-1.052113	-0.832818	-0.374890
F103	F	-0.182571	-0.675066	-0.219567
F104	F	-0.182506	-0.822822	-0.936794
H105	H	-0.952969	-0.978258	-0.229675
H106	H	-0.190879	-0.144533	-0.229718
H107	H	-0.190850	-0.832830	-1.063687
F108	F	-0.443888	-0.822540	-0.384820
H109	H	-0.312147	-0.978121	-1.063764
F110	F	-0.694943	-1.028268	-0.179627
H111	H	-0.312247	-0.978099	-0.541414
H112	H	-0.312391	-0.263238	-0.374809
H113	H	-0.450622	-0.978032	-0.229607
H114	H	-0.312171	-0.978115	-0.945054
H115	H	-0.953063	-0.832784	-0.374887
F116	F	-1.058855	-0.988322	-0.219686
F117	F	-0.260023	-1.022001	-0.870172
H118	H	-0.259267	-0.465164	-0.404589
F119	F	-0.320739	-0.136349	-0.384852
H120	H	-0.244065	-0.346253	-0.199814
H121	H	-0.800953	-0.792637	-0.414894
H122	H	-0.312220	-0.978103	-0.660127
H123	H	-0.549673	-0.978090	-0.229626
F124	F	-0.243035	-0.473125	-0.185664
H125	H	-0.800820	-1.018287	-0.189646
H126	H	-0.701903	-0.792606	-0.414885
H127	H	-0.549776	-0.832610	-0.374835
