data_functionalizedCrystal
_audit_creation_method	'MofGen! by Chris Wilmer'
_symmetry_space_group_name_H-M	'P1'
_symmetry_Int_Tables_number	1
_symmetry_cell_setting	triclinic
loop_
_symmetry_equiv_pos_as_xyz
  x,y,z
_cell_length_a	13.897449
_cell_length_b	16.120531
_cell_length_c	13.897441
_cell_angle_alpha	92.862141
_cell_angle_beta	90.023394
_cell_angle_gamma	87.066788
loop_
_atom_site_label
_atom_site_type_symbol
_atom_site_fract_x
_atom_site_fract_y
_atom_site_fract_z
Zn1	Zn	1.455136	0.331862	0.564868
Zn2	Zn	1.955136	0.831862	1.064868
Zn3	Zn	1.446809	0.471293	0.411728
Zn4	Zn	1.946809	0.971293	0.911728
Zn5	Zn	1.293823	0.331900	0.403581
Zn6	Zn	1.793823	0.831900	0.903581
Zn7	Zn	1.285590	0.471237	0.572970
Zn8	Zn	1.785590	0.971237	1.072970
O9	O	1.370340	0.401573	0.488287
O10	O	1.870340	0.901573	0.988287
O11	O	1.589013	0.350365	0.544573
O12	O	2.089013	0.850365	1.044573
O13	O	1.426476	0.452842	0.275668
O14	O	1.926476	0.952842	0.775668
O15	O	1.322152	0.215230	0.418176
O16	O	1.822152	0.715230	0.918176
O17	O	1.582895	0.452805	0.432062
O18	O	2.082895	0.952805	0.932062
O19	O	1.440668	0.215201	0.536673
O20	O	1.940668	0.715201	1.036673
O21	O	1.314078	0.350431	0.269683
O22	O	1.814078	0.850431	0.769683
O23	O	1.157750	0.350376	0.426032
O24	O	1.657750	0.850376	0.926032
O25	O	1.308119	0.452709	0.706875
O26	O	1.808119	0.952709	1.206875
O27	O	1.151701	0.452747	0.550482
O28	O	1.651701	0.952747	1.050482
O29	O	1.432685	0.350311	0.700922
O30	O	1.932685	0.850311	1.200922
O31	O	1.418493	0.587951	0.439918
O32	O	1.918493	1.087951	0.939918
O33	O	1.300045	0.587910	0.558381
O34	O	1.800045	1.087910	1.058381
C35	C	1.119726	0.401560	0.488253
C36	C	1.619726	0.901560	0.988253
C37	C	1.012511	0.401575	0.488262
C38	C	1.512511	0.901575	0.988262
C39	C	0.925441	0.401578	0.488278
C40	C	1.425441	0.901578	0.988278
C41	C	0.816208	0.401584	0.488308
C42	C	1.316208	0.901584	0.988308
C43	C	1.357498	0.618181	0.500934
C44	C	1.857498	1.118181	1.000934
C45	C	1.352093	0.710847	0.506376
C46	C	1.852093	1.210847	1.006376
C47	C	1.342229	0.880508	0.516333
C48	C	1.842229	1.380508	1.016333
C49	C	1.398486	0.921798	0.460187
C50	C	1.898486	1.421798	0.960187
C51	C	1.392998	1.016203	0.465727
C52	C	1.892998	1.516203	0.965727
C53	C	1.347716	0.786094	0.510794
C54	C	1.847716	1.286094	1.010794
C55	C	1.621932	0.401587	0.488322
C56	C	2.121932	0.901587	0.988322
C57	C	1.729145	0.401592	0.488337
C58	C	2.229145	0.901592	0.988337
C59	C	1.370412	0.401499	0.739876
C60	C	1.870412	0.901499	1.239876
C61	C	1.370443	0.401468	0.847088
C62	C	1.870443	0.901468	1.347088
C63	C	1.383223	1.184120	0.475594
C64	C	1.883223	1.684120	0.975594
C65	C	1.388626	1.091454	0.470140
C66	C	1.888626	1.591454	0.970140
C67	C	1.370326	0.401586	0.237674
C68	C	1.870326	0.901586	0.737674
C69	C	1.370496	0.401383	0.130448
C70	C	1.870496	0.901383	0.630448
C71	C	1.370473	0.401412	1.043380
C72	C	1.870473	0.901412	1.543380
C73	C	1.370453	0.401445	0.934149
C74	C	1.870453	0.901445	1.434149
H75	H	1.289948	0.916057	0.568557
H76	H	1.789948	1.416057	1.068557
H77	H	1.450770	0.886246	0.407957
H78	H	1.950770	1.386246	0.907957
