data_functionalizedCrystal
_audit_creation_method	'MofGen! by Chris Wilmer'
_symmetry_space_group_name_H-M	'P1'
_symmetry_Int_Tables_number	1
_symmetry_cell_setting	triclinic
loop_
_symmetry_equiv_pos_as_xyz
  x,y,z
_cell_length_a	23.532355
_cell_length_b	23.532407
_cell_length_c	10.868271
_cell_angle_alpha	89.990218
_cell_angle_beta	90.001502
_cell_angle_gamma	82.838088
loop_
_atom_site_label
_atom_site_type_symbol
_atom_site_fract_x
_atom_site_fract_y
_atom_site_fract_z
O1	O	0.755278	0.068994	-0.102167
O2	O	1.255278	0.568994	0.397833
O3	O	0.589411	0.079029	-0.102208
O4	O	1.089411	0.579029	0.397792
O5	O	0.677346	-0.008921	-0.102164
O6	O	1.177346	0.491079	0.397836
O7	O	0.667343	0.156944	-0.102212
O8	O	1.167343	0.656944	0.397788
O9	O	0.677339	-0.008924	0.102481
O10	O	1.177339	0.491076	0.602481
O11	O	0.589404	0.079025	0.102436
O12	O	1.089404	0.579025	0.602436
O13	O	0.755271	0.068991	0.102477
O14	O	1.255271	0.568991	0.602477
Zn15	Zn	0.672336	0.074008	0.134949
Zn16	Zn	1.172336	0.574008	0.634949
Zn17	Zn	0.672346	0.074012	-0.134680
Zn18	Zn	1.172346	0.574012	0.365320
O19	O	0.667336	0.156941	0.102433
O20	O	1.167336	0.656941	0.602433
C21	C	0.568191	0.078776	0.000109
C22	C	1.068191	0.578776	0.500109
C23	C	0.504972	0.078022	0.000095
C24	C	1.004972	0.578022	0.500095
C25	C	0.112954	0.073282	0.111699
C26	C	0.612954	0.573282	0.611699
C27	C	0.053555	0.072565	0.111704
C28	C	0.553555	0.572565	0.611704
O29	O	0.022833	0.072173	0.206574
O30	O	0.522833	0.572173	0.706574
N31	N	0.023850	0.072211	0.000153
N32	N	0.523850	0.572211	0.500153
C33	C	0.053549	0.072568	-0.111411
C34	C	0.553549	0.572568	0.388589
O35	O	0.022829	0.072201	-0.206293
O36	O	0.522829	0.572201	0.293707
C37	C	0.112948	0.073282	-0.111414
C38	C	0.612948	0.573282	0.388586
C39	C	0.142649	0.073641	0.000144
C40	C	0.642649	0.573641	0.500144
C41	C	0.142655	0.073641	0.223249
C42	C	0.642655	0.573641	0.723249
C43	C	0.202050	0.074360	0.223243
C44	C	0.702050	0.574360	0.723243
C45	C	0.231745	0.074719	0.111688
C46	C	0.731745	0.574719	0.611688
C47	C	0.202044	0.074360	0.000139
C48	C	0.702044	0.574360	0.500139
C49	C	0.142646	0.073635	-0.222977
C50	C	0.642646	0.573635	0.277023
C51	C	0.202049	0.074348	-0.222971
C52	C	0.702049	0.574348	0.277029
C53	C	0.231750	0.074708	-0.111412
C54	C	0.731750	0.574708	0.388588
C55	C	0.291133	0.075438	-0.111421
C56	C	0.791133	0.575438	0.388579
N57	N	0.320838	0.075792	0.000130
N58	N	0.820838	0.575792	0.500130
C59	C	0.291144	0.075432	0.111685
C60	C	0.791144	0.575432	0.611685
C61	C	-0.071192	0.071069	-0.111394
C62	C	0.428808	0.571069	0.388606
C63	C	-0.130591	0.070360	-0.111392
C64	C	0.369409	0.570360	0.388608
C65	C	-0.130581	0.070355	0.111723
C66	C	0.369419	0.570355	0.611723
C67	C	-0.071182	0.071069	0.111720
C68	C	0.428818	0.571069	0.611720
C69	C	-0.041488	0.071423	0.000157
C70	C	0.458512	0.571423	0.500157
C71	C	0.415878	0.076942	0.111665
C72	C	0.915878	0.576942	0.611665
C73	C	0.475278	0.077663	0.111650
C74	C	0.975278	0.577663	0.611650
C75	C	0.475263	0.077664	-0.111465
C76	C	0.975263	0.577664	0.388535
C77	C	0.415868	0.076947	-0.111450
C78	C	0.915868	0.576947	0.388550
C79	C	0.386177	0.076583	0.000124
C80	C	0.886177	0.576583	0.500124
O81	O	0.321893	0.075828	-0.206242
O82	O	0.821893	0.575828	0.293758
O83	O	0.321872	0.075792	0.206551
O84	O	0.821872	0.575792	0.706551
C85	C	0.677088	-0.030139	0.000161
C86	C	1.177088	0.469861	0.500161
C87	C	0.676322	-0.093356	0.000171
C88	C	1.176322	0.406644	0.500171
C89	C	0.723557	-0.492468	0.000115
C90	C	1.223557	0.007532	0.500115
C91	C	0.722845	-0.551868	0.000105
C92	C	1.222845	-0.051868	0.500105
O93	O	0.766632	-0.588620	0.000071
O94	O	1.266632	-0.088620	0.500071
N95	N	0.670568	-0.574484	0.000093
N96	N	1.170568	-0.074484	0.500093
C97	C	0.618998	-0.537697	0.000078
C98	C	1.118998	-0.037697	0.500078
O99	O	0.574467	-0.562388	0.000066
O100	O	1.074467	-0.062388	0.500066
C101	C	0.619710	-0.478298	0.000079
C102	C	1.119710	0.021702	0.500079
C103	C	0.671991	-0.455685	0.000104
C104	C	1.171991	0.044315	0.500104
C105	C	0.775834	-0.469854	0.000138
C106	C	1.275834	0.030146	0.500138
C107	C	0.776545	-0.410458	0.000150
C108	C	1.276545	0.089542	0.500150
C109	C	0.724979	-0.373676	0.000139
C110	C	1.224979	0.126324	0.500139
C111	C	0.672703	-0.396289	0.000115
C112	C	1.172703	0.103711	0.500115
C113	C	0.568141	-0.441512	0.000055
C114	C	1.068141	0.058488	0.500055
C115	C	0.568858	-0.382110	0.000055
C116	C	1.068858	0.117890	0.500055
C117	C	0.621139	-0.359497	0.000080
C118	C	1.121139	0.140503	0.500080
C119	C	0.621848	-0.300110	0.000116
C120	C	1.121848	0.199890	0.500116
N121	N	0.674126	-0.277494	0.000128
N122	N	1.174126	0.222506	0.500128
C123	C	0.725691	-0.314277	0.000139
C124	C	1.225691	0.185723	0.500139
C125	C	0.617507	-0.662439	0.000075
C126	C	1.117507	-0.162439	0.500075
C127	C	0.616794	-0.721837	0.000083
C128	C	1.116794	-0.221837	0.500083
C129	C	0.720642	-0.736004	0.000108
C130	C	1.220642	-0.236004	0.500108
C131	C	0.721354	-0.676605	0.000108
C132	C	1.221354	-0.176605	0.500108
C133	C	0.669784	-0.639823	0.000087
C134	C	1.169784	-0.139823	0.500087
C135	C	0.727181	-0.189540	0.000165
C136	C	1.227181	0.310460	0.500165
C137	C	0.727888	-0.130138	0.000182
C138	C	1.227888	0.369862	0.500182
C139	C	0.624041	-0.115977	0.000151
C140	C	1.124041	0.384023	0.500151
C141	C	0.623334	-0.175373	0.000140
C142	C	1.123334	0.324627	0.500140
C143	C	0.674909	-0.212154	0.000143
C144	C	1.174909	0.287846	0.500143
O145	O	0.578084	-0.263323	0.000145
O146	O	1.078084	0.236677	0.500145
O147	O	0.770216	-0.289577	0.000135
O148	O	1.270216	0.210423	0.500135
C149	C	0.776492	0.069244	0.000157
C150	C	1.276492	0.569244	0.500157
C151	C	0.839710	0.069998	0.000164
C152	C	1.339710	0.569998	0.500164
C153	C	0.667594	0.178158	0.000105
C154	C	1.167594	0.678158	0.500105
C155	C	0.668360	0.241375	0.000088
C156	C	1.168360	0.741375	0.500088
N157	N	0.672334	0.074004	0.318963
N158	N	1.172334	0.574004	0.818963
N159	N	0.672353	0.074011	-0.318694
N160	N	1.172353	0.574011	0.181306
C161	C	0.672343	0.074011	0.569969
C162	C	1.172343	0.574011	1.069969
C163	C	0.672336	0.074009	0.430291
C164	C	1.172336	0.574009	0.930291
H165	H	-0.154768	0.070062	0.202558
H166	H	0.345232	0.570062	0.702558
Cl167	Cl	0.840668	-0.516085	0.000154
Cl168	Cl	1.340668	-0.016085	0.500154
Cl169	Cl	0.785467	-0.782256	0.000113
Cl170	Cl	1.285467	-0.282256	0.500113
Cl171	Cl	0.787081	-0.648184	0.000137
Cl172	Cl	1.287081	-0.148184	0.500137
H173	H	0.226228	0.074649	0.314086
H174	H	0.726228	0.574649	0.814086
Cl175	Cl	0.239375	0.074793	-0.363230
Cl176	Cl	0.739375	0.574793	0.136770
Cl177	Cl	-0.033850	0.071519	0.251970
Cl178	Cl	0.466150	0.571519	0.751970
H179	H	0.819117	-0.392053	0.000165
H180	H	1.319117	0.107947	0.500165
Cl181	Cl	-0.167923	0.069919	-0.251643
Cl182	Cl	0.332077	0.569919	0.248357
Cl183	Cl	0.105336	0.073193	0.363509
Cl184	Cl	0.605336	0.573193	0.863509
H185	H	0.499457	0.077957	0.202498
H186	H	0.999457	0.577957	0.702498
Cl187	Cl	-0.033870	0.071522	-0.251659
Cl188	Cl	0.466130	0.571522	0.248341
H189	H	0.770463	-0.111731	0.000205
H190	H	1.270463	0.388269	0.500205
H191	H	0.391710	0.076651	0.202520
H192	H	0.891710	0.576651	0.702520
H193	H	0.574222	-0.740243	0.000084
H194	H	1.074222	-0.240243	0.500084
H195	H	0.118474	0.073342	-0.313820
H196	H	0.618474	0.573342	0.186180
H197	H	0.525569	-0.459912	0.000028
H198	H	1.025569	0.040088	0.500028
Cl199	Cl	0.557608	-0.203802	0.000133
Cl200	Cl	1.057608	0.296198	0.500133
Cl201	Cl	0.378527	0.076504	-0.251697
Cl202	Cl	0.878527	0.576504	0.248303
Cl203	Cl	0.552670	-0.616204	0.000062
Cl204	Cl	1.052670	-0.116204	0.500062
H205	H	0.499450	0.077959	-0.202290
H206	H	0.999450	0.577959	0.297710
Cl207	Cl	0.504024	-0.335872	0.000027
Cl208	Cl	1.004024	0.164128	0.500027
H209	H	0.769178	-0.219481	0.000163
H210	H	1.269178	0.280519	0.500163
Cl211	Cl	0.559219	-0.069725	0.000134
Cl212	Cl	1.059219	0.430275	0.500134
