data_functionalizedCrystal
_audit_creation_method	'MofGen! by Chris Wilmer'
_symmetry_space_group_name_H-M	'P1'
_symmetry_Int_Tables_number	1
_symmetry_cell_setting	triclinic
loop_
_symmetry_equiv_pos_as_xyz
  x,y,z
_cell_length_a	19.188930
_cell_length_b	14.971482
_cell_length_c	17.666332
_cell_angle_alpha	89.994560
_cell_angle_beta	89.990387
_cell_angle_gamma	83.378695
loop_
_atom_site_label
_atom_site_type_symbol
_atom_site_fract_x
_atom_site_fract_y
_atom_site_fract_z
O1	O	0.090974	1.186468	-0.062947
O2	O	0.101872	0.926010	-0.062952
O3	O	-0.005209	1.063755	-0.062935
O4	O	0.198054	1.048723	-0.062965
O5	O	-0.005211	1.063740	0.062962
O6	O	0.101870	0.925994	0.062945
O7	O	0.090971	1.186452	0.062949
Cu8	Cu	0.096420	1.056222	0.074442
Cu9	Cu	0.096423	1.056241	-0.074445
O10	O	0.198052	1.048707	0.062932
C11	C	0.101384	0.892680	-0.000004
C12	C	0.099925	0.793390	-0.000005
C13	C	0.099236	0.746741	0.068622
C14	C	0.097854	0.653450	0.068623
C15	C	0.097165	0.606809	-0.000004
C16	C	0.097852	0.653465	-0.068637
C17	C	0.099229	0.746756	-0.068637
C18	C	0.094983	0.459019	-0.068631
C19	C	0.093607	0.365722	-0.068631
C20	C	0.093608	0.365712	0.068629
C21	C	0.094985	0.459003	0.068628
C22	C	0.095673	0.505653	-0.000005
C23	C	-0.031222	1.063261	0.000016
C24	C	-0.108732	1.061799	0.000022
C25	C	-0.153396	1.142624	0.000027
C26	C	-0.226224	1.141251	0.000015
C27	C	-0.254385	1.059049	0.000013
C28	C	-0.209710	0.978214	0.000004
C29	C	-0.136884	0.979589	0.000008
N30	N	-0.362592	0.996210	0.042857
N31	N	-0.431775	0.994909	0.042854
C32	C	-0.473807	1.054901	-0.000002
N33	N	-0.444044	1.116256	-0.042847
N34	N	-0.374855	1.117559	-0.042840
C35	C	-0.333352	1.057549	0.000008
C36	C	-0.597441	1.134242	-0.000011
C37	C	-0.670270	1.132866	-0.000028
C38	C	-0.653754	0.969826	-0.000032
C39	C	-0.580926	0.971205	-0.000023
C40	C	-0.552774	1.053415	-0.000009
C41	C	0.224066	1.049202	-0.000020
C42	C	0.301575	1.050663	-0.000032
C43	C	0.091459	1.219782	-0.000000
C44	C	0.092919	1.319072	-0.000004
N45	N	0.096418	1.056215	0.179162
C46	C	0.049019	1.117246	0.781220
C47	C	0.049021	1.117248	0.701972
C48	C	0.096418	1.056239	0.662343
C49	C	0.143829	0.995239	0.701969
C50	C	0.143831	0.995245	0.781215
N51	N	0.105212	0.977053	0.537929
N52	N	0.105206	0.977050	0.462648
C53	C	0.096416	1.056218	0.423579
N54	N	0.087619	1.135392	0.462635
N55	N	0.087621	1.135394	0.537922
C56	C	0.096421	1.056226	0.576414
C57	C	0.049013	1.117221	0.298034
C58	C	0.049019	1.117224	0.218785
C59	C	0.143825	0.995207	0.218783
C60	C	0.143821	0.995212	0.298031
C61	C	0.096412	1.056218	0.337652
N62	N	0.096421	1.056251	0.820835
H63	H	0.093047	0.327749	-0.124513
H64	H	0.093048	0.327726	0.124512
C65	C	0.095738	0.510300	0.144122
C66	C	0.157262	0.564035	0.162999
C67	C	0.158011	0.615328	0.238496
C68	C	0.097235	0.612888	0.295117
C69	C	0.035706	0.559151	0.276242
C70	C	0.034958	0.507858	0.200744
H71	H	0.202256	0.565843	0.121084
H72	H	0.203559	0.655108	0.252469
H73	H	0.097789	0.650858	0.351004
H74	H	-0.009288	0.557343	0.318157
H75	H	-0.010590	0.468078	0.186772
C76	C	-0.566467	1.224669	-0.000002
C77	C	-0.615602	1.313579	-0.000007
C78	C	-0.584630	1.404006	0.000004
C79	C	-0.504525	1.405524	0.000019
C80	C	-0.455385	1.316610	0.000023
C81	C	-0.486356	1.226183	0.000012
H82	H	-0.674905	1.312459	-0.000017
H83	H	-0.621007	1.469826	0.000001
H84	H	-0.481598	1.472463	0.000026
H85	H	-0.396081	1.317731	0.000034
H86	H	-0.449979	1.160364	0.000016
C87	C	0.195966	0.928126	0.658382
C88	C	0.275476	0.929318	0.669257
C89	C	0.327618	0.862205	0.625671
C90	C	0.300250	0.793902	0.571210
C91	C	0.220736	0.792708	0.560333
C92	C	0.168594	0.859820	0.603919
H93	H	0.295739	0.979882	0.709574
H94	H	0.386480	0.863090	0.633723
H95	H	0.338849	0.744222	0.538946
H96	H	0.200473	0.742143	0.520016
H97	H	0.109733	0.858936	0.595866
C98	C	0.095742	0.510338	-0.144126
C99	C	0.034977	0.507919	-0.200740
C100	C	0.035741	0.559239	-0.276232
C101	C	0.097270	0.612977	-0.295109
C102	C	0.158040	0.615397	-0.238494
C103	C	0.157276	0.564077	-0.163002
H104	H	-0.010575	0.468138	-0.186767
H105	H	-0.009245	0.557447	-0.318142
H106	H	0.097836	0.650967	-0.350993
H107	H	0.203592	0.655179	-0.252467
H108	H	0.202263	0.565869	-0.121092
C109	C	-0.003129	1.184343	0.658384
C110	C	-0.056566	1.149587	0.603922
C111	C	-0.108717	1.216680	0.560337
C112	C	-0.107431	1.318529	0.571215
C113	C	-0.053992	1.353290	0.625679
C114	C	-0.001841	1.286197	0.669264
H115	H	-0.057520	1.074187	0.595868
H116	H	-0.148276	1.190947	0.520019
H117	H	-0.146036	1.368196	0.538951
H118	H	-0.053038	1.428690	0.633733
H119	H	0.037718	1.311930	0.709582
H120	H	-0.676681	0.902896	-0.000037
C121	C	-0.531790	0.882295	-0.000015
C122	C	-0.562760	0.791872	-0.000015
C123	C	-0.513624	0.702958	-0.000008
C124	C	-0.433517	0.704467	-0.000001
C125	C	-0.402543	0.794894	-0.000000
C126	C	-0.451679	0.883808	-0.000008
H127	H	-0.622064	0.790752	-0.000020
H128	H	-0.536553	0.636019	-0.000008
H129	H	-0.397143	0.638648	0.000005
H130	H	-0.343239	0.796014	0.000005
H131	H	-0.428749	0.950747	-0.000007
H132	H	0.182433	0.945574	0.813471
C133	C	0.195964	0.928097	0.175200
C134	C	0.168597	0.859799	0.120734
C135	C	0.220740	0.792690	0.077146
C136	C	0.300249	0.793880	0.088024
C137	C	0.327620	0.862181	0.142493
C138	C	0.275477	0.929290	0.186081
H139	H	0.109736	0.858916	0.112679
H140	H	0.200478	0.742129	0.036825
H141	H	0.338849	0.744202	0.055758
H142	H	0.386481	0.863064	0.150548
H143	H	0.295739	0.979851	0.226402
H144	H	-0.232643	0.911284	0.000000
H145	H	0.010411	1.166898	0.330294
H146	H	0.097286	0.615484	-0.124514
C147	C	-0.003126	1.184323	0.175202
C148	C	-0.055273	1.251423	0.218785
C149	C	-0.107419	1.318523	0.175200
C150	C	-0.107418	1.318522	0.088032
C151	C	-0.055268	1.251419	0.044445
C152	C	-0.003123	1.184320	0.088030
H153	H	-0.055276	1.251426	0.283316
H154	H	-0.146024	1.368196	0.207467
H155	H	-0.146019	1.368193	0.055768
H156	H	-0.055266	1.251417	-0.020086
H157	H	0.035482	1.134646	0.055763
C158	C	0.099989	0.798075	-0.144127
C159	C	0.039220	0.795652	-0.200736
C160	C	0.039976	0.846972	-0.276228
C161	C	0.101501	0.900714	-0.295113
C162	C	0.162275	0.903138	-0.238503
C163	C	0.161519	0.851819	-0.163010
H164	H	-0.006329	0.755868	-0.186758
H165	H	-0.005014	0.845177	-0.318135
H166	H	0.102061	0.938703	-0.350997
H167	H	0.207824	0.942923	-0.252480
H168	H	0.206509	0.853614	-0.121104
C169	C	-0.719403	1.221780	-0.000024
C170	C	-0.716217	1.289203	0.065360
C171	C	-0.765351	1.378120	0.065363
C172	C	-0.817671	1.399613	-0.000017
C173	C	-0.820859	1.332188	-0.065405
C174	C	-0.771725	1.243272	-0.065409
H175	H	-0.677485	1.273294	0.113762
H176	H	-0.762991	1.428032	0.113769
H177	H	-0.854043	1.465434	-0.000014
H178	H	-0.859592	1.348097	-0.113808
H179	H	-0.774086	1.193360	-0.113815
H180	H	-0.130480	1.209566	0.000036
C181	C	-0.087748	0.890676	0.000009
C182	C	-0.035395	0.869211	-0.065361
C183	C	0.013742	0.780297	-0.065358
C184	C	0.010526	0.712849	0.000014
C185	C	-0.041829	0.734313	0.065388
C186	C	-0.090966	0.823226	0.065386
H187	H	-0.033012	0.919142	-0.113758
H188	H	0.052499	0.764409	-0.113753
H189	H	0.046901	0.647030	0.000016
H190	H	-0.044211	0.684382	0.113785
H191	H	-0.129723	0.839115	0.113781
C192	C	0.099997	0.798043	0.144113
C193	C	0.160389	0.774807	0.200721
C194	C	0.161149	0.826108	0.276214
C195	C	0.101518	0.900644	0.295099
C196	C	0.041122	0.923884	0.238490
C197	C	0.040362	0.872583	0.162997
H198	H	0.204535	0.719627	0.186742
H199	H	0.205858	0.808904	0.318119
H200	H	0.102081	0.938620	0.350983
H201	H	-0.003024	0.979064	0.252469
H202	H	-0.004347	0.889787	0.121091
C203	C	-0.275369	1.230161	0.000027
C204	C	-0.272182	1.297581	0.065414
C205	C	-0.321324	1.386490	0.065428
C206	C	-0.373654	1.407980	0.000056
C207	C	-0.376843	1.340559	-0.065335
C208	C	-0.327700	1.251649	-0.065349
H209	H	-0.233443	1.281674	0.113810
H210	H	-0.318963	1.436400	0.113835
H211	H	-0.410032	1.473796	0.000067
H212	H	-0.415582	1.356465	-0.113732
H213	H	-0.330061	1.201740	-0.113757
C214	C	0.195959	0.928107	0.341615
C215	C	0.248097	0.860996	0.298033
C216	C	0.300238	0.793890	0.341618
C217	C	0.300240	0.793896	0.428786
C218	C	0.248100	0.861011	0.472373
C219	C	0.195959	0.928116	0.428788
H220	H	0.248097	0.860989	0.233502
H221	H	0.338836	0.744208	0.309352
H222	H	0.338838	0.744221	0.461050
H223	H	0.248100	0.861018	0.536904
H224	H	0.157361	0.977798	0.461055
H225	H	0.097282	0.615474	0.124506
H226	H	0.010417	1.166922	0.813476
