data_functionalizedCrystal
_audit_creation_method	'MofGen! by Chris Wilmer'
_symmetry_space_group_name_H-M	'P1'
_symmetry_Int_Tables_number	1
_symmetry_cell_setting	triclinic
loop_
_symmetry_equiv_pos_as_xyz
  x,y,z
_cell_length_a	18.215407
_cell_length_b	12.759399
_cell_length_c	18.215399
_cell_angle_alpha	90.024490
_cell_angle_beta	90.017368
_cell_angle_gamma	90.013660
loop_
_atom_site_label
_atom_site_type_symbol
_atom_site_fract_x
_atom_site_fract_y
_atom_site_fract_z
Zn1	Zn	1.125116	-0.418349	0.416085
Zn2	Zn	1.125043	-0.594046	0.293026
Zn3	Zn	1.002049	-0.418374	0.293038
Zn4	Zn	1.002033	-0.593978	0.416056
O5	O	1.063560	-0.506187	0.354551
O6	O	1.228091	-0.441673	0.399768
O7	O	1.108704	-0.570782	0.190044
O8	O	1.018411	-0.271350	0.309377
O9	O	1.228037	-0.570757	0.309357
O10	O	1.108828	-0.271331	0.399779
O11	O	1.018340	-0.441716	0.190052
O12	O	0.899063	-0.441650	0.309349
O13	O	1.018385	-0.570642	0.519045
O14	O	0.899051	-0.570666	0.399731
O15	O	1.108813	-0.441608	0.519066
O16	O	1.108689	-0.741058	0.309330
O17	O	1.018314	-0.741008	0.399719
C18	C	0.872354	-0.506155	0.354539
C19	C	0.790555	-0.506166	0.354550
C20	C	0.602388	-0.439090	0.401702
C21	C	0.525529	-0.439099	0.401704
C22	C	0.525485	-0.573313	0.307414
C23	C	0.602342	-0.573298	0.307408
C24	C	0.640792	-0.506188	0.354556
C25	C	0.487076	-0.506212	0.354565
C26	C	0.403742	-0.506222	0.354567
C27	C	0.724131	-0.506176	0.354553
C28	C	1.063512	-0.779154	0.354536
C29	C	1.063558	-0.895931	0.354554
C30	C	1.016545	-0.950896	0.307461
C31	C	1.016597	-1.060620	0.307480
C32	C	1.110677	-1.060404	0.401691
C33	C	1.110628	-0.950682	0.401668
C34	C	0.990418	-1.210692	0.220696
C35	C	0.943394	-1.265661	0.173609
C36	C	0.871576	-1.230151	0.162241
C37	C	0.846768	-1.139675	0.197970
C38	C	0.893788	-1.084712	0.245062
C39	C	0.965617	-1.120220	0.256416
C40	C	1.136799	-0.800608	0.488453
C41	C	1.183817	-0.745643	0.535550
C42	C	1.255636	-0.781150	0.546926
C43	C	1.280442	-0.871630	0.511210
C44	C	1.233424	-0.926595	0.464113
C45	C	1.161606	-0.891080	0.452736
C46	C	1.255513	-0.506220	0.354565
C47	C	1.337312	-0.506234	0.354571
C48	C	1.063605	-0.506114	0.546504
C49	C	1.063624	-0.506084	0.628303
C50	C	1.063629	-0.232154	0.354583
C51	C	1.063659	-0.115377	0.354596
C52	C	1.063558	-0.506183	0.163345
C53	C	1.063682	-0.505918	0.081547
C54	C	1.110727	-0.438832	0.816510
C55	C	1.110736	-0.438802	0.893368
C56	C	1.016573	-0.573172	0.893335
C57	C	1.016561	-0.573197	0.816478
C58	C	1.063643	-0.506028	0.778067
C59	C	1.063663	-0.505973	0.931783
C60	C	1.063672	-0.505941	1.015117
C61	C	1.063633	-0.506059	0.694728
H62	H	0.494265	-0.384460	0.440094
Cl63	Cl	1.264609	-1.040343	0.419213
Cl64	Cl	0.650624	-0.657645	0.248127
Cl65	Cl	1.370730	-0.916276	0.525513
H66	H	0.978243	-0.627860	0.924619
Cl67	Cl	0.862608	-0.970977	0.289975
Cl68	Cl	1.169938	-0.354332	0.941693
H69	H	0.633692	-0.384442	0.440090
H70	H	0.494169	-0.627952	0.269029
H71	H	0.978219	-0.906319	0.269097
Cl72	Cl	0.756472	-1.095052	0.183687
H73	H	0.978214	-0.627915	0.785177
H74	H	0.833288	-1.274915	0.123902
H75	H	0.963599	-1.339327	0.144519
Cl76	Cl	1.169912	-0.354389	0.768224
H77	H	1.048901	-1.239606	0.229941
H78	H	1.163614	-0.671970	0.564632
Cl79	Cl	1.314741	-0.712054	0.606140
Cl80	Cl	1.169844	-1.129242	0.460921
H81	H	1.078324	-0.771671	0.479178
