data_functionalizedCrystal
_audit_creation_method	'MofGen! by Chris Wilmer'
_symmetry_space_group_name_H-M	'P1'
_symmetry_Int_Tables_number	1
_symmetry_cell_setting	triclinic
loop_
_symmetry_equiv_pos_as_xyz
  x,y,z
_cell_length_a	12.645331
_cell_length_b	18.101395
_cell_length_c	12.645323
_cell_angle_alpha	90.028267
_cell_angle_beta	90.022676
_cell_angle_gamma	90.030083
loop_
_atom_site_label
_atom_site_type_symbol
_atom_site_fract_x
_atom_site_fract_y
_atom_site_fract_z
Zn1	Zn	1.620632	-0.294844	0.599421
Zn2	Zn	1.620473	-0.418694	0.422151
Zn3	Zn	1.443347	-0.294869	0.422166
Zn4	Zn	1.443287	-0.418646	0.599366
O5	O	1.531935	-0.356763	0.510776
O6	O	1.768958	-0.311283	0.575923
O7	O	1.596935	-0.402299	0.273805
O8	O	1.466956	-0.191233	0.445708
O9	O	1.768841	-0.402275	0.445683
O10	O	1.597207	-0.191214	0.575937
O11	O	1.466801	-0.311325	0.273816
O12	O	1.294992	-0.311278	0.445655
O13	O	1.466854	-0.402193	0.747721
O14	O	1.294948	-0.402217	0.575843
O15	O	1.597149	-0.311236	0.747761
O16	O	1.596877	-0.522321	0.445630
O17	O	1.466699	-0.522285	0.575829
C18	C	1.256505	-0.356746	0.510745
C19	C	1.138675	-0.356756	0.510757
C20	C	1.531793	-0.549174	0.510745
C21	C	1.531829	-0.631488	0.510767
C22	C	0.971103	-0.299284	0.429308
C23	C	1.093663	-0.299432	0.428949
C24	C	1.094129	-0.434770	0.480236
C25	C	0.971530	-0.434456	0.479680
C26	C	0.971532	-0.336957	0.623043
C27	C	1.094139	-0.335215	0.622419
C28	C	1.532062	-0.930579	0.510824
C29	C	1.450348	-0.899262	0.592945
C30	C	1.449960	-0.813644	0.592688
C31	C	1.531946	-0.782196	0.510797
C32	C	1.501694	-0.813349	0.399071
C33	C	1.501167	-0.898994	0.399562
C34	C	1.644207	-0.898924	0.539445
C35	C	1.643548	-0.813273	0.541895
C36	C	1.531883	-0.698337	0.510774
C37	C	1.532123	-1.014438	0.510839
C38	C	1.808440	-0.356781	0.510807
C39	C	1.926270	-0.356789	0.510821
C40	C	1.532013	-0.356706	0.787281
C41	C	1.532046	-0.356682	0.905112
C42	C	1.532106	-0.163601	0.510830
C43	C	1.532179	-0.081287	0.510854
C44	C	1.531918	-0.356767	0.235346
C45	C	1.532090	-0.356583	0.117517
C46	C	1.449825	-0.413633	1.072650
C47	C	1.450040	-0.413915	0.950090
C48	C	1.643739	-0.377863	0.949630
C49	C	1.643288	-0.378220	1.072228
C50	C	1.503631	-0.278231	1.072316
C51	C	1.501139	-0.278701	0.949710
H52	H	0.941659	-0.241259	0.448234
N53	N	1.723957	-0.786412	0.472321
N54	N	1.700213	-0.743741	0.398350
H55	H	1.756999	-0.724774	0.349202
N56	N	1.573980	-0.787795	0.320196
N57	N	1.562342	-0.807020	0.225951
H58	H	1.613394	-0.788971	0.170245
N59	N	1.672207	-0.787716	0.645028
N60	N	1.758744	-0.806327	0.684678
H61	H	1.778987	-0.788271	0.757514
N62	N	1.720571	-0.924327	0.464402
N63	N	1.692667	-0.965565	0.390135
H64	H	1.746590	-0.983509	0.337131
H65	H	1.468825	-0.472001	0.920771
H66	H	0.942539	-0.378842	0.683778
N67	N	1.399944	-0.786516	0.368118
N68	N	1.349534	-0.744460	0.428148
H69	H	1.277671	-0.725509	0.406293
N70	N	1.473180	-0.486043	1.111302
N71	N	1.560580	-0.515115	1.091397
H72	H	1.577081	-0.566254	1.118697
N73	N	1.131439	-0.226852	0.452917
N74	N	1.067259	-0.175733	0.470026
H75	H	1.093933	-0.124467	0.486939
N76	N	1.473700	-0.787200	0.696606
N77	N	1.477473	-0.719291	0.714194
H78	H	1.494241	-0.700616	0.787590
H79	H	1.367728	-0.920848	0.574226
N80	N	1.673563	-0.450073	1.108105
N81	N	1.694875	-0.499608	1.042600
H82	H	1.716258	-0.550357	1.067932
H83	H	1.418943	-0.262727	0.920612
H84	H	1.706659	-0.338471	1.101910
H85	H	1.367216	-0.400660	0.919989
H86	H	1.671788	-0.920471	0.619527
N87	N	0.935581	-0.455531	0.376755
N88	N	0.879682	-0.412250	0.323808
H89	H	0.854297	-0.427132	0.251112
H90	H	1.366835	-0.793220	0.573730
N91	N	1.578804	-0.224915	1.108719
N92	N	1.653046	-0.244437	1.167695
H93	H	1.706141	-0.206789	1.193410
H94	H	1.419189	-0.919036	0.375318
N95	N	0.934296	-0.490030	0.550888
N96	N	0.837192	-0.499700	0.563159
H97	H	0.810897	-0.538952	0.613444
H98	H	1.123262	-0.277805	0.645434
N99	N	0.932375	-0.315528	0.325601
N100	N	0.835115	-0.315350	0.307914
H101	H	0.807759	-0.326825	0.234673
N102	N	1.473919	-0.924989	0.697220
N103	N	1.551210	-0.966712	0.712231
H104	H	1.567880	-0.984868	0.785883
H105	H	1.124778	-0.451877	0.399076
H106	H	0.940654	-0.281063	0.650799
H107	H	1.366755	-0.400505	1.102125
N108	N	1.570801	-0.222545	0.911313
N109	N	1.624160	-0.184993	0.974901
H110	H	1.673358	-0.145329	0.947780
N111	N	1.132513	-0.383969	0.702664
N112	N	1.193582	-0.435616	0.678756
H113	H	1.220655	-0.470070	0.735421
H114	H	1.558102	-0.919713	0.336289
N115	N	1.722685	-0.327380	0.913083
N116	N	1.697449	-0.275104	0.853675
H117	H	1.753203	-0.239449	0.827862
N118	N	1.674518	-0.448962	0.911116
N119	N	1.614388	-0.484155	0.850895
H120	H	1.636121	-0.534370	0.823694
N121	N	1.403246	-0.254000	1.111091
N122	N	1.388838	-0.246523	1.208295
H123	H	1.317937	-0.229416	1.235682
N124	N	1.130395	-0.315867	0.324623
N125	N	1.106069	-0.274639	0.249179
H126	H	1.132009	-0.286247	0.175494
N127	N	1.130724	-0.489952	0.552371
N128	N	1.227643	-0.501488	0.562571
H129	H	1.253493	-0.540460	0.613519
