data_functionalizedCrystal
_audit_creation_method	'MofGen! by Chris Wilmer'
_symmetry_space_group_name_H-M	'P1'
_symmetry_Int_Tables_number	1
_symmetry_cell_setting	triclinic
loop_
_symmetry_equiv_pos_as_xyz
  x,y,z
_cell_length_a	12.376457
_cell_length_b	19.288864
_cell_length_c	19.288865
_cell_angle_alpha	83.136245
_cell_angle_beta	101.231510
_cell_angle_gamma	78.733144
loop_
_atom_site_label
_atom_site_type_symbol
_atom_site_fract_x
_atom_site_fract_y
_atom_site_fract_z
O1	O	0.094384	-0.934764	-0.073239
O2	O	0.094308	-0.732493	-0.084938
O3	O	0.094326	-0.839470	0.022039
O4	O	0.094366	-0.827787	-0.180216
O5	O	-0.093691	-0.812735	-0.004669
O6	O	-0.093709	-0.705758	-0.111646
O7	O	-0.093633	-0.908030	-0.099947
Zn8	Zn	-0.123522	-0.802649	-0.110037
Zn9	Zn	0.124197	-0.837873	-0.074848
O10	O	-0.093651	-0.801053	-0.206924
C11	C	0.000290	-0.693248	-0.097918
C12	C	0.000260	-0.616140	-0.096793
C13	C	0.000314	-0.825726	0.034561
C14	C	0.000303	-0.824596	0.111663
N15	N	-0.292585	-0.778615	-0.134052
C16	C	-0.647547	-0.917705	0.004933
C17	C	-0.529204	-0.934523	0.021741
C18	C	-0.470043	-0.895547	-0.017206
C19	C	-0.529237	-0.839751	-0.072964
C20	C	-0.647591	-0.822935	-0.089777
C21	C	-0.470088	-0.800777	-0.111916
C22	C	-0.529281	-0.744981	-0.167674
C23	C	-0.647624	-0.728168	-0.184484
C24	C	-0.706785	-0.767143	-0.145538
C25	C	-0.351734	-0.817593	-0.095102
C26	C	-0.351778	-0.722823	-0.189812
C27	C	-0.470121	-0.706005	-0.206620
N28	N	0.293260	-0.861913	-0.050827
C29	C	0.000388	-0.947275	-0.086967
C30	C	0.000425	-1.024384	-0.088091
C31	C	0.000290	-0.571448	-0.159556
C32	C	0.000303	-0.499003	-0.158494
C33	C	0.000307	-0.471256	-0.094661
C34	C	0.000270	-0.515957	-0.031890
C35	C	0.000247	-0.588399	-0.032956
C36	C	0.066206	-0.372364	-0.035121
C37	C	0.066236	-0.299924	-0.034057
C38	C	0.000375	-0.247820	-0.091372
C39	C	-0.065502	-0.268165	-0.149761
C40	C	-0.065526	-0.340607	-0.150827
C41	C	0.000332	-0.392705	-0.093498
C42	C	0.000417	-0.124574	-0.152988
C43	C	0.000422	-0.052126	-0.151924
C44	C	0.000402	-0.069084	-0.025317
C45	C	0.000385	-0.141528	-0.026384
C46	C	0.000398	-0.169269	-0.090221
C47	C	0.000364	-0.814797	-0.219446
C48	C	0.000382	-0.815928	-0.296547
C49	C	0.000321	-0.887366	0.156362
C50	C	0.000339	-0.886308	0.228811
C51	C	0.000316	-0.822473	0.256556
C52	C	0.000304	-0.759695	0.211848
C53	C	0.000298	-0.760756	0.139402
C54	C	-0.065561	-0.762926	0.355485
C55	C	-0.065562	-0.761866	0.427930
C56	C	0.000340	-0.819196	0.480005
C57	C	0.066228	-0.877597	0.459626
C58	C	0.066222	-0.878658	0.387180
C59	C	0.000323	-0.821314	0.335111
C60	C	0.000378	-0.880824	0.603262
C61	C	0.000403	-0.879764	0.675714
C62	C	0.000357	-0.753147	0.658747
C63	C	0.000344	-0.754211	0.586299
C64	C	0.000349	-0.818050	0.558560
H65	H	-0.373684	-0.909243	-0.003518
C66	C	-0.541057	-1.026503	0.113669
C67	C	-0.464142	-0.995846	0.083031
H68	H	-0.500887	-1.064360	0.151512
H69	H	-0.587189	-1.044839	0.078265
H70	H	-0.587246	-0.991102	0.132018
H71	H	-0.417959	-1.031247	0.064677
H72	H	-0.417991	-0.977512	0.118441
H73	H	0.000330	-0.939350	0.133783
C74	C	0.096964	-0.593046	-0.254066
C75	C	0.000298	-0.601929	-0.229731
H76	H	0.096963	-0.611858	-0.297393
H77	H	0.162506	-0.617749	-0.218920
H78	H	0.096970	-0.543502	-0.262399
H79	H	0.000296	-0.651473	-0.221393
H80	H	-0.065261	-0.577227	-0.264885
H81	H	-0.695723	-0.949438	0.036635
H82	H	0.000343	-0.701172	0.681337
H83	H	-0.803149	-0.753449	-0.159220
H84	H	-0.303549	-0.863023	-0.049704
C85	C	-0.635778	-0.636179	-0.276412
C86	C	-0.712692	-0.666841	-0.245778
H87	H	-0.675950	-0.598316	-0.314249
H88	H	-0.589593	-0.671571	-0.294762
H89	H	-0.589643	-0.617844	-0.241000
H90	H	-0.758822	-0.685180	-0.281189
H91	H	-0.758896	-0.631442	-0.227428
H92	H	0.000290	-0.493363	0.020085
H93	H	0.119872	-0.926209	0.370591
H94	H	-0.518331	-0.660575	-0.252020
C95	C	-0.218674	-0.726357	-0.265472
C96	C	-0.286761	-0.679976	-0.232628
H97	H	-0.178526	-0.699908	-0.291900
H98	H	-0.264817	-0.748626	-0.296938
H99	H	-0.166488	-0.761986	-0.229849
H100	H	-0.338952	-0.644350	-0.268252
H101	H	-0.240614	-0.657696	-0.201160
H102	H	0.000324	-0.462607	-0.209606
C103	C	0.096864	-0.693470	0.053019
C104	C	0.000224	-0.637533	0.036039
H105	H	0.096846	-0.723806	0.095612
H106	H	0.162423	-0.674192	0.060118
H107	H	0.096851	-0.720354	0.014843
H108	H	0.000241	-0.610644	0.074212
H109	H	-0.065353	-0.656811	0.028944
H110	H	-0.119169	-0.357169	-0.198367
H111	H	-0.119134	-0.225742	-0.196432
H112	H	0.000411	-0.147159	-0.204970
C113	C	0.000469	-0.042650	-0.277171
C114	C	0.000456	-0.002997	-0.220919
H115	H	0.000497	-0.012319	-0.319764
H116	H	-0.065101	-0.061918	-0.284271
H117	H	0.066031	-0.080600	-0.265629
H118	H	-0.065111	0.034950	-0.232459
H119	H	0.066032	0.016282	-0.213820
C120	C	-0.216037	-0.721365	0.485646
C121	C	-0.137978	-0.697674	0.450330
H122	H	-0.260745	-0.681732	0.499470
H123	H	-0.176795	-0.755356	0.527020
H124	H	-0.263522	-0.743063	0.454392
H125	H	-0.090487	-0.675980	0.481586
H126	H	-0.177223	-0.663671	0.408950
C127	C	0.000441	0.034430	0.032535
C128	C	0.000413	-0.038594	0.044852
H129	H	0.000454	0.053253	0.075857
H130	H	-0.065114	0.059121	-0.002606
H131	H	0.066017	0.040437	0.016011
H132	H	-0.065168	-0.044601	0.061371
H133	H	0.065975	-0.063292	0.080004
C134	C	0.096944	-0.660359	0.563255
C135	C	0.000308	-0.685207	0.537161
H136	H	0.096918	-0.617754	0.532921
H137	H	0.162506	-0.695864	0.564166
H138	H	0.096934	-0.650596	0.610372
H139	H	0.000322	-0.694975	0.490045
H140	H	-0.065271	-0.649694	0.536242
C141	C	0.000380	-0.151011	0.098866
C142	C	0.000369	-0.190661	0.042611
H143	H	0.000375	-0.181346	0.141463
H144	H	-0.065173	-0.113067	0.087337
H145	H	0.065959	-0.131742	0.105956
H146	H	-0.065214	-0.209926	0.035517
H147	H	0.065929	-0.228619	0.054142
C148	C	0.252574	-0.310109	0.037053
C149	C	0.138648	-0.277568	0.030125
H150	H	0.297275	-0.296312	0.076681
H151	H	0.275747	-0.295379	-0.005428
H152	H	0.261963	-0.360708	0.044618
H153	H	0.129257	-0.226968	0.022554
H154	H	0.115468	-0.292294	0.072616
C155	C	0.216654	-0.477670	0.002943
C156	C	0.138606	-0.429639	0.027882
H157	H	0.261342	-0.513031	0.041836
H158	H	0.264150	-0.452418	-0.017934
H159	H	0.177396	-0.500145	-0.031982
H160	H	0.177864	-0.407161	0.062803
H161	H	0.091104	-0.454894	0.048769
C162	C	-0.195837	-0.648422	0.331430
C163	C	-0.138001	-0.699900	0.298247
H164	H	-0.240557	-0.609515	0.296093
H165	H	-0.142879	-0.631529	0.363988
H166	H	-0.243315	-0.669308	0.356705
H167	H	-0.090517	-0.679015	0.272977
H168	H	-0.190966	-0.716793	0.265677
C169	C	0.000354	-1.011565	0.238309
C170	C	0.000350	-0.955309	0.277955
H171	H	0.000354	-1.054161	0.268647
H172	H	0.065915	-1.018676	0.219009
H173	H	-0.065217	-1.000014	0.200388
H174	H	0.065926	-0.966858	0.315872
H175	H	-0.065217	-0.948198	0.297266
H176	H	0.119892	-0.924281	0.502026
C177	C	0.097085	-1.002809	0.609126
C178	C	0.000409	-0.950995	0.572765
H179	H	0.097107	-1.046127	0.590295
H180	H	0.097086	-1.011161	0.658663
H181	H	0.162627	-0.986280	0.603067
H182	H	-0.065134	-0.967522	0.578828
H183	H	0.000397	-0.942643	0.523216
H184	H	0.000424	-0.930882	0.712109
C185	C	0.096924	-0.665199	0.233420
C186	C	0.000281	-0.689526	0.242343
H187	H	0.096915	-0.621881	0.252251
H188	H	0.096910	-0.656846	0.183881
H189	H	0.162489	-0.700368	0.258088
H190	H	-0.065284	-0.654360	0.217671
H191	H	0.000285	-0.697875	0.291891
H192	H	0.000283	-0.709639	0.103007
