data_functionalizedCrystal
_audit_creation_method	'MofGen! by Chris Wilmer'
_symmetry_space_group_name_H-M	'P1'
_symmetry_Int_Tables_number	1
_symmetry_cell_setting	triclinic
loop_
_symmetry_equiv_pos_as_xyz
  x,y,z
_cell_length_a	19.077105
_cell_length_b	19.121063
_cell_length_c	19.077174
_cell_angle_alpha	94.804191
_cell_angle_beta	85.483752
_cell_angle_gamma	90.263052
loop_
_atom_site_label
_atom_site_type_symbol
_atom_site_fract_x
_atom_site_fract_y
_atom_site_fract_z
Zn1	Zn	1.079661	-0.341255	-0.455843
Zn2	Zn	1.579661	0.158745	0.044157
Zn3	Zn	1.070214	-0.453789	-0.342572
Zn4	Zn	1.570214	0.046211	0.157428
Zn5	Zn	0.957450	-0.331437	-0.332838
Zn6	Zn	1.457450	0.168563	0.167162
Zn7	Zn	0.957110	-0.453743	-0.455688
Zn8	Zn	1.457110	0.046257	0.044312
O9	O	1.016109	-0.395056	-0.396735
O10	O	1.516109	0.104944	0.103265
O11	O	1.176888	-0.360311	-0.444956
O12	O	1.676888	0.139689	0.055044
O13	O	1.051444	-0.433469	-0.242463
O14	O	1.551444	0.066531	0.257537
O15	O	0.977757	-0.234459	-0.345146
O16	O	1.477757	0.265541	0.154854
O17	O	1.169947	-0.442989	-0.361736
O18	O	1.669947	0.057011	0.138264
O19	O	1.067545	-0.241672	-0.435517
O20	O	1.567545	0.258328	0.064483
O21	O	0.968597	-0.343578	-0.235312
O22	O	1.468597	0.156422	0.264688
O23	O	0.858924	-0.343533	-0.344996
O24	O	1.358924	0.156467	0.155004
O25	O	0.977178	-0.442911	-0.554526
O26	O	1.477178	0.057089	-0.054526
O27	O	0.858675	-0.433391	-0.435253
O28	O	1.358675	0.066609	0.064747
O29	O	1.067215	-0.360267	-0.554640
O30	O	1.567215	0.139733	-0.054640
O31	O	1.051115	-0.552064	-0.361586
O32	O	1.551115	-0.052064	0.138414
O33	O	0.968018	-0.552030	-0.444692
O34	O	1.468018	-0.052030	0.055308
C35	C	0.833265	-0.387392	-0.389052
C36	C	1.333265	0.112608	0.110948
C37	C	0.755043	-0.384131	-0.385782
C38	C	1.255043	0.115869	0.114218
C39	C	1.008524	-0.577531	-0.404195
C40	C	1.508524	-0.077531	0.095805
C41	C	1.005344	-0.655599	-0.407412
C42	C	1.505344	-0.155599	0.092588
C43	C	0.718177	-0.429448	-0.431170
C44	C	1.218177	0.070552	0.068830
C45	C	0.644681	-0.426375	-0.428101
C46	C	1.144681	0.073625	0.071899
C47	C	0.608051	-0.377988	-0.379640
C48	C	1.108051	0.122012	0.120360
C49	C	0.644922	-0.332666	-0.334250
C50	C	1.144922	0.167334	0.165750
C51	C	0.718417	-0.335737	-0.337323
C52	C	1.218417	0.164263	0.162677
C53	C	0.388255	-0.363778	-0.365420
C54	C	0.888255	0.136222	0.134580
C55	C	0.314753	-0.360713	-0.362349
C56	C	0.814753	0.139287	0.137651
C57	C	0.314518	-0.454421	-0.456201
C58	C	0.814518	0.045579	0.043799
C59	C	0.388015	-0.457489	-0.459267
C60	C	0.888015	0.042511	0.040733
C61	C	0.424879	-0.412166	-0.413880
C62	C	0.924879	0.087834	0.086120
N63	N	0.532925	-0.374847	-0.376500
N64	N	1.032925	0.125153	0.123500
N65	N	0.500004	-0.415304	-0.417024
N66	N	1.000004	0.084696	0.082976
C67	C	1.047151	-0.692272	-0.365694
C68	C	1.547151	-0.192272	0.134306
C69	C	1.044165	-0.765625	-0.368724
C70	C	1.544165	-0.265625	0.131276
C71	C	0.999368	-0.802303	-0.413469
C72	C	1.499368	-0.302303	0.086531
C73	C	0.957560	-0.765624	-0.455192
C74	C	1.457560	-0.265624	0.044808
C75	C	0.960550	-0.692273	-0.452165
C76	C	1.460550	-0.192273	0.047835
C77	C	0.988177	-1.023777	-0.424775
C78	C	1.488177	-0.523777	0.075225
C79	C	0.985189	-1.097133	-0.427797
C80	C	1.485189	-0.597133	0.072203
C81	C	1.071796	-1.097129	-0.341330
C82	C	1.571796	-0.597129	0.158670
C83	C	1.074779	-1.023776	-0.338303
C84	C	1.574779	-0.523776	0.161697
C85	C	1.032973	-0.987104	-0.380029
C86	C	1.532973	-0.487104	0.119971
C87	C	0.996314	-0.877281	-0.416566
C88	C	1.496314	-0.377281	0.083434
C89	C	1.036032	-0.912127	-0.376936
C90	C	1.536032	-0.412127	0.123064
C91	C	1.199666	-0.402750	-0.404449
C92	C	1.699666	0.097250	0.095551
C93	C	1.277888	-0.406029	-0.407737
C94	C	1.777888	0.093971	0.092263
C95	C	1.023212	-0.402679	-0.580922
C96	C	1.523212	0.097321	-0.080922
C97	C	1.026239	-0.405927	-0.659411
C98	C	1.526239	0.094073	-0.159411
C99	C	1.023743	-0.211870	-0.389263
C100	C	1.523743	0.288130	0.110737
C101	C	1.026996	-0.133807	-0.386079
C102	C	1.526996	0.366193	0.113921
C103	C	0.984529	-0.360653	-0.692562
C104	C	1.484529	0.139347	-0.192562
C105	C	0.987371	-0.363710	-0.766311
C106	C	1.487371	0.136290	-0.266311
C107	C	1.031926	-0.412040	-0.806908
C108	C	1.531926	0.087960	-0.306908
C109	C	1.073638	-0.457319	-0.773753
C110	C	1.573638	0.042681	-0.273753
C111	C	1.070792	-0.454264	-0.700005
C112	C	1.570792	0.045736	-0.200005
C113	C	1.045059	-0.426198	-1.027870
C114	C	1.545059	0.073802	-0.527870
C115	C	1.047903	-0.429248	-1.101623
C116	C	1.547903	0.070752	-0.601623
C117	C	0.961634	-0.335640	-1.094176
C118	C	1.461634	0.164360	-0.594176
C119	C	0.958795	-0.332587	-1.020427
C120	C	1.458795	0.167413	-0.520427
C121	C	1.000504	-0.377868	-0.987278
C122	C	1.500504	0.122132	-0.487278
N123	N	1.034833	-0.415165	-0.882292
N124	N	1.534833	0.084835	-0.382292
N125	N	0.997593	-0.374746	-0.911896
N126	N	1.497593	0.125254	-0.411896
C127	C	1.009075	-0.387414	-0.213265
C128	C	1.509075	0.112586	0.286735
C129	C	1.006192	-0.383974	-0.134774
C130	C	1.506192	0.116026	0.365226
H131	H	0.747996	-0.468852	-0.470630
H132	H	1.247996	0.031148	0.029370
C133	C	0.909786	-0.279420	-0.975772
C134	C	1.409786	0.220580	-0.475772
C135	C	0.906661	-0.276054	-0.894652
C136	C	1.406661	0.223946	-0.394652
C137	C	0.857656	-0.222883	-0.849997
C138	C	1.357656	0.277117	-0.349997
C139	C	0.811776	-0.173078	-0.886461
C140	C	1.311776	0.326922	-0.386461
C141	C	0.814900	-0.176443	-0.967586
C142	C	1.314900	0.323557	-0.467586
C143	C	0.863905	-0.229614	-1.012241
C144	C	1.363905	0.270386	-0.512241
H145	H	0.940625	-0.312924	-0.867655
H146	H	1.440625	0.187076	-0.367655
H147	H	0.855344	-0.220392	-0.789943
H148	H	1.355344	0.279608	-0.289943
H149	H	0.775500	-0.133718	-0.853405
H150	H	1.275500	0.366282	-0.353405
H151	H	0.780936	-0.139573	-0.994583
H152	H	1.280936	0.360427	-0.494583
H153	H	0.866217	-0.232105	-1.072295
H154	H	1.366217	0.267895	-0.572295
H155	H	0.953403	-0.326846	-0.793298
H156	H	1.453403	0.173154	-0.293298
H157	H	0.284494	-0.491320	-0.493154
H158	H	0.784494	0.008680	0.006846
H159	H	0.417834	-0.496893	-0.498728
H160	H	0.917834	0.003107	0.001272
C161	C	1.096431	-0.651931	-0.316473
C162	C	1.596431	-0.151931	0.183527
C163	C	1.154896	-0.605024	-0.347355
C164	C	1.654896	-0.105024	0.152645
C165	C	1.204179	-0.564685	-0.298135
C166	C	1.704179	-0.064685	0.201865
C167	C	1.194996	-0.571253	-0.218033
C168	C	1.694996	-0.071253	0.281967
C169	C	1.136528	-0.618162	-0.187147
C170	C	1.636528	-0.118162	0.312853
C171	C	1.087245	-0.658501	-0.236367
C172	C	1.587245	-0.158501	0.263633
H173	H	1.161696	-0.600160	-0.406655
H174	H	1.661696	-0.100160	0.093345
H175	H	1.247461	-0.529960	-0.320999
H176	H	1.747461	-0.029960	0.179001
H177	H	1.231478	-0.541392	-0.181597
H178	H	1.731478	-0.041392	0.318403
H179	H	1.129728	-0.623026	-0.127847
H180	H	1.629728	-0.123026	0.372153
H181	H	1.043963	-0.693226	-0.213502
H182	H	1.543963	-0.193226	0.286498
C183	C	1.117786	-1.137469	-0.295440
C184	C	1.617786	-0.637469	0.204560
C185	C	1.114504	-1.218153	-0.298767
C186	C	1.614504	-0.718153	0.201233
C187	C	1.160499	-1.258493	-0.252877
C188	C	1.660499	-0.758493	0.247123
C189	C	1.209776	-1.218149	-0.203660
C190	C	1.709776	-0.718149	0.296340
C191	C	1.213060	-1.137461	-0.200331
C192	C	1.713060	-0.637461	0.299669
C193	C	1.167065	-1.097121	-0.246221
C194	C	1.667065	-0.597121	0.253779
H195	H	1.078024	-1.248022	-0.335202
H196	H	1.578024	-0.748022	0.164798
H197	H	1.158067	-1.318224	-0.255341
H198	H	1.658067	-0.818224	0.244659
H199	H	1.243824	-1.248012	-0.169690
H200	H	1.743824	-0.748012	0.330310
H201	H	1.249539	-1.107592	-0.163896
H202	H	1.749539	-0.607592	0.336104
H203	H	1.169496	-1.037390	-0.243756
H204	H	1.669496	-0.537390	0.256244
C205	C	0.942189	-0.983449	-0.470674
C206	C	1.442189	-0.483449	0.029326
C207	C	0.861553	-0.990016	-0.461907
C208	C	1.361553	-0.490016	0.038093
C209	C	0.815563	-0.949686	-0.507811
C210	C	1.315563	-0.449686	-0.007811
C211	C	0.850210	-0.902790	-0.562482
C212	C	1.350210	-0.402790	-0.062482
C213	C	0.930851	-0.896220	-0.571251
C214	C	1.430851	-0.396220	-0.071251
C215	C	0.976841	-0.936550	-0.525347
C216	C	1.476841	-0.436550	-0.025347
H217	H	0.835901	-1.024733	-0.421435
H218	H	1.335901	-0.524733	0.078565
H219	H	0.755867	-0.954550	-0.501319
H220	H	1.255867	-0.454550	-0.001319
H221	H	0.816166	-0.872935	-0.596462
H222	H	1.316166	-0.372935	-0.096462
H223	H	0.956503	-0.861503	-0.611723
H224	H	1.456503	-0.361503	-0.111723
H225	H	1.036537	-0.931687	-0.531839
H226	H	1.536537	-0.431687	-0.031839
H227	H	1.079013	-0.463077	-1.000889
H228	H	1.579013	0.036923	-0.500889
C229	C	1.124055	-0.983438	-0.289077
C230	C	1.624055	-0.483438	0.210923
C231	C	1.093512	-0.929497	-0.230250
C232	C	1.593512	-0.429497	0.269750
C233	C	1.142784	-0.889161	-0.181017
C234	C	1.642784	-0.389161	0.318983
C235	C	1.222599	-0.902765	-0.190611
C236	C	1.722599	-0.402765	0.309389
C237	C	1.253147	-0.956708	-0.249440
C238	C	1.753147	-0.456708	0.250560
C239	C	1.203874	-0.997044	-0.298673
C240	C	1.703874	-0.497044	0.201327
H241	H	1.034424	-0.919425	-0.223146
H242	H	1.534424	-0.419425	0.276854
H243	H	1.120171	-0.849229	-0.137468
H244	H	1.620171	-0.349229	0.362532
H245	H	1.259074	-0.872906	-0.154165
H246	H	1.759074	-0.372906	0.345835
H247	H	1.312235	-0.966781	-0.256544
H248	H	1.812235	-0.466781	0.243456
H249	H	1.226488	-1.036976	-0.342223
H250	H	1.726488	-0.536976	0.157777
C251	C	0.914559	-0.651928	-0.498053
C252	C	1.414559	-0.151928	0.001947
C253	C	0.833922	-0.658489	-0.489282
C254	C	1.333922	-0.158489	0.010718
C255	C	0.787933	-0.618145	-0.535174
C256	C	1.287933	-0.118145	-0.035174
C257	C	0.822581	-0.571240	-0.589836
C258	C	1.322581	-0.071240	-0.089836
C259	C	0.903222	-0.564677	-0.598610
C260	C	1.403222	-0.064677	-0.098610
C261	C	0.949212	-0.605021	-0.552718
C262	C	1.449212	-0.105021	-0.052718
H263	H	0.808270	-0.693213	-0.448816
H264	H	1.308270	-0.193213	0.051184
H265	H	0.728236	-0.623003	-0.528679
H266	H	1.228236	-0.123003	-0.028679
H267	H	0.788537	-0.541375	-0.623808
H268	H	1.288537	-0.041375	-0.123808
H269	H	0.928875	-0.529953	-0.639076
H270	H	1.428875	-0.029953	-0.139076
H271	H	1.008908	-0.600163	-0.559213
H272	H	1.508908	-0.100163	-0.059213
H273	H	1.109912	-0.496673	-0.806813
H274	H	1.609912	0.003327	-0.306813
C275	C	0.758974	-0.285889	-0.287395
C276	C	1.258974	0.214111	0.212605
C277	C	0.812977	-0.234178	-0.317950
C278	C	1.312977	0.265822	0.182050
C279	C	0.853533	-0.184326	-0.268025
C280	C	1.353533	0.315674	0.231975
C281	C	0.840088	-0.186186	-0.187544
C282	C	1.340088	0.313814	0.312456
C283	C	0.786083	-0.237899	-0.156985
C284	C	1.286083	0.262101	0.343015
C285	C	0.745526	-0.287751	-0.206910
C286	C	1.245526	0.212249	0.293090
H287	H	0.822932	-0.232800	-0.377531
H288	H	1.322932	0.267200	0.122469
H289	H	0.893511	-0.146045	-0.290647
H290	H	1.393511	0.353955	0.209353
H291	H	0.870110	-0.149283	-0.150586
H292	H	1.370110	0.350717	0.349414
H293	H	0.776128	-0.239277	-0.097404
H294	H	1.276128	0.260723	0.402596
H295	H	0.705548	-0.326032	-0.184288
H296	H	1.205548	0.173968	0.315712
C297	C	1.085307	-0.871784	-0.327717
C298	C	1.585307	-0.371784	0.172283
C299	C	1.054764	-0.817834	-0.268899
C300	C	1.554764	-0.317834	0.231101
C301	C	1.104038	-0.777482	-0.219678
C302	C	1.604038	-0.277482	0.280322
C303	C	1.183854	-0.791081	-0.229274
C304	C	1.683854	-0.291081	0.270726
C305	C	1.214401	-0.845034	-0.288094
C306	C	1.714401	-0.345034	0.211906
C307	C	1.165128	-0.885385	-0.337315
C308	C	1.665128	-0.385385	0.162685
H309	H	0.995676	-0.807765	-0.261793
H310	H	1.495676	-0.307765	0.238207
H311	H	1.081424	-0.737543	-0.176135
H312	H	1.581424	-0.237543	0.323865
H313	H	1.220329	-0.761211	-0.192838
H314	H	1.720329	-0.261211	0.307162
H315	H	1.273489	-0.855103	-0.295200
H316	H	1.773489	-0.355103	0.204800
H317	H	1.187741	-0.925325	-0.380858
H318	H	1.687741	-0.425325	0.119142
C319	C	0.604628	-0.279437	-0.280946
C320	C	1.104628	0.220563	0.219054
C321	C	0.618275	-0.200271	-0.284007
C322	C	1.118275	0.299729	0.215993
C323	C	0.577981	-0.147040	-0.230703
C324	C	1.077981	0.352960	0.269297
C325	C	0.524042	-0.172976	-0.174339
C326	C	1.024042	0.327024	0.325661
C327	C	0.510393	-0.252146	-0.171276
C328	C	1.010393	0.247854	0.328724
C329	C	0.550686	-0.305377	-0.224580
C330	C	1.050686	0.194623	0.275420
H331	H	0.658206	-0.181068	-0.325733
H332	H	1.158206	0.318932	0.174267
H333	H	0.588086	-0.088433	-0.232971
H334	H	1.088086	0.411567	0.267029
H335	H	0.494215	-0.133572	-0.134880
H336	H	0.994215	0.366428	0.365120
H337	H	0.470462	-0.271349	-0.129550
H338	H	0.970462	0.228651	0.370450
H339	H	0.540582	-0.363984	-0.222313
H340	H	1.040582	0.136016	0.277687
H341	H	0.959838	-0.907152	-0.452996
H342	H	1.459838	-0.407152	0.047004
H343	H	0.927676	-0.298775	-1.121174
H344	H	1.427676	0.201225	-0.621174
C345	C	0.935910	-1.137481	-0.477022
C346	C	1.435910	-0.637481	0.022978
C347	C	0.889925	-1.097145	-0.522919
C348	C	1.389925	-0.597145	-0.022919
C349	C	0.840648	-1.137493	-0.572139
C350	C	1.340648	-0.637493	-0.072139
C351	C	0.837356	-1.218176	-0.575461
C352	C	1.337356	-0.718176	-0.075461
C353	C	0.883342	-1.258516	-0.529561
C354	C	1.383342	-0.758516	-0.029561
C355	C	0.932620	-1.218168	-0.480342
C356	C	1.432620	-0.718168	0.019658
H357	H	0.892361	-1.037415	-0.520462
H358	H	1.392361	-0.537415	-0.020462
H359	H	0.806605	-1.107630	-0.606116
H360	H	1.306605	-0.607630	-0.106116
H361	H	0.800877	-1.248044	-0.611896
H362	H	1.300877	-0.748044	-0.111896
H363	H	0.880907	-1.318247	-0.532019
H364	H	1.380907	-0.818247	-0.032019
H365	H	0.966662	-1.248031	-0.446365
H366	H	1.466662	-0.748031	0.053635
H367	H	0.284932	-0.321302	-0.322890
H368	H	0.784932	0.178698	0.177110
C369	C	1.116676	-0.504065	-0.663536
C370	C	1.616676	-0.004065	-0.163536
C371	C	1.165688	-0.557226	-0.708188
C372	C	1.665688	-0.057226	-0.208188
C373	C	1.211570	-0.607031	-0.671721
C374	C	1.711570	-0.107031	-0.171721
C375	C	1.208440	-0.603676	-0.590601
C376	C	1.708440	-0.103676	-0.090601
C377	C	1.159425	-0.550513	-0.545944
C378	C	1.659425	-0.050513	-0.045944
C379	C	1.113543	-0.500708	-0.582412
C380	C	1.613543	-0.000708	-0.082412
H381	H	1.168007	-0.559712	-0.768242
H382	H	1.668007	-0.059712	-0.268242
H383	H	1.247854	-0.646386	-0.704779
H384	H	1.747854	-0.146386	-0.204779
H385	H	1.242404	-0.640545	-0.563606
H386	H	1.742404	-0.140545	-0.063606
H387	H	1.157106	-0.548028	-0.485891
H388	H	1.657106	-0.048028	0.014109
H389	H	1.077259	-0.461353	-0.549354
H390	H	1.577259	0.038647	-0.049354
H391	H	0.614668	-0.463277	-0.465060
H392	H	1.114668	0.036723	0.034940
H393	H	0.418261	-0.326877	-0.328457
H394	H	0.918261	0.173123	0.171543
H395	H	1.078209	-0.795481	-0.334752
H396	H	1.578209	-0.295481	0.165248
H397	H	0.921088	-0.795494	-0.491628
H398	H	1.421088	-0.295494	0.008372
H399	H	0.948251	-0.321294	-0.659512
H400	H	1.448251	0.178706	-0.159512
H401	H	1.084188	-0.468605	-1.134676
H402	H	1.584188	0.031395	-0.634676
