data_functionalizedCrystal
_audit_creation_method	'MofGen! by Chris Wilmer'
_symmetry_space_group_name_H-M	'P1'
_symmetry_Int_Tables_number	1
_symmetry_cell_setting	triclinic
loop_
_symmetry_equiv_pos_as_xyz
  x,y,z
_cell_length_a	13.032721
_cell_length_b	13.897449
_cell_length_c	13.033429
_cell_angle_alpha	97.161691
_cell_angle_beta	89.068252
_cell_angle_gamma	97.205670
loop_
_atom_site_label
_atom_site_type_symbol
_atom_site_fract_x
_atom_site_fract_y
_atom_site_fract_z
Zn1	Zn	-0.335473	1.361109	-0.633452
Zn2	Zn	-0.529327	1.355866	-0.483314
Zn3	Zn	-0.357374	1.217385	-0.461502
Zn4	Zn	-0.507412	1.177062	-0.655231
O5	O	-0.432397	1.277856	-0.558375
O6	O	-0.361195	1.495393	-0.613550
O7	O	-0.524855	1.352178	-0.336511
O8	O	-0.210549	1.255519	-0.466068
O9	O	-0.503618	1.491541	-0.503244
O10	O	-0.194458	1.361113	-0.592399
O11	O	-0.398521	1.250436	-0.320485
O12	O	-0.377271	1.077057	-0.487186
O13	O	-0.466267	1.186796	-0.796252
O14	O	-0.487503	1.047432	-0.629519
O15	O	-0.339944	1.322014	-0.780251
O16	O	-0.670340	1.313079	-0.524363
O17	O	-0.654239	1.181712	-0.650670
C18	C	-0.699604	1.242475	-0.592269
C19	C	-0.813912	1.227423	-0.606803
C20	C	-0.432386	1.027246	-0.558350
C21	C	-0.432403	0.920028	-0.558366
C22	C	-0.872800	1.285758	-0.550836
C23	C	-0.990943	1.270203	-0.565856
C24	C	-0.432403	0.723729	-0.558394
C25	C	-0.432400	0.832964	-0.558375
C26	C	-0.164143	1.313399	-0.524371
C27	C	-0.049830	1.328545	-0.509881
C28	C	-0.432408	1.529444	-0.558401
C29	C	-0.432413	1.636656	-0.558412
C30	C	-0.398218	1.250492	-0.826609
C31	C	-0.383653	1.238831	-0.940915
C32	C	-0.424628	1.271924	-1.117944
C33	C	-0.439676	1.283977	-0.999802
C34	C	-0.466368	1.305179	-0.291175
C35	C	-0.480644	1.317065	-0.176833
H36	H	-0.835753	1.347219	-0.491803
F37	F	-0.557885	1.379249	-1.128416
F38	F	-1.039358	1.189871	-0.643032
F39	F	-1.001416	1.408886	-0.432714
F40	F	-0.306396	1.176654	-0.989324
H41	H	-0.850960	1.165969	-0.665843
F42	F	-0.347376	1.209751	-1.166360
F43	F	-0.516922	1.346165	-0.951390
