data_functionalizedCrystal
_audit_creation_method	'MofGen! by Chris Wilmer'
_symmetry_space_group_name_H-M	'P1'
_symmetry_Int_Tables_number	1
_symmetry_cell_setting	triclinic
loop_
_symmetry_equiv_pos_as_xyz
  x,y,z
_cell_length_a	30.700619
_cell_length_b	30.706268
_cell_length_c	30.700862
_cell_angle_alpha	89.994839
_cell_angle_beta	120.003783
_cell_angle_gamma	60.017066
loop_
_atom_site_label
_atom_site_type_symbol
_atom_site_fract_x
_atom_site_fract_y
_atom_site_fract_z
O1	O	-0.384274	-0.298746	-0.012961
O2	O	-0.295066	-0.235417	0.012894
O3	O	-0.384255	-0.235425	-0.076300
O4	O	-0.295085	-0.298739	0.076234
O5	O	-0.311830	-0.307842	-0.076300
O6	O	-0.222641	-0.307835	0.012895
O7	O	-0.311849	-0.371164	-0.012960
Zn8	Zn	-0.255746	-0.350997	-0.000033
Zn9	Zn	-0.351169	-0.255584	-0.000033
O10	O	-0.222660	-0.371157	0.076234
C11	C	-0.071428	-0.110289	0.039193
C12	C	-0.097375	-0.057886	0.039561
C13	C	0.007449	-0.110291	0.039190
C14	C	-0.018619	-0.057888	0.039558
C15	C	-0.071399	-0.031441	0.039191
C16	C	-0.018647	-0.136616	0.039560
C17	C	-0.133920	-0.238007	0.024918
C18	C	-0.162794	-0.262999	0.020882
C19	C	-0.216758	-0.236055	0.018855
C20	C	-0.248073	-0.263147	0.014469
C21	C	-0.241844	-0.184119	0.020870
C22	C	-0.212966	-0.159134	0.024913
C23	C	-0.159002	-0.186080	0.026937
C24	C	-0.213376	0.158702	0.024909
C25	C	-0.242396	0.212549	0.020871
C26	C	-0.217465	0.239562	0.018841
C27	C	-0.248929	0.297946	0.014454
C28	C	-0.163505	0.212721	0.020855
C29	C	-0.134481	0.158875	0.024902
C30	C	-0.159425	0.131869	0.026926
C31	C	0.183331	-0.238015	0.024908
C32	C	0.233146	-0.263007	0.020863
C33	C	0.258150	-0.236065	0.018835
C34	C	0.312160	-0.263160	0.014446
C35	C	0.233335	-0.184132	0.020847
C36	C	0.183521	-0.159142	0.024890
C37	C	0.158526	-0.186091	0.026925
C38	C	-0.127695	-0.158981	0.031316
C39	C	-0.102739	-0.137383	0.034809
C40	C	0.061458	-0.137387	0.034804
C41	C	0.104512	-0.158988	0.031309
C42	C	-0.102868	0.026943	0.034805
C43	C	-0.127952	0.073482	0.031310
C44	C	-0.390868	-0.450688	-0.018851
C45	C	-0.360306	-0.508123	-0.015153
C46	C	-0.364894	-0.424240	-0.019217
C47	C	-0.469721	-0.371843	-0.018852
C48	C	-0.523471	-0.344976	-0.015155
C49	C	-0.443627	-0.345514	-0.019218
C50	C	-0.390845	-0.371837	-0.018847
C51	C	-0.360260	-0.344965	-0.015145
C52	C	-0.443650	-0.424245	-0.019221
C53	C	-0.535701	-0.110300	-0.503939
C54	C	-0.588475	-0.057899	-0.530273
C55	C	-0.535701	-0.110300	-0.425063
C56	C	-0.588475	-0.057900	-0.451517
C57	C	-0.614553	-0.031455	-0.503938
C58	C	-0.509742	-0.136625	-0.451518
C59	C	-0.393695	-0.238012	-0.552104
C60	C	-0.364663	-0.263003	-0.576930
C61	C	-0.389581	-0.236062	-0.628876
C62	C	-0.358099	-0.263152	-0.655794
C63	C	-0.443534	-0.184129	-0.655997
C64	C	-0.472566	-0.159144	-0.631173
C65	C	-0.447644	-0.186088	-0.579224
C66	C	-0.790426	0.158680	-0.631700
C67	C	-0.840238	0.212524	-0.656701
C68	C	-0.865225	0.239537	-0.629751
C69	C	-0.919227	0.297919	-0.656850
C70	C	-0.840399	0.212699	-0.577798
C71	C	-0.790596	0.158855	-0.552801
C72	C	-0.765610	0.131848	-0.579758
C73	C	-0.393694	-0.238013	-0.234854
C74	C	-0.364658	-0.263002	-0.180986
C75	C	-0.389575	-0.236060	-0.153964
C76	C	-0.358093	-0.263152	-0.095557
C77	C	-0.443524	-0.184130	-0.180811
C78	C	-0.472556	-0.159143	-0.234676
C79	C	-0.447638	-0.186092	-0.261695
C80	C	-0.479125	-0.158991	-0.552308
C81	C	-0.504219	-0.137393	-0.530854
C82	C	-0.504219	-0.137393	-0.366658
C83	C	-0.479125	-0.158991	-0.320103
C84	C	-0.668556	0.026927	-0.531042
C85	C	-0.711603	0.073464	-0.552648
O86	O	0.456495	-0.371179	-0.012971
O87	O	0.329832	-0.307852	0.012878
O88	O	0.329827	-0.307860	-0.076314
O89	O	0.456499	-0.371170	0.076221
O90	O	0.329854	-0.235441	-0.076316
O91	O	0.329859	-0.235433	0.012876
O92	O	0.456521	-0.298759	-0.012973
Zn93	Zn	0.393194	-0.255598	-0.000049
Zn94	Zn	0.393159	-0.351013	-0.000046
O95	O	0.456526	-0.298751	0.076219
O96	O	-0.311894	0.469676	-0.012971
O97	O	-0.222758	0.317198	0.012878
O98	O	-0.311921	0.406350	-0.076314
O99	O	-0.222731	0.380524	0.076221
O100	O	-0.384366	0.406352	-0.076312
O101	O	-0.295203	0.317200	0.012880
O102	O	-0.384340	0.469678	-0.012969
Zn103	Zn	-0.351274	0.393439	-0.000044
Zn104	Zn	-0.255824	0.393437	-0.000047
O105	O	-0.295177	0.380526	0.076223
O106	O	-1.063546	0.469645	-0.692447
O107	O	-0.936905	0.317170	-0.629109
O108	O	-0.936878	0.406331	-0.629103
O109	O	-1.063572	0.380484	-0.692454
O110	O	-0.936880	0.406333	-0.701549
O111	O	-0.936906	0.317172	-0.701556
O112	O	-1.063548	0.469647	-0.764894
Zn113	Zn	-1.000227	0.393410	-0.744727
Zn114	Zn	-1.000225	0.393407	-0.649276
O115	O	-1.063574	0.380486	-0.764900
O116	O	-0.295082	-0.298742	-0.764558
O117	O	-0.384255	-0.235424	-0.701218
O118	O	-0.295065	-0.235418	-0.701212
O119	O	-0.384272	-0.298748	-0.764564
O120	O	-0.222641	-0.307834	-0.628767
O121	O	-0.311832	-0.307840	-0.628772
O122	O	-0.222659	-0.371158	-0.692112
Zn123	Zn	-0.255747	-0.350997	-0.648940
Zn124	Zn	-0.351167	-0.255585	-0.744390
O125	O	-0.311849	-0.371164	-0.692118
C126	C	-0.137257	-0.450670	0.234773
C127	C	-0.083517	-0.508103	0.261650
C128	C	-0.163335	-0.424226	0.261108
C129	C	-0.216110	-0.371824	0.155898
C130	C	-0.246680	-0.344956	0.098442
C131	C	-0.242068	-0.345500	0.182353
C132	C	-0.216109	-0.371825	0.234774
C133	C	-0.246678	-0.344958	0.261653
C134	C	-0.163336	-0.424225	0.182352
C135	C	0.609167	-0.371831	0.234761
C136	C	0.639757	-0.344962	0.261640
C137	C	0.635115	-0.424232	0.261097
C138	C	0.530285	-0.371834	0.155885
C139	C	0.476535	-0.344968	0.098428
C140	C	0.556353	-0.424235	0.182340
C141	C	0.609136	-0.450678	0.234761
C142	C	0.639693	-0.508112	0.261640
C143	C	0.556384	-0.345508	0.182340
C144	C	-0.216186	0.374674	0.234759
C145	C	-0.246762	0.378377	0.261638
C146	C	-0.163397	0.374311	0.261092
C147	C	-0.216185	0.374660	0.155884
C148	C	-0.246760	0.378347	0.098429
C149	C	-0.163396	0.374297	0.182337
C150	C	-0.137311	0.374675	0.234756
C151	C	-0.083554	0.378379	0.261632
C152	C	-0.242151	0.374296	0.182340
C153	C	-0.071428	-0.031827	-0.503958
C154	C	-0.097406	-0.058273	-0.530293
C155	C	0.007424	-0.110670	-0.425081
C156	C	-0.018675	-0.136997	-0.451536
C157	C	-0.071458	-0.110674	-0.503957
C158	C	-0.018644	-0.058269	-0.451536
C159	C	-0.133803	0.158310	-0.552125
C160	C	-0.162648	0.212155	-0.576952
C161	C	-0.216615	0.239164	-0.628899
C162	C	-0.247900	0.297549	-0.655818
C163	C	-0.241732	0.212324	-0.656020
C164	C	-0.212883	0.158482	-0.631195
C165	C	-0.158916	0.131475	-0.579245
C166	C	-0.213529	-0.158826	-0.631721
C167	C	-0.242580	-0.183644	-0.656722
C168	C	-0.217677	-0.235568	-0.629772
C169	C	-0.249174	-0.262480	-0.656871
C170	C	-0.163715	-0.262676	-0.577817
C171	C	-0.134660	-0.237863	-0.552821
C172	C	-0.159576	-0.185932	-0.579778
C173	C	0.183347	-0.158808	-0.234870
C174	C	0.233164	-0.183620	-0.181002
C175	C	0.258141	-0.235546	-0.153980
C176	C	0.312154	-0.262451	-0.095572
C177	C	0.233295	-0.262656	-0.180826
C178	C	0.183478	-0.237841	-0.234692
C179	C	0.158511	-0.185917	-0.261712
C180	C	-0.127640	0.073092	-0.552329
C181	C	-0.102708	0.026556	-0.530874
C182	C	0.061437	-0.137573	-0.366675
C183	C	0.104493	-0.159017	-0.320120
C184	C	-0.102960	-0.137580	-0.531061
C185	C	-0.128070	-0.159028	-0.552668
O186	O	0.704794	-0.682788	0.298776
O187	O	0.615656	-0.530313	0.235430
O188	O	0.704814	-0.619473	0.235430
O189	O	0.615636	-0.593627	0.298776
O190	O	0.777264	-0.619469	0.307875
O191	O	0.688106	-0.530309	0.307875
O192	O	0.777244	-0.682783	0.371221
Zn193	Zn	0.744178	-0.606545	0.351050
Zn194	Zn	0.648722	-0.606551	0.255601
O195	O	0.688086	-0.593623	0.371221
C196	C	-0.614368	0.432569	-0.503942
C197	C	-0.588281	0.432932	-0.530278
C198	C	-0.535493	0.432584	-0.425069
C199	C	-0.509526	0.432946	-0.451525
C200	C	-0.535492	0.432568	-0.503944
C201	C	-0.588283	0.432948	-0.451522
C202	C	-0.790301	0.418289	-0.552099
C203	C	-0.840129	0.414248	-0.576923
C204	C	-0.865123	0.412212	-0.628868
C205	C	-0.919144	0.407822	-0.655784
C206	C	-0.840289	0.414221	-0.655990
C207	C	-0.790469	0.418268	-0.631168
C208	C	-0.765475	0.420302	-0.579220
C209	C	-0.473048	0.418265	-0.631707
C210	C	-0.444184	0.414223	-0.656708
C211	C	-0.390212	0.412198	-0.629760
C212	C	-0.358907	0.407808	-0.656859
C213	C	-0.365107	0.414223	-0.577808
C214	C	-0.393975	0.418274	-0.552811
C215	C	-0.447948	0.420292	-0.579766
C216	C	-0.473057	0.418345	-0.234863
C217	C	-0.444190	0.414312	-0.180996
C218	C	-0.390218	0.412290	-0.153976
C219	C	-0.358915	0.407915	-0.095570
C220	C	-0.365111	0.414297	-0.180823
C221	C	-0.393978	0.418327	-0.234688
C222	C	-0.447955	0.420356	-0.261705
C223	C	-0.711450	0.424685	-0.552307
C224	C	-0.668388	0.428181	-0.530855
C225	C	-0.504195	0.428211	-0.366665
C226	C	-0.479249	0.424727	-0.320111
C227	C	-0.504191	0.428177	-0.531049
C228	C	-0.479243	0.424679	-0.552655
H229	H	-0.139843	-0.036656	0.040159
H230	H	-0.860749	0.234692	-0.555856
O231	O	-0.294194	0.238521	-0.706453
C232	C	-0.340186	0.237566	-0.707587
H233	H	-0.317658	0.202494	-0.672705
H234	H	-0.371235	0.276358	-0.704283
C235	C	-0.406581	0.274572	-0.803253
C236	C	-0.378912	0.231494	-0.760412
H237	H	-0.430471	0.270829	-0.835838
H238	H	-0.375597	0.275218	-0.802489
H239	H	-0.432451	0.306895	-0.800492
H240	H	-0.353036	0.199173	-0.763170
H241	H	-0.409892	0.230843	-0.761178
O242	O	-0.137338	0.373690	0.312450
C243	C	-0.137070	0.419389	0.315346
H244	H	-0.139584	0.435109	0.279935
H245	H	-0.178514	0.451429	0.314403
C246	C	-0.074306	0.385485	0.411109
C247	C	-0.077389	0.404790	0.367619
H248	H	-0.037494	0.376481	0.443355
H249	H	-0.074488	0.354697	0.409159
H250	H	-0.108846	0.412188	0.410316
H251	H	-0.042853	0.378085	0.368409
H252	H	-0.077200	0.435573	0.369571
H253	H	-0.141507	-0.445457	0.161115
H254	H	-0.465483	-0.445483	-0.019812
O255	O	0.530396	-0.294175	0.156947
C256	C	0.530103	-0.291255	0.110959
H257	H	0.567444	-0.332032	0.115780
H258	H	0.483248	-0.278539	0.074626
C259	C	0.496769	-0.200076	0.097374
C260	C	0.542637	-0.250158	0.103296
H261	H	0.504498	-0.174724	0.092645
H262	H	0.496964	-0.202042	0.128356
H263	H	0.457728	-0.189486	0.067097
H264	H	0.581676	-0.260750	0.133576
H265	H	0.542448	-0.248193	0.072319
O266	O	0.685867	-0.449592	0.312441
C267	C	0.734479	-0.452240	0.315337
H268	H	0.726181	-0.448780	0.274529
H269	H	0.736733	-0.418140	0.328084
C270	C	0.805939	-0.510118	0.406531
C271	C	0.795749	-0.505873	0.356409
H272	H	0.843733	-0.543200	0.431867
H273	H	0.773187	-0.508333	0.404581
H274	H	0.807813	-0.481698	0.417145
H275	H	0.793867	-0.534288	0.345793
H276	H	0.828502	-0.507664	0.358359
H277	H	-0.610118	0.433522	-0.573350
O278	O	-0.766379	0.132746	-0.502315
C279	C	-0.703884	0.113757	-0.468645
H280	H	-0.685121	0.109667	-0.493537
H281	H	-0.699524	0.143050	-0.447009
C282	C	-0.689898	0.063993	-0.396896
C283	C	-0.666851	0.058966	-0.427468
H284	H	-0.667054	0.030196	-0.371494
H285	H	-0.732002	0.076788	-0.419579
H286	H	-0.686263	0.088405	-0.378871
H287	H	-0.670493	0.034559	-0.445498
H288	H	-0.624746	0.046166	-0.404787
H289	H	-0.141499	-0.445456	0.304183
O290	O	-0.312742	0.412428	-0.154583
C291	C	-0.322651	0.455907	-0.135559
H292	H	-0.374038	0.489145	-0.160329
H293	H	-0.304842	0.442497	-0.092013
C294	C	-0.224999	0.435790	-0.109721
C295	C	-0.288114	0.476616	-0.140146
H296	H	-0.203693	0.448564	-0.112547
H297	H	-0.218322	0.406497	-0.122535
H298	H	-0.210167	0.424619	-0.073434
H299	H	-0.302946	0.487782	-0.176433
H300	H	-0.294793	0.505912	-0.127338
H301	H	-0.141567	0.373702	0.161094
O302	O	-0.139529	-0.313141	-0.551716
C303	C	-0.124980	-0.346705	-0.580654
H304	H	-0.153909	-0.321728	-0.624268
H305	H	-0.074033	-0.368432	-0.563350
C306	C	-0.103302	-0.418433	-0.523157
C307	C	-0.138836	-0.387757	-0.576726
H308	H	-0.111846	-0.443757	-0.520732
H309	H	-0.113101	-0.395822	-0.503659
H310	H	-0.060849	-0.436534	-0.508743
H311	H	-0.181288	-0.369651	-0.591137
H312	H	-0.129044	-0.410366	-0.596226
O313	O	-0.292876	0.373658	0.157030
C314	C	-0.341498	0.419360	0.154353
H315	H	-0.321838	0.435101	0.187240
H316	H	-0.372580	0.451385	0.113835
C317	C	-0.403327	0.385425	0.121343
C318	C	-0.379180	0.404756	0.161739
H319	H	-0.426573	0.376418	0.125897
H320	H	-0.370571	0.354635	0.123145
H321	H	-0.429225	0.412116	0.087582
H322	H	-0.353276	0.378063	0.195499
H323	H	-0.411932	0.435541	0.159944
O324	O	-0.469650	-0.294127	-0.019995
C325	C	-0.487307	-0.261711	-0.066196
H326	H	-0.458928	-0.287262	-0.081099
H327	H	-0.538275	-0.242009	-0.098497
C328	C	-0.510939	-0.187020	-0.034592
C329	C	-0.476079	-0.218401	-0.052894
H330	H	-0.504016	-0.160303	-0.026389
H331	H	-0.499045	-0.208858	-0.003466
H332	H	-0.553410	-0.170606	-0.061513
H333	H	-0.433609	-0.234820	-0.025971
H334	H	-0.487965	-0.196565	-0.084015
O335	O	-0.864249	0.412369	-0.550552
C336	C	-0.885718	0.459185	-0.537296
H337	H	-0.860794	0.477394	-0.536128
H338	H	-0.937352	0.488988	-0.568546
C339	C	-0.903698	0.423103	-0.483615
C340	C	-0.873083	0.445465	-0.482176
H341	H	-0.895908	0.414642	-0.449615
H342	H	-0.889237	0.391563	-0.492547
H343	H	-0.946725	0.447943	-0.509659
H344	H	-0.830057	0.420624	-0.456137
H345	H	-0.887537	0.477001	-0.473238
H346	H	0.003150	-0.180054	-0.430296
H347	H	-0.139885	-0.037039	-0.573363
H348	H	0.534509	-0.445465	0.161098
H349	H	-0.090723	-0.259938	-0.510522
O350	O	-0.295056	-0.157255	-0.707149
C351	C	-0.340917	-0.110307	-0.708189
H352	H	-0.330105	-0.114838	-0.666457
H353	H	-0.342095	-0.075067	-0.722090
C354	C	-0.417306	-0.094939	-0.798179
C355	C	-0.404030	-0.100506	-0.746923
H356	H	-0.456238	-0.088891	-0.822074
H357	H	-0.386409	-0.126568	-0.797479
H358	H	-0.418284	-0.065573	-0.809756
H359	H	-0.403045	-0.129875	-0.735345
H360	H	-0.434928	-0.068882	-0.747622
O361	O	-0.312310	-0.313476	-0.550642
C362	C	-0.322131	-0.347137	-0.579485
H363	H	-0.373517	-0.329012	-0.606208
H364	H	-0.304173	-0.351664	-0.605115
C365	C	-0.224588	-0.424535	-0.507449
C366	C	-0.287701	-0.402276	-0.540267
H367	H	-0.203349	-0.458548	-0.483258
H368	H	-0.217970	-0.401857	-0.488018
H369	H	-0.209632	-0.428302	-0.528813
H370	H	-0.302658	-0.398502	-0.518903
H371	H	-0.294321	-0.424954	-0.559694
H372	H	-0.285779	-0.162187	0.019224
O373	O	0.007350	-0.032871	-0.426281
C374	C	-0.027011	0.019156	-0.460881
H375	H	-0.053735	0.020788	-0.503979
H376	H	-0.060626	0.048489	-0.452069
C377	C	0.049784	0.032151	-0.399425
C378	C	0.016966	0.034155	-0.452360
H379	H	0.076910	0.041405	-0.394168
H380	H	0.072933	-0.002900	-0.376114
H381	H	0.021765	0.056595	-0.392089
H382	H	0.044984	0.009706	-0.459694
H383	H	-0.006178	0.069202	-0.475673
H384	H	0.253388	-0.161542	-0.159147
O385	O	-0.458869	0.433685	-0.426122
C386	C	-0.441426	0.433920	-0.374078
H387	H	-0.482882	0.450285	-0.372442
H388	H	-0.403277	0.391505	-0.344727
C389	C	-0.366987	0.449269	-0.361094
C390	C	-0.417905	0.469373	-0.359087
H391	H	-0.352475	0.471135	-0.351845
H392	H	-0.378737	0.449108	-0.396157
H393	H	-0.335202	0.413923	-0.336635
H394	H	-0.449691	0.504716	-0.383550
H395	H	-0.406160	0.469540	-0.324028
H396	H	0.163031	-0.116534	-0.256871
O397	O	-0.314174	-0.449536	-0.019847
C398	C	-0.265550	-0.452188	0.025867
H399	H	-0.285207	-0.419306	0.041599
H400	H	-0.234462	-0.492684	0.057916
C401	C	-0.203734	-0.485187	-0.008067
C402	C	-0.227878	-0.444797	0.011254
H403	H	-0.180494	-0.480630	-0.017079
H404	H	-0.236492	-0.483402	-0.038865
H405	H	-0.177831	-0.518929	0.018644
H406	H	-0.253786	-0.411056	-0.015459
H407	H	-0.195123	-0.446576	0.042047
H408	H	-0.284535	-0.302446	0.161112
H409	H	-0.089861	0.136326	-0.509827
O410	O	-0.138189	0.238152	-0.550523
C411	C	-0.084365	0.202767	-0.499354
H412	H	-0.085984	0.168845	-0.487091
H413	H	-0.042290	0.185772	-0.500159
C414	C	-0.078233	0.274557	-0.474002
C415	C	-0.080224	0.232896	-0.458938
H416	H	-0.075676	0.293142	-0.449072
H417	H	-0.114494	0.298397	-0.508476
H418	H	-0.043170	0.260388	-0.474673
H419	H	-0.115290	0.247065	-0.458274
H420	H	-0.043969	0.209059	-0.424463
O421	O	-0.237265	0.132373	-0.657455
C422	C	-0.251939	0.113387	-0.628617
H423	H	-0.222949	0.109298	-0.584960
H424	H	-0.302864	0.142681	-0.645898
C425	C	-0.273941	0.063622	-0.686367
C426	C	-0.238332	0.058595	-0.632746
H427	H	-0.265551	0.029825	-0.688915
H428	H	-0.264058	0.076415	-0.705797
H429	H	-0.316376	0.088035	-0.700761
H430	H	-0.195898	0.034188	-0.618354
H431	H	-0.248208	0.045797	-0.613313
H432	H	-0.373399	-0.259958	-0.256849
H433	H	-0.610293	-0.036668	-0.430273
O434	O	-0.524967	-0.108704	-0.260678
C435	C	-0.540723	-0.090275	-0.225275
H436	H	-0.519077	-0.125803	-0.191347
H437	H	-0.522893	-0.065216	-0.208263
C438	C	-0.637849	-0.012370	-0.297082
C439	C	-0.611267	-0.056005	-0.255415
H440	H	-0.681363	0.008771	-0.315674
H441	H	-0.627233	-0.024784	-0.320934
H442	H	-0.622984	0.008507	-0.282900
H443	H	-0.626126	-0.076885	-0.269598
H444	H	-0.621887	-0.043594	-0.231566
O445	O	-0.614422	-0.032639	-0.581649
C446	C	-0.580074	-0.067235	-0.599328
H447	H	-0.531174	-0.098912	-0.563455
H448	H	-0.602677	-0.087325	-0.622380
C449	C	-0.638138	0.003808	-0.680018
C450	C	-0.578076	-0.035095	-0.635958
H451	H	-0.636907	0.023633	-0.702615
H452	H	-0.661280	0.027116	-0.668109
H453	H	-0.656967	-0.012939	-0.699222
H454	H	-0.559251	-0.018348	-0.616751
H455	H	-0.554930	-0.058400	-0.647865
O456	O	-0.467627	-0.157962	-0.154495
C457	C	-0.424199	-0.153199	-0.111210
H458	H	-0.375949	-0.185586	-0.099159
H459	H	-0.434528	-0.112328	-0.123442
C460	C	-0.487243	-0.119681	-0.078482
C461	C	-0.427982	-0.159462	-0.063679
H462	H	-0.489579	-0.123542	-0.049163
H463	H	-0.516504	-0.122888	-0.107646
H464	H	-0.495844	-0.085625	-0.088676
H465	H	-0.419385	-0.193517	-0.053492
H466	H	-0.398721	-0.156261	-0.034512
O467	O	0.159439	-0.264261	-0.260697
C468	C	0.192155	-0.315407	-0.225295
H469	H	0.239960	-0.327667	-0.191362
H470	H	0.166272	-0.314598	-0.208292
C471	C	0.139568	-0.340751	-0.297108
C472	C	0.198284	-0.355811	-0.255433
H473	H	0.143346	-0.365674	-0.315698
H474	H	0.117524	-0.306292	-0.320959
H475	H	0.118004	-0.340077	-0.282933
H476	H	0.219844	-0.356478	-0.269609
H477	H	0.220332	-0.390271	-0.231585
H478	H	-0.233818	-0.116545	-0.653675
O479	O	0.257644	-0.313132	-0.154584
C480	C	0.320151	-0.346691	-0.135553
H481	H	0.328646	-0.328559	-0.160320
H482	H	0.350275	-0.351077	-0.092006
C483	C	0.325830	-0.424188	-0.109713
C484	C	0.336262	-0.401920	-0.140135
H485	H	0.335769	-0.458257	-0.112537
H486	H	0.283718	-0.401579	-0.122532
H487	H	0.350934	-0.427839	-0.073427
H488	H	0.311153	-0.398264	-0.176421
H489	H	0.378370	-0.424530	-0.127322
O490	O	-0.614420	0.433685	-0.426268
C491	C	-0.666689	0.433903	-0.460866
H492	H	-0.684692	0.450261	-0.503965
H493	H	-0.653610	0.391482	-0.452047
C494	C	-0.695021	0.449254	-0.399418
C495	C	-0.717136	0.469350	-0.452353
H496	H	-0.726139	0.471117	-0.394166
H497	H	-0.659806	0.449106	-0.376107
H498	H	-0.684123	0.413904	-0.392075
H499	H	-0.728027	0.504697	-0.459693
H500	H	-0.752355	0.469505	-0.475665
O501	O	0.158992	-0.264123	0.026911
C502	C	0.109698	-0.230928	0.030902
H503	H	0.115293	-0.199778	0.048203
H504	H	0.064351	-0.210108	-0.010405
C505	C	0.102678	-0.303127	0.046441
C506	C	0.109554	-0.264871	0.067695
H507	H	0.102587	-0.324065	0.069134
H508	H	0.135887	-0.325491	0.043750
H509	H	0.064889	-0.285771	0.012019
H510	H	0.147346	-0.282227	0.102113
H511	H	0.076351	-0.242510	0.070392
H512	H	-0.467265	-0.179674	-0.430275
H513	H	-0.464634	0.412676	-0.159140
H514	H	-0.320725	-0.305282	-0.159129
H515	H	-0.517010	0.420001	-0.256859
O516	O	-0.081487	-0.264269	0.026906
C517	C	-0.065545	-0.315459	0.024252
H518	H	-0.087122	-0.327864	0.038124
H519	H	-0.083310	-0.314650	-0.018631
C520	C	0.031514	-0.340479	0.043503
C521	C	0.005018	-0.355716	0.060546
H522	H	0.075041	-0.365311	0.065889
H523	H	0.020773	-0.305991	0.045289
H524	H	0.016704	-0.339804	0.007767
H525	H	0.019822	-0.356384	0.096278
H526	H	0.015763	-0.390206	0.058766
H527	H	-0.373398	-0.259957	-0.509806
O528	O	-0.467744	-0.157880	-0.706427
C529	C	-0.469817	-0.110951	-0.707554
H530	H	-0.470025	-0.098406	-0.672675
H531	H	-0.427705	-0.118691	-0.704240
C532	C	-0.528432	-0.081586	-0.803219
C533	C	-0.528693	-0.066176	-0.760381
H534	H	-0.564748	-0.053967	-0.835806
H535	H	-0.527034	-0.113204	-0.802460
H536	H	-0.493336	-0.088036	-0.800450
H537	H	-0.563785	-0.059733	-0.763147
H538	H	-0.530099	-0.034556	-0.761142
O539	O	-0.864672	0.412310	-0.706470
C540	C	-0.927170	0.455792	-0.740047
H541	H	-0.945791	0.470472	-0.715060
H542	H	-0.931591	0.489426	-0.761787
C543	C	-0.941442	0.419995	-0.811798
C544	C	-0.964314	0.438022	-0.781109
H545	H	-0.964355	0.409035	-0.837129
H546	H	-0.899336	0.390701	-0.789178
H547	H	-0.945128	0.448026	-0.829910
H548	H	-0.960621	0.409989	-0.762992
H549	H	-1.006421	0.467310	-0.803727
O550	O	-0.766404	0.420190	-0.657577
C551	C	-0.799155	0.417539	-0.708752
H552	H	-0.822339	0.397914	-0.708702
H553	H	-0.835672	0.459544	-0.739155
C554	C	-0.725809	0.408516	-0.723714
C555	C	-0.754280	0.384408	-0.723651
H556	H	-0.698129	0.388081	-0.732906
H557	H	-0.703744	0.410303	-0.689237
H558	H	-0.756245	0.443519	-0.749050
H559	H	-0.723844	0.349408	-0.698311
H560	H	-0.776338	0.382613	-0.758123
O561	O	-0.525489	0.420249	-0.657976
C562	C	-0.541449	0.417584	-0.709182
H563	H	-0.519872	0.431448	-0.721595
H564	H	-0.523698	0.374715	-0.708363
C565	C	-0.638510	0.436827	-0.734209
C566	C	-0.612013	0.453859	-0.749457
H567	H	-0.682037	0.459201	-0.759053
H568	H	-0.627757	0.438621	-0.699710
H569	H	-0.623711	0.401103	-0.733527
H570	H	-0.626806	0.489581	-0.750133
H571	H	-0.622770	0.452073	-0.783958
H572	H	-0.769956	0.419946	-0.509803
H573	H	-0.464627	0.412573	-0.699006
O574	O	-0.312725	0.412329	-0.551709
C575	C	-0.322640	0.455810	-0.580652
H576	H	-0.362302	0.470476	-0.624266
H577	H	-0.334543	0.489451	-0.563352
C578	C	-0.215099	0.420036	-0.523158
C579	C	-0.263810	0.438046	-0.576726
H580	H	-0.178809	0.409080	-0.520734
H581	H	-0.208419	0.390743	-0.503657
H582	H	-0.225026	0.448074	-0.508747
H583	H	-0.253885	0.410006	-0.591134
H584	H	-0.270487	0.467334	-0.596230
H585	H	0.163323	-0.116858	0.026532
H586	H	-0.142365	-0.305283	0.019241
H587	H	-0.373532	0.419923	-0.510513
H588	H	-0.373530	0.419958	-0.256542
H589	H	0.003167	-0.179672	0.040153
O590	O	0.007528	-0.032643	0.040288
C591	C	0.059784	-0.067232	0.040510
H592	H	0.077779	-0.110313	0.056884
H593	H	0.046694	-0.058426	-0.001926
C594	C	0.088142	-0.005803	0.055850
C595	C	0.110246	-0.058716	0.075964
H596	H	0.119268	-0.000548	0.077717
H597	H	0.052934	0.017502	0.055698
H598	H	0.077233	0.001530	0.020486
H599	H	0.121147	-0.066045	0.111325
H600	H	0.145457	-0.082021	0.076123
O601	O	-0.237236	-0.108699	0.026899
C602	C	-0.200185	-0.092417	0.030885
H603	H	-0.151679	-0.129053	0.048196
H604	H	-0.220712	-0.067864	-0.010426
C605	C	-0.257085	-0.013316	0.046394
C606	C	-0.197508	-0.058312	0.067661
H607	H	-0.255435	0.007724	0.069077
H608	H	-0.282049	-0.024283	0.043707
H609	H	-0.274184	0.007140	0.011969
H610	H	-0.180412	-0.078770	0.102082
H611	H	-0.172541	-0.047347	0.070354
H612	H	0.253344	-0.305292	0.019222
H613	H	-0.770088	0.136694	-0.653654
O614	O	-0.237703	0.132543	0.026809
C615	C	-0.297771	0.157774	-0.020010
H616	H	-0.317290	0.200940	-0.038229
H617	H	-0.296270	0.135978	-0.049830
C618	C	-0.315074	0.103453	0.016117
C619	C	-0.339050	0.156471	-0.006257
H620	H	-0.340537	0.102647	0.024600
H621	H	-0.274604	0.086453	0.047660
H622	H	-0.313824	0.085295	-0.008736
H623	H	-0.340292	0.174626	0.018599
H624	H	-0.379521	0.173474	-0.037795
O625	O	-0.294858	0.238695	0.018834
C626	C	-0.342988	0.281961	-0.029344
H627	H	-0.322747	0.294145	-0.045232
H628	H	-0.371564	0.269663	-0.059878
C629	C	-0.409166	0.314412	0.000251
C630	C	-0.384305	0.329380	-0.019261
H631	H	-0.434654	0.343662	0.006470
H632	H	-0.376741	0.285262	0.032709
H633	H	-0.432975	0.304164	-0.025197
H634	H	-0.360490	0.339622	0.006190
H635	H	-0.416727	0.358533	-0.051714
O636	O	-0.139291	0.238992	0.018957
C637	C	-0.124718	0.257997	0.062459
H638	H	-0.153653	0.261945	0.077137
H639	H	-0.073773	0.228789	0.096109
C640	C	-0.102994	0.308029	0.026668
C641	C	-0.138536	0.312883	0.044692
H642	H	-0.111514	0.341884	0.015710
H643	H	-0.112809	0.295223	-0.002640
H644	H	-0.060543	0.283687	0.054712
H645	H	-0.180986	0.337219	0.016646
H646	H	-0.128728	0.325693	0.073995
H647	H	0.253698	-0.162195	0.019197
O648	O	-0.082090	0.132891	0.026827
C649	C	-0.066295	0.168272	0.024183
H650	H	-0.109138	0.211066	0.004553
H651	H	-0.030399	0.162781	0.066206
C652	C	0.012965	0.103967	0.015153
C653	C	-0.039657	0.156528	-0.008961
H654	H	0.029398	0.096722	-0.005289
H655	H	0.002325	0.080130	0.016937
H656	H	0.042871	0.099398	0.050172
H657	H	-0.069566	0.161094	-0.043976
H658	H	-0.029022	0.180366	-0.010751
H659	H	-0.860445	0.234372	-0.699000
H660	H	-0.516495	-0.116862	-0.653257
