data_functionalizedCrystal
_audit_creation_method	'MofGen! by Chris Wilmer'
_symmetry_space_group_name_H-M	'P1'
_symmetry_Int_Tables_number	1
_symmetry_cell_setting	triclinic
loop_
_symmetry_equiv_pos_as_xyz
  x,y,z
_cell_length_a	14.044191
_cell_length_b	12.503572
_cell_length_c	11.026607
_cell_angle_alpha	85.701682
_cell_angle_beta	100.888897
_cell_angle_gamma	93.837835
loop_
_atom_site_label
_atom_site_type_symbol
_atom_site_fract_x
_atom_site_fract_y
_atom_site_fract_z
O1	O	1.312921	0.089261	0.291566
O2	O	1.035116	0.089275	0.280800
O3	O	1.150994	0.089265	0.107037
O4	O	1.197043	0.089270	0.465329
O5	O	1.142283	-0.089376	0.120129
O6	O	1.026405	-0.089367	0.293891
O7	O	1.304211	-0.089381	0.304657
Cu8	Cu	1.164512	-0.105685	0.300470
Cu9	Cu	1.174814	0.105579	0.284987
O10	O	1.188332	-0.089371	0.478420
C11	C	0.994642	-0.000044	0.282636
C12	C	0.887020	-0.000039	0.268588
C13	C	0.649350	-0.000048	0.342535
C14	C	0.689983	-0.000048	0.242927
C15	C	0.799625	-0.000043	0.257209
C16	C	0.539699	-0.000054	0.328255
N17	N	1.157274	-0.254277	0.311359
C18	C	1.146627	-0.473391	0.327389
C19	C	1.192702	-0.526722	0.258063
C20	C	1.186779	-0.648645	0.266982
C21	C	1.152550	-0.351457	0.318471
C22	C	1.344684	-0.000059	0.302821
C23	C	1.452307	-0.000058	0.316868
C24	C	1.138144	-0.000054	0.067452
C25	C	1.112819	-0.000049	-0.070005
N26	N	1.182058	0.254171	0.274089
C27	C	1.182744	-0.000051	-0.136239
C28	C	1.156572	-0.000046	-0.278307
C29	C	1.201183	-0.000050	0.518005
C30	C	1.226507	-0.000048	0.655461
H31	H	0.696904	-0.000044	0.438529
N32	N	1.250862	-0.465926	0.170584
H33	H	1.223731	-0.485426	0.083052
H34	H	1.246894	-0.386203	0.176636
H35	H	1.102736	-0.519295	0.393434
N36	N	1.287711	-0.000069	-0.072048
H37	H	1.291528	-0.000077	0.020343
H38	H	1.317663	-0.066301	-0.091993
N39	N	1.051600	-0.000030	-0.342493
H40	H	1.047783	-0.000026	-0.434883
H41	H	1.015175	-0.066253	-0.312857
N42	N	1.331481	-0.000045	-0.280357
H43	H	1.335301	-0.000046	-0.187967
H44	H	1.361447	-0.066270	-0.300296
N45	N	1.007853	-0.000033	-0.134195
H46	H	1.004035	-0.000029	-0.226586
H47	H	0.971427	-0.066257	-0.104560
H48	H	0.642430	0.000026	0.146920
