data_functionalizedCrystal
_audit_creation_method	'MofGen! by Chris Wilmer'
_symmetry_space_group_name_H-M	'P1'
_symmetry_Int_Tables_number	1
_symmetry_cell_setting	triclinic
loop_
_symmetry_equiv_pos_as_xyz
  x,y,z
_cell_length_a	15.944499
_cell_length_b	15.944551
_cell_length_c	15.186229
_cell_angle_alpha	90.004697
_cell_angle_beta	90.005948
_cell_angle_gamma	83.488174
loop_
_atom_site_label
_atom_site_type_symbol
_atom_site_fract_x
_atom_site_fract_y
_atom_site_fract_z
O1	O	1.114550	0.108124	0.073283
O2	O	0.869994	0.121526	0.073274
O3	O	0.998950	-0.007451	0.073271
O4	O	0.985594	0.237101	0.073286
O5	O	0.998942	-0.007453	-0.073186
O6	O	0.869986	0.121524	-0.073184
O7	O	1.114541	0.108122	-0.073174
Zn8	Zn	0.992262	0.114823	-0.096432
Zn9	Zn	0.992274	0.114825	0.096532
O10	O	0.985585	0.237099	-0.073171
C11	C	0.838695	0.120976	0.000044
C12	C	0.745447	0.119331	0.000040
C13	C	0.998392	-0.038746	0.000042
C14	C	0.996729	-0.131992	0.000041
C15	C	0.453911	0.194263	0.000058
C16	C	0.514944	0.155313	0.072268
C17	C	0.409810	0.113355	0.000060
C18	C	0.514922	0.155289	-0.072127
C19	C	0.574719	0.116296	0.000049
C20	C	0.469616	0.074382	0.072330
C21	C	0.469587	0.074370	-0.072131
C22	C	0.530603	0.035360	0.000097
C23	C	0.314810	0.111663	0.000067
C24	C	0.669718	0.117981	0.000048
C25	C	0.912823	-0.346833	0.000050
C26	C	0.951782	-0.407858	-0.072161
C27	C	0.993722	-0.302717	0.000048
C28	C	0.951810	-0.407840	0.072235
C29	C	0.990811	-0.467629	0.000058
C30	C	1.032703	-0.362514	-0.072222
C31	C	1.032720	-0.362489	0.072238
C32	C	1.071737	-0.423497	0.000010
C33	C	0.995397	-0.207715	0.000041
C34	C	0.989143	-0.562630	0.000059
C35	C	1.145840	0.108672	0.000058
C36	C	1.239089	0.110317	0.000068
C37	C	0.986144	0.268394	0.000060
C38	C	0.987806	0.361640	0.000066
N39	N	0.992261	0.114821	-0.228125
C40	C	1.049382	0.057729	-0.453849
C41	C	1.049384	0.057727	-0.546039
C42	C	0.935155	0.171915	-0.546045
C43	C	0.935149	0.171912	-0.453857
C44	C	0.992267	0.114820	-0.407761
C45	C	0.992276	0.114821	-0.592139
C46	C	0.992278	0.114819	-0.692095
C47	C	0.992264	0.114821	-0.307799
N48	N	0.992282	0.114821	0.228224
H49	H	0.535046	0.189537	0.133316
O50	O	0.538842	0.196001	-0.145050
C51	C	0.514581	0.154061	-0.221067
H52	H	0.506978	0.085686	-0.204116
H53	H	0.565099	0.155713	-0.273958
H54	H	0.452050	0.186871	-0.246596
O55	O	0.832702	-0.307114	-0.000189
C56	C	0.790350	-0.330105	-0.076461
H57	H	0.838566	-0.352105	-0.129410
H58	H	0.747141	-0.273312	-0.101663
H59	H	0.751095	-0.383487	-0.059987
O60	O	0.910881	-0.431938	-0.144901
C61	C	0.840835	-0.472638	-0.118983
H62	H	0.851403	-0.498531	-0.049404
H63	H	0.833000	-0.526777	-0.166216
H64	H	0.781463	-0.425521	-0.120370
H65	H	0.917586	-0.427910	0.133288
O66	O	1.073429	-0.338534	-0.145108
C67	C	1.074489	-0.250236	-0.144241
H68	H	1.020570	-0.220030	-0.101446
H69	H	1.066542	-0.224786	-0.214255
H70	H	1.137209	-0.234494	-0.116321
H71	H	1.138946	-0.456668	-0.000029
H72	H	0.420581	0.261409	0.000132
O73	O	0.445884	0.033675	0.145335
C74	C	0.469508	0.076166	0.221258
H75	H	0.523538	0.114458	0.204434
H76	H	0.490844	0.028100	0.274576
H77	H	0.413247	0.120298	0.246159
H78	H	0.888635	0.218404	-0.416330
O79	O	1.104908	0.002365	-0.409012
C80	C	1.156719	0.047335	-0.355626
H81	H	1.158199	0.113572	-0.383397
H82	H	1.223461	0.013051	-0.354536
H83	H	1.130393	0.051744	-0.285777
H84	H	1.066911	-0.342365	0.133292
O85	O	1.104949	0.002238	-0.590671
C86	C	1.155342	-0.048165	-0.530213
H87	H	1.156288	-0.013724	-0.464496
H88	H	1.222422	-0.060950	-0.556839
H89	H	1.128068	-0.110576	-0.520418
H90	H	0.563780	-0.031846	0.000131
O91	O	0.445439	0.033840	-0.145078
C92	C	0.388374	0.089270	-0.194415
H93	H	0.357140	0.140969	-0.149502
H94	H	0.337971	0.052670	-0.224370
H95	H	0.423865	0.118993	-0.249267
O96	O	0.879759	0.227345	-0.590961
C97	C	0.891998	0.215095	-0.682212
H98	H	0.958776	0.183728	-0.694794
H99	H	0.882660	0.278704	-0.717240
H100	H	0.844455	0.172948	-0.708389
