data_functionalizedCrystal
_audit_creation_method	'MofGen! by Chris Wilmer'
_symmetry_space_group_name_H-M	'P1'
_symmetry_Int_Tables_number	1
_symmetry_cell_setting	triclinic
loop_
_symmetry_equiv_pos_as_xyz
  x,y,z
_cell_length_a	14.044220
_cell_length_b	12.503572
_cell_length_c	14.044220
_cell_angle_alpha	93.843168
_cell_angle_beta	86.811122
_cell_angle_gamma	93.835250
loop_
_atom_site_label
_atom_site_type_symbol
_atom_site_fract_x
_atom_site_fract_y
_atom_site_fract_z
O1	O	1.282200	0.089210	-0.225116
O2	O	1.005530	0.089237	-0.216809
O3	O	1.139712	0.089213	-0.082627
O4	O	1.148019	0.089234	-0.359298
O5	O	1.129622	-0.089427	-0.092737
O6	O	0.995440	-0.089403	-0.226918
O7	O	1.272110	-0.089430	-0.235226
Cu8	Cu	1.132854	-0.105728	-0.231995
Cu9	Cu	1.144786	0.105535	-0.220040
O10	O	1.137929	-0.089406	-0.369407
C11	C	0.964864	-0.000080	-0.218228
C12	C	0.858721	-0.000070	-0.207383
N13	N	1.124469	-0.254319	-0.240404
C14	C	0.664382	-0.000092	-0.187558
C15	C	0.613253	-0.000091	-0.264472
C16	C	0.505116	-0.000104	-0.253441
C17	C	0.772529	-0.000080	-0.198587
C18	C	1.112134	-0.473432	-0.252782
C19	C	1.165511	-0.526768	-0.199249
C20	C	1.158648	-0.648690	-0.206136
C21	C	1.118996	-0.351499	-0.245896
C22	C	1.312777	-0.000111	-0.233807
C23	C	1.418920	-0.000114	-0.244651
C24	C	1.131031	-0.000107	-0.052060
C25	C	1.120187	-0.000107	0.054082
N26	N	1.153179	0.254126	-0.211624
C27	C	1.146609	-0.000084	-0.399974
C28	C	1.157454	-0.000077	-0.506117
C29	C	1.100361	-0.000090	0.248421
C30	C	1.177275	-0.000094	0.299551
C31	C	1.166244	-0.000084	0.407687
C32	C	1.111391	-0.000099	0.140274
H33	H	0.650692	-0.000081	-0.338605
H34	H	1.216364	-0.480864	-0.148245
O35	O	1.265759	-0.000260	0.254991
C36	C	1.410616	-0.092882	0.225850
C37	C	1.310445	-0.092809	0.276390
H38	H	1.446766	-0.167711	0.243116
H39	H	1.455358	-0.018180	0.251615
H40	H	1.403851	-0.092838	0.145337
H41	H	1.317120	-0.092890	0.356910
H42	H	1.265740	-0.167505	0.250548
O43	O	1.051337	-0.528138	-0.313521
C44	C	0.888238	-0.562779	-0.357589
C45	C	0.956977	-0.500758	-0.288722
H46	H	0.811935	-0.540648	-0.337576
H47	H	0.893362	-0.652789	-0.352364
H48	H	0.908545	-0.540757	-0.433861
H49	H	0.936716	-0.522689	-0.212420
H50	H	0.951841	-0.410763	-0.294030
O51	O	0.619578	-0.000049	-0.099189
C52	C	0.469364	-0.000121	-0.007496
C53	C	0.519999	-0.000151	-0.107626
H54	H	0.388845	-0.000226	-0.014285
H55	H	0.495032	0.074660	0.037201
H56	H	0.486735	-0.074861	0.028726
H57	H	0.502651	0.074538	-0.143930
H58	H	0.494327	-0.074982	-0.152253
O59	O	1.011992	-0.000133	0.293226
C60	C	0.920299	-0.000065	0.443439
C61	C	1.020429	-0.000035	0.392805
H62	H	0.927088	0.000037	0.523958
H63	H	0.875612	-0.074845	0.417760
H64	H	0.884068	0.074676	0.426080
H65	H	1.056742	-0.074725	0.410141
H66	H	1.065047	0.074795	0.418488
