data_functionalizedCrystal
_audit_creation_method	'MofGen! by Chris Wilmer'
_symmetry_space_group_name_H-M	'P1'
_symmetry_Int_Tables_number	1
_symmetry_cell_setting	triclinic
loop_
_symmetry_equiv_pos_as_xyz
  x,y,z
_cell_length_a	12.759401
_cell_length_b	18.215405
_cell_length_c	12.759393
_cell_angle_alpha	90.037569
_cell_angle_beta	90.018496
_cell_angle_gamma	90.025046
loop_
_atom_site_label
_atom_site_type_symbol
_atom_site_fract_x
_atom_site_fract_y
_atom_site_fract_z
Zn1	Zn	1.606181	-0.292938	0.593937
Zn2	Zn	2.106181	0.207062	1.093937
Zn3	Zn	1.606044	-0.416024	0.418239
Zn4	Zn	2.106044	0.083976	0.918239
Zn5	Zn	1.430483	-0.292976	0.418277
Zn6	Zn	1.930483	0.207024	0.918277
Zn7	Zn	1.430440	-0.415967	0.593881
Zn8	Zn	1.930440	0.084033	1.093881
O9	O	1.518287	-0.354476	0.506084
O10	O	2.018287	0.145524	1.006084
O11	O	1.753184	-0.309273	0.570639
O12	O	2.253184	0.190727	1.070639
O13	O	1.582716	-0.399741	0.271223
O14	O	2.082716	0.100259	0.771223
O15	O	1.453865	-0.189987	0.441618
O16	O	1.953865	0.310013	0.941618
O17	O	1.753083	-0.399704	0.441554
O18	O	2.253083	0.100296	0.941554
O19	O	1.582949	-0.189959	0.570675
O20	O	2.082949	0.310041	1.070675
O21	O	1.453732	-0.309339	0.271251
O22	O	1.953732	0.190661	0.771251
O23	O	1.283456	-0.309284	0.441563
O24	O	1.783456	0.190716	0.941563
O25	O	1.453792	-0.399607	0.740909
O26	O	1.953792	0.100393	1.240909
O27	O	1.283425	-0.399645	0.570578
O28	O	1.783425	0.100355	1.070578
O29	O	1.582908	-0.309218	0.740951
O30	O	2.082908	0.190782	1.240951
O31	O	1.582675	-0.519001	0.441499
O32	O	2.082675	-0.019001	0.941499
O33	O	1.453660	-0.518959	0.570542
O34	O	1.953660	-0.018959	1.070542
C35	C	1.245320	-0.354463	0.506069
C36	C	1.745320	0.145537	1.006069
C37	C	1.128543	-0.354475	0.506088
C38	C	1.628543	0.145525	1.006088
C39	C	1.073692	-0.401601	0.573155
C40	C	1.573692	0.098399	1.073155
C41	C	0.963968	-0.401610	0.573167
C42	C	1.463968	0.098390	1.073167
C43	C	0.963956	-0.307365	0.439035
C44	C	1.463956	0.192635	0.939035
C45	C	1.073678	-0.307353	0.439029
C46	C	1.573678	0.192647	0.939029
C47	C	1.073699	-0.456015	0.650592
C48	C	1.573699	0.043985	1.150592
C49	C	0.963975	-0.456025	0.650604
C50	C	1.463975	0.043975	1.150604
C51	C	1.518176	-0.545683	0.506033
C52	C	2.018176	-0.045683	1.006033
C53	C	1.518225	-0.627482	0.506047
C54	C	2.018225	-0.127482	1.006047
C55	C	1.585561	-0.815673	0.438977
C56	C	2.085561	-0.315673	0.938977
C57	C	1.585608	-0.892531	0.439003
C58	C	2.085608	-0.392531	0.939003
C59	C	1.451148	-0.892528	0.573265
C60	C	1.951148	-0.392528	1.073265
C61	C	1.451107	-0.815671	0.573244
C62	C	1.951107	-0.315671	1.073244
C63	C	1.518312	-0.777245	0.506094
C64	C	2.018312	-0.277245	1.006094
C65	C	1.518400	-0.930961	0.506141
C66	C	2.018400	-0.430961	1.006141
C67	C	1.518450	-1.014295	0.506169
C68	C	2.018450	-0.514295	1.006169
C69	C	1.518263	-0.693906	0.506067
C70	C	2.018263	-0.193906	1.006067
C71	C	1.792320	-0.354491	0.506098
C72	C	2.292320	0.145509	1.006098
C73	C	1.909097	-0.354497	0.506105
C74	C	2.409097	0.145503	1.006105
C75	C	1.518361	-0.354402	0.780117
C76	C	2.018361	0.145598	1.280117
C77	C	1.518392	-0.354370	0.896894
C78	C	2.018392	0.145630	1.396894
C79	C	1.518427	-0.162523	0.506157
C80	C	2.018427	0.337477	1.006157
C81	C	1.518487	-0.080724	0.506189
C82	C	2.018487	0.419276	1.006189
C83	C	1.518274	-0.354497	0.233116
C84	C	2.018274	0.145503	0.733116
C85	C	1.518447	-0.354322	0.116340
C86	C	2.018447	0.145678	0.616340
C87	C	1.585632	-0.307300	0.951779
C88	C	2.085632	0.192700	1.451779
C89	C	1.585657	-0.307274	1.061503
C90	C	2.085657	0.192726	1.561503
C91	C	1.451199	-0.401394	1.061447
C92	C	1.951199	0.098606	1.561447
C93	C	1.451170	-0.401416	0.951725
C94	C	1.951170	0.098584	1.451725
C95	C	1.663263	-0.252963	0.951813
C96	C	2.163263	0.247037	1.451813
C97	C	1.663288	-0.252936	1.061537
C98	C	2.163288	0.247064	1.561537
H99	H	0.919271	-0.268999	0.384439
H100	H	1.419271	0.231001	0.884439
C101	C	1.633866	-0.175970	0.911620
C102	C	2.133866	0.324030	1.411620
N103	N	1.611722	-0.117982	0.881348
N104	N	2.111722	0.382018	1.381348
H105	H	1.396430	-0.923824	0.627935
H106	H	1.896430	-0.423824	1.127935
H107	H	1.640370	-0.923816	0.384351
H108	H	2.140370	-0.423816	0.884351
C109	C	1.119637	-0.529119	0.611023
C110	C	1.619637	-0.029119	1.111023
N111	N	1.154238	-0.584182	0.581217
N112	N	1.654238	-0.084182	1.081217
H113	H	0.929982	-0.435680	0.727959
H114	H	1.429982	0.064320	1.227959
C115	C	1.377145	-0.773398	0.647104
C116	C	1.877145	-0.273398	1.147104
N117	N	1.321449	-0.741558	0.702741
N118	N	1.821449	-0.241558	1.202741
C119	C	0.923698	-0.533003	0.620954
C120	C	1.423698	-0.033003	1.120954
N121	N	0.893362	-0.590980	0.598621
N122	N	1.393362	-0.090980	1.098621
H123	H	1.103511	-0.440815	0.732001
H124	H	1.603511	0.059185	1.232001
H125	H	1.740530	-0.273395	0.917774
H126	H	2.240530	0.226605	1.417774
C127	C	1.377185	-0.453186	0.891355
C128	C	1.877185	0.046814	1.391355
N129	N	1.321454	-0.492179	0.845884
N130	N	1.821454	0.007821	1.345884
H131	H	1.744655	-0.268201	1.091313
H132	H	2.244655	0.231799	1.591313
H133	H	1.634188	-0.198783	1.095593
H134	H	2.134188	0.301217	1.595593
C135	C	1.377257	-0.453140	1.121771
C136	C	1.877257	0.046860	1.621771
N137	N	1.321562	-0.492117	1.167206
N138	N	1.821562	0.007883	1.667206
H139	H	1.118333	-0.268973	0.384424
H140	H	1.618333	0.231027	0.884424
C141	C	1.659494	-0.773407	0.365117
C142	C	2.159494	-0.273407	0.865117
N143	N	1.715185	-0.741575	0.309485
N144	N	2.215185	-0.241575	0.809485
