data_functionalizedCrystal
_audit_creation_method	'MofGen! by Chris Wilmer'
_symmetry_space_group_name_H-M	'P1'
_symmetry_Int_Tables_number	1
_symmetry_cell_setting	triclinic
loop_
_symmetry_equiv_pos_as_xyz
  x,y,z
_cell_length_a	16.625547
_cell_length_b	21.295417
_cell_length_c	21.295411
_cell_angle_alpha	89.971282
_cell_angle_beta	89.979339
_cell_angle_gamma	90.030443
loop_
_atom_site_label
_atom_site_type_symbol
_atom_site_fract_x
_atom_site_fract_y
_atom_site_fract_z
Zn1	Zn	1.232602	-0.250638	-0.355982
Zn2	Zn	1.232496	-0.355903	-0.250708
Zn3	Zn	1.097774	-0.250651	-0.250719
Zn4	Zn	1.097716	-0.355873	-0.355932
O5	O	1.165147	-0.303266	-0.303335
O6	O	1.345421	-0.264608	-0.342034
O7	O	1.214605	-0.341959	-0.162620
O8	O	1.115728	-0.162560	-0.264709
O9	O	1.345343	-0.341946	-0.264689
O10	O	1.214786	-0.162550	-0.342045
O11	O	1.115625	-0.264631	-0.162628
O12	O	0.984934	-0.264602	-0.264660
O13	O	1.115629	-0.341896	-0.444028
O14	O	0.984891	-0.341908	-0.341959
O15	O	1.214729	-0.264580	-0.444065
O16	O	1.214549	-0.443988	-0.264640
O17	O	1.115526	-0.443967	-0.341947
C18	C	0.955656	-0.303254	-0.303305
C19	C	0.866035	-0.303264	-0.303308
C20	C	0.793253	-0.303265	-0.303315
C21	C	0.701944	-0.303269	-0.303331
C22	C	0.629168	-0.303274	-0.303347
C23	C	0.537854	-0.303279	-0.303362
C24	C	1.165041	-0.466818	-0.303300
C25	C	1.165070	-0.536786	-0.303306
C26	C	1.216677	-0.569643	-0.263094
C27	C	1.216715	-0.635386	-0.263108
C28	C	1.165131	-0.668269	-0.303328
C29	C	1.113520	-0.635404	-0.343549
C30	C	1.113490	-0.569662	-0.343538
N31	N	1.094596	-0.771535	-0.308117
N32	N	1.094627	-0.833986	-0.308124
C33	C	1.165221	-0.866343	-0.303364
N34	N	1.235785	-0.833890	-0.298586
N35	N	1.235753	-0.771433	-0.298576
C36	C	1.165159	-0.739554	-0.303345
C37	C	1.216874	-0.970486	-0.263165
C38	C	1.216913	-1.036230	-0.263183
C39	C	1.113711	-1.036246	-0.343621
C40	C	1.113680	-0.970504	-0.343606
C41	C	1.165260	-0.937628	-0.303374
C42	C	1.375456	-0.303279	-0.303365
C43	C	1.465077	-0.303285	-0.303378
C44	C	1.165184	-0.303233	-0.467526
C45	C	1.165200	-0.303219	-0.537494
C46	C	1.165275	-0.139076	-0.303384
C47	C	1.165330	-0.069108	-0.303405
C48	C	1.216829	-0.343353	-1.036948
C49	C	1.216814	-0.343373	-0.971205
C50	C	1.165276	-0.303120	-0.938333
C51	C	1.113734	-0.262856	-0.971209
C52	C	1.113745	-0.262842	-1.036951
N53	N	1.159117	-0.248041	-0.835128
N54	N	1.159112	-0.248057	-0.772676
C55	C	1.165241	-0.303163	-0.740259
N56	N	1.171390	-0.358254	-0.772652
N57	N	1.171400	-0.358238	-0.835109
C58	C	1.165259	-0.303132	-0.867048
C59	C	1.216760	-0.343449	-0.636105
C60	C	1.216740	-0.343470	-0.570361
C61	C	1.113664	-0.262949	-0.570366
C62	C	1.113680	-0.262933	-0.636109
C63	C	1.165232	-0.303182	-0.668974
C64	C	1.165156	-0.303254	-0.139784
C65	C	1.165297	-0.303091	-0.069816
H66	H	1.258678	-0.542877	-0.230336
H67	H	1.071771	-0.230083	-0.944441
H68	H	1.071698	-0.230176	-0.543603
H69	H	1.071715	-1.063019	-0.376372
F70	F	1.271768	-0.935494	-0.220347
F71	F	1.271643	-0.670362	-0.220306
H72	H	1.071653	-0.943750	-0.376348
F73	F	1.271625	-0.386286	-0.671085
H74	H	1.071522	-0.662181	-0.376298
F75	F	1.271663	-0.386227	-0.936218
F76	F	1.058823	-0.220087	-0.671091
H77	H	1.258805	-0.376129	-1.063703
H78	H	1.071465	-0.542909	-0.376285
F79	F	1.271849	-1.071198	-0.220385
F80	F	1.271587	-0.386327	-0.535381
F81	F	1.058890	-0.219992	-1.071932
