data_functionalizedCrystal
_audit_creation_method	'MofGen! by Chris Wilmer'
_symmetry_space_group_name_H-M	'P1'
_symmetry_Int_Tables_number	1
_symmetry_cell_setting	triclinic
loop_
_symmetry_equiv_pos_as_xyz
  x,y,z
_cell_length_a	19.288856
_cell_length_b	18.366186
_cell_length_c	19.288865
_cell_angle_alpha	90.011397
_cell_angle_beta	83.134504
_cell_angle_gamma	90.011357
loop_
_atom_site_label
_atom_site_type_symbol
_atom_site_fract_x
_atom_site_fract_y
_atom_site_fract_z
O1	O	-0.921357	-0.060591	-0.086620
O2	O	-0.719095	-0.060586	-0.098315
O3	O	-0.826070	-0.060575	0.008663
O4	O	-0.814382	-0.060603	-0.193598
O5	O	-0.826052	0.060525	0.008668
O6	O	-0.719077	0.060513	-0.098310
O7	O	-0.921338	0.060508	-0.086615
Zn8	Zn	-0.820204	0.079738	-0.092462
Zn9	Zn	-0.820229	-0.079816	-0.092469
O10	O	-0.814363	0.060496	-0.193593
C11	C	-0.693209	-0.000036	-0.097937
C12	C	-0.616106	-0.000034	-0.096811
N13	N	-0.820192	0.188629	-0.092457
C14	C	-0.867576	0.226734	-0.045111
C15	C	-0.867580	0.302962	-0.045108
C16	C	-0.820207	0.341082	-0.092463
C17	C	-0.772814	0.302967	-0.139813
C18	C	-0.772807	0.226740	-0.139810
C19	C	-0.810908	0.461833	-0.155752
C20	C	-0.810920	0.538058	-0.155755
C21	C	-0.820225	0.576189	-0.092472
C22	C	-0.829533	0.538086	-0.029182
C23	C	-0.829526	0.461859	-0.029179
C24	C	-0.820209	0.423736	-0.092471
C25	C	-0.867616	0.696950	-0.045119
C26	C	-0.867615	0.773179	-0.045115
C27	C	-0.772853	0.773182	-0.139826
C28	C	-0.772850	0.696954	-0.139824
C29	C	-0.820236	0.658843	-0.092471
C30	C	-0.052064	-0.000031	-0.151959
C31	C	-0.124511	-0.000036	-0.153024
C32	C	-0.169218	-0.000027	-0.090254
C33	C	-0.141472	-0.000031	-0.026415
C34	C	-0.069027	-0.000033	-0.025352
C35	C	-0.290481	0.042406	-0.043438
C36	C	-0.362925	0.042413	-0.044504
C37	C	-0.392664	-0.000025	-0.093530
C38	C	-0.349948	-0.042459	-0.141502
C39	C	-0.277503	-0.042461	-0.140439
C40	C	-0.247773	-0.000025	-0.091399
C41	C	-0.498955	-0.000032	-0.158519
C42	C	-0.571404	-0.000042	-0.159581
C43	C	-0.588364	-0.000029	-0.032971
C44	C	-0.515917	-0.000026	-0.031910
C45	C	-0.471217	-0.000024	-0.094687
C46	C	0.052776	-0.000039	-0.086995
C47	C	-0.024327	-0.000031	-0.088128
C48	C	-0.825685	-0.000023	0.034542
C49	C	-0.824556	-0.000016	0.111645
N50	N	-0.820241	0.811293	-0.092470
C51	C	-0.814748	-0.000057	-0.219472
C52	C	-0.815877	-0.000068	-0.296576
C53	C	-0.887324	-0.000014	0.156343
C54	C	-0.886263	-0.000026	0.228790
C55	C	-0.822431	-0.000025	0.256536
C56	C	-0.759655	-0.000031	0.211828
C57	C	-0.760717	-0.000027	0.139383
C58	C	-0.772245	0.042395	0.364824
C59	C	-0.771185	0.042395	0.437268
C60	C	-0.819151	-0.000041	0.479982
C61	C	-0.868190	-0.042468	0.450243
C62	C	-0.869252	-0.042464	0.377798
C63	C	-0.821272	-0.000030	0.335090
C64	C	-0.880774	-0.000052	0.603236
C65	C	-0.879710	-0.000068	0.675684
C66	C	-0.753100	-0.000066	0.658720
C67	C	-0.754165	-0.000057	0.586273
C68	C	-0.818004	-0.000047	0.558536
H69	H	-0.906159	0.195706	-0.006551
C70	C	-0.682885	-0.000067	0.689231
H71	H	-0.691241	-0.000066	0.738779
H72	H	-0.657056	-0.042296	0.673863
H73	H	-0.657043	0.042170	0.673885
H74	H	-0.462558	-0.000031	-0.209635
C75	C	-0.919726	0.655021	0.006974
H76	H	-0.912941	0.604165	0.000190
H77	H	-0.912329	0.667527	0.053311
H78	H	-0.966061	0.667497	-0.000451
C79	C	-0.409908	0.089086	0.008261
H80	H	-0.457312	0.083017	0.000602
H81	H	-0.404197	0.074169	0.054388
H82	H	-0.397206	0.138874	0.002336
H83	H	-0.703052	-0.000055	0.549879
C84	C	-0.720691	0.184819	-0.191900
H85	H	-0.727472	0.133963	-0.185115
H86	H	-0.728089	0.197301	-0.238237
H87	H	-0.674358	0.197322	-0.184474
H88	H	-0.177877	-0.000025	0.024693
C89	C	-0.230516	-0.089139	-0.193196
H90	H	-0.183112	-0.083056	-0.185542
H91	H	-0.243216	-0.138923	-0.187270
H92	H	-0.236225	-0.074223	-0.239328
C93	C	-0.382653	-0.089171	-0.195410
H94	H	-0.431918	-0.083110	-0.189162
H95	H	-0.364634	-0.074283	-0.241200
H96	H	-0.371596	-0.138952	-0.189106
H97	H	-0.015673	-0.000033	-0.203076
H98	H	-0.147099	-0.000030	-0.205004
H99	H	-0.046445	-0.000033	0.026628
C100	C	-0.637530	-0.000021	0.036077
H101	H	-0.610631	-0.000024	0.074246
H102	H	-0.666138	0.042208	0.038300
H103	H	-0.666148	-0.042258	0.038289
H104	H	-0.909179	-0.077011	0.353588
H105	H	-0.493334	-0.000022	0.020068
H106	H	-0.266276	0.076965	-0.003512
H107	H	-0.939307	-0.000008	0.133765
H108	H	-0.593985	-0.000048	-0.211562
H109	H	-0.734278	0.804218	-0.178382
C110	C	-0.955311	-0.000018	0.277967
H111	H	-0.993482	-0.000007	0.251072
H112	H	-0.957539	-0.042247	0.306575
H113	H	-0.957513	0.042218	0.306586
H114	H	-0.907248	-0.077024	0.485019
H115	H	-0.733183	0.076956	0.330051
H116	H	-0.932755	-0.000047	0.580651
H117	H	-0.930826	-0.000071	0.712077
C118	C	-0.717247	0.089063	0.469974
H119	H	-0.688824	0.114326	0.434160
H120	H	-0.740837	0.123179	0.501459
H121	H	-0.688792	0.058467	0.494471
H122	H	-0.734241	0.334007	-0.178370
H123	H	-0.707682	-0.000032	0.234423
C124	C	-0.691671	-0.000027	0.090210
H125	H	-0.701447	-0.000028	0.043091
H126	H	-0.665476	0.042199	0.098607
H127	H	-0.665498	-0.042266	0.098587
H128	H	-0.906167	0.333994	-0.006551
C129	C	-0.720735	0.655036	-0.191914
H130	H	-0.692525	0.688653	-0.220121
H131	H	-0.691899	0.625313	-0.167003
H132	H	-0.745632	0.625287	-0.220765
H133	H	-0.837110	0.569130	0.022349
C134	C	-0.839753	0.419946	0.040432
H135	H	-0.845391	0.453566	0.078122
H136	H	-0.880139	0.390115	0.041901
H137	H	-0.800025	0.390306	0.044222
H138	H	-0.803346	0.569076	-0.207290
H139	H	-0.906199	0.804205	-0.006556
H140	H	-0.803319	0.430793	-0.207288
