data_functionalizedCrystal
_audit_creation_method	'MofGen! by Chris Wilmer'
_symmetry_space_group_name_H-M	'P1'
_symmetry_Int_Tables_number	1
_symmetry_cell_setting	triclinic
loop_
_symmetry_equiv_pos_as_xyz
  x,y,z
_cell_length_a	6.817900
_cell_length_b	19.551786
_cell_length_c	11.168136
_cell_angle_alpha	94.548232
_cell_angle_beta	108.508683
_cell_angle_gamma	101.662645
loop_
_atom_site_label
_atom_site_type_symbol
_atom_site_fract_x
_atom_site_fract_y
_atom_site_fract_z
V1	V	-4.075375	-0.096685	-0.394285
O2	O	-4.071121	0.004635	-0.386177
O3	O	-4.017751	-0.191700	-0.392169
O4	O	-4.052194	-0.095202	-0.565982
O5	O	-4.036439	-0.092530	-0.211160
V6	V	-4.556930	-0.084565	-0.372312
O7	O	-4.340950	-0.123270	-0.442487
O8	O	-4.741552	-0.057980	-0.324111
O9	O	-4.391347	0.010449	-0.374428
O10	O	-4.678581	-0.185886	-0.380421
O11	O	-4.713262	-0.088720	-0.555437
O12	O	-4.356904	-0.086048	-0.200615
C13	C	-3.859692	-0.214862	-0.386099
C14	C	-3.894033	-0.292538	-0.385513
C15	C	-4.087203	-0.842291	-0.265740
C16	C	-4.054915	-0.769305	-0.266278
C17	C	-4.093115	-0.742749	-0.382173
C18	C	-4.163557	-0.789185	-0.497537
C19	C	-4.195822	-0.862169	-0.496995
C20	C	-4.201412	-0.637090	-0.476446
C21	C	-4.169158	-0.564107	-0.476983
C22	C	-3.993592	-0.517642	-0.383849
C23	C	-3.850300	-0.544168	-0.290156
C24	C	-3.882565	-0.617152	-0.289614
C25	C	-4.058134	-0.663611	-0.382773
C26	C	-3.888133	-0.392076	-0.269074
C27	C	-3.855834	-0.319088	-0.269616
C28	C	-3.964499	-0.338971	-0.500880
C29	C	-3.996775	-0.411956	-0.500334
C30	C	-3.958598	-0.438504	-0.384428
C31	C	-3.903627	-0.091769	-0.607813
C32	C	-3.965897	-0.091186	-0.748180
C33	C	-4.167315	-0.094240	-0.816890
C34	C	-4.231678	-0.093637	-0.961967
C35	C	-4.212747	0.033608	-0.380495
C36	C	-4.157645	0.111283	-0.381089
C37	C	-4.168812	-0.089483	-0.158777
C38	C	-4.085781	-0.090063	-0.018409
H39	H	-3.707339	-0.506338	-0.214318
H40	H	-4.292104	-0.097296	-0.768310
H41	H	-3.857032	-0.413692	-0.174696
C42	C	-4.464779	-0.097167	-1.041750
H43	H	-4.477455	-0.096294	-1.128789
H44	H	-4.553985	-0.139625	-1.034632
H45	H	-4.506695	-0.057748	-1.011060
H46	H	-3.798462	-0.281288	-0.175681
H47	H	-3.913231	-0.087453	-0.959352
H48	H	-3.995592	-0.317350	-0.595244
H49	H	-4.054147	-0.449758	-0.594265
C50	C	-4.326766	-0.534934	-0.580041
H51	H	-4.435924	-0.573059	-0.635446
H52	H	-4.388305	-0.504586	-0.540287
H53	H	-4.253299	-0.509170	-0.627992
H54	H	-4.056108	-0.863901	-0.171360
C55	C	-3.977478	-0.718228	-0.139391
H56	H	-3.959387	-0.744493	-0.070287
H57	H	-3.845386	-0.686991	-0.129962
H58	H	-4.079935	-0.691699	-0.139638
C59	C	-4.273332	-0.913240	-0.623886
H60	H	-4.291471	-0.886975	-0.692990
H61	H	-4.170938	-0.939786	-0.623673
H62	H	-4.405446	-0.944463	-0.633288
H63	H	-4.344379	-0.674917	-0.552295
C64	C	-4.205556	-0.759976	-0.625018
H65	H	-4.176264	-0.709860	-0.608821
H66	H	-4.115904	-0.773679	-0.667619
H67	H	-4.350426	-0.778364	-0.677257
H68	H	-3.841103	-0.088120	-0.796758
H69	H	-3.765887	-0.638747	-0.213329
