data_functionalizedCrystal
_audit_creation_method	'MofGen! by Chris Wilmer'
_symmetry_space_group_name_H-M	'P1'
_symmetry_Int_Tables_number	1
_symmetry_cell_setting	triclinic
loop_
_symmetry_equiv_pos_as_xyz
  x,y,z
_cell_length_a	14.853569
_cell_length_b	14.853567
_cell_length_c	13.330367
_cell_angle_alpha	89.999156
_cell_angle_beta	90.005194
_cell_angle_gamma	96.364624
loop_
_atom_site_label
_atom_site_type_symbol
_atom_site_fract_x
_atom_site_fract_y
_atom_site_fract_z
O1	O	-1.196368	0.117713	-0.083360
O2	O	-0.933908	0.131732	-0.083373
O3	O	-1.072149	-0.006507	-0.083369
O4	O	-1.058127	0.255952	-0.083364
O5	O	-1.072129	-0.006510	0.083478
O6	O	-0.933888	0.131729	0.083474
O7	O	-1.196348	0.117710	0.083487
Cu8	Cu	-1.065116	0.124719	0.098715
Cu9	Cu	-1.065140	0.124723	-0.098601
O10	O	-1.058107	0.255949	0.083483
C11	C	-0.900310	0.131095	0.000049
C12	C	-0.800226	0.129191	0.000043
C13	C	-0.763850	0.046180	0.000038
C14	C	-0.742560	0.210412	0.000052
C15	C	-0.648526	0.208626	0.000053
C16	C	-0.612149	0.125615	0.000047
C17	C	-0.669807	0.044390	0.000041
C18	C	-0.590861	0.289848	0.000069
C19	C	-0.496821	0.288065	0.000071
C20	C	-0.460443	0.205053	0.000058
C21	C	-0.518107	0.123825	0.000051
C22	C	-0.481730	0.040814	0.000045
C23	C	-0.539393	-0.040414	0.000031
C24	C	-0.633429	-0.038622	0.000029
C25	C	-0.366407	0.203260	0.000060
C26	C	-0.387688	0.039025	0.000049
C27	C	-1.071503	-0.040097	0.000051
C28	C	-1.069599	-0.140181	0.000043
C29	C	-0.979434	-0.552716	0.000057
C30	C	-1.143667	-0.573995	0.000065
C31	C	-1.145457	-0.479962	0.000060
C32	C	-1.064234	-0.422300	0.000054
C33	C	-0.981222	-0.458673	0.000055
C34	C	-1.228468	-0.443582	0.000069
C35	C	-1.230261	-0.349543	0.000065
C36	C	-1.149038	-0.291880	0.000052
C37	C	-1.066022	-0.328258	0.000051
C38	C	-0.984799	-0.270596	0.000046
C39	C	-0.901782	-0.306972	0.000038
C40	C	-0.899998	-0.401010	0.000042
C41	C	-1.150822	-0.197842	0.000048
C42	C	-0.986587	-0.176554	0.000043
C43	C	-0.229946	0.118346	0.000061
C44	C	-0.330030	0.120249	0.000055
C45	C	-1.058753	0.289539	0.000061
C46	C	-1.060656	0.389623	0.000063
N47	N	-1.065106	0.124716	0.237497
N48	N	-1.065157	0.124719	-0.237382
C49	C	-1.003924	0.185911	0.710118
C50	C	-1.126380	0.063528	0.710089
C51	C	-1.126369	0.063525	0.605071
C52	C	-1.065137	0.124717	0.552571
C53	C	-1.003914	0.185912	0.605090
C54	C	-1.187597	0.002337	0.552544
C55	C	-1.187590	0.002332	0.447520
C56	C	-1.126352	0.063521	0.395018
C57	C	-1.065126	0.124718	0.447543
C58	C	-1.003894	0.185910	0.395043
C59	C	-0.942663	0.247104	0.447567
C60	C	-0.942676	0.247101	0.552588
C61	C	-1.126339	0.063524	0.289996
C62	C	-1.003883	0.185911	0.290015
H63	H	-0.680385	-0.104753	0.000019
C64	C	-0.827267	-0.043167	0.000016
H65	H	-0.792131	-0.092859	0.000005
H66	H	-0.864399	-0.045895	0.058192
H67	H	-0.864388	-0.045875	-0.058182
C68	C	-0.782572	0.301716	0.000059
H69	H	-0.846836	0.291148	0.000052
H70	H	-0.762784	0.335162	0.058243
H71	H	-0.762794	0.335164	-0.058131
C72	C	-0.630872	0.381153	0.000070
H73	H	-0.583064	0.429272	0.000086
H74	H	-0.667112	0.385265	-0.058118
H75	H	-0.667115	0.385260	0.058256
C76	C	-1.317806	-0.507003	0.000075
H77	H	-1.367502	-0.471873	0.000088
H78	H	-1.320528	-0.544129	-0.058109
H79	H	-1.320511	-0.544130	0.058264
H80	H	-0.449880	0.354206	0.000080
H81	H	-0.835651	-0.260012	0.000041
H82	H	-1.176238	0.013711	0.752838
H83	H	-1.297858	-0.319934	0.000070
C84	C	-0.302984	0.292599	0.000070
H85	H	-0.338117	0.342293	0.000069
H86	H	-0.265849	0.295311	0.058250
H87	H	-0.265866	0.295318	-0.058123
H88	H	-0.892810	0.296931	0.404809
H89	H	-0.954069	0.235732	0.752885
H90	H	-0.509762	-0.108002	0.000020
H91	H	-0.920444	-0.129611	0.000034
H92	H	-1.237455	-0.047480	0.595293
H93	H	-1.218413	-0.168229	0.000061
H94	H	-0.832410	-0.430636	0.000037
C95	C	-0.888122	-0.592724	0.000053
H96	H	-0.898686	-0.656988	0.000060
H97	H	-0.854681	-0.572938	-0.058130
H98	H	-0.854673	-0.572939	0.058244
H99	H	-1.209794	-0.620948	0.000078
H100	H	-0.954017	0.235738	0.247276
H101	H	-0.892825	0.296923	0.595359
C102	C	-1.254931	-0.064984	0.389753
H103	H	-1.291395	-0.101431	0.436063
H104	H	-1.292493	-0.032490	0.348768
H105	H	-1.222443	-0.102577	0.348800
H106	H	-1.176196	0.013705	0.247237
H107	H	-0.358078	-0.028573	0.000039
