data_functionalizedCrystal
_audit_creation_method	'MofGen! by Chris Wilmer'
_symmetry_space_group_name_H-M	'P1'
_symmetry_Int_Tables_number	1
_symmetry_cell_setting	triclinic
loop_
_symmetry_equiv_pos_as_xyz
  x,y,z
_cell_length_a	16.959455
_cell_length_b	12.645330
_cell_length_c	16.959447
_cell_angle_alpha	90.026070
_cell_angle_beta	90.014322
_cell_angle_gamma	90.014639
loop_
_atom_site_label
_atom_site_type_symbol
_atom_site_fract_x
_atom_site_fract_y
_atom_site_fract_z
Zn1	Zn	1.208397	-0.422105	0.446932
Zn2	Zn	1.708397	0.077895	0.946932
Zn3	Zn	1.208325	-0.599396	0.314763
Zn4	Zn	1.708325	-0.099396	0.814763
Zn5	Zn	1.076225	-0.422138	0.314770
Zn6	Zn	1.576225	0.077862	0.814770
Zn7	Zn	1.076195	-0.599317	0.446902
Zn8	Zn	1.576195	-0.099317	0.946902
O9	O	1.142286	-0.510739	0.380842
O10	O	1.642286	-0.010739	0.880842
O11	O	1.318998	-0.445642	0.429410
O12	O	1.818998	0.054358	0.929410
O13	O	1.190784	-0.575930	0.204153
O14	O	1.690784	-0.075930	0.704153
O15	O	1.093801	-0.273786	0.332316
O16	O	1.593801	0.226214	0.832316
O17	O	1.318945	-0.575898	0.332306
O18	O	1.818945	-0.075898	0.832306
O19	O	1.190907	-0.273762	0.429416
O20	O	1.690907	0.226238	0.929416
O21	O	1.093731	-0.445699	0.204158
O22	O	1.593731	0.054301	0.704158
O23	O	0.965610	-0.445622	0.332287
O24	O	1.465610	0.054378	0.832287
O25	O	1.093750	-0.575763	0.557517
O26	O	1.593750	-0.075763	1.057517
O27	O	0.965589	-0.575795	0.429364
O28	O	1.465589	-0.075795	0.929364
O29	O	1.190878	-0.445565	0.557539
O30	O	1.690878	0.054435	1.057539
O31	O	1.190755	-0.747733	0.332277
O32	O	1.690755	-0.247733	0.832277
O33	O	1.093680	-0.747675	0.429358
O34	O	1.593680	-0.247675	0.929358
C35	C	0.936919	-0.510704	0.380824
C36	C	1.436919	-0.010704	0.880824
C37	C	0.849063	-0.510715	0.380835
C38	C	1.349063	-0.010715	0.880835
C39	C	1.142228	-0.786169	0.380831
C40	C	1.642228	-0.286169	0.880831
C41	C	1.142276	-0.903999	0.380852
C42	C	1.642276	-0.403999	0.880852
C43	C	0.477574	-0.442903	0.330399
C44	C	0.977574	0.057097	0.830399
C45	C	0.477600	-0.578663	0.431329
C46	C	0.977600	-0.078663	0.931329
C47	C	0.560146	-0.578648	0.431325
C48	C	1.060146	-0.078648	0.931325
C49	C	0.601410	-0.510760	0.380855
C50	C	1.101410	-0.010760	0.880855
C51	C	0.560128	-0.442888	0.330391
C52	C	1.060128	0.057112	0.830391
C53	C	0.601434	-0.646526	0.481782
C54	C	1.101434	-0.146526	0.981782
C55	C	0.683985	-0.646515	0.481779
C56	C	1.183985	-0.146515	0.981779
C57	C	0.725251	-0.578621	0.431313
C58	C	1.225251	-0.078621	0.931313
C59	C	0.683963	-0.510745	0.380847
C60	C	1.183963	-0.010745	0.880847
C61	C	0.725227	-0.442857	0.330378
C62	C	1.225227	0.057143	0.830378
C63	C	0.683941	-0.374975	0.279916
C64	C	1.183941	0.125025	0.779916
C65	C	0.601393	-0.374994	0.279925
C66	C	1.101393	0.125006	0.779925
C67	C	0.807799	-0.578602	0.431304
C68	C	1.307799	-0.078602	0.931304
C69	C	0.807781	-0.442842	0.330370
C70	C	1.307781	0.057158	0.830370
C71	C	1.081458	-1.071570	0.442115
C72	C	1.581458	-0.571570	0.942115
C73	C	1.081147	-0.949011	0.441918
C74	C	1.581147	-0.449011	0.941918
C75	C	1.119734	-0.948594	0.297551
C76	C	1.619734	-0.448594	0.797551
C77	C	1.119363	-1.071192	0.297922
C78	C	1.619363	-0.571192	0.797922
C79	C	1.226007	-1.071094	0.402216
C80	C	1.726007	-0.571094	0.902216
C81	C	1.225494	-0.948487	0.404038
C82	C	1.725494	-0.448487	0.904038
C83	C	1.348454	-0.510775	0.380860
C84	C	1.848454	-0.010775	0.880860
C85	C	1.436310	-0.510790	0.380868
C86	C	1.936310	-0.010790	0.880868
C87	C	1.142319	-0.510651	0.587010
C88	C	1.642319	-0.010651	1.087010
C89	C	1.142333	-0.510614	0.674867
C90	C	1.642333	-0.010614	1.174867
C91	C	1.142365	-0.234234	0.380870
C92	C	1.642365	0.265766	0.880870
C93	C	1.142399	-0.116404	0.380882
C94	C	1.642399	0.383596	0.880882
C95	C	1.142298	-0.510750	0.175475
C96	C	1.642298	-0.010750	0.675475
C97	C	1.142437	-0.510489	0.087619
C98	C	1.642437	-0.010489	0.587619
C99	C	1.091857	-0.578290	1.046333
C100	C	1.591857	-0.078290	1.546333
C101	C	1.192997	-0.442715	1.046352
C102	C	1.692997	0.057285	1.546352
C103	C	1.192976	-0.442737	0.963806
C104	C	1.692976	0.057263	1.463806
C105	C	1.142395	-0.510538	0.922520
C106	C	1.642395	-0.010538	1.422520
C107	C	1.091836	-0.578317	0.963780
C108	C	1.591836	-0.078317	1.463780
C109	C	1.243540	-0.374967	0.922539
C110	C	1.743540	0.125033	1.422539
C111	C	1.243522	-0.374988	0.839988
C112	C	1.743522	0.125012	1.339988
C113	C	1.192937	-0.442784	0.798701
C114	C	1.692937	0.057216	1.298701
C115	C	1.142375	-0.510565	0.839966
C116	C	1.642375	-0.010565	1.339966
C117	C	1.091794	-0.578366	0.798680
C118	C	1.591794	-0.078366	1.298680
C119	C	1.041227	-0.646142	0.839944
C120	C	1.541227	-0.146142	1.339944
C121	C	1.041251	-0.646113	0.922492
C122	C	1.541251	-0.146113	1.422492
C123	C	1.192913	-0.442813	0.716153
C124	C	1.692913	0.057187	1.216153
C125	C	1.091773	-0.578393	0.716127
C126	C	1.591773	-0.078393	1.216127
H127	H	0.841372	-0.387553	0.289276
H128	H	1.341372	0.112447	0.789276
H129	H	1.000048	-0.701350	0.806318
H130	H	1.500048	-0.201350	1.306318
H131	H	0.717549	-0.319706	0.238821
H132	H	1.217549	0.180294	0.738821
H133	H	0.717593	-0.701788	0.522869
H134	H	1.217593	-0.201788	1.022869
H135	H	1.019163	-0.919772	0.427784
H136	H	1.519163	-0.419772	0.927784
H137	H	0.443998	-0.633940	0.472414
H138	H	0.943998	-0.133940	0.972414
H139	H	1.050685	-0.633468	1.079934
H140	H	1.550685	-0.133468	1.579934
H141	H	0.567771	-0.319729	0.238841
H142	H	1.067771	0.180271	0.738841
H143	H	1.284725	-0.319774	0.956160
H144	H	1.784725	0.180226	1.456160
H145	H	1.162714	-0.919440	0.250681
H146	H	1.662714	-0.419440	0.750681
H147	H	1.019862	-1.102467	0.428161
H148	H	1.519862	-0.602467	0.928161
H149	H	1.234086	-0.387634	0.682559
H150	H	1.734086	0.112366	1.182559
H151	H	1.050577	-0.633596	0.682518
H152	H	1.550577	-0.133596	1.182518
H153	H	1.234182	-0.387520	1.079971
H154	H	1.734182	0.112480	1.579971
H155	H	1.161824	-1.100854	0.250744
H156	H	1.661824	-0.600854	0.750744
H157	H	1.284696	-0.319800	0.806398
H158	H	1.784696	0.180200	1.306398
H159	H	1.242493	-0.919336	0.465343
H160	H	1.742493	-0.419336	0.965343
H161	H	0.443956	-0.387632	0.289316
H162	H	0.943956	0.112368	0.789316
H163	H	1.271410	-1.100086	0.357618
H164	H	1.771410	-0.600086	0.857618
H165	H	1.000085	-0.701296	0.956097
H166	H	1.500085	-0.201296	1.456097
H167	H	0.567831	-0.701804	0.522866
H168	H	1.067831	-0.201804	1.022866
H169	H	0.841410	-0.633874	0.472387
H170	H	1.341410	-0.133874	0.972387
H171	H	1.095430	-1.100982	0.504085
H172	H	1.595430	-0.600982	1.004085
H173	H	1.095249	-0.918856	0.503685
H174	H	1.595249	-0.418856	1.003685
H175	H	1.059254	-0.917979	0.279151
H176	H	1.559254	-0.417979	0.779151
H177	H	1.246571	-1.101937	0.461927
H178	H	1.746571	-0.601937	0.961927
H179	H	1.058245	-1.099880	0.279850
H180	H	1.558245	-0.599880	0.779850
H181	H	1.273288	-0.917841	0.362687
H182	H	1.773288	-0.417841	0.862687
