data_functionalizedCrystal
_audit_creation_method	'MofGen! by Chris Wilmer'
_symmetry_space_group_name_H-M	'P1'
_symmetry_Int_Tables_number	1
_symmetry_cell_setting	triclinic
loop_
_symmetry_equiv_pos_as_xyz
  x,y,z
_cell_length_a	10.723024
_cell_length_b	9.065218
_cell_length_c	7.540329
_cell_angle_alpha	90.005135
_cell_angle_beta	89.997572
_cell_angle_gamma	95.258089
loop_
_atom_site_label
_atom_site_type_symbol
_atom_site_fract_x
_atom_site_fract_y
_atom_site_fract_z
O1	O	0.182985	-1.959359	-0.147568
O2	O	0.682985	-1.459359	0.352432
O3	O	0.197994	-1.529989	-0.147551
O4	O	0.697994	-1.029989	0.352449
O5	O	0.008954	-1.754578	-0.147554
O6	O	0.508954	-1.254578	0.352446
O7	O	0.372026	-1.734770	-0.147566
O8	O	0.872026	-1.234770	0.352434
O9	O	0.008951	-1.754565	0.147411
O10	O	0.508951	-1.254565	0.647411
O11	O	0.197992	-1.529976	0.147414
O12	O	0.697992	-1.029976	0.647414
O13	O	0.182983	-1.959346	0.147397
O14	O	0.682983	-1.459346	0.647397
Cu15	Cu	0.190487	-1.744660	0.174338
Cu16	Cu	0.690487	-1.244660	0.674338
Cu17	Cu	0.190490	-1.744675	-0.174493
Cu18	Cu	0.690490	-1.244675	0.325507
O19	O	0.372023	-1.734757	0.147399
O20	O	0.872023	-1.234757	0.647399
C21	C	0.196550	-1.475004	-0.000067
C22	C	0.696550	-0.975004	0.499933
C23	C	0.192237	-1.311186	-0.000060
C24	C	0.692237	-0.811186	0.499940
C25	C	-0.037553	-1.753130	-0.000073
C26	C	0.462447	-1.253130	0.499927
C27	C	-0.176125	-1.748817	-0.000079
C28	C	0.323875	-1.248817	0.499921
C29	C	-0.250597	-1.874486	-0.000087
C30	C	0.249403	-1.374486	0.499913
C31	C	-0.393818	-1.870031	-0.000093
C32	C	0.106182	-1.370031	0.499907
C33	C	0.418530	-1.736205	-0.000085
C34	C	0.918530	-1.236205	0.499915
C35	C	0.557102	-1.740518	-0.000091
C36	C	1.057102	-1.240518	0.499909
N37	N	0.190484	-1.744659	0.419686
N38	N	0.690484	-1.244659	0.919686
C39	C	0.184426	-1.014331	-0.000081
C40	C	0.684426	-0.514331	0.499919
C41	C	0.188739	-1.178149	-0.000066
C42	C	0.688739	-0.678149	0.499934
N43	N	0.190483	-1.744688	-0.419841
N44	N	0.690483	-1.244688	0.080159
H45	H	-0.208324	-1.985372	-0.000080
H46	H	0.291676	-1.485372	0.499920
Cl47	Cl	-0.344108	-1.574404	-0.000067
Cl48	Cl	0.155892	-1.074404	0.499933
H49	H	-0.218397	-1.637930	-0.000087
H50	H	0.281603	-1.137930	0.499913
Cl51	Cl	-0.492616	-2.036139	-0.000089
Cl52	Cl	0.007384	-1.536139	0.499911
