data_functionalizedCrystal
_audit_creation_method	'MofGen! by Chris Wilmer'
_symmetry_space_group_name_H-M	'P1'
_symmetry_Int_Tables_number	1
_symmetry_cell_setting	triclinic
loop_
_symmetry_equiv_pos_as_xyz
  x,y,z
_cell_length_a	35.277769
_cell_length_b	35.288094
_cell_length_c	35.277630
_cell_angle_alpha	120.003129
_cell_angle_beta	89.997109
_cell_angle_gamma	119.999999
loop_
_atom_site_label
_atom_site_type_symbol
_atom_site_fract_x
_atom_site_fract_y
_atom_site_fract_z
O1	O	0.323080	0.334272	0.594406
O2	O	0.267958	0.256671	0.461659
O3	O	0.267955	0.334269	0.539279
O4	O	0.323083	0.256674	0.516785
O5	O	0.204910	0.271240	0.539279
O6	O	0.204913	0.193642	0.461659
O7	O	0.260034	0.271244	0.594406
Cu8	Cu	0.226717	0.226688	0.528032
Cu9	Cu	0.301276	0.301226	0.528032
O10	O	0.260037	0.193646	0.516785
C11	C	0.095972	0.061861	0.089504
C12	C	0.050352	0.015934	0.066586
C13	C	0.095973	0.061859	0.158146
C14	C	0.050353	0.015932	0.135124
C15	C	0.027330	-0.006762	0.089504
C16	C	0.118891	0.084451	0.135124
C17	C	0.207159	0.185443	0.047590
C18	C	0.228916	0.210708	0.025985
C19	C	0.205460	0.189024	-0.019221
C20	C	0.229045	0.216422	-0.042646
C21	C	0.160247	0.142071	-0.042823
C22	C	0.138495	0.116806	-0.021220
C23	C	0.161953	0.138494	0.023988
C24	C	-0.138202	-0.159818	-0.021681
C25	C	-0.185079	-0.203167	-0.043438
C26	C	-0.208596	-0.224913	-0.019985
C27	C	-0.259423	-0.271910	-0.043568
C28	C	-0.185230	-0.203310	0.025228
C29	C	-0.138353	-0.159968	0.046981
C30	C	-0.114842	-0.138222	0.023521
C31	C	0.207163	0.185434	0.323677
C32	C	0.228919	0.210701	0.370555
C33	C	0.205465	0.189015	0.394071
C34	C	0.229051	0.216410	0.444900
C35	C	0.160253	0.142066	0.370708
C36	C	0.138499	0.116803	0.323831
C37	C	0.161960	0.138489	0.300317
C38	C	0.138362	0.111097	0.047411
C39	C	0.119559	0.089258	0.066081
C40	C	0.119561	0.089254	0.208973
C41	C	0.138365	0.111090	0.249488
C42	C	-0.023498	-0.053759	0.065917
C43	C	-0.064013	-0.091221	0.047114
C44	C	0.364513	0.071300	0.504478
C45	C	0.341122	0.024531	0.507697
C46	C	0.410133	0.093995	0.504157
C47	C	0.364514	0.139922	0.504478
C48	C	0.341122	0.166525	0.507697
C49	C	0.410134	0.162513	0.504157
C50	C	0.433156	0.139922	0.504478
C51	C	0.483158	0.166525	0.507697
C52	C	0.341595	0.093995	0.504157
C53	C	0.523554	0.188017	0.510299
C54	C	0.322224	-0.013253	0.510299
C55	C	0.322225	0.188019	0.510299
C56	C	0.574233	0.214981	0.513562
C57	C	0.298515	-0.060655	0.513562
C58	C	0.298517	0.214982	0.513562
C59	C	0.027627	0.466059	0.562174
C60	C	0.050649	0.511986	0.562495
C61	C	0.096269	0.466059	0.562174
C62	C	0.119187	0.511987	0.562495
C63	C	0.096269	0.534682	0.562174
C64	C	0.050649	0.443468	0.562495
C65	C	-0.137904	0.342479	0.549746
C66	C	-0.184781	0.317215	0.546233
C67	C	-0.208297	0.338900	0.544469
C68	C	-0.259126	0.311503	0.540650
C69	C	-0.184931	0.385853	0.546223
C70	C	-0.138057	0.411117	0.549742
C71	C	-0.114543	0.389428	0.551504
C72	C	0.138185	0.687740	0.549746
C73	C	0.159790	0.731090	0.546233
C74	C	0.204995	0.752836	0.544467
C75	C	0.228423	0.799833	0.540650
C76	C	0.228597	0.731231	0.546221
C77	C	0.206996	0.687889	0.549742
C78	C	0.161785	0.666143	0.551502
C79	C	0.138186	0.342480	0.549746
C80	C	0.159790	0.317212	0.546227
C81	C	0.204997	0.338897	0.544463
C82	C	0.228423	0.311501	0.540644
C83	C	0.228597	0.385847	0.546215
C84	C	0.206991	0.411111	0.549732
C85	C	0.161786	0.389425	0.551502
C86	C	-0.063716	0.416825	0.555317
C87	C	-0.023201	0.438663	0.558357
C88	C	0.119693	0.438663	0.558358
C89	C	0.138364	0.416826	0.555317
C90	C	0.119692	0.581679	0.558358
C91	C	0.138363	0.619142	0.555317
O92	O	0.724114	0.334267	0.539279
O93	O	0.591371	0.256672	0.516785
O94	O	0.668988	0.334270	0.594406
O95	O	0.646498	0.256669	0.461659
O96	O	0.668986	0.271242	0.594405
O97	O	0.591370	0.193644	0.516785
O98	O	0.724113	0.271238	0.539279
Cu99	Cu	0.657741	0.226686	0.528032
Cu100	Cu	0.657743	0.301225	0.528032
O101	O	0.646496	0.193640	0.461659
O102	O	-0.408926	-0.397511	-0.074548
O103	O	-0.276183	-0.287296	-0.019427
O104	O	-0.353799	-0.287291	-0.019418
O105	O	-0.331310	-0.397516	-0.074557
O106	O	-0.353801	-0.287289	-0.082464
O107	O	-0.276185	-0.287294	-0.082473
O108	O	-0.408927	-0.397510	-0.137594
Cu109	Cu	-0.342556	-0.342402	-0.115790
Cu110	Cu	-0.342555	-0.342404	-0.041231
O111	O	-0.331312	-0.397514	-0.137603
O112	O	0.323081	0.925434	0.516785
O113	O	0.267953	0.815218	0.539279
O114	O	0.267956	0.815214	0.461659
O115	O	0.323078	0.925438	0.594406
O116	O	0.204911	0.815215	0.461659
O117	O	0.204908	0.815219	0.539279
O118	O	0.260035	0.925436	0.516785
Cu119	Cu	0.226715	0.870327	0.528032
Cu120	Cu	0.301274	0.870326	0.528032
O121	O	0.260032	0.925439	0.594406
O122	O	0.260029	0.271259	-0.137297
O123	O	0.204904	0.193660	-0.082176
O124	O	0.204906	0.271261	-0.082167
O125	O	0.260027	0.193658	-0.137306
O126	O	0.267953	0.334287	-0.019121
O127	O	0.267951	0.256686	-0.019130
O128	O	0.323076	0.334285	-0.074251
Cu129	Cu	0.301270	0.301240	-0.040934
Cu130	Cu	0.226710	0.226705	-0.115493
O131	O	0.323074	0.256684	-0.074260
C132	C	0.433148	0.456628	0.821269
C133	C	0.483149	0.503399	0.844661
C134	C	0.410126	0.433934	0.844188
C135	C	0.364507	0.388002	0.752625
C136	C	0.341117	0.361397	0.702622
C137	C	0.341589	0.365412	0.775648
C138	C	0.364506	0.388005	0.821269
C139	C	0.341115	0.361404	0.844661
C140	C	0.410127	0.433931	0.775648
C141	C	0.322218	0.339912	0.863559
C142	C	0.523545	0.541184	0.863559
C143	C	0.322221	0.339902	0.662224
C144	C	0.298510	0.312949	0.887268
C145	C	0.574223	0.588588	0.887267
C146	C	0.298514	0.312936	0.611544
C147	C	0.681279	0.387994	0.821266
C148	C	0.678074	0.361399	0.844661
C149	C	0.681580	0.433909	0.844180
C150	C	0.681272	0.387988	0.752620
C151	C	0.678060	0.361387	0.702619
C152	C	0.681573	0.433903	0.775638
C153	C	0.681246	0.456595	0.821258
C154	C	0.678005	0.503351	0.844644
C155	C	0.681606	0.365406	0.775647
C156	C	0.675387	0.541123	0.863537
C157	C	0.675484	0.339913	0.863562
C158	C	0.675464	0.339895	0.662222
C159	C	0.672102	0.588511	0.887240
C160	C	0.672235	0.312959	0.887274
C161	C	0.672208	0.312934	0.611543
C162	C	0.364508	1.139938	0.821270
C163	C	0.341118	1.166543	0.844663
C164	C	0.410127	1.162528	0.844188
C165	C	0.364508	1.071311	0.752625
C166	C	0.341117	1.024540	0.702622
C167	C	0.410127	1.094005	0.775647
C168	C	0.433149	1.139935	0.821268
C169	C	0.483150	1.166537	0.844660
C170	C	0.341590	1.094008	0.775649
C171	C	0.523546	1.188029	0.863557
C172	C	0.322221	1.188038	0.863562
C173	C	0.322220	0.986754	0.662224
C174	C	0.574224	1.214992	0.887265
C175	C	0.298513	1.215004	0.887271
C176	C	0.298512	0.939350	0.611544
C177	C	0.623613	-0.006501	0.089493
C178	C	0.623293	0.016192	0.066574
C179	C	0.623611	0.062126	0.158137
C180	C	0.623292	0.084715	0.135113
C181	C	0.623614	0.062121	0.089492
C182	C	0.623291	0.016197	0.135115
C183	C	0.636038	-0.159563	0.047580
C184	C	0.639552	-0.202915	0.025975
C185	C	0.641317	-0.224663	-0.019234
C186	C	0.645135	-0.271662	-0.042659
C187	C	0.639565	-0.203060	-0.042837
C188	C	0.636045	-0.159716	-0.021234
C189	C	0.634282	-0.137968	0.023977
C190	C	0.636046	0.116440	-0.021702
C191	C	0.639561	0.141551	-0.043461
C192	C	0.641327	0.188509	-0.020008
C193	C	0.645145	0.215743	-0.043593
C194	C	0.639572	0.210354	0.025207
C195	C	0.636049	0.185240	0.046962
C196	C	0.634289	0.138281	0.023503
C197	C	0.636033	0.116465	0.323673
C198	C	0.639552	0.141583	0.370553
C199	C	0.641316	0.188542	0.394069
C200	C	0.645133	0.215781	0.444900
C201	C	0.639565	0.210382	0.370704
C202	C	0.636049	0.185263	0.323826
C203	C	0.634279	0.138300	0.300313
C204	C	0.630470	-0.090965	0.047400
C205	C	0.627429	-0.053500	0.066070
C206	C	0.627426	0.089361	0.208966
C207	C	0.630466	0.111069	0.249482
C208	C	0.627432	0.089351	0.065902
C209	C	0.630474	0.111055	0.047098
O210	O	0.646548	0.256708	0.980884
O211	O	0.669005	0.334290	0.925753
O212	O	0.591402	0.256673	0.925748
O213	O	0.724150	0.334324	0.980889
O214	O	0.591426	0.193660	0.862705
O215	O	0.669029	0.271276	0.862711
O216	O	0.646572	0.193694	0.917841
Cu217	Cu	0.657803	0.226732	0.884520
Cu218	Cu	0.657774	0.301252	0.959075
O219	O	0.724175	0.271311	0.917847
C220	C	0.027644	0.466039	0.089492
C221	C	0.050667	0.443446	0.066574
C222	C	0.096284	0.534664	0.158137
C223	C	0.119203	0.511968	0.135115
C224	C	0.096286	0.466038	0.089493
C225	C	0.050664	0.511968	0.135113
C226	C	-0.137886	0.411710	0.047572
C227	C	-0.184762	0.386598	0.025966
C228	C	-0.208276	0.339638	-0.019243
C229	C	-0.259104	0.312402	-0.042669
C230	C	-0.184910	0.317796	-0.042844
C231	C	-0.138036	0.342912	-0.021240
C232	C	-0.114524	0.389871	0.023971
C233	C	0.138206	0.342454	-0.021695
C234	C	0.159812	0.317189	-0.043453
C235	C	0.205016	0.338871	-0.019998
C236	C	0.228444	0.311477	-0.043582
C237	C	0.228616	0.385826	0.025216
C238	C	0.207014	0.411095	0.046970
C239	C	0.161804	0.389401	0.023509
C240	C	0.138193	0.687731	0.323672
C241	C	0.159795	0.731079	0.370552
C242	C	0.205001	0.752825	0.394069
C243	C	0.228425	0.799825	0.444900
C244	C	0.228602	0.731219	0.370706
C245	C	0.206998	0.687870	0.323828
C246	C	0.161794	0.666132	0.300313
C247	C	-0.063697	0.417100	0.047395
C248	C	-0.023183	0.438806	0.066067
C249	C	0.119705	0.581664	0.208966
C250	C	0.138374	0.619129	0.249482
C251	C	0.119710	0.438641	0.065906
C252	C	0.138382	0.416802	0.047103
H253	H	0.101689	0.078572	0.304810
O254	O	0.296852	0.321366	0.753672
C255	C	0.268639	0.333360	0.778513
H256	H	0.290891	0.368571	0.816186
H257	H	0.251480	0.344306	0.762262
C258	C	0.203614	0.240862	0.730443
C259	C	0.230942	0.284107	0.776714
H260	H	0.180359	0.210480	0.729332
H261	H	0.222620	0.232781	0.713706
H262	H	0.189319	0.249991	0.716906
H263	H	0.245241	0.274980	0.790249
H264	H	0.211937	0.292185	0.793454
H265	H	0.428612	0.074993	0.503632
H266	H	0.428611	0.452932	0.881672
H267	H	0.428607	1.075004	0.757162
O268	O	0.094243	0.666547	0.551383
C269	C	0.065026	0.612154	0.513539
H270	H	0.080811	0.604765	0.484594
H271	H	0.061207	0.585948	0.525220
C272	C	-0.002440	0.607194	0.531067
C273	C	0.016946	0.598120	0.495516
H274	H	-0.032098	0.598536	0.519951
H275	H	0.017244	0.643839	0.556565
H276	H	-0.005618	0.585355	0.540799
H277	H	0.020130	0.619964	0.485789
H278	H	-0.002738	0.561478	0.470016
H279	H	0.304111	0.074998	0.503640
H280	H	0.140593	0.278957	-0.080265
O281	O	0.229973	0.666967	0.301126
C282	C	0.270843	0.706921	0.302071
H283	H	0.266896	0.739283	0.307536
H284	H	0.301524	0.725497	0.331712
C285	C	0.284224	0.642006	0.248967
C286	C	0.279374	0.681751	0.255675
H287	H	0.289488	0.626481	0.220350
H288	H	0.256690	0.615089	0.248332
H289	H	0.309791	0.657492	0.273672
H290	H	0.253805	0.666264	0.230974
H291	H	0.306904	0.708666	0.256305
H292	H	0.428608	1.199485	0.881673
H293	H	0.304108	1.075017	0.757167
H294	H	0.622779	0.121675	0.153599
H295	H	0.032178	0.530962	0.153595
O296	O	0.622701	-0.006521	0.021863
C297	C	0.622483	-0.052013	0.006479
H298	H	0.637465	-0.048373	0.037699
H299	H	0.585331	-0.089550	-0.013583
C300	C	0.633792	-0.060383	-0.063743
C301	C	0.652197	-0.055912	-0.025398
H302	H	0.652119	-0.062791	-0.083408
H303	H	0.633938	-0.029736	-0.053380
H304	H	0.602833	-0.091664	-0.080456
H305	H	0.683153	-0.024628	-0.008683
H306	H	0.652057	-0.086554	-0.035759
H307	H	0.682096	0.452903	0.881665
H308	H	0.622767	-0.002802	0.153595
O309	O	0.641227	0.120285	0.393174
C310	C	0.638923	0.073458	0.362370
H311	H	0.621840	0.056419	0.325114
H312	H	0.675493	0.083567	0.367150
C313	C	0.631067	0.052594	0.418352
C314	C	0.610081	0.031664	0.372593
H315	H	0.613278	0.026814	0.424659
H316	H	0.632621	0.084143	0.439106
H317	H	0.661541	0.061018	0.422329
H318	H	0.579610	0.023247	0.368618
H319	H	0.608522	0.000112	0.351839
H320	H	0.032183	0.406488	0.029089
H321	H	0.634622	0.203048	0.304805
O322	O	0.682317	0.321381	0.753583
C323	C	0.722536	0.333402	0.740755
H324	H	0.735479	0.368596	0.738286
H325	H	0.750655	0.344388	0.767976
C326	C	0.695106	0.240927	0.696338
C327	C	0.711001	0.284150	0.693302
H328	H	0.687991	0.210546	0.667068
H329	H	0.668010	0.232828	0.704982
H330	H	0.718541	0.250089	0.719025
H331	H	0.687564	0.274990	0.670620
H332	H	0.738092	0.292246	0.684653
O333	O	0.634241	0.070799	0.300791
C334	C	0.592328	0.028992	0.263095
H335	H	0.565508	0.038445	0.269879
H336	H	0.598682	0.024904	0.229978
C337	C	0.607133	-0.035537	0.249157
C338	C	0.574190	-0.023928	0.257491
H339	H	0.595945	-0.068180	0.245699
H340	H	0.635371	-0.007370	0.274552
H341	H	0.612425	-0.038939	0.221561
H342	H	0.568903	-0.020518	0.285090
H343	H	0.545950	-0.052095	0.232101
O344	O	0.634306	-0.138521	0.091488
C345	C	0.636616	-0.166875	0.107690
H346	H	0.624545	-0.208511	0.076845
H347	H	0.673934	-0.144313	0.129552
C348	C	0.619859	-0.120946	0.175410
C349	C	0.605030	-0.172085	0.137525
H350	H	0.600377	-0.124158	0.193815
H351	H	0.618305	-0.101841	0.164496
H352	H	0.650958	-0.102149	0.193622
H353	H	0.573934	-0.190878	0.119310
H354	H	0.606578	-0.191193	0.148437
H355	H	0.141154	0.124419	-0.079631
H356	H	0.156669	0.530975	0.563004
O357	O	0.028646	0.534724	0.563205
C358	C	0.053498	0.587769	0.603407
H359	H	0.075463	0.592166	0.630980
H360	H	0.077063	0.616600	0.594486
C361	C	-0.007836	0.595424	0.588262
C362	C	0.019138	0.600823	0.622129
H363	H	-0.029030	0.603478	0.599809
H364	H	-0.024579	0.559687	0.561175
H365	H	0.011806	0.619451	0.580830
H366	H	-0.000503	0.576792	0.629555
H367	H	0.035877	0.636556	0.649217
H368	H	0.640990	0.123761	-0.080274
H369	H	0.265408	0.748942	0.544789
O370	O	0.641178	-0.223976	0.048851
C371	C	0.603335	-0.278360	0.023748
H372	H	0.574398	-0.285826	0.000492
H373	H	0.615020	-0.304604	0.001442
C374	C	0.620841	-0.283062	0.086436
C375	C	0.585299	-0.292230	0.057876
H376	H	0.609717	-0.291619	0.107487
H377	H	0.646338	-0.246423	0.103348
H378	H	0.630576	-0.304932	0.067843
H379	H	0.575569	-0.270356	0.076468
H380	H	0.559800	-0.328867	0.040967
O381	O	-0.115406	0.456669	0.551361
C382	C	-0.137482	0.446152	0.510615
H383	H	-0.157709	0.401499	0.481775
H384	H	-0.162350	0.458587	0.517588
C385	C	-0.075837	0.533026	0.531069
C386	C	-0.100677	0.478184	0.495645
H387	H	-0.053135	0.552787	0.521835
H388	H	-0.060965	0.540113	0.558521
H389	H	-0.096565	0.543381	0.536876
H390	H	-0.079950	0.467828	0.489843
H391	H	-0.115546	0.471095	0.468192
O392	O	0.028528	0.399370	0.563096
C393	C	-0.016772	0.384179	0.563271
H394	H	-0.018194	0.420257	0.577553
H395	H	-0.042291	0.351014	0.526329
C396	C	-0.028117	0.319337	0.576531
C397	C	-0.029862	0.363651	0.594076
H398	H	-0.036193	0.306672	0.595531
H399	H	0.002402	0.329571	0.576411
H400	H	-0.049383	0.291705	0.545747
H401	H	-0.008592	0.391284	0.624858
H402	H	-0.060378	0.353422	0.594201
O403	O	0.272550	0.406883	0.047932
C404	C	0.301768	0.419552	0.022748
H405	H	0.280023	0.394377	-0.015208
H406	H	0.320684	0.463882	0.037808
C407	C	0.364214	0.438434	0.072786
C408	C	0.337507	0.407510	0.026167
H409	H	0.386261	0.431008	0.074896
H410	H	0.344530	0.429901	0.089754
H411	H	0.379973	0.475373	0.085331
H412	H	0.321744	0.370571	0.013625
H413	H	0.357189	0.416036	0.009197
H414	H	0.140568	0.278979	0.544792
O415	O	0.136812	0.752017	0.393171
C416	C	0.092278	0.723525	0.362366
H417	H	0.092323	0.703358	0.325110
H418	H	0.065819	0.691744	0.367145
C419	C	0.079257	0.787343	0.418345
C420	C	0.079313	0.762578	0.372586
H421	H	0.071258	0.811432	0.424650
H422	H	0.109259	0.806538	0.439100
H423	H	0.057208	0.760854	0.422322
H424	H	0.101366	0.789066	0.368612
H425	H	0.049314	0.743388	0.351831
O426	O	0.229995	0.456687	0.090896
C427	C	0.274532	0.470419	0.106931
H428	H	0.274491	0.433132	0.086719
H429	H	0.300987	0.501646	0.101595
C430	C	0.287549	0.539404	0.183785
C431	C	0.287498	0.493606	0.158962
H432	H	0.295549	0.553710	0.215881
H433	H	0.257545	0.530154	0.172981
H434	H	0.309595	0.565420	0.179333
H435	H	0.265448	0.467589	0.163410
H436	H	0.317499	0.502853	0.169768
O437	O	0.682261	0.456595	0.753597
C438	C	0.722455	0.471948	0.740729
H439	H	0.750043	0.477572	0.763902
H440	H	0.713532	0.439466	0.702966
C441	C	0.707263	0.518088	0.717915
C442	C	0.741149	0.525001	0.746381
H443	H	0.718794	0.550813	0.721399
H444	H	0.680183	0.507743	0.726583
H445	H	0.699830	0.491018	0.686449
H446	H	0.748577	0.552066	0.777846
H447	H	0.768231	0.535352	0.737718
H448	H	0.428616	0.199470	0.503642
O449	O	0.641363	-0.224144	-0.086718
C450	C	0.683279	-0.219922	-0.086616
H451	H	0.710092	-0.186330	-0.050335
H452	H	0.676926	-0.259381	-0.097060
C453	C	0.668493	-0.248643	-0.165964
C454	C	0.701427	-0.207382	-0.121405
H455	H	0.679687	-0.240910	-0.187425
H456	H	0.640252	-0.251490	-0.166035
H457	H	0.663202	-0.281522	-0.174661
H458	H	0.706713	-0.174506	-0.112706
H459	H	0.729669	-0.204530	-0.121334
O460	O	0.432238	0.456665	0.753667
C461	C	0.477532	0.502139	0.783778
H462	H	0.478955	0.517814	0.821285
H463	H	0.503067	0.490745	0.776111
C464	C	0.488846	0.526778	0.730291
C465	C	0.490593	0.546033	0.776359
H466	H	0.496904	0.553853	0.725714
H467	H	0.458332	0.496140	0.710004
H468	H	0.510125	0.517283	0.723908
H469	H	0.469310	0.555521	0.782740
H470	H	0.521104	0.576673	0.796647
O471	O	0.163628	0.128496	0.157205
C472	C	0.191841	0.116503	0.170045
H473	H	0.169591	0.081293	0.172496
H474	H	0.208999	0.105554	0.142839
C475	C	0.256868	0.209000	0.214498
C476	C	0.229540	0.165757	0.217512
H477	H	0.280124	0.239383	0.243777
H478	H	0.237861	0.217080	0.205846
H479	H	0.271162	0.199869	0.191825
H480	H	0.215243	0.174886	0.240181
H481	H	0.248546	0.157680	0.226169
O482	O	0.229987	0.456722	0.551444
C483	C	0.274513	0.470435	0.549117
H484	H	0.285193	0.451594	0.561200
H485	H	0.273806	0.454927	0.511791
C486	C	0.296566	0.554955	0.565836
C487	C	0.309684	0.531818	0.580680
H488	H	0.318261	0.592819	0.585304
H489	H	0.266567	0.545716	0.567402
H490	H	0.295976	0.542026	0.534731
H491	H	0.310268	0.544742	0.611783
H492	H	0.339684	0.541061	0.579120
H493	H	0.265727	0.248937	0.045205
O494	O	0.641343	0.256039	0.393609
C495	C	0.683267	0.297852	0.431289
H496	H	0.697087	0.280159	0.441773
H497	H	0.709844	0.322804	0.420659
C498	C	0.657519	0.355448	0.459773
C499	C	0.674491	0.333718	0.472652
H500	H	0.652107	0.377573	0.485287
H501	H	0.629275	0.327279	0.434386
H502	H	0.679669	0.376238	0.450914
H503	H	0.652339	0.312923	0.481505
H504	H	0.702732	0.361884	0.498041
O505	O	0.094263	0.321328	0.551435
C506	C	0.078068	0.274478	0.549141
H507	H	0.098196	0.257309	0.532051
H508	H	0.083364	0.284598	0.585715
C509	C	0.001312	0.253907	0.541305
C510	C	0.026031	0.232818	0.520311
H511	H	-0.030787	0.228210	0.523523
H512	H	0.012223	0.285472	0.542852
H513	H	0.005731	0.262340	0.571783
H514	H	0.021617	0.224392	0.489836
H515	H	0.015118	0.201250	0.518758
H516	H	-0.118763	0.324815	0.551183
H517	H	-0.203801	0.278985	0.544803
H518	H	-0.204081	0.403506	0.544789
O519	O	0.634318	0.070816	-0.044563
C520	C	0.636631	0.056928	-0.089128
H521	H	0.624559	0.075693	-0.099931
H522	H	0.673951	0.072384	-0.088418
C523	C	0.619882	-0.027519	-0.110906
C524	C	0.605051	-0.004475	-0.124176
H525	H	0.600404	-0.065395	-0.132525
H526	H	0.618325	-0.018162	-0.080881
H527	H	0.650982	-0.014633	-0.110314
H528	H	0.573954	-0.017356	-0.124761
H529	H	0.606602	-0.013836	-0.154201
O530	O	0.641367	0.256019	0.048002
C531	C	0.683284	0.297820	0.052124
H532	H	0.710098	0.288357	0.049444
H533	H	0.676933	0.301910	0.023098
C534	C	0.668495	0.362363	0.102746
C535	C	0.701430	0.350742	0.099459
H536	H	0.679688	0.395008	0.131944
H537	H	0.640254	0.334201	0.099969
H538	H	0.663206	0.365768	0.078555
H539	H	0.706715	0.347331	0.123646
H540	H	0.729672	0.378905	0.102242
H541	H	0.141155	0.124409	0.389857
O542	O	0.634373	0.206543	0.090889
C543	C	0.636675	0.253368	0.106924
H544	H	0.653757	0.270402	0.086708
H545	H	0.600104	0.243257	0.101592
C546	C	0.644532	0.274243	0.183781
C547	C	0.665517	0.295167	0.158953
H548	H	0.662322	0.300027	0.215875
H549	H	0.642980	0.242696	0.172978
H550	H	0.614058	0.265818	0.179333
H551	H	0.695988	0.303586	0.163397
H552	H	0.667075	0.326717	0.169758
O553	O	0.094311	0.666651	0.300788
C554	C	0.094415	0.670872	0.263095
H555	H	0.130694	0.704465	0.269882
H556	H	0.083974	0.631414	0.229977
C557	C	0.015067	0.642148	0.249155
C558	C	0.059624	0.683410	0.257492
H559	H	-0.006395	0.649880	0.245697
H560	H	0.014996	0.639302	0.274548
H561	H	0.006373	0.609270	0.221557
H562	H	0.068320	0.716286	0.285092
H563	H	0.059696	0.686262	0.232103
H564	H	0.634612	-0.142135	-0.040456
H565	H	0.140570	0.748676	0.544803
O566	O	-0.115112	0.457337	0.091481
C567	C	-0.145786	0.471224	0.107681
H568	H	-0.175359	0.452454	0.076835
H569	H	-0.160538	0.455770	0.129542
C570	C	-0.083096	0.555675	0.175402
C571	C	-0.119416	0.532625	0.137516
H572	H	-0.066830	0.593550	0.193808
H573	H	-0.062430	0.546319	0.164489
H574	H	-0.095395	0.542792	0.193614
H575	H	-0.107116	0.545503	0.119302
H576	H	-0.140080	0.541985	0.148427
H577	H	0.156685	0.530963	0.153602
O578	O	0.229979	0.666953	0.551420
C579	C	0.274516	0.695446	0.549121
H580	H	0.274475	0.715611	0.532036
H581	H	0.300970	0.727229	0.585693
C582	C	0.287536	0.631632	0.541269
C583	C	0.287485	0.656395	0.520281
H584	H	0.295537	0.607545	0.523481
H585	H	0.257531	0.612436	0.542819
H586	H	0.309580	0.658122	0.571745
H587	H	0.265436	0.629906	0.489808
H588	H	0.317486	0.675586	0.518724
O589	O	-0.207457	0.407842	0.048843
C590	C	-0.224012	0.420580	0.023741
H591	H	-0.202542	0.426259	0.000485
H592	H	-0.261947	0.386599	0.001436
C593	C	-0.246226	0.465747	0.086432
C594	C	-0.219853	0.472728	0.057870
H595	H	-0.243662	0.497913	0.107483
H596	H	-0.235074	0.457164	0.103343
H597	H	-0.277836	0.437429	0.067839
H598	H	-0.188243	0.501041	0.076462
H599	H	-0.230999	0.481317	0.040963
H600	H	-0.204058	0.279563	-0.079653
O601	O	0.272546	0.752420	0.393544
C602	C	0.301760	0.806811	0.410107
H603	H	0.285973	0.814195	0.388552
H604	H	0.305578	0.833020	0.448004
C605	C	0.369229	0.811780	0.432596
C606	C	0.349841	0.820847	0.406120
H607	H	0.398889	0.820439	0.430140
H608	H	0.349547	0.775135	0.421440
H609	H	0.372407	0.833621	0.464175
H610	H	0.346658	0.799002	0.374542
H611	H	0.369523	0.857488	0.417272
O612	O	-0.115415	0.321612	-0.044222
C613	C	-0.146215	0.274788	-0.088761
H614	H	-0.183471	0.257750	-0.088720
H615	H	-0.141432	0.284900	-0.115216
C616	C	-0.090234	0.253921	-0.101779
C617	C	-0.135993	0.232992	-0.101728
H618	H	-0.083927	0.228140	-0.109780
H619	H	-0.069482	0.285469	-0.071774
H620	H	-0.086254	0.262348	-0.123825
H621	H	-0.139970	0.224572	-0.079678
H622	H	-0.156744	0.201442	-0.131731
H623	H	0.101397	0.324790	-0.040802
H624	H	0.031871	-0.003061	0.153609
H625	H	0.031870	-0.003060	0.029102
O626	O	0.272867	0.256252	0.393208
C627	C	0.303091	0.245732	0.371128
H628	H	0.287264	0.201079	0.350897
H629	H	0.308561	0.258169	0.346262
C630	C	0.369538	0.332604	0.432778
C631	C	0.350100	0.277760	0.407933
H632	H	0.398537	0.352362	0.455480
H633	H	0.349176	0.339692	0.447652
H634	H	0.374092	0.342960	0.412051
H635	H	0.345542	0.267403	0.428659
H636	H	0.370463	0.270671	0.393063
O637	O	0.230022	0.206565	0.091496
C638	C	0.274587	0.253426	0.107696
H639	H	0.285385	0.252156	0.076850
H640	H	0.273882	0.290029	0.129563
C641	C	0.296369	0.258444	0.175410
C642	C	0.309634	0.256882	0.137523
H643	H	0.317988	0.260578	0.193810
H644	H	0.266345	0.226874	0.164496
H645	H	0.295782	0.288946	0.193626
H646	H	0.310216	0.226376	0.119304
H647	H	0.339659	0.288447	0.148434
H648	H	0.226269	0.203096	0.304534
O649	O	0.094570	0.071218	-0.044202
C650	C	0.078534	0.057489	-0.088738
H651	H	0.098748	0.094776	-0.088695
H652	H	0.083865	0.026258	-0.115197
C653	C	0.001681	-0.011487	-0.101754
C654	C	0.026506	0.034311	-0.101700
H655	H	-0.030413	-0.025786	-0.109751
H656	H	0.012484	-0.002239	-0.071750
H657	H	0.006128	-0.037507	-0.123804
H658	H	0.022063	0.060333	-0.079647
H659	H	0.015700	0.025067	-0.131701
O660	O	-0.208037	-0.224342	0.048082
C661	C	-0.207202	-0.184484	0.088942
H662	H	-0.176667	-0.143219	0.099863
H663	H	-0.240972	-0.188342	0.082209
C664	C	-0.239425	-0.242156	0.114505
C665	C	-0.201919	-0.191474	0.127921
H666	H	-0.236168	-0.246469	0.138548
H667	H	-0.239989	-0.269010	0.086976
H668	H	-0.267563	-0.245365	0.108893
H669	H	-0.173783	-0.188269	0.133526
H670	H	-0.201350	-0.164620	0.155452
O671	O	-0.115427	-0.138778	-0.044543
C672	C	-0.146101	-0.167132	-0.089107
H673	H	-0.175676	-0.208766	-0.099908
H674	H	-0.160851	-0.144567	-0.088394
C675	C	-0.083410	-0.121207	-0.110889
C676	C	-0.119732	-0.172345	-0.124157
H677	H	-0.067144	-0.124421	-0.132510
H678	H	-0.062743	-0.102103	-0.080865
H679	H	-0.095707	-0.102409	-0.110295
H680	H	-0.107434	-0.191139	-0.124745
H681	H	-0.140395	-0.191452	-0.154182
H682	H	-0.119332	-0.142384	0.083791
O683	O	-0.207827	-0.224143	-0.087331
C684	C	-0.245497	-0.219889	-0.087317
H685	H	-0.256125	-0.216685	-0.055888
H686	H	-0.234786	-0.182617	-0.085600
C687	C	-0.273708	-0.273856	-0.170676
C688	C	-0.286763	-0.269925	-0.132077
H689	H	-0.299161	-0.304719	-0.198287
H690	H	-0.248328	-0.276720	-0.170686
H691	H	-0.264781	-0.242793	-0.169239
H692	H	-0.295683	-0.300984	-0.133511
H693	H	-0.312145	-0.267068	-0.132069
O694	O	0.272480	0.406823	0.544416
C695	C	0.272356	0.369040	0.502478
H696	H	0.240845	0.327054	0.488677
H697	H	0.270710	0.378036	0.475896
C698	C	0.355712	0.423899	0.528170
C699	C	0.317012	0.372331	0.511221
H700	H	0.383259	0.425930	0.533562
H701	H	0.355796	0.449356	0.556423
H702	H	0.354334	0.431390	0.506015
H703	H	0.318388	0.364843	0.533378
H704	H	0.316929	0.346872	0.482972
