data_functionalizedCrystal
_audit_creation_method	'MofGen! by Chris Wilmer'
_symmetry_space_group_name_H-M	'P1'
_symmetry_Int_Tables_number	1
_symmetry_cell_setting	triclinic
loop_
_symmetry_equiv_pos_as_xyz
  x,y,z
_cell_length_a	13.101039
_cell_length_b	14.853567
_cell_length_c	14.044190
_cell_angle_alpha	91.586646
_cell_angle_beta	93.663707
_cell_angle_gamma	93.360019
loop_
_atom_site_label
_atom_site_type_symbol
_atom_site_fract_x
_atom_site_fract_y
_atom_site_fract_z
O1	O	0.085169	1.210710	-0.118545
O2	O	0.585169	1.710710	0.381455
O3	O	0.085185	0.949420	-0.133287
O4	O	0.585185	1.449420	0.366713
O5	O	0.085157	1.076139	0.012073
O6	O	0.585157	1.576139	0.512073
O7	O	0.085197	1.083992	-0.263905
O8	O	0.585197	1.583992	0.236095
O9	O	-0.085271	1.067048	0.001626
O10	O	0.414729	1.567048	0.501626
O11	O	-0.085243	0.940330	-0.143734
O12	O	0.414757	1.440330	0.356266
O13	O	-0.085259	1.201620	-0.128991
O14	O	0.414741	1.701620	0.371009
Zn15	Zn	-0.112310	1.069531	-0.138021
Zn16	Zn	0.387690	1.569531	0.361979
Zn17	Zn	0.112236	1.081509	-0.124257
Zn18	Zn	0.612236	1.581509	0.375743
O19	O	-0.085231	1.074901	-0.274352
O20	O	0.414769	1.574901	0.225648
C21	C	-0.000027	0.911233	-0.137843
C22	C	0.499973	1.411233	0.362157
C23	C	-0.000022	0.810991	-0.135840
C24	C	0.499978	1.310991	0.364160
N25	N	-0.265557	1.061364	-0.147414
N26	N	0.234443	1.561364	0.352586
C27	C	-0.000060	1.068159	0.042168
C28	C	0.499940	1.568159	0.542168
C29	C	-0.000068	1.057914	0.147407
C30	C	0.499932	1.557914	0.647407
C31	C	-0.474597	1.050252	-0.160203
C32	C	0.025403	1.550252	0.339797
C33	C	-0.525484	1.100792	-0.102072
C34	C	-0.025484	1.600792	0.397928
C35	C	-0.641801	1.094609	-0.109187
C36	C	-0.141801	1.594609	0.390813
C37	C	-0.358269	1.056434	-0.153088
C38	C	0.141731	1.556434	0.346912
N39	N	0.265483	1.089683	-0.114857
N40	N	0.765483	1.589683	0.385143
C41	C	-0.000044	1.239807	-0.124436
C42	C	0.499956	1.739807	0.375564
C43	C	-0.000043	1.340049	-0.126438
C44	C	0.499957	1.840049	0.373562
C45	C	-0.000011	1.760099	-0.221247
C46	C	0.499989	2.260099	0.278753
C47	C	-0.000036	1.767692	-0.048555
C48	C	0.499964	2.267692	0.451445
C49	C	-0.000042	1.673509	-0.046673
C50	C	0.499958	2.173509	0.453327
C51	C	-0.000031	1.622616	-0.132079
C52	C	0.499969	2.122616	0.367921
C53	C	-0.000014	1.665907	-0.219367
C54	C	0.499986	2.165907	0.280633
C55	C	-0.000049	1.630212	0.040614
C56	C	0.499951	2.130212	0.540614
C57	C	-0.000054	1.536023	0.042500
C58	C	0.499946	2.036023	0.542500
C59	C	-0.000050	1.485128	-0.042908
C60	C	0.499950	1.985128	0.457092
C61	C	-0.000034	1.528424	-0.130199
C62	C	0.499966	2.028424	0.369801
C63	C	-0.000023	1.477532	-0.215605
C64	C	0.499977	1.977532	0.284395
C65	C	-0.000014	1.520826	-0.302899
C66	C	0.499986	2.020826	0.197101
C67	C	-0.000010	1.615012	-0.304774
C68	C	0.499990	2.115012	0.195226
C69	C	-0.000054	1.390942	-0.041032
C70	C	0.499946	1.890942	0.458968
C71	C	-0.000025	1.383340	-0.213726
C72	C	0.499975	1.883340	0.286274
C73	C	-0.000012	1.082881	-0.304447
C74	C	0.499988	1.582881	0.195553
C75	C	0.000003	1.093126	-0.409685
C76	C	0.500003	1.593126	0.090315
C77	C	-0.000031	1.111842	0.397625
C78	C	0.499969	1.611842	0.897625
C79	C	-0.000034	1.039202	0.340091
C80	C	0.499966	1.539202	0.840091
C81	C	-0.000053	1.049616	0.232872
C82	C	0.499947	1.549616	0.732872
C83	C	-0.000012	1.101430	0.504854
C84	C	0.499988	1.601430	1.004854
H85	H	-0.481692	1.148704	-0.046962
H86	H	0.018308	1.648704	0.453038
H87	H	-0.000024	0.969191	0.371359
H88	H	0.499976	1.469191	0.871359
H89	H	-0.518383	1.002345	-0.215311
H90	H	-0.018383	1.502345	0.284689
H91	H	-0.000023	1.341909	-0.283275
H92	H	0.499977	1.841909	0.216725
H93	H	-0.000046	1.181847	0.366358
H94	H	0.499954	1.681847	0.866358
H95	H	0.000001	1.479377	-0.372435
H96	H	0.500001	1.979377	0.127565
H97	H	-0.000062	1.500781	0.113579
H98	H	0.499938	2.000781	0.613579
C99	C	0.000003	1.807712	-0.317264
C100	C	0.500003	2.307712	0.182736
H101	H	0.000004	1.763910	-0.367856
H102	H	0.500004	2.263910	0.132144
H103	H	0.059434	1.847466	-0.317946
H104	H	0.559434	2.347466	0.182054
H105	H	-0.059437	1.841125	-0.325232
H106	H	0.440563	2.341125	0.174768
C107	C	0.000015	1.662633	-0.400787
C108	C	0.500015	2.162633	0.099213
H109	H	0.000013	1.618836	-0.451385
H110	H	0.500013	2.118836	0.048615
H111	H	0.059452	1.702381	-0.401460
H112	H	0.559452	2.202381	0.098540
H113	H	-0.059419	1.696054	-0.408755
H114	H	0.440581	2.196054	0.091245
H115	H	-0.000039	1.809134	0.020979
H116	H	0.499961	2.309134	0.520979
C117	C	-0.000044	1.686189	0.134555
C118	C	0.499956	2.186189	0.634555
H119	H	-0.000035	1.646918	0.186811
H120	H	0.499965	2.146918	0.686811
H121	H	-0.059472	1.719927	0.133778
H122	H	0.440528	2.219927	0.633778
H123	H	0.059399	1.726252	0.141040
H124	H	0.559399	2.226252	0.641040
C125	C	-0.000062	1.343322	0.054977
C126	C	0.499938	1.843322	0.554977
H127	H	-0.000070	1.387121	0.105572
H128	H	0.499930	1.887121	0.605572
H129	H	0.059366	1.309900	0.062939
H130	H	0.559366	1.809900	0.562939
H131	H	-0.059505	1.303574	0.055660
H132	H	0.440495	1.803574	0.555660
