data_functionalizedCrystal
_audit_creation_method	'MofGen! by Chris Wilmer'
_symmetry_space_group_name_H-M	'P1'
_symmetry_Int_Tables_number	1
_symmetry_cell_setting	triclinic
loop_
_symmetry_equiv_pos_as_xyz
  x,y,z
_cell_length_a	15.944551
_cell_length_b	17.699083
_cell_length_c	16.176319
_cell_angle_alpha	89.998611
_cell_angle_beta	89.992246
_cell_angle_gamma	83.390877
loop_
_atom_site_label
_atom_site_type_symbol
_atom_site_fract_x
_atom_site_fract_y
_atom_site_fract_z
O1	O	0.106222	1.004260	-0.068632
O2	O	0.120042	0.783905	-0.068660
O3	O	-0.009156	0.900100	-0.068638
O4	O	0.235419	0.888065	-0.068654
O5	O	-0.009164	0.900084	0.068855
O6	O	0.120033	0.783889	0.068833
O7	O	0.106214	1.004244	0.068861
Cu8	Cu	0.113123	0.894065	0.081401
Cu9	Cu	0.113133	0.894084	-0.081200
O10	O	0.235411	0.888049	0.068839
C11	C	0.119542	0.755700	0.000083
C12	C	0.118057	0.671679	0.000073
C13	C	0.193893	0.623187	0.000068
C14	C	0.192492	0.544242	0.000079
C15	C	0.115254	0.513789	0.000089
C16	C	0.039412	0.562287	0.000096
C17	C	0.040814	0.641231	0.000091
C18	C	0.033758	0.243914	0.000117
C19	C	0.032362	0.164964	0.000119
C20	C	0.185436	0.146925	0.000105
C21	C	0.186837	0.225869	0.000100
C22	C	0.110996	0.274360	0.000112
C23	C	0.112516	0.359962	0.000102
C24	C	0.113733	0.428189	0.000093
C25	C	-0.040453	0.899593	0.000109
C26	C	-0.133696	0.898095	0.000109
C27	C	-0.348393	0.822492	0.000088
C28	C	-0.409488	0.857591	0.067885
C29	C	-0.304416	0.895385	0.000102
C30	C	-0.409464	0.857624	-0.067672
C31	C	-0.469323	0.892762	0.000092
C32	C	-0.364283	0.930505	0.067955
C33	C	-0.364252	0.930527	-0.067663
C34	C	-0.425329	0.965680	0.000150
C35	C	-0.209417	0.896894	0.000109
C36	C	-0.564321	0.891259	0.000092
C37	C	0.266708	0.888557	0.000090
C38	C	0.359951	0.890055	0.000085
C39	C	0.106713	1.032450	0.000116
C40	C	0.108199	1.116471	0.000121
N41	N	0.113116	0.894058	0.195767
N42	N	0.113133	0.894098	-0.195565
C43	C	0.055930	0.945524	0.239040
C44	C	0.055929	0.945528	0.325588
C45	C	0.113118	0.894068	0.368859
C46	C	0.170306	0.842596	0.325579
C47	C	0.170303	0.842589	0.239034
C48	C	0.170322	0.842622	0.674608
C49	C	0.170323	0.842634	0.761159
C50	C	0.055949	0.945561	0.761161
C51	C	0.055945	0.945554	0.674616
C52	C	0.113130	0.894080	0.631343
C53	C	0.113129	0.894075	0.537499
C54	C	0.113124	0.894076	0.462702
H55	H	0.256789	0.647975	0.000060
C56	C	-0.006963	1.002175	0.808763
H57	H	0.001220	0.994806	0.866504
H58	H	0.002089	1.052684	0.794572
H59	H	-0.063014	0.993950	0.794586
C60	C	0.233242	0.786024	0.627015
H61	H	0.225053	0.793385	0.569274
H62	H	0.289284	0.794260	0.641197
H63	H	0.224202	0.735507	0.641202
C64	C	0.233190	0.785968	0.373172
H65	H	0.267234	0.755304	0.335002
H66	H	0.268131	0.813171	0.406936
H67	H	0.202988	0.754473	0.406929
C68	C	-0.436579	0.815939	0.145303
H69	H	-0.474325	0.849673	0.177226
H70	H	-0.463947	0.773403	0.129005
H71	H	-0.388170	0.799052	0.177450
H72	H	0.009364	0.987435	0.360821
C73	C	-0.337376	0.972104	0.145475
H74	H	-0.277884	0.972774	0.145021
H75	H	-0.364411	1.022816	0.145681
H76	H	-0.353219	0.946370	0.193551
H77	H	-0.314958	0.761987	0.000149
C78	C	0.233219	0.786013	0.808757
H79	H	0.267267	0.755347	0.770591
H80	H	0.268155	0.813228	0.842513
H81	H	0.203026	0.754518	0.842522
H82	H	-0.023476	0.537486	0.000116
H83	H	-0.429472	0.826790	-0.124993
C84	C	-0.006971	1.002135	0.191445
H85	H	0.001222	0.994767	0.133703
H86	H	-0.063021	0.993923	0.205637
H87	H	0.002094	1.052646	0.205625
C88	C	0.233210	0.785979	0.191432
H89	H	0.267276	0.755337	0.229597
H90	H	0.203036	0.754473	0.157680
H91	H	0.268139	0.813206	0.157663
C92	C	-0.470305	1.047483	0.000211
H93	H	-0.454850	1.073246	0.048414
H94	H	-0.454134	1.073574	-0.047485
H95	H	-0.529688	1.046093	-0.000239
H96	H	0.009379	0.987460	0.639387
C97	C	0.275912	0.490904	0.000071
H98	H	0.322112	0.520347	0.000054
H99	H	0.278549	0.459735	0.048020
H100	H	0.278547	0.459731	-0.047879
C101	C	0.271798	0.259363	0.000093
H102	H	0.316764	0.219176	0.000100
H103	H	0.275533	0.289785	-0.047854
H104	H	0.275519	0.289783	0.048046
C105	C	-0.052604	0.131467	0.000138
H106	H	-0.097572	0.171652	0.000153
H107	H	-0.056334	0.101045	-0.047806
H108	H	-0.056325	0.101047	0.048094
H109	H	0.247189	0.107434	0.000100
H110	H	-0.027997	0.283386	0.000127
H111	H	-0.020940	0.680713	0.000095
C112	C	-0.337130	0.972148	-0.145084
H113	H	-0.352415	0.946181	-0.193211
H114	H	-0.364532	1.022730	-0.145566
H115	H	-0.277699	0.973194	-0.144250
