data_functionalizedCrystal
_audit_creation_method	'MofGen! by Chris Wilmer'
_symmetry_space_group_name_H-M	'P1'
_symmetry_Int_Tables_number	1
_symmetry_cell_setting	triclinic
loop_
_symmetry_equiv_pos_as_xyz
  x,y,z
_cell_length_a	23.532407
_cell_length_b	15.538191
_cell_length_c	14.750779
_cell_angle_alpha	82.427828
_cell_angle_beta	77.433997
_cell_angle_gamma	114.939614
loop_
_atom_site_label
_atom_site_type_symbol
_atom_site_fract_x
_atom_site_fract_y
_atom_site_fract_z
O1	O	-0.168713	-1.231045	-0.079813
O2	O	0.331287	-0.731045	0.420187
O3	O	-0.102826	-0.956168	-0.079822
O4	O	0.397174	-0.456168	0.420178
O5	O	-0.220390	-1.101900	-0.079800
O6	O	0.279610	-0.601900	0.420200
O7	O	-0.051149	-1.085313	-0.079835
O8	O	0.448851	-0.585313	0.420165
O9	O	-0.253621	-1.143097	0.079857
O10	O	0.246379	-0.643097	0.579857
O11	O	-0.136057	-0.997364	0.079835
O12	O	0.363943	-0.497364	0.579835
O13	O	-0.201944	-1.272242	0.079843
O14	O	0.298056	-0.772242	0.579843
Zn15	Zn	-0.174277	-1.141344	0.105188
Zn16	Zn	0.325723	-0.641344	0.605188
Zn17	Zn	-0.130493	-1.087066	-0.105166
Zn18	Zn	0.369507	-0.587066	0.394834
O19	O	-0.084380	-1.126510	0.079821
O20	O	0.415620	-0.626510	0.579821
C21	C	-0.112548	-0.941606	0.000006
C22	C	0.387452	-0.441606	0.500006
C23	C	-0.092014	-0.836839	0.000003
C24	C	0.407986	-0.336839	0.500003
C25	C	-0.258136	-1.122077	0.000031
C26	C	0.241864	-0.622077	0.500031
C27	C	-0.321097	-1.120810	0.000038
C28	C	0.178903	-0.620810	0.500038
N29	N	-0.204160	-1.178395	0.248749
N30	N	0.295840	-0.678395	0.748749
C31	C	-0.736103	-1.199074	-0.000012
C32	C	-0.236103	-0.699074	0.499988
C33	C	-0.795262	-1.197893	-0.000019
C34	C	-0.295262	-0.697893	0.499981
O35	O	-0.846752	-1.270448	-0.000052
O36	O	-0.346752	-0.770448	0.499948
N37	N	-0.800275	-1.111258	-0.000021
N38	N	-0.300275	-0.611258	0.499979
C39	C	-0.746122	-1.025796	-0.000026
C40	C	-0.246122	-0.525796	0.499974
O41	O	-0.755818	-0.951997	-0.000029
O42	O	-0.255818	-0.451997	0.499971
C43	C	-0.686963	-1.026976	-0.000025
C44	C	-0.186963	-0.526976	0.499975
C45	C	-0.681957	-1.113619	-0.000013
C46	C	-0.181957	-0.613619	0.499987
C47	C	-0.731095	-1.285710	-0.000001
C48	C	-0.231095	-0.785710	0.499999
C49	C	-0.671940	-1.286891	0.000008
C50	C	-0.171940	-0.786891	0.500008
C51	C	-0.617794	-1.201436	0.000006
C52	C	-0.117794	-0.701436	0.500006
C53	C	-0.622802	-1.114800	-0.000004
C54	C	-0.122802	-0.614800	0.499996
C55	C	-0.632810	-0.941513	-0.000037
C56	C	-0.132810	-0.441513	0.499963
C57	C	-0.573649	-0.942701	-0.000037
C58	C	-0.073649	-0.442701	0.499963
C59	C	-0.568643	-1.029344	-0.000025
C60	C	-0.068643	-0.529344	0.499975
C61	C	-0.509501	-1.030526	0.000003
C62	C	-0.009501	-0.530526	0.500003
N63	N	-0.504489	-1.117161	0.000005
N64	N	-0.004489	-0.617161	0.500005
C65	C	-0.558635	-1.202616	0.000007
C66	C	-0.058635	-0.702616	0.500007
C67	C	-0.870362	-1.023324	-0.000028
C68	C	-0.370362	-0.523324	0.499972
C69	C	-0.929521	-1.022144	-0.000022
C70	C	-0.429521	-0.522144	0.499978
C71	C	-0.978656	-1.194241	-0.000017
C72	C	-0.478656	-0.694241	0.499983
C73	C	-0.919497	-1.195421	-0.000017
C74	C	-0.419497	-0.695421	0.499983
C75	C	-0.865349	-1.109959	-0.000026
C76	C	-0.365349	-0.609959	0.499974
C77	C	-0.434404	-1.205090	0.000027
C78	C	0.065596	-0.705090	0.500027
C79	C	-0.375243	-1.206264	0.000040
C80	C	0.124757	-0.706264	0.500040
C81	C	-0.326112	-1.034167	0.000030
C82	C	0.173888	-0.534167	0.500030
C83	C	-0.385268	-1.032993	0.000022
C84	C	0.114732	-0.532993	0.500022
C85	C	-0.439415	-1.118461	0.000017
C86	C	0.060585	-0.618461	0.500017
O87	O	-0.457984	-0.958008	0.000032
O88	O	0.042016	-0.458008	0.500032
O89	O	-0.548925	-1.276399	-0.000002
O90	O	-0.048925	-0.776399	0.499998
C91	C	-0.046633	-1.106332	-0.000012
C92	C	0.453367	-0.606332	0.499988
C93	C	0.016329	-1.107598	-0.000025
C94	C	0.516329	-0.607598	0.499975
C95	C	-0.192222	-1.286804	0.000014
C96	C	0.307778	-0.786804	0.500014
C97	C	-0.212754	-1.391568	0.000010
C98	C	0.287246	-0.891568	0.500010
C99	C	-0.296010	-0.550965	0.000031
C100	C	0.203990	-0.050965	0.500031
C101	C	-0.276701	-0.452517	0.000026
C102	C	0.223299	0.047483	0.500026
C103	C	-0.168092	-0.429052	0.000004
C104	C	0.331908	0.070948	0.500004
C105	C	-0.187393	-0.527501	0.000013
C106	C	0.312607	-0.027501	0.500013
C107	C	-0.251353	-0.588450	0.000026
C108	C	0.248647	-0.088450	0.500026
C109	C	-0.142735	-0.564986	0.000008
C110	C	0.357265	-0.064986	0.500008
C111	C	-0.162034	-0.663425	0.000012
C112	C	0.337966	-0.163425	0.500012
C113	C	-0.225990	-0.724379	0.000022
C114	C	0.274010	-0.224379	0.500022
C115	C	-0.270651	-0.686889	0.000030
C116	C	0.229349	-0.186889	0.500030
C117	C	-0.078774	-0.504034	-0.000012
C118	C	0.421226	-0.004034	0.499988
C119	C	-0.034116	-0.541519	-0.000017
C120	C	0.465884	-0.041519	0.499983
C121	C	-0.053416	-0.639961	-0.000006
C122	C	0.446584	-0.139961	0.499994
C123	C	-0.117373	-0.700915	0.000004
C124	C	0.382627	-0.200915	0.500004
C125	C	-0.008755	-0.677451	-0.000014
C126	C	0.491245	-0.177451	0.499986
C127	C	-0.028054	-0.775891	-0.000010
C128	C	0.471946	-0.275891	0.499990
C129	C	-0.136672	-0.799354	0.000008
C130	C	0.363328	-0.299354	0.500008
N131	N	-0.100616	-1.050023	-0.248728
N132	N	0.399384	-0.550023	0.251272
C133	C	-0.017183	-0.946546	0.600532
C134	C	0.482817	-0.446546	1.100532
C135	C	-0.038120	-0.972516	0.701035
C136	C	0.461880	-0.472516	1.201035
C137	C	-0.142200	-1.101588	0.701018
C138	C	0.357800	-0.601588	1.201018
C139	C	-0.121272	-1.075626	0.600512
C140	C	0.378728	-0.575626	1.100512
C141	C	-0.058763	-0.998105	0.550278
C142	C	0.441237	-0.498105	1.050278
C143	C	-0.162853	-1.127185	0.550258
C144	C	0.337147	-0.627185	1.050258
C145	C	-0.141925	-1.101228	0.449762
C146	C	0.358075	-0.601228	0.949762
C147	C	-0.079417	-1.023713	0.399520
C148	C	0.420583	-0.523713	0.899520
C149	C	-0.037835	-0.972148	0.449781
C150	C	0.462165	-0.472148	0.949781
C151	C	-0.225360	-1.204710	0.600495
C152	C	0.274640	-0.704710	1.100495
C153	C	-0.266941	-1.256269	0.550240
C154	C	0.233059	-0.756269	1.050240
C155	C	-0.246015	-1.230308	0.449742
C156	C	0.253985	-0.730308	0.949742
C157	C	-0.183507	-1.152792	0.399500
C158	C	0.316493	-0.652792	0.899500
C159	C	-0.287597	-1.281872	0.399480
C160	C	0.212403	-0.781872	0.899480
C161	C	-0.266669	-1.255915	0.298984
C162	C	0.233331	-0.755915	0.798984
C163	C	-0.162579	-1.126836	0.299004
C164	C	0.337421	-0.626836	0.799004
H165	H	-0.371174	-1.276823	0.000052
H166	H	0.128826	-0.776823	0.500052
H167	H	0.013064	-0.909017	0.408878
H168	H	0.513064	-0.409017	0.908878
H169	H	-0.338490	-1.344996	0.440395
H170	H	0.161510	-0.844996	0.940395
H171	H	-0.116014	-0.379414	-0.000011
H172	H	0.383986	0.120586	0.499989
H173	H	0.033716	-0.883414	0.559629
H174	H	0.533716	-0.383414	1.059629
H175	H	-0.933593	-0.951595	-0.000015
H176	H	-0.433593	-0.451595	0.499985
H177	H	-0.241700	-0.804531	0.000013
H178	H	0.258300	-0.304531	0.500013
H179	H	0.017961	-0.491880	-0.000031
H180	H	0.517961	0.008120	0.499969
H181	H	-1.022753	-1.263822	-0.000020
H182	H	-0.522753	-0.763822	0.499980
H183	H	-0.063063	-0.423878	-0.000018
H184	H	0.436937	0.076122	0.499982
H185	H	0.043323	-0.627810	-0.000034
H186	H	0.543323	-0.127810	0.499966
H187	H	-0.300528	-1.297902	0.258066
H188	H	0.199472	-0.797902	0.758066
H189	H	-0.529561	-0.873104	-0.000046
H190	H	-0.029561	-0.373104	0.499954
H191	H	-0.062378	-1.002583	0.317689
H192	H	0.437622	-0.502583	0.817689
H193	H	-0.313071	-0.422002	0.000029
H194	H	0.186929	0.077998	0.500029
H195	H	-0.317836	-1.319390	0.591153
H196	H	0.182164	-0.819390	1.091153
H197	H	0.008309	-0.806413	-0.000005
H198	H	0.508309	-0.306413	0.499995
H199	H	-0.915427	-1.265973	-0.000008
H200	H	-0.415427	-0.765973	0.499992
H201	H	-0.322735	-0.736519	0.000046
H202	H	0.177265	-0.236519	0.500046
H203	H	-0.636872	-0.870958	-0.000052
H204	H	-0.136872	-0.370958	0.499948
H205	H	-0.478484	-1.274686	0.000019
H206	H	0.021516	-0.774686	0.500019
H207	H	-0.826275	-0.953727	-0.000028
H208	H	-0.326275	-0.453727	0.499972
H209	H	-0.004255	-0.930524	0.741948
H210	H	0.495745	-0.430524	1.241948
H211	H	-0.188755	-0.848985	0.000024
H212	H	0.311245	-0.348985	0.500024
H213	H	-0.667871	-1.357443	0.000014
H214	H	-0.167871	-0.857443	0.500014
H215	H	-0.348094	-0.600595	0.000047
H216	H	0.151906	-0.100595	0.500047
H217	H	-0.111680	-1.063704	0.258101
H218	H	0.388320	-0.563704	0.758101
H219	H	-0.242396	-1.225844	0.682325
H220	H	0.257604	-0.725844	1.182325
H221	H	-0.193095	-1.164709	0.741930
H222	H	0.306905	-0.664709	1.241930
H223	H	-0.775177	-1.355300	-0.000003
H224	H	-0.275177	-0.855300	0.499997
H225	H	-0.389349	-0.962448	0.000039
H226	H	0.110651	-0.462448	0.500039
H227	H	-0.282016	-0.964593	0.000032
H228	H	0.217984	-0.464593	0.500032
