data_functionalizedCrystal
_audit_creation_method	'MofGen! by Chris Wilmer'
_symmetry_space_group_name_H-M	'P1'
_symmetry_Int_Tables_number	1
_symmetry_cell_setting	triclinic
loop_
_symmetry_equiv_pos_as_xyz
  x,y,z
_cell_length_a	21.395364
_cell_length_b	16.625545
_cell_length_c	21.395355
_cell_angle_alpha	89.983814
_cell_angle_beta	89.975448
_cell_angle_gamma	90.040509
loop_
_atom_site_label
_atom_site_type_symbol
_atom_site_fract_x
_atom_site_fract_y
_atom_site_fract_z
Zn1	Zn	0.957882	-0.320773	-0.354272
Zn2	Zn	1.207882	-0.070773	-0.104272
Zn3	Zn	1.457882	0.179227	0.145728
Zn4	Zn	1.707882	0.429227	0.395728
Zn5	Zn	0.957794	-0.455588	-0.249498
Zn6	Zn	1.207794	-0.205588	0.000502
Zn7	Zn	1.457794	0.044412	0.250502
Zn8	Zn	1.707794	0.294412	0.500502
Zn9	Zn	0.853097	-0.320809	-0.249508
Zn10	Zn	1.103097	-0.070809	0.000492
Zn11	Zn	1.353097	0.179191	0.250492
Zn12	Zn	1.603097	0.429191	0.500492
Zn13	Zn	0.853075	-0.455603	-0.354239
Zn14	Zn	1.103075	-0.205603	-0.104239
Zn15	Zn	1.353075	0.044397	0.145761
Zn16	Zn	1.603075	0.294397	0.395761
O17	O	0.905462	-0.388193	-0.301879
O18	O	1.155462	-0.138193	-0.051879
O19	O	1.405462	0.111807	0.198121
O20	O	1.655462	0.361807	0.448121
O21	O	1.045548	-0.338636	-0.340383
O22	O	1.295548	-0.088636	-0.090383
O23	O	1.545548	0.161364	0.159617
O24	O	1.795548	0.411364	0.409617
O25	O	0.943877	-0.437718	-0.161822
O26	O	1.193877	-0.187718	0.088178
O27	O	1.443877	0.062282	0.338178
O28	O	1.693877	0.312282	0.588178
O29	O	0.867042	-0.207972	-0.263423
O30	O	1.117042	0.042028	-0.013423
O31	O	1.367042	0.292028	0.236577
O32	O	1.617042	0.542028	0.486577
O33	O	1.045483	-0.437684	-0.263406
O34	O	1.295483	-0.187684	-0.013406
O35	O	1.545483	0.062316	0.236594
O36	O	1.795483	0.312316	0.486594
O37	O	0.944027	-0.207946	-0.340393
O38	O	1.194027	0.042054	-0.090393
O39	O	1.444027	0.292054	0.159607
O40	O	1.694027	0.542054	0.409607
O41	O	0.866957	-0.338696	-0.161829
O42	O	1.116957	-0.088696	0.088171
O43	O	1.366957	0.161304	0.338171
O44	O	1.616957	0.411304	0.588171
O45	O	0.765416	-0.338710	-0.263391
O46	O	1.015416	-0.088710	-0.013391
O47	O	1.265416	0.161290	0.236609
O48	O	1.515416	0.411290	0.486609
O49	O	0.867006	-0.437709	-0.441921
O50	O	1.117006	-0.187709	-0.191921
O51	O	1.367006	0.062291	0.058079
O52	O	1.617006	0.312291	0.308079
O53	O	0.765400	-0.437743	-0.340336
O54	O	1.015400	-0.187743	-0.090336
O55	O	1.265400	0.062257	0.159664
O56	O	1.515400	0.312257	0.409664
O57	O	0.944007	-0.338650	-0.441945
O58	O	1.194007	-0.088650	-0.191945
O59	O	1.444007	0.161350	0.058055
O60	O	1.694007	0.411350	0.308055
O61	O	0.943857	-0.568423	-0.263374
O62	O	1.193857	-0.318423	-0.013374
O63	O	1.443857	-0.068423	0.236626
O64	O	1.693857	0.181577	0.486626
O65	O	0.866920	-0.568433	-0.340327
O66	O	1.116920	-0.318433	-0.090327
O67	O	1.366920	-0.068433	0.159673
O68	O	1.616920	0.181567	0.409673
C69	C	0.742674	-0.388233	-0.301862
C70	C	0.992674	-0.138233	-0.051862
C71	C	1.242674	0.111767	0.198138
C72	C	1.492674	0.361767	0.448138
C73	C	0.673033	-0.388269	-0.301869
C74	C	0.923033	-0.138269	-0.051869
C75	C	1.173033	0.111731	0.198131
C76	C	1.423033	0.361731	0.448131
C77	C	0.640376	-0.336779	-0.342013
C78	C	0.890376	-0.086779	-0.092013
C79	C	1.140376	0.163221	0.157987
C80	C	1.390376	0.413221	0.407987
C81	C	0.574940	-0.336757	-0.342015
C82	C	0.824940	-0.086757	-0.092015
C83	C	1.074940	0.163243	0.157985
C84	C	1.324940	0.413243	0.407985
C85	C	0.542165	-0.388240	-0.301880
C86	C	0.792165	-0.138240	-0.051880
C87	C	1.042165	0.111760	0.198120
C88	C	1.292165	0.361760	0.448120
C89	C	0.574829	-0.439734	-0.261729
C90	C	0.824829	-0.189734	-0.011729
C91	C	1.074829	0.060266	0.238271
C92	C	1.324829	0.310266	0.488271
C93	C	0.640264	-0.439748	-0.261723
C94	C	0.890264	-0.189748	-0.011723
C95	C	1.140264	0.060252	0.238277
C96	C	1.390264	0.310252	0.488277
C97	C	0.438445	-0.460853	-0.296845
C98	C	0.688445	-0.210853	-0.046845
C99	C	0.938445	0.039147	0.203155
C100	C	1.188445	0.289147	0.453155
C101	C	0.373012	-0.460840	-0.296855
C102	C	0.623012	-0.210840	-0.046855
C103	C	0.873012	0.039160	0.203145
C104	C	1.123012	0.289160	0.453145
C105	C	0.340344	-0.388196	-0.301894
C106	C	0.590344	-0.138196	-0.051894
C107	C	0.840344	0.111804	0.198106
C108	C	1.090344	0.361804	0.448106
C109	C	0.373116	-0.315562	-0.306936
C110	C	0.623116	-0.065562	-0.056936
C111	C	0.873116	0.184438	0.193064
C112	C	1.123116	0.434438	0.443064
C113	C	0.438550	-0.315577	-0.306931
C114	C	0.688550	-0.065577	-0.056931
C115	C	0.938550	0.184423	0.193069
C116	C	1.188550	0.434423	0.443069
C117	C	0.471212	-0.388230	-0.301882
C118	C	0.721212	-0.138230	-0.051882
C119	C	0.971212	0.111770	0.198118
C120	C	1.221212	0.361770	0.448118
C121	C	0.236734	-0.336678	-0.342043
C122	C	0.486734	-0.086678	-0.092043
C123	C	0.736734	0.163322	0.157957
C124	C	0.986734	0.413322	0.407957
C125	C	0.171298	-0.336656	-0.342041
C126	C	0.421298	-0.086656	-0.092041
C127	C	0.671298	0.163344	0.157959
C128	C	0.921298	0.413344	0.407959
C129	C	0.171188	-0.439639	-0.261758
C130	C	0.421188	-0.189639	-0.011758
C131	C	0.671188	0.060361	0.238242
C132	C	0.921188	0.310361	0.488242
C133	C	0.236623	-0.439655	-0.261757
C134	C	0.486623	-0.189655	-0.011757
C135	C	0.736623	0.060345	0.238243
C136	C	0.986623	0.310345	0.488243
C137	C	0.269393	-0.388176	-0.301902
C138	C	0.519393	-0.138176	-0.051902
C139	C	0.769393	0.111824	0.198098
C140	C	1.019393	0.361824	0.448098
C141	C	0.905394	-0.597684	-0.301860
C142	C	1.155394	-0.347684	-0.051860
C143	C	1.405394	-0.097684	0.198140
C144	C	1.655394	0.152316	0.448140
C145	C	0.905422	-0.687305	-0.301872
C146	C	1.155422	-0.437305	-0.051872
C147	C	1.405422	-0.187305	0.198128
C148	C	1.655422	0.062695	0.448128
C149	C	0.905446	-0.760088	-0.301884
C150	C	1.155446	-0.510088	-0.051884
C151	C	1.405446	-0.260088	0.198116
C152	C	1.655446	-0.010088	0.448116
C153	C	0.905483	-0.851396	-0.301898
C154	C	1.155483	-0.601396	-0.051898
C155	C	1.405483	-0.351396	0.198102
C156	C	1.655483	-0.101396	0.448102
C157	C	0.905515	-0.924173	-0.301906
C158	C	1.155515	-0.674173	-0.051906
C159	C	1.405515	-0.424173	0.198094
C160	C	1.655515	-0.174173	0.448094
C161	C	0.905551	-1.015487	-0.301919
C162	C	1.155551	-0.765487	-0.051919
C163	C	1.405551	-0.515487	0.198081
C164	C	1.655551	-0.265487	0.448081
C165	C	1.068885	-0.388155	-0.301897
C166	C	1.318885	-0.138155	-0.051897
C167	C	1.568885	0.111845	0.198103
C168	C	1.818885	0.361845	0.448103
C169	C	1.138526	-0.388138	-0.301905
C170	C	1.388526	-0.138138	-0.051905
C171	C	1.638526	0.111862	0.198095
C172	C	1.888526	0.361862	0.448095
C173	C	0.905514	-0.388177	-0.465303
C174	C	1.155514	-0.138177	-0.215303
C175	C	1.405514	0.111823	0.034697
C176	C	1.655514	0.361823	0.284697
C177	C	0.905536	-0.388170	-0.534944
C178	C	1.155536	-0.138170	-0.284944
C179	C	1.405536	0.111830	-0.034944
C180	C	1.655536	0.361830	0.215056
C181	C	0.905547	-0.177884	-0.301913
C182	C	1.155547	0.072116	-0.051913
C183	C	1.405547	0.322116	0.198087
C184	C	1.655547	0.572116	0.448087
C185	C	0.905584	-0.088263	-0.301927
C186	C	1.155584	0.161737	-0.051927
C187	C	1.405584	0.411737	0.198073
C188	C	1.655584	0.661737	0.448073
C189	C	0.945629	-0.336588	-0.567671
C190	C	1.195629	-0.086588	-0.317671
C191	C	1.445629	0.163412	-0.067671
C192	C	1.695629	0.413412	0.182329
C193	C	0.945628	-0.336553	-0.633106
C194	C	1.195628	-0.086553	-0.383106
C195	C	1.445628	0.163447	-0.133106
C196	C	1.695628	0.413447	0.116894
C197	C	0.905541	-0.388115	-0.665812
C198	C	1.155541	-0.138115	-0.415812
C199	C	1.405541	0.111885	-0.165812
C200	C	1.655541	0.361885	0.084188
C201	C	0.865440	-0.439701	-0.633078
C202	C	1.115440	-0.189701	-0.383078
C203	C	1.365440	0.060299	-0.133078
C204	C	1.615440	0.310299	0.116922
C205	C	0.865438	-0.439728	-0.567643
C206	C	1.115438	-0.189728	-0.317643
C207	C	1.365438	0.060272	-0.067643
C208	C	1.615438	0.310272	0.182357
C209	C	0.900570	-0.460717	-0.769480
C210	C	1.150570	-0.210717	-0.519480
C211	C	1.400570	0.039283	-0.269480
C212	C	1.650570	0.289283	-0.019480
C213	C	0.900577	-0.460691	-0.834913
C214	C	1.150577	-0.210691	-0.584913
C215	C	1.400577	0.039309	-0.334913
C216	C	1.650577	0.289309	-0.084913
C217	C	0.905545	-0.388030	-0.867633
C218	C	1.155545	-0.138030	-0.617633
C219	C	1.405545	0.111970	-0.367633
C220	C	1.655545	0.361970	-0.117633
C221	C	0.910519	-0.315392	-0.834912
C222	C	1.160519	-0.065392	-0.584912
C223	C	1.410519	0.184608	-0.334912
C224	C	1.660519	0.434608	-0.084912
C225	C	0.910516	-0.315420	-0.769478
C226	C	1.160516	-0.065420	-0.519478
C227	C	1.410516	0.184580	-0.269478
C228	C	1.660516	0.434580	-0.019478
C229	C	0.905539	-0.388091	-0.736765
C230	C	1.155539	-0.138091	-0.486765
C231	C	1.405539	0.111909	-0.236765
C232	C	1.655539	0.361909	0.013235
C233	C	0.945638	-0.336406	-0.971312
C234	C	1.195638	-0.086406	-0.721312
C235	C	1.445638	0.163594	-0.471312
C236	C	1.695638	0.413594	-0.221312
C237	C	0.945633	-0.336370	-1.036749
C238	C	1.195633	-0.086370	-0.786749
C239	C	1.445633	0.163630	-0.536749
C240	C	1.695633	0.413630	-0.286749
C241	C	0.865449	-0.439524	-1.036719
C242	C	1.115449	-0.189524	-0.786719
C243	C	1.365449	0.060476	-0.536719
C244	C	1.615449	0.310476	-0.286719
C245	C	0.865451	-0.439553	-0.971284
C246	C	1.115451	-0.189553	-0.721284
C247	C	1.365451	0.060447	-0.471284
C248	C	1.615451	0.310447	-0.221284
C249	C	0.905549	-0.387995	-0.938584
C250	C	1.155549	-0.137995	-0.688584
C251	C	1.405549	0.112005	-0.438584
C252	C	1.655549	0.362005	-0.188584
C253	C	0.905446	-0.388151	-0.139092
C254	C	1.155446	-0.138151	0.110908
C255	C	1.405446	0.111849	0.360908
C256	C	1.655446	0.361849	0.610908
C257	C	0.905545	-0.387931	-0.069451
C258	C	1.155545	-0.137931	0.180549
C259	C	1.405545	0.112069	0.430549
C260	C	1.655545	0.362069	0.680549
H261	H	0.465231	-0.256436	-0.311034
H262	H	0.715231	-0.006436	-0.061034
H263	H	0.965231	0.243564	0.188966
H264	H	1.215231	0.493564	0.438966
Cl265	Cl	0.681568	-0.272060	-0.392480
Cl266	Cl	0.931568	-0.022060	-0.142480
Cl267	Cl	1.181568	0.227940	0.107520
Cl268	Cl	1.431568	0.477940	0.357520
H269	H	0.978285	-0.294420	-0.944687
H270	H	1.228285	-0.044420	-0.694687
H271	H	1.478285	0.205580	-0.444687
H272	H	1.728285	0.455580	-0.194687
Cl273	Cl	0.815049	-0.504407	-0.930139
Cl274	Cl	1.065049	-0.254407	-0.680139
Cl275	Cl	1.315049	-0.004407	-0.430139
Cl276	Cl	1.565049	0.245593	-0.180139
Cl277	Cl	0.332055	-0.224231	-0.313271
Cl278	Cl	0.582055	0.025769	-0.063271
Cl279	Cl	0.832055	0.275769	0.186729
Cl280	Cl	1.082055	0.525769	0.436729
H281	H	0.978279	-0.294604	-0.541051
H282	H	1.228279	-0.044604	-0.291051
H283	H	1.478279	0.205396	-0.041051
H284	H	1.728279	0.455396	0.208949
H285	H	0.263416	-0.294756	-0.374728
H286	H	0.513416	-0.044756	-0.124728
H287	H	0.763416	0.205244	0.125272
H288	H	1.013416	0.455244	0.375272
Cl289	Cl	0.130242	-0.271916	-0.392509
Cl290	Cl	0.380242	-0.021916	-0.142509
Cl291	Cl	0.630242	0.228084	0.107491
Cl292	Cl	0.880242	0.478084	0.357491
Cl293	Cl	0.815048	-0.504339	-1.077830
Cl294	Cl	1.065048	-0.254339	-0.827830
Cl295	Cl	1.315048	-0.004339	-0.577830
Cl296	Cl	1.565048	0.245661	-0.327830
Cl297	Cl	0.277680	-0.504385	-0.211285
Cl298	Cl	0.527680	-0.254385	0.038715
Cl299	Cl	0.777680	-0.004385	0.288715
Cl300	Cl	1.027680	0.245615	0.538715
H301	H	0.144503	-0.481557	-0.229079
H302	H	0.394503	-0.231557	0.020921
H303	H	0.644503	0.018443	0.270921
H304	H	0.894503	0.268443	0.520921
Cl305	Cl	0.331819	-0.552151	-0.290527
Cl306	Cl	0.581819	-0.302151	-0.040527
Cl307	Cl	0.831819	-0.052151	0.209473
Cl308	Cl	1.081819	0.197849	0.459473
Cl309	Cl	0.479507	-0.552185	-0.290501
Cl310	Cl	0.729507	-0.302185	-0.040501
Cl311	Cl	0.979507	-0.052185	0.209499
Cl312	Cl	1.229507	0.197815	0.459499
H313	H	0.666853	-0.481679	-0.229033
H314	H	0.916853	-0.231679	0.020967
H315	H	1.166853	0.018321	0.270967
H316	H	1.416853	0.268321	0.520967
H317	H	0.548139	-0.481651	-0.229051
H318	H	0.798139	-0.231651	0.020949
H319	H	1.048139	0.018349	0.270949
H320	H	1.298139	0.268349	0.520949
H321	H	0.896530	-0.519837	-0.861549
H322	H	1.146530	-0.269837	-0.611549
H323	H	1.396530	-0.019837	-0.361549
H324	H	1.646530	0.230163	-0.111549
Cl325	Cl	0.815043	-0.504518	-0.674193
Cl326	Cl	1.065043	-0.254518	-0.424193
Cl327	Cl	1.315043	-0.004518	-0.174193
Cl328	Cl	1.565043	0.245482	0.075807
H329	H	0.978275	-0.294545	-0.659757
H330	H	1.228275	-0.044545	-0.409757
H331	H	1.478275	0.205455	-0.159757
H332	H	1.728275	0.455455	0.090243
Cl333	Cl	0.916765	-0.224109	-0.728345
Cl334	Cl	1.166765	0.025891	-0.478345
Cl335	Cl	1.416765	0.275891	-0.228345
Cl336	Cl	1.666765	0.525891	0.021655
H337	H	0.978281	-0.294361	-1.063394
H338	H	1.228281	-0.044361	-0.813394
H339	H	1.478281	0.205639	-0.563394
H340	H	1.728281	0.455639	-0.313394
Cl341	Cl	0.916767	-0.224040	-0.876038
Cl342	Cl	1.166767	0.025960	-0.626038
Cl343	Cl	1.416767	0.275960	-0.376038
Cl344	Cl	1.666767	0.525960	-0.126038
Cl345	Cl	0.815032	-0.504580	-0.526499
Cl346	Cl	1.065032	-0.254580	-0.276499
Cl347	Cl	1.315032	-0.004580	-0.026499
Cl348	Cl	1.565032	0.245420	0.223501
Cl349	Cl	0.533877	-0.272021	-0.392484
Cl350	Cl	0.783877	-0.022021	-0.142484
Cl351	Cl	1.033877	0.227979	0.107516
Cl352	Cl	1.283877	0.477979	0.357516
Cl353	Cl	0.894343	-0.552075	-0.728353
Cl354	Cl	1.144343	-0.302075	-0.478353
Cl355	Cl	1.394343	-0.052075	-0.228353
Cl356	Cl	1.644343	0.197925	0.021647
