data_functionalizedCrystal
_audit_creation_method	'MofGen! by Chris Wilmer'
_symmetry_space_group_name_H-M	'P1'
_symmetry_Int_Tables_number	1
_symmetry_cell_setting	triclinic
loop_
_symmetry_equiv_pos_as_xyz
  x,y,z
_cell_length_a	27.731993
_cell_length_b	27.732048
_cell_length_c	12.503552
_cell_angle_alpha	86.514598
_cell_angle_beta	93.481552
_cell_angle_gamma	82.631525
loop_
_atom_site_label
_atom_site_type_symbol
_atom_site_fract_x
_atom_site_fract_y
_atom_site_fract_z
O1	O	0.643747	0.054585	0.089042
O2	O	0.502952	0.063355	0.089109
O3	O	0.577722	-0.011427	0.089053
O4	O	0.568978	0.129367	0.089098
O5	O	0.572092	-0.005798	-0.089586
O6	O	0.497323	0.068985	-0.089530
O7	O	0.638118	0.060214	-0.089597
Cu8	Cu	0.567206	0.065113	-0.105874
Cu9	Cu	0.573864	0.058456	0.105386
O10	O	0.563348	0.134996	-0.089541
C11	C	0.482130	0.065990	-0.000202
C12	C	0.428475	0.065447	-0.000177
C13	C	0.048382	0.058449	0.097145
C14	C	0.250040	0.060515	0.097175
O15	O	0.278723	0.058154	0.179991
N16	N	0.272192	0.063842	-0.000199
C17	C	0.243926	0.066650	-0.097587
O18	O	0.267395	0.069522	-0.180408
C19	C	0.042269	0.064580	-0.097615
C20	C	0.020119	0.061258	-0.000235
C21	C	0.026232	0.055127	0.194517
C22	C	-0.024180	0.054613	0.194508
C23	C	-0.052442	0.057422	0.097128
C24	C	-0.030293	0.060744	-0.000244
C25	C	0.014005	0.067384	-0.195002
C26	C	-0.036412	0.066865	-0.195000
C27	C	-0.058562	0.063543	-0.097621
C28	C	-0.108967	0.063039	-0.097632
N29	N	-0.131118	0.059712	-0.000259
C30	C	-0.102856	0.056903	0.097121
C31	C	0.349799	0.067737	-0.097565
C32	C	0.400212	0.068255	-0.097558
C33	C	0.406323	0.062120	0.097204
C34	C	0.355908	0.061605	0.097196
C35	C	0.327647	0.064410	-0.000191
C36	C	-0.208725	0.055825	0.097096
C37	C	-0.259142	0.055313	0.097079
C38	C	-0.265248	0.061446	-0.097682
C39	C	-0.214836	0.061960	-0.097665
C40	C	-0.186575	0.059148	-0.000268
O41	O	-0.137679	0.065394	-0.180405
O42	O	-0.126333	0.054021	0.179930
C43	C	0.098794	0.058963	0.097153
C44	C	0.120943	0.062286	-0.000218
C45	C	0.092681	0.065094	-0.097599
C46	C	0.171357	0.062804	-0.000212
C47	C	0.199619	0.059995	0.097169
C48	C	0.177468	0.056668	0.194542
C49	C	0.127056	0.056154	0.194534
C50	C	0.114833	0.068421	-0.194972
C51	C	0.165245	0.068935	-0.194956
C52	C	0.193507	0.066127	-0.097576
C53	C	0.574723	-0.026619	-0.000269
C54	C	0.574170	-0.080274	-0.000278
C55	C	0.614876	-0.419098	-0.000242
C56	C	0.612826	-0.620758	-0.000226
O57	O	0.650048	-0.652021	-0.000197
N58	N	0.568490	-0.639873	-0.000206
C59	C	0.524664	-0.608571	-0.000183
O60	O	0.486907	-0.629457	-0.000154
C61	C	0.526715	-0.406912	-0.000191
C62	C	0.571054	-0.387799	-0.000222
C63	C	0.659211	-0.399984	-0.000272
C64	C	0.659723	-0.349572	-0.000282
C65	C	0.615900	-0.318274	-0.000262
C66	C	0.571566	-0.337387	-0.000232
C67	C	0.482890	-0.375611	-0.000160
C68	C	0.483407	-0.325194	-0.000160
C69	C	0.527745	-0.306081	-0.000191
C70	C	0.528255	-0.255676	-0.000222
N71	N	0.572591	-0.236561	-0.000242
C72	C	0.616413	-0.267859	-0.000262
C73	C	0.523590	-0.714445	-0.000181
C74	C	0.523077	-0.764859	-0.000181
C75	C	0.611239	-0.777042	-0.000222
C76	C	0.611751	-0.726627	-0.000230
C77	C	0.567926	-0.695329	-0.000201
C78	C	0.617485	-0.161990	-0.000284
C79	C	0.617993	-0.111572	-0.000298
C80	C	0.529832	-0.099393	-0.000251
C81	C	0.529323	-0.149806	-0.000242
C82	C	0.573154	-0.181104	-0.000255
O83	O	0.491053	-0.224384	-0.000239
O84	O	0.654166	-0.246964	-0.000267
C85	C	0.614364	-0.469510	-0.000232
C86	C	0.570030	-0.488624	-0.000203
C87	C	0.526207	-0.457325	-0.000183
C88	C	0.569517	-0.539038	-0.000202
C89	C	0.613339	-0.570336	-0.000222
C90	C	0.657675	-0.551221	-0.000243
C91	C	0.658187	-0.500809	-0.000252
C92	C	0.481871	-0.476441	-0.000162
C93	C	0.481363	-0.526853	-0.000154
C94	C	0.525185	-0.558152	-0.000174
C95	C	0.658940	0.057579	-0.000284
C96	C	0.712596	0.058122	-0.000301
C97	C	0.566347	0.150188	-0.000216
C98	C	0.566900	0.203842	-0.000201
N99	N	0.562527	0.069795	-0.254463
C100	C	0.585427	0.046882	-0.526914
C101	C	0.555648	0.076682	-0.473567
C102	C	0.559476	0.072849	-0.351647
C103	C	0.581600	0.050714	-0.648846
N104	N	0.578547	0.053770	0.253975
H105	H	-0.185721	0.053535	0.176407
H106	H	0.613796	0.018492	-0.481025
H107	H	0.646921	-0.802535	-0.000239
H108	H	0.337877	0.058900	0.176491
H109	H	0.654100	-0.096014	-0.000326
C110	C	0.434114	-0.396624	-0.000119
N111	N	0.397373	-0.412449	-0.000084
H112	H	0.487900	-0.688966	-0.000157
H113	H	0.418241	0.070968	-0.176854
C114	C	0.517325	0.115042	-0.535566
N115	N	0.488464	0.143937	-0.582268
C116	C	0.437422	0.059027	0.204323
N117	N	0.460848	0.056693	0.285001
H118	H	0.326793	0.070020	-0.176873
H119	H	0.494152	-0.073901	-0.000238
C120	C	-0.283503	0.051655	0.204209
N121	N	-0.301849	0.048897	0.284897
C122	C	0.189603	0.072590	-0.302089
N123	N	0.207949	0.075338	-0.382780
H124	H	0.200487	0.054384	0.273833
H125	H	0.493218	-0.165368	-0.000247
C126	C	-0.048536	0.050948	0.301635
N127	N	-0.066878	0.048183	0.382329
H128	H	0.653177	-0.187467	-0.000290
H129	H	-0.288269	0.063735	-0.176966
C130	C	0.705880	-0.585659	-0.000263
N131	N	0.742187	-0.611600	-0.000271
C132	C	0.057313	0.052036	0.301653
N133	N	0.080720	0.049710	0.382354
H134	H	0.032030	0.070088	-0.274299
H135	H	0.447718	-0.299713	-0.000135
C136	C	-0.190471	0.065619	-0.204787
N137	N	-0.172123	0.068369	-0.285474
C138	C	-0.067497	0.069954	-0.302137
N139	N	-0.090909	0.072282	-0.382832
C140	C	0.706963	-0.479792	-0.000280
N141	N	0.743704	-0.463965	-0.000297
H142	H	0.445254	-0.542409	-0.000138
H143	H	0.109026	0.053449	0.273831
H144	H	0.695828	-0.334016	-0.000303
H145	H	0.091827	0.070706	-0.274273
C146	C	0.660527	-0.705608	-0.000254
N147	N	0.697267	-0.689779	-0.000269
C148	C	0.474301	-0.785877	-0.000160
N149	N	0.437562	-0.801706	-0.000137
H150	H	0.446185	-0.450962	-0.000144
H151	H	0.694899	-0.425463	-0.000284
