data_functionalizedCrystal
_audit_creation_method	'MofGen! by Chris Wilmer'
_symmetry_space_group_name_H-M	'P1'
_symmetry_Int_Tables_number	1
_symmetry_cell_setting	triclinic
loop_
_symmetry_equiv_pos_as_xyz
  x,y,z
_cell_length_a	10.540514
_cell_length_b	10.540510
_cell_length_c	11.295483
_cell_angle_alpha	94.138442
_cell_angle_beta	85.853195
_cell_angle_gamma	84.514235
loop_
_atom_site_label
_atom_site_type_symbol
_atom_site_fract_x
_atom_site_fract_y
_atom_site_fract_z
O1	O	1.694362	0.170277	-0.099033
O2	O	1.324943	0.187167	-0.099032
O3	O	1.518100	-0.005988	-0.099032
O4	O	1.501205	0.363431	-0.099033
O5	O	1.501134	0.010951	0.099019
O6	O	1.307977	0.204105	0.099019
O7	O	1.677396	0.187216	0.099018
Cu8	Cu	1.491138	0.197207	0.117102
Cu9	Cu	1.511201	0.177175	-0.117116
O10	O	1.484239	0.380370	0.099018
C11	C	1.269157	0.194376	-0.000006
C12	C	1.128207	0.190607	-0.000006
C13	C	1.057487	0.328749	-0.000008
C14	C	0.910913	0.324835	-0.000464
C15	C	0.945548	0.105824	-0.112889
C16	C	1.092094	0.110671	-0.112978
C17	C	1.073203	0.127890	0.112251
C18	C	0.926098	0.126683	0.113728
C19	C	1.508358	-0.044822	-0.000009
C20	C	1.504592	-0.185772	-0.000016
C21	C	1.638739	-0.403201	0.000437
C22	C	1.642796	-0.256645	-0.000016
C23	C	1.443533	-0.240197	-0.113110
C24	C	1.440502	-0.386966	-0.113199
C25	C	1.418330	-0.367511	0.112022
C26	C	1.424758	-0.221043	0.113511
C27	C	1.733183	0.180006	-0.000011
C28	C	1.874133	0.183774	-0.000019
C29	C	1.493981	0.419204	-0.000008
C30	C	1.497748	0.560154	-0.000008
N31	N	1.477035	0.211296	0.281838
N32	N	1.525314	0.163076	-0.281852
C33	C	1.626832	0.061586	0.531128
C34	C	1.616183	0.072242	0.655791
C35	C	1.445085	0.243257	0.655832
C36	C	1.455733	0.232601	0.531168
C37	C	1.546611	0.141764	0.468820
C38	C	1.557264	0.131115	0.344154
C39	C	1.386160	0.302123	0.344197
C40	C	1.375512	0.312779	0.468861
H41	H	1.140524	0.008784	-0.117797
N42	N	1.725759	-0.228209	-0.107584
H43	H	1.759827	-0.310940	-0.154896
H44	H	1.673345	-0.172611	-0.159030
H45	H	1.320843	0.367413	0.293452
H46	H	0.861314	0.385472	0.080427
H47	H	1.079088	0.391709	0.080920
H48	H	1.700836	-0.012368	0.480363
N49	N	1.466462	-0.414000	0.225579
H50	H	1.395262	-0.450510	0.272565
H51	H	1.540260	-0.482394	0.205453
N52	N	1.702716	-0.014223	0.722997
H53	H	1.761903	-0.073378	0.664579
H54	H	1.754850	0.039345	0.774702
H55	H	1.097362	0.181193	0.197830
H56	H	1.496092	-0.434416	-0.197739
H57	H	1.371086	0.317206	0.706611
H58	H	1.094632	0.377055	-0.080830
N59	N	0.864849	0.386452	-0.108273
H60	H	0.939791	0.416259	-0.155688
H61	H	0.823506	0.322203	-0.159526
H62	H	1.499874	-0.216544	-0.197275
N63	N	1.277499	0.410742	0.536119
H64	H	1.322096	0.471828	0.587835
H65	H	1.228321	0.459828	0.477657
H66	H	1.631265	0.057154	0.293392
N67	N	1.139081	0.167158	-0.225161
H68	H	1.180231	0.247457	-0.203487
H69	H	1.203849	0.103101	-0.273023
H70	H	1.120377	0.026088	0.113341
N71	N	1.706882	-0.208578	0.107385
H72	H	1.732751	-0.282624	0.155447
H73	H	1.785295	-0.167067	0.080307
H74	H	0.923576	0.001859	-0.116767
N75	N	1.718798	-0.469972	-0.106389
H76	H	1.681516	-0.443158	-0.181716
H77	H	1.809201	-0.445894	-0.105322
N78	N	1.309246	-0.177881	-0.118687
H79	H	1.303790	-0.132956	-0.194440
H80	H	1.247406	-0.245379	-0.117519
N81	N	0.898724	0.158310	-0.224586
H82	H	0.831289	0.232544	-0.202333
H83	H	0.972739	0.188325	-0.273152
H84	H	0.877944	0.183736	0.197231
H85	H	1.323274	-0.171383	0.120340
H86	H	0.901312	0.024448	0.120880
N87	N	1.280796	-0.396744	0.113041
H88	H	1.269925	-0.456539	0.041327
H89	H	1.256988	-0.438492	0.188121
H90	H	1.685634	-0.438224	0.081542
H91	H	1.337572	-0.410389	-0.118322
N92	N	1.483436	-0.173667	0.224343
H93	H	1.561406	-0.129538	0.201126
H94	H	1.418941	-0.111345	0.274516
