data_functionalizedCrystal
_audit_creation_method	'MofGen! by Chris Wilmer'
_symmetry_space_group_name_H-M	'P1'
_symmetry_Int_Tables_number	1
_symmetry_cell_setting	triclinic
loop_
_symmetry_equiv_pos_as_xyz
  x,y,z
_cell_length_a	8.559649
_cell_length_b	8.559649
_cell_length_c	7.681187
_cell_angle_alpha	85.068115
_cell_angle_beta	94.913991
_cell_angle_gamma	69.778664
loop_
_atom_site_label
_atom_site_type_symbol
_atom_site_fract_x
_atom_site_fract_y
_atom_site_fract_z
O1	O	2.109656	-0.037792	-0.146418
O2	O	1.634171	0.045989	-0.146423
O3	O	1.913804	-0.233644	-0.146418
O4	O	1.830023	0.241841	-0.146423
O5	O	1.948238	-0.268139	0.146453
O6	O	1.668605	0.011495	0.146448
O7	O	2.144090	-0.072287	0.146453
Zn8	Zn	1.911815	-0.035873	0.192950
Zn9	Zn	1.866446	0.009575	-0.192920
O10	O	1.864457	0.207347	0.146448
C11	C	1.591079	0.035091	0.000012
C12	C	1.411379	0.053991	0.000010
C13	C	1.937370	-0.311200	0.000014
C14	C	1.956268	-0.490898	0.000004
C15	C	2.187182	-0.061388	0.000014
C16	C	2.366880	-0.080286	0.000004
C17	C	1.840890	0.284903	0.000012
C18	C	1.821991	0.464603	0.000010
N19	N	1.835486	0.040581	-0.456266
N20	N	1.942789	-0.066893	0.456296
H21	H	1.692572	-0.436020	0.000015
C22	C	2.277141	0.228835	-0.000008
H23	H	2.329150	0.310543	-0.000016
H24	H	2.221722	0.229899	0.102111
H25	H	2.197737	0.253945	-0.102163
C26	C	2.131116	-0.625150	0.000004
H27	H	2.121314	-0.732369	0.000000
H28	H	2.201963	-0.624984	0.102127
H29	H	2.177926	-0.600930	-0.102147
H30	H	1.725986	0.150246	-0.531505
H31	H	2.052307	-0.176555	-0.468457
H32	H	2.466268	-0.209714	0.000001
