data_functionalizedCrystal
_audit_creation_method	'MofGen! by Chris Wilmer'
_symmetry_space_group_name_H-M	'P1'
_symmetry_Int_Tables_number	1
_symmetry_cell_setting	triclinic
loop_
_symmetry_equiv_pos_as_xyz
  x,y,z
_cell_length_a	19.288859
_cell_length_b	10.489716
_cell_length_c	17.766277
_cell_angle_alpha	89.997726
_cell_angle_beta	89.989768
_cell_angle_gamma	83.831431
loop_
_atom_site_label
_atom_site_type_symbol
_atom_site_fract_x
_atom_site_fract_y
_atom_site_fract_z
O1	O	0.922415	0.159074	-0.062602
O2	O	1.422415	0.659074	0.437398
O3	O	0.720297	0.180546	-0.062600
O4	O	1.220297	0.680546	0.437400
O5	O	0.825964	-0.015894	-0.062604
O6	O	1.325964	0.484106	0.437396
O7	O	0.816748	0.355514	-0.062598
O8	O	1.316748	0.855514	0.437402
O9	O	0.825945	-0.015904	0.062585
O10	O	1.325945	0.484096	0.562585
O11	O	0.720278	0.180536	0.062589
O12	O	1.220278	0.680536	0.562589
O13	O	0.922396	0.159064	0.062586
O14	O	1.422396	0.659064	0.562586
Cu15	Cu	0.821335	0.169799	0.074018
Cu16	Cu	1.321335	0.669799	0.574018
Cu17	Cu	0.821357	0.169811	-0.074032
Cu18	Cu	1.321357	0.669811	0.425968
O19	O	0.816729	0.355505	0.062590
O20	O	1.316729	0.855505	0.562590
C21	C	0.694406	0.179852	-0.000005
C22	C	1.194406	0.679852	0.499995
C23	C	0.617288	0.177782	-0.000005
C24	C	1.117288	0.677782	0.499995
C25	C	0.825262	-0.063415	-0.000012
C26	C	1.325262	0.436585	0.499988
C27	C	0.823190	-0.204999	-0.000019
C28	C	1.323190	0.295001	0.499981
C29	C	0.053922	0.279040	-0.000004
C30	C	0.553922	0.779040	0.499996
C31	C	0.126381	0.280997	-0.000008
C32	C	0.626381	0.780997	0.499992
C33	C	0.170321	0.165735	-0.000008
C34	C	0.670321	0.665735	0.499992
C35	C	0.141795	0.048507	-0.000024
C36	C	0.641795	0.548507	0.499976
C37	C	0.069337	0.046554	-0.000028
C38	C	0.569337	0.546554	0.499972
C39	C	0.291012	0.079769	0.043852
C40	C	0.791012	0.579769	0.543852
C41	C	0.363469	0.081727	0.043860
C42	C	0.863469	0.581727	0.543860
C43	C	0.393807	0.171753	-0.000001
C44	C	0.893807	0.671753	0.499999
C45	C	0.351678	0.259843	-0.043860
C46	C	0.851678	0.759843	0.456140
C47	C	0.279219	0.257890	-0.043864
C48	C	0.779219	0.757890	0.456136
C49	C	0.248891	0.167839	-0.000005
C50	C	0.748891	0.667839	0.499995
C51	C	0.500893	0.291094	0.000005
C52	C	1.000893	0.791094	0.500005
C53	C	0.573354	0.293045	-0.000003
C54	C	1.073354	0.793045	0.499997
C55	C	0.588767	0.060552	-0.000012
C56	C	1.088767	0.560552	0.499988
C57	C	0.516307	0.058604	-0.000011
C58	C	1.016307	0.558604	0.499989
C59	C	0.472374	0.173879	0.000002
C60	C	0.972374	0.673879	0.500002
C61	C	0.887989	-0.304141	-0.000013
C62	C	1.387989	0.195859	0.499987
C63	C	0.853757	-0.380721	-0.061735
C64	C	1.353757	0.119279	0.438265
C65	C	0.853723	-0.380695	0.061691
C66	C	1.353723	0.119305	0.561691
C67	C	0.788986	-0.279715	-0.061792
C68	C	1.288986	0.220285	0.438208
C69	C	0.788962	-0.279683	0.061690
C70	C	1.288962	0.220317	0.561690
C71	C	0.754682	-0.356213	-0.000047
C72	C	1.254682	0.143787	0.499953
C73	C	0.948287	0.159759	-0.000010
C74	C	1.448287	0.659759	0.499990
C75	C	1.025404	0.161829	-0.000016
C76	C	1.525404	0.661829	0.499984
C77	C	0.817431	0.403026	-0.000004
C78	C	1.317431	0.903026	0.499996
C79	C	0.819502	0.544610	-0.000002
C80	C	1.319502	1.044610	0.499998
N81	N	0.821325	0.169790	0.178148
N82	N	1.321325	0.669790	0.678148
N83	N	0.821373	0.169810	-0.178162
N84	N	1.321373	0.669810	0.321838
C85	C	0.868130	0.082849	0.217533
C86	C	1.368130	0.582849	0.717533
C87	C	0.868134	0.082843	0.296335
C88	C	1.368134	0.582843	0.796335
C89	C	0.821339	0.169800	0.335749
C90	C	1.321339	0.669800	0.835749
C91	C	0.774526	0.256748	0.296354
C92	C	1.274526	0.756748	0.796354
C93	C	0.774518	0.256743	0.217554
C94	C	1.274518	0.756743	0.717554
C95	C	0.812814	0.286015	0.460589
C96	C	1.312814	0.786015	0.960589
C97	C	0.812826	0.286022	0.539388
C98	C	1.312826	0.786022	1.039388
C99	C	0.821358	0.169816	0.578795
C100	C	1.321358	0.669816	1.078795
C101	C	0.829892	0.053598	0.539395
C102	C	1.329892	0.553598	1.039395
C103	C	0.829885	0.053593	0.460594
C104	C	1.329885	0.553593	0.960594
C105	C	0.821342	0.169815	0.421195
C106	C	1.321342	0.669815	0.921195
C107	C	0.868170	0.082861	0.703626
C108	C	1.368170	0.582861	1.203626
C109	C	0.868169	0.082853	0.782430
C110	C	1.368169	0.582853	1.282430
C111	C	0.774564	0.256770	0.782447
C112	C	1.274564	0.756770	1.282447
C113	C	0.774562	0.256766	0.703645
C114	C	1.274562	0.756766	1.203645
C115	C	0.821368	0.169813	0.664240
C116	C	1.321368	0.669813	1.164240
H117	H	0.018156	0.372906	0.000002
H118	H	0.518156	0.872906	0.500002
Br119	Br	0.612058	0.452133	0.000001
Br120	Br	1.112058	0.952133	0.500001
Br121	Br	0.165095	0.440081	0.000007
Br122	Br	0.665095	0.940081	0.500007
H123	H	0.624542	-0.033296	-0.000018
H124	H	1.124542	0.466704	0.499982
H125	H	0.244921	0.329614	-0.079577
H126	H	0.744921	0.829614	0.420423
H127	H	0.736403	0.327543	0.185486
H128	H	1.236403	0.827543	0.685486
H129	H	0.376376	0.333154	-0.079574
H130	H	0.876376	0.833154	0.420426
Br131	Br	0.801305	0.443741	0.407115
Br132	Br	1.301305	0.943741	0.907115
H133	H	0.881119	-0.424832	-0.113918
H134	H	1.381119	0.075168	0.386082
H135	H	0.805882	0.380653	0.571462
H136	H	1.305882	0.880653	1.071462
Br137	Br	0.441266	0.447533	0.000021
Br138	Br	0.941266	0.947533	0.500021
Br139	Br	0.711040	0.374767	0.650188
Br140	Br	1.211040	0.874767	1.150188
Br141	Br	0.981930	-0.265136	-0.000113
Br142	Br	1.481930	0.234864	0.499887
H143	H	0.736461	0.327567	0.814537
H144	H	1.236461	0.827567	1.314537
H145	H	0.177575	-0.045340	-0.000027
H146	H	0.677575	0.454660	0.499973
Br147	Br	0.477601	-0.100478	-0.000032
Br148	Br	0.977601	0.399522	0.499968
Br149	Br	0.711013	0.374755	0.349841
Br150	Br	1.211013	0.874755	0.849841
H151	H	0.761654	-0.235787	-0.114031
H152	H	1.261654	0.264213	0.385969
H153	H	0.397765	0.010005	0.079578
H154	H	0.897765	0.510005	0.579578
Br155	Br	0.660670	-0.394808	-0.000096
Br156	Br	1.160670	0.105192	0.499904
H157	H	0.266318	0.006452	0.079571
H158	H	0.766318	0.506452	0.579571
Br159	Br	0.030631	-0.112531	-0.000048
Br160	Br	0.530631	0.387469	0.499952
H161	H	0.761624	-0.235550	0.113875
H162	H	1.261624	0.264450	0.613875
H163	H	0.881083	-0.424791	0.113871
H164	H	1.381083	0.075209	0.613871
H165	H	0.906240	0.012044	0.185452
H166	H	1.406240	0.512044	0.685452
H167	H	0.906249	0.012042	0.328409
H168	H	1.406249	0.512042	0.828409
H169	H	0.836831	-0.041035	0.428517
H170	H	1.336831	0.458965	0.928517
Br171	Br	0.841480	-0.104122	0.592866
Br172	Br	1.341480	0.395878	1.092866
Br173	Br	0.931689	-0.035149	0.650145
Br174	Br	1.431689	0.464851	1.150145
Br175	Br	0.931689	-0.035159	0.835885
Br176	Br	1.431689	0.464841	1.335885
