data_functionalizedCrystal
_audit_creation_method	'MofGen! by Chris Wilmer'
_symmetry_space_group_name_H-M	'P1'
_symmetry_Int_Tables_number	1
_symmetry_cell_setting	triclinic
loop_
_symmetry_equiv_pos_as_xyz
  x,y,z
_cell_length_a	13.339070
_cell_length_b	14.472311
_cell_length_c	15.995292
_cell_angle_alpha	89.993534
_cell_angle_beta	80.451045
_cell_angle_gamma	90.002970
loop_
_atom_site_label
_atom_site_type_symbol
_atom_site_fract_x
_atom_site_fract_y
_atom_site_fract_z
O1	O	1.342176	0.076849	-0.419756
O2	O	1.047662	0.076847	-0.364661
O3	O	1.203000	0.076849	-0.272195
O4	O	1.186838	0.076846	-0.512222
O5	O	1.202990	-0.076833	-0.272176
O6	O	1.047652	-0.076835	-0.364642
O7	O	1.342165	-0.076833	-0.419737
Cu8	Cu	1.194907	-0.090867	-0.392188
Cu9	Cu	1.194920	0.090880	-0.392210
O10	O	1.186827	-0.076836	-0.512203
C11	C	1.009970	0.000005	-0.355345
C12	C	0.897675	0.000005	-0.327604
C13	C	0.532828	0.000017	-0.543301
C14	C	0.638334	0.000020	-0.569368
C15	C	0.703175	0.000016	-0.508929
C16	C	0.662499	0.000009	-0.422420
C17	C	0.556982	0.000013	-0.396351
C18	C	0.727329	0.000012	-0.361978
C19	C	0.686653	0.000005	-0.275469
C20	C	0.581146	0.000008	-0.249404
C21	C	0.516306	0.000013	-0.309843
C22	C	0.832845	0.000008	-0.388047
C23	C	0.856999	0.000005	-0.241097
C24	C	0.751493	0.000001	-0.215030
N25	N	1.194906	-0.218698	-0.392174
C26	C	1.194921	-0.592789	-0.392204
C27	C	1.278309	-0.553593	-0.343020
C28	C	1.278092	-0.446505	-0.342717
C29	C	1.194914	-0.407198	-0.392189
C30	C	1.089381	-0.446089	-0.348590
C31	C	1.089875	-0.553211	-0.348220
C32	C	1.216115	-0.553295	-0.484969
C33	C	1.218511	-0.446166	-0.484937
C34	C	1.194904	-0.302310	-0.392181
C35	C	1.194924	-0.697677	-0.392209
C36	C	1.379857	0.000010	-0.429053
C37	C	1.492152	0.000017	-0.456794
C38	C	1.202337	0.000010	-0.240837
C39	C	1.200365	0.000017	-0.147426
N40	N	1.194929	0.218711	-0.392220
C41	C	1.187490	0.000005	-0.543561
C42	C	1.189462	0.000004	-0.636972
C43	C	1.193115	0.000009	0.191997
C44	C	1.305234	-0.000334	0.142637
C45	C	1.307365	0.000016	0.045466
C46	C	1.196712	0.000013	0.023605
C47	C	1.140664	0.087769	0.065718
C48	C	1.139315	0.087839	0.162822
C49	C	1.137013	-0.086926	0.163233
C50	C	1.141168	-0.088082	0.065775
C51	C	1.198740	0.000018	-0.071562
C52	C	1.191084	0.000010	0.287164
H53	H	0.430393	0.000009	-0.288624
N54	N	0.876708	0.000002	-0.481348
H55	H	0.953386	-0.000001	-0.488695
H56	H	0.852996	0.056975	-0.508882
H57	H	1.356540	-0.420209	-0.372304
N58	N	0.816971	0.000014	-0.537039
H59	H	0.832900	0.000015	-0.601012
H60	H	0.847040	-0.056964	-0.514409
H61	H	0.548032	0.000013	-0.178963
H62	H	1.025961	-0.579140	-0.381406
N63	N	1.027701	-0.087717	0.207171
H64	H	1.014138	-0.145940	0.242032
H65	H	0.981259	-0.085632	0.163351
N66	N	1.190756	0.174726	0.186394
H67	H	1.214094	0.212621	0.133732
H68	H	1.251365	0.157632	0.213551
H69	H	1.059239	0.091029	0.052767
H70	H	1.357020	-0.579347	-0.372485
H71	H	1.161710	-0.419407	-0.525148
H72	H	1.264552	-0.420887	-0.274383
N73	N	0.682206	0.000041	-0.662666
H74	H	0.625123	0.000046	-0.696998
H75	H	0.725455	-0.056927	-0.676686
H76	H	1.296145	-0.420747	-0.517453
N77	N	1.030431	0.093132	0.207401
H78	H	1.014057	0.036879	0.244535
H79	H	0.983595	0.095440	0.163893
N80	N	1.260648	-0.589259	-0.253055
H81	H	1.198866	-0.630696	-0.244020
H82	H	1.249244	-0.535429	-0.212411
H83	H	0.909793	0.000005	-0.191882
N84	N	0.462898	0.000033	-0.608481
H85	H	0.389887	0.000038	-0.578838
H86	H	0.476051	-0.056937	-0.645119
N87	N	0.707617	-0.000013	-0.121726
H88	H	0.630939	-0.000013	-0.114388
H89	H	0.731335	0.056956	-0.094197
N90	N	1.192226	0.174288	0.027172
H91	H	1.190423	0.175291	-0.035698
H92	H	1.265174	0.175107	0.036761
N93	N	1.362496	-0.083683	0.166432
H94	H	1.386236	-0.122123	0.114200
H95	H	1.316271	-0.121970	0.209461
H96	H	1.172317	-0.153445	0.183126
H97	H	1.060402	-0.093385	0.051570
N98	N	1.065146	-0.586328	-0.257616
H99	H	1.054028	-0.531341	-0.218292
H100	H	1.123467	-0.624631	-0.243653
N101	N	1.005198	-0.412361	-0.393402
H102	H	1.034731	-0.371449	-0.442515
H103	H	0.954283	-0.376054	-0.352388
N104	N	1.365863	0.083487	0.007477
H105	H	1.390358	0.120202	0.053863
H106	H	1.320146	0.123406	-0.021819
H107	H	1.070239	-0.419269	-0.280810
N108	N	1.315868	-0.589065	-0.532443
H109	H	1.348332	-0.631241	-0.494292
H110	H	1.362706	-0.535329	-0.550738
N111	N	1.135569	-0.586866	-0.533840
H112	H	1.085585	-0.627459	-0.496121
H113	H	1.168679	-0.623471	-0.584767
H114	H	1.351260	-0.062890	0.016249
H115	H	1.348214	0.062248	0.161662
N116	N	1.195214	-0.174084	0.028633
H117	H	1.255427	-0.156067	-0.015327
H118	H	1.146818	-0.213019	0.001246
