data_functionalizedCrystal
_audit_creation_method	'MofGen! by Chris Wilmer'
_symmetry_space_group_name_H-M	'P1'
_symmetry_Int_Tables_number	1
_symmetry_cell_setting	triclinic
loop_
_symmetry_equiv_pos_as_xyz
  x,y,z
_cell_length_a	17.699104
_cell_length_b	22.010155
_cell_length_c	17.699083
_cell_angle_alpha	90.010041
_cell_angle_beta	83.287266
_cell_angle_gamma	89.996468
loop_
_atom_site_label
_atom_site_type_symbol
_atom_site_fract_x
_atom_site_fract_y
_atom_site_fract_z
O1	O	-1.004065	0.050550	-0.095769
O2	O	-0.783689	0.050546	-0.108205
O3	O	-0.900103	0.050543	0.008202
O4	O	-0.887651	0.050554	-0.212176
O5	O	-0.900095	-0.050507	0.008171
O6	O	-0.783681	-0.050504	-0.108236
O7	O	-1.004057	-0.050500	-0.095800
Cu8	Cu	-0.893868	-0.059729	-0.102021
Cu9	Cu	-0.893878	0.059775	-0.101984
O10	O	-0.887643	-0.050497	-0.212206
C11	C	-0.755488	0.000021	-0.107772
C12	C	-0.671471	0.000019	-0.106427
N13	N	-0.893867	-0.143781	-0.102045
C14	C	-0.146600	0.000022	-0.167171
C15	C	-0.225543	0.000025	-0.168430
C16	C	-0.274161	0.000022	-0.100095
C17	C	-0.243831	0.000023	-0.030496
C18	C	-0.164889	0.000024	-0.029238
C19	C	-0.562197	0.000017	-0.035569
C20	C	-0.641144	0.000014	-0.036833
C21	C	-0.622852	0.000018	-0.174762
C22	C	-0.543909	0.000019	-0.173503
C23	C	-0.513587	0.000023	-0.103905
C24	C	-0.427987	0.000021	-0.102541
C25	C	-0.359759	0.000020	-0.101459
C26	C	-0.842301	-0.436392	-0.153530
C27	C	-0.842299	-0.372784	-0.153537
O28	O	-0.798433	-0.339891	-0.197342
N29	N	-0.893861	-0.340965	-0.102017
C30	C	-0.945423	-0.372757	-0.050481
O31	O	-0.989280	-0.339852	-0.006659
C32	C	-0.945421	-0.436364	-0.050471
C33	C	-0.893860	-0.468179	-0.102000
C34	C	-0.790744	-0.468207	-0.205054
C35	C	-0.790747	-0.531810	-0.205048
C36	C	-0.842307	-0.563598	-0.153518
C37	C	-0.893863	-0.531783	-0.101994
C38	C	-0.996978	-0.468155	0.001067
C39	C	-0.996971	-0.531766	0.001073
C40	C	-0.945411	-0.563581	-0.050456
C41	C	-0.945426	-0.627174	-0.050458
N42	N	-0.893864	-0.658992	-0.101978
C43	C	-0.842305	-0.627204	-0.153508
C44	C	-0.945423	-0.239180	-0.050505
C45	C	-0.945429	-0.175574	-0.050518
C46	C	-0.842304	-0.175605	-0.153573
C47	C	-0.842302	-0.239212	-0.153563
C48	C	-0.893861	-0.270998	-0.102025
C49	C	-0.842315	-0.760776	-0.153492
C50	C	-0.842325	-0.824385	-0.153483
C51	C	-0.945447	-0.824348	-0.050426
C52	C	-0.945441	-0.760745	-0.050437
C53	C	-0.893868	-0.728960	-0.101973
O54	O	-0.989267	-0.660107	-0.006673
O55	O	-0.798449	-0.660117	-0.197316
C56	C	-0.032258	0.000024	-0.096233
C57	C	-0.116275	0.000021	-0.097578
C58	C	-0.899653	0.000018	0.036383
C59	C	-0.898314	0.000018	0.120402
N60	N	-0.893885	0.143828	-0.101953
C61	C	-0.888093	0.000030	-0.240388
C62	C	-0.889431	0.000034	-0.324406
C63	C	-0.966647	0.000018	0.169017
C64	C	-0.965385	0.000023	0.247961
C65	C	-0.895789	0.000024	0.278287
C66	C	-0.827451	0.000025	0.229665
C67	C	-0.828714	0.000024	0.150723
C68	C	-0.822356	0.000030	0.548028
C69	C	-0.821098	0.000029	0.626976
C70	C	-0.959026	0.000029	0.645266
C71	C	-0.960289	0.000028	0.566324
C72	C	-0.891952	0.000033	0.517709
C73	C	-0.893321	0.000028	0.432110
C74	C	-0.894419	0.000024	0.363885
H75	H	-0.107020	0.000020	-0.222818
H76	H	-0.647550	0.000017	-0.231432
H77	H	-0.773070	0.000024	0.111140
H78	H	-0.748761	-0.557711	-0.247005
O79	O	-0.532715	0.000125	0.032018
C80	C	-0.454188	0.052462	0.113498
C81	C	-0.487542	0.052421	0.036932
H82	H	-0.417646	0.094732	0.117489
H83	H	-0.502472	0.052496	0.162147
H84	H	-0.417711	0.010155	0.117519
H85	H	-0.524010	0.094721	0.032836
H86	H	-0.439222	0.052355	-0.011681
H87	H	-0.250230	0.000032	-0.225100
H88	H	-0.987429	-0.850240	-0.008473
H89	H	-1.016961	0.000025	0.541638
O90	O	-0.792162	-0.855195	-0.203567
C91	C	-0.689905	-0.848501	-0.305813
C92	C	-0.746661	-0.813536	-0.249127
H93	H	-0.653114	-0.814835	-0.342673
H94	H	-0.652108	-0.878259	-0.273216
H95	H	-0.722521	-0.878302	-0.343551
H96	H	-0.714108	-0.783702	-0.211374
H97	H	-0.784458	-0.783817	-0.281771
O98	O	-0.740628	-0.437429	-0.255190
C99	C	-0.638323	-0.444194	-0.357383
C100	C	-0.695049	-0.479119	-0.300648
H101	H	-0.601447	-0.477886	-0.394140
H102	H	-0.670887	-0.414443	-0.395217
H103	H	-0.600605	-0.414389	-0.324751
H104	H	-0.732782	-0.508957	-0.333218
H105	H	-0.662438	-0.508832	-0.262814
O106	O	-1.034320	0.000046	0.139688
C107	C	-1.170997	0.000017	0.166171
C108	C	-1.094410	-0.000004	0.199484
H109	H	-1.219600	-0.000035	0.214500
H110	H	-1.175090	0.042317	0.129707
H111	H	-1.174996	-0.042262	0.129634
H112	H	-1.090359	0.042247	0.236055
H113	H	-1.090350	-0.042331	0.235904
H114	H	-1.038956	-0.557643	0.043044
O115	O	-0.291026	0.000129	0.035905
C116	C	-0.330790	0.052459	0.153444
C117	C	-0.277313	0.052423	0.078265
H118	H	-0.319711	0.094728	0.187721
H119	H	-0.392436	0.052496	0.140635
H120	H	-0.319776	0.010151	0.187659
H121	H	-0.288258	0.094724	0.044013
H122	H	-0.215684	0.052354	0.091128
H123	H	-0.140200	0.000024	0.027432
O124	O	-0.995590	-0.269961	-0.000415
C125	C	-1.097846	-0.263204	0.101828
C126	C	-1.041087	-0.228273	0.045131
H127	H	-1.134634	-0.229515	0.138678
H128	H	-1.135647	-0.292972	0.069242
H129	H	-1.065233	-0.292991	0.139577
H130	H	-1.073638	-0.198453	0.007369
H131	H	-1.003288	-0.198543	0.077765
H132	H	-0.770785	0.000030	0.254362
H133	H	-1.021028	0.000022	0.287541
O134	O	-1.025462	0.000113	0.692416
C135	C	-1.142953	0.052482	0.732242
C136	C	-1.067756	0.052458	0.678793
H137	H	-1.177162	0.094805	0.721257
H138	H	-1.177258	0.010221	0.721215
H139	H	-1.130082	0.052457	0.793867
H140	H	-1.080558	0.052505	0.617148
H141	H	-1.033473	0.094716	0.689885
H142	H	-1.038963	-0.442260	0.043027
H143	H	-0.766711	0.000034	0.508455
O144	O	-0.753422	0.000062	0.656310
C145	C	-0.616743	0.000038	0.629842
C146	C	-0.693326	0.000015	0.596520
H147	H	-0.568135	-0.000013	0.581518
H148	H	-0.612665	0.042337	0.666328
H149	H	-0.612738	-0.042242	0.666359
H150	H	-0.697382	0.042266	0.559969
H151	H	-0.697371	-0.042312	0.560078
H152	H	-0.504328	0.000019	-0.229149
H153	H	-0.800317	-0.265112	-0.195522
H154	H	-0.680728	0.000013	0.018817
H155	H	-0.800320	-0.734904	-0.195456
H156	H	-0.987422	-0.149675	-0.008566
O157	O	-0.792184	-0.144814	-0.203699
C158	C	-0.689861	-0.151540	-0.305879
C159	C	-0.746588	-0.186488	-0.249169
H160	H	-0.652971	-0.185217	-0.342645
H161	H	-0.722424	-0.121783	-0.343707
H162	H	-0.652156	-0.121740	-0.273226
H163	H	-0.784307	-0.216321	-0.281760
H164	H	-0.713978	-0.216206	-0.211342
O165	O	-0.995558	-0.729930	-0.000315
C166	C	-1.097872	-0.736620	0.101873
C167	C	-1.041150	-0.771587	0.045156
H168	H	-1.134759	-0.770285	0.138640
H169	H	-1.065306	-0.706856	0.139698
H170	H	-1.135581	-0.706825	0.069225
H171	H	-1.003426	-0.801416	0.077742
H172	H	-1.073763	-0.801313	0.007331
