data_functionalizedCrystal
_audit_creation_method	'MofGen! by Chris Wilmer'
_symmetry_space_group_name_H-M	'P1'
_symmetry_Int_Tables_number	1
_symmetry_cell_setting	triclinic
loop_
_symmetry_equiv_pos_as_xyz
  x,y,z
_cell_length_a	23.532407
_cell_length_b	23.532407
_cell_length_c	14.586319
_cell_angle_alpha	89.991566
_cell_angle_beta	90.001839
_cell_angle_gamma	82.848678
loop_
_atom_site_label
_atom_site_type_symbol
_atom_site_fract_x
_atom_site_fract_y
_atom_site_fract_z
O1	O	0.755259	0.069134	-0.076135
O2	O	0.589395	0.079137	-0.076163
O3	O	0.677329	-0.008796	-0.076132
O4	O	0.667325	0.157067	-0.076167
O5	O	0.677323	-0.008797	0.076349
O6	O	0.589389	0.079136	0.076317
O7	O	0.755253	0.069133	0.076346
Cu8	Cu	0.672320	0.074134	0.090254
Cu9	Cu	0.672328	0.074136	-0.090072
O10	O	0.667319	0.157066	0.076314
C11	C	0.568176	0.078882	0.000074
C12	C	0.504959	0.078116	0.000064
C13	C	0.105856	0.125350	0.000095
C14	C	0.046456	0.124638	0.000101
O15	O	0.009711	0.168424	0.000125
N16	N	0.023830	0.072362	0.000110
C17	C	0.060607	0.020794	0.000124
O18	O	0.035908	-0.023737	0.000133
C19	C	0.120006	0.021506	0.000124
C20	C	0.142629	0.073785	0.000106
C21	C	0.128479	0.177625	0.000077
C22	C	0.187876	0.178336	0.000070
C23	C	0.224649	0.126772	0.000080
C24	C	0.202025	0.074496	0.000098
C25	C	0.156783	-0.030062	0.000144
C26	C	0.216185	-0.029345	0.000146
C27	C	0.238808	0.022934	0.000127
C28	C	0.298194	0.023643	0.000101
N29	N	0.320820	0.075920	0.000091
C30	C	0.284048	0.127484	0.000081
C31	C	-0.064135	0.019302	0.000124
C32	C	-0.123533	0.018589	0.000116
C33	C	-0.137680	0.122434	0.000095
C34	C	-0.078281	0.123146	0.000096
C35	C	-0.041509	0.071578	0.000114
C36	C	0.408784	0.128974	0.000064
C37	C	0.468186	0.129680	0.000053
C38	C	0.482329	0.025836	0.000079
C39	C	0.422932	0.025129	0.000086
C40	C	0.386160	0.076702	0.000081
O41	O	0.334974	-0.020119	0.000081
O42	O	0.308755	0.172007	0.000083
C43	C	0.677071	-0.030013	0.000111
C44	C	0.676305	-0.093230	0.000118
C45	C	0.723539	-0.492333	0.000076
C46	C	0.722827	-0.551733	0.000069
O47	O	0.766613	-0.588478	0.000042
N48	N	0.670551	-0.574359	0.000060
C49	C	0.618983	-0.537582	0.000050
O50	O	0.574452	-0.562281	0.000041
C51	C	0.619695	-0.478182	0.000051
C52	C	0.671974	-0.455560	0.000068
C53	C	0.775814	-0.469710	0.000092
C54	C	0.776525	-0.410313	0.000101
C55	C	0.724961	-0.373540	0.000093
C56	C	0.672685	-0.396164	0.000077
C57	C	0.568127	-0.441406	0.000033
C58	C	0.568844	-0.382004	0.000033
C59	C	0.621123	-0.359381	0.000051
C60	C	0.621832	-0.299995	0.000078
N61	N	0.674109	-0.277368	0.000086
C62	C	0.725673	-0.314141	0.000094
C63	C	0.617491	-0.662324	0.000047
C64	C	0.616778	-0.721722	0.000053
C65	C	0.720623	-0.735869	0.000070
C66	C	0.721335	-0.676470	0.000071
C67	C	0.669767	-0.639698	0.000056
C68	C	0.727163	-0.189405	0.000113
C69	C	0.727869	-0.130003	0.000126
C70	C	0.624025	-0.115860	0.000104
C71	C	0.623318	-0.175257	0.000096
C72	C	0.674891	-0.212029	0.000098
O73	O	0.578070	-0.263215	0.000101
O74	O	0.770196	-0.289433	0.000090
C75	C	0.776472	0.069388	0.000107
C76	C	0.839689	0.070154	0.000111
C77	C	0.667577	0.178283	0.000069
C78	C	0.668343	0.241500	0.000056
N79	N	0.672320	0.074133	0.217086
N80	N	0.672333	0.074133	-0.216904
C81	C	0.711269	0.035209	0.452106
C82	C	0.711271	0.035208	0.548088
C83	C	0.633379	0.113059	0.548069
C84	C	0.633375	0.113057	0.452090
C85	C	0.672324	0.074133	0.404111
C86	C	0.672329	0.074133	0.596072
C87	C	0.672331	0.074132	0.700139
C88	C	0.672321	0.074133	0.300037
H89	H	-0.059867	0.165717	0.000086
O90	O	-0.173384	0.172541	-0.000070
C91	C	-0.203643	0.261096	-0.079046
C92	C	-0.163186	0.204370	-0.078983
H93	H	-0.195405	0.286851	-0.142831
H94	H	-0.249994	0.251637	-0.079098
H95	H	-0.195456	0.286814	-0.015208
H96	H	-0.171322	0.178624	-0.142810
H97	H	-0.116849	0.213869	-0.078883
O98	O	0.595571	0.150948	0.594574
C99	C	0.561658	0.250149	0.623949
C100	C	0.604499	0.207300	0.571214
H101	H	0.568869	0.295719	0.605097
H102	H	0.516075	0.243005	0.605063
H103	H	0.568341	0.243438	0.700789
H104	H	0.597869	0.213985	0.494362
H105	H	0.650067	0.214455	0.590177
O106	O	0.749159	-0.002624	0.594568
C107	C	0.826395	-0.079862	0.584451
C108	C	0.783526	-0.037038	0.531699
H109	H	0.854183	-0.107706	0.533645
H110	H	0.854745	-0.055448	0.629356
H111	H	0.801960	-0.108164	0.629418
H112	H	0.807913	-0.008726	0.486683
H113	H	0.755176	-0.061488	0.486853
O114	O	0.373013	0.179034	-0.000068
C115	C	0.297768	0.238521	-0.079112
C116	C	0.338237	0.181802	-0.079056
H117	H	0.269650	0.240783	-0.142977
H118	H	0.269567	0.240801	-0.015342
H119	H	0.324161	0.275992	-0.079084
H120	H	0.311889	0.144300	-0.079117
H121	H	0.366439	0.179573	-0.142821
O122	O	0.134748	-0.080811	0.000288
C123	C	0.075940	-0.141902	0.079342
C124	C	0.100845	-0.084401	0.079281
H125	H	0.048534	-0.144829	0.143210
H126	H	0.048446	-0.144849	0.015576
H127	H	0.112442	-0.178620	0.079310
H128	H	0.064379	-0.047650	0.079345
H129	H	0.128355	-0.081504	0.143042
H130	H	0.763906	-0.658056	0.000084
H131	H	0.580748	-0.193677	0.000107
O132	O	-0.145410	-0.032245	0.000164
C133	C	-0.125092	-0.135169	0.000129
C134	C	-0.100244	-0.077637	0.000089
H135	H	-0.088588	-0.171883	0.000049
H136	H	-0.152522	-0.138142	0.063960
H137	H	-0.152571	-0.138069	-0.063666
H138	H	-0.072740	-0.074698	0.063841
H139	H	-0.072847	-0.074689	-0.063784
H140	H	0.206289	0.220908	0.000054
H141	H	0.098544	0.219617	0.000072
O142	O	0.595620	0.150895	0.405361
C143	C	0.583056	0.228758	0.297015
C144	C	0.625874	0.185933	0.349860
H145	H	0.607499	0.257105	0.252144
H146	H	0.554751	0.204344	0.252026
H147	H	0.555212	0.256555	0.347811
H148	H	0.653755	0.158124	0.299131
H149	H	0.654138	0.210382	0.394863
H150	H	0.486602	0.172255	0.000037
H151	H	0.526850	-0.352066	0.000019
H152	H	-0.034198	-0.022693	0.000130
H153	H	0.246123	-0.071339	0.000161
O154	O	0.401047	-0.025704	0.000132
C155	C	0.421356	-0.128628	0.000091
C156	C	0.446210	-0.071100	0.000051
H157	H	0.457858	-0.165346	0.000006
H158	H	0.393928	-0.131600	0.063925
H159	H	0.393874	-0.131525	-0.063701
H160	H	0.473717	-0.068165	0.063800
H161	H	0.473605	-0.068153	-0.063825
O162	O	0.777298	-0.225061	-0.000003
C163	C	0.865830	-0.255330	-0.079002
C164	C	0.809081	-0.214908	-0.078981
H165	H	0.891537	-0.247144	-0.142858
H166	H	0.891606	-0.247137	-0.015223
H167	H	0.856337	-0.301669	-0.078965
H168	H	0.818522	-0.168555	-0.079050
H169	H	0.783321	-0.223151	-0.142754
O170	O	0.827360	-0.388437	0.000070
C171	C	0.930283	-0.408760	0.000136
C172	C	0.872750	-0.433606	0.000154
H173	H	0.966996	-0.445267	0.000223
H174	H	0.933258	-0.381321	-0.063690
H175	H	0.933185	-0.381293	0.063936
H176	H	0.869809	-0.461099	-0.063602
H177	H	0.869800	-0.461013	0.064022
O178	O	0.825893	-0.505448	-0.000061
C179	C	0.885365	-0.580731	-0.079007
C180	C	0.828631	-0.540286	-0.078967
H181	H	0.887592	-0.608916	-0.142786
H182	H	0.922866	-0.554375	-0.079055
H183	H	0.887622	-0.608872	-0.015163
H184	H	0.826318	-0.512137	-0.142800
H185	H	0.791157	-0.566676	-0.078871
O186	O	0.770729	-0.771574	0.000231
C187	C	0.859280	-0.801845	0.079200
C188	C	0.802556	-0.761385	0.079143
H189	H	0.885033	-0.793613	0.142984
H190	H	0.849818	-0.848195	0.079251
H191	H	0.885001	-0.793654	0.015361
H192	H	0.776807	-0.769525	0.142971
H193	H	0.812058	-0.715049	0.079044
H194	H	0.512280	-0.016146	0.000084
H195	H	0.525555	-0.459814	0.000014
H196	H	0.582043	-0.085909	0.000101
O197	O	0.565944	-0.743599	0.000006
C198	C	0.463020	-0.723281	0.000043
C199	C	0.520552	-0.698433	0.000083
H200	H	0.426306	-0.686777	0.000125
H201	H	0.460051	-0.750706	-0.063789
H202	H	0.460117	-0.750765	0.063837
H203	H	0.523494	-0.670924	-0.063668
H204	H	0.523497	-0.671041	0.063957
H205	H	0.770443	-0.111587	0.000142
O206	O	0.567409	-0.626582	-0.000117
C207	C	0.507951	-0.551281	-0.079087
C208	C	0.564682	-0.591731	-0.079024
H209	H	0.505733	-0.523086	-0.142866
H210	H	0.470448	-0.577633	-0.079150
H211	H	0.505691	-0.523152	-0.015243
H212	H	0.566998	-0.619869	-0.142856
H213	H	0.602159	-0.565345	-0.078912
H214	H	0.742982	0.003514	0.413044
