data_functionalizedCrystal
_audit_creation_method	'MofGen! by Chris Wilmer'
_symmetry_space_group_name_H-M	'P1'
_symmetry_Int_Tables_number	1
_symmetry_cell_setting	triclinic
loop_
_symmetry_equiv_pos_as_xyz
  x,y,z
_cell_length_a	19.121449
_cell_length_b	12.827893
_cell_length_c	12.827885
_cell_angle_alpha	89.980728
_cell_angle_beta	92.473889
_cell_angle_gamma	92.414809
loop_
_atom_site_label
_atom_site_type_symbol
_atom_site_fract_x
_atom_site_fract_y
_atom_site_fract_z
Zn1	Zn	-0.279577	-1.615334	0.573083
Zn2	Zn	-0.397043	-1.622650	0.390878
Zn3	Zn	-0.279611	-1.440578	0.398354
Zn4	Zn	-0.396990	-1.447979	0.565582
O5	O	-0.338305	-1.531635	0.481974
O6	O	-0.295167	-1.762541	0.548923
O7	O	-0.381501	-1.598462	0.245632
O8	O	-0.181323	-1.457600	0.427800
O9	O	-0.381468	-1.767916	0.415059
O10	O	-0.181298	-1.585993	0.556172
O11	O	-0.295225	-1.464694	0.251124
O12	O	-0.295174	-1.295323	0.420527
O13	O	-0.381379	-1.470215	0.712815
O14	O	-0.381412	-1.300761	0.543388
O15	O	-0.295116	-1.593170	0.718326
O16	O	-0.495319	-1.605639	0.407785
O17	O	-0.495281	-1.477309	0.536139
C18	C	-0.338292	-1.260125	0.481955
C19	C	-0.338303	-1.143972	0.481971
C20	C	-0.520784	-1.543099	0.470360
C21	C	-0.598849	-1.548099	0.465426
C22	C	-0.635529	-1.483588	0.529880
C23	C	-0.708880	-1.488291	0.525240
C24	C	-0.745548	-1.557511	0.456151
C25	C	-0.708862	-1.622024	0.391690
C26	C	-0.635513	-1.617316	0.396325
C27	C	-0.967015	-1.575068	0.438810
C28	C	-1.040369	-1.579774	0.434181
C29	C	-1.040381	-1.446038	0.567730
C30	C	-0.967031	-1.441340	0.572364
C31	C	-0.930351	-1.505850	0.507900
C32	C	-0.820524	-1.562321	0.451409
C33	C	-0.855377	-1.501033	0.512637
C34	C	-0.338238	-1.531702	0.754549
C35	C	-0.338209	-1.531731	0.870704
C36	C	-0.155114	-1.520155	0.493657
C37	C	-0.077049	-1.515263	0.498635
C38	C	-0.338319	-1.804206	0.481994
C39	C	-0.338325	-1.920360	0.482002
C40	C	-0.381043	-1.094910	0.542664
C41	C	-0.381055	-0.974861	0.542682
C42	C	-0.338322	-1.531626	0.210463
C43	C	-0.338153	-1.531787	0.094321
C44	C	-0.295515	-1.592579	0.925216
C45	C	-0.295484	-1.592610	1.045268
H46	H	-0.605679	-1.427227	0.586144
H47	H	-0.374709	-1.479694	1.047459
H48	H	-0.301718	-1.097100	0.430026
Br49	Br	-0.399092	-1.444926	0.941043
H50	H	-0.738742	-1.435750	0.577716
H51	H	-0.937177	-1.384976	0.628622
H52	H	-0.258935	-1.644708	1.092137
Br53	Br	-0.277338	-0.990686	0.395378
Br54	Br	-0.442021	-1.173023	0.629252
Br55	Br	-0.585731	-1.704860	0.308839
Br56	Br	-0.442053	-0.904528	0.629285
Br57	Br	-0.234606	-1.679341	0.854879
H58	H	-1.070253	-1.393517	0.620213
Br59	Br	-1.090133	-1.673723	0.340414
Br60	Br	-0.917244	-1.662635	0.351339
H61	H	-0.738724	-1.678380	0.335431
H62	H	-0.825519	-1.444671	0.568886
H63	H	-0.850388	-1.618681	0.395157
