data_functionalizedCrystal
_audit_creation_method	'MofGen! by Chris Wilmer'
_symmetry_space_group_name_H-M	'P1'
_symmetry_Int_Tables_number	1
_symmetry_cell_setting	triclinic
loop_
_symmetry_equiv_pos_as_xyz
  x,y,z
_cell_length_a	27.732048
_cell_length_b	15.944551
_cell_length_c	15.021413
_cell_angle_alpha	90.003065
_cell_angle_beta	89.998251
_cell_angle_gamma	83.070697
loop_
_atom_site_label
_atom_site_type_symbol
_atom_site_fract_x
_atom_site_fract_y
_atom_site_fract_z
O1	O	0.641363	0.099933	-0.073919
O2	O	0.500635	0.115130	-0.073947
O3	O	0.574842	-0.014793	-0.073924
O4	O	0.567156	0.229857	-0.073942
O5	O	0.574830	-0.014775	0.074140
O6	O	0.500623	0.115149	0.074118
O7	O	0.641351	0.099952	0.074145
Zn8	Zn	0.570985	0.107553	0.097640
Zn9	Zn	0.571001	0.107529	-0.097441
O10	O	0.567144	0.229875	0.074122
C11	C	0.574517	-0.046074	0.000108
C12	C	0.573560	-0.139307	0.000108
C13	C	0.482621	0.114820	0.000082
C14	C	0.428962	0.113860	0.000072
C15	C	0.525277	-0.353533	0.000087
C16	C	0.547692	-0.414834	0.073096
C17	C	0.571830	-0.310011	0.000101
C18	C	0.547715	-0.414836	-0.072884
C19	C	0.570155	-0.474902	0.000090
C20	C	0.594258	-0.370084	0.073170
C21	C	0.594274	-0.370079	-0.072875
C22	C	0.616723	-0.431364	0.000152
C23	C	0.572793	-0.215021	0.000108
C24	C	0.569195	-0.569890	0.000090
C25	C	0.090453	0.184589	0.000106
C26	C	-0.111222	0.181025	0.000114
O27	O	-0.142198	0.245701	0.000148
N28	N	-0.130679	0.103986	0.000118
C29	C	-0.099715	0.027832	0.000125
O30	O	-0.120892	-0.037776	0.000138
C31	C	0.101959	0.031397	0.000124
C32	C	0.121414	0.108441	0.000111
C33	C	0.109908	0.261627	0.000094
C34	C	0.160324	0.262517	0.000087
C35	C	0.191285	0.186369	0.000092
C36	C	0.171830	0.109331	0.000104
C37	C	0.132923	-0.044756	0.000138
C38	C	0.183345	-0.043858	0.000139
C39	C	0.202799	0.033186	0.000126
C40	C	0.253206	0.034073	0.000102
N41	N	0.272664	0.111113	0.000098
C42	C	0.241703	0.187260	0.000093
C43	C	-0.205597	0.025966	0.000125
C44	C	-0.256015	0.025074	0.000123
C45	C	-0.267519	0.178268	0.000113
C46	C	-0.217100	0.179158	0.000108
C47	C	-0.186139	0.103005	0.000121
C48	C	0.347580	0.189124	0.000078
C49	C	0.398001	0.190007	0.000067
C50	C	0.409500	0.036815	0.000082
C51	C	0.359084	0.035931	0.000088
C52	C	0.328125	0.112092	0.000089
O53	O	0.284210	-0.030569	0.000078
O54	O	0.262890	0.252859	0.000100
C55	C	0.040037	0.183699	0.000112
C56	C	0.020582	0.106661	0.000124
C57	C	0.051543	0.030513	0.000129
C58	C	-0.029836	0.105769	0.000123
C59	C	-0.060797	0.181917	0.000118
C60	C	-0.041339	0.258956	0.000114
C61	C	0.009076	0.259846	0.000107
C62	C	0.032086	-0.046526	0.000133
C63	C	-0.018331	-0.047410	0.000139
C64	C	-0.049291	0.028738	0.000134
C65	C	0.659365	0.100262	0.000114
C66	C	0.713024	0.101222	0.000118
C67	C	0.567469	0.261156	0.000088
C68	C	0.568426	0.354389	0.000082
N69	N	0.570978	0.107569	0.230777
N70	N	0.571012	0.107506	-0.230579
C71	C	0.536660	0.167618	0.470450
C72	C	0.580337	0.183354	0.529792
C73	C	0.570990	0.107548	0.412384
C74	C	0.527325	0.091831	0.529784
C75	C	0.570998	0.107530	0.587808
C76	C	0.614690	0.123321	0.470419
C77	C	0.561649	0.031766	0.470407
C78	C	0.605358	0.047469	0.529721
C79	C	0.570985	0.107561	0.311327
C80	C	0.571009	0.107516	0.688863
H81	H	0.486636	-0.319720	0.000152
H82	H	0.527997	-0.434677	0.134811
C83	C	0.620858	-0.343238	-0.156255
N84	N	0.640877	-0.323019	-0.219065
H85	H	0.613926	-0.350343	0.134961
H86	H	0.651628	0.136684	0.444452
H87	H	0.528024	-0.434663	-0.134612
C88	C	0.477433	0.073878	0.565009
N89	N	0.439854	0.060361	0.591536
C90	C	-0.277409	-0.059680	0.000132
N91	N	-0.293521	-0.123520	0.000145
C92	C	0.419397	0.274765	0.000059
N93	N	0.435511	0.338604	0.000058
H94	H	0.655398	-0.465028	0.000201
H95	H	0.084704	0.323639	0.000093
C96	C	0.313532	0.272906	0.000074
N97	N	0.287887	0.336010	0.000064
C98	C	0.591018	0.269920	0.565041
N99	N	0.599058	0.335123	0.591591
H100	H	0.176158	0.325254	0.000076
H101	H	0.634426	-0.003341	0.555582
C102	C	0.066137	-0.130300	0.000135
N103	N	0.091782	-0.193404	0.000130
H104	H	0.208551	-0.105873	0.000150
H105	H	-0.201264	0.241894	0.000103
H106	H	-0.066557	0.320958	0.000107
C107	C	-0.301585	0.262031	0.000115
N108	N	-0.327246	0.325117	0.000124
C109	C	-0.171546	-0.057815	0.000131
N110	N	-0.145901	-0.120919	0.000132
H111	H	0.117093	-0.107494	0.000149
H112	H	0.343244	-0.026805	0.000085
H113	H	0.434718	-0.025183	0.000082
C114	C	0.030469	0.344602	0.000104
N115	N	0.046579	0.408444	0.000105
C116	C	-0.039724	-0.132171	0.000159
N117	N	-0.055836	-0.196011	0.000184
H118	H	0.507656	0.218457	0.444426
C119	C	0.550946	-0.054773	0.435133
N120	N	0.542878	-0.119953	0.408562
