data_functionalizedCrystal
_audit_creation_method	'MofGen! by Chris Wilmer'
_symmetry_space_group_name_H-M	'P1'
_symmetry_Int_Tables_number	1
_symmetry_cell_setting	triclinic
loop_
_symmetry_equiv_pos_as_xyz
  x,y,z
_cell_length_a	14.044191
_cell_length_b	14.044220
_cell_length_c	9.730223
_cell_angle_alpha	89.997406
_cell_angle_beta	90.002006
_cell_angle_gamma	93.190327
loop_
_atom_site_label
_atom_site_type_symbol
_atom_site_fract_x
_atom_site_fract_y
_atom_site_fract_z
O1	O	1.277167	0.230195	-0.114230
O2	O	1.777167	0.730195	0.385770
O3	O	1.000494	0.221883	-0.114247
O4	O	1.500494	0.721883	0.385753
O5	O	1.134678	0.087703	-0.114225
O6	O	1.634678	0.587703	0.385775
O7	O	1.142983	0.364375	-0.114251
O8	O	1.642983	0.864375	0.385749
O9	O	1.134676	0.087707	0.114355
O10	O	1.634676	0.587707	0.614355
O11	O	1.000493	0.221886	0.114333
O12	O	1.500493	0.721886	0.614333
O13	O	1.277165	0.230199	0.114350
O14	O	1.777165	0.730199	0.614350
Zn15	Zn	1.138829	0.226043	0.150634
Zn16	Zn	1.638829	0.726043	0.650634
Zn17	Zn	1.138831	0.226038	-0.150530
Zn18	Zn	1.638831	0.726038	0.349470
O19	O	1.142982	0.364378	0.114328
O20	O	1.642982	0.864378	0.614328
C21	C	0.964872	0.218248	0.000041
C22	C	1.464872	0.718248	0.500041
C23	C	0.858728	0.207401	0.000035
C24	C	1.358728	0.707401	0.500035
C25	C	0.613270	0.264501	0.000043
C26	C	1.113270	0.764501	0.500043
C27	C	0.664395	0.187585	0.000048
C28	C	1.164395	0.687585	0.500048
C29	C	0.772532	0.198613	0.000041
C30	C	1.272532	0.698613	0.500041
C31	C	0.505123	0.253474	0.000051
C32	C	1.005123	0.753474	0.500051
C33	C	1.131041	0.052083	0.000065
C34	C	1.631041	0.552083	0.500065
C35	C	1.120197	-0.054060	0.000066
C36	C	1.620197	0.445940	0.500066
C37	C	1.100370	-0.248398	0.000045
C38	C	1.600370	0.251602	0.500045
C39	C	1.177285	-0.299526	0.000046
C40	C	1.677285	0.200474	0.500046
C41	C	1.166253	-0.407663	0.000034
C42	C	1.666253	0.092337	0.500034
C43	C	1.111400	-0.140252	0.000057
C44	C	1.611400	0.359748	0.500057
C45	C	1.312788	0.233834	0.000059
C46	C	1.812788	0.733834	0.500059
C47	C	1.418931	0.244681	0.000057
C48	C	1.918931	0.744681	0.500057
C49	C	1.146618	0.399998	0.000035
C50	C	1.646618	0.899998	0.500035
C51	C	1.157463	0.506142	0.000025
C52	C	1.657463	1.006142	0.500025
N53	N	1.138834	0.226046	0.356170
N54	N	1.638834	0.726046	0.856170
N55	N	1.138832	0.226028	-0.356067
N56	N	1.638832	0.726028	0.143933
C57	C	1.198269	0.166655	0.428106
C58	C	1.698269	0.666655	0.928106
C59	C	1.198266	0.166643	0.571989
C60	C	1.698266	0.666643	1.071989
C61	C	1.079391	0.285422	0.571988
C62	C	1.579391	0.785422	1.071988
C63	C	1.079390	0.285428	0.428107
C64	C	1.579390	0.785428	0.928107
C65	C	1.266904	0.098081	0.428108
C66	C	1.766904	0.598081	0.928108
C67	C	1.266901	0.098070	0.571991
C68	C	1.766901	0.598070	1.071991
H69	H	0.650711	0.338628	0.000032
H70	H	1.150711	0.838628	0.500032
Cl71	Cl	1.004664	0.360070	0.662431
Cl72	Cl	1.504664	0.860070	1.162431
H73	H	1.026242	-0.285837	0.000038
H74	H	1.526242	0.214163	0.500038
Cl75	Cl	1.291743	-0.241724	0.000068
Cl76	Cl	1.791743	0.258276	0.500068
H77	H	1.030984	0.333781	0.369538
H78	H	1.530984	0.833781	0.869538
H79	H	1.245049	0.023512	0.389060
H80	H	1.745049	0.523512	0.889060
Cl81	Cl	1.376566	0.142088	0.359200
Cl82	Cl	1.876566	0.642088	0.859200
H83	H	1.238461	0.027011	0.616611
H84	H	1.738461	0.527011	1.116611
Cl85	Cl	1.382008	0.131893	0.632297
Cl86	Cl	1.882008	0.631893	1.132297
H87	H	0.626952	0.113452	-0.000041
H88	H	1.126952	0.613452	0.499959
