data_functionalizedCrystal
_audit_creation_method	'MofGen! by Chris Wilmer'
_symmetry_space_group_name_H-M	'P1'
_symmetry_Int_Tables_number	1
_symmetry_cell_setting	triclinic
loop_
_symmetry_equiv_pos_as_xyz
  x,y,z
_cell_length_a	10.685980
_cell_length_b	16.120484
_cell_length_c	10.686551
_cell_angle_alpha	88.707809
_cell_angle_beta	81.591741
_cell_angle_gamma	97.500660
loop_
_atom_site_label
_atom_site_type_symbol
_atom_site_fract_x
_atom_site_fract_y
_atom_site_fract_z
Zn1	Zn	1.982414	-0.186867	-0.879991
Zn2	Zn	2.482414	0.313133	-0.379991
Zn3	Zn	1.955183	-0.337902	-0.678466
Zn4	Zn	2.455183	0.162098	-0.178466
Zn5	Zn	1.752181	-0.210071	-0.653105
Zn6	Zn	2.252181	0.289929	-0.153105
Zn7	Zn	1.759312	-0.337821	-0.874371
Zn8	Zn	2.259312	0.162179	-0.374371
O9	O	1.862272	-0.268165	-0.771483
O10	O	2.362272	0.231835	-0.271483
O11	O	2.157128	-0.197225	-0.866224
O12	O	2.657128	0.302775	-0.366224
O13	O	1.913873	-0.330690	-0.498163
O14	O	2.413873	0.169310	0.001837
O15	O	1.791134	-0.090321	-0.674940
O16	O	2.291134	0.409679	-0.174940
O17	O	2.137121	-0.308190	-0.718165
O18	O	2.637121	0.191810	-0.218165
O19	O	1.960286	-0.073273	-0.841632
O20	O	2.460286	0.426727	-0.341632
O21	O	1.764728	-0.236773	-0.479530
O22	O	2.264728	0.263227	0.020470
O23	O	1.574801	-0.236695	-0.669491
O24	O	2.074801	0.263305	-0.169491
O25	O	1.803288	-0.308052	-1.052056
O26	O	2.303288	0.191948	-0.552056
O27	O	1.580040	-0.330552	-0.832054
O28	O	2.080040	0.169448	-0.332054
O29	O	1.967201	-0.197147	-1.056184
O30	O	2.467201	0.302853	-0.556184
O31	O	1.920788	-0.454563	-0.712715
O32	O	2.420788	0.045437	-0.212715
O33	O	1.776883	-0.454504	-0.856646
O34	O	2.276883	0.045496	-0.356646
C35	C	1.531182	-0.286133	-0.747411
C36	C	2.031182	0.213867	-0.247411
C37	C	1.389542	-0.293838	-0.737144
C38	C	1.889542	0.206162	-0.237144
C39	C	1.846691	-0.484782	-0.786853
C40	C	2.346691	0.015218	-0.286853
C41	C	1.840145	-0.577443	-0.793479
C42	C	2.340145	-0.077443	-0.293479
C43	C	1.828203	-0.747094	-0.805602
C44	C	2.328203	-0.247094	-0.305602
C45	C	1.896572	-0.788383	-0.737402
C46	C	2.396572	-0.288383	-0.237402
C47	C	1.889927	-0.882783	-0.744147
C48	C	2.389927	-0.382783	-0.244147
C49	C	1.834846	-0.652686	-0.798858
C50	C	2.334846	-0.152686	-0.298858
C51	C	2.194655	-0.250128	-0.795650
C52	C	2.694655	0.249872	-0.295650
C53	C	2.336297	-0.242442	-0.805949
C54	C	2.836297	0.257558	-0.305949
C55	C	1.889077	-0.250002	-1.101281
C56	C	2.389077	0.249998	-0.601281
C57	C	1.900500	-0.242262	-1.241821
C58	C	2.400500	0.257738	-0.741821
C59	C	1.877952	-0.050700	-0.756084
C60	C	2.377952	0.449300	-0.256084
C61	C	1.884634	0.041971	-0.749522
C62	C	2.384634	0.541971	-0.249522
C63	C	1.835649	-0.286194	-0.442969
C64	C	2.335649	0.213806	0.057031
C65	C	1.824490	-0.293686	-0.302431
C66	C	2.324490	0.206314	0.197569
H67	H	1.326760	-0.343739	-0.670374
H68	H	1.826760	0.156261	-0.170374
H69	H	1.764686	-0.782638	-0.869051
H70	H	2.264686	-0.282638	-0.369051
H71	H	1.960092	-0.752836	-0.673946
H72	H	2.460092	-0.252836	-0.173946
Br73	Br	1.440922	-0.159264	-0.917220
Br74	Br	1.940922	0.340736	-0.417220
Br75	Br	1.701465	-0.376946	-1.209722
Br76	Br	2.201465	0.123054	-0.709722
Br77	Br	2.023551	-0.159011	-1.334537
Br78	Br	2.523551	0.340989	-0.834537
