data_functionalizedCrystal
_audit_creation_method	'MofGen! by Chris Wilmer'
_symmetry_space_group_name_H-M	'P1'
_symmetry_Int_Tables_number	1
_symmetry_cell_setting	triclinic
loop_
_symmetry_equiv_pos_as_xyz
  x,y,z
_cell_length_a	6.817900
_cell_length_b	7.190339
_cell_length_c	17.982968
_cell_angle_alpha	88.794059
_cell_angle_beta	102.451960
_cell_angle_gamma	60.611724
loop_
_atom_site_label
_atom_site_type_symbol
_atom_site_fract_x
_atom_site_fract_y
_atom_site_fract_z
V1	V	-4.102841	0.297088	-0.237006
V2	V	-3.602841	0.797088	0.262994
O3	O	-3.999212	-0.012220	-0.233049
O4	O	-3.499212	0.487780	0.266951
O5	O	-4.140103	0.587098	-0.234852
O6	O	-3.640103	1.087098	0.265148
O7	O	-4.048265	0.293420	-0.340616
O8	O	-3.548265	0.793420	0.159384
O9	O	-4.091685	0.283491	-0.126553
O10	O	-3.591685	0.783491	0.373447
V11	V	-4.576170	0.259985	-0.223860
V12	V	-4.076170	0.759985	0.276140
O13	O	-4.386462	0.378477	-0.265844
O14	O	-3.886462	0.878477	0.234156
O15	O	-4.742746	0.178595	-0.195022
O16	O	-4.242746	0.678595	0.304978
O17	O	-4.315702	-0.030026	-0.226014
O18	O	-3.815702	0.469974	0.273986
O19	O	-4.797196	0.569293	-0.227817
O20	O	-4.297196	1.069293	0.272183
O21	O	-4.704723	0.273582	-0.334313
O22	O	-4.204723	0.773582	0.165687
O23	O	-4.407539	0.263652	-0.120250
O24	O	-3.907539	0.763652	0.379750
C25	C	-3.888993	0.283150	-0.365887
C26	C	-3.388993	0.783150	0.134113
C27	C	-3.926221	0.282070	-0.450585
C28	C	-3.426221	0.782070	0.049415
C29	C	-4.128788	0.292251	-0.494238
C30	C	-3.628788	0.792251	0.005762
C31	C	-4.163756	0.291234	-0.573821
C32	C	-3.663756	0.791234	-0.073821
C33	C	-3.996161	0.280053	-0.609749
C34	C	-3.496161	0.780053	-0.109749
C35	C	-3.793574	0.269866	-0.566090
C36	C	-3.293574	0.769866	-0.066090
C37	C	-3.758602	0.270867	-0.486508
C38	C	-3.258602	0.770867	0.013492
C39	C	-3.934609	0.265827	-0.887034
C40	C	-3.434609	0.765827	-0.387034
C41	C	-3.969601	0.264833	-0.966623
C42	C	-3.469601	0.764833	-0.466623
C43	C	-4.339763	0.286195	-0.974347
C44	C	-3.839763	0.786195	-0.474347
C45	C	-4.304790	0.287196	-0.894765
C46	C	-3.804790	0.787196	-0.394765
C47	C	-4.102202	0.276997	-0.851112
C48	C	-3.602202	0.776997	-0.351112
C49	C	-4.064286	0.278094	-0.764820
C50	C	-3.564286	0.778094	-0.264820
C51	C	-4.034082	0.278971	-0.696041
C52	C	-3.534082	0.778971	-0.196041
C53	C	-4.006159	0.657771	-0.230979
C54	C	-3.506159	1.157771	0.269021
C55	C	-4.119971	0.899321	-0.229891
C56	C	-3.619971	1.399321	0.270109
C57	C	-4.230156	0.273929	-0.094975
C58	C	-3.730156	0.773929	0.405025
C59	C	-4.172163	0.274998	-0.010276
C60	C	-3.672163	0.774998	0.489724
H61	H	-4.441272	0.296311	-0.865517
H62	H	-3.941272	0.796311	-0.365517
Cl63	Cl	-3.503926	0.258048	-0.431629
Cl64	Cl	-3.003926	0.758048	0.068371
Cl65	Cl	-4.594446	0.299005	-1.029229
Cl66	Cl	-4.094446	0.799005	-0.529229
Cl67	Cl	-4.418436	0.304062	-0.628697
Cl68	Cl	-3.918436	0.804062	-0.128697
Cl69	Cl	-4.339504	0.306322	-0.449080
Cl70	Cl	-3.839504	0.806322	0.050920
Cl71	Cl	-3.758890	0.250772	-1.011789
Cl72	Cl	-3.258890	0.750772	-0.511789
Cl73	Cl	-3.679959	0.253064	-0.832170
Cl74	Cl	-3.179959	0.753064	-0.332170
H75	H	-3.657112	0.260749	-0.595349
H76	H	-3.157112	0.760749	-0.095349
