data_functionalizedCrystal
_audit_creation_method	'MofGen! by Chris Wilmer'
_symmetry_space_group_name_H-M	'P1'
_symmetry_Int_Tables_number	1
_symmetry_cell_setting	triclinic
loop_
_symmetry_equiv_pos_as_xyz
  x,y,z
_cell_length_a	17.077404
_cell_length_b	12.759400
_cell_length_c	17.077396
_cell_angle_alpha	89.974414
_cell_angle_beta	89.980499
_cell_angle_gamma	90.014910
loop_
_atom_site_label
_atom_site_type_symbol
_atom_site_fract_x
_atom_site_fract_y
_atom_site_fract_z
Zn1	Zn	1.200099	-0.418260	-0.443859
Zn2	Zn	1.700099	0.081740	0.056141
Zn3	Zn	1.200025	-0.593961	-0.312599
Zn4	Zn	1.700025	-0.093961	0.187401
Zn5	Zn	1.068831	-0.418297	-0.312606
Zn6	Zn	1.568831	0.081703	0.187394
Zn7	Zn	1.068818	-0.593898	-0.443823
Zn8	Zn	1.568818	-0.093898	0.056177
O9	O	1.134443	-0.506104	-0.378222
O10	O	1.634443	-0.006104	0.121778
O11	O	1.309936	-0.441578	-0.426459
O12	O	1.809936	0.058422	0.073541
O13	O	1.182597	-0.570700	-0.202753
O14	O	1.682597	-0.070700	0.297247
O15	O	1.086281	-0.271271	-0.330035
O16	O	1.586281	0.228729	0.169965
O17	O	1.309882	-0.570664	-0.330023
O18	O	1.809882	-0.070664	0.169977
O19	O	1.182723	-0.271244	-0.426466
O20	O	1.682723	0.228756	0.073534
O21	O	1.086209	-0.441641	-0.202759
O22	O	1.586209	0.058359	0.297241
O23	O	0.958983	-0.441580	-0.330001
O24	O	1.458983	0.058420	0.169999
O25	O	1.086258	-0.570558	-0.553674
O26	O	1.586258	-0.070558	-0.053674
O27	O	0.958973	-0.570594	-0.426405
O28	O	1.458973	-0.070594	0.073595
O29	O	1.182710	-0.441517	-0.553701
O30	O	1.682710	0.058483	-0.053701
O31	O	1.182584	-0.740973	-0.329988
O32	O	1.682584	-0.240973	0.170012
O33	O	1.086186	-0.740927	-0.426398
O34	O	1.586186	-0.240927	0.073602
C35	C	0.930496	-0.506085	-0.378200
C36	C	1.430496	-0.006085	0.121800
C37	C	0.843246	-0.506102	-0.378209
C38	C	1.343246	-0.006102	0.121791
C39	C	1.134397	-0.779071	-0.378205
C40	C	1.634397	-0.279071	0.121795
C41	C	1.134449	-0.895848	-0.378225
C42	C	1.634449	-0.395848	0.121775
C43	C	0.802271	-0.573381	-0.428326
C44	C	1.302271	-0.073381	0.071674
C45	C	0.720291	-0.573383	-0.428339
C46	C	1.220291	-0.073383	0.071661
C47	C	0.679286	-0.506111	-0.378230
C48	C	1.179286	-0.006111	0.121770
C49	C	0.720267	-0.438825	-0.328111
C50	C	1.220267	0.061175	0.171889
C51	C	0.802246	-0.438818	-0.328103
C52	C	1.302246	0.061182	0.171897
C53	C	0.549397	-0.438846	-0.328130
C54	C	1.049397	0.061154	0.171870
C55	C	0.467412	-0.438854	-0.328136
C56	C	0.967412	0.061146	0.171864
C57	C	0.467442	-0.573410	-0.428366
C58	C	0.967442	-0.073410	0.071634
C59	C	0.549421	-0.573404	-0.428358
C60	C	1.049421	-0.073404	0.071642
C61	C	0.590395	-0.506119	-0.378237
C62	C	1.090395	-0.006119	0.121763
C63	C	1.184699	-0.950699	-0.328080
C64	C	1.684699	-0.450699	0.171920
C65	C	1.184747	-1.060423	-0.328104
C66	C	1.684747	-0.560423	0.171896
C67	C	1.084289	-1.060435	-0.428420
C68	C	1.584289	-0.560435	0.071580
C69	C	1.084245	-0.950713	-0.428399
C70	C	1.584245	-0.450713	0.071601
C71	C	1.234902	-0.895833	-0.277905
C72	C	1.734902	-0.395833	0.222095
C73	C	1.285156	-0.950685	-0.227755
C74	C	1.785156	-0.450685	0.272245
C75	C	1.285204	-1.060409	-0.227780
C76	C	1.785204	-0.560409	0.272220
C77	C	1.234999	-1.115282	-0.277954
C78	C	1.734999	-0.615282	0.222046
C79	C	1.339188	-0.506124	-0.378244
C80	C	1.839188	-0.006124	0.121756
C81	C	1.426437	-0.506132	-0.378253
C82	C	1.926437	-0.006132	0.121747
C83	C	1.134491	-0.506026	-0.582966
C84	C	1.634491	-0.006026	-0.082966
C85	C	1.134511	-0.505993	-0.670216
C86	C	1.634511	-0.005993	-0.170216
C87	C	1.134512	-0.232071	-0.378255
C88	C	1.634512	0.267929	0.121745
C89	C	1.134541	-0.115294	-0.378270
C90	C	1.634541	0.384706	0.121730
C91	C	1.184735	-0.438796	-0.711221
C92	C	1.684735	0.061204	-0.211221
C93	C	1.184745	-0.438761	-0.793202
C94	C	1.684745	0.061239	-0.293202
C95	C	1.134533	-0.505930	-0.834175
C96	C	1.634533	-0.005930	-0.334175
C97	C	1.084304	-0.573130	-0.793165
C98	C	1.584304	-0.073130	-0.293165
C99	C	1.084291	-0.573159	-0.711186
C100	C	1.584291	-0.073159	-0.211186
C101	C	1.084335	-0.573066	-0.964035
C102	C	1.584335	-0.073066	-0.464035
C103	C	1.084349	-0.573039	-1.046019
C104	C	1.584349	-0.073039	-0.546019
C105	C	1.184789	-0.438669	-1.046051
C106	C	1.684789	0.061331	-0.546051
C107	C	1.184777	-0.438698	-0.964072
C108	C	1.684777	0.061302	-0.464072
C109	C	1.134547	-0.505900	-0.923066
C110	C	1.634547	-0.005900	-0.423066
C111	C	1.134441	-0.506105	-0.174274
C112	C	1.634441	-0.006105	0.325726
C113	C	1.134573	-0.505842	-0.087025
C114	C	1.634573	-0.005842	0.412975
H115	H	0.686933	-0.628169	-0.469149
H116	H	1.186933	-0.128169	0.030851
N117	N	0.846494	-0.645946	-0.482368
N118	N	1.346494	-0.145946	0.017632
H119	H	0.808094	-0.688566	-0.514119
H120	H	1.308094	-0.188566	-0.014119
H121	H	0.880532	-0.603241	-0.518747
H122	H	1.380532	-0.103241	-0.018747
N123	N	1.238900	-0.366264	-0.837429
N124	N	1.738900	0.133736	-0.337429
H125	H	1.270705	-0.323717	-0.799033
H126	H	1.770705	0.176283	-0.299033
H127	H	1.275224	-0.409004	-0.871454
H128	H	1.775224	0.090996	-0.371454
H129	H	0.582756	-0.384046	-0.287323
H130	H	1.082756	0.115954	0.212677
H131	H	0.686875	-0.384046	-0.287314
H132	H	1.186875	0.115954	0.212686
H133	H	0.582804	-0.628188	-0.469157
H134	H	1.082804	-0.128188	0.030843
N135	N	0.423254	-0.645986	-0.482424
N136	N	0.923254	-0.145986	0.017576
H137	H	0.365098	-0.635782	-0.474830
H138	H	0.865098	-0.135782	0.025170
H139	H	0.437613	-0.629735	-0.538506
H140	H	0.937613	-0.129735	-0.038506
H141	H	1.234867	-0.806491	-0.277878
H142	H	1.734867	-0.306491	0.222122
N143	N	0.423183	-0.366298	-0.274092
N144	N	0.923183	0.133702	0.225908
H145	H	0.461578	-0.323666	-0.242344
H146	H	0.961578	0.176334	0.257656
H147	H	0.389188	-0.317744	-0.306116
H148	H	0.889188	0.182256	0.193884
H149	H	0.835606	-0.384027	-0.287296
H150	H	1.335606	0.115973	0.212704
N151	N	1.339311	-0.891508	-0.173650
N152	N	1.839311	-0.391508	0.326350
H153	H	1.331657	-0.813676	-0.181242
H154	H	1.831657	-0.313676	0.318758
H155	H	1.327135	-0.910756	-0.117581
H156	H	1.827135	-0.410756	0.382419
N157	N	1.339408	-1.119573	-0.173700
N158	N	1.839408	-0.619573	0.326300
H159	H	1.371203	-1.068163	-0.141914
H160	H	1.871203	-0.568163	0.358086
H161	H	1.307494	-1.165168	-0.137356
H162	H	1.807494	-0.665168	0.362644
N163	N	1.030052	-0.891543	-0.482486
N164	N	1.530052	-0.391543	0.017514
H165	H	0.998251	-0.942947	-0.514271
H166	H	1.498251	-0.442947	-0.014271
H167	H	0.993726	-0.846084	-0.450493
H168	H	1.493726	-0.346084	0.049507
N169	N	1.238898	-0.366357	-0.667031
N170	N	1.738898	0.133643	-0.167031
H171	H	1.270715	-0.323782	-0.705450
H172	H	1.770715	0.176218	-0.205450
H173	H	1.206953	-0.317745	-0.633017
H174	H	1.706953	0.182255	-0.133017
H175	H	1.235048	-1.204626	-0.277975
H176	H	1.735048	-0.704626	0.222025
H177	H	1.043418	-0.627815	-0.826532
H178	H	1.543418	-0.127815	-0.326532
N179	N	1.030113	-0.645625	-0.666954
N180	N	1.530113	-0.145625	-0.166954
H181	H	0.998305	-0.688171	-0.705349
H182	H	1.498305	-0.188171	-0.205349
H183	H	1.062041	-0.694263	-0.632935
H184	H	1.562041	-0.194263	-0.132935
H185	H	1.225668	-0.384010	-0.930713
H186	H	1.725668	0.115990	-0.430713
N187	N	1.030140	-1.119614	-0.482531
N188	N	1.530140	-0.619614	0.017469
H189	H	1.037791	-1.197446	-0.474933
H190	H	1.537791	-0.697446	0.025067
H191	H	0.974078	-1.100505	-0.470257
H192	H	1.474078	-0.600505	0.029743
N193	N	1.238969	-0.366189	-1.090272
N194	N	1.738969	0.133811	-0.590272
H195	H	1.231357	-0.376357	-1.148422
H196	H	1.731357	0.123643	-0.648422
H197	H	1.226773	-0.291158	-1.075948
H198	H	1.726773	0.208842	-0.575948
N199	N	1.030192	-0.645460	-1.090233
N200	N	1.530192	-0.145460	-0.590233
H201	H	1.042345	-0.720542	-1.075971
H202	H	1.542345	-0.220542	-0.575971
H203	H	0.974128	-0.629040	-1.075952
H204	H	1.474128	-0.129040	-0.575952
N205	N	1.030157	-0.645541	-0.919805
N206	N	1.530157	-0.145541	-0.419805
H207	H	0.998351	-0.688091	-0.958200
H208	H	1.498351	-0.188091	-0.458200
H209	H	1.062093	-0.694176	-0.885790
H210	H	1.562093	-0.194176	-0.385790
