data_functionalizedCrystal
_audit_creation_method	'MofGen! by Chris Wilmer'
_symmetry_space_group_name_H-M	'P1'
_symmetry_Int_Tables_number	1
_symmetry_cell_setting	triclinic
loop_
_symmetry_equiv_pos_as_xyz
  x,y,z
_cell_length_a	14.044220
_cell_length_b	19.188930
_cell_length_c	13.101039
_cell_angle_alpha	93.345801
_cell_angle_beta	86.340132
_cell_angle_gamma	88.166830
loop_
_atom_site_label
_atom_site_type_symbol
_atom_site_fract_x
_atom_site_fract_y
_atom_site_fract_z
O1	O	1.262233	0.164759	-0.085127
O2	O	0.986290	0.158685	-0.085152
O3	O	1.132223	0.060581	-0.085119
O4	O	1.116300	0.262863	-0.085160
O5	O	1.121753	0.067633	0.085309
O6	O	0.975820	0.165737	0.085275
O7	O	1.251762	0.171810	0.085300
Zn8	Zn	1.112128	0.169893	0.112347
Zn9	Zn	1.125924	0.160602	-0.112199
O10	O	1.105829	0.269914	0.085267
C11	C	0.945752	0.159553	0.000059
C12	C	0.840559	0.151623	0.000050
C13	C	1.126472	0.038063	0.000098
C14	C	1.124923	-0.039541	0.000106
C15	C	0.647957	0.137129	0.000073
C16	C	0.590091	0.193363	0.000066
C17	C	0.482920	0.185298	0.000079
C18	C	0.755137	0.145193	0.000060
C19	C	1.210553	-0.078939	0.000119
C20	C	1.209099	-0.151857	0.000103
C21	C	1.122010	-0.185374	0.000094
C22	C	1.036370	-0.145968	0.000075
C23	C	1.037827	-0.073051	0.000082
N24	N	1.051878	-0.295275	0.058088
N25	N	1.050500	-0.364543	0.058084
C26	C	1.117617	-0.405067	0.000073
N27	N	1.186177	-0.373707	-0.057921
N28	N	1.187558	-0.304433	-0.057913
C29	C	1.120421	-0.264440	0.000086
C30	C	1.201676	-0.523532	0.000066
C31	C	1.200219	-0.596452	0.000043
C32	C	1.027487	-0.590560	0.000026
C33	C	1.028947	-0.517642	0.000039
C34	C	1.116043	-0.484132	0.000064
C35	C	1.292301	0.170943	0.000087
C36	C	1.397494	0.178872	0.000089
C37	C	1.111580	0.292433	0.000048
C38	C	1.113129	0.370037	0.000033
N39	N	1.102720	0.176234	0.265593
N40	N	1.135340	0.154257	-0.265445
C41	C	1.089920	0.184867	0.474633
C42	C	1.148137	0.145626	0.525522
C43	C	1.141014	0.150429	0.641839
C44	C	1.097041	0.180064	0.358306
H45	H	0.621038	0.247564	0.000050
C46	C	0.606156	0.063913	0.000082
H47	H	0.538565	0.068029	0.000077
H48	H	0.623406	0.041723	0.059512
H49	H	0.630693	0.036819	-0.059360
H50	H	1.203327	0.108423	0.481732
H51	H	1.269952	-0.628529	0.000048
C52	C	1.306356	-0.042083	0.000128
H53	H	1.357146	-0.075995	0.000123
H54	H	1.306868	-0.011306	0.059559
H55	H	1.314164	-0.016217	-0.059312
C56	C	1.297474	-0.486665	0.000080
H57	H	1.286077	-0.437595	0.000096
H58	H	1.336372	-0.502273	-0.059350
H59	H	1.329068	-0.497376	0.059521
C60	C	1.303294	-0.195203	0.000124
H61	H	1.355372	-0.164802	0.000146
H62	H	1.309973	-0.226225	-0.059306
H63	H	1.302652	-0.221315	0.059565
C64	C	0.940575	-0.182833	0.000070
H65	H	0.951970	-0.231902	0.000079
H66	H	0.908979	-0.172127	-0.059365
H67	H	0.901679	-0.167220	0.059506
H68	H	0.968095	-0.040974	0.000072
C69	C	0.931691	-0.627420	0.000014
H70	H	0.943086	-0.676489	0.000016
H71	H	0.900096	-0.616709	-0.059420
H72	H	0.892794	-0.611810	0.059451
C73	C	1.015348	0.235108	0.533776
H74	H	0.979745	0.259092	0.486554
H75	H	1.046847	0.267961	0.575638
H76	H	0.973427	0.209255	0.575622
C77	C	0.934752	-0.474302	0.000042
H78	H	0.882675	-0.504704	0.000044
H79	H	0.935378	-0.448183	-0.059385
H80	H	0.928083	-0.443286	0.059486
