data_functionalizedCrystal
_audit_creation_method	'MofGen! by Chris Wilmer'
_symmetry_space_group_name_H-M	'P1'
_symmetry_Int_Tables_number	1
_symmetry_cell_setting	triclinic
loop_
_symmetry_equiv_pos_as_xyz
  x,y,z
_cell_length_a	19.077142
_cell_length_b	19.077068
_cell_length_c	19.076919
_cell_angle_alpha	85.529249
_cell_angle_beta	89.925643
_cell_angle_gamma	90.114550
loop_
_atom_site_label
_atom_site_type_symbol
_atom_site_fract_x
_atom_site_fract_y
_atom_site_fract_z
Zn1	Zn	-1.044046	0.340467	-0.453535
Zn2	Zn	-1.043960	0.453617	-0.340376
Zn3	Zn	-0.931658	0.331038	-0.330962
Zn4	Zn	-0.921799	0.453191	-0.453108
O5	O	-0.985366	0.394578	-0.394495
O6	O	-1.142194	0.359601	-0.442642
O7	O	-1.033152	0.433589	-0.240651
O8	O	-0.950729	0.233814	-0.343461
O9	O	-1.142130	0.442732	-0.359505
O10	O	-1.033300	0.240742	-0.433514
O11	O	-0.950645	0.343531	-0.233735
O12	O	-0.832191	0.343117	-0.343047
O13	O	-0.933926	0.442005	-0.551640
O14	O	-0.824948	0.432862	-0.432787
O15	O	-1.023740	0.359188	-0.551954
O16	O	-1.023592	0.552035	-0.359091
O17	O	-0.933842	0.551722	-0.441915
C18	C	-0.803118	0.386921	-0.386849
C19	C	-0.725150	0.383663	-0.383596
C20	C	-0.684768	0.428922	-0.428722
C21	C	-0.611509	0.425852	-0.425668
C22	C	-0.578633	0.377525	-0.377484
C23	C	-0.619021	0.332260	-0.332356
C24	C	-0.692278	0.335328	-0.335414
C25	C	-0.359939	0.363329	-0.363338
C26	C	-0.286676	0.360266	-0.360282
C27	C	-0.279169	0.453858	-0.453596
C28	C	-0.352428	0.456924	-0.456647
C29	C	-0.392810	0.411657	-0.411521
N30	N	-0.503751	0.374386	-0.374359
N31	N	-0.467691	0.414792	-0.414650
C32	C	-0.977656	0.577413	-0.401494
C33	C	-0.974421	0.655634	-0.404515
C34	C	-0.977743	0.401601	-0.578045
C35	C	-0.974495	0.404593	-0.656263
C36	C	-0.168326	0.402262	-0.402163
C37	C	-0.246294	0.405526	-0.405409
C38	C	-0.993124	0.211031	-0.387485
C39	C	-0.996430	0.132814	-0.384498
C40	C	-1.019663	0.692526	-0.362850
C41	C	-1.016624	0.766023	-0.365696
C42	C	-0.968340	0.802628	-0.410202
C43	C	-0.923096	0.765732	-0.451871
C44	C	-0.926139	0.692236	-0.449029
C45	C	-0.954229	1.022422	-0.423325
C46	C	-0.951188	1.095922	-0.426162
C47	C	-1.044718	1.096209	-0.339988
C48	C	-1.047753	1.022711	-0.337147
C49	C	-1.002512	0.985822	-0.378818
N50	N	-0.965231	0.877754	-0.413109
N51	N	-1.005625	0.910697	-0.375914
C52	C	-1.019728	0.362883	-0.693174
C53	C	-1.016667	0.365691	-0.766668
C54	C	-0.968376	0.410215	-0.803249
C55	C	-0.923138	0.451927	-0.766332
C56	C	-0.926196	0.449114	-0.692840
C57	C	-0.954214	0.423248	-1.023031
C58	C	-0.951161	0.426060	-1.096528
C59	C	-1.044689	0.339822	-1.096859
C60	C	-1.047745	0.337016	-1.023365
C61	C	-1.002505	0.378726	-0.986454
N62	N	-0.965248	0.413089	-0.878372
N63	N	-1.005630	0.375848	-0.911333
C64	C	-0.993001	0.387534	-0.211659
C65	C	-0.996394	0.384349	-0.133440
H66	H	-0.592248	0.292908	-0.293126
H67	H	-0.883816	0.488177	-0.796123
C68	C	-0.876897	0.878266	-0.494484
C69	C	-0.870019	0.805966	-0.500791
H70	H	-0.844123	0.903102	-0.524682
H71	H	-0.923086	0.892638	-0.507265
H72	H	-0.868134	0.888092	-0.447228
H73	H	-0.878787	0.796139	-0.548046
H74	H	-0.823818	0.791589	-0.488015
C75	C	-1.107982	0.363036	-0.852924
C76	C	-1.066380	0.319839	-0.807249
H77	H	-1.138667	0.334724	-0.877981
H78	H	-1.134717	0.393717	-0.826557
H79	H	-1.078774	0.389954	-0.885219
H80	H	-1.095588	0.292925	-0.774950
H81	H	-1.039642	0.289146	-0.833618
H82	H	-1.087070	0.992909	-0.300906
C83	C	-0.915898	0.540192	-0.613386
C84	C	-0.876481	0.494965	-0.652257
H85	H	-0.885204	0.568493	-0.588328
H86	H	-0.944120	0.569491	-0.644369
H87	H	-0.945095	0.513261	-0.581090
H88	H	-0.847288	0.521896	-0.684557
H89	H	-0.848247	0.465662	-0.621271
C90	C	-0.911052	1.121667	-0.544740
C91	C	-0.898117	1.136165	-0.475091
H92	H	-0.878292	1.146517	-0.574943
H93	H	-0.906382	1.072623	-0.549012
H94	H	-0.957253	1.136042	-0.557502
H95	H	-0.851918	1.121786	-0.462327
H96	H	-0.902780	1.185220	-0.470815
H97	H	-0.711529	0.468278	-0.467956
C98	C	-0.807913	0.298471	-0.298672
C99	C	-0.736670	0.285577	-0.285810
H100	H	-0.835317	0.267751	-0.268051
H101	H	-0.818353	0.345836	-0.290602
H102	H	-0.818386	0.290559	-0.346083
H103	H	-0.726197	0.293495	-0.238399
H104	H	-0.726226	0.238201	-0.293874
H105	H	-1.053465	0.796056	-0.331768
H106	H	-0.911834	0.462318	-1.126311
C107	C	-0.917365	0.457230	-0.910232
C108	C	-0.904491	0.469100	-0.982464
H109	H	-0.886663	0.485536	-0.885187
H110	H	-0.964554	0.469048	-0.900562
H111	H	-0.909594	0.409055	-0.895957
H112	H	-0.912267	0.517274	-0.996740
H113	H	-0.857291	0.457286	-0.992138
C114	C	-1.139881	0.252049	-1.031076
C115	C	-1.100825	0.288070	-0.983157
H116	H	-1.172647	0.221831	-1.006251
H117	H	-1.164223	0.284933	-1.062037
H118	H	-1.109256	0.224946	-1.057430
H119	H	-1.131449	0.315178	-0.956806
H120	H	-1.076481	0.255182	-0.952184
C121	C	-0.208690	0.261762	-0.343628
C122	C	-0.250547	0.307120	-0.307328
H123	H	-0.186386	0.228953	-0.310938
H124	H	-0.237136	0.237284	-0.374501
H125	H	-0.174151	0.288290	-0.370052
H126	H	-0.285089	0.280593	-0.280907
H127	H	-0.222099	0.331601	-0.276442
H128	H	-1.081552	1.126252	-0.306062
C129	C	-0.611446	0.518689	-0.518190
C130	C	-0.567120	0.475614	-0.475261
H131	H	-0.584042	0.549415	-0.548803
H132	H	-0.640190	0.490304	-0.545187
H133	H	-0.640162	0.545568	-0.489693
H134	H	-0.538409	0.448730	-0.503759
H135	H	-0.538365	0.504002	-0.448262
C136	C	-1.111809	0.700199	-0.277961
C137	C	-1.072739	0.652293	-0.313927
H138	H	-1.144580	0.675361	-0.247761
H139	H	-1.081199	0.726589	-0.250848
H140	H	-1.136154	0.731129	-0.310883
H141	H	-1.048390	0.621366	-0.281004
H142	H	-1.103353	0.625892	-0.341041
C143	C	-0.833384	0.699330	-0.534493
C144	C	-0.876409	0.651682	-0.494828
H145	H	-0.802682	0.674293	-0.562767
H146	H	-0.861621	0.730272	-0.563818
H147	H	-0.806661	0.725732	-0.503789
H148	H	-0.903136	0.625284	-0.525532
H149	H	-0.848168	0.620728	-0.465500
H150	H	-1.081520	0.305864	-1.126919
H151	H	-0.379190	0.496279	-0.495882
C152	C	-1.111862	0.277918	-0.700890
C153	C	-1.072810	0.313938	-0.652968
H154	H	-1.144629	0.247697	-0.676068
H155	H	-1.136205	0.310802	-0.731850
H156	H	-1.081236	0.250817	-0.727244
H157	H	-1.103435	0.341044	-0.626617
H158	H	-1.048466	0.281050	-0.621995
H159	H	-0.392809	0.326474	-0.326589
C160	C	-0.163537	0.490709	-0.490348
C161	C	-0.234780	0.503606	-0.503202
H162	H	-0.136135	0.521420	-0.520980
H163	H	-0.153057	0.498627	-0.442946
H164	H	-0.153102	0.443335	-0.498413
H165	H	-0.245217	0.550979	-0.495132
H166	H	-0.245265	0.495694	-0.550615
H167	H	-0.917390	0.992392	-0.457254
