data_functionalizedCrystal
_audit_creation_method	'MofGen! by Chris Wilmer'
_symmetry_space_group_name_H-M	'P1'
_symmetry_Int_Tables_number	1
_symmetry_cell_setting	triclinic
loop_
_symmetry_equiv_pos_as_xyz
  x,y,z
_cell_length_a	12.759401
_cell_length_b	12.759400
_cell_length_c	12.759393
_cell_angle_alpha	90.029373
_cell_angle_beta	90.020938
_cell_angle_gamma	90.014690
loop_
_atom_site_label
_atom_site_type_symbol
_atom_site_fract_x
_atom_site_fract_y
_atom_site_fract_z
Zn1	Zn	1.606278	-0.418173	0.594028
Zn2	Zn	2.106278	0.081827	1.094028
Zn3	Zn	1.606173	-0.593888	0.418352
Zn4	Zn	2.106173	-0.093888	0.918352
Zn5	Zn	1.430576	-0.418229	0.418363
Zn6	Zn	1.930576	0.081771	0.918363
Zn7	Zn	1.430573	-0.593815	0.593989
Zn8	Zn	1.930573	-0.093815	1.093989
O9	O	1.518400	-0.506026	0.506183
O10	O	2.018400	-0.006026	1.006183
O11	O	1.753285	-0.441489	0.570736
O12	O	2.253285	0.058511	1.070736
O13	O	1.582838	-0.570641	0.271332
O14	O	2.082838	-0.070641	0.771332
O15	O	1.453928	-0.271200	0.441687
O16	O	1.953928	0.228800	0.941687
O17	O	1.753208	-0.570587	0.441667
O18	O	2.253208	-0.070587	0.941667
O19	O	1.583015	-0.271159	0.570747
O20	O	2.083015	0.228841	1.070747
O21	O	1.453827	-0.441584	0.271341
O22	O	1.953827	0.058416	0.771341
O23	O	1.283555	-0.441513	0.441649
O24	O	1.783555	0.058487	0.941649
O25	O	1.453923	-0.570461	0.741015
O26	O	1.953923	-0.070461	1.241015
O27	O	1.283552	-0.570516	0.570680
O28	O	1.783552	-0.070516	1.070680
O29	O	1.583012	-0.441418	0.741044
O30	O	2.083012	0.058582	1.241044
O31	O	1.582835	-0.740900	0.441629
O32	O	2.082835	-0.240900	0.941629
O33	O	1.453822	-0.740846	0.570669
O34	O	1.953822	-0.240846	1.070669
C35	C	1.245433	-0.506013	0.506162
C36	C	1.745433	-0.006013	1.006162
C37	C	1.128656	-0.506033	0.506178
C38	C	1.628656	-0.006033	1.006178
C39	C	1.073820	-0.573307	0.573259
C40	C	1.573820	-0.073307	1.073259
C41	C	0.964096	-0.573311	0.573280
C42	C	1.464096	-0.073311	1.073280
C43	C	0.964053	-0.438764	0.439130
C44	C	1.464053	0.061236	0.939130
C45	C	1.073775	-0.438756	0.439115
C46	C	1.573775	0.061244	0.939115
C47	C	1.518345	-0.778993	0.506167
C48	C	2.018345	-0.278993	1.006167
C49	C	1.518417	-0.895770	0.506195
C50	C	2.018417	-0.395770	1.006195
C51	C	1.585599	-0.950531	0.573451
C52	C	2.085599	-0.450531	1.073451
C53	C	1.585648	-1.060255	0.573477
C54	C	2.085648	-0.560255	1.073477
C55	C	1.451330	-1.060448	0.438980
C56	C	1.951330	-0.560448	0.938980
C57	C	1.451277	-0.950726	0.438961
C58	C	1.951277	-0.450726	0.938961
C59	C	1.663150	-0.950421	0.651099
C60	C	2.163150	-0.450421	1.151099
C61	C	1.663199	-1.060145	0.651124
C62	C	2.163199	-0.560145	1.151124
C63	C	1.792433	-0.506040	0.506205
C64	C	2.292433	-0.006040	1.006205
C65	C	1.909210	-0.506046	0.506214
C66	C	2.409210	-0.006046	1.006214
C67	C	1.518479	-0.505925	0.780217
C68	C	2.018479	-0.005925	1.280217
C69	C	1.518512	-0.505882	0.896993
C70	C	2.018512	-0.005882	1.396993
C71	C	1.518484	-0.231993	0.506223
C72	C	2.018484	0.268007	1.006223
C73	C	1.518520	-0.115216	0.506240
C74	C	2.018520	0.384784	1.006240
C75	C	1.518382	-0.506051	0.233216
C76	C	2.018382	-0.006051	0.733216
C77	C	1.518552	-0.505798	0.116440
C78	C	2.018552	-0.005798	0.616440
C79	C	1.585734	-0.438679	0.951872
C80	C	2.085734	0.061321	1.451872
C81	C	1.585752	-0.438633	1.061596
C82	C	2.085752	0.061367	1.561596
C83	C	1.451323	-0.573004	1.061553
C84	C	1.951323	-0.073004	1.561553
C85	C	1.451301	-0.573044	0.951831
C86	C	1.951301	-0.073044	1.451831
H87	H	1.118424	-0.383967	0.384490
H88	H	1.618424	0.116033	0.884490
H89	H	1.634011	-1.094142	0.728396
H90	H	2.134011	-0.594142	1.228396
O91	O	1.771006	-1.099547	0.622345
O92	O	2.271006	-0.599547	1.122345
H93	H	1.823744	-1.031820	0.608224
H94	H	2.323744	-0.531820	1.108224
O95	O	0.904854	-0.366211	0.366798
O96	O	1.404854	0.133789	0.866798
H97	H	0.961422	-0.319421	0.320157
H98	H	1.461422	0.180579	0.820157
H99	H	1.396563	-0.906140	0.384205
H100	H	1.896563	-0.406140	0.884205
O101	O	1.133018	-0.645853	0.645600
O102	O	1.633018	-0.145853	1.145600
H103	H	1.076449	-0.692625	0.692257
H104	H	1.576449	-0.192625	1.192257
H105	H	1.396604	-0.627687	1.106216
H106	H	1.896604	-0.127687	1.606216
H107	H	0.919454	-0.628090	0.627906
H108	H	1.419454	-0.128090	1.127906
O109	O	1.378932	-1.119719	0.366449
O110	O	1.878932	-0.619719	0.866449
H111	H	1.390261	-1.205216	0.377753
H112	H	1.890261	-0.705216	0.877753
O113	O	1.634186	-0.910910	0.758837
O114	O	2.134186	-0.410910	1.258837
H115	H	1.620039	-0.978584	0.811598
H116	H	2.120039	-0.478584	1.311598
O117	O	1.765524	-0.905271	0.612575
O118	O	2.265524	-0.405271	1.112575
H119	H	1.830232	-0.932079	0.664166
H120	H	2.330232	-0.432079	1.164166
H121	H	1.640459	-0.383989	0.907226
H122	H	2.140459	0.116011	1.407226
O123	O	1.658261	-0.366156	1.120791
O124	O	2.158261	0.133844	1.620791
H125	H	1.704996	-0.319471	1.064221
H126	H	2.204996	0.180529	1.564221
H127	H	1.396553	-0.627768	0.907148
H128	H	1.896553	-0.127768	1.407148
