data_functionalizedCrystal
_audit_creation_method	'MofGen! by Chris Wilmer'
_symmetry_space_group_name_H-M	'P1'
_symmetry_Int_Tables_number	1
_symmetry_cell_setting	triclinic
loop_
_symmetry_equiv_pos_as_xyz
  x,y,z
_cell_length_a	10.723023
_cell_length_b	15.995350
_cell_length_c	9.198806
_cell_angle_alpha	89.999047
_cell_angle_beta	89.996513
_cell_angle_gamma	83.979961
loop_
_atom_site_label
_atom_site_type_symbol
_atom_site_fract_x
_atom_site_fract_y
_atom_site_fract_z
O1	O	1.655690	0.117432	-0.120870
O2	O	1.292394	0.128673	-0.120875
O3	O	1.483973	0.001222	-0.120871
O4	O	1.464111	0.244883	-0.120874
O5	O	1.483958	0.001221	0.120914
O6	O	1.292379	0.128673	0.120910
O7	O	1.655675	0.117431	0.120915
Cu8	Cu	1.474026	0.123052	0.142990
Cu9	Cu	1.474044	0.123052	-0.142949
O10	O	1.464096	0.244883	0.120911
C11	C	1.245898	0.127855	0.000017
C12	C	1.107374	0.125408	0.000014
C13	C	1.045608	0.124316	0.125265
C14	C	0.902438	0.121787	0.125266
C15	C	1.483144	-0.029978	0.000019
C16	C	1.480683	-0.122942	0.000011
C17	C	1.471842	-0.460741	0.000015
C18	C	1.335403	-0.414090	-0.000529
C19	C	1.337865	-0.317386	0.000016
C20	C	1.476227	-0.293155	0.000012
C21	C	1.543515	-0.333846	0.138082
C22	C	1.540088	-0.430502	0.138197
C23	C	1.542923	-0.430843	-0.136758
C24	C	1.542891	-0.333898	-0.138582
C25	C	1.478713	-0.198443	0.000015
C26	C	1.469361	-0.555453	0.000022
C27	C	1.702172	0.118249	0.000020
C28	C	1.840695	0.120696	0.000013
N29	N	1.474022	0.123051	0.344103
C30	C	1.464925	0.276082	0.000018
C31	C	1.467387	0.369047	0.000017
N32	N	1.474057	0.123047	-0.344063
C33	C	1.554464	0.069302	0.416302
C34	C	1.554483	0.069299	0.583714
H35	H	0.849319	0.120853	0.232497
N36	N	1.115943	0.125566	0.267317
H37	H	1.103469	0.073354	0.324977
H38	H	1.208221	0.127229	0.247062
N39	N	1.645681	0.008353	0.334020
H40	H	1.699368	-0.027516	0.405202
H41	H	1.597688	-0.028822	0.270878
H42	H	1.405189	0.169069	0.593858
H43	H	1.645166	-0.319137	0.143214
H44	H	1.623357	0.023285	0.645802
N45	N	1.267818	-0.280129	-0.131088
H46	H	1.195199	-0.239192	-0.098126
H47	H	1.326362	-0.249759	-0.193159
H48	H	1.054262	0.124467	-0.107217
N49	N	1.267336	-0.280871	0.131348
H50	H	1.194720	-0.239848	0.098670
H51	H	1.234609	-0.327655	0.189059
H52	H	1.280876	-0.432935	-0.099541
N53	N	1.382805	0.184000	0.426387
H54	H	1.430708	0.221230	0.489531
H55	H	1.329140	0.219812	0.355114
H56	H	1.643791	-0.317957	-0.146922
N57	N	1.263468	-0.440445	0.129890
H58	H	1.258561	-0.503128	0.126492
H59	H	1.307769	-0.425622	0.221778
N60	N	0.911024	0.121939	-0.142049
H61	H	0.954918	0.174707	-0.147848
H62	H	0.975082	0.071044	-0.147759
H63	H	1.491008	-0.449085	0.241409
H64	H	1.640259	-0.462175	0.144459
N65	N	1.483849	-0.458383	-0.275383
H66	H	1.547836	-0.495737	-0.332736
H67	H	1.410399	-0.490490	-0.250802
N68	N	1.481618	-0.296603	0.274193
H69	H	1.410003	-0.253383	0.246734
H70	H	1.448492	-0.342654	0.333377
H71	H	1.493695	-0.306932	-0.240722
H72	H	1.643519	-0.462026	-0.137688
