data_functionalizedCrystal
_audit_creation_method	'MofGen! by Chris Wilmer'
_symmetry_space_group_name_H-M	'P1'
_symmetry_Int_Tables_number	1
_symmetry_cell_setting	triclinic
loop_
_symmetry_equiv_pos_as_xyz
  x,y,z
_cell_length_a	17.038272
_cell_length_b	19.288840
_cell_length_c	17.766277
_cell_angle_alpha	90.006284
_cell_angle_beta	90.008357
_cell_angle_gamma	87.118786
loop_
_atom_site_label
_atom_site_type_symbol
_atom_site_fract_x
_atom_site_fract_y
_atom_site_fract_z
O1	O	0.097423	0.927381	0.062722
O2	O	0.597423	1.427381	0.562722
O3	O	0.110598	0.725933	0.062696
O4	O	0.610598	1.225933	0.562696
O5	O	-0.009801	0.825460	0.062703
O6	O	0.490199	1.325460	0.562703
O7	O	0.217822	0.827854	0.062715
O8	O	0.717822	1.327854	0.562715
O9	O	-0.009813	0.825462	-0.062486
O10	O	0.490187	1.325462	0.437514
O11	O	0.110586	0.725935	-0.062493
O12	O	0.610586	1.225935	0.437507
O13	O	0.097411	0.927383	-0.062467
O14	O	0.597411	1.427383	0.437533
Cu15	Cu	0.103997	0.826659	-0.073911
Cu16	Cu	0.603997	1.326659	0.426089
Cu17	Cu	0.104012	0.826657	0.074139
Cu18	Cu	0.604012	1.326657	0.574139
O19	O	0.217810	0.827856	-0.062474
O20	O	0.717810	1.327856	0.437526
C21	C	0.110171	0.700031	0.000098
C22	C	0.610171	1.200031	0.500098
C23	C	0.108909	0.622849	0.000088
C24	C	0.608909	1.122849	0.500088
C25	C	0.108308	0.586607	0.068330
C26	C	0.608308	1.086607	0.568330
C27	C	0.107113	0.514086	0.068339
C28	C	0.607113	1.014086	0.568339
C29	C	0.106502	0.477811	0.000102
C30	C	0.606502	0.977811	0.500102
C31	C	0.107107	0.514061	-0.068149
C32	C	0.607107	1.014061	0.431851
C33	C	0.108310	0.586580	-0.068156
C34	C	0.608310	1.086580	0.431844
C35	C	0.058806	0.365533	-0.052169
C36	C	0.558806	0.865533	0.447831
C37	C	0.057598	0.293016	-0.052159
C38	C	0.557598	0.793016	0.447841
C39	C	0.102795	0.254138	0.000122
C40	C	0.602795	0.754138	0.500122
C41	C	0.149190	0.287787	0.052405
C42	C	0.649190	0.787787	0.552405
C43	C	0.150393	0.360306	0.052398
C44	C	0.650393	0.860306	0.552398
C45	C	0.105198	0.399176	0.000103
C46	C	0.605198	0.899176	0.500103
C47	C	0.100900	0.139260	0.068379
C48	C	0.600900	0.639260	0.568379
C49	C	0.099710	0.066738	0.068385
C50	C	0.599710	0.566738	0.568385
C51	C	0.099696	0.066715	-0.068105
C52	C	0.599696	0.566715	0.431895
C53	C	0.100894	0.139236	-0.068109
C54	C	0.600894	0.639236	0.431891
C55	C	0.101493	0.175504	0.000135
C56	C	0.601493	0.675504	0.500135
C57	C	-0.038928	0.823283	0.000108
C58	C	0.461072	1.323283	0.500108
C59	C	-0.125699	0.816785	0.000107
C60	C	0.374301	1.316785	0.500107
C61	C	-0.176012	0.876442	0.000114
C62	C	0.323988	1.376442	0.500114
C63	C	-0.257542	0.870332	0.000121
C64	C	0.242458	1.370332	0.500121
C65	C	-0.288758	0.804566	0.000115
C66	C	0.211242	1.304566	0.500115
C67	C	-0.238439	0.744905	0.000110
C68	C	0.261561	1.244905	0.500110
C69	C	-0.156910	0.751015	0.000109
C70	C	0.343090	1.251015	0.500109
C71	C	-0.534444	0.782980	0.000122
C72	C	-0.034444	1.282980	0.500122
C73	C	-0.615979	0.776875	0.000121
C74	C	-0.115979	1.276875	0.500121
C75	C	-0.635077	0.902302	0.000133
C76	C	-0.135077	1.402302	0.500133
C77	C	-0.553546	0.908407	0.000127
C78	C	-0.053546	1.408407	0.500127
C79	C	-0.503234	0.848746	0.000127
C80	C	-0.003234	1.348746	0.500127
C81	C	-0.372095	0.798320	0.000119
C82	C	0.127905	1.298320	0.500119
C83	C	-0.419899	0.854993	0.000128
C84	C	0.080101	1.354993	0.500128
C85	C	0.246937	0.830033	0.000122
C86	C	0.746937	1.330033	0.500122
C87	C	0.333708	0.836531	0.000128
C88	C	0.833708	1.336531	0.500128
C89	C	0.097838	0.953285	0.000132
C90	C	0.597838	1.453285	0.500132
C91	C	0.099101	1.030468	0.000147
C92	C	0.599101	1.530468	0.500147
N93	N	0.104016	0.826656	0.178270
N94	N	0.604016	1.326656	0.678270
N95	N	0.103987	0.826666	-0.178041
N96	N	0.603987	1.326666	0.321959
C97	C	0.050807	0.870816	0.217660
C98	C	0.550807	1.370816	0.717660
C99	C	0.050806	0.870822	0.296461
C100	C	0.550806	1.370822	0.796461
C101	C	0.104006	0.826655	0.335870
C102	C	0.604006	1.326655	0.835870
C103	C	0.157225	0.782491	0.296471
C104	C	0.657225	1.282491	0.796471
C105	C	0.157230	0.782491	0.217670
C106	C	0.657230	1.282491	0.717670
C107	C	0.114304	0.764004	0.460708
C108	C	0.614304	1.264004	0.960708
C109	C	0.114294	0.764002	0.539506
C110	C	0.614294	1.264002	1.039506
C111	C	0.103995	0.826655	0.578917
C112	C	0.603995	1.326655	1.078917
C113	C	0.093690	0.889310	0.539518
C114	C	0.593690	1.389310	1.039518
C115	C	0.093695	0.889310	0.460718
C116	C	0.593695	1.389310	0.960718
C117	C	0.104007	0.826650	0.421316
C118	C	0.604007	1.326650	0.921316
C119	C	0.050781	0.870826	0.703753
C120	C	0.550781	1.370826	1.203753
C121	C	0.050785	0.870833	0.782556
C122	C	0.550785	1.370833	1.282556
C123	C	0.157201	0.782495	0.782564
C124	C	0.657201	1.282495	1.282564
C125	C	0.157200	0.782494	0.703762
C126	C	0.657200	1.282494	1.203762
C127	C	0.103987	0.826659	0.664361
C128	C	0.603987	1.326659	1.164361
H129	H	0.099226	0.037230	0.123958
H130	H	0.599226	0.537230	0.623958
O131	O	-0.689340	0.966649	0.000135
O132	O	-0.189340	1.466649	0.500135
H133	H	-0.726929	0.966871	0.051163
H134	H	-0.226929	1.466871	0.551163
H135	H	0.007479	0.906779	0.185582
H136	H	0.507479	1.406779	0.685582
H137	H	0.200560	0.746530	0.185598
H138	H	0.700560	1.246530	0.685598
H139	H	0.122695	0.712982	0.428626
H140	H	0.622695	1.212982	0.928626
O141	O	-0.006602	0.918468	0.661254
O142	O	0.493398	1.418468	1.161254
H143	H	-0.044586	0.887061	0.625348
H144	H	0.455414	1.387061	1.125348
H145	H	0.019817	0.265625	-0.094727
H146	H	0.519817	0.765625	0.405273
O147	O	0.101552	0.178391	0.141976
O148	O	0.601552	0.678391	0.641976
H149	H	0.154596	0.161437	0.174702
H150	H	0.654596	0.661437	0.674702
O151	O	-0.405769	0.727388	0.000096
O152	O	0.094231	1.227388	0.500096
H153	H	-0.442455	0.721604	0.051117
H154	H	0.057545	1.221604	0.551117
H155	H	0.099203	0.037180	-0.123665
H156	H	0.599203	0.537180	0.376335
H157	H	-0.641391	0.723317	0.000104
H158	H	-0.141391	1.223317	0.500104
H159	H	0.122675	0.712984	0.571578
H160	H	0.622675	1.212984	1.071578
O161	O	0.108964	0.625726	0.141932
O162	O	0.608964	1.125726	0.641932
H163	H	0.108353	0.588336	0.189387
H164	H	0.608353	1.088336	0.689387
O165	O	0.101553	0.178332	-0.141714
O166	O	0.601553	0.678332	0.358286
H167	H	0.100929	0.140927	-0.189163
H168	H	0.600929	0.640927	0.310837
H169	H	0.007475	0.906785	0.328539
H170	H	0.507475	1.406785	0.828539
O171	O	0.010050	0.407457	-0.108563
O172	O	0.510050	0.907457	0.391437
H173	H	0.049208	0.438272	-0.143870
H174	H	0.549208	0.938272	0.356130
H175	H	0.188172	0.387700	0.094967
H176	H	0.688172	0.887700	0.594967
O177	O	0.106826	0.474921	-0.141749
O178	O	0.606826	0.974921	0.358251
H179	H	0.106019	0.418398	-0.130279
H180	H	0.606019	0.918398	0.369721
H181	H	0.108799	0.616088	-0.123729
H182	H	0.608799	1.116088	0.376271
H183	H	0.007459	0.906798	0.814628
H184	H	0.507459	1.406798	1.314628
H185	H	0.200542	0.746530	0.328561
H186	H	0.700542	1.246530	0.828561
O187	O	-0.142344	0.947376	0.000128
O188	O	0.357656	1.447376	0.500128
H189	H	-0.191030	0.987831	0.000143
H190	H	0.308970	1.487831	0.500143
O191	O	0.106450	0.474983	0.141945
O192	O	0.606450	0.974983	0.641945
H193	H	0.107061	0.512387	0.189397
H194	H	0.607061	1.012387	0.689397
O195	O	-0.311804	0.934679	0.000116
O196	O	0.188196	1.434679	0.500116
H197	H	-0.300721	0.965932	0.051136
H198	H	0.199279	1.465932	0.551136
O199	O	0.197950	0.245867	0.108796
O200	O	0.697950	0.745867	0.608796
H201	H	0.189331	0.189786	0.100013
H202	H	0.689331	0.689786	0.600013
H203	H	-0.528136	0.961961	0.000132
H204	H	-0.028136	1.461961	0.500132
O205	O	-0.480183	0.718635	0.000102
O206	O	0.019817	1.218635	0.500102
H207	H	-0.515589	0.671879	0.000085
H208	H	-0.015589	1.171879	0.500085
O209	O	0.082598	0.956883	0.418220
O210	O	0.582598	1.456883	0.918220
H211	H	0.075443	1.000453	0.458857
H212	H	0.575443	1.500453	0.958857
H213	H	-0.263861	0.691356	0.000110
H214	H	0.236139	1.191356	0.500110
O215	O	-0.102638	0.686673	0.000094
O216	O	0.397362	1.186673	0.500094
H217	H	-0.138040	0.639914	0.000081
H218	H	0.361960	1.139914	0.500081
H219	H	0.085309	0.940328	0.571604
H220	H	0.585309	1.440328	1.071604
O221	O	-0.386238	0.925927	0.000138
O222	O	0.113762	1.425927	0.500138
H223	H	-0.349562	0.931709	-0.050890
H224	H	0.150438	1.431709	0.449110
O225	O	0.214578	0.734850	0.825056
O226	O	0.714578	1.234850	1.325056
H227	H	0.205632	0.742263	0.886469
H228	H	0.705632	1.242263	1.386469
H229	H	0.200525	0.746531	0.671688
H230	H	0.700525	1.246531	1.171688
