data_functionalizedCrystal
_audit_creation_method	'MofGen! by Chris Wilmer'
_symmetry_space_group_name_H-M	'P1'
_symmetry_Int_Tables_number	1
_symmetry_cell_setting	triclinic
loop_
_symmetry_equiv_pos_as_xyz
  x,y,z
_cell_length_a	15.944551
_cell_length_b	19.188930
_cell_length_c	14.421503
_cell_angle_alpha	89.999163
_cell_angle_beta	89.996859
_cell_angle_gamma	83.321760
loop_
_atom_site_label
_atom_site_type_symbol
_atom_site_fract_x
_atom_site_fract_y
_atom_site_fract_z
O1	O	1.114192	0.090038	-0.077026
O2	O	0.869601	0.101140	-0.077050
O3	O	0.998955	-0.006048	-0.077019
O4	O	0.984838	0.197227	-0.077057
O5	O	0.998934	-0.006032	0.077204
O6	O	0.869580	0.101156	0.077173
O7	O	1.114171	0.090054	0.077198
Cu8	Cu	0.991873	0.095607	0.091267
Cu9	Cu	0.991899	0.095588	-0.091120
O10	O	0.984817	0.197243	0.077167
C11	C	0.838298	0.100687	0.000059
C12	C	0.745057	0.099306	0.000050
C13	C	0.530462	0.029563	0.000081
C14	C	0.469331	0.061941	-0.075965
C15	C	0.574341	0.096806	0.000062
C16	C	0.469332	0.061973	0.076087
C17	C	0.409437	0.094386	0.000077
C18	C	0.514438	0.129203	-0.076047
C19	C	0.514446	0.129225	0.076073
C20	C	0.453332	0.161652	0.000008
C21	C	0.669338	0.098198	0.000052
C22	C	0.314441	0.093000	0.000080
C23	C	0.998487	-0.032052	0.000095
C24	C	0.997115	-0.109560	0.000103
C25	C	1.073016	-0.154288	0.000115
C26	C	1.071726	-0.227115	0.000100
C27	C	0.994532	-0.255211	0.000092
C28	C	0.918622	-0.210474	0.000075
C29	C	0.919913	-0.137648	0.000080
N30	N	0.935519	-0.363364	0.052571
N31	N	0.934298	-0.432545	0.052568
C32	C	0.990637	-0.474630	0.000073
N33	N	1.048256	-0.444921	-0.052407
N34	N	1.049480	-0.375733	-0.052400
C35	C	0.993123	-0.334178	0.000085
C36	C	1.065145	-0.598326	0.000067
C37	C	1.063852	-0.671154	0.000046
C38	C	0.910745	-0.654511	0.000030
C39	C	0.912040	-0.581685	0.000041
C40	C	0.989242	-0.553597	0.000064
C41	C	1.145474	0.090507	0.000087
C42	C	1.238715	0.091889	0.000089
C43	C	0.985285	0.223247	0.000050
C44	C	0.986657	0.300755	0.000036
N45	N	0.991862	0.095619	0.219549
N46	N	0.991917	0.095569	-0.219401
C47	C	0.932038	0.145161	0.469188
C48	C	1.007887	0.158716	0.530995
C49	C	0.991882	0.095603	0.408710
C50	C	0.916052	0.082064	0.530997
C51	C	0.991895	0.095588	0.591431
C52	C	1.067770	0.109189	0.469157
C53	C	0.975885	0.032510	0.469153
C54	C	1.051789	0.046038	0.530932
C55	C	0.991874	0.095613	0.303449
C56	C	0.991913	0.095578	0.696690
H57	H	0.534462	0.157649	0.140358
C58	C	0.408236	0.237114	-0.000065
C59	C	0.422466	0.287128	-0.080581
C60	C	0.377364	0.362587	-0.080662
C61	C	0.318032	0.388032	-0.000228
C62	C	0.303799	0.338018	0.080294
C63	C	0.348901	0.262559	0.080375
H64	H	0.466390	0.268293	-0.140128
H65	H	0.387900	0.399611	-0.140270
H66	H	0.284644	0.443891	-0.000288
H67	H	0.259875	0.356853	0.139841
H68	H	0.338365	0.225535	0.139983
H69	H	0.847892	-0.677386	0.000019
C70	C	1.147350	-0.720357	0.000060
C71	C	1.167497	-0.772717	0.080141
C72	C	1.250997	-0.821921	0.080156
C73	C	1.314349	-0.818764	0.000090
C74	C	1.294204	-0.766402	-0.079997
C75	C	1.210704	-0.717198	-0.080012
H76	H	1.120598	-0.775056	0.139416
H77	H	1.265909	-0.860683	0.139442
H78	H	1.376160	-0.855187	0.000101
H79	H	1.341102	-0.764063	-0.139272
H80	H	1.195791	-0.678436	-0.139298
H81	H	1.131917	0.120698	0.442107
C82	C	0.829416	0.066590	0.567688
C83	C	0.813786	0.063113	0.672872
C84	C	0.727149	0.047643	0.709558
C85	C	0.656140	0.035649	0.641061
C86	C	0.671768	0.039125	0.535870
C87	C	0.758406	0.054596	0.499184
H88	H	0.866353	0.071992	0.723584
H89	H	0.715580	0.045070	0.787427
H90	H	0.592006	0.024197	0.668218
H91	H	0.619202	0.030247	0.485158
H92	H	0.769974	0.057169	0.421315
C93	C	1.120235	-0.010590	0.567336
C94	C	1.191669	0.010317	0.629618
C95	C	1.260117	-0.046307	0.666024
C96	C	1.257132	-0.123838	0.640149
C97	C	1.185695	-0.144749	0.577864
C98	C	1.117247	-0.088125	0.541457
H99	H	1.193882	0.067714	0.648775
H100	H	1.313000	-0.030827	0.712131
H101	H	1.307801	-0.165755	0.667099
H102	H	1.183482	-0.202146	0.558706
H103	H	1.064365	-0.103605	0.495350
C104	C	0.575748	-0.045837	-0.000002
C105	C	0.561700	-0.095869	-0.080551
C106	C	0.606987	-0.171266	-0.080640
C107	C	0.666322	-0.196630	-0.000179
C108	C	0.680373	-0.146597	0.080376
C109	C	0.635085	-0.071200	0.080464
H110	H	0.517774	-0.077094	-0.140118
H111	H	0.596585	-0.208304	-0.140272
H112	H	0.699846	-0.252443	-0.000244
H113	H	0.724299	-0.165372	0.139943
H114	H	0.645487	-0.034162	0.140097
C115	C	0.863741	0.201819	0.432551
C116	C	0.850699	0.211809	0.327376
C117	C	0.782407	0.268468	0.290737
C118	C	0.727157	0.315137	0.359274
C119	C	0.740198	0.305149	0.464456
C120	C	0.808490	0.248490	0.501095
H121	H	0.891599	0.177261	0.276635
H122	H	0.772754	0.275862	0.212874
H123	H	0.676604	0.357079	0.332152
H124	H	0.699298	0.339697	0.515197
H125	H	0.818143	0.241096	0.578958
C126	C	0.957560	-0.039538	0.432416
C127	C	0.873708	-0.067719	0.456768
C128	C	0.855371	-0.139766	0.420028
C129	C	0.920886	-0.183633	0.358936
C130	C	1.004744	-0.155452	0.334581
C131	C	1.023081	-0.083405	0.371320
H132	H	0.825204	-0.035246	0.501995
H133	H	0.793293	-0.160627	0.438058
H134	H	0.907312	-0.236966	0.331739
H135	H	1.053247	-0.187925	0.289354
H136	H	1.085158	-0.062544	0.353290
C137	C	0.828546	-0.532479	0.000045
C138	C	0.743632	-0.563378	0.000039
C139	C	0.660134	-0.514172	0.000041
C140	C	0.661551	-0.434067	0.000050
C141	C	0.746469	-0.403163	0.000056
C142	C	0.829967	-0.452369	0.000054
H143	H	0.742580	-0.622681	0.000032
H144	H	0.597273	-0.537050	0.000036
H145	H	0.599741	-0.397642	0.000051
H146	H	0.747521	-0.343860	0.000063
H147	H	0.892828	-0.429492	0.000059
C148	C	1.155221	-0.276329	0.000121
C149	C	1.218530	-0.273185	0.080225
C150	C	1.302023	-0.322397	0.080248
C151	C	1.322207	-0.374753	0.000169
C152	C	1.258896	-0.377899	-0.079940
C153	C	1.175403	-0.328687	-0.079964
H154	H	1.203590	-0.234427	0.139509
H155	H	1.348889	-0.320068	0.139551
H156	H	1.384013	-0.411182	0.000187
H157	H	1.273836	-0.416657	-0.139224
H158	H	1.128536	-0.331016	-0.139266
H159	H	0.449343	0.033526	0.140376
H160	H	1.021430	0.212066	0.558159
H161	H	0.449336	0.033493	-0.140247
C162	C	0.836417	-0.088443	0.000075
C163	C	0.773095	-0.091585	-0.080016
C164	C	0.689598	-0.042378	-0.080018
C165	C	0.669423	0.009970	0.000071
C166	C	0.732746	0.013113	0.080169
C167	C	0.816243	-0.036093	0.080171
H168	H	0.788029	-0.130337	-0.139308
H169	H	0.642722	-0.044705	-0.139312
H170	H	0.607613	0.046396	0.000070
H171	H	0.717812	0.051866	0.139461
H172	H	0.863119	-0.033766	0.139464
H173	H	0.534329	0.157616	-0.140409
H174	H	1.135880	-0.131424	0.000131
H175	H	1.128007	-0.575456	0.000081
C176	C	0.833707	-0.241377	0.000067
C177	C	0.770716	-0.224501	0.080141
C178	C	0.685799	-0.255403	0.080128
C179	C	0.663872	-0.303181	0.000040
C180	C	0.726865	-0.320060	-0.080040
C181	C	0.811782	-0.289158	-0.080027
H182	H	0.786946	-0.189130	0.139432
H183	H	0.639168	-0.242908	0.139409
H184	H	0.601011	-0.326057	0.000031
H185	H	0.710635	-0.355431	-0.139331
H186	H	0.858413	-0.301653	-0.139308
