data_functionalizedCrystal
_audit_creation_method	'MofGen! by Chris Wilmer'
_symmetry_space_group_name_H-M	'P1'
_symmetry_Int_Tables_number	1
_symmetry_cell_setting	triclinic
loop_
_symmetry_equiv_pos_as_xyz
  x,y,z
_cell_length_a	13.635800
_cell_length_b	7.190410
_cell_length_c	7.076093
_cell_angle_alpha	109.693124
_cell_angle_beta	117.701465
_cell_angle_gamma	60.610675
loop_
_atom_site_label
_atom_site_type_symbol
_atom_site_fract_x
_atom_site_fract_y
_atom_site_fract_z
V1	V	-1.822576	0.291699	0.663495
O2	O	-1.774576	-0.017518	0.652432
O3	O	-1.843293	0.581756	0.657450
O4	O	-1.695243	0.285676	0.953556
O5	O	-1.923650	0.280612	0.354277
V6	V	-2.071933	0.254894	0.626693
O7	O	-1.936543	0.372432	0.744223
O8	O	-2.183065	0.174161	0.545965
O9	O	-1.939613	-0.035163	0.632738
O10	O	-2.178632	0.564111	0.637757
O11	O	-2.029557	0.265981	0.935912
O12	O	-2.087663	0.260917	0.336633
V13	V	-1.322576	0.291699	0.663495
O14	O	-1.274576	-0.017518	0.652432
O15	O	-1.343293	0.581756	0.657450
O16	O	-1.195243	0.285676	0.953556
O17	O	-1.423650	0.280612	0.354277
V18	V	-1.571933	0.254894	0.626693
O19	O	-1.436543	0.372432	0.744223
O20	O	-1.683065	0.174161	0.545965
O21	O	-1.439613	-0.035163	0.632738
O22	O	-1.678632	0.564111	0.637757
O23	O	-1.529557	0.265981	0.935912
O24	O	-1.587663	0.260917	0.336633
C25	C	-1.838017	0.894087	0.643565
C26	C	-1.780054	0.652508	0.646593
C27	C	-1.591210	0.274824	1.024304
C28	C	-1.526852	0.271759	1.265877
C29	C	-2.023369	0.271765	0.265873
C30	C	-2.077151	0.274824	0.024299
C31	C	-1.280062	0.652516	0.646604
C32	C	-1.338024	0.894090	0.643544
