data_functionalizedCrystal
_audit_creation_method	'MofGen! by Chris Wilmer'
_symmetry_space_group_name_H-M	'P1'
_symmetry_Int_Tables_number	1
_symmetry_cell_setting	triclinic
loop_
_symmetry_equiv_pos_as_xyz
  x,y,z
_cell_length_a	17.699104
_cell_length_b	23.532407
_cell_length_c	16.776229
_cell_angle_alpha	89.984855
_cell_angle_beta	89.991971
_cell_angle_gamma	83.070132
loop_
_atom_site_label
_atom_site_type_symbol
_atom_site_fract_x
_atom_site_fract_y
_atom_site_fract_z
O1	O	1.003703	0.072076	-0.066319
O2	O	0.783279	0.081434	-0.066319
O3	O	0.900138	-0.006157	-0.066297
O4	O	0.886844	0.159667	-0.066342
O5	O	0.900122	-0.006163	0.066280
O6	O	0.783264	0.081428	0.066257
O7	O	1.003687	0.072071	0.066257
Zn8	Zn	0.893473	0.076749	0.087307
Zn9	Zn	0.893493	0.076756	-0.087369
O10	O	0.886829	0.159662	0.066235
C11	C	0.755076	0.081094	-0.000031
C12	C	0.671064	0.080082	-0.000030
C13	C	0.899792	-0.027377	-0.000005
C14	C	0.898774	-0.090597	0.000007
C15	C	0.145962	0.125789	-0.000050
C16	C	0.224900	0.126736	-0.000053
C17	C	0.273779	0.075317	-0.000039
C18	C	0.243715	0.022947	-0.000030
C19	C	0.164777	0.022000	-0.000033
C20	C	0.562061	0.026764	-0.000019
C21	C	0.641004	0.027715	-0.000013
C22	C	0.622185	0.131500	-0.000038
C23	C	0.543247	0.130554	-0.000041
C24	C	0.513190	0.078184	-0.000037
C25	C	0.427595	0.077157	-0.000036
C26	C	0.359372	0.076343	-0.000034
C27	C	0.825422	-0.356979	-0.000042
C28	C	0.826367	-0.297576	-0.000036
O29	O	0.768178	-0.261002	-0.000061
N30	N	0.895840	-0.274746	-0.000027
C31	C	0.964371	-0.311323	-0.000032
O32	O	1.023550	-0.286450	-0.000024
C33	C	0.963425	-0.370725	-0.000044
C34	C	0.893948	-0.393551	-0.000045
C35	C	0.755951	-0.379806	-0.000044
C36	C	0.755006	-0.439205	-0.000049
C37	C	0.823532	-0.475777	-0.000052
C38	C	0.893003	-0.452950	-0.000050
C39	C	1.031956	-0.407301	-0.000055
C40	C	1.031003	-0.466706	-0.000067
C41	C	0.961527	-0.489532	-0.000068
C42	C	0.960584	-0.548921	-0.000057
N43	N	0.891112	-0.571751	-0.000066
C44	C	0.822585	-0.535179	-0.000063
C45	C	0.966353	-0.186575	-0.000009
C46	C	0.967300	-0.127174	0.000009
C47	C	0.829296	-0.113431	0.000003
C48	C	0.828350	-0.172833	-0.000008
C49	C	0.896881	-0.209405	-0.000018
C50	C	0.820606	-0.659921	-0.000072
C51	C	0.819667	-0.719326	-0.000074
C52	C	0.957671	-0.733064	-0.000072
C53	C	0.958610	-0.673664	-0.000067
C54	C	0.890071	-0.637094	-0.000070
O55	O	1.018743	-0.585530	-0.000035
O56	O	0.763417	-0.560060	-0.000081
C57	C	1.031890	0.072411	-0.000033
C58	C	1.115902	0.073423	-0.000039
C59	C	0.887175	0.180882	-0.000059
C60	C	0.888193	0.244102	-0.000076
N61	N	0.893465	0.076744	0.206518
N62	N	0.893508	0.076757	-0.206580
C63	C	0.945225	0.037974	0.248245
C64	C	0.945230	0.037974	0.331697
C65	C	0.893476	0.076746	0.373421
C66	C	0.841710	0.115517	0.331688
C67	C	0.841703	0.115514	0.248237
C68	C	0.841738	0.115528	0.668235
C69	C	0.841750	0.115529	0.751692
C70	C	0.945264	0.037988	0.751695
C71	C	0.945257	0.037985	0.668244
C72	C	0.893489	0.076754	0.626519
C73	C	0.893484	0.076753	0.536030
C74	C	0.893484	0.076750	0.463908
H75	H	0.106169	0.167661	-0.000056
C76	C	0.784817	0.158177	0.797590
H77	H	0.792244	0.152628	0.853266
H78	H	0.734353	0.152034	0.783934
H79	H	0.792746	0.196182	0.783895
C80	C	1.002159	-0.004670	0.202352
H81	H	0.994750	0.000884	0.146675
H82	H	0.994236	-0.042674	0.216045
H83	H	1.052623	0.001478	0.216017
C84	C	1.002183	-0.004666	0.622352
H85	H	1.033006	-0.027760	0.659156
H86	H	1.033529	0.015790	0.589778
H87	H	0.975127	-0.028351	0.589819
C88	C	0.131708	-0.035601	-0.000022
H89	H	0.077696	-0.028801	-0.000034
H90	H	0.148501	-0.056773	0.046215
H91	H	0.148519	-0.056762	-0.046256
C92	C	1.002202	-0.004664	0.797595
H93	H	0.994791	0.000884	0.853271
H94	H	1.052663	0.001476	0.783904
H95	H	0.994265	-0.042668	0.783933
H96	H	0.799553	0.147084	0.214264
H97	H	0.987376	0.006404	0.365671
H98	H	0.700145	-0.350034	-0.000045
C99	C	0.743239	-0.744432	-0.000081
H100	H	0.702565	-0.714140	-0.000088
H101	H	0.739990	-0.767330	0.046147
H102	H	0.740009	-0.767306	-0.046323
H103	H	1.088531	-0.388727	-0.000054
H104	H	0.799568	0.147084	0.365664
C105	C	0.257963	0.184339	-0.000055
H106	H	0.217547	0.214826	-0.000051
H107	H	0.288373	0.186874	-0.046285
H108	H	0.288356	0.186858	0.046186
C109	C	0.489485	0.187114	-0.000060
H110	H	0.518693	0.218438	-0.000075
H111	H	0.458290	0.188903	0.046168
H112	H	0.458312	0.188901	-0.046303
H113	H	0.771776	-0.191414	-0.000006
C114	C	0.753918	-0.073194	-0.000007
H115	H	0.764437	-0.034549	-0.000010
H116	H	0.725396	-0.080110	0.046219
H117	H	0.725424	-0.080094	-0.046251
H118	H	0.799587	0.147096	0.634269
H119	H	0.646666	0.174143	-0.000045
C120	C	0.745215	-0.619702	-0.000069
H121	H	0.703711	-0.641812	-0.000064
H122	H	0.742711	-0.596231	-0.046297
H123	H	0.742709	-0.596257	0.046173
C124	C	0.529008	-0.030840	-0.000000
H125	H	0.569425	-0.061326	0.000020
H126	H	0.498612	-0.033370	-0.046232
H127	H	0.498600	-0.033366	0.046239
C128	C	0.694769	-0.028849	-0.000008
H129	H	0.665563	-0.060174	-0.000015
H130	H	0.725948	-0.030643	0.046225
H131	H	0.725959	-0.030626	-0.046246
H132	H	0.283518	-0.018919	-0.000024
H133	H	1.022163	-0.216349	-0.000011
C134	C	0.678580	-0.464306	-0.000061
H135	H	0.637910	-0.434011	-0.000067
H136	H	0.675326	-0.487206	0.046165
H137	H	0.675348	-0.487178	-0.046306
H138	H	1.086811	-0.496481	-0.000079
C139	C	1.043723	-0.102069	0.000024
H140	H	1.034479	-0.061453	0.000035
H141	H	1.071927	-0.114619	-0.046206
H142	H	1.071906	-0.114641	0.046264
C143	C	1.035032	-0.648554	-0.000056
H144	H	1.075708	-0.678845	-0.000060
H145	H	1.038264	-0.625674	0.046175
H146	H	1.038276	-0.625661	-0.046295
H147	H	1.013463	-0.762852	-0.000071
