data_functionalizedCrystal
_audit_creation_method	'MofGen! by Chris Wilmer'
_symmetry_space_group_name_H-M	'P1'
_symmetry_Int_Tables_number	1
_symmetry_cell_setting	triclinic
loop_
_symmetry_equiv_pos_as_xyz
  x,y,z
_cell_length_a	25.639242
_cell_length_b	25.639239
_cell_length_c	25.639233
_cell_angle_alpha	89.981253
_cell_angle_beta	89.977834
_cell_angle_gamma	90.034213
loop_
_atom_site_label
_atom_site_type_symbol
_atom_site_fract_x
_atom_site_fract_y
_atom_site_fract_z
Zn1	Zn	0.799225	-0.208277	-0.295742
Zn2	Zn	0.799149	-0.295696	-0.208307
Zn3	Zn	0.711801	-0.208269	-0.208306
Zn4	Zn	0.711746	-0.295676	-0.295696
O5	O	0.755480	-0.251979	-0.252013
O6	O	0.872380	-0.219884	-0.284163
O7	O	0.787553	-0.284103	-0.135141
O8	O	0.723453	-0.135105	-0.219924
O9	O	0.872324	-0.284111	-0.219924
O10	O	0.787683	-0.135111	-0.284163
O11	O	0.723379	-0.219871	-0.135141
O12	O	0.638629	-0.219853	-0.219880
O13	O	0.723360	-0.284078	-0.368868
O14	O	0.638589	-0.284070	-0.284085
O15	O	0.787630	-0.219866	-0.368901
O16	O	0.787499	-0.368858	-0.219880
O17	O	0.723286	-0.368844	-0.284085
C18	C	0.619638	-0.251959	-0.251977
C19	C	0.561524	-0.251963	-0.251975
C20	C	0.201149	-0.285473	-0.285413
C21	C	0.146544	-0.285477	-0.285421
O22	O	0.118297	-0.313943	-0.313821
N23	N	0.119241	-0.251994	-0.252047
C24	C	0.146545	-0.218502	-0.218666
O25	O	0.118308	-0.190022	-0.190280
C26	C	0.201149	-0.218496	-0.218661
C27	C	0.228449	-0.251985	-0.252034
C28	C	0.228449	-0.318959	-0.318783
C29	C	0.283049	-0.318956	-0.318774
C30	C	0.310350	-0.285468	-0.285395
C31	C	0.283049	-0.251983	-0.252024
C32	C	0.228452	-0.185002	-0.185283
C33	C	0.283059	-0.185000	-0.185281
C34	C	0.310359	-0.218488	-0.218654
C35	C	0.364950	-0.218492	-0.218636
N36	N	0.392253	-0.251974	-0.252010
C37	C	0.364953	-0.285463	-0.285389
C38	C	0.031875	-0.218515	-0.218680
C39	C	-0.022728	-0.218523	-0.218683
C40	C	-0.022725	-0.285497	-0.285438
C41	C	0.031878	-0.285492	-0.285433
C42	C	0.059178	-0.251998	-0.252054
C43	C	0.479618	-0.285455	-0.285368
C44	C	0.534223	-0.285451	-0.285354
C45	C	0.534216	-0.218475	-0.218601
C46	C	0.479615	-0.218481	-0.218612
C47	C	0.452318	-0.251972	-0.252000
O48	O	0.393232	-0.190038	-0.190252
O49	O	0.393197	-0.313933	-0.313776
C50	C	0.755392	-0.387822	-0.251989
C51	C	0.755403	-0.445936	-0.251996
C52	C	0.789004	-0.806294	-0.218638
C53	C	0.789024	-0.860898	-0.218645
O54	O	0.817502	-0.889131	-0.190257
N55	N	0.755572	-0.888218	-0.252048
C56	C	0.722102	-0.860932	-0.285449
O57	O	0.693651	-0.889184	-0.313861
C58	C	0.722085	-0.806328	-0.285444
C59	C	0.755535	-0.779011	-0.252036
C60	C	0.822452	-0.778976	-0.185233
C61	C	0.822431	-0.724376	-0.185226
C62	C	0.788962	-0.697093	-0.218623
C63	C	0.755514	-0.724410	-0.252028
C64	C	0.688617	-0.779042	-0.318847
C65	C	0.688603	-0.724435	-0.318840
C66	C	0.722053	-0.697118	-0.285432
C67	C	0.722024	-0.642527	-0.285418
N68	N	0.755475	-0.615206	-0.252016
C69	C	0.788944	-0.642490	-0.218618
C70	C	0.722141	-0.975602	-0.285457
C71	C	0.722155	-1.030204	-0.285459
C72	C	0.789078	-1.030167	-0.218656
C73	C	0.789061	-0.975564	-0.218652
C74	C	0.755593	-0.948282	-0.252055
C75	C	0.788897	-0.527824	-0.218605
C76	C	0.788872	-0.473219	-0.218599
C77	C	0.721951	-0.473261	-0.285403
C78	C	0.721974	-0.527862	-0.285408
C79	C	0.755452	-0.555142	-0.252007
O80	O	0.693562	-0.614260	-0.313793
O81	O	0.817396	-0.614231	-0.190216
C82	C	0.891853	-0.252000	-0.252049
C83	C	0.949967	-0.252009	-0.252064
C84	C	0.755497	-0.251970	-0.388386
C85	C	0.755504	-0.251966	-0.446500
C86	C	0.755583	-0.115606	-0.252048
C87	C	0.755627	-0.057492	-0.252064
C88	C	0.789012	-0.218432	-0.806886
C89	C	0.789019	-0.218417	-0.861491
O90	O	0.817466	-0.189967	-0.889747
N91	N	0.755562	-0.251844	-0.888783
C92	C	0.722093	-0.285283	-0.861468
O93	O	0.693636	-0.313713	-0.889695
C94	C	0.722084	-0.285294	-0.806864
C95	C	0.755547	-0.251870	-0.779575
C96	C	0.822472	-0.185009	-0.779597
C97	C	0.822466	-0.185025	-0.724997
C98	C	0.789000	-0.218462	-0.697685
C99	C	0.755541	-0.251885	-0.724974
C100	C	0.688613	-0.318731	-0.779550
C101	C	0.688607	-0.318739	-0.724943
C102	C	0.722069	-0.285314	-0.697654
C103	C	0.722070	-0.285338	-0.643063
N104	N	0.755526	-0.251912	-0.615771
C105	C	0.788992	-0.218474	-0.643082
C106	C	0.722113	-0.285256	-0.976138
C107	C	0.722124	-0.285247	-1.030741
C108	C	0.789049	-0.218381	-1.030760
C109	C	0.789041	-0.218392	-0.976157
C110	C	0.755570	-0.251829	-0.948846
C111	C	0.788977	-0.218509	-0.528417
C112	C	0.788970	-0.218529	-0.473811
C113	C	0.722043	-0.285393	-0.473797
C114	C	0.722052	-0.285375	-0.528397
C115	C	0.755521	-0.251929	-0.555706
O116	O	0.693635	-0.313773	-0.614771
O117	O	0.817439	-0.190044	-0.614847
C118	C	0.755494	-0.251951	-0.116170
C119	C	0.755588	-0.251807	-0.058057
H120	H	0.054099	-0.191241	-0.191496
H121	H	0.849670	-0.702137	-0.158024
C122	C	0.888627	-0.118926	-0.774117
C123	C	0.859265	-0.148253	-0.809612
H124	H	0.911347	-0.096237	-0.792645
H125	H	0.865857	-0.098928	-0.752821
H126	H	0.908598	-0.141724	-0.752819
H127	H	0.839291	-0.125455	-0.830907
H128	H	0.882038	-0.168253	-0.830917
C129	C	0.855192	-0.152297	-0.981673
C130	C	0.825819	-0.181647	-0.946163
H131	H	0.877895	-0.129609	-0.963157
H132	H	0.875176	-0.175078	-1.002969
H133	H	0.832423	-0.132294	-1.002970
H134	H	0.848587	-0.201653	-0.924868
H135	H	0.805833	-0.158863	-0.924858
H136	H	0.694912	-1.052442	-0.312659
H137	H	0.816300	-0.953325	-0.191448
H138	H	0.556449	-0.312723	-0.312530
C139	C	0.485120	-0.351658	-0.351350
C140	C	0.449618	-0.322270	-0.322067
H141	H	0.466598	-0.374388	-0.374003
H142	H	0.506439	-0.328904	-0.371384
H143	H	0.506395	-0.371618	-0.328522
H144	H	0.428346	-0.302306	-0.344895
H145	H	0.428290	-0.345026	-0.302031
H146	H	0.694881	-0.312471	-1.052955
C147	C	0.299835	-0.159398	-0.096790
C148	C	0.313068	-0.148186	-0.148586
H149	H	0.318364	-0.136675	-0.074136
H150	H	0.263412	-0.154606	-0.092024
H151	H	0.308762	-0.194517	-0.089080
H152	H	0.304137	-0.113068	-0.156297
H153	H	0.349499	-0.152975	-0.153354
C154	C	0.714788	-0.355604	-0.914726
C155	C	0.685327	-0.322019	-0.946118
H156	H	0.692077	-0.378297	-0.896193
H157	H	0.737553	-0.375597	-0.936032
H158	H	0.734708	-0.335694	-0.890658
H159	H	0.665410	-0.341930	-0.970190
H160	H	0.662552	-0.302024	-0.924811
H161	H	0.816298	-0.191153	-1.053007
C162	C	0.818558	-0.389502	-0.188915
C163	C	0.825642	-0.443192	-0.181874
H164	H	0.841256	-0.370967	-0.166241
H165	H	0.826184	-0.380531	-0.224046
H166	H	0.783429	-0.380596	-0.181223
H167	H	0.860771	-0.452099	-0.189570
H168	H	0.818020	-0.452167	-0.146735
C169	C	0.818885	-1.113859	-0.189076
C170	C	0.825916	-1.060164	-0.181991
H171	H	0.841641	-1.132377	-0.166456
H172	H	0.783783	-1.122862	-0.181344
H173	H	0.826473	-1.122753	-0.224233
H174	H	0.818324	-1.051269	-0.146835
H175	H	0.861026	-1.051158	-0.189719
C176	C	0.855040	-0.522288	-0.152566
C177	C	0.825692	-0.557806	-0.181887
H178	H	0.877751	-0.540798	-0.129894
H179	H	0.875015	-0.500964	-0.175366
H180	H	0.832256	-0.501020	-0.132546
H181	H	0.848476	-0.579071	-0.201909
H182	H	0.805715	-0.579139	-0.159084
C183	C	0.714734	-0.355687	-0.589806
C184	C	0.685272	-0.322116	-0.558399
H185	H	0.692023	-0.378367	-0.608322
H186	H	0.734660	-0.335768	-0.613884
H187	H	0.737495	-0.375698	-0.568508
H188	H	0.662514	-0.302101	-0.579697
H189	H	0.665337	-0.342036	-0.534318
H190	H	0.816229	-0.191272	-0.550645
C191	C	0.814499	-0.129999	-0.457021
C192	C	0.825751	-0.181780	-0.443818
H193	H	0.837204	-0.107312	-0.438504
H194	H	0.819291	-0.125213	-0.493446
H195	H	0.779374	-0.122352	-0.448058
H196	H	0.860876	-0.189428	-0.452785
H197	H	0.820964	-0.186569	-0.407385
H198	H	0.457387	-0.191213	-0.191436
H199	H	0.661364	-0.345949	-0.801759
H200	H	0.694883	-0.953392	-0.312656
H201	H	0.694738	-0.550105	-0.312613
H202	H	-0.044951	-0.191258	-0.191502
H203	H	0.661350	-0.702225	-0.346042
H204	H	0.849709	-0.801185	-0.158037
H205	H	0.206227	-0.346229	-0.345967
H206	H	0.661345	-0.345963	-0.702710
H207	H	0.661376	-0.801275	-0.346049
H208	H	0.556454	-0.191211	-0.191422
H209	H	0.694699	-0.451039	-0.312594
H210	H	0.054103	-0.312760	-0.312609
C211	C	0.829756	-0.114692	-0.663622
C212	C	0.859236	-0.148264	-0.695011
H213	H	0.852455	-0.091993	-0.645113
H214	H	0.806988	-0.094705	-0.684926
H215	H	0.809837	-0.134612	-0.639532
H216	H	0.879152	-0.128344	-0.719104
H217	H	0.882012	-0.168253	-0.673705
H218	H	-0.044963	-0.312763	-0.312619
C219	C	0.692318	-0.315091	-0.390080
C220	C	0.685256	-0.322144	-0.443769
H221	H	0.669602	-0.337775	-0.371542
H222	H	0.727435	-0.322755	-0.381144
H223	H	0.684696	-0.279958	-0.381142
H224	H	0.692882	-0.357275	-0.452707
H225	H	0.650130	-0.314483	-0.452708
H226	H	0.206233	-0.157734	-0.158106
H227	H	0.305272	-0.346225	-0.345950
