data_functionalizedCrystal
_audit_creation_method	'MofGen! by Chris Wilmer'
_symmetry_space_group_name_H-M	'P1'
_symmetry_Int_Tables_number	1
_symmetry_cell_setting	triclinic
loop_
_symmetry_equiv_pos_as_xyz
  x,y,z
_cell_length_a	18.050591
_cell_length_b	21.295417
_cell_length_c	21.295412
_cell_angle_alpha	89.969332
_cell_angle_beta	89.970494
_cell_angle_gamma	90.026512
loop_
_atom_site_label
_atom_site_type_symbol
_atom_site_fract_x
_atom_site_fract_y
_atom_site_fract_z
Zn1	Zn	1.135344	-0.250692	-0.356012
Zn2	Zn	1.635344	0.249308	0.143988
Zn3	Zn	1.135231	-0.355960	-0.250737
Zn4	Zn	1.635231	0.144040	0.249263
Zn5	Zn	1.011144	-0.250702	-0.250746
Zn6	Zn	1.511144	0.249298	0.249254
Zn7	Zn	1.011106	-0.355920	-0.355958
Zn8	Zn	1.511106	0.144080	0.144042
O9	O	1.073206	-0.303318	-0.303363
O10	O	1.573206	0.196682	0.196637
O11	O	1.239253	-0.264669	-0.342066
O12	O	1.739253	0.235331	0.157934
O13	O	1.118739	-0.342019	-0.162649
O14	O	1.618739	0.157981	0.337351
O15	O	1.027683	-0.162611	-0.264736
O16	O	1.527683	0.337389	0.235264
O17	O	1.239170	-0.342009	-0.264721
O18	O	1.739170	0.157991	0.235279
O19	O	1.118932	-0.162604	-0.342074
O20	O	1.618932	0.337396	0.157926
O21	O	1.027573	-0.264685	-0.162655
O22	O	1.527573	0.235315	0.337345
O23	O	0.907215	-0.264646	-0.264684
O24	O	1.407215	0.235354	0.235316
O25	O	1.027617	-0.341940	-0.444055
O26	O	1.527617	0.158060	0.055945
O27	O	0.907186	-0.341950	-0.341983
O28	O	1.407186	0.158050	0.158017
O29	O	1.118894	-0.264630	-0.444094
O30	O	1.618894	0.235370	0.055906
O31	O	1.118702	-0.444044	-0.264669
O32	O	1.618702	0.055956	0.235331
O33	O	1.027508	-0.444015	-0.341974
O34	O	1.527508	0.055985	0.158026
C35	C	0.880254	-0.303295	-0.303329
C36	C	1.380254	0.196705	0.196671
C37	C	0.797708	-0.303300	-0.303329
C38	C	1.297708	0.196700	0.196671
C39	C	0.598251	-0.261214	-0.261390
C40	C	1.098251	0.238786	0.238610
C41	C	0.548826	-0.318630	-0.245895
C42	C	1.048826	0.181370	0.254105
C43	C	0.646578	-0.303319	-0.303357
C44	C	1.146578	0.196681	0.196643
C45	C	0.548921	-0.245923	-0.318851
C46	C	1.048921	0.254077	0.181149
C47	C	0.500593	-0.303333	-0.303383
C48	C	1.000593	0.196667	0.196617
C49	C	0.598240	-0.360765	-0.287832
C50	C	1.098240	0.139235	0.212168
C51	C	0.598339	-0.288020	-0.360814
C52	C	1.098339	0.211980	0.139186
C53	C	0.548937	-0.345476	-0.345341
C54	C	1.048937	0.154524	0.154659
C55	C	0.730676	-0.303311	-0.303340
C56	C	1.230676	0.196689	0.196660
C57	C	0.416496	-0.303348	-0.303400
C58	C	0.916496	0.196652	0.196600
C59	C	1.073109	-0.466870	-0.303329
C60	C	1.573109	0.033130	0.196671
C61	C	1.073135	-0.536838	-0.303335
C62	C	1.573135	-0.036838	0.196665
C63	C	1.120662	-0.569699	-0.263123
C64	C	1.620662	-0.069699	0.236877
C65	C	1.120697	-0.635442	-0.263137
C66	C	1.620697	-0.135442	0.236863
C67	C	1.073191	-0.668321	-0.303356
C68	C	1.573191	-0.168321	0.196644
C69	C	1.025661	-0.635451	-0.343576
C70	C	1.525661	-0.135451	0.156424
C71	C	1.025633	-0.569710	-0.343565
C72	C	1.525633	-0.069710	0.156435
N73	N	1.008225	-0.771583	-0.308144
N74	N	1.508225	-0.271583	0.191856
N75	N	1.008254	-0.834034	-0.308150
N76	N	1.508254	-0.334034	0.191850
C77	C	1.073275	-0.866395	-0.303392
C78	C	1.573275	-0.366395	0.196608
N79	N	1.138267	-0.833946	-0.298616
N80	N	1.638267	-0.333946	0.201384
N81	N	1.138237	-0.771489	-0.298606
N82	N	1.638237	-0.271489	0.201394
C83	C	1.073217	-0.739606	-0.303373
C84	C	1.573217	-0.239606	0.196627
C85	C	1.120843	-0.970542	-0.263194
C86	C	1.620843	-0.470542	0.236806
C87	C	1.120879	-1.036286	-0.263213
C88	C	1.620879	-0.536286	0.236787
C89	C	1.025837	-1.036294	-0.343648
C90	C	1.525837	-0.536294	0.156352
C91	C	1.025808	-0.970552	-0.343633
C92	C	1.525808	-0.470552	0.156367
C93	C	1.073310	-0.937680	-0.303402
C94	C	1.573310	-0.437680	0.196598
C95	C	1.266912	-0.303342	-0.303399
C96	C	1.766912	0.196658	0.196601
C97	C	1.349457	-0.303353	-0.303414
C98	C	1.849457	0.196647	0.196586
C99	C	1.073264	-0.303279	-0.467554
C100	C	1.573264	0.196721	0.032446
C101	C	1.073289	-0.303263	-0.537522
C102	C	1.573289	0.196737	-0.037522
C103	C	1.073324	-0.139128	-0.303412
C104	C	1.573324	0.360872	0.196588
C105	C	1.073374	-0.069160	-0.303433
C106	C	1.573374	0.430840	0.196567
C107	C	1.025832	-0.262991	-0.570382
C108	C	1.525832	0.237009	-0.070382
C109	C	1.025829	-0.262979	-0.636124
C110	C	1.525829	0.237021	-0.136124
C111	C	1.073297	-0.303233	-0.669004
C112	C	1.573297	0.196767	-0.169004
C113	C	1.120758	-0.343512	-0.636136
C114	C	1.620758	0.156488	-0.136136
C115	C	1.120754	-0.343527	-0.570395
C116	C	1.620754	0.156473	-0.070395
N117	N	1.138307	-0.308044	-0.772248
N118	N	1.638307	0.191956	-0.272248
N119	N	1.138309	-0.308026	-0.834700
N120	N	1.638309	0.191974	-0.334700
C121	C	1.073311	-0.303191	-0.867079
C122	C	1.573311	0.196809	-0.367079
N123	N	1.008309	-0.298362	-0.834648
N124	N	1.508309	0.201638	-0.334648
N125	N	1.008309	-0.298376	-0.772191
N126	N	1.508309	0.201624	-0.272191
C127	C	1.073306	-0.303221	-0.740290
C128	C	1.573306	0.196779	-0.240290
C129	C	1.025846	-0.262904	-0.971225
C130	C	1.525846	0.237096	-0.471225
C131	C	1.025843	-0.262897	-1.036969
C132	C	1.525843	0.237103	-0.536969
C133	C	1.120778	-0.343427	-1.036979
C134	C	1.620778	0.156573	-0.536979
C135	C	1.120775	-0.343437	-0.971237
C136	C	1.620775	0.156563	-0.471237
C137	C	1.073310	-0.303173	-0.938364
C138	C	1.573310	0.196827	-0.438364
C139	C	1.073191	-0.303312	-0.139812
C140	C	1.573191	0.196688	0.360188
C141	C	1.073310	-0.303151	-0.069844
C142	C	1.573310	0.196849	0.430156
H143	H	0.527420	-0.381130	-0.380842
H144	H	1.027420	0.118870	0.119158
N145	N	0.627169	-0.270850	-0.425146
N146	N	1.127169	0.229150	0.074854
H147	H	0.609262	-0.227458	-0.436804
H148	H	1.109262	0.272542	0.063196
H149	H	0.683114	-0.271416	-0.424711
H150	H	1.183114	0.228584	0.075289
H151	H	0.527079	-0.331580	-0.197315
H152	H	1.027079	0.168420	0.302685
H153	H	1.159422	-0.376230	-0.944482
H154	H	1.659422	0.123770	-0.444482
N155	N	0.520220	-0.181623	-0.336196
N156	N	1.020220	0.318377	0.163804
H157	H	0.563351	-0.152320	-0.343662
H158	H	1.063351	0.347680	0.156338
H159	H	0.489452	-0.184731	-0.375671
H160	H	0.989452	0.315269	0.124329
N161	N	1.171905	-0.534245	-0.219743
N162	N	1.671905	-0.034245	0.280257
H163	H	1.202022	-0.565042	-0.194274
H164	H	1.702022	-0.065042	0.305726
H165	H	1.206244	-0.506931	-0.245399
H166	H	1.706244	-0.006931	0.254601
N167	N	1.171961	-0.670896	-0.219766
N168	N	1.671961	-0.170896	0.280234
H169	H	1.202049	-0.640096	-0.194280
H170	H	1.702049	-0.140096	0.305720
H171	H	1.141754	-0.698213	-0.190616
H172	H	1.641754	-0.198213	0.309384
H173	H	0.986983	-0.662226	-0.376324
H174	H	1.486983	-0.162226	0.123676
N175	N	0.626804	-0.425087	-0.270403
N176	N	1.126804	0.074913	0.229597
H177	H	0.608445	-0.456934	-0.301896
H178	H	1.108445	0.043066	0.198104
H179	H	0.682753	-0.424625	-0.270471
H180	H	1.182753	0.075375	0.229529
H181	H	0.986930	-0.542954	-0.376311
H182	H	1.486930	-0.042954	0.123689
N183	N	1.171961	-0.386928	-0.671592
N184	N	1.671961	0.113072	-0.171592
H185	H	1.160391	-0.431906	-0.660133
H186	H	1.660391	0.068094	-0.160133
H187	H	1.164744	-0.380755	-0.718214
H188	H	1.664744	0.119245	-0.218214
N189	N	1.172076	-0.935081	-0.219807
N190	N	1.672076	-0.435081	0.280193
H191	H	1.202194	-0.965877	-0.194338
H192	H	1.702194	-0.465877	0.305662
H193	H	1.206415	-0.907759	-0.245455
H194	H	1.706415	-0.407759	0.254545
N195	N	0.974633	-0.219551	-0.671580
N196	N	1.474633	0.280449	-0.171580
H197	H	1.004834	-0.190380	-0.698883
H198	H	1.504834	0.309620	-0.198883
H199	H	0.940217	-0.245178	-0.698794
H200	H	1.440217	0.254822	-0.198794
N201	N	0.974629	-0.219565	-0.534937
N202	N	1.474629	0.280435	-0.034937
H203	H	0.940188	-0.245145	-0.507640
H204	H	1.440188	0.254855	-0.007640
H205	H	1.004878	-0.190408	-0.507718
H206	H	1.504878	0.309592	-0.007718
N207	N	1.172147	-1.071733	-0.219843
N208	N	1.672147	-0.571733	0.280157
H209	H	1.202232	-1.040930	-0.194357
H210	H	1.702232	-0.540930	0.305643
H211	H	1.141944	-1.099053	-0.190693
H212	H	1.641944	-0.599053	0.309307
N213	N	0.974644	-0.219487	-0.935765
N214	N	1.474644	0.280513	-0.435765
H215	H	0.981846	-0.225604	-0.889131
H216	H	1.481846	0.274396	-0.389131
H217	H	0.986233	-0.174528	-0.947277
H218	H	1.486233	0.325472	-0.447277
N219	N	1.171942	-0.386966	-0.534949
N220	N	1.671942	0.113034	-0.034949
H221	H	1.202011	-0.412467	-0.565752
H222	H	1.702011	0.087533	-0.065752
H223	H	1.206328	-0.361353	-0.507696
H224	H	1.706328	0.138647	-0.007696
N225	N	0.974648	-0.219463	-1.072414
N226	N	1.474648	0.280537	-0.572414
H227	H	0.944582	-0.193960	-1.041611
H228	H	1.444582	0.306040	-0.541611
H229	H	1.004901	-0.190333	-1.099715
H230	H	1.504901	0.309667	-0.599715
N231	N	1.171971	-0.386849	-1.072433
N232	N	1.671971	0.113151	-0.572433
H233	H	1.164772	-0.380731	-1.119067
H234	H	1.664772	0.119269	-0.619067
H235	H	1.225018	-0.377062	-1.060967
H236	H	1.725018	0.122938	-0.560967
H237	H	0.987161	-1.063063	-0.376398
H238	H	1.487161	-0.563063	0.123602
H239	H	0.619905	-0.225645	-0.225862
H240	H	1.119905	0.274355	0.274138
N241	N	0.974541	-0.935103	-0.386999
N242	N	1.474541	-0.435103	0.113001
H243	H	0.944449	-0.965906	-0.412480
H244	H	1.444449	-0.465906	0.087520
H245	H	0.940177	-0.907870	-0.361338
H246	H	1.440177	-0.407870	0.138662
