data_functionalizedCrystal
_audit_creation_method	'MofGen! by Chris Wilmer'
_symmetry_space_group_name_H-M	'P1'
_symmetry_Int_Tables_number	1
_symmetry_cell_setting	triclinic
loop_
_symmetry_equiv_pos_as_xyz
  x,y,z
_cell_length_a	16.120490
_cell_length_b	10.686285
_cell_length_c	10.686551
_cell_angle_alpha	80.915481
_cell_angle_beta	82.497748
_cell_angle_gamma	82.516228
loop_
_atom_site_label
_atom_site_type_symbol
_atom_site_fract_x
_atom_site_fract_y
_atom_site_fract_z
Zn1	Zn	1.341638	-0.546043	-0.774513
Zn2	Zn	1.341570	-0.774618	-0.546006
Zn3	Zn	1.191191	-0.551645	-0.551565
Zn4	Zn	1.211208	-0.748919	-0.748929
O5	O	1.271402	-0.655306	-0.655253
O6	O	1.459148	-0.584775	-0.752581
O7	O	1.313216	-0.758140	-0.368514
O8	O	1.202799	-0.372683	-0.594173
O9	O	1.459098	-0.752708	-0.584698
O10	O	1.313332	-0.368567	-0.757972
O11	O	1.202733	-0.594323	-0.372599
O12	O	1.076327	-0.569404	-0.569365
O13	O	1.236916	-0.708908	-0.930552
O14	O	1.091033	-0.714340	-0.714368
O15	O	1.332742	-0.559855	-0.949348
O16	O	1.332626	-0.949428	-0.559890
O17	O	1.236850	-0.930548	-0.708978
C18	C	1.286927	-0.986198	-0.631084
C19	C	1.293647	-1.127757	-0.620792
C20	C	1.053209	-0.639692	-0.639695
C21	C	0.959868	-0.633040	-0.633067
C22	C	0.754685	-0.689799	-0.689637
C23	C	0.788979	-0.620908	-0.620963
C24	C	0.884070	-0.627660	-0.627699
C25	C	0.659585	-0.683048	-0.682902
C26	C	1.490447	-0.670983	-0.670873
C27	C	1.583791	-0.677663	-0.677529
C28	C	1.287069	-0.630890	-0.987455
C29	C	1.293746	-0.620485	-1.129019
C30	C	1.255840	-0.323123	-0.679546
C31	C	1.249209	-0.181566	-0.689898
C32	C	1.255839	-0.679540	-0.324354
C33	C	1.249308	-0.689597	-0.182828
H34	H	1.206022	-1.119338	-0.756939
Cl35	Cl	1.360319	-1.223836	-0.517264
Cl36	Cl	1.182686	-0.793250	-1.086749
H37	H	0.746923	-0.556857	-0.557110
H38	H	0.796738	-0.753846	-0.753483
Cl39	Cl	1.360381	-0.516842	-1.225103
