data_functionalizedCrystal
_audit_creation_method	'MofGen! by Chris Wilmer'
_symmetry_space_group_name_H-M	'P1'
_symmetry_Int_Tables_number	1
_symmetry_cell_setting	triclinic
loop_
_symmetry_equiv_pos_as_xyz
  x,y,z
_cell_length_a	15.298114
_cell_length_b	15.298852
_cell_length_c	17.077396
_cell_angle_alpha	80.301268
_cell_angle_beta	99.672475
_cell_angle_gamma	72.671317
loop_
_atom_site_label
_atom_site_type_symbol
_atom_site_fract_x
_atom_site_fract_y
_atom_site_fract_z
Zn1	Zn	1.485699	-0.615969	-0.127013
Zn2	Zn	1.512526	-0.771471	0.031694
Zn3	Zn	1.330205	-0.589121	-0.023261
Zn4	Zn	1.357090	-0.744548	-0.127032
O5	O	1.421380	-0.680277	-0.061403
O6	O	1.619382	-0.659101	-0.082953
O7	O	1.488317	-0.747314	0.134252
O8	O	1.328353	-0.462558	-0.060015
O9	O	1.639093	-0.773348	0.033648
O10	O	1.442593	-0.482283	-0.136241
O11	O	1.354367	-0.613342	0.093877
O12	O	1.203646	-0.587235	-0.060034
O13	O	1.374174	-0.727460	-0.236878
O14	O	1.223398	-0.701426	-0.136274
O15	O	1.468662	-0.632994	-0.236864
O16	O	1.514386	-0.898025	0.033630
O17	O	1.400187	-0.878244	-0.082986
C18	C	1.179782	-0.638496	-0.104119
C19	C	1.076430	-0.620644	-0.122408
C20	C	0.826075	-0.807874	0.069119
C21	C	0.923180	-0.824645	0.086308
C22	C	0.961497	-0.773647	0.034130
C23	C	0.902700	-0.705873	-0.035239
C24	C	0.805585	-0.689095	-0.052426
C25	C	0.941007	-0.654868	-0.087415
C26	C	0.882210	-0.587094	-0.156785
C27	C	0.785105	-0.570319	-0.173969
C28	C	0.746787	-0.621318	-0.121791
C29	C	1.038122	-0.671646	-0.070228
C30	C	1.017632	-0.552867	-0.191773
C31	C	0.920527	-0.536096	-0.208962
C32	C	1.463140	-0.921879	-0.018729
C33	C	1.481091	-1.025251	-0.000485
C34	C	1.293695	-1.275544	-0.191769
C35	C	1.276832	-1.178420	-0.208916
C36	C	1.327895	-1.140123	-0.156810
C37	C	1.395824	-1.198959	-0.087553
C38	C	1.412694	-1.296093	-0.070408
C39	C	1.446894	-1.160673	-0.035449
C40	C	1.514823	-1.219509	0.033808
C41	C	1.531689	-1.316633	0.050950
C42	C	1.480627	-1.354930	-0.001156
C43	C	1.430024	-1.063539	-0.052594
C44	C	1.549023	-1.084088	0.068767
C45	C	1.565886	-1.181212	0.085914
C46	C	1.663921	-0.722222	-0.018520
C47	C	1.767277	-0.740097	-0.000246
C48	C	1.421424	-0.680219	-0.266150
C49	C	1.421443	-0.680193	-0.353400
C50	C	1.379482	-0.437737	-0.104256
C51	C	1.361627	-0.334381	-0.122517
C52	C	1.470645	-0.631000	-0.394385
C53	C	1.470650	-0.630971	-0.476369
C54	C	1.421460	-0.680142	-0.517365
C55	C	1.372252	-0.729336	-0.476375
C56	C	1.372241	-0.729359	-0.394395
C57	C	1.372280	-0.729287	-0.647249
C58	C	1.372292	-0.729265	-0.729235
C59	C	1.470689	-0.630899	-0.729223
C60	C	1.470678	-0.630922	-0.647242
C61	C	1.421472	-0.680118	-0.606258
C62	C	1.421378	-0.680278	0.142545
C63	C	1.421493	-0.680072	0.229780
H64	H	0.794866	-0.849383	0.111598
H65	H	1.048828	-0.511338	-0.234259
Cl66	Cl	1.532494	-0.569188	-0.342853
H67	H	1.332234	-0.769301	-0.762613
H68	H	1.332194	-0.769330	-0.613887
H69	H	1.510718	-0.590916	-0.509734
Cl70	Cl	1.310382	-0.791201	-0.342872
Cl71	Cl	1.306778	-1.018038	-0.178424
H72	H	1.221525	-1.130520	-0.265304
Cl73	Cl	1.229519	-1.323696	-0.257272
Cl74	Cl	1.344629	-0.989585	-0.139655
H75	H	1.332196	-0.769367	-0.509762
Cl76	Cl	1.112027	-0.756846	0.016975
H77	H	1.510753	-0.590840	-0.762597
H78	H	1.587009	-1.364537	0.107339
H79	H	1.621196	-1.229130	0.142303
H80	H	1.590605	-1.052908	0.111196
H81	H	1.510740	-0.590890	-0.613863
Cl82	Cl	0.624710	-0.600250	-0.143406
H83	H	1.040565	-0.787306	0.048130
H84	H	0.971046	-0.879825	0.142789
Cl85	Cl	0.711189	-0.485109	-0.261171
H86	H	1.494347	-1.434014	0.012805
Cl87	Cl	0.846601	-0.450898	-0.296167
