data_functionalizedCrystal
_audit_creation_method	'MofGen! by Chris Wilmer'
_symmetry_space_group_name_H-M	'P1'
_symmetry_Int_Tables_number	1
_symmetry_cell_setting	triclinic
loop_
_symmetry_equiv_pos_as_xyz
  x,y,z
_cell_length_a	14.519709
_cell_length_b	27.732048
_cell_length_c	12.996460
_cell_angle_alpha	89.988908
_cell_angle_beta	90.000034
_cell_angle_gamma	83.161400
loop_
_atom_site_label
_atom_site_type_symbol
_atom_site_fract_x
_atom_site_fract_y
_atom_site_fract_z
O1	O	1.222766	0.063362	-0.085445
O2	O	0.954160	0.070824	-0.085477
O3	O	1.096805	-0.003264	-0.085440
O4	O	1.080121	0.137450	-0.085482
O5	O	1.096791	-0.003268	0.085693
O6	O	0.954145	0.070820	0.085656
O7	O	1.222752	0.063358	0.085689
Cu8	Cu	1.088447	0.067089	0.101299
Cu9	Cu	1.088464	0.067093	-0.101087
O10	O	1.080106	0.137446	0.085652
C11	C	0.919799	0.070474	0.000086
C12	C	0.817435	0.069432	0.000074
C13	C	0.442606	0.065596	0.000122
C14	C	0.546896	0.066661	0.000108
C15	C	0.630018	0.067514	0.000097
C16	C	0.734314	0.068579	0.000085
C17	C	1.096448	-0.021274	0.000129
C18	C	1.095393	-0.074934	0.000138
C19	C	1.173048	-0.413378	0.000094
C20	C	1.169135	-0.615057	0.000080
O21	O	1.240145	-0.645973	0.000043
N22	N	1.084552	-0.634585	0.000070
C23	C	1.000941	-0.603690	0.000058
O24	O	0.928909	-0.624927	0.000039
C25	C	1.004855	-0.402012	0.000065
C26	C	1.089444	-0.382487	0.000085
C27	C	1.257630	-0.393853	0.000113
C28	C	1.258607	-0.343436	0.000122
C29	C	1.175003	-0.312545	0.000113
C30	C	1.090421	-0.332071	0.000094
C31	C	0.921246	-0.371118	0.000045
C32	C	0.922232	-0.320696	0.000045
C33	C	1.006820	-0.301171	0.000064
C34	C	1.007794	-0.250763	0.000094
N35	N	1.092377	-0.231235	0.000104
C36	C	1.175981	-0.262126	0.000113
C37	C	0.998893	-0.709574	0.000056
C38	C	0.997914	-0.759993	0.000056
C39	C	1.166108	-0.771356	0.000076
C40	C	1.167086	-0.720936	0.000083
C41	C	1.083476	-0.690045	0.000065
C42	C	1.178028	-0.156247	0.000133
C43	C	1.178998	-0.105825	0.000147
C44	C	1.010804	-0.094466	0.000122
C45	C	1.009833	-0.144883	0.000114
C46	C	1.093453	-0.175773	0.000116
O47	O	0.936822	-0.219818	0.000119
O48	O	1.248004	-0.240879	0.000109
C49	C	1.172071	-0.463795	0.000085
C50	C	1.087489	-0.483320	0.000066
C51	C	1.003885	-0.452429	0.000057
C52	C	1.086510	-0.533740	0.000066
C53	C	1.170115	-0.564631	0.000076
C54	C	1.254698	-0.545103	0.000085
C55	C	1.255675	-0.494686	0.000094
C56	C	0.919302	-0.471957	0.000048
C57	C	0.918331	-0.522375	0.000039
C58	C	1.001936	-0.553266	0.000049
C59	C	1.257113	0.063708	0.000124
C60	C	1.359476	0.064750	0.000129
C61	C	1.080464	0.155456	0.000080
C62	C	1.081518	0.209116	0.000065
N63	N	1.088442	0.067085	0.243646
N64	N	1.088477	0.067093	-0.243434
C65	C	1.088463	0.067094	0.663460
C66	C	1.088454	0.067093	0.546655
C67	C	1.088453	0.067090	0.453557
C68	C	1.088443	0.067088	0.336744
H69	H	1.247882	-0.089931	0.000166
H70	H	1.325714	-0.419000	0.000117
C71	C	1.268744	-0.189836	0.000303
C72	C	1.273082	-0.219132	0.088331
C73	C	1.356629	-0.250084	0.088522
H74	H	1.319328	-0.171041	0.000369
H75	H	1.271882	-0.209763	-0.059347
H76	H	1.269954	-0.199207	0.147965
H77	H	1.222518	-0.237938	0.088283
H78	H	1.359767	-0.270011	0.028873
H79	H	1.407207	-0.231285	0.088586
H80	H	1.359581	-0.269968	0.148243
C81	C	1.347449	-0.473426	-0.000054
C82	C	1.352929	-0.444795	-0.088084
C83	C	1.437456	-0.425201	-0.088252
H84	H	1.397172	-0.499000	-0.000105
H85	H	1.351339	-0.453973	0.059594
H86	H	1.349048	-0.464247	-0.147717
H87	H	1.303225	-0.419213	-0.088052
H88	H	1.441347	-0.405748	-0.028603
H89	H	1.487173	-0.450778	-0.088299
H90	H	1.441182	-0.405769	-0.147973
H91	H	1.322771	-0.570263	0.000097
H92	H	1.327488	-0.327544	0.000134
C93	C	0.826580	-0.543663	0.000067
C94	C	0.843603	-0.594430	0.000081
C95	C	0.759108	-0.614055	0.000109
H96	H	0.792131	-0.533107	-0.059602
H97	H	0.792167	-0.533099	0.059762
H98	H	0.878001	-0.604989	-0.059608
H99	H	0.878037	-0.604999	0.059746
H100	H	0.724695	-0.603492	0.059804
H101	H	0.724666	-0.603496	-0.059561
H102	H	0.770646	-0.648503	0.000128
H103	H	1.234182	-0.796516	0.000084
H104	H	0.929034	-0.775885	0.000058
C105	C	0.828596	-0.438365	0.000202
C106	C	0.824243	-0.409090	0.088239
C107	C	0.740699	-0.378136	0.088415
H108	H	0.778009	-0.457159	0.000247
H109	H	0.825471	-0.418423	-0.059441
H110	H	0.827359	-0.429029	0.147867
H111	H	0.874810	-0.390286	0.088213
H112	H	0.737574	-0.358195	0.028772
H113	H	0.690119	-0.396934	0.088458
H114	H	0.737739	-0.358267	0.148142
H115	H	0.930803	-0.684426	0.000042
C116	C	1.258857	-0.699673	-0.000066
C117	C	1.264334	-0.671045	-0.088100
C118	C	1.348858	-0.651447	-0.088269
H119	H	1.308584	-0.725245	-0.000112
H120	H	1.262743	-0.680218	0.059579
H121	H	1.260458	-0.690499	-0.147730
H122	H	1.214627	-0.645465	-0.088073
H123	H	1.352744	-0.631992	-0.028623
H124	H	1.398578	-0.677022	-0.088311
H125	H	1.352582	-0.632017	-0.147993
C126	C	0.831480	-0.287135	-0.000184
C127	C	0.827125	-0.257855	-0.088238
C128	C	0.743535	-0.226938	-0.088487
H129	H	0.828265	-0.267191	0.059427
H130	H	0.780941	-0.305970	-0.000251
H131	H	0.877650	-0.239021	-0.088161
H132	H	0.830324	-0.277786	-0.147862
H133	H	0.692996	-0.245774	-0.088555
H134	H	0.740328	-0.206998	-0.028873
H135	H	0.740566	-0.207072	-0.148235
C136	C	0.917901	-0.165992	0.000042
C137	C	0.844894	-0.128144	0.000013
C138	C	0.760192	-0.147566	-0.000081
H139	H	0.913880	-0.185428	0.059694
H140	H	0.913983	-0.185399	-0.059671
H141	H	0.848811	-0.108745	0.059719
H142	H	0.848885	-0.108705	-0.059634
H143	H	0.756274	-0.166974	-0.059793
H144	H	0.756180	-0.167002	0.059572
H145	H	0.710647	-0.121890	-0.000110
C146	C	0.920067	-0.060897	-0.000105
C147	C	0.915731	-0.031621	-0.088164
C148	C	0.832153	-0.000694	-0.088423
H149	H	0.916857	-0.040952	0.059502
H150	H	0.869518	-0.079726	-0.000174
H151	H	0.966266	-0.012794	-0.088085
H152	H	0.918924	-0.051554	-0.147785
H153	H	0.781604	-0.019523	-0.088492
H154	H	0.828951	0.019248	-0.028812
H155	H	0.829196	0.019170	-0.148174
H156	H	0.852365	-0.387006	0.000023
