data_functionalizedCrystal
_audit_creation_method	'MofGen! by Chris Wilmer'
_symmetry_space_group_name_H-M	'P1'
_symmetry_Int_Tables_number	1
_symmetry_cell_setting	triclinic
loop_
_symmetry_equiv_pos_as_xyz
  x,y,z
_cell_length_a	14.971494
_cell_length_b	14.971486
_cell_length_c	13.448316
_cell_angle_alpha	90.006811
_cell_angle_beta	89.993803
_cell_angle_gamma	96.384290
loop_
_atom_site_label
_atom_site_type_symbol
_atom_site_fract_x
_atom_site_fract_y
_atom_site_fract_z
O1	O	1.186943	-0.116598	-0.082679
O2	O	0.926544	-0.130549	-0.082684
O3	O	1.063723	0.006626	-0.082675
O4	O	1.049764	-0.253773	-0.082689
O5	O	1.063706	0.006635	0.082709
O6	O	0.926527	-0.130541	0.082700
O7	O	1.186926	-0.116589	0.082704
Cu8	Cu	1.056725	-0.123564	0.097803
Cu9	Cu	1.056745	-0.123574	-0.097783
O10	O	1.049747	-0.253765	0.082695
C11	C	0.893211	-0.129920	0.000007
C12	C	0.793914	-0.128046	0.000005
C13	C	1.063090	0.039955	0.000017
C14	C	1.061219	0.139252	0.000016
C15	C	1.220259	-0.117219	0.000011
C16	C	1.319556	-0.119092	0.000006
C17	C	1.747260	-0.127159	0.090157
C18	C	1.653961	-0.125393	0.090158
C19	C	1.607317	-0.124520	0.000007
C20	C	1.653977	-0.125404	-0.090152
C21	C	1.747276	-0.127165	-0.090152
C22	C	1.459514	-0.121738	-0.090145
C23	C	1.366210	-0.119979	-0.090146
C24	C	1.366200	-0.119966	0.090165
C25	C	1.459498	-0.121726	0.090165
C26	C	1.506152	-0.122612	0.000006
C27	C	1.050380	-0.287094	0.000001
C28	C	1.052250	-0.386391	-0.000005
N29	N	1.056717	-0.123557	0.235367
C30	C	1.141808	0.196476	0.000018
C31	C	1.140045	0.289775	0.000008
C32	C	1.057692	0.325850	0.000003
C33	C	0.977097	0.268619	-0.000002
C34	C	0.978861	0.175322	0.000001
C35	C	0.973426	0.463082	-0.000006
C36	C	0.971662	0.556386	-0.000007
C37	C	1.134610	0.577535	0.000002
C38	C	1.136374	0.484238	0.000005
C39	C	1.055779	0.427014	0.000001
N40	N	1.056760	-0.123575	-0.235347
C41	C	1.117479	-0.062840	0.287412
C42	C	1.117484	-0.062840	0.391515
C43	C	1.056732	-0.123560	0.443572
C44	C	0.995963	-0.184280	0.391520
C45	C	0.995954	-0.184275	0.287418
C46	C	0.995988	-0.184286	0.608500
C47	C	0.995998	-0.184291	0.712608
C48	C	1.117518	-0.062850	0.712596
C49	C	1.117509	-0.062846	0.608495
C50	C	1.056742	-0.123566	0.556450
H51	H	1.615982	-0.124655	0.163569
O52	O	1.221751	0.161330	-0.000110
C53	C	1.227664	0.108004	-0.085775
H54	H	1.157193	0.084839	-0.114330
H55	H	1.267194	0.149173	-0.145754
C56	C	1.362472	0.053883	-0.024682
C57	C	1.275918	0.025425	-0.059749
H58	H	1.392240	0.002946	-0.008631
H59	H	1.358491	0.089812	0.033030
H60	H	1.395402	0.088191	-0.074671
H61	H	1.242986	-0.008873	-0.009757
H62	H	1.279894	-0.010512	-0.117453
O63	O	1.218412	0.345233	0.000061
C64	C	1.291476	0.293387	0.000050
H65	H	1.268841	0.223784	0.031361
H66	H	1.316731	0.286707	-0.079288
C67	C	1.395551	0.425286	0.026461
C68	C	1.367751	0.339801	0.064925
H69	H	1.442603	0.453917	0.066475
H70	H	1.346327	0.460217	0.026465
H71	H	1.416590	0.419707	-0.039654
H72	H	1.346702	0.345381	0.131034
H73	H	1.416974	0.304872	0.064934
H74	H	1.328234	-0.119270	-0.163555
O75	O	1.792586	-0.128166	0.177707
C76	C	1.836525	-0.206578	0.183097
H77	H	1.801393	-0.260157	0.131939
H78	H	1.909508	-0.190414	0.158878
C79	C	1.876541	-0.175881	0.353640
C80	C	1.833387	-0.241691	0.290813
H81	H	1.874609	-0.197539	0.420085
H82	H	1.846941	-0.123051	0.350008
H83	H	1.937356	-0.162417	0.333446
H84	H	1.772570	-0.255146	0.311001
H85	H	1.862976	-0.294524	0.294451
H86	H	1.497473	-0.122442	0.163575
O87	O	0.937055	-0.243295	0.236749
C88	C	0.985003	-0.298571	0.176527
H89	H	1.054954	-0.263065	0.160922
H90	H	0.991148	-0.364692	0.216631
C91	C	0.848670	-0.361205	0.096816
C92	C	0.934583	-0.317593	0.077643
H93	H	0.817567	-0.372943	0.035821
H94	H	0.816366	-0.323968	0.137391
H95	H	0.853803	-0.416301	0.130239
H96	H	0.929448	-0.262493	0.044233
H97	H	0.966885	-0.354822	0.037060
O98	O	1.504691	-0.122643	-0.177814
C99	C	1.443520	-0.121480	-0.257386
H100	H	1.373338	-0.148511	-0.230953
H101	H	1.442911	-0.049595	-0.285116
C102	C	1.558526	-0.147600	-0.375019
C103	C	1.472328	-0.180807	-0.342555
H104	H	1.576297	-0.184192	-0.427557
H105	H	1.599739	-0.148380	-0.321411
H106	H	1.558007	-0.087696	-0.398120
H107	H	1.472851	-0.240705	-0.319442
H108	H	1.431115	-0.180038	-0.396161
H109	H	1.615993	-0.124687	-0.163555
H110	H	1.785260	-0.127889	-0.163563
O111	O	1.212819	0.633245	-0.000050
C112	C	1.193608	0.723328	-0.000038
H113	H	1.123351	0.726976	-0.031351
H114	H	1.196962	0.750322	0.079301
C115	C	1.349286	0.775859	-0.026443
C116	C	1.262998	0.780340	-0.064910
H117	H	1.392091	0.811028	-0.066455
H118	H	1.362230	0.715169	-0.026448
H119	H	1.352069	0.798352	0.039672
H120	H	1.260213	0.757836	-0.131019
H121	H	1.250055	0.841028	-0.064918
O122	O	1.321019	-0.119143	0.177837
C123	C	1.382197	-0.120274	0.257406
H124	H	1.445031	-0.149828	0.230972
H125	H	1.401427	-0.048757	0.285131
C126	C	1.260996	-0.141895	0.375045
C127	C	1.338166	-0.178201	0.342580
H128	H	1.233835	-0.177623	0.427587
H129	H	1.219778	-0.141129	0.321438
H130	H	1.277032	-0.082299	0.398142
H131	H	1.322128	-0.237792	0.319473
H132	H	1.379380	-0.178978	0.396185
H133	H	1.166960	-0.013399	0.433889
O134	O	0.891588	0.591282	-0.000071
C135	C	0.820830	0.520771	-0.000063
H136	H	0.845976	0.457360	-0.031362
H137	H	0.795940	0.507608	0.079274
C138	C	0.712307	0.625072	-0.026503
C139	C	0.743190	0.547191	-0.064953
H140	H	0.664412	0.641369	-0.066526
H141	H	0.759977	0.672578	-0.026505
H142	H	0.691572	0.614093	0.039610
H143	H	0.763934	0.558174	-0.131060
H144	H	0.695521	0.499687	-0.064963
H145	H	0.907796	0.416492	-0.000011
H146	H	0.946502	-0.233728	0.566128
H147	H	1.166982	-0.013407	0.566111
H148	H	1.203433	0.454869	0.000016
H149	H	0.910044	0.297998	-0.000013
H150	H	0.946526	-0.233735	0.754988
O151	O	0.936911	-0.243140	0.442197
C152	C	0.881677	-0.195145	0.502419
H153	H	0.917232	-0.125212	0.518018
H154	H	0.815563	-0.188954	0.462319
C155	C	0.818956	-0.331438	0.582143
C156	C	0.862628	-0.245549	0.601308
H157	H	0.807202	-0.362531	0.643140
H158	H	0.856165	-0.363775	0.541567
H159	H	0.763866	-0.326267	0.548724
H160	H	0.917722	-0.250721	0.634715
H161	H	0.825428	-0.213214	0.641891
H162	H	0.913237	0.128731	-0.000001
H163	H	1.166954	-0.013398	0.245034
H164	H	1.166997	-0.013409	0.754977
