data_functionalizedCrystal
_audit_creation_method	'MofGen! by Chris Wilmer'
_symmetry_space_group_name_H-M	'P1'
_symmetry_Int_Tables_number	1
_symmetry_cell_setting	triclinic
loop_
_symmetry_equiv_pos_as_xyz
  x,y,z
_cell_length_a	18.050589
_cell_length_b	12.759401
_cell_length_c	12.759393
_cell_angle_alpha	90.017380
_cell_angle_beta	89.969175
_cell_angle_gamma	89.971618
loop_
_atom_site_label
_atom_site_type_symbol
_atom_site_fract_x
_atom_site_fract_y
_atom_site_fract_z
Zn1	Zn	-0.295611	-1.606145	-0.593988
Zn2	Zn	-0.419822	-1.606001	-0.418311
Zn3	Zn	-0.295650	-1.430450	-0.418328
Zn4	Zn	-0.419764	-1.430394	-0.593953
O5	O	-0.357712	-1.518248	-0.506145
O6	O	-0.312095	-1.753147	-0.570692
O7	O	-0.403391	-1.582678	-0.271292
O8	O	-0.191720	-1.453840	-0.441651
O9	O	-0.403352	-1.753041	-0.441623
O10	O	-0.191692	-1.582923	-0.570708
O11	O	-0.312162	-1.453701	-0.271304
O12	O	-0.312107	-1.283422	-0.441617
O13	O	-0.403254	-1.453745	-0.740979
O14	O	-0.403292	-1.283381	-0.570648
O15	O	-0.312040	-1.582868	-0.741005
O16	O	-0.523739	-1.582623	-0.441589
O17	O	-0.523696	-1.453605	-0.570632
C18	C	-0.357698	-1.245280	-0.506131
C19	C	-0.357710	-1.128504	-0.506149
C20	C	-0.550664	-1.518121	-0.506127
C21	C	-0.633210	-1.518163	-0.506155
C22	C	-0.357636	-1.518316	-0.780178
C23	C	-0.357604	-1.518345	-0.896955
C24	C	-0.832664	-1.448072	-0.576304
C25	C	-0.882113	-1.422460	-0.480436
C26	C	-0.784340	-1.518266	-0.506169
C27	C	-0.881973	-1.543930	-0.602048
C28	C	-0.930325	-1.518364	-0.506191
C29	C	-0.832702	-1.492603	-0.410250
C30	C	-0.832557	-1.614118	-0.531927
C31	C	-0.881984	-1.588542	-0.435992
C32	C	-0.700242	-1.518207	-0.506158
C33	C	-1.014422	-1.518423	-0.506191
C34	C	-0.164006	-1.518404	-0.506185
C35	C	-0.081460	-1.518470	-0.506203
C36	C	-0.357726	-1.792281	-0.506160
C37	C	-0.357732	-1.909058	-0.506166
C38	C	-0.405267	-1.073648	-0.573225
C39	C	-0.405276	-0.963924	-0.573236
C40	C	-0.310170	-0.963921	-0.439088
C41	C	-0.310158	-1.073644	-0.439083
C42	C	-0.452819	-1.128508	-0.640292
C43	C	-0.500380	-1.073652	-0.707372
C44	C	-0.500389	-0.963928	-0.707383
C45	C	-0.452838	-0.909060	-0.640314
C46	C	-0.310093	-1.451216	-0.951829
C47	C	-0.310071	-1.451247	-1.061554
C48	C	-0.405073	-1.585547	-1.061519
C49	C	-0.405098	-1.585510	-0.951797
C50	C	-0.262598	-1.384051	-0.896987
C51	C	-0.215082	-1.316917	-0.951862
C52	C	-0.215060	-1.316949	-1.061586
C53	C	-0.262554	-1.384115	-1.116436
C54	C	-0.357733	-1.518240	-0.233178
C55	C	-0.357556	-1.518415	-0.116401
H56	H	-0.811008	-1.388624	-0.635531
O57	O	-0.262550	-1.383852	-0.790403
C58	C	-0.210430	-1.310199	-0.753761
H59	H	-0.200008	-1.248843	-0.816994
H60	H	-0.156287	-1.351904	-0.734313
C61	C	-0.253512	-1.331647	-0.576928
C62	C	-0.240717	-1.256284	-0.654588
H63	H	-0.272191	-1.298393	-0.515751
H64	H	-0.288624	-1.381272	-0.601612
H65	H	-0.208389	-1.366396	-0.560734
H66	H	-0.285840	-1.221547	-0.670790
H67	H	-0.205612	-1.206652	-0.629904
O68	O	-0.169032	-1.251521	-0.898632
C69	C	-0.185239	-1.146806	-0.925457
H70	H	-0.244562	-1.141462	-0.955600
H71	H	-0.145408	-1.119394	-0.989160
C72	C	-0.103754	-1.083229	-0.790969
C73	C	-0.176616	-1.076665	-0.827982
H74	H	-0.098432	-1.039960	-0.730844
H75	H	-0.092832	-1.153777	-0.772898
H76	H	-0.070569	-1.060388	-0.844064
H77	H	-0.209798	-1.099518	-0.774893
H78	H	-0.187543	-1.006118	-0.846042
H79	H	-0.452818	-1.217851	-0.640288
O80	O	-0.908050	-1.325745	-0.454618
C81	C	-0.882911	-1.251918	-0.528729
H82	H	-0.868989	-1.293646	-0.605265
H83	H	-0.831281	-1.211119	-0.497441
C84	C	-0.961103	-1.118768	-0.454561
C85	C	-0.944010	-1.170018	-0.548566
H86	H	-0.998789	-1.068245	-0.466794
H87	H	-0.978038	-1.168505	-0.404628
H88	H	-0.918072	-1.084777	-0.428496
H89	H	-0.987038	-1.204018	-0.574622
H90	H	-0.927084	-1.120285	-0.598504
O91	O	-0.806871	-1.466609	-0.313574
C92	C	-0.728764	-1.466853	-0.314734
H93	H	-0.708290	-1.455108	-0.398443
H94	H	-0.707579	-1.545052	-0.283594
C95	C	-0.724868	-1.391775	-0.142177
C96	C	-0.699721	-1.377341	-0.244989
H97	H	-0.706951	-1.336563	-0.099151
H98	H	-0.777490	-1.391614	-0.141392
H99	H	-0.707212	-1.456944	-0.116241
H100	H	-0.717385	-1.312179	-0.270928
H101	H	-0.647101	-1.377489	-0.245776
H102	H	-0.903502	-1.647945	-0.376622
O103	O	-0.451306	-1.650683	-1.114751
C104	C	-0.525329	-1.627674	-1.087905
H105	H	-0.529085	-1.543729	-1.057745
H106	H	-0.544761	-1.683965	-1.024209
C107	C	-0.570254	-1.742999	-1.222406
C108	C	-0.574868	-1.639893	-1.185371
H109	H	-0.600813	-1.750540	-1.282526
H110	H	-0.520384	-1.758504	-1.240491
H111	H	-0.586446	-1.789896	-1.169317
H112	H	-0.558668	-1.592998	-1.238455
H113	H	-0.624737	-1.624380	-1.167297
H114	H	-0.810775	-1.695113	-0.553739
O115	O	-0.169018	-1.251617	-1.114936
C116	C	-0.211281	-1.183757	-1.178404
H117	H	-0.269779	-1.177214	-1.145320
H118	H	-0.213821	-1.216257	-1.261563
C119	C	-0.103144	-1.082604	-1.220726
C120	C	-0.174991	-1.074561	-1.180086
H121	H	-0.080758	-1.015248	-1.221768
H122	H	-0.074670	-1.128325	-1.177969
H123	H	-0.105271	-1.109692	-1.290021
H124	H	-0.172863	-1.047486	-1.110788
H125	H	-0.203465	-1.028833	-1.222831
H126	H	-0.539110	-0.919267	-0.762010
H127	H	-0.262534	-1.384133	-1.205780
O128	O	-0.907706	-1.569664	-0.698847
C129	C	-0.882592	-1.495381	-0.772518
H130	H	-0.830633	-1.455343	-0.741345
H131	H	-0.927616	-1.434217	-0.786213
C132	C	-0.928344	-1.600123	-0.914887
C133	C	-0.864523	-1.550954	-0.876604
H134	H	-0.917201	-1.634401	-0.979094
H135	H	-0.945266	-1.650167	-0.865254
H136	H	-0.965857	-1.549144	-0.926291
H137	H	-0.827014	-1.601935	-0.865188
H138	H	-0.847594	-1.500920	-0.926238
O139	O	-0.546542	-1.127108	-0.772423
C140	C	-0.536325	-1.235715	-0.758051
H141	H	-0.511934	-1.250683	-0.677029
H142	H	-0.496826	-1.266897	-0.820462
C143	C	-0.641427	-1.273628	-0.867005
C144	C	-0.611476	-1.292012	-0.767489
H145	H	-0.687782	-1.308357	-0.872831
H146	H	-0.648309	-1.200458	-0.876692
H147	H	-0.608504	-1.299613	-0.919003
H148	H	-0.644394	-1.266015	-0.715494
H149	H	-0.604601	-1.365180	-0.757794
O150	O	-0.451327	-1.650568	-0.898435
C151	C	-0.499287	-1.590682	-0.834937
H152	H	-0.503861	-1.507946	-0.868013
H153	H	-0.476339	-1.587046	-0.751790
C154	C	-0.570878	-1.743559	-0.792588
C155	C	-0.576500	-1.641943	-0.833218
H156	H	-0.618506	-1.775180	-0.791522
H157	H	-0.538565	-1.783906	-0.835364
H158	H	-0.551752	-1.740515	-0.723303
H159	H	-0.595617	-1.644990	-0.902506
H160	H	-0.608818	-1.601598	-0.790453
O161	O	-0.264060	-0.910463	-0.373965
C162	C	-0.274259	-0.801857	-0.388368
H163	H	-0.331600	-0.786861	-0.422647
H164	H	-0.230256	-0.770754	-0.444417
C165	C	-0.196955	-0.763911	-0.239980
C166	C	-0.267385	-0.745492	-0.282074
H167	H	-0.192712	-0.729141	-0.174415
H168	H	-0.190081	-0.837081	-0.230278
H169	H	-0.160294	-0.737992	-0.286698
H170	H	-0.304045	-0.771423	-0.235363
H171	H	-0.274265	-0.672325	-0.291766
H172	H	-0.452843	-0.819715	-0.640338
H173	H	-0.271428	-1.118308	-0.384472
