data_functionalizedCrystal
_audit_creation_method	'MofGen! by Chris Wilmer'
_symmetry_space_group_name_H-M	'P1'
_symmetry_Int_Tables_number	1
_symmetry_cell_setting	triclinic
loop_
_symmetry_equiv_pos_as_xyz
  x,y,z
_cell_length_a	13.033409
_cell_length_b	19.120786
_cell_length_c	13.032268
_cell_angle_alpha	85.590044
_cell_angle_beta	74.837427
_cell_angle_gamma	85.590070
loop_
_atom_site_label
_atom_site_type_symbol
_atom_site_fract_x
_atom_site_fract_y
_atom_site_fract_z
Zn1	Zn	1.522530	-0.440936	0.369055
Zn2	Zn	2.022530	0.059064	0.869055
Zn3	Zn	1.539150	-0.544169	0.185636
Zn4	Zn	2.039150	-0.044169	0.685636
Zn5	Zn	1.368961	-0.414769	0.215538
Zn6	Zn	1.868961	0.085231	0.715538
Zn7	Zn	1.339069	-0.544143	0.385789
Zn8	Zn	1.839069	-0.044143	0.885789
O9	O	1.442427	-0.486004	0.289004
O10	O	1.942427	0.013996	0.789004
O11	O	1.672738	-0.465592	0.325206
O12	O	2.172738	0.034408	0.825206
O13	O	1.536039	-0.516064	0.041591
O14	O	2.036039	-0.016064	0.541591
O15	O	1.394886	-0.320893	0.241413
O16	O	1.894886	0.179107	0.741413
O17	O	1.684949	-0.541437	0.190450
O18	O	2.184949	-0.041437	0.690450
O19	O	1.507712	-0.340119	0.354201
O20	O	2.007712	0.159881	0.854201
O21	O	1.411002	-0.420994	0.063560
O22	O	1.911002	0.079006	0.563560
O23	O	1.216992	-0.420969	0.257639
O24	O	1.716992	0.079031	0.757639
O25	O	1.343940	-0.541393	0.531581
O26	O	1.843940	-0.041393	1.031581
O27	O	1.195030	-0.516019	0.382722
O28	O	1.695030	-0.016019	0.882722
O29	O	1.478728	-0.465567	0.519286
O30	O	1.978728	0.034433	1.019286
O31	O	1.507055	-0.641512	0.206676
O32	O	2.007055	-0.141512	0.706676
O33	O	1.360056	-0.641493	0.353727
O34	O	1.860056	-0.141493	0.853727
C35	C	1.167635	-0.465652	0.325242
C36	C	1.667635	0.034348	0.825242
C37	C	1.050074	-0.456964	0.340768
C38	C	1.550074	0.043036	0.840768
C39	C	0.882210	-0.481565	0.296968
C40	C	1.382210	0.018435	0.796968
C41	C	1.003717	-0.490547	0.280915
C42	C	1.503717	0.009453	0.780915
C43	C	1.432141	-0.666747	0.278792
C44	C	1.932141	-0.166747	0.778792
C45	C	1.427832	-0.744080	0.274445
C46	C	1.927832	-0.244080	0.774445
C47	C	1.484493	-0.790360	0.331188
C48	C	1.984493	-0.290360	0.831188
C49	C	1.480441	-0.863022	0.327106
C50	C	1.980441	-0.363022	0.827106
C51	C	1.419732	-0.889402	0.266276
C52	C	1.919732	-0.389402	0.766276
C53	C	1.363065	-0.843116	0.209532
C54	C	1.863065	-0.343116	0.709532
C55	C	1.367112	-0.770455	0.213620
C56	C	1.867112	-0.270455	0.713620
C57	C	1.404571	-1.108292	0.250997
C58	C	1.904571	-0.608292	0.750997
C59	C	1.400530	-1.180958	0.246911
C60	C	1.900530	-0.680958	0.746911
C61	C	1.517905	-1.200859	0.364487
C62	C	2.017905	-0.700859	0.864487
C63	C	1.521952	-1.128196	0.368565
C64	C	2.021952	-0.628196	0.868565
C65	C	1.465280	-1.081917	0.311825
C66	C	1.965280	-0.581917	0.811825
C67	C	1.415591	-0.963674	0.262100
C68	C	1.915591	-0.463674	0.762100
C69	C	1.469416	-1.007646	0.316008
C70	C	1.969416	-0.507646	0.816008
C71	C	1.718292	-0.506437	0.252626
C72	C	2.218292	-0.006437	0.752626
C73	C	1.835850	-0.515144	0.237124
C74	C	2.335850	-0.015144	0.737124
C75	C	1.406145	-0.506396	0.564884
C76	C	1.906145	-0.006396	1.064884
C77	C	1.390684	-0.515086	0.682448
C78	C	1.890684	-0.015086	1.182448
C79	C	1.452779	-0.304559	0.299276
C80	C	1.952779	0.195441	0.799276
C81	C	1.457191	-0.227238	0.303653
C82	C	1.957191	0.272762	0.803653
C83	C	1.478632	-0.465646	0.014192
C84	C	1.978632	0.034354	0.514192
C85	C	1.494309	-0.456776	-0.103387
C86	C	1.994309	0.043224	0.396613
C87	C	1.450481	-0.481443	0.728778
C88	C	1.950481	0.018557	1.228778
C89	C	1.434503	-0.490423	0.850286
C90	C	1.934503	0.009577	1.350286
H91	H	1.053976	-0.525951	0.217797
H92	H	1.553976	-0.025951	0.717797
N93	N	1.353614	-0.990645	0.199951
N94	N	1.853614	-0.490645	0.699951
N95	N	1.397512	-1.028971	0.125405
N96	N	1.897512	-0.528971	0.625405
H97	H	1.353745	-1.048027	0.081512
H98	H	1.853745	-0.548027	0.581512
H99	H	0.999814	-0.421566	0.403896
H100	H	1.499814	0.078434	0.903896
H101	H	0.886112	-0.550545	0.174009
H102	H	1.386112	-0.050545	0.674009
N103	N	1.531442	-0.980715	0.378137
N104	N	2.031442	-0.480715	0.878137
N105	N	1.582040	-1.022040	0.428792
N106	N	2.082040	-0.522040	0.928792
H107	H	1.625852	-1.003015	0.472668
H108	H	2.125852	-0.503015	0.972668
H109	H	1.327654	-0.550532	0.732740
H110	H	1.827654	-0.050532	1.232740
N111	N	1.546522	-0.763429	0.393321
N112	N	2.046522	-0.263429	0.893321
N113	N	1.597106	-0.804762	0.443979
N114	N	2.097106	-0.304762	0.943979
H115	H	1.640915	-0.785745	0.487864
H116	H	2.140915	-0.285745	0.987864
H117	H	1.564043	-1.238547	0.410683
H118	H	2.064043	-0.738547	0.910683
H119	H	1.313630	-0.864600	0.160007
H120	H	1.813630	-0.364600	0.660007
H121	H	0.831945	-0.446171	0.360092
H122	H	1.331945	0.053829	0.860092
N123	N	1.309220	-0.723189	0.155660
N124	N	1.809220	-0.223189	0.655660
N125	N	1.255017	-0.746749	0.101353
N126	N	1.755017	-0.246749	0.601353
H127	H	1.214124	-0.713368	0.060421
H128	H	1.714124	-0.213368	0.560421
H129	H	1.526589	-0.900701	0.373303
H130	H	2.026589	-0.400701	0.873303
N131	N	1.583974	-1.101264	0.430703
N132	N	2.083974	-0.601264	0.930703
N133	N	1.634562	-1.142594	0.481361
N134	N	2.134562	-0.642594	0.981361
H135	H	1.678370	-1.123574	0.525244
H136	H	2.178370	-0.623574	1.025244
H137	H	1.557332	-0.421318	0.846329
H138	H	2.057332	0.078682	1.346329
H139	H	1.371468	-0.525872	0.900575
H140	H	1.871468	-0.025872	1.400575
N141	N	1.338555	-1.207894	0.184720
N142	N	1.838555	-0.707894	0.684720
N143	N	1.287990	-1.166566	0.134035
N144	N	1.787990	-0.666566	0.634035
H145	H	1.244239	-1.185589	0.090097
H146	H	1.744239	-0.685589	0.590097
H147	H	1.358428	-1.070616	0.204795
H148	H	1.858428	-0.570616	0.704795
N149	N	1.529535	-0.436965	0.665686
N150	N	2.029535	0.063035	1.165686
N151	N	1.542399	-0.429730	0.567070
N152	N	2.042399	0.070270	1.067070
H153	H	1.598232	-0.398316	0.522511
H154	H	2.098232	0.101684	1.022511
