data_functionalizedCrystal
_audit_creation_method	'MofGen! by Chris Wilmer'
_symmetry_space_group_name_H-M	'P1'
_symmetry_Int_Tables_number	1
_symmetry_cell_setting	triclinic
loop_
_symmetry_equiv_pos_as_xyz
  x,y,z
_cell_length_a	12.837943
_cell_length_b	22.610064
_cell_length_c	12.811415
_cell_angle_alpha	95.426764
_cell_angle_beta	89.411917
_cell_angle_gamma	90.007937
loop_
_atom_site_label
_atom_site_type_symbol
_atom_site_fract_x
_atom_site_fract_y
_atom_site_fract_z
O1	O	1.376641	0.063813	0.272960
O2	O	1.074778	0.063093	0.259476
O3	O	1.233302	0.055296	0.114187
O4	O	1.218117	0.071610	0.418249
O5	O	1.233274	-0.043072	0.114208
O6	O	1.074749	-0.035275	0.259497
O7	O	1.376613	-0.034556	0.272981
Zn8	Zn	1.225677	-0.050533	0.266242
Zn9	Zn	1.225714	0.079071	0.266215
O10	O	1.218089	-0.026758	0.418270
C11	C	1.036123	0.013665	0.254931
C12	C	0.920987	0.012938	0.241345
C13	C	0.680735	0.021692	0.404673
C14	C	0.572554	0.021009	0.391913
C15	C	0.596442	0.010883	0.203065
C16	C	0.704623	0.011566	0.215825
C17	C	0.746766	0.016972	0.316632
C18	C	0.854949	0.017660	0.329392
C19	C	0.878834	0.007530	0.140545
C20	C	0.770653	0.006846	0.127785
N21	N	1.225659	-0.138985	0.266261
C22	C	1.295912	-0.551081	0.201892
C23	C	1.295917	-0.613001	0.201885
O24	O	1.355604	-0.647956	0.147168
N25	N	1.225713	-0.640526	0.266193
C26	C	1.155492	-0.606127	0.330504
O27	O	1.095778	-0.635225	0.385202
C28	C	1.155483	-0.544208	0.330505
C29	C	1.225698	-0.516687	0.266201
C30	C	1.366121	-0.523559	0.137592
C31	C	1.366117	-0.461643	0.137601
C32	C	1.295903	-0.427249	0.201910
C33	C	1.225694	-0.454770	0.266210
C34	C	1.085257	-0.509811	0.394810
C35	C	1.085253	-0.447888	0.394805
C36	C	1.155469	-0.420367	0.330500
C37	C	1.155476	-0.358460	0.330527
N38	N	1.225680	-0.330935	0.266219
C39	C	1.295894	-0.365330	0.201911
C40	C	1.155516	-0.736161	0.330496
C41	C	1.155529	-0.798078	0.330502
C42	C	1.295954	-0.804948	0.201881
C43	C	1.295944	-0.743029	0.201882
C44	C	1.225720	-0.708636	0.266188
C45	C	1.295880	-0.235301	0.201934
C46	C	1.295873	-0.173379	0.201952
C47	C	1.155446	-0.166515	0.330568
C48	C	1.155456	-0.228431	0.330555
C49	C	1.225678	-0.262823	0.266230
O50	O	1.095817	-0.323467	0.385213
O51	O	1.355589	-0.336225	0.147212
C52	C	1.415268	0.014874	0.277526
C53	C	1.530404	0.015605	0.291112
C54	C	1.232436	0.004010	0.075009
C55	C	1.229887	-0.002251	-0.041763
N56	N	1.225740	0.167522	0.266189
C57	C	1.225107	0.093236	-0.261202
C58	C	1.222711	0.087356	-0.370919
C59	C	1.222691	-0.019892	-0.370916
C60	C	1.225087	-0.014011	-0.261199
C61	C	1.226296	0.042554	-0.206346
C62	C	1.228700	0.048434	-0.096627
C63	C	1.228673	-0.058813	-0.096626
C64	C	1.226277	-0.064693	-0.206343
C65	C	1.218954	0.024528	0.457448
C66	C	1.221504	0.030794	0.574220
H67	H	0.932609	0.003690	0.068856
C68	C	1.221338	-0.082109	-0.431273
N69	N	1.220314	-0.128972	-0.476735
C70	C	1.224942	-0.126912	-0.266694
N71	N	1.223939	-0.173777	-0.312149
C72	C	1.078306	-0.698331	0.401296
N73	N	1.020166	-0.669839	0.454638
H74	H	0.518795	0.024851	0.463605
H75	H	0.562111	0.006433	0.120992
C76	C	1.373179	-0.712762	0.131135
N77	N	1.431353	-0.689968	0.077843
H78	H	1.226100	0.139294	-0.216540
H79	H	1.229688	0.094493	-0.051967
C80	C	1.221427	0.143110	-0.431258
N81	N	1.220468	0.185106	-0.476705
H82	H	1.229645	-0.100081	-0.051950
C83	C	1.078294	-0.828344	0.401249
N84	N	1.020112	-0.851139	0.454533
C85	C	0.724284	0.000901	0.016902
N86	N	0.689360	-0.003575	-0.066617
H87	H	1.028081	-0.532210	0.447171
H88	H	0.889259	0.022061	0.411474
C89	C	1.373115	-0.143110	0.131206
N90	N	1.431290	-0.120313	0.077918
C91	C	1.373130	-0.273123	0.131176
N92	N	1.431319	-0.301611	0.077886
H93	H	1.423290	-0.439239	0.085236
C94	C	1.443361	-0.561384	0.066833
N95	N	1.501545	-0.589870	0.013534
C96	C	0.727094	0.027643	0.515560
N97	N	0.762010	0.032124	0.599083
C98	C	1.008010	-0.410059	0.465561
N99	N	0.949836	-0.381566	0.518861
C100	C	1.373183	-0.842794	0.131132
N101	N	1.431348	-0.871302	0.077846
H102	H	1.098290	-0.250839	0.382929
H103	H	1.098281	-0.138501	0.382931
