data_functionalizedCrystal
_audit_creation_method	'MofGen! by Chris Wilmer'
_symmetry_space_group_name_H-M	'P1'
_symmetry_Int_Tables_number	1
_symmetry_cell_setting	triclinic
loop_
_symmetry_equiv_pos_as_xyz
  x,y,z
_cell_length_a	15.995350
_cell_length_b	11.792254
_cell_length_c	10.868271
_cell_angle_alpha	90.004308
_cell_angle_beta	89.999184
_cell_angle_gamma	83.845486
loop_
_atom_site_label
_atom_site_type_symbol
_atom_site_fract_x
_atom_site_fract_y
_atom_site_fract_z
O1	O	0.114809	1.505943	0.102315
O2	O	0.614809	2.005943	0.602315
O3	O	0.126626	1.175505	0.102317
O4	O	0.626626	1.675505	0.602317
O5	O	-0.001129	1.349757	0.102314
O6	O	0.498871	1.849757	0.602314
O7	O	0.242564	1.331691	0.102317
O8	O	0.742564	1.831691	0.602317
O9	O	-0.001125	1.349741	-0.102330
O10	O	0.498875	1.849741	0.397670
O11	O	0.126630	1.175489	-0.102328
O12	O	0.626630	1.675489	0.397672
O13	O	0.114813	1.505927	-0.102330
O14	O	0.614813	2.005927	0.397670
Zn15	Zn	0.120722	1.340706	-0.134821
Zn16	Zn	0.620722	1.840706	0.365179
Zn17	Zn	0.120717	1.340727	0.134807
Zn18	Zn	0.620717	1.840727	0.634807
O19	O	0.242568	1.331676	-0.102328
O20	O	0.742568	1.831676	0.397672
C21	C	0.125883	1.133213	-0.000005
C22	C	0.625883	1.633213	0.499995
C23	C	0.123655	1.007218	-0.000004
C24	C	0.623655	1.507218	0.499996
C25	C	-0.032325	1.349002	-0.000006
C26	C	0.467675	1.849002	0.499994
C27	C	-0.125286	1.346763	0.000001
C28	C	0.374714	1.846763	0.500001
C29	C	0.121845	0.904897	0.000001
C30	C	0.621845	1.404897	0.500001
C31	C	0.119581	0.776529	0.000002
C32	C	0.619581	1.276529	0.500002
C33	C	-0.463070	1.338722	-0.000003
C34	C	0.036930	1.838722	0.499997
C35	C	-0.416203	1.214623	0.000457
C36	C	0.083797	1.714623	0.500457
C37	C	-0.319503	1.216863	-0.000004
C38	C	0.180497	1.716863	0.499996
C39	C	-0.295491	1.342710	0.000000
C40	C	0.204509	1.842710	0.500000
C41	C	-0.336286	1.403911	-0.116860
C42	C	0.163714	1.903911	0.383140
C43	C	-0.432936	1.400794	-0.116958
C44	C	0.067064	1.900794	0.383042
C45	C	-0.433287	1.403375	0.115761
C46	C	0.066713	1.903375	0.615761
C47	C	-0.336342	1.403346	0.117306
C48	C	0.163658	1.903346	0.617306
C49	C	-0.200783	1.344971	-0.000002
C50	C	0.299217	1.844971	0.499998
C51	C	-0.557778	1.336465	-0.000008
C52	C	-0.057778	1.836465	0.499992
C53	C	0.273764	1.332430	-0.000005
C54	C	0.773764	1.832430	0.499995
C55	C	0.366725	1.334669	-0.000004
C56	C	0.866725	1.834669	0.499996
C57	C	0.115556	1.548220	-0.000005
C58	C	0.615556	2.048220	0.499995
C59	C	0.117784	1.674214	0.000002
C60	C	0.617784	2.174214	0.500002
N61	N	0.120725	1.340700	-0.318835
N62	N	0.620725	1.840700	0.181165
C63	C	0.120726	1.340709	-0.430172
C64	C	0.620726	1.840709	0.069828
C65	C	0.120718	1.340724	-0.569850
C66	C	0.620718	1.840724	-0.069850
N67	N	0.120707	1.340741	0.318822
N68	N	0.620707	1.840741	0.818822
H69	H	-0.291303	1.168754	0.083766
H70	H	0.208697	1.668754	0.583766
H71	H	-0.291858	1.168418	-0.083917
H72	H	0.208142	1.668418	0.416083
C73	C	-0.298212	1.346463	-0.234350
C74	C	0.201788	1.846463	0.265650
N75	N	-0.269536	1.303186	-0.322841
N76	N	0.230464	1.803186	0.177159
C77	C	-0.441556	1.147613	0.113662
C78	C	0.058444	1.647613	0.613662
N79	N	-0.460660	1.097138	0.198929
N80	N	0.039340	1.597138	0.698929
H81	H	-0.436022	1.165236	-0.082878
H82	H	0.063978	1.665236	0.417122
C83	C	-0.316616	1.528809	-0.122748
C84	C	0.183384	2.028809	0.377252
N85	N	-0.301792	1.622880	-0.127185
N86	N	0.198208	2.122880	0.372815
H87	H	-0.451440	1.356153	-0.204316
H88	H	0.048560	1.856153	0.295684
H89	H	-0.454015	1.362808	0.204334
H90	H	0.045985	1.862808	0.704334
C91	C	-0.299761	1.342954	0.234101
C92	C	0.200239	1.842954	0.734101
N93	N	-0.272211	1.297455	0.322069
N94	N	0.227789	1.797455	0.822069
C95	C	-0.475941	1.523878	-0.124136
C96	C	0.024059	2.023878	0.375864
N97	N	-0.508329	1.616583	-0.129551
N98	N	-0.008329	2.116583	0.370449
C99	C	-0.315029	1.527334	0.126839
C100	C	0.184971	2.027334	0.626839
N101	N	-0.298980	1.620729	0.134008
N102	N	0.201020	2.120729	0.634008
C103	C	-0.475635	1.526981	0.116832
C104	C	0.024365	2.026981	0.616832
N105	N	-0.507536	1.620077	0.117631
N106	N	-0.007536	2.120077	0.617631
