data_functionalizedCrystal
_audit_creation_method	'MofGen! by Chris Wilmer'
_symmetry_space_group_name_H-M	'P1'
_symmetry_Int_Tables_number	1
_symmetry_cell_setting	triclinic
loop_
_symmetry_equiv_pos_as_xyz
  x,y,z
_cell_length_a	19.288867
_cell_length_b	19.288865
_cell_length_c	17.766277
_cell_angle_alpha	90.012963
_cell_angle_beta	90.002427
_cell_angle_gamma	96.863342
loop_
_atom_site_label
_atom_site_type_symbol
_atom_site_fract_x
_atom_site_fract_y
_atom_site_fract_z
O1	O	0.921341	-0.086658	-0.062576
O2	O	1.421341	0.413342	0.437424
O3	O	0.719081	-0.098345	-0.062585
O4	O	1.219081	0.401655	0.437415
O5	O	0.826056	0.008629	-0.062566
O6	O	1.326056	0.508629	0.437434
O7	O	0.814367	-0.193632	-0.062596
O8	O	1.314367	0.306368	0.437404
O9	O	0.826058	0.008639	0.062623
O10	O	1.326058	0.508639	0.562623
O11	O	0.719084	-0.098335	0.062604
O12	O	1.219084	0.401665	0.562604
O13	O	0.921344	-0.086647	0.062612
O14	O	1.421344	0.413353	0.562612
Cu15	Cu	0.820214	-0.092490	0.074039
Cu16	Cu	1.320214	0.407510	0.574039
Cu17	Cu	0.820211	-0.092503	-0.074011
Cu18	Cu	1.320211	0.407497	0.425989
O19	O	0.814369	-0.193621	0.062593
O20	O	1.314369	0.306379	0.562593
C21	C	0.693206	-0.097964	0.000009
C22	C	1.193206	0.402036	0.500009
C23	C	0.616102	-0.096834	0.000006
C24	C	1.116102	0.403166	0.500006
C25	C	0.060536	-0.088704	-0.068224
C26	C	0.560536	0.411296	0.431776
C27	C	0.132983	-0.089761	-0.068227
C28	C	0.632983	0.410239	0.431773
C29	C	0.169213	-0.090287	0.000013
C30	C	0.669213	0.409713	0.500013
C31	C	0.132992	-0.089738	0.068261
C32	C	0.632992	0.410262	0.568261
C33	C	0.060547	-0.088674	0.068262
C34	C	0.560547	0.411326	0.568262
C35	C	0.278542	-0.132650	0.052287
C36	C	0.778542	0.367350	0.552287
C37	C	0.350985	-0.133718	0.052283
C38	C	0.850985	0.366282	0.552283
C39	C	0.392659	-0.093566	0.000012
C40	C	0.892659	0.406434	0.500012
C41	C	0.361879	-0.052354	-0.052267
C42	C	0.861879	0.447646	0.447733
C43	C	0.289434	-0.051290	-0.052266
C44	C	0.789434	0.448710	0.447734
C45	C	0.247768	-0.091440	0.000019
C46	C	0.747768	0.408560	0.500019
C47	C	0.507428	-0.095256	-0.068235
C48	C	1.007428	0.404744	0.431765
C49	C	0.579877	-0.096309	-0.068235
C50	C	1.079877	0.403691	0.431765
C51	C	0.579884	-0.096293	0.068255
C52	C	1.079884	0.403707	0.568255
C53	C	0.507437	-0.095233	0.068253
C54	C	1.007437	0.404767	0.568253
C55	C	0.471213	-0.094718	0.000006
C56	C	0.971213	0.405282	0.500006
C57	C	0.825681	0.034510	0.000031
C58	C	1.325681	0.534510	0.500031
C59	C	0.824552	0.111614	0.000038
C60	C	1.324552	0.611614	0.500038
C61	C	0.947219	-0.087029	0.000017
C62	C	1.447219	0.412971	0.500017
C63	C	1.024323	-0.088159	0.000015
C64	C	1.524323	0.411841	0.500015
N65	N	0.820209	-0.092506	-0.178142
N66	N	1.320209	0.407494	0.321858
C67	C	0.814744	-0.219503	-0.000005
C68	C	1.314744	0.280497	0.499995
C69	C	0.815873	-0.296607	-0.000017
C70	C	1.315873	0.203393	0.499983
C71	C	0.887320	0.156310	0.000044
C72	C	1.387320	0.656310	0.500044
C73	C	0.886259	0.228757	0.000032
C74	C	1.386259	0.728757	0.500032
C75	C	0.822427	0.256505	0.000029
C76	C	1.322427	0.756505	0.500029
C77	C	0.759651	0.211799	0.000018
C78	C	1.259651	0.711799	0.500018
C79	C	0.760713	0.139354	0.000023
C80	C	1.260713	0.639354	0.500023
C81	C	0.772248	0.364796	0.043877
C82	C	1.272248	0.864796	0.543877
C83	C	0.771188	0.437241	0.043878
C84	C	1.271188	0.937241	0.543878
C85	C	0.819147	0.479951	0.000012
C86	C	1.319147	0.979951	0.500012
C87	C	0.868178	0.450208	-0.043845
C88	C	1.368178	0.950208	0.456155
C89	C	0.869240	0.377763	-0.043840
C90	C	1.369240	0.877763	0.456160
C91	C	0.821268	0.335059	0.000024
C92	C	1.321268	0.835059	0.500024
C93	C	0.880769	0.603202	0.000004
C94	C	1.380769	1.103202	0.500004
C95	C	0.879706	0.675650	-0.000013
C96	C	1.379706	1.175650	0.499987
C97	C	0.753096	0.658691	-0.000019
C98	C	1.253096	1.158691	0.499981
C99	C	0.754161	0.586245	-0.000010
C100	C	1.254161	1.086245	0.499990
C101	C	0.818000	0.558505	0.000005
C102	C	1.318000	1.058505	0.500005
C103	C	0.867662	-0.045231	-0.217520
C104	C	1.367662	0.454769	0.282480
C105	C	0.867668	-0.045229	-0.296322
C106	C	1.367668	0.454771	0.203678
C107	C	0.820209	-0.092497	-0.335742
C108	C	1.320209	0.407503	0.164258
C109	C	0.772753	-0.139782	-0.296354
C110	C	1.272753	0.360218	0.203646
C111	C	0.772753	-0.139787	-0.217554
C112	C	1.272753	0.360213	0.282446
C113	C	0.756922	-0.101642	-0.460591
C114	C	1.256922	0.398358	0.039409
C115	C	0.756921	-0.101633	-0.539390
C116	C	1.256921	0.398367	-0.039390
C117	C	0.820210	-0.092488	-0.578789
C118	C	1.320210	0.407512	-0.078789
C119	C	0.883502	-0.083337	-0.539379
C120	C	1.383502	0.416663	-0.039379
C121	C	0.883502	-0.083341	-0.460579
C122	C	1.383502	0.416659	0.039421
C123	C	0.820204	-0.092498	-0.421188
C124	C	1.320204	0.407502	0.078812
C125	C	0.867673	-0.045208	-0.703613
C126	C	1.367673	0.454792	-0.203613
C127	C	0.867679	-0.045211	-0.782416
C128	C	1.367679	0.454789	-0.282416
C129	C	0.772759	-0.139761	-0.782447
C130	C	1.272759	0.360239	-0.282447
C131	C	0.772758	-0.139760	-0.703645
C132	C	1.272758	0.360240	-0.203645
C133	C	0.820214	-0.092480	-0.664233
C134	C	1.320214	0.407520	-0.164233
N135	N	0.820221	-0.092481	0.178169
N136	N	1.320221	0.407519	0.678169
H137	H	0.395809	-0.019660	-0.094833
H138	H	0.895809	0.480340	0.405167
H139	H	0.477951	-0.094792	0.123821
H140	H	0.977951	0.405208	0.623821
H141	H	0.376037	-0.167293	0.094837
H142	H	0.876037	0.332707	0.594837
H143	H	0.906325	-0.006716	-0.814479
H144	H	1.406325	0.493284	-0.314479
H145	H	0.734120	-0.178250	-0.814543
H146	H	1.234120	0.321750	-0.314543
N147	N	0.686461	0.538031	-0.000012
N148	N	1.186461	1.038031	0.499988
H149	H	0.645861	0.566600	-0.000015
H150	H	1.145861	1.066600	0.499985
H151	H	0.684146	0.507616	0.046399
H152	H	1.184146	1.007616	0.546399
H153	H	0.244616	-0.165344	0.094861
H154	H	0.744616	0.334656	0.594861
N155	N	0.718311	0.469310	0.091187
N156	N	1.218311	0.969310	0.591187
H157	H	0.669626	0.450154	0.074807
H158	H	1.169626	0.950154	0.574807
H159	H	0.724976	0.521681	0.084519
H160	H	1.224976	1.021681	0.584519
H161	H	0.734115	-0.178254	-0.671581
H162	H	1.234115	0.321746	-0.171581
H163	H	0.705381	-0.109093	-0.428519
H164	H	1.205381	0.390907	0.071481
H165	H	0.733193	0.330027	0.079602
H166	H	1.233193	0.830027	0.579602
H167	H	0.707678	0.234396	0.000014
H168	H	1.207678	0.734396	0.500014
N169	N	0.688656	-0.111496	-0.581884
N170	N	1.188656	0.388504	-0.081884
H171	H	0.662076	-0.158099	-0.568188
H172	H	1.162076	0.341901	-0.068188
H173	H	0.698310	-0.110066	-0.637769
H174	H	1.198310	0.389934	-0.137769
H175	H	0.932750	0.580616	0.000013
H176	H	1.432750	1.080616	0.500013
N177	N	0.693011	0.091141	0.000015
N178	N	1.193011	0.591141	0.500015
H179	H	0.652411	0.119709	0.000009
H180	H	1.152411	0.619709	0.500009
H181	H	0.690695	0.060727	0.046428
H182	H	1.190695	0.560727	0.546428
H183	H	0.734113	-0.178270	-0.328454
H184	H	1.234113	0.321730	0.171546
N185	N	0.918867	0.005739	-0.175011
N186	N	1.418867	0.505739	0.324989
H187	H	0.948936	0.035681	-0.211920
H188	H	1.448936	0.535681	0.288080
H189	H	0.949422	-0.020864	-0.142339
H190	H	1.449422	0.479136	0.357661
H191	H	0.477933	-0.094835	-0.123805
H192	H	0.977933	0.405165	0.376195
H193	H	0.907230	0.484981	-0.079565
H194	H	1.407230	0.984981	0.420435
H195	H	0.906311	-0.006731	-0.328390
H196	H	1.406311	0.493269	0.171610
H197	H	0.930821	0.712042	-0.000012
H198	H	1.430821	1.212042	0.499988
N199	N	0.721566	-0.190774	-0.175076
N200	N	1.221566	0.309226	0.324924
H201	H	0.691500	-0.220720	-0.212003
H202	H	1.191500	0.279280	0.287997
H203	H	0.691004	-0.164191	-0.142380
H204	H	1.191004	0.335809	0.357620
H205	H	0.701123	0.681283	-0.000025
H206	H	1.201123	1.181283	0.499975
H207	H	0.162495	-0.090165	0.123822
H208	H	0.662495	0.409835	0.623822
H209	H	0.935036	-0.075893	-0.428495
H210	H	1.435036	0.424107	0.071505
H211	H	0.935038	-0.075895	-0.571456
H212	H	1.435038	0.424105	-0.071456
N213	N	0.021467	-0.088139	-0.141830
N214	N	0.521467	0.411861	0.358170
H215	H	0.055406	-0.088642	-0.185060
H216	H	0.555406	0.411358	0.314940
H217	H	-0.002821	-0.044645	-0.144795
H218	H	0.497179	0.455355	0.355205
H219	H	0.906316	-0.006711	-0.671522
H220	H	1.406316	0.493289	-0.171522
N221	N	0.021484	-0.088085	0.141866
N222	N	0.521484	0.411915	0.641866
H223	H	0.055490	-0.088096	0.185095
H224	H	0.555490	0.411904	0.685095
H225	H	-0.014013	-0.130937	0.145060
H226	H	0.485987	0.369063	0.645060
H227	H	0.264377	-0.017732	-0.094833
H228	H	0.764377	0.482268	0.405167
N229	N	0.172053	-0.090348	-0.141830
N230	N	0.672053	0.409652	0.358170
H231	H	0.138113	-0.089859	-0.185063
H232	H	0.638113	0.410141	0.314937
H233	H	0.196343	-0.133841	-0.144801
H234	H	0.696343	0.366159	0.355199
H235	H	0.937374	0.265155	0.000034
H236	H	1.437374	0.765155	0.500034
N237	N	0.618941	-0.096886	-0.141839
N238	N	1.118941	0.403114	0.358161
H239	H	0.584997	-0.096398	-0.185069
H240	H	1.084997	0.403602	0.314931
H241	H	0.643237	-0.140374	-0.144817
H242	H	1.143237	0.359626	0.355183
H243	H	0.609382	-0.096719	0.123818
H244	H	1.109382	0.403281	0.623818
N245	N	0.956175	0.126399	0.000055
N246	N	1.456175	0.626399	0.500055
H247	H	0.983663	0.142705	-0.046352
H248	H	1.483663	0.642705	0.453648
H249	H	0.947274	0.073726	0.000085
H250	H	1.447274	0.573726	0.500085
N251	N	0.922116	0.345682	-0.091139
N252	N	1.422116	0.845682	0.408861
H253	H	0.952340	0.383726	-0.118931
H254	H	1.452340	0.883726	0.381069
H255	H	0.896995	0.312190	-0.128600
H256	H	1.396995	0.812190	0.371400
