data_functionalizedCrystal
_audit_creation_method	'MofGen! by Chris Wilmer'
_symmetry_space_group_name_H-M	'P1'
_symmetry_Int_Tables_number	1
_symmetry_cell_setting	triclinic
loop_
_symmetry_equiv_pos_as_xyz
  x,y,z
_cell_length_a	19.188930
_cell_length_b	15.538191
_cell_length_c	17.666332
_cell_angle_alpha	90.007318
_cell_angle_beta	89.990387
_cell_angle_gamma	114.791562
loop_
_atom_site_label
_atom_site_type_symbol
_atom_site_fract_x
_atom_site_fract_y
_atom_site_fract_z
O1	O	-0.227003	-1.250849	-0.062934
O2	O	-0.146301	-0.976258	-0.062942
O3	O	-0.290298	-1.121478	-0.062923
O4	O	-0.083006	-1.105630	-0.062953
O5	O	-0.290296	-1.121461	0.062974
O6	O	-0.146299	-0.976241	0.062955
O7	O	-0.227001	-1.250833	0.062962
Cu8	Cu	-0.186650	-1.113535	0.074454
Cu9	Cu	-0.186652	-1.113555	-0.074434
O10	O	-0.083004	-1.105613	0.062944
C11	C	-0.316179	-1.120956	0.000027
C12	C	-0.393297	-1.119416	0.000034
C13	C	-0.137857	-0.941119	0.000006
C14	C	-0.112706	-0.836442	0.000003
C15	C	-0.235446	-1.285971	0.000013
C16	C	-0.260596	-1.390649	0.000010
C17	C	-0.459623	-1.204626	0.000040
C18	C	-0.532083	-1.203178	0.000028
C19	C	-0.538213	-1.116516	0.000025
C20	C	-0.471874	-1.031295	0.000014
C21	C	-0.399416	-1.032744	0.000019
N22	N	-0.629579	-1.050267	0.042868
N23	N	-0.698413	-1.048896	0.042865
C24	C	-0.756523	-1.112143	0.000009
N25	N	-0.743203	-1.176827	-0.042834
N26	N	-0.674364	-1.178201	-0.042828
C27	C	-0.616778	-1.114934	0.000019
C28	C	-0.901421	-1.195789	0.000001
C29	C	-0.973881	-1.194338	-0.000016
C30	C	-0.913670	-1.022452	-0.000021
C31	C	-0.841212	-1.023905	-0.000012
C32	C	-0.835093	-1.110577	0.000003
C33	C	-0.057123	-1.106134	-0.000009
C34	C	0.019994	-1.107675	-0.000020
N35	N	-0.186651	-1.113528	0.179173
C36	C	-0.362571	-0.549681	0.000028
C37	C	-0.338920	-0.451318	0.000024
C38	C	-0.205892	-0.428327	0.000005
C39	C	-0.229531	-0.526690	0.000012
C40	C	-0.307872	-0.587360	0.000023
C41	C	-0.174832	-0.564369	0.000008
C42	C	-0.198470	-0.662724	0.000011
C43	C	-0.276807	-0.723399	0.000020
C44	C	-0.331509	-0.685715	0.000027
C45	C	-0.096492	-0.503697	-0.000008
C46	C	-0.041793	-0.541376	-0.000013
C47	C	-0.065430	-0.639733	-0.000004
C48	C	-0.143767	-0.700408	0.000004
C49	C	-0.010728	-0.677417	-0.000011
C50	C	-0.034366	-0.775772	-0.000007
C51	C	-0.167405	-0.798763	0.000008
C52	C	-0.250406	-1.177871	0.781232
C53	C	-0.250405	-1.177873	0.701984
C54	C	-0.186657	-1.113553	0.662355
C55	C	-0.122898	-1.049243	0.701980
C56	C	-0.122897	-1.049250	0.781226
N57	N	-0.156641	-1.030071	0.537939
N58	N	-0.156646	-1.030068	0.462659
C59	C	-0.186653	-1.113532	0.423591
N60	N	-0.216669	-1.197002	0.462647
N61	N	-0.216668	-1.197004	0.537935
C62	C	-0.186650	-1.113540	0.576426
C63	C	-0.250405	-1.177844	0.298046
C64	C	-0.250400	-1.177847	0.218797
C65	C	-0.122894	-1.049210	0.218794
C66	C	-0.122898	-1.049215	0.298042
C67	C	-0.186657	-1.113531	0.337663
N68	N	-0.186657	-1.113566	0.820847
H69	H	-0.454647	-1.275200	0.000049
H70	H	-1.027887	-1.263730	-0.000015
H71	H	-0.231198	-0.848165	0.000021
H72	H	-0.302321	-1.230218	0.330307
C73	C	-0.920405	-0.927125	-0.000027
H74	H	-0.973058	-0.938464	-0.000026
H75	H	-0.896152	-0.892057	-0.043930
H76	H	-0.896170	-0.892046	0.043881
H77	H	-0.787206	-0.954518	-0.000013
H78	H	-0.586095	-1.272569	0.000029
H79	H	-0.426363	-0.599082	0.000041
C80	C	-0.478615	-0.935969	0.000014
H81	H	-0.531268	-0.947308	0.000020
H82	H	-0.454366	-0.900900	-0.043890
H83	H	-0.454377	-0.900891	0.043922
H84	H	-0.345410	-0.963354	0.000014
C85	C	-0.052769	-0.978460	0.175215
H86	H	-0.014799	-0.940164	0.210162
H87	H	-0.067977	-0.939310	0.144308
H88	H	-0.032256	-1.012266	0.144295
H89	H	-0.070989	-0.996848	0.330299
H90	H	-0.296051	-0.803486	0.000013
C91	C	-0.417683	-0.752457	0.000035
H92	H	-0.446878	-0.715933	0.000033
H93	H	-0.429671	-0.791303	0.043936
H94	H	-0.429662	-0.791303	-0.043875
H95	H	-0.383469	-0.420645	0.000026
H96	H	-0.896438	-1.266362	0.000009
C97	C	-0.119724	-0.361586	-0.000002
H98	H	-0.113479	-0.297613	0.000001
H99	H	-0.096261	-0.372988	-0.043904
H100	H	-0.096272	-0.372976	0.043907
H101	H	-0.077249	-0.423611	-0.000014
H102	H	0.021992	-0.491966	-0.000025
C103	C	0.075441	-0.610679	-0.000033
H104	H	0.104633	-0.647206	-0.000041
H105	H	0.087434	-0.571816	0.043863
H106	H	0.087419	-0.571850	-0.043948
C107	C	0.025801	-0.817223	-0.000012
H108	H	0.075842	-0.767004	-0.000013
H109	H	0.019343	-0.855120	-0.043915
H110	H	0.019343	-0.855107	0.043897
C111	C	-0.320532	-1.248628	0.824811
H112	H	-0.358496	-1.286933	0.789863
H113	H	-0.341047	-1.214838	0.855740
H114	H	-0.305314	-1.287782	0.855709
C115	C	-0.320535	-1.248605	0.658398
H116	H	-0.358508	-1.286905	0.693345
H117	H	-0.305330	-1.287753	0.627470
H118	H	-0.341041	-1.214786	0.627499
C119	C	-0.052777	-0.978493	0.658391
H120	H	-0.061910	-0.987693	0.605520
H121	H	-0.008721	-0.988542	0.671365
H122	H	-0.044447	-0.915591	0.671389
H123	H	-0.070984	-0.996884	0.813481
C124	C	-0.320528	-1.248586	0.175220
H125	H	-0.358501	-1.286882	0.210170
H126	H	-0.305323	-1.287737	0.144297
H127	H	-0.341036	-1.214773	0.144316
