data_functionalizedCrystal
_audit_creation_method	'MofGen! by Chris Wilmer'
_symmetry_space_group_name_H-M	'P1'
_symmetry_Int_Tables_number	1
_symmetry_cell_setting	triclinic
loop_
_symmetry_equiv_pos_as_xyz
  x,y,z
_cell_length_a	12.837943
_cell_length_b	10.654551
_cell_length_c	11.295483
_cell_angle_alpha	94.137679
_cell_angle_beta	85.461227
_cell_angle_gamma	89.657151
loop_
_atom_site_label
_atom_site_type_symbol
_atom_site_fract_x
_atom_site_fract_y
_atom_site_fract_z
O1	O	1.384729	0.319125	-0.098989
O2	O	1.082808	0.302984	-0.098997
O3	O	1.240710	0.129073	-0.098993
O4	O	1.226827	0.493036	-0.098993
O5	O	1.226841	0.144322	0.099057
O6	O	1.068939	0.318233	0.099054
O7	O	1.370860	0.334374	0.099061
Cu8	Cu	1.218633	0.327696	0.117141
Cu9	Cu	1.235035	0.309662	-0.117077
O10	O	1.212958	0.508285	0.099058
C11	C	1.037214	0.305156	0.000027
C12	C	0.922020	0.288893	0.000024
C13	C	0.682466	0.484399	0.000041
C14	C	0.574231	0.469124	0.000039
C15	C	0.597311	0.243072	0.000026
C16	C	0.705546	0.258346	0.000028
C17	C	0.748120	0.379013	0.000034
C18	C	0.856358	0.394286	0.000028
C19	C	0.879435	0.168235	0.000023
C20	C	0.771200	0.152961	0.000021
C21	C	1.232756	0.089788	0.000029
C22	C	1.229706	-0.049989	0.000021
C23	C	1.235835	-0.123969	-0.107934
C24	C	1.232960	-0.255303	-0.107929
C25	C	1.217830	-0.238664	0.107997
C26	C	1.220698	-0.107332	0.107990
C27	C	1.244843	-0.066625	-0.215903
C28	C	1.250973	-0.140606	-0.323867
C29	C	1.248098	-0.271940	-0.323862
C30	C	1.239092	-0.329293	-0.215893
C31	C	1.416454	0.332202	0.000035
C32	C	1.531649	0.348464	0.000030
C33	C	1.220912	0.547570	0.000033
C34	C	1.223963	0.687346	0.000033
N35	N	1.207105	0.340380	0.281877
N36	N	1.246572	0.296969	-0.281813
C37	C	1.329560	0.205593	0.531169
C38	C	1.320855	0.215188	0.655833
C39	C	1.180986	0.369158	0.655870
C40	C	1.189691	0.359563	0.531206
C41	C	1.263981	0.277779	0.468860
C42	C	1.272690	0.268191	0.344195
C43	C	1.132817	0.422154	0.344234
C44	C	1.124112	0.431749	0.468897
H45	H	0.932903	0.082422	0.000009
C46	C	0.764676	-0.052244	-0.101809
C47	C	0.724398	0.020327	0.000008
H48	H	0.735788	-0.134129	-0.101813
H49	H	0.747025	-0.013615	-0.170854
H50	H	0.838534	-0.058219	-0.101797
H51	H	0.650540	0.026310	-0.000008
H52	H	0.742042	-0.018312	0.069071
H53	H	1.258296	-0.093900	-0.411772
C54	C	1.263346	-0.275189	-0.537293
C55	C	1.254833	-0.353261	-0.442531
H56	H	1.267513	-0.325394	-0.610556
H57	H	1.203760	-0.221270	-0.532811
H58	H	1.324550	-0.225968	-0.532788
H59	H	1.193624	-0.402476	-0.447032
H60	H	1.314424	-0.407202	-0.447016
H61	H	1.333184	0.201602	0.293434
C62	C	1.141804	-0.509401	-0.157084
C63	C	1.235914	-0.473656	-0.215869
H64	H	1.139841	-0.598523	-0.157073
H65	H	1.136882	-0.473536	-0.077352
H66	H	1.084863	-0.480401	-0.196977
H67	H	1.292855	-0.502648	-0.175971
H68	H	1.240845	-0.509535	-0.295615
H69	H	1.390057	0.139010	0.480406
C70	C	1.155806	0.129503	-0.157142
C71	C	1.247998	0.077738	-0.215910
H72	H	1.157760	0.218626	-0.157139
H73	H	1.097570	0.099076	-0.197027
H74	H	1.149575	0.105929	-0.077394
H75	H	1.254225	0.101305	-0.295661
H76	H	1.306250	0.108177	-0.176026
H77	H	1.210499	-0.285371	0.195900
C78	C	1.205429	-0.104066	0.321424
C79	C	1.213940	-0.026003	0.226655
H80	H	1.201251	-0.053853	0.394683
H81	H	1.144243	-0.153298	0.316916
H82	H	1.265032	-0.157975	0.316954
H83	H	1.154332	0.027900	0.231120
H84	H	1.275132	0.023251	0.231166
C85	C	1.377534	0.007879	0.694188
C86	C	1.392942	0.135840	0.724324
H87	H	1.422043	-0.041108	0.736468
H88	H	1.306775	-0.012515	0.714641
H89	H	1.393351	-0.009522	0.611018
H90	H	1.377117	0.153244	0.807493
H91	H	1.463717	0.156242	0.703880
H92	H	1.120493	0.435735	0.706648
H93	H	1.063623	0.498333	0.519674
C94	C	0.993688	0.575320	0.356798
C95	C	1.060726	0.501511	0.275743
H96	H	0.949192	0.624318	0.314512
H97	H	0.952595	0.522252	0.405420
H98	H	1.033815	0.629463	0.405419
H99	H	1.020599	0.447361	0.227127
H100	H	1.101823	0.554585	0.227100
C101	C	0.877127	0.583839	-0.101763
C102	C	0.903155	0.526922	0.000037
H103	H	0.906009	0.665728	-0.101749
H104	H	0.904448	0.534597	-0.170819
H105	H	0.803267	0.589810	-0.101749
H106	H	0.977015	0.520942	0.000019
H107	H	0.875838	0.576176	0.069111
C108	C	0.562295	0.694098	0.000040
C109	C	0.502064	0.584966	0.000038
H110	H	0.517741	0.765615	0.000032
H111	H	0.600151	0.700669	0.069102
H112	H	0.609832	0.690029	-0.069027
H113	H	0.454532	0.589032	0.069110
H114	H	0.464191	0.578394	-0.069032
C115	C	0.441632	0.119301	0.000039
C116	C	0.550499	0.110444	0.000031
H117	H	0.412736	0.037420	0.000037
H118	H	0.414334	0.168552	0.069100
H119	H	0.423997	0.157921	-0.069030
H120	H	0.568135	0.071831	0.069104
H121	H	0.577807	0.061174	-0.069037
H122	H	0.717131	0.582650	0.000045
