data_functionalizedCrystal
_audit_creation_method	'MofGen! by Chris Wilmer'
_symmetry_space_group_name_H-M	'P1'
_symmetry_Int_Tables_number	1
_symmetry_cell_setting	triclinic
loop_
_symmetry_equiv_pos_as_xyz
  x,y,z
_cell_length_a	23.532407
_cell_length_b	19.288864
_cell_length_c	22.010155
_cell_angle_alpha	90.028244
_cell_angle_beta	90.002880
_cell_angle_gamma	82.992461
loop_
_atom_site_label
_atom_site_type_symbol
_atom_site_fract_x
_atom_site_fract_y
_atom_site_fract_z
O1	O	0.071038	0.921140	0.050726
O2	O	0.571038	1.421140	0.550726
O3	O	0.080622	0.718850	0.050685
O4	O	0.580622	1.218850	0.550685
O5	O	-0.007089	0.826095	0.050696
O6	O	0.492911	1.326095	0.550696
O7	O	0.158749	0.813895	0.050716
O8	O	0.658749	1.313895	0.550716
O9	O	-0.007079	0.826064	-0.050355
O10	O	0.492921	1.326064	0.449645
O11	O	0.080632	0.718819	-0.050365
O12	O	0.580632	1.218819	0.449635
O13	O	0.071048	0.921109	-0.050324
O14	O	0.571048	1.421109	0.449676
Cu15	Cu	0.075841	0.819961	-0.059571
Cu16	Cu	0.575841	1.319961	0.440429
Cu17	Cu	0.075829	0.819998	0.059932
Cu18	Cu	0.575829	1.319998	0.559932
O19	O	0.158759	0.813864	-0.050335
O20	O	0.658759	1.313864	0.449665
C21	C	0.080319	0.692959	0.000155
C22	C	0.580319	1.192959	0.500155
C23	C	0.079393	0.615858	0.000139
C24	C	0.579393	1.115858	0.500139
C25	C	0.130858	0.571003	0.000154
C26	C	0.630858	1.071003	0.500154
C27	C	0.129988	0.498559	0.000161
C28	C	0.629988	0.998559	0.500161
C29	C	0.077651	0.470973	0.000164
C30	C	0.577651	0.970973	0.500164
C31	C	0.026179	0.515838	0.000145
C32	C	0.526179	1.015838	0.500145
C33	C	0.027050	0.588280	0.000132
C34	C	0.527050	1.088280	0.500132
C35	C	0.036504	0.362848	0.035582
C36	C	0.536504	0.862848	0.535582
C37	C	0.035635	0.290407	0.035599
C38	C	0.535635	0.790407	0.535599
C39	C	0.074961	0.247535	0.000201
C40	C	0.574961	0.747535	0.500201
C41	C	0.115167	0.277113	-0.035206
C42	C	0.615167	0.777113	0.464794
C43	C	0.116038	0.349556	-0.035219
C44	C	0.616038	0.849556	0.464781
C45	C	0.076700	0.392422	0.000178
C46	C	0.576700	0.892422	0.500178
C47	C	0.125487	0.124127	0.000223
C48	C	0.625487	0.624127	0.500223
C49	C	0.124615	0.051682	0.000226
C50	C	0.624615	0.551682	0.500226
C51	C	0.020805	0.068962	0.000216
C52	C	0.520805	0.568962	0.500216
C53	C	0.021678	0.141406	0.000207
C54	C	0.521678	0.641406	0.500207
C55	C	0.074021	0.168984	0.000213
C56	C	0.574021	0.668984	0.500213
C57	C	-0.028301	0.825769	0.000169
C58	C	0.471699	1.325769	0.500169
C59	C	-0.091520	0.824835	0.000164
C60	C	0.408480	1.324835	0.500164
C61	C	-0.490503	0.882442	0.000209
C62	C	0.009497	1.382442	0.500209
C63	C	-0.549905	0.881574	0.000213
C64	C	-0.049905	1.381574	0.500213
O65	O	-0.586539	0.934976	0.000247
O66	O	-0.086539	1.434976	0.500247
N67	N	-0.572664	0.817817	0.000200
N68	N	-0.072664	1.317817	0.500200
C69	C	-0.536017	0.754923	0.000189
C70	C	-0.036017	1.254923	0.500189
O71	O	-0.560829	0.700613	0.000178
O72	O	-0.060829	1.200613	0.500178
C73	C	-0.476616	0.755792	0.000189
C74	C	0.023384	1.255792	0.500189
C75	C	-0.453861	0.819553	0.000196
C76	C	0.046139	1.319553	0.500196
C77	C	-0.467748	0.946198	0.000217
C78	C	0.032252	1.446198	0.500217
C79	C	-0.408350	0.947065	0.000211
C80	C	0.091650	1.447065	0.500211
C81	C	-0.371707	0.884177	0.000198
C82	C	0.128293	1.384177	0.500198
C83	C	-0.394463	0.820420	0.000190
C84	C	0.105537	1.320420	0.500190
C85	C	-0.439970	0.692899	0.000181
C86	C	0.060030	1.192899	0.500181
C87	C	-0.380565	0.693773	0.000182
C88	C	0.119435	1.193773	0.500182
C89	C	-0.357810	0.757534	0.000189
C90	C	0.142190	1.257534	0.500189
C91	C	-0.298422	0.758399	0.000171
C92	C	0.201578	1.258399	0.500171
N93	N	-0.275664	0.822156	0.000184
N94	N	0.224336	1.322156	0.500184
C95	C	-0.312307	0.885045	0.000198
C96	C	0.187693	1.385045	0.500198
C97	C	-0.660763	0.753104	0.000190
C98	C	-0.160763	1.253104	0.500190
C99	C	-0.720163	0.752235	0.000186
C100	C	-0.220163	1.252235	0.500186
C101	C	-0.734047	0.878886	0.000212
C102	C	-0.234047	1.378886	0.500212
C103	C	-0.674647	0.879755	0.000212
C104	C	-0.174647	1.379755	0.500212
C105	C	-0.638005	0.816861	0.000203
C106	C	-0.138005	1.316861	0.500203
C107	C	-0.187566	0.886862	0.000186
C108	C	0.312434	1.386862	0.500186
C109	C	-0.128162	0.887724	0.000178
C110	C	0.371838	1.387724	0.500178
C111	C	-0.114283	0.761073	0.000155
C112	C	0.385717	1.261073	0.500155
C113	C	-0.173681	0.760211	0.000160
C114	C	0.326319	1.260211	0.500160
C115	C	-0.210322	0.823111	0.000177
C116	C	0.289678	1.323111	0.500177
O117	O	-0.261754	0.705025	0.000141
O118	O	0.238246	1.205025	0.500141
O119	O	-0.287486	0.939346	0.000216
O120	O	0.212514	1.439346	0.500216
C121	C	0.179971	0.814190	0.000193
C122	C	0.679971	1.314190	0.500193
C123	C	0.243190	0.815124	0.000202
C124	C	0.743190	1.315124	0.500202
C125	C	0.071351	0.947000	0.000208
C126	C	0.571351	1.447000	0.500208
C127	C	0.072277	1.024101	0.000228
C128	C	0.572277	1.524101	0.500228
N129	N	0.075849	0.819940	-0.143624
N130	N	0.575849	1.319940	0.356376
C131	C	0.041371	0.778096	-0.436242
C132	C	0.541371	1.278096	0.063758
C133	C	0.041373	0.778090	-0.372634
C134	C	0.541373	1.278090	0.127366
O135	O	0.012060	0.742486	-0.339748
O136	O	0.512060	1.242486	0.160252
N137	N	0.075831	0.819968	-0.340808
N138	N	0.575831	1.319968	0.159192
C139	C	0.110285	0.861860	-0.372592
C140	C	0.610285	1.361860	0.127408
O141	O	0.139594	0.897480	-0.339681
O142	O	0.639594	1.397480	0.160319
C143	C	0.110279	0.861869	-0.436199
C144	C	0.610279	1.361869	0.063801
C145	C	0.075823	0.819983	-0.468022
C146	C	0.575823	1.319983	0.031978
C147	C	0.006917	0.736214	-0.468065
C148	C	0.506917	1.236214	0.031935
C149	C	0.006916	0.736219	-0.531669
C150	C	0.506916	1.236219	-0.031669
C151	C	0.041368	0.778107	-0.563449
C152	C	0.541368	1.278107	-0.063449
C153	C	0.075821	0.819989	-0.531625
C154	C	0.575821	1.319989	-0.031625
C155	C	0.144729	0.903765	-0.467982
C156	C	0.644729	1.403765	0.032018
C157	C	0.144719	0.903771	-0.531593
C158	C	0.644719	1.403771	-0.031593
C159	C	0.110263	0.861885	-0.563416
C160	C	0.610263	1.361885	-0.063416
C161	C	0.110271	0.861881	-0.627008
C162	C	0.610271	1.361881	-0.127008
N163	N	0.075813	0.820003	-0.658835
N164	N	0.575813	1.320003	-0.158835
C165	C	0.041362	0.778116	-0.627055
C166	C	0.541362	1.278116	-0.127055
C167	C	0.110294	0.861838	-0.239015
C168	C	0.610294	1.361838	0.260985
C169	C	0.110304	0.861825	-0.175409
C170	C	0.610304	1.361825	0.324591
C171	C	0.041391	0.778056	-0.175456
C172	C	0.541391	1.278056	0.324544
C173	C	0.041385	0.778065	-0.239062
C174	C	0.541385	1.278065	0.260938
C175	C	0.075836	0.819960	-0.270841
C176	C	0.575836	1.319960	0.229159
C177	C	0.041361	0.778130	-0.760626
C178	C	0.541361	1.278130	-0.260626
C179	C	0.041364	0.778137	-0.824235
C180	C	0.541364	1.278137	-0.324235
C181	C	0.110274	0.861909	-0.824183
C182	C	0.610274	1.361909	-0.324183
C183	C	0.110273	0.861899	-0.760580
C184	C	0.610273	1.361899	-0.260580
C185	C	0.075812	0.820008	-0.728803
C186	C	0.575812	1.320008	-0.228803
O187	O	0.139568	0.897469	-0.659935
O188	O	0.639568	1.397469	-0.159935
O189	O	0.012052	0.742509	-0.659974
O190	O	0.512052	1.242509	-0.159974
N191	N	0.075816	0.820024	0.143985
N192	N	0.575816	1.320024	0.643985
H193	H	-0.016435	0.493372	0.000156
H194	H	0.483565	0.993372	0.500156
N195	N	0.159392	0.381465	-0.073408
N196	N	0.659392	0.881465	0.426592
H197	H	0.199312	0.362203	-0.060189
H198	H	0.699312	0.862203	0.439811
H199	H	0.153888	0.369700	-0.117569
H200	H	0.653888	0.869700	0.382431
N201	N	-0.198229	0.691443	0.000150
N202	N	0.301771	1.191443	0.500150
H203	H	-0.222571	0.688245	-0.037306
H204	H	0.277429	1.188245	0.462694
H205	H	-0.165970	0.651776	0.000161
H206	H	0.334030	1.151776	0.500161
N207	N	-0.007730	0.258510	0.073782
N208	N	0.492270	0.758510	0.573782
H209	H	-0.002313	0.206113	0.068423
H210	H	0.497687	0.706113	0.568423
H211	H	-0.002262	0.270325	0.117940
H212	H	0.497738	0.770325	0.617940
H213	H	-0.458486	0.640978	0.000179
H214	H	0.041514	1.140978	0.500179
N215	N	0.147459	0.907014	-0.273296
N216	N	0.647459	1.407014	0.226704
H217	H	0.122590	0.941188	-0.299667
H218	H	0.622590	1.441188	0.200333
H219	H	0.169284	0.933496	-0.243446
H220	H	0.669284	1.433496	0.256554
N221	N	-0.744702	0.683465	0.000161
N222	N	-0.244702	1.183465	0.500161
H223	H	-0.712471	0.643760	0.000150
H224	H	-0.212471	1.143760	0.500150
H225	H	-0.769043	0.680349	0.037622
H226	H	-0.269043	1.180349	0.537622
H227	H	0.004478	0.397749	0.064411
H228	H	0.504478	0.897749	0.564411
H229	H	-0.021144	0.702114	-0.557573
H230	H	0.478856	1.202114	-0.057573
H231	H	0.013306	0.744025	-0.850143
H232	H	0.513306	1.244025	-0.350143
H233	H	-0.497577	0.997413	0.000230
H234	H	0.002423	1.497413	0.500230
H235	H	-0.020231	0.177928	0.000197
H236	H	0.479769	0.677928	0.500197
N237	N	-0.341046	0.625935	0.000156
N238	N	0.158954	1.125935	0.500156
H239	H	-0.299962	0.636154	0.000151
H240	H	0.200038	1.136154	0.500151
H241	H	-0.348391	0.598136	0.037609
H242	H	0.151609	1.098136	0.537609
H243	H	-0.084438	0.709871	0.000142
H244	H	0.415562	1.209871	0.500142
N245	N	-0.028460	0.636665	0.000113
N246	N	0.471540	1.136665	0.500113
H247	H	-0.061750	0.608200	0.000113
H248	H	0.438250	1.108200	0.500113
H249	H	-0.030365	0.667128	0.037568
H250	H	0.469635	1.167128	0.537568
N251	N	0.004193	0.732950	-0.726358
N252	N	0.504193	1.232950	-0.226358
H253	H	-0.017630	0.706421	-0.756177
H254	H	0.482370	1.206421	-0.256177
H255	H	0.029095	0.698818	-0.699985
H256	H	0.529095	1.198818	-0.199985
H257	H	-0.630931	0.701886	0.000178
H258	H	-0.130931	1.201886	0.500178
H259	H	-0.217393	0.938081	0.000202
H260	H	0.282607	1.438081	0.500202
N261	N	0.147471	0.907001	-0.141094
N262	N	0.647471	1.407001	0.358906
H263	H	0.122606	0.941169	-0.114688
H264	H	0.622606	1.441169	0.385312
H265	H	0.175409	0.876520	-0.114753
H266	H	0.675409	1.376520	0.385247
H267	H	-0.021141	0.702104	-0.442197
H268	H	0.478859	1.202104	0.057803
N269	N	-0.103620	0.956497	0.000182
N270	N	0.396380	1.456497	0.500182
H271	H	-0.135850	0.996203	0.000193
H272	H	0.364150	1.496203	0.500193
H273	H	-0.079273	0.959630	0.037640
H274	H	0.420727	1.459630	0.537640
H275	H	-0.021810	0.046503	0.000256
H276	H	0.478190	0.546503	0.500256
N277	N	0.187308	0.600755	0.000151
N278	N	0.687308	1.100755	0.500151
H279	H	0.189978	0.630458	0.037604
H280	H	0.689978	1.130458	0.537604
H281	H	0.219749	0.561308	0.000137
H282	H	0.719749	1.061308	0.500137
H283	H	0.013339	0.743949	-0.149569
H284	H	0.513339	1.243949	0.350431
H285	H	0.013328	0.743958	-0.264969
H286	H	0.513328	1.243958	0.235031
H287	H	-0.389829	0.998986	0.000220
H288	H	0.110171	1.498986	0.500220
N289	N	-0.650106	0.948524	0.000219
N290	N	-0.150106	1.448524	0.500219
H291	H	-0.682337	0.988229	0.000225
H292	H	-0.182337	1.488229	0.500225
H293	H	-0.625763	0.951660	0.037680
H294	H	-0.125763	1.451660	0.537680
N295	N	0.147428	0.907086	-0.858471
N296	N	0.647428	1.407086	-0.358471
H297	H	0.136086	0.957697	-0.847378
H298	H	0.636086	1.457697	-0.347378
H299	H	0.188884	0.893042	-0.847401
H300	H	0.688884	1.393042	-0.347401
N301	N	-0.773575	0.946719	0.000226
N302	N	-0.273575	1.446719	0.500226
H303	H	-0.814657	0.936488	0.000227
H304	H	-0.314657	1.436488	0.500227
H305	H	-0.766225	0.974535	0.037692
H306	H	-0.266225	1.474535	0.537692
H307	H	0.138338	0.895996	-0.734668
H308	H	0.638338	1.395996	-0.234668
N309	N	0.185498	0.450167	0.000179
N310	N	0.685498	0.950167	0.500179
H311	H	0.218788	0.478631	0.000181
H312	H	0.718788	0.978631	0.500181
H313	H	0.187387	0.419768	0.037647
H314	H	0.687387	0.919768	0.537647
H315	H	0.172785	0.937874	-0.442083
H316	H	0.672785	1.437874	0.057917
N317	N	0.181876	0.948967	-0.565861
N318	N	0.681876	1.448967	-0.065861
H319	H	0.223342	0.934980	-0.554797
H320	H	0.723342	1.434980	-0.054797
H321	H	0.176602	0.942606	-0.610975
H322	H	0.676602	1.442606	-0.110975
N323	N	0.157590	0.230891	-0.073392
N324	N	0.657590	0.730891	0.426608
H325	H	0.181686	0.196782	-0.046270
H326	H	0.681686	0.696782	0.453730
H327	H	0.136277	0.204342	-0.103663
H328	H	0.636277	0.704342	0.396337
N329	N	0.181940	0.153875	0.000226
N330	N	0.681940	0.653875	0.500226
H331	H	0.204483	0.137464	-0.037231
H332	H	0.704483	0.637464	0.462769
H333	H	0.174637	0.206569	0.000243
H334	H	0.674637	0.706569	0.500243
H335	H	0.166526	0.015161	0.000235
H336	H	0.666526	0.515161	0.500235
