data_functionalizedCrystal
_audit_creation_method	'MofGen! by Chris Wilmer'
_symmetry_space_group_name_H-M	'P1'
_symmetry_Int_Tables_number	1
_symmetry_cell_setting	triclinic
loop_
_symmetry_equiv_pos_as_xyz
  x,y,z
_cell_length_a	11.169417
_cell_length_b	14.908178
_cell_length_c	11.169409
_cell_angle_alpha	86.665446
_cell_angle_beta	89.980487
_cell_angle_gamma	93.315343
loop_
_atom_site_label
_atom_site_type_symbol
_atom_site_fract_x
_atom_site_fract_y
_atom_site_fract_z
Zn1	Zn	1.807332	-0.359087	-0.650915
Zn2	Zn	1.795609	-0.509994	-0.438625
Zn3	Zn	1.606613	-0.359143	-0.450246
Zn4	Zn	1.595019	-0.509921	-0.639277
O5	O	1.701143	-0.434536	-0.544766
O6	O	1.973726	-0.379112	-0.622761
O7	O	1.770485	-0.490037	-0.272213
O8	O	1.642997	-0.232880	-0.486599
O9	O	1.965114	-0.489982	-0.466793
O10	O	1.790464	-0.232839	-0.634029
O11	O	1.631631	-0.379208	-0.280750
O12	O	1.437126	-0.379137	-0.475314
O13	O	1.623236	-0.489859	-0.808775
O14	O	1.428608	-0.489913	-0.614194
O15	O	1.779222	-0.379042	-0.817325
O16	O	1.759243	-0.636240	-0.455508
O17	O	1.611870	-0.636187	-0.602926
C18	C	1.389320	-0.434524	-0.544753
C19	C	1.255918	-0.434541	-0.544774
C20	C	1.683059	-0.668950	-0.526719
C21	C	1.675432	-0.769233	-0.519039
C22	C	1.814541	-0.957483	-0.658292
C23	C	1.807379	-1.051708	-0.651080
C24	C	1.653940	-1.051909	-0.497410
C25	C	1.661102	-0.957684	-0.504622
C26	C	1.741406	-0.910474	-0.585064
C27	C	1.748574	-0.816248	-0.592270
C28	C	1.595130	-0.816451	-0.438607
C29	C	1.587968	-0.910676	-0.431395
C30	C	2.014185	-0.434549	-0.544779
C31	C	2.147584	-0.434555	-0.544785
C32	C	1.701243	-0.434436	-0.857816
C33	C	1.701286	-0.434393	-0.991219
C34	C	1.719332	-0.199207	-0.562909
C35	C	1.727082	-0.098924	-0.570640
C36	C	1.701118	-0.434571	-0.232938
C37	C	1.701327	-0.434360	-0.099555
H38	H	1.813965	-0.777810	-0.657766
C39	C	1.886579	-1.102796	-0.730726
C40	C	1.814463	-1.156871	-0.803467
C41	C	1.887380	-1.203938	-0.876868
H42	H	1.936123	-1.139621	-0.682185
H43	H	1.935405	-1.061212	-0.779735
H44	H	1.765658	-1.198450	-0.754464
H45	H	1.764920	-1.120069	-0.852033
H46	H	1.936207	-1.162354	-0.925877
H47	H	1.936922	-1.240758	-0.828318
H48	H	1.838461	-1.240627	-0.926239
C49	C	1.500668	-0.961774	-0.344026
C50	C	1.438134	-0.900435	-0.281459
C51	C	1.357693	-0.947471	-0.200973
H52	H	1.543681	-0.998539	-0.288858
H53	H	1.445486	-0.998517	-0.387049
H54	H	1.493307	-0.863708	-0.238438
H55	H	1.395096	-0.863669	-0.336595
H56	H	1.302512	-0.984214	-0.243995
H57	H	1.400717	-0.984234	-0.145813
H58	H	1.315246	-0.905860	-0.158519
H59	H	1.588555	-1.090364	-0.431923
H60	H	1.879936	-0.919044	-0.723783
H61	H	1.535583	-0.778166	-0.378976
