data_functionalizedCrystal
_audit_creation_method	'MofGen! by Chris Wilmer'
_symmetry_space_group_name_H-M	'P1'
_symmetry_Int_Tables_number	1
_symmetry_cell_setting	triclinic
loop_
_symmetry_equiv_pos_as_xyz
  x,y,z
_cell_length_a	19.805407
_cell_length_b	21.295417
_cell_length_c	19.805399
_cell_angle_alpha	89.969157
_cell_angle_beta	89.980427
_cell_angle_gamma	90.030507
loop_
_atom_site_label
_atom_site_type_symbol
_atom_site_fract_x
_atom_site_fract_y
_atom_site_fract_z
Zn1	Zn	1.034716	-0.250624	-0.382704
Zn2	Zn	1.534716	0.249376	0.117296
Zn3	Zn	1.034623	-0.355893	-0.269510
Zn4	Zn	1.534623	0.144107	0.230490
Zn5	Zn	0.921531	-0.250641	-0.269529
Zn6	Zn	1.421531	0.249359	0.230471
Zn7	Zn	0.921486	-0.355859	-0.382656
Zn8	Zn	1.421486	0.144141	0.117344
O9	O	0.978089	-0.303254	-0.326100
O10	O	1.478089	0.196746	0.173900
O11	O	1.129421	-0.264595	-0.367701
O12	O	1.629421	0.235405	0.132299
O13	O	1.019601	-0.341952	-0.174796
O14	O	1.519601	0.158048	0.325204
O15	O	0.936603	-0.162549	-0.284570
O16	O	1.436603	0.337451	0.215430
O17	O	1.129352	-0.341935	-0.284537
O18	O	1.629352	0.158065	0.215463
O19	O	1.019760	-0.162537	-0.367719
O20	O	1.519760	0.337463	0.132281
O21	O	0.936513	-0.264624	-0.174810
O22	O	1.436513	0.235376	0.325190
O23	O	0.826809	-0.264592	-0.284523
O24	O	1.326809	0.235408	0.215477
O25	O	0.936527	-0.341878	-0.477379
O26	O	1.436527	0.158122	0.022621
O27	O	0.826776	-0.341895	-0.367638
O28	O	1.326776	0.158105	0.132362
O29	O	1.019717	-0.264562	-0.477415
O30	O	1.519717	0.235438	0.022585
O31	O	1.019558	-0.443977	-0.284491
O32	O	1.519558	0.056023	0.215509
O33	O	0.936437	-0.443953	-0.367619
O34	O	1.436437	0.056047	0.132381
C35	C	0.802233	-0.303242	-0.326078
C36	C	1.302233	0.196758	0.173922
C37	C	0.727001	-0.303252	-0.326085
C38	C	1.227001	0.196748	0.173915
C39	C	0.978001	-0.466806	-0.326062
C40	C	1.478001	0.033194	0.173938
C41	C	0.978024	-0.536774	-0.326069
C42	C	1.478024	-0.036774	0.173931
C43	C	0.691658	-0.343564	-0.369292
C44	C	1.191658	0.156436	0.130708
C45	C	0.620969	-0.343566	-0.369302
C46	C	1.120969	0.156434	0.130698
C47	C	0.585626	-0.303257	-0.326100
C48	C	1.085626	0.196743	0.173900
C49	C	0.620974	-0.262940	-0.282890
C50	C	1.120974	0.237060	0.217110
C51	C	0.691661	-0.262936	-0.282885
C52	C	1.191661	0.237064	0.217115
C53	C	0.335901	-0.262954	-0.282913
C54	C	0.835901	0.237046	0.217087
C55	C	0.265209	-0.262962	-0.282920
C56	C	0.765209	0.237038	0.217080
C57	C	0.265209	-0.343583	-0.369330
C58	C	0.765209	0.156417	0.130670
C59	C	0.335896	-0.343579	-0.369324
C60	C	0.835896	0.156421	0.130676
C61	C	0.371238	-0.303261	-0.326117
C62	C	0.871238	0.196739	0.173883
C63	C	0.447887	-0.303259	-0.326109
C64	C	0.947887	0.196741	0.173891
C65	C	0.508979	-0.303261	-0.326105
C66	C	1.008979	0.196739	0.173895
C67	C	1.021344	-0.569632	-0.282828
C68	C	1.521344	-0.069632	0.217172
C69	C	1.021376	-0.635375	-0.282844
C70	C	1.521376	-0.135375	0.217156
C71	C	0.978076	-0.668256	-0.326092
C72	C	1.478076	-0.168256	0.173908
C73	C	0.934753	-0.635390	-0.369341
C74	C	1.434753	-0.135390	0.130659
C75	C	0.934728	-0.569649	-0.369330
C76	C	1.434728	-0.069649	0.130670
N77	N	0.918865	-0.771522	-0.331245
N78	N	1.418865	-0.271522	0.168755
N79	N	0.918892	-0.833974	-0.331252
N80	N	1.418892	-0.333974	0.168748
C81	C	0.978152	-0.866331	-0.326131
C82	C	1.478152	-0.366331	0.173869
N83	N	1.037386	-0.833878	-0.320989
N84	N	1.537386	-0.333878	0.179011
N85	N	1.037358	-0.771421	-0.320979
N86	N	1.537358	-0.271421	0.179021
C87	C	0.978099	-0.739542	-0.326110
C88	C	1.478099	-0.239542	0.173890
C89	C	1.021509	-0.970475	-0.282905
C90	C	1.521509	-0.470475	0.217095
C91	C	1.021542	-1.036219	-0.282925
C92	C	1.521542	-0.536219	0.217075
C93	C	0.934914	-1.036233	-0.369419
C94	C	1.434914	-0.536233	0.130581
C95	C	0.934887	-0.970490	-0.369402
C96	C	1.434887	-0.470490	0.130598
C97	C	0.978184	-0.937615	-0.326142
C98	C	1.478184	-0.437615	0.173858
C99	C	1.154632	-0.303267	-0.326122
C100	C	1.654632	0.196733	0.173878
C101	C	1.229864	-0.303272	-0.326132
C102	C	1.729864	0.196728	0.173868
C103	C	0.978127	-0.303214	-0.502643
C104	C	1.478127	0.196786	-0.002643
C105	C	0.978143	-0.303198	-0.577875
C106	C	1.478143	0.196802	-0.077875
C107	C	0.978197	-0.139064	-0.326152
C108	C	1.478197	0.360936	0.173848
C109	C	0.978243	-0.069096	-0.326175
C110	C	1.478243	0.430904	0.173825
C111	C	1.021461	-0.262937	-0.613238
C112	C	1.521461	0.237063	-0.113238
C113	C	1.021468	-0.262919	-0.683927
C114	C	1.521468	0.237081	-0.183927
C115	C	0.978160	-0.303165	-0.719250
C116	C	1.478160	0.196835	-0.219250
C117	C	0.934838	-0.343427	-0.683882
C118	C	1.434838	0.156573	-0.183882
C119	C	0.934828	-0.343442	-0.613195
C120	C	1.434828	0.156558	-0.113195
C121	C	0.934876	-0.343368	-0.968955
C122	C	1.434876	0.156632	-0.468955
C123	C	0.934891	-0.343352	-1.039647
C124	C	1.434891	0.156648	-0.539647
C125	C	1.021516	-0.262846	-1.039687
C126	C	1.521516	0.237154	-0.539687
C127	C	1.021506	-0.262860	-0.969000
C128	C	1.521506	0.237140	-0.469000
C129	C	0.978182	-0.303120	-0.933638
C130	C	1.478182	0.196880	-0.433638
C131	C	0.978174	-0.303138	-0.856989
C132	C	1.478174	0.196862	-0.356989
C133	C	0.978171	-0.303150	-0.795897
C134	C	1.478171	0.196850	-0.295897
C135	C	0.978090	-0.303248	-0.150244
C136	C	1.478090	0.196752	0.349756
C137	C	0.978205	-0.303088	-0.075012
C138	C	1.478205	0.196912	0.424988
H139	H	0.720429	-0.376391	-0.404470
H140	H	1.220429	0.123609	0.095530
N141	N	0.727768	-0.221749	-0.238760
N142	N	1.227768	0.278251	0.261240
N143	N	0.719904	-0.163670	-0.243373
N144	N	1.219904	0.336330	0.256627
H145	H	0.745405	-0.134577	-0.212213
H146	H	1.245405	0.365423	0.287787
N147	N	1.065743	-0.221757	-0.932907
N148	N	1.565743	0.278243	-0.432907
N149	N	1.108851	-0.243916	-0.893461
N150	N	1.608851	0.256084	-0.393461
H151	H	1.140092	-0.214886	-0.867970
H152	H	1.640092	0.285114	-0.367970
N153	N	0.584878	-0.384744	-0.413446
N154	N	1.084878	0.115256	0.086554
N155	N	0.616442	-0.420732	-0.452014
N156	N	1.116442	0.079268	0.047986
H157	H	0.590953	-0.449815	-0.483195
H158	H	1.090953	0.050185	0.016805
N159	N	0.890483	-0.536082	-0.413509
N160	N	1.390483	-0.036082	0.086491
N161	N	0.894942	-0.543377	-0.475971
N162	N	1.394942	-0.043377	0.024029
H163	H	0.863694	-0.519670	-0.507174
H164	H	1.363694	-0.019670	-0.007174
H165	H	1.056730	-0.230166	-0.584483
H166	H	1.556730	0.269834	-0.084483
H167	H	0.899661	-1.063004	-0.404636
H168	H	1.399661	-0.563004	0.095364
N169	N	0.229096	-0.384766	-0.413461
N170	N	0.729096	0.115234	0.086539
N171	N	0.165983	-0.384767	-0.413463
N172	N	0.665983	0.115233	0.086537
H173	H	0.140479	-0.413853	-0.444628
H174	H	0.640479	0.086147	0.055372
H175	H	1.056767	-0.943707	-0.247681
H176	H	1.556767	-0.443707	0.252319
N177	N	1.065564	-0.536062	-0.238627
N178	N	1.565564	-0.036062	0.261373
N179	N	1.061103	-0.543460	-0.176171
N180	N	1.561103	-0.043460	0.323829
H181	H	1.092334	-0.519753	-0.144950
H182	H	1.592334	-0.019753	0.355050
N183	N	1.065627	-0.668939	-0.238663
N184	N	1.565627	-0.168939	0.261337
N185	N	1.104278	-0.639579	-0.200041
N186	N	1.604278	-0.139579	0.299959
H187	H	1.135529	-0.663281	-0.168835
H188	H	1.635529	-0.163281	0.331165
N189	N	0.229094	-0.221780	-0.238802
N190	N	0.729094	0.278220	0.261198
N191	N	0.165981	-0.221792	-0.238817
N192	N	0.665981	0.278208	0.261183
H193	H	0.140474	-0.192709	-0.207661
H194	H	0.640474	0.307291	0.292339
N195	N	1.065807	-1.069776	-0.238757
N196	N	1.565807	-0.569776	0.261243
N197	N	1.104462	-1.040412	-0.200140
N198	N	1.604462	-0.540412	0.299860
H199	H	1.135726	-1.064111	-0.168947
H200	H	1.635726	-0.564111	0.331053
N201	N	1.065727	-0.221805	-0.720051
N202	N	1.565727	0.278195	-0.220051
N203	N	1.108846	-0.243952	-0.759497
N204	N	1.608846	0.256048	-0.259497
H205	H	1.140107	-0.214915	-0.785011
H206	H	1.640107	0.285085	-0.285011
N207	N	0.371986	-0.221771	-0.238772
N208	N	0.871986	0.278229	0.261228
N209	N	0.340418	-0.185789	-0.200199
N210	N	0.840418	0.314211	0.299801
H211	H	0.365905	-0.156703	-0.169020
H212	H	0.865905	0.343297	0.330980
H213	H	0.899608	-0.376159	-0.940172
H214	H	1.399608	0.123841	-0.440172
H215	H	0.364669	-0.376405	-0.404501
H216	H	0.864669	0.123595	0.095499
H217	H	0.899547	-0.376219	-0.584402
H218	H	1.399547	0.123781	-0.084402
N219	N	0.890532	-0.668984	-0.413519
N220	N	1.390532	-0.168984	0.086481
N221	N	0.890559	-0.727681	-0.413523
N222	N	1.390559	-0.227681	0.086477
H223	H	0.859329	-0.751407	-0.444727
H224	H	1.359329	-0.251407	0.055273
H225	H	0.899609	-0.943735	-0.404610
H226	H	1.399609	-0.443735	0.095390
N227	N	1.065769	-0.221724	-1.075821
N228	N	1.565769	0.278276	-0.575821
N229	N	1.065774	-0.221713	-1.138934
N230	N	1.565774	0.278287	-0.638934
H231	H	1.097028	-0.192673	-1.164453
H232	H	1.597028	0.307327	-0.664453
N233	N	0.890635	-0.384457	-1.075722
N234	N	1.390635	0.115543	-0.575722
N235	N	0.828181	-0.380268	-1.067819
N236	N	1.328181	0.119732	-0.567819
H237	H	0.796925	-0.409295	-1.093297
H238	H	1.296925	0.090705	-0.593297
N239	N	0.584863	-0.221765	-0.238769
N240	N	1.084863	0.278235	0.261231
N241	N	0.521751	-0.221773	-0.238779
N242	N	1.021751	0.278227	0.261221
H243	H	0.496247	-0.192693	-0.207617
H244	H	0.996247	0.307307	0.292383
N245	N	0.890598	-0.384528	-0.719972
N246	N	1.390598	0.115472	-0.219972
N247	N	0.890612	-0.384511	-0.783085
N248	N	1.390612	0.115489	-0.283085
H249	H	0.859367	-0.413540	-0.808574
H250	H	1.359367	0.086460	-0.308574
