data_functionalizedCrystal
_audit_creation_method	'MofGen! by Chris Wilmer'
_symmetry_space_group_name_H-M	'P1'
_symmetry_Int_Tables_number	1
_symmetry_cell_setting	triclinic
loop_
_symmetry_equiv_pos_as_xyz
  x,y,z
_cell_length_a	18.215407
_cell_length_b	12.759400
_cell_length_c	18.215399
_cell_angle_alpha	90.024546
_cell_angle_beta	90.019833
_cell_angle_gamma	90.015132
loop_
_atom_site_label
_atom_site_type_symbol
_atom_site_fract_x
_atom_site_fract_y
_atom_site_fract_z
Zn1	Zn	1.125124	-0.418265	0.416133
Zn2	Zn	1.458457	-0.084931	0.749467
Zn3	Zn	1.791791	0.248402	1.082800
Zn4	Zn	1.125054	-0.593962	0.293074
Zn5	Zn	1.458388	-0.260629	0.626408
Zn6	Zn	1.791721	0.072705	0.959741
Zn7	Zn	1.002057	-0.418299	0.293081
Zn8	Zn	1.335390	-0.084966	0.626414
Zn9	Zn	1.668723	0.248368	0.959747
Zn10	Zn	1.002044	-0.593903	0.416099
Zn11	Zn	1.335378	-0.260570	0.749433
Zn12	Zn	1.668711	0.072763	1.082766
O13	O	1.063570	-0.506107	0.354597
O14	O	1.396903	-0.172774	0.687930
O15	O	1.730237	0.160560	1.021264
O16	O	1.228099	-0.441581	0.399821
O17	O	1.561432	-0.108248	0.733154
O18	O	1.894766	0.225085	1.066488
O19	O	1.108714	-0.570699	0.190091
O20	O	1.442048	-0.237365	0.523424
O21	O	1.775381	0.095968	0.856758
O22	O	1.018416	-0.271273	0.309421
O23	O	1.351749	0.062060	0.642754
O24	O	1.685083	0.395393	0.976087
O25	O	1.228048	-0.570665	0.309410
O26	O	1.561381	-0.237332	0.642743
O27	O	1.894715	0.096001	0.976077
O28	O	1.108833	-0.271248	0.399827
O29	O	1.442167	0.062085	0.733160
O30	O	1.775500	0.395419	1.066494
O31	O	1.018349	-0.441640	0.190096
O32	O	1.351682	-0.108306	0.523429
O33	O	1.685015	0.225027	0.856762
O34	O	0.899071	-0.441583	0.309388
O35	O	1.232404	-0.108250	0.642721
O36	O	1.565737	0.225084	0.976054
O37	O	1.018395	-0.570566	0.519088
O38	O	1.351729	-0.237232	0.852421
O39	O	1.685062	0.096101	1.185755
O40	O	0.899062	-0.570599	0.399769
O41	O	1.232395	-0.237266	0.733102
O42	O	1.565729	0.096068	1.066436
O43	O	1.108821	-0.441525	0.519113
O44	O	1.442155	-0.108191	0.852446
O45	O	1.775488	0.225142	1.185780
O46	O	1.108703	-0.740975	0.309377
O47	O	1.442036	-0.407642	0.642710
O48	O	1.775369	-0.074308	0.976044
O49	O	1.018328	-0.740932	0.399763
O50	O	1.351661	-0.407599	0.733096
O51	O	1.684994	-0.074265	1.066429
C52	C	0.872364	-0.506089	0.354576
C53	C	1.205697	-0.172756	0.687909
C54	C	1.539030	0.160577	1.021242
C55	C	0.790565	-0.506107	0.354584
C56	C	1.123898	-0.172773	0.687918
C57	C	1.457231	0.160560	1.021251
C58	C	0.602385	-0.573391	0.401587
C59	C	0.935719	-0.240058	0.734920
C60	C	1.269052	0.093276	1.068253
C61	C	0.525527	-0.573394	0.401596
C62	C	0.858860	-0.240061	0.734929
C63	C	1.192193	0.093272	1.068262
C64	C	0.525506	-0.438842	0.307623
C65	C	0.858840	-0.105509	0.640957
C66	C	1.192173	0.227824	0.974290
C67	C	0.602364	-0.438835	0.307618
C68	C	0.935697	-0.105501	0.640952
C69	C	1.269030	0.227832	0.974285
C70	C	0.640801	-0.506115	0.354599
C71	C	0.974135	-0.172782	0.687932
C72	C	1.307468	0.160552	1.021266
C73	C	0.487085	-0.506126	0.354613
C74	C	0.820419	-0.172793	0.687946
C75	C	1.153752	0.160541	1.021280
C76	C	0.403752	-0.506129	0.354623
C77	C	0.737085	-0.172796	0.687956
C78	C	1.070418	0.160538	1.021289
C79	C	0.724140	-0.506111	0.354590
C80	C	1.057474	-0.172777	0.687924
C81	C	1.390807	0.160556	1.021257
C82	C	1.063526	-0.779075	0.354582
C83	C	1.396860	-0.445741	0.687915
C84	C	1.730193	-0.112408	1.021248
C85	C	1.063575	-0.895851	0.354600
C86	C	1.396908	-0.562518	0.687933
C87	C	1.730242	-0.229184	1.021266
C88	C	1.110685	-0.950701	0.307588
C89	C	1.444019	-0.617367	0.640921
C90	C	1.777352	-0.284034	0.974254
C91	C	1.110731	-1.060425	0.307610
C92	C	1.444064	-0.727091	0.640944
C93	C	1.777397	-0.393758	0.974277
C94	C	1.016549	-1.060440	0.401659
C95	C	1.349882	-0.727107	0.734992
C96	C	1.683215	-0.393773	1.068326
C97	C	1.016508	-0.950718	0.401639
C98	C	1.349841	-0.617385	0.734973
C99	C	1.683174	-0.284051	1.068306
C100	C	1.157753	-0.895834	0.260548
C101	C	1.491086	-0.562500	0.593881
C102	C	1.824419	-0.229167	0.927215
C103	C	1.204866	-0.950683	0.213532
C104	C	1.538200	-0.617350	0.546865
C105	C	1.871533	-0.284017	0.880198
C106	C	1.204911	-1.060407	0.213554
C107	C	1.538245	-0.727074	0.546888
C108	C	1.871578	-0.393741	0.880221
C109	C	1.157843	-1.115282	0.260593
C110	C	1.491176	-0.781949	0.593927
C111	C	1.824510	-0.448615	0.927260
C112	C	1.255523	-0.506126	0.354618
C113	C	1.588856	-0.172793	0.687952
C114	C	1.922189	0.160541	1.021285
C115	C	1.337322	-0.506134	0.354628
C116	C	1.670655	-0.172801	0.687961
C117	C	2.003988	0.160533	1.021294
C118	C	1.063615	-0.506035	0.546550
C119	C	1.396948	-0.172701	0.879883
C120	C	1.730281	0.160632	1.213217
C121	C	1.063634	-0.506004	0.628349
C122	C	1.396967	-0.172671	0.961682
C123	C	1.730301	0.160663	1.295015
C124	C	1.063634	-0.232074	0.354628
C125	C	1.396967	0.101259	0.687962
C126	C	1.730300	0.434593	1.021295
C127	C	1.063661	-0.115297	0.354642
C128	C	1.396994	0.218036	0.687975
C129	C	1.730328	0.551369	1.021308
C130	C	1.063568	-0.506103	0.163391
C131	C	1.396901	-0.172770	0.496724
C132	C	1.730234	0.160563	0.830057
C133	C	1.063691	-0.505838	0.081592
C134	C	1.397024	-0.172505	0.414925
C135	C	1.730358	0.160828	0.748259
C136	C	1.110736	-0.438749	0.816557
C137	C	1.444069	-0.105416	1.149890
C138	C	1.777402	0.227917	1.483224
C139	C	1.110744	-0.438719	0.893416
C140	C	1.444078	-0.105385	1.226749
C141	C	1.777411	0.227948	1.560083
C142	C	1.016584	-0.573096	0.893379
C143	C	1.349917	-0.239763	1.226712
C144	C	1.683251	0.093571	1.560045
C145	C	1.016572	-0.573120	0.816521
C146	C	1.349905	-0.239787	1.149854
C147	C	1.683239	0.093546	1.483188
C148	C	1.063652	-0.505949	0.778112
C149	C	1.396985	-0.172615	1.111446
C150	C	1.730319	0.160718	1.444779
C151	C	1.063673	-0.505894	0.931829
C152	C	1.397006	-0.172560	1.265162
C153	C	1.730339	0.160773	1.598495
C154	C	1.063682	-0.505861	1.015162
C155	C	1.397015	-0.172528	1.348496
C156	C	1.730349	0.160806	1.681829
C157	C	1.063642	-0.505980	0.694773
C158	C	1.396976	-0.172646	1.028107
C159	C	1.730309	0.160687	1.361440
H160	H	0.633679	-0.628172	0.439843
H161	H	0.967012	-0.294839	0.773176
H162	H	1.300346	0.038494	1.106510
Br163	Br	0.473393	-0.664697	0.465371
Br164	Br	0.806727	-0.331363	0.798705
Br165	Br	1.140060	0.001970	1.132038
H166	H	0.978227	-1.105127	0.439955
H167	H	1.311560	-0.771794	0.773288
H168	H	1.644894	-0.438461	1.106622
Br169	Br	1.174628	-0.347586	0.764433
Br170	Br	1.507961	-0.014253	1.097766
Br171	Br	1.841295	0.319080	1.431100
Br172	Br	0.952662	-0.664317	0.764341
Br173	Br	1.285995	-0.330984	1.097675
Br174	Br	1.619328	0.002350	1.431008
Br175	Br	0.473337	-0.347538	0.243867
Br176	Br	0.806670	-0.014205	0.577200
Br177	Br	1.140003	0.319128	0.910533
Br178	Br	1.174652	-0.347523	0.945588
Br179	Br	1.507985	-0.014190	1.278922
Br180	Br	1.841318	0.319144	1.612255
H181	H	0.633643	-0.384044	0.269355
H182	H	0.966976	-0.050710	0.602688
H183	H	1.300309	0.282623	0.936022
H184	H	0.978255	-0.627787	0.924660
H185	H	1.311588	-0.294454	1.257994
H186	H	1.644922	0.038880	1.591327
H187	H	1.243279	-1.105063	0.175277
H188	H	1.576612	-0.771730	0.508610
H189	H	1.909945	-0.438396	0.841943
Br190	Br	1.157921	-0.746924	0.260741
Br191	Br	1.491254	-0.413590	0.594075
Br192	Br	1.824587	-0.080257	0.927408
H193	H	1.243192	-0.905999	0.175238
H194	H	1.576526	-0.572666	0.508571
H195	H	1.909859	-0.239332	0.841905
Br196	Br	1.157569	-1.264193	0.260286
Br197	Br	1.490903	-0.930860	0.593619
Br198	Br	1.824236	-0.597526	0.926953
H199	H	0.978147	-0.906059	0.439921
H200	H	1.311480	-0.572726	0.773255
H201	H	1.644813	-0.239392	1.106588
