data_functionalizedCrystal
_audit_creation_method	'MofGen! by Chris Wilmer'
_symmetry_space_group_name_H-M	'P1'
_symmetry_Int_Tables_number	1
_symmetry_cell_setting	triclinic
loop_
_symmetry_equiv_pos_as_xyz
  x,y,z
_cell_length_a	16.974829
_cell_length_b	16.053934
_cell_length_c	10.654550
_cell_angle_alpha	87.401787
_cell_angle_beta	96.059508
_cell_angle_gamma	91.087964
loop_
_atom_site_label
_atom_site_type_symbol
_atom_site_fract_x
_atom_site_fract_y
_atom_site_fract_z
O1	O	1.043375	0.139921	-0.170767
O2	O	0.814017	0.124426	-0.189963
O3	O	0.933969	0.132527	0.002429
O4	O	0.923422	0.131820	-0.363160
O5	O	0.940536	-0.005886	0.012983
O6	O	0.820583	-0.013987	-0.179410
O7	O	1.049941	0.001508	-0.160214
Zn8	Zn	0.936305	-0.028215	-0.168136
Zn9	Zn	0.927653	0.154149	-0.182041
O10	O	0.929989	-0.006593	-0.352606
C11	C	0.787932	0.053235	-0.183758
C12	C	0.700423	0.047324	-0.180978
C13	C	0.208224	0.005947	-0.164753
C14	C	0.290447	0.011503	-0.167365
C15	C	0.327981	0.089732	-0.174415
C16	C	0.283285	0.162408	-0.178865
C17	C	0.201062	0.156851	-0.176262
C18	C	0.573505	0.114443	-0.182825
C19	C	0.655734	0.119995	-0.185424
C20	C	0.662891	-0.030911	-0.173927
C21	C	0.580667	-0.036461	-0.171317
C22	C	0.535978	0.036215	-0.175774
N23	N	0.412026	0.095413	-0.177081
N24	N	0.451933	0.030533	-0.173116
N25	N	0.942215	-0.152674	-0.158646
C26	C	0.891165	-0.199836	-0.240479
C27	C	0.895322	-0.286961	-0.233835
C28	C	0.950526	-0.326922	-0.145352
C29	C	1.001582	-0.279753	-0.063515
C30	C	0.997428	-0.192630	-0.070166
C31	C	0.968651	-0.587100	-0.116335
C32	C	0.972799	-0.674229	-0.109688
C33	C	0.866540	-0.681431	-0.280010
C34	C	0.862388	-0.594306	-0.286648
C35	C	0.913446	-0.547145	-0.204816
N36	N	0.954776	-0.415977	-0.138556
N37	N	0.909200	-0.458091	-0.211619
C38	C	1.076026	0.072700	-0.166419
C39	C	1.163535	0.078618	-0.169199
C40	C	0.936478	0.063269	0.054496
C41	C	0.934161	0.063115	0.193915
N42	N	0.921749	0.278609	-0.191521
C43	C	0.927480	0.062667	-0.404673
C44	C	0.929797	0.062826	-0.544092
C45	C	1.004787	0.067884	0.274136
C46	C	1.002605	0.067743	0.405134
C47	C	0.859165	0.058059	0.375676
C48	C	0.861347	0.058207	0.244680
C49	C	1.087602	0.073471	0.291145
C50	C	1.085420	0.073329	0.422143
H51	H	0.164676	0.216027	-0.179886
C52	C	0.539385	-0.122513	-0.163573
H53	H	0.577777	-0.164999	-0.161310
H54	H	0.513064	-0.127444	-0.089152
H55	H	0.501853	-0.128189	-0.235497
C56	C	0.830442	-0.155887	-0.337815
H57	H	0.800639	-0.196456	-0.385607
H58	H	0.795767	-0.124140	-0.295094
H59	H	0.857462	-0.119961	-0.392816
C60	C	0.712048	-0.110848	-0.169042
H61	H	0.766392	-0.096337	-0.171613
H62	H	0.705652	-0.142389	-0.093090
H63	H	0.694434	-0.143129	-0.239435
C64	C	0.697018	0.206050	-0.193193
H65	H	0.658626	0.248538	-0.195488
H66	H	0.734551	0.211734	-0.121281
H67	H	0.723336	0.210969	-0.267625
H68	H	0.313850	0.226103	-0.184612
C69	C	0.524360	0.194384	-0.187687
H70	H	0.558494	0.241768	-0.192235
H71	H	0.486523	0.194994	-0.260071
H72	H	0.497752	0.195717	-0.113725
C73	C	0.779074	0.052660	0.431516
H74	H	0.737324	0.049847	0.364973
H75	H	0.777525	0.004137	0.485694
H76	H	0.772957	0.100679	0.478315
H77	H	1.116808	0.015489	0.260350
H78	H	0.803836	0.054335	0.179366
C79	C	0.839184	-0.338834	-0.323878
H80	H	0.805710	-0.302557	-0.377526
H81	H	0.869454	-0.370866	-0.373681
H82	H	0.807744	-0.375074	-0.275981
C83	C	1.033524	-0.718185	-0.012348
H84	H	1.063342	-0.677620	0.035431
H85	H	1.006506	-0.754109	0.042648
H86	H	1.068196	-0.749935	-0.055082
C87	C	1.115800	0.156181	0.478104
H88	H	1.130788	0.193196	0.412366
H89	H	1.075104	0.180573	0.518340
H90	H	1.160383	0.145835	0.538149
H91	H	0.817436	-0.561772	-0.358699
C92	C	0.810388	-0.733309	-0.370028
H93	H	0.820771	-0.790919	-0.353406
H94	H	0.757034	-0.722603	-0.357253
H95	H	0.818731	-0.718416	-0.454974
C96	C	1.127645	0.154668	0.245959
H97	H	1.129132	0.154759	0.157067
H98	H	1.098383	0.201124	0.266456
H99	H	1.180135	0.158205	0.286465
H100	H	1.010223	-0.548708	-0.049702
H101	H	1.046535	-0.312294	0.008526
C102	C	1.131278	-0.002070	0.484977
H103	H	1.129803	-0.002157	0.573871
H104	H	1.107576	-0.052101	0.453608
H105	H	1.184754	0.001544	0.466232
C106	C	0.166944	-0.080106	-0.157002
H107	H	0.205338	-0.122589	-0.154741
H108	H	0.140624	-0.085040	-0.082582
H109	H	0.129413	-0.085782	-0.228927
C110	C	0.339607	-0.068433	-0.162469
H111	H	0.393950	-0.053922	-0.165043
H112	H	0.333211	-0.099968	-0.086511
H113	H	0.321993	-0.100721	-0.232855
C114	C	1.053581	-0.140752	0.019854
H115	H	1.087048	-0.177028	0.073513
H116	H	1.085012	-0.104524	-0.028062
H117	H	1.023321	-0.108708	0.069668
