data_functionalizedCrystal
_audit_creation_method	'MofGen! by Chris Wilmer'
_symmetry_space_group_name_H-M	'P1'
_symmetry_Int_Tables_number	1
_symmetry_cell_setting	triclinic
loop_
_symmetry_equiv_pos_as_xyz
  x,y,z
_cell_length_a	6.817900
_cell_length_b	16.418055
_cell_length_c	19.453114
_cell_angle_alpha	95.879356
_cell_angle_beta	101.709288
_cell_angle_gamma	103.389726
loop_
_atom_site_label
_atom_site_type_symbol
_atom_site_fract_x
_atom_site_fract_y
_atom_site_fract_z
V1	V	-4.006362	-0.116758	-0.219245
O2	O	-3.994760	0.004713	-0.214820
O3	O	-3.957541	-0.230649	-0.217986
O4	O	-3.949282	-0.115356	-0.314755
O5	O	-4.003076	-0.111378	-0.117382
V6	V	-4.491169	-0.102182	-0.207032
O7	O	-4.264804	-0.148732	-0.246035
O8	O	-4.682925	-0.070209	-0.180242
O9	O	-4.316784	0.011708	-0.208290
O10	O	-4.620168	-0.223654	-0.211456
O11	O	-4.611852	-0.107563	-0.308894
O12	O	-4.325043	-0.103585	-0.111522
C13	C	-3.802720	-0.258401	-0.214590
C14	C	-3.844033	-0.351511	-0.214198
C15	C	-4.159639	-0.657506	-0.216479
C16	C	-4.120834	-0.570018	-0.216836
C17	C	-3.757253	-0.561445	-0.209797
C18	C	-3.796057	-0.648931	-0.209435
C19	C	-3.997257	-0.696960	-0.212780
C20	C	-3.919648	-0.521986	-0.213499
C21	C	-3.877573	-0.427127	-0.213886
C22	C	-4.039335	-0.791825	-0.212391
C23	C	-3.792185	-0.111332	-0.338027
C24	C	-3.826796	-0.110939	-0.416108
C25	C	-4.024824	-0.114959	-0.456374
C26	C	-4.057345	-0.114590	-0.529740
C27	C	-3.891837	-0.110218	-0.562839
C28	C	-3.693780	-0.106193	-0.522564
C29	C	-3.661259	-0.106554	-0.449198
N30	N	-3.831930	-0.154451	-0.681722
N31	N	-3.862837	-0.154111	-0.751416
C32	C	-3.989807	-0.109129	-0.783885
N33	N	-4.084740	-0.064512	-0.744029
N34	N	-4.053839	-0.064857	-0.674328
C35	C	-3.927080	-0.109826	-0.642392
C36	C	-4.223110	-0.112748	-0.903703
C37	C	-4.255623	-0.112373	-0.977069
C38	C	-3.892055	-0.103985	-0.969893
C39	C	-3.859545	-0.104351	-0.896527
C40	C	-4.025082	-0.108737	-0.863437
C41	C	-4.134947	0.039456	-0.211684
C42	C	-4.072872	0.132565	-0.212081
C43	C	-4.145483	-0.107611	-0.088246
C44	C	-4.090110	-0.108000	-0.010164
H45	H	-3.663814	-0.681055	-0.206422
O46	O	-3.447651	-0.102208	-0.405766
H47	H	-3.452841	-0.103186	-0.349189
H48	H	-4.253065	-0.537898	-0.219847
O49	O	-4.376634	-0.709305	-0.220070
H50	H	-4.428709	-0.758496	-0.268190
O51	O	-4.270947	-0.118932	-0.573184
H52	H	-4.380591	-0.122047	-0.537849
H53	H	-3.757291	-0.100418	-0.996841
O54	O	-4.203359	-0.119666	-0.420686
H55	H	-4.325919	-0.178985	-0.444107
H56	H	-3.559022	-0.102631	-0.549518
O57	O	-4.401627	-0.117461	-0.868002
H58	H	-4.544790	-0.120178	-0.908328
O59	O	-4.469212	-0.116693	-1.020503
H60	H	-4.578847	-0.119806	-0.985164
O61	O	-3.540257	-0.509648	-0.206206
H62	H	-3.540556	-0.442186	-0.207089
H63	H	-3.698295	-0.101087	-0.863743
