data_functionalizedCrystal
_audit_creation_method	'MofGen! by Chris Wilmer'
_symmetry_space_group_name_H-M	'P1'
_symmetry_Int_Tables_number	1
_symmetry_cell_setting	triclinic
loop_
_symmetry_equiv_pos_as_xyz
  x,y,z
_cell_length_a	17.077404
_cell_length_b	13.897448
_cell_length_c	17.077396
_cell_angle_alpha	89.975220
_cell_angle_beta	90.019501
_cell_angle_gamma	89.980206
loop_
_atom_site_label
_atom_site_type_symbol
_atom_site_fract_x
_atom_site_fract_y
_atom_site_fract_z
Zn1	Zn	1.200073	0.384009	0.443863
Zn2	Zn	1.533406	0.717342	0.777196
Zn3	Zn	1.866739	1.050676	1.110530
Zn4	Zn	1.199987	0.545322	0.312605
Zn5	Zn	1.533321	0.878655	0.645939
Zn6	Zn	1.866654	1.211988	0.979272
Zn7	Zn	1.068805	0.384043	0.312611
Zn8	Zn	1.402138	0.717376	0.645944
Zn9	Zn	1.735471	1.050710	0.979278
Zn10	Zn	1.068780	0.545264	0.443829
Zn11	Zn	1.402113	0.878598	0.777162
Zn12	Zn	1.735447	1.211931	1.110496
O13	O	1.134411	0.464660	0.378227
O14	O	1.467745	0.797993	0.711560
O15	O	1.801078	1.131326	1.044894
O16	O	1.309908	0.405417	0.426463
O17	O	1.643242	0.738751	0.759797
O18	O	1.976575	1.072084	1.093130
O19	O	1.182560	0.523966	0.202759
O20	O	1.515894	0.857299	0.536092
O21	O	1.849227	1.190633	0.869426
O22	O	1.086263	0.249057	0.330038
O23	O	1.419597	0.582390	0.663372
O24	O	1.752930	0.915723	0.996705
O25	O	1.309846	0.523933	0.330029
O26	O	1.643179	0.857266	0.663362
O27	O	1.976512	1.190600	0.996696
O28	O	1.182706	0.249032	0.426469
O29	O	1.516039	0.582365	0.759802
O30	O	1.849372	0.915699	1.093135
O31	O	1.086181	0.405475	0.202763
O32	O	1.419514	0.738808	0.536096
O33	O	1.752847	1.072142	0.869430
O34	O	0.958954	0.405420	0.330005
O35	O	1.292288	0.738753	0.663339
O36	O	1.625621	1.072086	0.996672
O37	O	1.086222	0.523835	0.553680
O38	O	1.419555	0.857169	0.887014
O39	O	1.752889	1.190502	1.220347
O40	O	0.958936	0.523868	0.426411
O41	O	1.292270	0.857202	0.759744
O42	O	1.625603	1.190535	1.093077
O43	O	1.182682	0.405362	0.553705
O44	O	1.516015	0.738695	0.887039
O45	O	1.849349	1.072029	1.220372
O46	O	1.182537	0.680296	0.329996
O47	O	1.515870	1.013629	0.663329
O48	O	1.849203	1.346962	0.996663
O49	O	1.086139	0.680254	0.426405
O50	O	1.419472	1.013587	0.759739
O51	O	1.752806	1.346920	1.093072
C52	C	0.930463	0.464642	0.378205
C53	C	1.263797	0.797975	0.711539
C54	C	1.597130	1.131309	1.044872
C55	C	0.843214	0.464658	0.378215
C56	C	1.176547	0.797991	0.711548
C57	C	1.509880	1.131324	1.044881
C58	C	0.802235	0.526427	0.428332
C59	C	1.135568	0.859760	0.761666
C60	C	1.468901	1.193094	1.094999
C61	C	0.720254	0.526429	0.428345
C62	C	1.053587	0.859763	0.761678
C63	C	1.386921	1.193096	1.095012
C64	C	0.679254	0.464666	0.378235
C65	C	1.012587	0.797999	0.711569
C66	C	1.345921	1.131333	1.044902
C67	C	0.720239	0.402890	0.328115
C68	C	1.053572	0.736223	0.661449
C69	C	1.386905	1.069557	0.994782
C70	C	0.802218	0.402884	0.328107
C71	C	1.135551	0.736217	0.661441
C72	C	1.468884	1.069550	0.994774
C73	C	0.549369	0.402909	0.328134
C74	C	0.882702	0.736242	0.661468
C75	C	1.216035	1.069576	0.994801
C76	C	0.467384	0.402916	0.328141
C77	C	0.800718	0.736250	0.661474
C78	C	1.134051	1.069583	0.994808
C79	C	0.467405	0.526454	0.428372
C80	C	0.800738	0.859788	0.761705
C81	C	1.134072	1.193121	1.095039
C82	C	0.549384	0.526448	0.428364
C83	C	0.882717	0.859782	0.761697
C84	C	1.216051	1.193115	1.095031
C85	C	0.590363	0.464673	0.378243
C86	C	0.923696	0.798006	0.711576
C87	C	1.257030	1.131340	1.044909
C88	C	1.134347	0.715274	0.378214
C89	C	1.467681	1.048607	0.711547
C90	C	1.801014	1.381941	1.044880
C91	C	1.134392	0.822488	0.378234
C92	C	1.467725	1.155821	0.711567
C93	C	1.801058	1.489154	1.044901
C94	C	1.134469	1.018783	0.378290
C95	C	1.467802	1.352116	0.711624
C96	C	1.801136	1.685450	1.044957
C97	C	1.134424	0.909550	0.378261
C98	C	1.467757	1.242884	0.711595
C99	C	1.801090	1.576217	1.044928
C100	C	1.339155	0.464678	0.378249
C101	C	1.672489	0.798011	0.711583
C102	C	2.005822	1.131344	1.044916
C103	C	1.426405	0.464686	0.378259
C104	C	1.759739	0.798019	0.711592
C105	C	2.093072	1.131352	1.044925
C106	C	1.134459	0.464588	0.582971
C107	C	1.467792	0.797922	0.916305
C108	C	1.801125	1.131255	1.249638
C109	C	1.134479	0.464558	0.670221
C110	C	1.467812	0.797892	1.003555
C111	C	1.801146	1.131225	1.336888
C112	C	1.134490	1.213067	0.378267
C113	C	1.467823	1.546400	0.711600
C114	C	1.801157	1.879733	1.044934
C115	C	1.134507	1.105853	0.378308
C116	C	1.467840	1.439186	0.711641
C117	C	1.801173	1.772519	1.044974
C118	C	1.134409	0.464661	0.174279
C119	C	1.467742	0.797994	0.507613
C120	C	1.801076	1.131327	0.840946
C121	C	1.134541	0.464419	0.087030
C122	C	1.467874	0.797753	0.420363
C123	C	1.801208	1.131086	0.753696
C124	C	1.184708	0.402864	0.711226
C125	C	1.518041	0.736197	1.044559
C126	C	1.851374	1.069531	1.377892
C127	C	1.184717	0.402832	0.793206
C128	C	1.518050	0.736165	1.126539
C129	C	1.851384	1.069498	1.459873
C130	C	1.134501	0.464500	0.834181
C131	C	1.467835	0.797833	1.167514
C132	C	1.801168	1.131166	1.500847
C133	C	1.084267	0.526197	0.793171
C134	C	1.417600	0.859530	1.126504
C135	C	1.750934	1.192863	1.459837
C136	C	1.084254	0.526223	0.711192
C137	C	1.417588	0.859556	1.044525
C138	C	1.750921	1.192890	1.377858
C139	C	1.084299	0.526139	0.964041
C140	C	1.417632	0.859472	1.297374
C141	C	1.750965	1.192805	1.630707
C142	C	1.084312	0.526114	1.046025
C143	C	1.417646	0.859447	1.379359
C144	C	1.750979	1.192780	1.712692
C145	C	1.184761	0.402747	1.046055
C146	C	1.518095	0.736081	1.379389
C147	C	1.851428	1.069414	1.712722
C148	C	1.184749	0.402774	0.964076
C149	C	1.518082	0.736107	1.297410
C150	C	1.851415	1.069440	1.630743
C151	C	1.134515	0.464472	0.923072
C152	C	1.467849	0.797806	1.256405
C153	C	1.801182	1.131139	1.589738
H154	H	0.434036	0.576751	0.469185
H155	H	0.767369	0.910085	0.802518
H156	H	1.100703	1.243418	1.135851
H157	H	1.225602	0.352650	0.677870
H158	H	1.558935	0.685983	1.011203
H159	H	1.892268	1.019316	1.344537
C160	C	0.675145	0.334948	0.272996
C161	C	1.008478	0.668281	0.606329
C162	C	1.341811	1.001615	0.939663
H163	H	0.711294	0.298153	0.243152
H164	H	1.044627	0.631486	0.576485
H165	H	1.377961	0.964819	0.909818
H166	H	0.643141	0.371793	0.238745
H167	H	0.976474	0.705126	0.572078
H168	H	1.309808	1.038460	0.905411
H169	H	0.643189	0.292967	0.303091
H170	H	0.976522	0.626300	0.636424
H171	H	1.309855	0.959633	0.969758
H172	H	0.434004	0.352612	0.287347
H173	H	0.767337	0.685945	0.620680
H174	H	1.100671	1.019278	0.954013
H175	H	1.043378	0.576404	0.826539
H176	H	1.376711	0.909737	1.159872
H177	H	1.710044	1.243071	1.493205
H178	H	1.225620	0.352596	0.826588
H179	H	1.558953	0.685930	1.159922
H180	H	1.892287	1.019263	1.493255
H181	H	0.582731	0.352597	0.287327
H182	H	0.916065	0.685930	0.620660
H183	H	1.249398	1.019263	0.953994
H184	H	1.043420	0.576327	1.079385
H185	H	1.376754	0.909660	1.412718
H186	H	1.710087	1.242994	1.746051
H187	H	1.043345	0.576451	0.677807
H188	H	1.376678	0.909785	1.011140
H189	H	1.710012	1.243118	1.344473
H190	H	0.835582	0.352580	0.287300
H191	H	1.168915	0.685913	0.620634
H192	H	1.502248	1.019246	0.953967
C193	C	1.239985	0.334942	0.919005
C194	C	1.573318	0.668275	1.252339
C195	C	1.906651	1.001608	1.585672
H196	H	1.269899	0.298186	0.955166
H197	H	1.603232	0.631519	1.288499
H198	H	1.936565	0.964853	1.621832
H199	H	1.274167	0.371854	0.887025
H200	H	1.607500	0.705188	1.220358
H201	H	1.940833	1.038521	1.553692
H202	H	1.209959	0.292919	0.887027
H203	H	1.543292	0.626253	1.220361
H204	H	1.876626	0.959586	1.553694
H205	H	1.225662	0.352508	1.079445
H206	H	1.558995	0.685842	1.412778
H207	H	1.892329	1.019175	1.746112
C208	C	1.029069	0.594037	0.918937
C209	C	1.362402	0.927371	1.252271
C210	C	1.695736	1.260704	1.585604
H211	H	0.999177	0.630778	0.955080
H212	H	1.332510	0.964111	1.288413
H213	H	1.665844	1.297444	1.621747
H214	H	0.994866	0.557178	0.886941
H215	H	1.328199	0.890511	1.220275
H216	H	1.661532	1.223845	1.553608
H217	H	1.059108	0.636071	0.886972
H218	H	1.392441	0.969404	1.220306
H219	H	1.725774	1.302738	1.553639
H220	H	0.835611	0.576725	0.469135
H221	H	1.168944	0.910058	0.802469
H222	H	1.502278	1.243392	1.135802
H223	H	0.686893	0.576729	0.469155
H224	H	1.020226	0.910062	0.802489
H225	H	1.353559	1.243396	1.135822
H226	H	0.582764	0.576746	0.469163
H227	H	0.916097	0.910080	0.802497
H228	H	1.249431	1.243413	1.135830
