data_functionalizedCrystal
_audit_creation_method	'MofGen! by Chris Wilmer'
_symmetry_space_group_name_H-M	'P1'
_symmetry_Int_Tables_number	1
_symmetry_cell_setting	triclinic
loop_
_symmetry_equiv_pos_as_xyz
  x,y,z
_cell_length_a	29.839134
_cell_length_b	19.805405
_cell_length_c	19.805399
_cell_angle_alpha	90.030709
_cell_angle_beta	90.025669
_cell_angle_gamma	90.021271
loop_
_atom_site_label
_atom_site_type_symbol
_atom_site_fract_x
_atom_site_fract_y
_atom_site_fract_z
Zn1	Zn	-0.686783	0.269562	-0.382870
Zn2	Zn	-0.186783	0.769562	0.117130
Zn3	Zn	-0.686730	0.382753	-0.269678
Zn4	Zn	-0.186730	0.882753	0.230322
Zn5	Zn	-0.611661	0.269574	-0.269677
Zn6	Zn	-0.111661	0.769574	0.230323
Zn7	Zn	-0.611633	0.382704	-0.382808
Zn8	Zn	-0.111633	0.882704	0.117192
O9	O	-0.649202	0.326148	-0.326258
O10	O	-0.149202	0.826148	0.173742
O11	O	-0.749643	0.284593	-0.367881
O12	O	-0.249643	0.784593	0.132119
O13	O	-0.676761	0.367765	-0.174962
O14	O	-0.176761	0.867765	0.325038
O15	O	-0.621660	0.174855	-0.284718
O16	O	-0.121660	0.674855	0.215282
O17	O	-0.749604	0.367754	-0.284720
O18	O	-0.249604	0.867754	0.215280
O19	O	-0.676852	0.174847	-0.367880
O20	O	-0.176852	0.674847	0.132120
O21	O	-0.621608	0.284612	-0.174961
O22	O	-0.121608	0.784612	0.325039
O23	O	-0.548790	0.284565	-0.284658
O24	O	-0.048790	0.784565	0.215342
O25	O	-0.621612	0.367671	-0.477533
O26	O	-0.121612	0.867671	0.022467
O27	O	-0.548770	0.367682	-0.367774
O28	O	-0.048770	0.867682	0.132226
O29	O	-0.676825	0.284546	-0.477578
O30	O	-0.176825	0.784546	0.022422
O31	O	-0.676734	0.477463	-0.284660
O32	O	-0.176734	0.977463	0.215340
O33	O	-0.621561	0.477428	-0.367775
O34	O	-0.121561	0.977428	0.132225
C35	C	-0.649151	0.502004	-0.326226
C36	C	-0.149151	1.002004	0.173774
C37	C	-0.649171	0.577236	-0.326234
C38	C	-0.149171	1.077236	0.173766
C39	C	-0.532479	0.326120	-0.326210
C40	C	-0.032479	0.826120	0.173790
C41	C	-0.482545	0.326124	-0.326205
C42	C	0.017455	0.826124	0.173795
C43	C	-0.766380	0.326178	-0.326308
C44	C	-0.266380	0.826178	0.173692
C45	C	-0.816314	0.326190	-0.326329
C46	C	-0.316314	0.826190	0.173671
C47	C	-0.172900	0.369491	-0.369484
C48	C	0.327100	0.869491	0.130516
C49	C	0.014773	0.369510	-0.369514
C50	C	0.514773	0.869510	0.130486
O51	O	0.039039	0.406351	-0.406283
O52	O	0.539039	0.906351	0.093717
N53	N	0.038240	0.326173	-0.326309
N54	N	0.538240	0.826173	0.173691
C55	C	0.014787	0.282825	-0.283097
C56	C	0.514787	0.782825	0.216903
O57	O	0.039054	0.245960	-0.246354
O58	O	0.539054	0.745960	0.253646
C59	C	-0.172885	0.282803	-0.283071
C60	C	0.327115	0.782803	0.216929
C61	C	-0.196350	0.326148	-0.326274
C62	C	0.303650	0.826148	0.173726
C63	C	-0.196365	0.412832	-0.412684
C64	C	0.303635	0.912832	0.087316
C65	C	-0.243281	0.412830	-0.412673
C66	C	0.256719	0.912830	0.087327
C67	C	-0.266731	0.369486	-0.369463
C68	C	0.233269	0.869486	0.130537
C69	C	-0.243266	0.326145	-0.326263
C70	C	0.256734	0.826145	0.173737
C71	C	-0.196338	0.239452	-0.239863
C72	C	0.303662	0.739452	0.260137
C73	C	-0.243259	0.239449	-0.239861
C74	C	0.256741	0.739449	0.260139
C75	C	-0.266724	0.282794	-0.283064
C76	C	0.233276	0.782794	0.216936
C77	C	-0.313632	0.282799	-0.283042
C78	C	0.186368	0.782799	0.216958
N79	N	-0.337099	0.326136	-0.326247
N80	N	0.162901	0.826136	0.173753
C81	C	-0.313649	0.369480	-0.369457
C82	C	0.186351	0.869480	0.130543
C83	C	0.113317	0.282841	-0.283113
C84	C	0.613317	0.782841	0.216887
C85	C	0.160235	0.282847	-0.283119
C86	C	0.660235	0.782847	0.216881
C87	C	0.160218	0.369531	-0.369537
C88	C	0.660218	0.869531	0.130463
C89	C	0.113299	0.369528	-0.369527
C90	C	0.613299	0.869528	0.130473
C91	C	0.089850	0.326178	-0.326318
C92	C	0.589850	0.826178	0.173682
C93	C	-0.412175	0.369472	-0.369432
C94	C	0.087825	0.869472	0.130568
C95	C	-0.459094	0.369467	-0.369415
C96	C	0.040906	0.869467	0.130585
C97	C	-0.459073	0.282780	-0.283000
C98	C	0.040927	0.782780	0.217000
C99	C	-0.412158	0.282787	-0.283013
C100	C	0.087842	0.782787	0.216987
C101	C	-0.388710	0.326135	-0.326235
C102	C	0.111290	0.826135	0.173765
O103	O	-0.337926	0.245972	-0.246298
O104	O	0.162074	0.745972	0.253702
O105	O	-0.337924	0.406329	-0.406205
O106	O	0.162076	0.906329	0.093795
C107	C	-0.125985	0.369494	-0.369495
C108	C	0.374015	0.869494	0.130505
C109	C	-0.102520	0.326153	-0.326295
C110	C	0.397480	0.826153	0.173705
C111	C	-0.125970	0.282810	-0.283084
C112	C	0.374030	0.782810	0.216916
C113	C	-0.055602	0.326159	-0.326300
C114	C	0.444398	0.826159	0.173700
C115	C	-0.032151	0.369503	-0.369511
C116	C	0.467849	0.869503	0.130489
C117	C	-0.055619	0.412840	-0.412716
C118	C	0.444381	0.912840	0.087284
C119	C	-0.102534	0.412837	-0.412705
C120	C	0.397466	0.912837	0.087295
C121	C	-0.102502	0.239473	-0.239880
C122	C	0.397498	0.739473	0.260120
C123	C	-0.055587	0.239479	-0.239893
C124	C	0.444413	0.739479	0.260107
C125	C	-0.032137	0.282823	-0.283104
C126	C	0.467863	0.782823	0.216896
C127	C	-0.649221	0.326101	-0.502801
C128	C	-0.149221	0.826101	-0.002801
C129	C	-0.649230	0.326081	-0.578033
C130	C	-0.149230	0.826081	-0.078033
C131	C	-0.649265	0.149606	-0.326306
C132	C	-0.149265	0.649606	0.173694
C133	C	-0.649291	0.074374	-0.326326
C134	C	-0.149291	0.574374	0.173674
C135	C	-0.677927	0.612577	-0.283001
C136	C	-0.177927	1.112577	0.216999
C137	C	-0.677946	0.683265	-0.283016
C138	C	-0.177946	1.183265	0.216984
C139	C	-0.649206	0.718612	-0.326261
C140	C	-0.149206	1.218612	0.173739
C141	C	-0.620448	0.683267	-0.369499
C142	C	-0.120448	1.183267	0.130501
C143	C	-0.620432	0.612579	-0.369487
C144	C	-0.120432	1.112579	0.130513
C145	C	-0.620514	0.968340	-0.369549
C146	C	-0.120514	1.468340	0.130451
C147	C	-0.620532	1.039032	-0.369557
C148	C	-0.120532	1.539032	0.130443
C149	C	-0.678029	1.039026	-0.283078
C150	C	-0.178029	1.539026	0.216922
C151	C	-0.678013	0.968338	-0.283066
C152	C	-0.178013	1.468338	0.216934
C153	C	-0.649257	0.932999	-0.326306
C154	C	-0.149257	1.432999	0.173694
C155	C	-0.649237	0.856351	-0.326291
C156	C	-0.149237	1.356351	0.173709
C157	C	-0.649223	0.795259	-0.326274
C158	C	-0.149223	1.295259	0.173726
C159	C	-0.620520	0.282780	-0.613376
C160	C	-0.120520	0.782780	-0.113376
C161	C	-0.620526	0.282767	-0.684065
C162	C	-0.120526	0.782767	-0.184065
C163	C	-0.649245	0.326052	-0.719409
C164	C	-0.149245	0.826052	-0.219409
C165	C	-0.677956	0.369359	-0.684061
C166	C	-0.177956	0.869359	-0.184061
C167	C	-0.677947	0.369375	-0.613374
C168	C	-0.177947	0.869375	-0.113374
C169	C	-0.677992	0.369295	-0.969134
C170	C	-0.177992	0.869295	-0.469134
C171	C	-0.677999	0.369274	-1.039826
C172	C	-0.177999	0.869274	-0.539826
C173	C	-0.620570	0.282687	-1.039826
C174	C	-0.120570	0.782687	-0.539826
C175	C	-0.620562	0.282703	-0.969138
C176	C	-0.120562	0.782703	-0.469138
C177	C	-0.649271	0.326012	-0.933796
C178	C	-0.149271	0.826012	-0.433796
C179	C	-0.649263	0.326027	-0.857148
C180	C	-0.149263	0.826027	-0.357148
C181	C	-0.649255	0.326035	-0.796056
C182	C	-0.149255	0.826035	-0.296056
C183	C	-0.649208	0.326146	-0.150402
C184	C	-0.149208	0.826146	0.349598
C185	C	-0.649287	0.325976	-0.075171
C186	C	-0.149287	0.825976	0.424829
H187	H	-0.478197	0.404766	-0.404597
H188	H	0.021803	0.904766	0.095403
Br189	Br	-0.716978	0.731225	-0.224344
Br190	Br	-0.216978	1.231225	0.275656
H191	H	0.179337	0.247558	-0.247932
H192	H	0.679337	0.747558	0.252068
H193	H	-0.393089	0.404768	-0.404628
H194	H	0.106911	0.904768	0.095372
H195	H	0.094229	0.247539	-0.247923
H196	H	0.594229	0.747539	0.252077
H197	H	-0.597146	0.247508	-0.712838
H198	H	-0.097146	0.747508	-0.212838
H199	H	-0.701414	0.939561	-0.247850
H200	H	-0.201414	1.439561	0.252150
Br201	Br	-0.717057	1.086989	-0.224396
Br202	Br	-0.217057	1.586989	0.275604
Br203	Br	-0.023784	0.471667	-0.471353
Br204	Br	0.476216	0.971667	0.028647
H205	H	-0.701329	0.583802	-0.247783
H206	H	-0.201329	1.083802	0.252217
H207	H	-0.036486	0.204183	-0.204706
H208	H	0.463514	0.704183	0.295294
H209	H	-0.597136	0.247528	-0.584605
H210	H	-0.097136	0.747528	-0.084605
Br211	Br	-0.134373	0.471666	-0.471340
Br212	Br	0.365627	0.971666	0.028660
H213	H	-0.121591	0.204176	-0.204692
H214	H	0.378409	0.704176	0.295308
H215	H	-0.597129	1.067809	-0.404777
H216	H	-0.097129	1.567809	0.095223
Br217	Br	-0.581489	0.920388	-0.428232
Br218	Br	-0.081489	1.420388	0.071768
H219	H	-0.597049	0.712052	-0.404713
H220	H	-0.097049	1.212052	0.095287
H221	H	0.094197	0.404822	-0.404708
H222	H	0.594197	0.904822	0.095292
H223	H	-0.597016	0.583806	-0.404693
H224	H	-0.097016	1.083806	0.095307
Br225	Br	-0.581588	0.223953	-0.921175
Br226	Br	-0.081588	0.723953	-0.421175
Br227	Br	-0.716909	0.428149	-0.565407
Br228	Br	-0.216909	0.928149	-0.065407
H229	H	-0.597193	0.247425	-1.068610
H230	H	-0.097193	0.747425	-0.568610
Br231	Br	-0.716977	0.428023	-1.087793
Br232	Br	-0.216977	0.928023	-0.587793
Br233	Br	-0.716957	0.428067	-0.921179
Br234	Br	-0.216957	0.928067	-0.421179
Br235	Br	-0.716928	0.428111	-0.732027
Br236	Br	-0.216928	0.928111	-0.232027
H237	H	-0.262382	0.448124	-0.447855
H238	H	0.237618	0.948124	0.052145
Br239	Br	0.192052	0.428351	-0.428183
Br240	Br	0.692052	0.928351	0.071817
H241	H	-0.177241	0.204158	-0.204680
H242	H	0.322759	0.704158	0.295320
Br243	Br	-0.380311	0.223975	-0.224368
Br244	Br	0.119689	0.723975	0.275632
Br245	Br	-0.275081	0.180611	-0.181218
Br246	Br	0.224919	0.680611	0.318782
H247	H	-0.177277	0.448128	-0.447875
H248	H	0.322723	0.948128	0.052125
Br249	Br	-0.490908	0.223960	-0.224359
Br250	Br	0.009092	0.723960	0.275641
