data_functionalizedCrystal
_audit_creation_method	'MofGen! by Chris Wilmer'
_symmetry_space_group_name_H-M	'P1'
_symmetry_Int_Tables_number	1
_symmetry_cell_setting	triclinic
loop_
_symmetry_equiv_pos_as_xyz
  x,y,z
_cell_length_a	10.540539
_cell_length_b	10.540535
_cell_length_c	9.016244
_cell_angle_alpha	90.003556
_cell_angle_beta	90.005301
_cell_angle_gamma	84.524567
loop_
_atom_site_label
_atom_site_type_symbol
_atom_site_fract_x
_atom_site_fract_y
_atom_site_fract_z
O1	O	1.685890	0.178896	0.123275
O2	O	1.316477	0.195752	0.123294
O3	O	1.509614	0.002617	0.123269
O4	O	1.492753	0.372030	0.123300
O5	O	1.509586	0.002621	-0.123411
O6	O	1.316448	0.195756	-0.123386
O7	O	1.685862	0.178900	-0.123405
Cu8	Cu	1.501152	0.187328	-0.145920
Cu9	Cu	1.501186	0.187323	0.145809
O10	O	1.492724	0.372035	-0.123380
C11	C	1.269160	0.194490	-0.000044
C12	C	1.128212	0.190708	-0.000037
C13	C	1.508337	-0.044684	-0.000072
C14	C	1.504557	-0.185633	-0.000073
C15	C	0.944787	0.045790	-0.000625
C16	C	1.091405	0.049624	-0.000054
C17	C	1.066554	0.258601	0.140830
C18	C	0.920010	0.253786	0.140932
C19	C	0.919489	0.256661	-0.139590
C20	C	1.066471	0.257960	-0.141436
C21	C	1.733179	0.180162	-0.000064
C22	C	1.874127	0.183944	-0.000061
C23	C	1.363543	-0.222303	-0.000056
C24	C	1.359566	-0.368904	0.000531
C25	C	1.568944	-0.394960	0.140550
C26	C	1.571945	-0.248195	0.140641
C27	C	1.573964	-0.248328	-0.139891
C28	C	1.567442	-0.394674	-0.141712
C29	C	1.494002	0.419336	-0.000036
C30	C	1.497781	0.560284	-0.000025
N31	N	1.501138	0.187331	-0.351106
C32	C	1.397505	0.290299	-0.586125
C33	C	1.397734	0.290685	-0.414234
C34	C	1.633861	0.217465	-0.413448
C35	C	1.633295	0.218194	-0.585393
C36	C	1.473366	0.053892	-0.585659
C37	C	1.470321	0.054757	-0.413705
N38	N	1.501210	0.187310	0.350995
H39	H	1.134008	-0.003797	-0.101034
Br40	Br	1.481129	-0.442354	-0.315058
Br41	Br	1.675365	0.377866	-0.341641
H42	H	1.675320	-0.225163	0.146623
H43	H	1.520143	-0.425854	0.245580
H44	H	1.109155	0.211434	0.245658
Br45	Br	1.267307	-0.416329	0.169504
H46	H	1.298580	0.272446	-0.627515
Br47	Br	0.873004	0.170146	0.316424
Br48	Br	1.307583	0.016682	-0.345801
H49	H	1.548980	-0.022762	-0.626321
Br50	Br	1.491885	-0.181222	0.316466
H51	H	1.670710	-0.442316	0.145379
H52	H	1.529949	-0.205875	-0.246485
Br53	Br	1.735620	-0.476325	-0.156519
Br54	Br	0.897120	-0.047107	-0.169009
H55	H	1.415170	0.388723	-0.629311
Br56	Br	1.746887	-0.211352	-0.142176
H57	H	1.299118	0.272553	-0.372087
Br58	Br	1.427505	0.455682	-0.345628
H59	H	1.657647	0.315532	-0.625475
Br60	Br	1.765750	0.097889	-0.654726
H61	H	1.107422	0.208362	-0.245649
H62	H	1.090694	0.360819	-0.149933
H63	H	1.712917	0.144501	-0.372554
Br64	Br	1.103845	0.431276	0.149621
Br65	Br	1.315439	0.006115	-0.658017
H66	H	1.540850	-0.025564	-0.370738
Br67	Br	0.840777	0.426507	-0.141163
H68	H	1.303901	-0.398246	-0.100209
Br69	Br	1.273256	-0.152357	-0.168059
H70	H	0.914592	-0.009712	0.099827
Br71	Br	0.866898	0.180561	-0.317559
H72	H	1.133163	-0.004177	0.101092
Br73	Br	1.274811	-0.149865	0.167725
Br74	Br	0.840049	0.422895	0.151602
