data_functionalizedCrystal
_audit_creation_method	'MofGen! by Chris Wilmer'
_symmetry_space_group_name_H-M	'P1'
_symmetry_Int_Tables_number	1
_symmetry_cell_setting	triclinic
loop_
_symmetry_equiv_pos_as_xyz
  x,y,z
_cell_length_a	14.971486
_cell_length_b	14.519709
_cell_length_c	14.048226
_cell_angle_alpha	89.992623
_cell_angle_beta	89.998499
_cell_angle_gamma	83.647137
loop_
_atom_site_label
_atom_site_type_symbol
_atom_site_fract_x
_atom_site_fract_y
_atom_site_fract_z
O1	O	1.187015	0.120184	-0.079053
O2	O	0.926623	0.134576	-0.079079
O3	O	1.063722	-0.006863	-0.079057
O4	O	1.049915	0.261622	-0.079076
O5	O	1.063706	-0.006871	0.079264
O6	O	0.926606	0.134568	0.079242
O7	O	1.186998	0.120175	0.079268
Zn8	Zn	1.056799	0.127370	0.104392
Zn9	Zn	1.056821	0.127381	-0.104203
O10	O	1.049898	0.261614	0.079246
C11	C	0.893289	0.133928	0.000078
C12	C	0.793991	0.131999	0.000068
C13	C	1.063071	-0.041226	0.000104
C14	C	1.061142	-0.143606	0.000104
C15	C	0.736812	0.215091	0.000064
C16	C	0.643512	0.213273	0.000078
C17	C	0.607392	0.128363	0.000090
C18	C	0.664578	0.045265	0.000097
C19	C	0.757876	0.047084	0.000090
C20	C	0.470113	0.041480	0.000111
C21	C	0.376808	0.039661	0.000116
C22	C	0.355749	0.207669	0.000099
C23	C	0.449047	0.209488	0.000092
C24	C	0.506227	0.126390	0.000097
C25	C	1.054043	-0.518498	0.000079
C26	C	1.056015	-0.414191	0.000086
C27	C	1.057593	-0.331055	0.000092
C28	C	1.059564	-0.226742	0.000098
C29	C	1.220331	0.120823	0.000109
C30	C	1.319630	0.122752	0.000112
C31	C	1.050550	0.295978	0.000083
C32	C	1.052478	0.398358	0.000076
N33	N	1.056791	0.127362	0.246753
N34	N	1.056837	0.127382	-0.246564
C35	C	1.117518	0.064759	0.296581
C36	C	1.117524	0.064758	0.396238
C37	C	1.056807	0.127366	0.446066
C38	C	0.996073	0.189972	0.396231
C39	C	0.996064	0.189968	0.296575
C40	C	0.996099	0.189979	0.603945
C41	C	0.996110	0.189985	0.703608
C42	C	1.117560	0.064770	0.703608
C43	C	1.117550	0.064765	0.603952
C44	C	1.056817	0.127373	0.554124
H45	H	0.766213	0.284234	0.000054
C46	C	1.184338	-0.004101	0.549137
C47	C	1.182679	-0.109124	0.562849
C48	C	1.249465	-0.177992	0.508032
C49	C	1.317911	-0.141837	0.439502
C50	C	1.319574	-0.036808	0.425786
C51	C	1.252787	0.032060	0.480604
H52	H	1.132008	-0.135894	0.613582
H53	H	1.248234	-0.255742	0.518185
H54	H	1.367351	-0.192817	0.398923
H55	H	1.370244	-0.010039	0.375054
H56	H	1.254018	0.109809	0.470450
C57	C	0.820776	-0.044319	0.000091
C58	C	0.887813	-0.066169	-0.082121
C59	C	0.950712	-0.157575	-0.082114
C60	C	0.946573	-0.227130	0.000104
C61	C	0.879534	-0.205281	0.082322
C62	C	0.816635	-0.113875	0.082316
H63	H	0.890879	-0.014679	-0.142989
H64	H	1.000339	-0.173749	-0.142978
H65	H	0.993135	-0.294794	0.000109
H66	H	0.876468	-0.256771	0.143191
H67	H	0.767008	-0.097702	0.143180
C68	C	1.184310	-0.004112	0.241775
C69	C	1.251104	-0.072978	0.296591
C70	C	1.317895	-0.141854	0.241789
C71	C	1.317892	-0.141864	0.132171
C72	C	1.251096	-0.072996	0.077349
C73	C	1.184304	-0.004120	0.132151
H74	H	1.251108	-0.072973	0.377742
H75	H	1.367342	-0.192835	0.282372
H76	H	1.367335	-0.192850	0.091603
H77	H	1.251091	-0.073001	-0.003802
H78	H	1.134857	0.046861	0.091568
C79	C	0.929264	0.258834	0.241762
C80	C	0.862507	0.327735	0.296567
C81	C	0.795702	0.396600	0.241755
C82	C	0.795654	0.396566	0.132137
C83	C	0.862414	0.327663	0.077326
C84	C	0.929219	0.258797	0.132138
H85	H	0.862540	0.327763	0.377718
H86	H	0.746282	0.447607	0.282330
H87	H	0.746201	0.447544	0.091562
H88	H	0.862381	0.327635	-0.003825
H89	H	0.978639	0.207791	0.091562
H90	H	0.596960	0.280934	0.000074
C91	C	1.184362	-0.004102	0.758417
C92	C	1.149314	-0.074695	0.826943
C93	C	1.216117	-0.143560	0.881758
C94	C	1.317969	-0.141833	0.868048
C95	C	1.353022	-0.071237	0.799520
C96	C	1.286219	-0.002372	0.744704
H97	H	1.073913	-0.075977	0.837094
H98	H	1.190168	-0.195820	0.932487
H99	H	1.367420	-0.192811	0.908625
H100	H	1.428423	-0.069955	0.789368
H101	H	1.312168	0.049888	0.693975
H102	H	0.478453	0.278629	0.000073
C103	C	0.929313	0.258849	0.758416
C104	C	0.827461	0.257112	0.744733
C105	C	0.760662	0.325977	0.799539
C106	C	0.795716	0.396580	0.868028
C107	C	0.897573	0.398320	0.881714
C108	C	0.964372	0.329455	0.826908
H109	H	0.801507	0.204845	0.694030
H110	H	0.685260	0.324689	0.789407
H111	H	0.746267	0.447558	0.908598
H112	H	0.923527	0.450587	0.932417
H113	H	1.039774	0.330743	0.837040
H114	H	0.309188	0.275331	0.000099
H115	H	0.347403	-0.029481	0.000127
C116	C	0.533014	-0.049927	0.000115
C117	C	0.528882	-0.119487	0.082330
C118	C	0.591784	-0.210890	0.082329
C119	C	0.658818	-0.232734	0.000113
C120	C	0.662953	-0.163172	-0.082108
C121	C	0.600051	-0.071769	-0.082107
H122	H	0.479257	-0.103319	0.143196
H123	H	0.588723	-0.262384	0.143194
H124	H	0.705382	-0.300396	0.000112
H125	H	0.712578	-0.179340	-0.142975
H126	H	0.603112	-0.020275	-0.142973
H127	H	0.635162	-0.023871	0.000121
H128	H	1.166972	0.013782	0.436808
H129	H	0.946641	0.240958	0.563379
H130	H	0.946632	0.240946	0.436807
