data_functionalizedCrystal
_audit_creation_method	'MofGen! by Chris Wilmer'
_symmetry_space_group_name_H-M	'P1'
_symmetry_Int_Tables_number	1
_symmetry_cell_setting	triclinic
loop_
_symmetry_equiv_pos_as_xyz
  x,y,z
_cell_length_a	8.559649
_cell_length_b	10.489741
_cell_length_c	7.681481
_cell_angle_alpha	84.199479
_cell_angle_beta	94.913240
_cell_angle_gamma	77.158919
loop_
_atom_site_label
_atom_site_type_symbol
_atom_site_fract_x
_atom_site_fract_y
_atom_site_fract_z
O1	O	2.104681	-0.029684	-0.146400
O2	O	1.640234	0.036114	-0.146410
O3	O	1.883027	-0.183496	-0.146394
O4	O	1.861888	0.189927	-0.146416
O5	O	1.912910	-0.210581	0.146465
O6	O	1.670117	0.009029	0.146450
O7	O	2.134565	-0.056769	0.146459
Zn8	Zn	1.907085	-0.028170	0.192952
Zn9	Zn	1.867713	0.007516	-0.192903
O10	O	1.891771	0.162842	0.146444
C11	C	1.595703	0.027558	0.000019
C12	C	1.418493	0.042401	0.000015
C13	C	1.896372	-0.244402	0.000034
C14	C	1.891596	-0.385529	0.000031
C15	C	1.737113	-0.437401	0.000015
C16	C	1.824822	-0.550562	0.144412
C17	C	1.795396	-0.523837	-0.144325
C18	C	1.979381	-0.496842	0.144547
C19	C	1.949920	-0.470093	-0.144320
C20	C	2.037746	-0.583242	0.000112
C21	C	2.179095	-0.048212	0.000027
C22	C	2.356304	-0.063054	0.000019
C23	C	1.878426	0.223748	0.000011
C24	C	1.883201	0.364876	0.000003
N25	N	1.933968	-0.052526	0.456288
N26	N	1.840843	0.031861	-0.456239
H27	H	1.438631	-0.164693	0.000016
C28	C	1.308937	0.177995	0.000276
C29	C	1.354047	0.231882	0.150920
C30	C	1.253175	0.356793	0.151207
H31	H	1.200382	0.170476	0.000361
H32	H	1.318492	0.233705	-0.101800
H33	H	1.344477	0.176185	0.252970
H34	H	1.462585	0.239434	0.150867
H35	H	1.262730	0.412503	0.049131
H36	H	1.144626	0.349261	0.151287
H37	H	1.283778	0.393376	0.253408
H38	H	1.771914	-0.585981	0.266486
H39	H	2.164882	-0.646059	0.000195
C40	C	1.567783	-0.353468	0.000558
C41	C	1.503104	-0.394333	0.152101
C42	C	1.347136	-0.317034	0.152681
H43	H	1.501803	-0.363145	-0.100863
H44	H	1.571843	-0.263627	-0.000394
H45	H	1.499033	-0.484152	0.153036
H46	H	1.569037	-0.384652	0.253546
H47	H	1.351196	-0.227192	0.151729
H48	H	1.281171	-0.326716	0.051254
H49	H	1.303237	-0.344742	0.255508
H50	H	2.002772	-0.434635	-0.266400
C51	C	2.082962	-0.479704	0.307448
C52	C	2.086144	-0.346704	0.305620
C53	C	2.181521	-0.330860	0.455666
H54	H	2.189550	-0.530961	0.308022
H55	H	2.038889	-0.507900	0.409905
H56	H	2.130223	-0.318523	0.203190
H57	H	1.979581	-0.295419	0.305072
H58	H	2.137448	-0.359056	0.558124
H59	H	2.288102	-0.382123	0.456228
H60	H	2.183681	-0.240618	0.454455
H61	H	2.029047	-0.138659	0.531500
C62	C	1.691612	-0.540650	-0.307258
C63	C	1.630314	-0.417847	-0.407814
C64	C	1.534710	-0.433280	-0.557922
H65	H	1.604859	-0.576652	-0.272784
H66	H	1.755111	-0.598407	-0.375367
H67	H	1.566817	-0.360111	-0.339718
H68	H	1.717031	-0.381824	-0.442333
H69	H	1.598210	-0.491036	-0.626031
H70	H	1.447966	-0.469285	-0.523431
H71	H	1.493120	-0.349964	-0.626176
H72	H	1.745782	0.117995	0.468558
