data_functionalizedCrystal
_audit_creation_method	'MofGen! by Chris Wilmer'
_symmetry_space_group_name_H-M	'P1'
_symmetry_Int_Tables_number	1
_symmetry_cell_setting	triclinic
loop_
_symmetry_equiv_pos_as_xyz
  x,y,z
_cell_length_a	16.109302
_cell_length_b	16.109301
_cell_length_c	18.366186
_cell_angle_alpha	89.993749
_cell_angle_beta	89.989012
_cell_angle_gamma	83.461682
loop_
_atom_site_label
_atom_site_type_symbol
_atom_site_fract_x
_atom_site_fract_y
_atom_site_fract_z
O1	O	1.103137	0.106871	-0.060582
O2	O	1.436470	0.440205	0.272751
O3	O	1.769804	0.773538	0.606084
O4	O	0.861075	0.120170	-0.060577
O5	O	1.194408	0.453503	0.272757
O6	O	1.527742	0.786837	0.606090
O7	O	0.988756	-0.007510	-0.060575
O8	O	1.322089	0.325823	0.272758
O9	O	1.655422	0.659156	0.606092
O10	O	0.975456	0.234552	-0.060584
O11	O	1.308790	0.567885	0.272749
O12	O	1.642123	0.901218	0.606083
O13	O	0.988734	-0.007517	0.060525
O14	O	1.322067	0.325817	0.393858
O15	O	1.655401	0.659150	0.727191
O16	O	0.861053	0.120164	0.060523
O17	O	1.194387	0.453497	0.393856
O18	O	1.527720	0.786830	0.727189
O19	O	1.103115	0.106865	0.060517
O20	O	1.436449	0.440198	0.393850
O21	O	1.769782	0.773532	0.727184
Zn22	Zn	0.982081	0.113513	0.079747
Zn23	Zn	1.315414	0.446847	0.413080
Zn24	Zn	1.648748	0.780180	0.746414
Zn25	Zn	0.982109	0.113522	-0.079807
Zn26	Zn	1.315443	0.446855	0.253527
Zn27	Zn	1.648776	0.780188	0.586860
O28	O	0.975435	0.234545	0.060515
O29	O	1.308768	0.567879	0.393849
O30	O	1.642101	0.901212	0.727182
C31	C	0.830089	0.119628	-0.000026
C32	C	1.163423	0.452961	0.333307
C33	C	1.496756	0.786295	0.666640
C34	C	0.737794	0.118013	-0.000024
C35	C	1.071127	0.451346	0.333309
C36	C	1.404461	0.784679	0.666643
C37	C	0.525441	0.114274	0.065980
C38	C	0.858775	0.447607	0.399314
C39	C	1.192108	0.780941	0.732647
C40	C	0.438721	0.112747	0.065978
C41	C	0.772055	0.446081	0.399311
C42	C	1.105388	0.779414	0.732644
C43	C	0.438755	0.112758	-0.066051
C44	C	0.772089	0.446092	0.267282
C45	C	1.105422	0.779425	0.600615
C46	C	0.525475	0.114279	-0.066048
C47	C	0.858808	0.447612	0.267285
C48	C	1.192141	0.780946	0.600619
C49	C	0.568815	0.115041	-0.000030
C50	C	0.902148	0.448374	0.333303
C51	C	1.235481	0.781708	0.666637
C52	C	0.395375	0.111994	-0.000036
C53	C	0.728709	0.445327	0.333297
C54	C	1.062042	0.778660	0.666631
C55	C	0.301350	0.110338	-0.000039
C56	C	0.634683	0.443672	0.333294
C57	C	0.968016	0.777005	0.666628
C58	C	0.662847	0.116695	-0.000027
C59	C	0.996180	0.450028	0.333307
C60	C	1.329513	0.783362	0.666640
C61	C	0.988206	-0.038488	-0.000025
C62	C	1.321539	0.294845	0.333308
C63	C	1.654873	0.628178	0.666641
C64	C	0.986591	-0.130784	-0.000026
C65	C	1.319924	0.202550	0.333307
C66	C	1.653257	0.535883	0.666640
C67	C	1.057074	-0.439782	-0.000041
C68	C	1.390407	-0.106448	0.333293
C69	C	1.723740	0.226885	0.666626
C70	C	1.058599	-0.353062	-0.000036
C71	C	1.391933	-0.019728	0.333297
C72	C	1.725266	0.313605	0.666630
C73	C	0.907111	-0.333189	-0.000023
C74	C	1.240444	0.000145	0.333310
C75	C	1.573777	0.333478	0.666643
C76	C	0.905586	-0.419907	-0.000022
C77	C	1.238919	-0.086574	0.333311
C78	C	1.572253	0.246759	0.666645
C79	C	0.980570	-0.473202	-0.000035
C80	C	1.313904	-0.139869	0.333299
C81	C	1.647237	0.193465	0.666632
C82	C	0.983620	-0.299763	-0.000031
C83	C	1.316953	0.033570	0.333302
C84	C	1.650287	0.366904	0.666635
C85	C	0.985273	-0.205737	-0.000027
C86	C	1.318607	0.127596	0.333306
C87	C	1.651940	0.460930	0.666640
C88	C	0.978917	-0.567234	-0.000038
C89	C	1.312250	-0.233901	0.333296
C90	C	1.645584	0.099433	0.666629
C91	C	1.134101	0.107407	-0.000035
C92	C	1.467434	0.440740	0.333298
C93	C	1.800768	0.774073	0.666632
C94	C	1.226396	0.109022	-0.000042
C95	C	1.559730	0.442356	0.333291
C96	C	1.893063	0.775689	0.666625
C97	C	0.975984	0.265523	-0.000036
C98	C	1.309318	0.598857	0.333298
C99	C	1.642651	0.932190	0.666631
C100	C	0.977600	0.357819	-0.000040
C101	C	1.310933	0.691152	0.333294
C102	C	1.644266	1.024485	0.666627
N103	N	0.982067	0.113507	0.188638
N104	N	1.315401	0.446840	0.521971
N105	N	1.648734	0.780174	0.855305
N106	N	0.982129	0.113521	-0.188698
N107	N	1.315463	0.446854	0.144636
N108	N	1.648796	0.780188	0.477969
C109	C	1.038623	0.056998	0.226739
C110	C	1.371956	0.390331	0.560073
C111	C	1.705290	0.723665	0.893406
C112	C	1.038628	0.056994	0.302967
C113	C	1.371961	0.390328	0.636301
C114	C	1.705295	0.723661	0.969634
C115	C	0.982086	0.113514	0.341091
C116	C	1.315419	0.446847	0.674424
C117	C	1.648753	0.780181	1.007758
C118	C	0.925520	0.170027	0.302981
C119	C	1.258853	0.503361	0.636314
C120	C	1.592186	0.836694	0.969647
C121	C	0.925511	0.170024	0.226754
C122	C	1.258844	0.503357	0.560087
C123	C	1.592177	0.836690	0.893421
C124	C	0.971173	0.189236	0.461848
C125	C	1.304506	0.522570	0.795182
C126	C	1.637839	0.855903	1.128515
C127	C	0.971188	0.189241	0.538073
C128	C	1.304521	0.522574	0.871407
C129	C	1.637854	0.855908	1.204740
C130	C	0.982109	0.113524	0.576198
C131	C	1.315443	0.446858	0.909532
C132	C	1.648776	0.780191	1.242865
C133	C	0.993034	0.037800	0.538089
C134	C	1.326367	0.371133	0.871422
C135	C	1.659701	0.704467	1.204756
C136	C	0.993025	0.037797	0.461863
C137	C	1.326358	0.371130	0.795196
C138	C	1.659691	0.704463	1.128529
C139	C	0.982089	0.113524	0.423746
C140	C	1.315423	0.446857	0.757079
C141	C	1.648756	0.780190	1.090412
C142	C	1.038674	0.057007	0.696955
C143	C	1.372007	0.390340	1.030288
C144	C	1.705340	0.723673	1.363621
C145	C	1.038673	0.057002	0.773184
C146	C	1.372007	0.390335	1.106517
C147	C	1.705340	0.723669	1.439850
C148	C	0.925569	0.170042	0.773196
C149	C	1.258902	0.503375	1.106529
C150	C	1.592236	0.836709	1.439862
C151	C	0.925565	0.170040	0.696968
C152	C	1.258899	0.503373	1.030301
C153	C	1.592232	0.836706	1.363635
C154	C	0.982122	0.113523	0.658852
C155	C	1.315456	0.446856	0.992185
C156	C	1.648789	0.780190	1.325519
H157	H	0.403410	0.112123	0.119730
H158	H	0.736744	0.445456	0.453063
H159	H	1.070077	0.778789	0.786397
H160	H	0.560726	0.114894	0.119736
H161	H	0.894060	0.448228	0.453070
H162	H	1.227393	0.781561	0.786403
O163	O	0.392010	0.111949	-0.137255
O164	O	0.725343	0.445282	0.196078
O165	O	1.058676	0.778615	0.529411
H166	H	0.324420	0.110773	-0.126169
H167	H	0.657753	0.444106	0.207164
H168	H	0.991086	0.777439	0.540498
H169	H	1.001918	-0.023861	0.430837
H170	H	1.335251	0.309473	0.764171
H171	H	1.668584	0.642806	1.097504
O172	O	1.099640	-0.003953	0.344070
O173	O	1.432973	0.329381	0.677403
O174	O	1.766306	0.662714	1.010736
H175	H	1.064669	-0.044380	0.378812
H176	H	1.398003	0.288953	0.712146
H177	H	1.731336	0.622286	1.045479
H178	H	1.118131	-0.483172	-0.000051
H179	H	1.451464	-0.149839	0.333283
H180	H	1.784798	0.183494	0.666616
H181	H	1.084723	0.010985	0.665919
H182	H	1.418057	0.344318	0.999253
H183	H	1.751390	0.677651	1.332586
H184	H	1.084673	0.010977	0.195708
H185	H	1.418006	0.344310	0.529041
H186	H	1.751339	0.677644	0.862374
H187	H	0.560791	0.114902	-0.119805
H188	H	0.894124	0.448235	0.213528
H189	H	1.227457	0.781568	0.546862
H190	H	0.846061	-0.289786	-0.000015
H191	H	1.179395	0.043547	0.333319
H192	H	1.512728	0.376881	0.666652
H193	H	1.120896	-0.325856	-0.000040
H194	H	1.454229	0.007478	0.333293
H195	H	1.787563	0.340811	0.666627
O196	O	0.864586	0.231021	0.814292
O197	O	1.197919	0.564354	1.147626
O198	O	1.531253	0.897687	1.480959
H199	H	0.824187	0.196027	0.849044
H200	H	1.157521	0.529361	1.182377
H201	H	1.490854	0.862694	1.515710
O202	O	0.823066	-0.455959	-0.000009
O203	O	1.156399	-0.122626	0.333324
O204	O	1.489733	0.210707	0.666658
H205	H	0.818753	-0.494997	-0.049361
H206	H	1.152087	-0.161664	0.283972
H207	H	1.485420	0.171669	0.617306
H208	H	1.001927	-0.023856	0.569129
H209	H	1.335260	0.309478	0.902462
H210	H	1.668594	0.642811	1.235795
O211	O	1.099684	-0.003941	0.814285
O212	O	1.433017	0.329392	1.147618
O213	O	1.766350	0.662726	1.480951
H214	H	1.139015	-0.043230	0.774971
H215	H	1.472348	0.290104	1.108304
H216	H	1.805682	0.623437	1.441637
H217	H	0.962298	0.250900	0.569096
H218	H	1.295631	0.584233	0.902430
H219	H	1.628964	0.917567	1.235763
H220	H	0.879516	0.216058	0.665944
H221	H	1.212849	0.549391	0.999277
H222	H	1.546183	0.882725	1.332610
O223	O	0.959398	0.270907	0.420729
O224	O	1.292732	0.604240	0.754062
O225	O	1.626065	0.937573	1.087396
H226	H	0.951819	0.323561	0.460033
H227	H	1.285153	0.656894	0.793366
H228	H	1.618486	0.990228	1.126699
O229	O	0.864537	0.230994	0.344093
O230	O	1.197870	0.564328	0.677426
O231	O	1.531204	0.897661	1.010759
H232	H	0.874051	0.221511	0.403500
H233	H	1.207385	0.554844	0.736833
H234	H	1.540718	0.888178	1.070166
H235	H	0.879455	0.216041	0.195731
H236	H	1.212789	0.549374	0.529065
H237	H	1.546122	0.882708	0.862398
