data_functionalizedCrystal
_audit_creation_method	'MofGen! by Chris Wilmer'
_symmetry_space_group_name_H-M	'P1'
_symmetry_Int_Tables_number	1
_symmetry_cell_setting	triclinic
loop_
_symmetry_equiv_pos_as_xyz
  x,y,z
_cell_length_a	10.654555
_cell_length_b	13.330367
_cell_length_c	10.654550
_cell_angle_alpha	89.994849
_cell_angle_beta	95.514047
_cell_angle_gamma	89.995657
loop_
_atom_site_label
_atom_site_type_symbol
_atom_site_fract_x
_atom_site_fract_y
_atom_site_fract_z
O1	O	-1.667844	0.083362	0.176411
O2	O	-1.302366	0.083378	0.193210
O3	O	-1.493508	0.083363	0.002071
O4	O	-1.476702	0.083377	0.367549
O5	O	-1.493479	-0.083484	0.002102
O6	O	-1.302337	-0.083469	0.193241
O7	O	-1.667815	-0.083485	0.176441
Cu8	Cu	-1.485073	-0.098712	0.184844
Cu9	Cu	-1.485108	0.098604	0.184808
O10	O	-1.476673	-0.083471	0.367580
C11	C	-1.255554	-0.000044	0.191991
C12	C	-1.116111	-0.000038	0.188296
N13	N	-1.485058	-0.237493	0.184868
C14	C	-0.919581	0.090905	0.183078
C15	C	-1.050604	0.090909	0.186541
C16	C	-1.050590	-0.090996	0.186574
C17	C	-0.919571	-0.091000	0.183102
C18	C	-1.561954	-0.710106	0.261667
C19	C	-1.408298	-0.710094	0.107898
C20	C	-1.408280	-0.605076	0.107917
C21	C	-1.485102	-0.552568	0.184811
C22	C	-1.561942	-0.605078	0.261686
C23	C	-1.331451	-0.552558	0.031035
C24	C	-1.331431	-0.447533	0.031050
C25	C	-1.408247	-0.395023	0.107952
C26	C	-1.485089	-0.447540	0.184830
C27	C	-1.561911	-0.395031	0.261724
C28	C	-1.638747	-0.447546	0.338610
C29	C	-1.638757	-0.552568	0.338587
C30	C	-1.408236	-0.290001	0.107975
C31	C	-1.561898	-0.290003	0.261743
C32	C	-0.714627	-0.000058	0.177662
C33	C	-0.854069	-0.000046	0.181360
C34	C	-1.492259	-0.000060	-0.044711
C35	C	-1.488567	-0.000058	-0.184155
N36	N	-1.485133	0.237386	0.184773
C37	C	-1.601109	-0.000062	-0.263638
C38	C	-1.597632	-0.000050	-0.394659
C39	C	-1.369063	-0.000033	-0.366700
C40	C	-1.372541	-0.000038	-0.235682
C41	C	-1.477921	-0.000045	0.414363
C42	C	-1.481613	-0.000040	0.553806
H43	H	-0.866254	0.164965	0.181658
Br44	Br	-1.227200	-0.623822	-0.073314
Br45	Br	-1.139509	0.214349	0.188862
Br46	Br	-1.211607	-0.000003	-0.436638
H47	H	-1.103938	-0.165048	0.187995
Br48	Br	-1.758572	-0.000090	-0.193712
H49	H	-1.268866	-0.404784	-0.031554
Br50	Br	-0.830655	-0.214443	0.180762
H51	H	-1.624450	-0.247259	0.324366
Br52	Br	-1.750374	-0.000050	-0.502526
Br53	Br	-1.743014	-0.376273	0.442949
H54	H	-1.280891	-0.000032	-0.170962
Br55	Br	-1.303996	-0.218735	0.003610
Br56	Br	-1.743020	-0.623843	0.442928
Br57	Br	-1.304051	-0.781355	0.003542
Br58	Br	-1.666214	-0.781371	0.366020
