data_functionalizedCrystal
_audit_creation_method	'MofGen! by Chris Wilmer'
_symmetry_space_group_name_H-M	'P1'
_symmetry_Int_Tables_number	1
_symmetry_cell_setting	triclinic
loop_
_symmetry_equiv_pos_as_xyz
  x,y,z
_cell_length_a	18.101398
_cell_length_b	19.121063
_cell_length_c	18.101389
_cell_angle_alpha	92.419391
_cell_angle_beta	89.975673
_cell_angle_gamma	92.464489
loop_
_atom_site_label
_atom_site_type_symbol
_atom_site_fract_x
_atom_site_fract_y
_atom_site_fract_z
Zn1	Zn	1.119554	-0.279777	-0.431404
Zn2	Zn	1.452887	0.053556	-0.098071
Zn3	Zn	1.786221	0.386889	0.235263
Zn4	Zn	1.114175	-0.397213	-0.312837
Zn5	Zn	1.447508	-0.063880	0.020497
Zn6	Zn	1.780841	0.269454	0.353830
Zn7	Zn	0.995713	-0.279770	-0.307565
Zn8	Zn	1.329047	0.053563	0.025769
Zn9	Zn	1.662380	0.386897	0.359102
Zn10	Zn	0.990390	-0.397183	-0.436624
Zn11	Zn	1.323723	-0.063850	-0.103291
Zn12	Zn	1.657057	0.269484	0.230043
O13	O	1.054958	-0.338486	-0.372107
O14	O	1.388291	-0.005153	-0.038774
O15	O	1.721625	0.328181	0.294559
O16	O	1.222473	-0.295371	-0.415698
O17	O	1.555806	0.037962	-0.082364
O18	O	1.889139	0.371296	0.250969
O19	O	1.098437	-0.381644	-0.208505
O20	O	1.431771	-0.048310	0.124828
O21	O	1.765104	0.285023	0.458162
O22	O	1.016620	-0.181486	-0.319601
O23	O	1.349953	0.151847	0.013732
O24	O	1.683287	0.485181	0.347065
O25	O	1.218521	-0.381651	-0.328587
O26	O	1.551854	-0.048317	0.004747
O27	O	1.885187	0.285016	0.338080
O28	O	1.107605	-0.181491	-0.410586
O29	O	1.440938	0.151842	-0.077252
O30	O	1.774272	0.485175	0.256081
O31	O	1.011404	-0.295359	-0.204632
O32	O	1.344737	0.037975	0.128702
O33	O	1.678071	0.371308	0.462035
O34	O	0.891375	-0.295330	-0.324663
O35	O	1.224708	0.038004	0.008670
O36	O	1.558042	0.371337	0.342004
O37	O	1.007547	-0.381599	-0.539564
O38	O	1.340881	-0.048266	-0.206231
O39	O	1.674214	0.285067	0.127103
O40	O	0.887464	-0.381592	-0.419482
O41	O	1.220797	-0.048259	-0.086149
O42	O	1.554131	0.285074	0.247184
O43	O	1.102443	-0.295342	-0.535729
O44	O	1.435777	0.037991	-0.202396
O45	O	1.769110	0.371325	0.130938
O46	O	1.093276	-0.495494	-0.333648
O47	O	1.426609	-0.162161	-0.000315
O48	O	1.759942	0.171172	0.333019
O49	O	1.002331	-0.495472	-0.424594
O50	O	1.335665	-0.162139	-0.091261
O51	O	1.668998	0.171195	0.242073
C52	C	0.862549	-0.338457	-0.372067
C53	C	1.195882	-0.005124	-0.038734
C54	C	1.529215	0.328209	0.294599
C55	C	0.780234	-0.338462	-0.372069
C56	C	1.113568	-0.005129	-0.038735
C57	C	1.446901	0.328205	0.294598
C58	C	0.481141	-0.338506	-0.372133
C59	C	0.814475	-0.005173	-0.038800
C60	C	1.147808	0.328161	0.294534
C61	C	0.514915	-0.283961	-0.312742
C62	C	0.848248	0.049373	0.020591
C63	C	1.181581	0.382706	0.353924
C64	C	0.600526	-0.284107	-0.312506
C65	C	0.933860	0.049226	0.020828
C66	C	1.267193	0.382560	0.354161
C67	C	0.629525	-0.338484	-0.372101
C68	C	0.962858	-0.005150	-0.038768
C69	C	1.296192	0.328183	0.294566
C70	C	0.595084	-0.412466	-0.354099
C71	C	0.928417	-0.079133	-0.020766
C72	C	1.261750	0.254201	0.312568
C73	C	0.509452	-0.412163	-0.353690
C74	C	0.842786	-0.078830	-0.020356
C75	C	1.176119	0.254504	0.312977
C76	C	0.513600	-0.319712	-0.449688
C77	C	0.846934	0.013621	-0.116355
C78	C	1.180267	0.346954	0.216978
C79	C	0.599325	-0.318065	-0.449186
C80	C	0.932658	0.015269	-0.115853
C81	C	1.265992	0.348602	0.217480
C82	C	0.713385	-0.338476	-0.372084
C83	C	1.046718	-0.005142	-0.038751
C84	C	1.380052	0.328191	0.294582
C85	C	0.397281	-0.338519	-0.372148
C86	C	0.730615	-0.005186	-0.038814
C87	C	1.063948	0.328148	0.294519
C88	C	1.046662	-0.520967	-0.380276
C89	C	1.379996	-0.187634	-0.046942
C90	C	1.713329	0.145699	0.286391
C91	C	1.043181	-0.599034	-0.383795
C92	C	1.376514	-0.265700	-0.050462
C93	C	1.709848	0.067633	0.282872
C94	C	1.088932	-0.635698	-0.338137
C95	C	1.422265	-0.302364	-0.004804
C96	C	1.755599	0.030969	0.328530
C97	C	1.085662	-0.709049	-0.341451
C98	C	1.418996	-0.375716	-0.008118
C99	C	1.752329	-0.042382	0.325215
C100	C	1.036637	-0.745735	-0.390420
C101	C	1.369971	-0.412402	-0.057087
C102	C	1.703304	-0.079069	0.276246
C103	C	0.990884	-0.709066	-0.436083
C104	C	1.324218	-0.375733	-0.102750
C105	C	1.657551	-0.042400	0.230583
C106	C	0.994158	-0.635716	-0.432772
C107	C	1.327492	-0.302383	-0.099439
C108	C	1.660825	0.030951	0.233894
C109	C	1.024385	-0.967206	-0.402788
C110	C	1.357718	-0.633873	-0.069454
C111	C	1.691052	-0.300540	0.263879
C112	C	1.021113	-1.040562	-0.406094
C113	C	1.354446	-0.707228	-0.072760
C114	C	1.687779	-0.373895	0.260573
C115	C	1.115892	-1.040539	-0.311462
C116	C	1.449226	-0.707206	0.021871
C117	C	1.782559	-0.373873	0.355205
C118	C	1.119159	-0.967188	-0.308152
C119	C	1.452492	-0.633854	0.025181
C120	C	1.785825	-0.300521	0.358514
C121	C	1.073408	-0.930525	-0.353818
C122	C	1.406742	-0.597192	-0.020485
C123	C	1.740075	-0.263858	0.312849
C124	C	1.033292	-0.820713	-0.393807
C125	C	1.366626	-0.487379	-0.060474
C126	C	1.699959	-0.154046	0.272859
C127	C	1.076758	-0.855549	-0.350434
C128	C	1.410091	-0.522216	-0.017101
C129	C	1.743424	-0.188883	0.316233
C130	C	1.248119	-0.338515	-0.372148
C131	C	1.581452	-0.005182	-0.038815
C132	C	1.914785	0.328152	0.294519
C133	C	1.330432	-0.338528	-0.372165
C134	C	1.663765	-0.005194	-0.038832
C135	C	1.997099	0.328139	0.294502
C136	C	1.055002	-0.338468	-0.565269
C137	C	1.388335	-0.005135	-0.231935
C138	C	1.721668	0.328198	0.101398
C139	C	1.055020	-0.338461	-0.647582
C140	C	1.388353	-0.005127	-0.314249
C141	C	1.721687	0.328206	0.019084
C142	C	1.063306	-0.155292	-0.363923
C143	C	1.396640	0.178041	-0.030590
C144	C	1.729973	0.511375	0.302743
C145	C	1.066864	-0.077226	-0.360436
C146	C	1.400197	0.256108	-0.027102
C147	C	1.733531	0.589441	0.306231
C148	C	1.055069	-0.338329	-0.946668
C149	C	1.388403	-0.004996	-0.613334
C150	C	1.721736	0.328338	-0.280001
C151	C	0.995174	-0.392427	-0.917747
C152	C	1.328507	-0.059094	-0.584414
C153	C	1.661840	0.274239	-0.251081
C154	C	0.995318	-0.392678	-0.832140
C155	C	1.328651	-0.059345	-0.498807
C156	C	1.661984	0.273988	-0.165474
C157	C	1.055044	-0.338394	-0.798288
C158	C	1.388378	-0.005061	-0.464955
C159	C	1.721711	0.328272	-0.131621
C160	C	1.132167	-0.358491	-0.830296
C161	C	1.465500	-0.025158	-0.496963
C162	C	1.798834	0.308175	-0.163630
C163	C	1.131831	-0.358846	-0.915957
C164	C	1.465164	-0.025513	-0.582624
C165	C	1.798497	0.307820	-0.249290
C166	C	1.038526	-0.264013	-0.911754
C167	C	1.371859	0.069320	-0.578421
C168	C	1.705193	0.402653	-0.245088
C169	C	1.036771	-0.264443	-0.826122
C170	C	1.370104	0.068891	-0.492789
C171	C	1.703437	0.402224	-0.159456
C172	C	1.055035	-0.338430	-0.714430
C173	C	1.388368	-0.005097	-0.381097
C174	C	1.721702	0.328237	-0.047763
C175	C	1.055084	-0.338295	-1.030526
C176	C	1.388417	-0.004962	-0.697192
C177	C	1.721750	0.328372	-0.363859
C178	C	1.054959	-0.338453	-0.179695
C179	C	1.388293	-0.005120	0.153638
C180	C	1.721626	0.328214	0.486971
C181	C	1.055093	-0.338263	-0.097373
C182	C	1.388427	-0.004929	0.235960
C183	C	1.721760	0.328404	0.569294
H184	H	0.624031	-0.229245	-0.323408
H185	H	0.957365	0.104088	0.009925
H186	H	1.290698	0.437421	0.343258
H187	H	1.005969	-0.447763	-0.814132
H188	H	1.339303	-0.114430	-0.480799
H189	H	1.672636	0.218904	-0.147465
C190	C	1.193927	-0.307943	-0.941694
C191	C	1.527261	0.025391	-0.608360
C192	C	1.860594	0.358724	-0.275027
H193	H	1.219251	-0.287142	-0.899799
H194	H	1.552584	0.046191	-0.566466
H195	H	1.885918	0.379525	-0.233132
H196	H	1.173168	-0.272411	-0.969251
H197	H	1.506501	0.060923	-0.635918
H198	H	1.839834	0.394256	-0.302585
H199	H	1.227685	-0.332882	-0.971899
H200	H	1.561018	0.000451	-0.638565
H201	H	1.894352	0.333784	-0.305232
H202	H	1.116677	-0.825677	-0.310566
H203	H	1.450010	-0.492344	0.022767
H204	H	1.783343	-0.159011	0.356100
C205	C	0.490446	-0.209623	-0.327241
C206	C	0.823779	0.123710	0.006092
C207	C	1.157113	0.457044	0.339425
H208	H	0.459411	-0.211183	-0.369643
H209	H	0.792745	0.122150	-0.036310
H210	H	1.126078	0.455484	0.297024
H211	H	0.532766	-0.179850	-0.335423
H212	H	0.866099	0.153483	-0.002089
H213	H	1.199432	0.486817	0.331244
H214	H	0.464042	-0.191979	-0.285600
H215	H	0.797375	0.141354	0.047733
H216	H	1.130709	0.474687	0.381067
H217	H	0.613574	-0.454195	-0.396148
H218	H	0.946907	-0.120861	-0.062815
H219	H	1.280241	0.212472	0.270518
H220	H	0.937700	-0.379979	-0.937774
H221	H	1.271033	-0.046646	-0.604441
H222	H	1.604366	0.286687	-0.271108
C223	C	1.091765	-0.207100	-0.794668
C224	C	1.425099	0.126234	-0.461335
C225	C	1.758432	0.459567	-0.128001
H226	H	1.126750	-0.227601	-0.764016
H227	H	1.460083	0.105732	-0.430683
H228	H	1.793416	0.439066	-0.097349
H229	H	1.065714	-0.173211	-0.766388
H230	H	1.399048	0.160122	-0.433054
H231	H	1.732381	0.493455	-0.099721
H232	H	1.116777	-0.185118	-0.834202
H233	H	1.450110	0.148215	-0.500869
H234	H	1.783443	0.481548	-0.167536
C235	C	0.487680	-0.248104	-0.472669
C236	C	0.821014	0.085229	-0.139336
C237	C	1.154347	0.418563	0.193998
H238	H	0.507884	-0.237762	-0.519611
H239	H	0.841217	0.095571	-0.186278
H240	H	1.174551	0.428904	0.147056
H241	H	0.503931	-0.212853	-0.437078
H242	H	0.837264	0.120480	-0.103744
H243	H	1.170598	0.453814	0.229589
H244	H	0.435229	-0.249524	-0.475503
H245	H	0.768563	0.083809	-0.142170
H246	H	1.101896	0.417143	0.191163
H247	H	0.983441	-0.245705	-0.932518
H248	H	1.316775	0.087629	-0.599185
H249	H	1.650108	0.420962	-0.265851
H250	H	0.956904	-0.605865	-0.469953
H251	H	1.290237	-0.272532	-0.136620
H252	H	1.623571	0.060802	0.196714
H253	H	0.622115	-0.263622	-0.462821
H254	H	0.955448	0.069711	-0.129487
H255	H	1.288781	0.403045	0.203846
H256	H	1.128850	-0.605832	-0.298258
H257	H	1.462184	-0.272499	0.035075
H258	H	1.795517	0.060834	0.368409
H259	H	0.993375	-0.850591	-0.433677
H260	H	1.326708	-0.517257	-0.100343
H261	H	1.660041	-0.183924	0.232990
C262	C	0.917923	-0.375680	-0.802960
C263	C	1.251257	-0.042346	-0.469626
C264	C	1.584590	0.290987	-0.136293
H265	H	0.886109	-0.368562	-0.843439
H266	H	1.219443	-0.035229	-0.510106
H267	H	1.552776	0.298104	-0.176772
H268	H	0.921366	-0.334397	-0.771850
H269	H	1.254699	-0.001064	-0.438516
H270	H	1.588032	0.332270	-0.105183
H271	H	0.898539	-0.413603	-0.775599
H272	H	1.231873	-0.080269	-0.442266
H273	H	1.565206	0.253064	-0.108932
C274	C	1.166218	-1.080870	-0.261240
C275	C	1.499551	-0.747536	0.072093
C276	C	1.832885	-0.414203	0.405426
H277	H	1.157253	-1.129809	-0.270228
H278	H	1.490587	-0.796475	0.063106
H279	H	1.823920	-0.463142	0.396439
H280	H	1.155947	-1.068881	-0.210930
H281	H	1.489281	-0.735548	0.122404
H282	H	1.822614	-0.402214	0.455737
H283	H	1.216510	-1.068807	-0.271592
H284	H	1.549843	-0.735474	0.061741
H285	H	1.883177	-0.402140	0.395075
C286	C	1.097503	-0.209560	-0.936709
C287	C	1.430837	0.123773	-0.603376
C288	C	1.764170	0.457107	-0.270042
H289	H	1.132045	-0.231968	-0.968250
H290	H	1.465378	0.101366	-0.634917
H291	H	1.798712	0.434699	-0.301583
H292	H	1.122513	-0.188816	-0.894608
H293	H	1.455846	0.144517	-0.561275
H294	H	1.789179	0.477851	-0.227942
H295	H	1.074334	-0.174310	-0.962684
H296	H	1.407667	0.159023	-0.629351
H297	H	1.741000	0.492357	-0.296017
C298	C	0.936956	-0.749419	-0.489946
C299	C	1.270290	-0.416086	-0.156613
C300	C	1.603623	-0.082753	0.176720
H301	H	0.941552	-0.798356	-0.485374
H302	H	1.274886	-0.465022	-0.152041
H303	H	1.608219	-0.131689	0.181293
H304	H	0.948300	-0.737368	-0.539173
H305	H	1.281634	-0.404034	-0.205839
H306	H	1.614967	-0.070701	0.127494
H307	H	0.887738	-0.737436	-0.478510
H308	H	1.221071	-0.404103	-0.145177
H309	H	1.554404	-0.070769	0.188157
C310	C	0.625990	-0.367831	-0.511806
C311	C	0.959323	-0.034498	-0.178473
C312	C	1.292657	0.298836	0.154861
H313	H	0.656021	-0.401868	-0.491667
H314	H	0.989354	-0.068534	-0.158334
H315	H	1.322687	0.264799	0.174999
H316	H	0.653940	-0.341714	-0.546421
H317	H	0.987273	-0.008381	-0.213088
H318	H	1.320607	0.324953	0.120246
H319	H	0.584451	-0.390632	-0.535953
H320	H	0.917784	-0.057298	-0.202620
H321	H	1.251118	0.276035	0.130713
C322	C	1.009396	-0.466387	-0.950154
C323	C	1.342729	-0.133054	-0.616820
C324	C	1.676063	0.200280	-0.283487
H325	H	1.051680	-0.464441	-0.981228
H326	H	1.385013	-0.131107	-0.647895
H327	H	1.718347	0.202226	-0.314561
H328	H	0.967613	-0.483605	-0.978167
H329	H	1.300946	-0.150272	-0.644833
H330	H	1.634280	0.183062	-0.311500
H331	H	1.017683	-0.496741	-0.911056
H332	H	1.351017	-0.163408	-0.577723
H333	H	1.684350	0.169925	-0.244389
C334	C	0.623018	-0.434373	-0.278491
C335	C	0.956351	-0.101040	0.054843
C336	C	1.289685	0.232294	0.388176
H337	H	0.655656	-0.398538	-0.257797
H338	H	0.988990	-0.065204	0.075536
H339	H	1.322323	0.268129	0.408870
H340	H	0.648464	-0.476641	-0.284724
H341	H	0.981798	-0.143307	0.048609
H342	H	1.315131	0.190026	0.381942
H343	H	0.582161	-0.441440	-0.246298
H344	H	0.915494	-0.108106	0.087036
H345	H	1.248827	0.225227	0.420369
H346	H	0.491559	-0.359441	-0.493899
H347	H	0.824893	-0.026108	-0.160566
H348	H	1.158226	0.307225	0.172768
H349	H	1.122917	-0.738898	-0.304271
H350	H	1.456251	-0.405564	0.029062
H351	H	1.789584	-0.072231	0.362396
C352	C	1.151295	-0.432235	-0.946253
C353	C	1.484629	-0.098902	-0.612920
C354	C	1.817962	0.234432	-0.279586
H355	H	1.159329	-0.461552	-0.906196
H356	H	1.492663	-0.128219	-0.572863
H357	H	1.825996	0.205114	-0.239529
H358	H	1.194884	-0.428672	-0.975335
H359	H	1.528218	-0.095339	-0.642001
H360	H	1.861551	0.237994	-0.308668
H361	H	1.111667	-0.451764	-0.975908
H362	H	1.445001	-0.118430	-0.642575
H363	H	1.778334	0.214903	-0.309242
H364	H	1.159079	-0.937319	-0.268278
H365	H	1.492412	-0.603986	0.065055
H366	H	1.825745	-0.270653	0.398389
H367	H	0.486843	-0.454179	-0.395241
H368	H	0.820176	-0.120846	-0.061908
H369	H	1.153510	0.212488	0.271425
C370	C	0.967189	-1.080916	-0.459968
C371	C	1.300523	-0.747582	-0.126635
C372	C	1.633856	-0.414249	0.206698
H373	H	0.940416	-1.048576	-0.486697
H374	H	1.273750	-0.715243	-0.153364
H375	H	1.607083	-0.381909	0.179970
H376	H	0.933658	-1.109567	-0.432903
H377	H	1.266991	-0.776234	-0.099570
H378	H	1.600324	-0.442900	0.233763
H379	H	0.994235	-1.109493	-0.493551
H380	H	1.327568	-0.776160	-0.160218
H381	H	1.660902	-0.442826	0.173116
H382	H	1.177847	-0.320327	-0.808236
H383	H	1.511180	0.013006	-0.474903
H384	H	1.844514	0.346340	-0.141570
C385	C	0.974049	-0.926887	-0.453005
C386	C	1.307382	-0.593553	-0.119672
C387	C	1.640715	-0.260220	0.213662
H388	H	0.944376	-0.959243	-0.482634
H389	H	1.277709	-0.625910	-0.149300
H390	H	1.611042	-0.292576	0.184033
H391	H	1.003627	-0.898233	-0.484013
H392	H	1.336961	-0.564900	-0.150680
H393	H	1.670294	-0.231567	0.182654
H394	H	0.943072	-0.898314	-0.423343
H395	H	1.276406	-0.564980	-0.090010
H396	H	1.609739	-0.231647	0.243324
C397	C	1.152068	-0.431103	-0.804601
C398	C	1.485402	-0.097769	-0.471268
C399	C	1.818735	0.235564	-0.137934
H400	H	1.113483	-0.449268	-0.774380
H401	H	1.446817	-0.115934	-0.441047
H402	H	1.780150	0.217399	-0.107713
H403	H	1.196820	-0.426930	-0.777070
H404	H	1.530153	-0.093596	-0.443736
H405	H	1.863487	0.239737	-0.110403
H406	H	1.158162	-0.461914	-0.846509
H407	H	1.491496	-0.128581	-0.513175
H408	H	1.824829	0.204753	-0.179842
H409	H	0.980032	-0.249287	-0.805110
H410	H	1.313365	0.084046	-0.471777
H411	H	1.646698	0.417379	-0.138443
H412	H	0.620422	-0.296530	-0.254971
H413	H	0.953755	0.036803	0.078363
H414	H	1.287089	0.370137	0.411696
C415	C	0.485057	-0.300541	-0.235464
C416	C	0.818390	0.032792	0.097869
C417	C	1.151724	0.366126	0.431203
H418	H	0.505735	-0.267338	-0.199912
H419	H	0.839068	0.065995	0.133421
H420	H	1.172401	0.399328	0.466754
H421	H	0.498274	-0.346267	-0.223526
H422	H	0.831607	-0.012934	0.109807
H423	H	1.164941	0.320400	0.443140
H424	H	0.432736	-0.298234	-0.235276
H425	H	0.766069	0.035099	0.098057
H426	H	1.099403	0.368432	0.431390
C427	C	0.481447	-0.433688	-0.277231
C428	C	0.814780	-0.100355	0.056103
C429	C	1.148114	0.232979	0.389436
H430	H	0.522408	-0.442532	-0.246711
H431	H	0.855741	-0.109198	0.086622
H432	H	1.189075	0.224135	0.419956
H433	H	0.450356	-0.474879	-0.282759
H434	H	0.783689	-0.141546	0.050574
H435	H	1.117022	0.191787	0.383907
H436	H	0.454311	-0.396921	-0.255044
H437	H	0.787645	-0.063588	0.078290
H438	H	1.120978	0.269746	0.411623
