data_functionalizedCrystal
_audit_creation_method	'MofGen! by Chris Wilmer'
_symmetry_space_group_name_H-M	'P1'
_symmetry_Int_Tables_number	1
_symmetry_cell_setting	triclinic
loop_
_symmetry_equiv_pos_as_xyz
  x,y,z
_cell_length_a	13.330367
_cell_length_b	10.654550
_cell_length_c	10.654551
_cell_angle_alpha	95.514868
_cell_angle_beta	90.001782
_cell_angle_gamma	89.988924
loop_
_atom_site_label
_atom_site_type_symbol
_atom_site_fract_x
_atom_site_fract_y
_atom_site_fract_z
O1	O	0.083499	-1.667848	0.176398
O2	O	0.083482	-1.302369	0.193204
O3	O	0.083492	-1.493511	0.002062
O4	O	0.083490	-1.476706	0.367540
O5	O	-0.083355	-1.493483	0.002057
O6	O	-0.083365	-1.302341	0.193199
O7	O	-0.083348	-1.667820	0.176393
Cu8	Cu	-0.098591	-1.485078	0.184796
Cu9	Cu	0.098725	-1.485111	0.184801
O10	O	-0.083357	-1.476678	0.367535
C11	C	0.000057	-1.255557	0.191968
C12	C	0.000051	-1.116114	0.188276
N13	N	-0.237372	-1.485064	0.184791
C14	C	0.000070	-1.492263	-0.044739
C15	C	0.000077	-1.488570	-0.184182
C16	C	-0.709999	-1.400469	0.269405
C17	C	-0.709959	-1.569786	0.100187
C18	C	-0.604941	-1.569772	0.100183
C19	C	-0.552447	-1.485106	0.184793
C20	C	-0.604971	-1.400455	0.269407
C21	C	-0.552408	-1.654430	0.015580
C22	C	-0.447384	-1.654420	0.015574
C23	C	-0.394888	-1.569748	0.100178
C24	C	-0.447419	-1.485092	0.184794
C25	C	-0.394925	-1.400427	0.269404
C26	C	-0.447454	-1.315764	0.354015
C27	C	-0.552475	-1.315783	0.354011
C28	C	-0.289866	-1.569729	0.100182
C29	C	-0.289897	-1.400412	0.269405
N30	N	0.237507	-1.485135	0.184796
C31	C	0.000080	-1.714632	0.177629
C32	C	0.000093	-1.854075	0.181321
C33	C	0.000065	-1.036629	0.300817
C34	C	0.000082	-0.905608	0.297341
C35	C	0.000076	-0.933570	0.068771
C36	C	0.000051	-1.064589	0.072249
C37	C	0.000064	-1.088154	0.416844
C38	C	0.000080	-1.008667	0.529395
C39	C	0.000097	-0.877647	0.525918
C40	C	0.000099	-0.826112	0.409891
C41	C	0.091024	-1.486853	-0.249691
C42	C	0.091019	-1.483373	-0.380712
C43	C	-0.090887	-1.483332	-0.380702
C44	C	-0.090881	-1.486803	-0.249683
C45	C	0.181982	-1.488620	-0.184190
C46	C	0.272936	-1.486905	-0.249700
C47	C	0.272931	-1.483424	-0.380720
C48	C	0.181972	-1.481660	-0.446231
C49	C	0.000066	-1.477926	0.414336
C50	C	0.000066	-1.481619	0.553779
H51	H	-0.404701	-1.246834	0.422910
H52	H	-0.164938	-1.488174	-0.196341
H53	H	0.181976	-1.478807	-0.552914
H54	H	-0.752771	-1.331535	0.338291
C55	C	0.000049	-1.152027	-0.051543
H56	H	0.000071	-1.102578	-0.121142
H57	H	-0.058140	-1.203694	-0.054943
H58	H	0.058234	-1.203742	-0.054925
H59	H	0.181996	-1.491457	-0.077507
C60	C	-0.232084	-1.662844	0.007127
H61	H	-0.162018	-1.650715	0.019248
H62	H	-0.249303	-1.648493	-0.076823
H63	H	-0.249273	-1.746783	0.021563
C64	C	-0.610258	-1.222676	0.447083
H65	H	-0.680323	-1.234824	0.434973
H66	H	-0.593075	-1.138736	0.432673
H67	H	-0.593038	-1.237052	0.531033
C68	C	0.000092	-0.876884	-0.058846
H69	H	0.000120	-0.787470	-0.044798
H70	H	-0.058093	-0.904065	-0.105241
H71	H	0.058281	-0.904133	-0.105224
H72	H	-0.404621	-1.723355	-0.053322
H73	H	0.346991	-1.488329	-0.196351
H74	H	-0.595152	-1.723369	-0.053301
C75	C	-0.767699	-1.662910	0.007126
H76	H	-0.837770	-1.650791	0.019240
H77	H	-0.750466	-1.746843	0.021538
H78	H	-0.750497	-1.648531	-0.076826
C79	C	0.372973	-1.481539	-0.452778
H80	H	0.427141	-1.483099	-0.395000
H81	H	0.376759	-1.407078	-0.494950
H82	H	0.376747	-1.553305	-0.512828
C83	C	0.000041	-1.232271	0.420673
H84	H	0.000035	-1.251576	0.505889
H85	H	0.058215	-1.267104	0.379245
H86	H	-0.058159	-1.267041	0.379260
H87	H	0.000069	-1.050636	0.623860
C88	C	0.000113	-0.790215	0.649715
H89	H	0.000116	-0.839671	0.719309
H90	H	-0.058061	-0.738492	0.653118
H91	H	0.058313	-0.738557	0.653103
C92	C	0.000122	-0.681992	0.406068
H93	H	0.000135	-0.642031	0.489712
H94	H	-0.058054	-0.657481	0.363071
H95	H	0.058320	-0.657552	0.363079
H96	H	-0.164941	-1.481896	-0.434051
H97	H	-0.247162	-1.331463	0.338300
