data_functionalizedCrystal
_audit_creation_method	'MofGen! by Chris Wilmer'
_symmetry_space_group_name_H-M	'P1'
_symmetry_Int_Tables_number	1
_symmetry_cell_setting	triclinic
loop_
_symmetry_equiv_pos_as_xyz
  x,y,z
_cell_length_a	14.519731
_cell_length_b	17.019294
_cell_length_c	12.996460
_cell_angle_alpha	86.114884
_cell_angle_beta	89.994327
_cell_angle_gamma	83.541199
loop_
_atom_site_label
_atom_site_type_symbol
_atom_site_fract_x
_atom_site_fract_y
_atom_site_fract_z
O1	O	1.223521	0.103487	-0.094737
O2	O	0.955008	0.115647	-0.095816
O3	O	1.096755	-0.005255	-0.085098
O4	O	1.081774	0.224389	-0.105455
O5	O	1.096740	-0.005262	0.086037
O6	O	0.954993	0.115640	0.075319
O7	O	1.223506	0.103480	0.076398
Cu8	Cu	1.089248	0.109560	0.091484
Cu9	Cu	1.089266	0.109568	-0.110902
O10	O	1.081759	0.224382	0.065679
C11	C	0.920643	0.115074	-0.010198
C12	C	0.818268	0.113367	-0.010047
C13	C	0.735128	0.111979	-0.009929
C14	C	0.630825	0.110246	-0.009775
C15	C	0.547691	0.108870	-0.009653
C16	C	0.443381	0.107137	-0.009502
C17	C	1.096179	-0.034648	0.003073
C18	C	1.094475	-0.122221	0.010829
C19	C	1.093684	-0.163355	-0.078811
C20	C	1.092077	-0.245639	-0.071520
C21	C	1.091267	-0.286788	0.025413
C22	C	1.092055	-0.245648	0.115060
C23	C	1.093655	-0.163365	0.107768
C24	C	1.086428	-0.535228	0.052098
C25	C	1.084830	-0.617517	0.059384
C26	C	1.084850	-0.617502	-0.127197
C27	C	1.086457	-0.535219	-0.134481
C28	C	1.087239	-0.494085	-0.044834
C29	C	1.089627	-0.370895	0.032868
C30	C	1.088873	-0.409979	-0.052290
C31	C	1.257871	0.104054	-0.009222
C32	C	1.360246	0.105761	-0.009380
C33	C	1.082335	0.253776	-0.022493
C34	C	1.084039	0.341349	-0.030257
N35	N	1.089243	0.109554	0.233832
N36	N	1.089279	0.109568	-0.253249
C37	C	1.089264	0.109569	0.653645
C38	C	1.089256	0.109567	0.536840
C39	C	1.089254	0.109562	0.443742
C40	C	1.089244	0.109559	0.326930
H41	H	1.094349	-0.129858	-0.157744
H42	H	1.089526	-0.376471	-0.131212
H43	H	1.088970	-0.404408	0.111792
O44	O	1.084099	-0.657339	-0.214377
C45	C	1.084163	-0.648625	-0.400210
C46	C	1.085058	-0.603419	-0.301557
H47	H	1.084918	-0.605048	-0.470720
H48	H	1.147925	-0.694261	-0.400932
H49	H	1.018909	-0.680034	-0.402008
H50	H	1.150270	-0.571962	-0.299695
H51	H	1.021252	-0.557827	-0.300875
H52	H	1.084165	-0.651018	0.138322
O53	O	1.091393	-0.285483	-0.158699
C54	C	1.091620	-0.276789	-0.344530
C55	C	1.092396	-0.231569	-0.245879
H56	H	1.092411	-0.233217	-0.415040
H57	H	1.155410	-0.322402	-0.345181
H58	H	1.026392	-0.308228	-0.346397
H59	H	1.157581	-0.200082	-0.243947
H60	H	1.028563	-0.186001	-0.245267
O61	O	1.086970	-0.495194	-0.228628
C62	C	1.008559	-0.393664	-0.345917
C63	C	1.007966	-0.438886	-0.239228
H64	H	0.944681	-0.348140	-0.354530
H65	H	1.073711	-0.362137	-0.353612
H66	H	1.007696	-0.437283	-0.408630
H67	H	1.008795	-0.395320	-0.176451
H68	H	0.942819	-0.470425	-0.231622
H69	H	1.087083	-0.501750	0.125096
H70	H	1.094286	-0.129873	0.180763
O71	O	1.091310	-0.285744	0.209141
C72	C	1.088796	-0.412504	0.303067
C73	C	1.089652	-0.367198	0.196454
H74	H	1.087435	-0.478366	0.292846
H75	H	1.153630	-0.403508	0.348284
H76	H	1.024615	-0.389163	0.347005
H77	H	1.153789	-0.390510	0.152431
H78	H	1.024775	-0.376193	0.151315
