data_functionalizedCrystal
_audit_creation_method	'MofGen! by Chris Wilmer'
_symmetry_space_group_name_H-M	'P1'
_symmetry_Int_Tables_number	1
_symmetry_cell_setting	triclinic
loop_
_symmetry_equiv_pos_as_xyz
  x,y,z
_cell_length_a	14.853566
_cell_length_b	14.853559
_cell_length_c	16.776229
_cell_angle_alpha	89.995543
_cell_angle_beta	89.995710
_cell_angle_gamma	83.632934
loop_
_atom_site_label
_atom_site_type_symbol
_atom_site_fract_x
_atom_site_fract_y
_atom_site_fract_z
O1	O	1.196365	0.117701	-0.066232
O2	O	0.933905	0.131724	-0.066244
O3	O	1.072150	-0.006518	-0.066237
O4	O	1.058120	0.255943	-0.066239
O5	O	1.072131	-0.006526	0.066340
O6	O	0.933887	0.131715	0.066332
O7	O	1.196347	0.117693	0.066345
Zn8	Zn	1.065114	0.124703	0.087388
Zn9	Zn	1.065138	0.124714	-0.087287
O10	O	1.058102	0.255934	0.066337
C11	C	0.900307	0.131085	0.000042
C12	C	0.800223	0.129181	0.000037
C13	C	0.377049	0.121135	-0.072216
C14	C	0.377050	0.121126	0.072324
C15	C	0.471084	0.122914	0.072322
C16	C	0.518105	0.123813	0.000049
C17	C	0.471091	0.122925	-0.072221
C18	C	0.518103	0.123811	0.144590
C19	C	0.612143	0.125599	0.144591
C20	C	0.659166	0.126493	0.072317
C21	C	0.612147	0.125604	0.000045
C22	C	0.659168	0.126503	-0.072228
C23	C	0.612151	0.125608	-0.144502
C24	C	0.518114	0.123818	-0.144494
C25	C	0.753203	0.128282	0.072310
C26	C	0.753210	0.128293	-0.072233
C27	C	1.071506	-0.040111	0.000050
C28	C	1.069605	-0.140195	0.000045
C29	C	1.061552	-0.563365	-0.072222
C30	C	1.061532	-0.563369	0.072318
C31	C	1.063325	-0.469336	0.072318
C32	C	1.064230	-0.422313	0.000048
C33	C	1.063343	-0.469323	-0.072224
C34	C	1.064204	-0.422318	0.144588
C35	C	1.065996	-0.328278	0.144592
C36	C	1.066908	-0.281254	0.072321
C37	C	1.066021	-0.328270	0.000046
C38	C	1.066927	-0.281247	-0.072225
C39	C	1.066046	-0.328262	-0.144500
C40	C	1.064255	-0.422299	-0.144496
C41	C	1.068700	-0.187218	0.072316
C42	C	1.068718	-0.187205	-0.072226
C43	C	1.229945	0.118332	0.000057
C44	C	1.330028	0.120236	0.000056
C45	C	1.058745	0.289528	0.000049
C46	C	1.060646	0.389612	0.000048
N47	N	1.065104	0.124695	0.206599
N48	N	1.065155	0.124715	-0.206499
C49	C	1.126337	0.063506	0.248320
C50	C	1.126342	0.063506	0.331772
C51	C	1.065117	0.124698	0.373502
C52	C	1.003877	0.185889	0.331776
C53	C	1.003869	0.185885	0.248325
C54	C	1.003910	0.185907	0.668323
C55	C	1.003925	0.185908	0.751780
C56	C	1.126384	0.063528	0.751770
C57	C	1.126375	0.063523	0.668319
C58	C	1.065132	0.124711	0.626600
C59	C	1.065126	0.124710	0.536112
C60	C	1.065127	0.124704	0.463989
H61	H	0.791478	0.129020	0.131154
N62	N	1.192395	-0.002473	0.376780
H63	H	1.232337	0.032075	0.411392
H64	H	1.157844	-0.042439	0.411371
H65	H	1.060788	-0.601660	0.131157
N66	N	1.060601	-0.614065	-0.150174
H67	H	1.116761	-0.604934	-0.181763
H68	H	1.059299	-0.680753	-0.139145
N69	N	0.662864	0.126579	-0.222454
H70	H	0.694636	0.183167	-0.225676
H71	H	0.709077	0.071444	-0.225625
N72	N	1.063271	-0.473005	-0.222442
H73	H	1.064112	-0.428949	-0.268227
H74	H	1.118363	-0.519273	-0.225599
N75	N	1.063248	-0.473035	0.222533
H76	H	1.061994	-0.539742	0.211565
H77	H	1.119408	-0.463828	0.254080
N78	N	0.937842	0.251897	0.376777
H79	H	0.873847	0.241394	0.362266
H80	H	0.947217	0.242588	0.435960
H81	H	1.066717	-0.290007	0.203443
H82	H	0.954005	0.235709	0.214357
N83	N	1.066936	-0.277530	-0.222448
H84	H	1.068173	-0.210821	-0.211476
H85	H	1.122447	-0.301162	-0.254054
N86	N	1.069684	-0.136463	-0.150164
H87	H	1.125217	-0.160048	-0.181767
H88	H	1.013495	-0.145595	-0.181697
N89	N	1.192413	-0.002473	0.623310
H90	H	1.231206	-0.041238	0.662403
H91	H	1.157849	-0.042393	0.588696
N92	N	0.467393	0.122864	-0.222435
H93	H	0.476520	0.179020	-0.254031
H94	H	0.491014	0.067299	-0.253972
H95	H	1.069396	-0.148940	0.131162
H96	H	0.791488	0.129023	-0.131086
H97	H	1.176197	0.013680	0.214348
N98	N	1.192438	-0.002470	0.796769
H99	H	1.157953	-0.042457	0.831402
H100	H	1.231209	-0.041169	0.757619
N101	N	0.937882	0.251906	0.796792
H102	H	0.899079	0.290665	0.757701
H103	H	0.898001	0.217308	0.831426
H104	H	0.954046	0.235730	0.634362
H105	H	0.338764	0.120402	-0.131059
H106	H	0.650416	0.126327	0.203440
H107	H	0.338760	0.120400	0.131165
N108	N	0.467394	0.122851	0.222538
H109	H	0.400536	0.122825	0.211581
H110	H	0.490219	0.066689	0.253622
