data_functionalizedCrystal
_audit_creation_method	'MofGen! by Chris Wilmer'
_symmetry_space_group_name_H-M	'P1'
_symmetry_Int_Tables_number	1
_symmetry_cell_setting	triclinic
loop_
_symmetry_equiv_pos_as_xyz
  x,y,z
_cell_length_a	27.731993
_cell_length_b	19.188940
_cell_length_c	18.266242
_cell_angle_alpha	89.993204
_cell_angle_beta	90.002496
_cell_angle_gamma	82.884554
loop_
_atom_site_label
_atom_site_type_symbol
_atom_site_fract_x
_atom_site_fract_y
_atom_site_fract_z
O1	O	0.641203	0.082897	-0.060685
O2	O	1.141203	0.582897	0.439315
O3	O	0.500445	0.095569	-0.060730
O4	O	1.000445	0.595569	0.439270
O5	O	0.574883	-0.012449	-0.060700
O6	O	1.074883	0.487551	0.439300
O7	O	0.566764	0.190915	-0.060714
O8	O	1.066764	0.690915	0.439286
O9	O	0.574871	-0.012455	0.061062
O10	O	1.074871	0.487545	0.561062
O11	O	0.500432	0.095564	0.061032
O12	O	1.000432	0.595564	0.561032
O13	O	0.641190	0.082892	0.061077
O14	O	1.141190	0.582892	0.561077
Zn15	Zn	0.570809	0.089227	0.080387
Zn16	Zn	1.070809	0.589227	0.580387
Zn17	Zn	0.570826	0.089234	-0.080040
Zn18	Zn	1.070826	0.589234	0.419960
O19	O	0.566752	0.190910	0.061048
O20	O	1.066752	0.690910	0.561048
C21	C	0.574613	-0.038461	0.000180
C22	C	1.074613	0.461539	0.500180
C23	C	0.573822	-0.115960	0.000180
C24	C	1.073822	0.384040	0.500180
C25	C	0.482430	0.095306	0.000146
C26	C	0.982430	0.595306	0.500146
C27	C	0.428772	0.094523	0.000129
C28	C	0.928772	0.594523	0.500129
C29	C	0.568183	-0.669185	0.066533
C30	C	1.068183	-0.169185	0.566533
C31	C	0.568922	-0.596365	0.066537
C32	C	1.068922	-0.096365	0.566537
C33	C	0.569300	-0.559945	0.000166
C34	C	1.069300	-0.059945	0.500166
C35	C	0.568927	-0.596348	-0.066215
C36	C	1.068927	-0.096348	0.433785
C37	C	0.568184	-0.669165	-0.066217
C38	C	1.068184	-0.169165	0.433783
N39	N	0.597979	-0.451110	-0.049227
N40	N	1.097979	0.048890	0.450773
N41	N	0.598686	-0.381937	-0.049220
N42	N	1.098686	0.118063	0.450780
C43	C	0.571539	-0.340551	0.000169
C44	C	1.071539	0.159449	0.500169
N45	N	0.543664	-0.370952	0.049563
N46	N	1.043664	0.129048	0.549563
N47	N	0.542959	-0.440132	0.049558
N48	N	1.042959	0.059868	0.549558
C49	C	0.570106	-0.480987	0.000161
C50	C	1.070106	0.019013	0.500161
C51	C	0.572709	-0.225196	0.066550
C52	C	1.072709	0.274804	0.566550
C53	C	0.573444	-0.152375	0.066552
C54	C	1.073444	0.347625	0.566552
C55	C	0.573455	-0.152360	-0.066202
C56	C	1.073455	0.347640	0.433798
C57	C	0.572715	-0.225180	-0.066202
C58	C	1.072715	0.274820	0.433798
C59	C	0.572344	-0.261594	0.000177
C60	C	1.072344	0.238406	0.500177
C61	C	0.045601	0.088848	-0.066208
C62	C	0.545601	0.588848	0.433792
C63	C	0.247267	0.091834	-0.066228
C64	C	0.747267	0.591834	0.433772
O65	O	0.273347	0.092195	-0.122676
O66	O	0.773347	0.592195	0.377324
N67	N	0.272482	0.092205	0.000143
N68	N	0.772482	0.592205	0.500143
C69	C	0.247277	0.091824	0.066524
C70	C	0.747277	0.591824	0.566524
O71	O	0.273352	0.092201	0.122976
O72	O	0.773352	0.592201	0.622976
C73	C	0.045612	0.088834	0.066543
C74	C	0.545612	0.588834	0.566543
C75	C	0.020399	0.088470	0.000168
C76	C	0.520399	0.588470	0.500168
C77	C	0.020388	0.088484	-0.132578
C78	C	0.520388	0.588484	0.367422
C79	C	-0.030026	0.087742	-0.132572
C80	C	0.469974	0.587742	0.367428
C81	C	-0.055227	0.087363	-0.066196
C82	C	0.444773	0.587363	0.433804
C83	C	-0.030015	0.087728	0.000173
C84	C	0.469985	0.587728	0.500173
C85	C	0.020409	0.088448	0.132923
C86	C	0.520409	0.588448	0.632923
C87	C	-0.030011	0.087699	0.132922
C88	C	0.469989	0.587699	0.632922
C89	C	-0.055223	0.087335	0.066547
C90	C	0.444777	0.587335	0.566547
C91	C	-0.105630	0.086607	0.066555
C92	C	0.394370	0.586607	0.566555
N93	N	-0.130845	0.086236	0.000184
N94	N	0.369155	0.586236	0.500184
C95	C	-0.105643	0.086615	-0.066192
C96	C	0.394357	0.586615	0.433808
C97	C	0.353154	0.093396	0.066509
C98	C	0.853154	0.593396	0.566509
C99	C	0.403570	0.094145	0.066504
C100	C	0.903570	0.594145	0.566504
C101	C	0.403557	0.094153	-0.066248
C102	C	0.903557	0.594153	0.433752
C103	C	0.353140	0.093409	-0.066242
C104	C	0.853140	0.593409	0.433758
C105	C	0.327940	0.093025	0.000138
C106	C	0.827940	0.593025	0.500138
C107	C	-0.211516	0.085056	-0.066175
C108	C	0.288484	0.585056	0.433825
C109	C	-0.261935	0.084316	-0.066163
C110	C	0.238065	0.584316	0.433837
C111	C	-0.261917	0.084304	0.066588
C112	C	0.238083	0.584304	0.566588
C113	C	-0.211503	0.085047	0.066577
C114	C	0.288497	0.585047	0.566577
C115	C	-0.186304	0.085421	0.000190
C116	C	0.313696	0.585421	0.500190
O117	O	-0.131740	0.086238	0.122974
O118	O	0.368260	0.586238	0.622974
O119	O	-0.131725	0.086222	-0.122635
O120	O	0.368275	0.586222	0.377365
C121	C	0.096015	0.089591	-0.066213
C122	C	0.596015	0.589591	0.433787
C123	C	0.121227	0.089955	0.000156
C124	C	0.621227	0.589955	0.500156
C125	C	0.096026	0.089577	0.066532
C126	C	0.596026	0.589577	0.566532
C127	C	0.171643	0.090704	0.000152
C128	C	0.671643	0.590704	0.500152
C129	C	0.196845	0.091082	-0.066224
C130	C	0.696845	0.591082	0.433776
C131	C	0.171630	0.090712	-0.132595
C132	C	0.671630	0.590712	0.367405
C133	C	0.121216	0.089969	-0.132589
C134	C	0.621216	0.589969	0.367411
C135	C	0.121240	0.089948	0.132903
C136	C	0.621240	0.589948	0.632903
C137	C	0.171654	0.090691	0.132892
C138	C	0.671654	0.590691	0.632892
C139	C	0.196856	0.091069	0.066516
C140	C	0.696856	0.591069	0.566516
C141	C	0.659205	0.083155	0.000200
C142	C	1.159205	0.583155	0.500200
C143	C	0.712864	0.083938	0.000212
C144	C	1.212864	0.583938	0.500212
C145	C	0.567022	0.216922	0.000165
C146	C	1.067022	0.716922	0.500165
C147	C	0.567813	0.294421	0.000161
C148	C	1.067813	0.794421	0.500161
N149	N	0.570802	0.089222	0.189874
N150	N	1.070802	0.589222	0.689874
N151	N	0.570837	0.089234	-0.189527
N152	N	1.070837	0.589234	0.310473
C153	C	0.603774	0.041414	0.228196
C154	C	1.103774	0.541414	0.728196
C155	C	0.603777	0.041411	0.304841
C156	C	1.103777	0.541411	0.804841
C157	C	0.570812	0.089227	0.343161
C158	C	1.070812	0.589227	0.843161
C159	C	0.537834	0.137038	0.304830
C160	C	1.037834	0.637038	0.804830
C161	C	0.537829	0.137035	0.228186
C162	C	1.037829	0.637035	0.728186
N163	N	0.564530	0.151076	0.463488
N164	N	1.064530	0.651076	0.963488
N165	N	0.564538	0.151076	0.536296
N166	N	1.064538	0.651076	1.036296
C167	C	0.570826	0.089237	0.574083
C168	C	1.070826	0.589237	1.074083
N169	N	0.577114	0.027395	0.536312
N170	N	1.077114	0.527395	1.036312
N171	N	0.577109	0.027395	0.463497
N172	N	1.077109	0.527395	0.963497
C173	C	0.570814	0.089235	0.426268
C174	C	1.070814	0.589235	0.926268
C175	C	0.603803	0.041422	0.695512
C176	C	1.103803	0.541422	1.195512
C177	C	0.603803	0.041418	0.772159
C178	C	1.103803	0.541418	1.272159
C179	C	0.537862	0.137051	0.772146
C180	C	1.037862	0.637051	1.272146
C181	C	0.537860	0.137049	0.695501
C182	C	1.037860	0.637049	1.195501
C183	C	0.570833	0.089235	0.657189
C184	C	1.070833	0.589235	1.157189
H185	H	0.567881	-0.698828	0.120584
H186	H	1.067881	-0.198828	0.620584
C187	C	0.640055	-0.011176	0.347003
C188	C	1.140055	0.488824	0.847003
N189	N	0.667382	-0.050782	0.378758
N190	N	1.167382	0.449218	0.878758
C191	C	0.501571	0.189633	0.346983
C192	C	1.001571	0.689633	0.846983
N193	N	0.474254	0.229246	0.378734
N194	N	0.974254	0.729246	0.878734
H195	H	0.192178	0.090993	0.186947
H196	H	0.692178	0.590993	0.686947
C197	C	0.325439	0.092988	0.139537
C198	C	0.825439	0.592988	0.639537
N199	N	0.304566	0.092688	0.194543
N200	N	0.804566	0.592688	0.694543
H201	H	0.630621	0.002480	0.197004
H202	H	1.130621	0.502480	0.697004
C203	C	0.640069	-0.011188	0.814312
C204	C	1.140069	0.488812	1.314312
N205	N	0.667383	-0.050816	0.846063
N206	N	1.167383	0.449184	1.346063
H207	H	0.567882	-0.698797	-0.120267
H208	H	1.067882	-0.198797	0.379733
C209	C	0.048132	0.088841	0.205942
C210	C	0.548132	0.588841	0.705942
N211	N	0.069012	0.089134	0.260945
N212	N	0.569012	0.589134	0.760945
C213	C	0.501601	0.189650	0.814294
C214	C	1.001601	0.689650	1.314294
N215	N	0.474288	0.229269	0.846043
N216	N	0.974288	0.729269	1.346043
H217	H	0.511013	0.175981	0.664298
H218	H	1.011013	0.675981	1.164298
C219	C	-0.057728	0.087280	0.205947
C220	C	0.442272	0.587280	0.705947
N221	N	-0.078604	0.086968	0.260950
N222	N	0.421396	0.586968	0.760950
C223	C	0.569333	-0.556324	0.139555
C224	C	1.069333	-0.056324	0.639555
N225	N	0.569645	-0.526167	0.194552
N226	N	1.069645	-0.026167	0.694552
C227	C	0.573870	-0.112302	-0.139212
C228	C	1.073870	0.387698	0.360788
N229	N	0.574181	-0.082127	-0.194205
N230	N	1.074181	0.417873	0.305795
H231	H	0.572403	-0.254846	0.120600
H232	H	1.072403	0.245154	0.620600
H233	H	-0.190975	0.085357	0.120625
H234	H	0.309025	0.585357	0.620625
H235	H	0.573744	-0.122743	0.120602
H236	H	1.073744	0.377257	0.620602
C237	C	0.569347	-0.556285	-0.139224
C238	C	1.069347	-0.056285	0.360776
N239	N	0.569662	-0.526110	-0.194216
N240	N	1.069662	-0.026110	0.305784
H241	H	0.572417	-0.254813	-0.120249
H242	H	1.072417	0.245187	0.379751
H243	H	-0.282445	0.083999	0.120629
H244	H	0.217555	0.583999	0.620629
C245	C	-0.289665	0.083911	-0.139184
C246	C	0.210335	0.583911	0.360816
N247	N	-0.310550	0.083603	-0.194182
N248	N	0.189450	0.583603	0.305818
H249	H	-0.191005	0.085361	-0.120234
H250	H	0.308995	0.585361	0.379766
C251	C	-0.057752	0.087327	-0.205591
C252	C	0.442248	0.587327	0.294409
N253	N	-0.078631	0.087009	-0.260592
N254	N	0.421369	0.587009	0.239408
C255	C	0.048102	0.088899	-0.205603
C256	C	0.548102	0.588899	0.294397
N257	N	0.068972	0.089216	-0.260610
N258	N	0.568972	0.589216	0.239390
C259	C	0.325411	0.093002	-0.139259
C260	C	0.825411	0.593002	0.360741
N261	N	0.304529	0.092692	-0.194259
N262	N	0.804529	0.592692	0.305741
C263	C	0.431288	0.094564	-0.139261
C264	C	0.931288	0.594564	0.360739
N265	N	0.452179	0.094867	-0.194252
N266	N	0.952179	0.594867	0.305748
H267	H	0.424093	0.094452	0.120554
H268	H	0.924093	0.594452	0.620554
C269	C	0.501576	0.189659	0.186031
C270	C	1.001576	0.689659	0.686031
N271	N	0.474278	0.229308	0.154279
N272	N	0.974278	0.729308	0.654279
C273	C	0.199362	0.091125	-0.205608
C274	C	0.699362	0.591125	0.294392
N275	N	0.220252	0.091432	-0.260599
N276	N	0.720252	0.591432	0.239401
H277	H	0.630650	0.002487	0.664317
H278	H	1.130650	0.502487	1.164317
H279	H	0.100692	0.089673	-0.186639
H280	H	0.600692	0.589673	0.313361
H281	H	0.100727	0.089636	0.186955
H282	H	0.600727	0.589636	0.686955
