data_functionalizedCrystal
_audit_creation_method	'MofGen! by Chris Wilmer'
_symmetry_space_group_name_H-M	'P1'
_symmetry_Int_Tables_number	1
_symmetry_cell_setting	triclinic
loop_
_symmetry_equiv_pos_as_xyz
  x,y,z
_cell_length_a	10.540539
_cell_length_b	14.519709
_cell_length_c	12.996460
_cell_angle_alpha	90.007090
_cell_angle_beta	90.003509
_cell_angle_gamma	84.102818
loop_
_atom_site_label
_atom_site_type_symbol
_atom_site_fract_x
_atom_site_fract_y
_atom_site_fract_z
O1	O	-1.684562	-0.129969	-0.085521
O2	O	-1.315024	-0.142215	-0.085534
O3	O	-1.509591	-0.001906	-0.085518
O4	O	-1.489995	-0.270278	-0.085537
O5	O	-1.509571	-0.001899	0.085616
O6	O	-1.315004	-0.142207	0.085600
O7	O	-1.684542	-0.129961	0.085613
Cu8	Cu	-1.499771	-0.136083	0.101232
Cu9	Cu	-1.499795	-0.136093	-0.101153
O10	O	-1.489975	-0.270270	0.085597
C11	C	-1.508668	0.032462	0.000049
C12	C	-1.505931	0.134858	0.000050
C13	C	-1.267720	-0.141293	0.000032
C14	C	-1.126800	-0.138545	0.000027
C15	C	-1.731846	-0.130884	0.000045
C16	C	-1.872766	-0.133631	0.000043
C17	C	-0.944448	-0.033266	0.000434
C18	C	-1.091038	-0.036051	0.000037
C19	C	-1.064636	-0.187874	-0.097699
C20	C	-0.918127	-0.184376	-0.097770
C21	C	-0.917594	-0.186452	0.096841
C22	C	-1.064567	-0.187396	0.098122
C23	C	-1.490899	-0.304639	0.000028
C24	C	-1.493635	-0.407035	0.000020
N25	N	-1.499763	-0.136076	0.243579
C26	C	-1.495856	0.509808	0.000023
C27	C	-1.498654	0.405485	0.000031
C28	C	-1.500893	0.322337	0.000037
C29	C	-1.503692	0.218007	0.000043
N30	N	-1.499813	-0.136093	-0.243500
C31	C	-1.499793	-0.136094	0.663394
C32	C	-1.499781	-0.136092	0.546589
C33	C	-1.499779	-0.136086	0.453490
C34	C	-1.499766	-0.136083	0.336678
H35	H	-0.916268	0.007229	0.070519
H36	H	-0.914661	0.007051	-0.069255
C37	C	-0.852772	-0.286462	0.097738
C38	C	-0.934412	-0.368495	0.094705
C39	C	-0.869583	-0.468500	0.095594
C40	C	-0.723115	-0.486471	0.099516
C41	C	-0.641467	-0.404435	0.102550
C42	C	-0.706295	-0.304430	0.101661
H43	H	-1.042844	-0.355194	0.091801
H44	H	-0.930025	-0.529228	0.093348
H45	H	-0.675125	-0.560500	0.100174
H46	H	-0.533034	-0.417736	0.105454
H47	H	-0.645853	-0.243702	0.103907
H48	H	-1.107583	-0.153614	-0.170423
H49	H	-1.133191	0.003030	-0.070132
C50	C	-1.149137	0.016399	0.094665
C51	C	-1.108370	-0.015881	0.203708
C52	C	-1.166459	0.036580	0.298335
C53	C	-1.265317	0.121322	0.283920
C54	C	-1.306089	0.153606	0.174873
C55	C	-1.248000	0.101145	0.080246
H56	H	-1.035185	-0.078615	0.214383
H57	H	-1.136276	0.012681	0.379059
H58	H	-1.308318	0.160157	0.353968
H59	H	-1.379274	0.216341	0.164198
H60	H	-1.278183	0.125045	-0.000478
H61	H	-1.088029	-0.262121	0.104017
H62	H	-0.890298	-0.147924	-0.170815
H63	H	-1.086221	-0.263143	-0.101340
C64	C	-0.852298	-0.283951	-0.103800
C65	C	-0.933089	-0.366395	-0.108539
C66	C	-0.867266	-0.465966	-0.114585
C67	C	-0.720653	-0.483094	-0.115893
C68	C	-0.639853	-0.400648	-0.111154
C69	C	-0.705675	-0.301076	-0.105107
H70	H	-1.041629	-0.353718	-0.107571
H71	H	-0.927081	-0.526998	-0.118094
H72	H	-0.671927	-0.556803	-0.120369
H73	H	-0.531313	-0.413325	-0.112121
H74	H	-0.645861	-0.240044	-0.101599
H75	H	-0.886378	-0.153279	0.170917
C76	C	-1.120370	-0.138710	0.195797
C77	C	-1.221968	-0.054991	0.186572
C78	C	-1.277782	-0.006304	0.284245
C79	C	-1.231996	-0.041337	0.391141
C80	C	-1.130391	-0.125061	0.400370
C81	C	-1.074578	-0.173748	0.302698
H82	H	-1.255867	-0.029053	0.107437
H83	H	-1.352996	0.055675	0.277412
H84	H	-1.273312	-0.005296	0.463444
H85	H	-1.096493	-0.150999	0.479505
H86	H	-0.999364	-0.235726	0.309530
