data_functionalizedCrystal
_audit_creation_method	'MofGen! by Chris Wilmer'
_symmetry_space_group_name_H-M	'P1'
_symmetry_Int_Tables_number	1
_symmetry_cell_setting	triclinic
loop_
_symmetry_equiv_pos_as_xyz
  x,y,z
_cell_length_a	16.959455
_cell_length_b	18.050589
_cell_length_c	16.959447
_cell_angle_alpha	89.973357
_cell_angle_beta	89.985678
_cell_angle_gamma	90.025168
loop_
_atom_site_label
_atom_site_type_symbol
_atom_site_fract_x
_atom_site_fract_y
_atom_site_fract_z
Zn1	Zn	1.208339	-0.295705	-0.446929
Zn2	Zn	1.208243	-0.419907	-0.314759
Zn3	Zn	1.076167	-0.295729	-0.314766
Zn4	Zn	1.076113	-0.419851	-0.446897
O5	O	1.142216	-0.357798	-0.380838
O6	O	1.318937	-0.312194	-0.429406
O7	O	1.190705	-0.403467	-0.204149
O8	O	1.093763	-0.191801	-0.332314
O9	O	1.318866	-0.403445	-0.332301
O10	O	1.190869	-0.191784	-0.429414
O11	O	1.093670	-0.312234	-0.204154
O12	O	0.965549	-0.312180	-0.332284
O13	O	1.093671	-0.403350	-0.557512
O14	O	0.965510	-0.403373	-0.429360
O15	O	1.190817	-0.312141	-0.557536
O16	O	1.190653	-0.523824	-0.332271
O17	O	1.093578	-0.523783	-0.429353
C18	C	0.936849	-0.357774	-0.380820
C19	C	0.848993	-0.357781	-0.380831
C20	C	0.477513	-0.310275	-0.330396
C21	C	0.477521	-0.405382	-0.431325
C22	C	0.560067	-0.405371	-0.431320
C23	C	0.601340	-0.357813	-0.380852
C24	C	0.560067	-0.310265	-0.330388
C25	C	0.601346	-0.452924	-0.481777
C26	C	0.683897	-0.452916	-0.481774
C27	C	0.725171	-0.405353	-0.431309
C28	C	0.683893	-0.357802	-0.380844
C29	C	0.725166	-0.310243	-0.330375
C30	C	0.683890	-0.262689	-0.279913
C31	C	0.601342	-0.262702	-0.279923
C32	C	0.807720	-0.405340	-0.431299
C33	C	0.807720	-0.310233	-0.330367
C34	C	1.142120	-0.550750	-0.380825
C35	C	1.142152	-0.633296	-0.380846
C36	C	1.089414	-0.832751	-0.433620
C37	C	1.070151	-0.882194	-0.361493
C38	C	1.142229	-0.784426	-0.380856
C39	C	1.161531	-0.882065	-0.452991
C40	C	1.142303	-0.930411	-0.380872
C41	C	1.122929	-0.832782	-0.308691
C42	C	1.214342	-0.832648	-0.400237
C43	C	1.195106	-0.882069	-0.328061
C44	C	1.142185	-0.700328	-0.380848
C45	C	1.142347	-1.014508	-0.380872
C46	C	1.348384	-0.357823	-0.380857
C47	C	1.436240	-0.357834	-0.380864
C48	C	1.142249	-0.357737	-0.587006
C49	C	1.142263	-0.357710	-0.674863
C50	C	1.142333	-0.164092	-0.380868
C51	C	1.142383	-0.081547	-0.380881
C52	C	1.091778	-0.405121	-1.046329
C53	C	1.192936	-0.310143	-1.046348
C54	C	1.192915	-0.310159	-0.963802
C55	C	1.142326	-0.357657	-0.922516
C56	C	1.091757	-0.405139	-0.963775
C57	C	1.243489	-0.262683	-0.922537
C58	C	1.243470	-0.262698	-0.839986
C59	C	1.192876	-0.310192	-0.798698
C60	C	1.142305	-0.357676	-0.839962
C61	C	1.091715	-0.405174	-0.798676
C62	C	1.041139	-0.452654	-0.839939
C63	C	1.041162	-0.452634	-0.922488
C64	C	1.192852	-0.310212	-0.716149
C65	C	1.091694	-0.405193	-0.716122
C66	C	1.142228	-0.357806	-0.175472
C67	C	1.142368	-0.357623	-0.087615
H68	H	0.443911	-0.444106	-0.472410
H69	H	1.050598	-0.443776	-1.079929
N70	N	1.244613	-0.261641	-1.088530
N71	N	1.244629	-0.261636	-1.162234
H72	H	1.281127	-0.227379	-1.192029
H73	H	0.999952	-0.491330	-0.806313
H74	H	1.275277	-0.810871	-0.416650
H75	H	1.177827	-0.903713	-0.513989
H76	H	1.284681	-0.224017	-0.956158
N77	N	1.102383	-0.805757	-0.232146
N78	N	1.087805	-0.850317	-0.177613
H79	H	1.073292	-0.831230	-0.123554
H80	H	1.044685	-0.811096	-0.478178
H81	H	0.841323	-0.444060	-0.472382
H82	H	1.284652	-0.224036	-0.806396
N83	N	0.993684	-0.909488	-0.340935
N84	N	0.935421	-0.893700	-0.382814
H85	H	0.881414	-0.912973	-0.368300
N86	N	1.251173	-0.909060	-0.272024
N87	N	1.243975	-0.893120	-0.200668
H88	H	1.283569	-0.912183	-0.161090
H89	H	1.050490	-0.443865	-0.682513
N90	N	0.559178	-0.214124	-0.228388
N91	N	0.513137	-0.166841	-0.256289
H92	H	0.483355	-0.132534	-0.219893
N93	N	0.989509	-0.501124	-0.964649
N94	N	0.989539	-0.501101	-1.038352
H95	H	0.953060	-0.535348	-1.068133
N96	N	1.244506	-0.261708	-0.674012
N97	N	1.239311	-0.193178	-0.683253
H98	H	1.275792	-0.158918	-0.653494
N99	N	0.849878	-0.261640	-0.278827
N100	N	0.840685	-0.193120	-0.284202
H101	H	0.870460	-0.158799	-0.247803
N102	N	0.726066	-0.214121	-0.228360
N103	N	0.799769	-0.214130	-0.228359
H104	H	0.829560	-0.179831	-0.191950
N105	N	0.435344	-0.261701	-0.278863
N106	N	0.361641	-0.261709	-0.278878
H107	H	0.331856	-0.227403	-0.242483
H108	H	0.567735	-0.491649	-0.522861
H109	H	0.717497	-0.491637	-0.522864
