data_functionalizedCrystal
_audit_creation_method	'MofGen! by Chris Wilmer'
_symmetry_space_group_name_H-M	'P1'
_symmetry_Int_Tables_number	1
_symmetry_cell_setting	triclinic
loop_
_symmetry_equiv_pos_as_xyz
  x,y,z
_cell_length_a	18.101398
_cell_length_b	25.639239
_cell_length_c	18.101389
_cell_angle_alpha	89.978997
_cell_angle_beta	89.975673
_cell_angle_gamma	90.034550
loop_
_atom_site_label
_atom_site_type_symbol
_atom_site_fract_x
_atom_site_fract_y
_atom_site_fract_z
Zn1	Zn	1.132079	-0.208272	-0.418825
Zn2	Zn	1.131957	-0.295693	-0.294978
Zn3	Zn	1.008238	-0.208266	-0.294987
Zn4	Zn	1.008171	-0.295671	-0.418767
O5	O	1.070111	-0.251975	-0.356889
O6	O	1.235696	-0.219880	-0.402418
O7	O	1.115522	-0.284103	-0.191346
O8	O	1.024745	-0.135102	-0.311442
O9	O	1.235606	-0.284108	-0.311428
O10	O	1.115730	-0.135106	-0.402426
O11	O	1.024626	-0.219871	-0.191353
O12	O	0.904596	-0.219849	-0.311385
O13	O	1.024630	-0.284070	-0.522408
O14	O	0.904547	-0.284065	-0.402326
O15	O	1.115665	-0.219858	-0.522451
O16	O	1.115458	-0.368855	-0.311371
O17	O	1.024512	-0.368839	-0.402318
C18	C	0.877701	-0.251954	-0.356851
C19	C	0.795387	-0.251958	-0.356852
C20	C	1.069985	-0.387818	-0.356853
C21	C	1.069998	-0.445932	-0.356863
C22	C	0.496296	-0.251990	-0.356914
C23	C	0.527627	-0.211386	-0.299976
C24	C	0.613245	-0.211495	-0.299733
C25	C	0.644678	-0.251974	-0.356883
C26	C	0.613549	-0.307048	-0.335555
C27	C	0.527904	-0.306822	-0.335159
C28	C	0.527913	-0.238000	-0.435314
C29	C	0.613564	-0.236773	-0.434886
C30	C	0.728538	-0.251968	-0.356867
C31	C	0.412436	-0.252000	-0.356928
C32	C	1.022747	-0.697129	-0.404230
C33	C	1.022720	-0.642525	-0.404222
O34	O	0.982423	-0.614292	-0.444470
N35	N	1.070091	-0.615206	-0.356902
C36	C	1.117499	-0.642494	-0.309593
O37	O	1.157790	-0.614243	-0.269343
C38	C	1.117530	-0.697097	-0.309605
C39	C	1.070149	-0.724413	-0.356923
C40	C	0.975371	-0.724446	-0.451545
C41	C	0.975398	-0.779046	-0.451552
C42	C	1.022800	-0.806330	-0.404245
C43	C	1.070176	-0.779014	-0.356931
C44	C	1.164940	-0.724384	-0.262301
C45	C	1.164967	-0.778991	-0.262318
C46	C	1.117587	-0.806307	-0.309636
C47	C	1.117605	-0.860899	-0.309631
N48	N	1.070233	-0.888218	-0.356951
C49	C	1.022831	-0.860934	-0.404258
C50	C	1.117432	-0.527823	-0.309570
C51	C	1.117398	-0.473221	-0.309553
C52	C	1.022620	-0.473256	-0.404183
C53	C	1.022650	-0.527859	-0.404196
C54	C	1.070060	-0.555142	-0.356890
C55	C	1.022890	-0.975599	-0.404270
C56	C	1.022919	-1.030204	-0.404271
C57	C	1.117700	-1.030164	-0.309643
C58	C	1.117669	-0.975564	-0.309639
C59	C	1.070261	-0.948282	-0.356958
O60	O	1.157883	-0.889167	-0.269405
O61	O	0.982553	-0.889191	-0.444508
C62	C	1.263273	-0.251997	-0.356928
C63	C	1.345587	-0.252006	-0.356945
C64	C	1.070154	-0.251962	-0.550051
C65	C	1.070172	-0.251957	-0.632365
C66	C	1.070258	-0.115602	-0.356941
C67	C	1.070321	-0.057488	-0.356964
C68	C	1.070215	-0.251859	-0.931457
C69	C	1.012742	-0.292130	-0.900104
C70	C	1.012897	-0.292317	-0.814486
C71	C	1.070193	-0.251907	-0.783074
C72	C	1.148216	-0.266868	-0.814179
C73	C	1.147895	-0.267132	-0.899824
C74	C	1.050345	-0.196537	-0.899884
C75	C	1.048609	-0.196856	-0.814233
C76	C	1.070186	-0.251934	-0.699214
C77	C	1.070228	-0.251833	-1.015316
C78	C	1.070111	-0.251951	-0.164479
C79	C	1.070236	-0.251809	-0.082165
H80	H	0.634294	-0.170655	-0.313102
C81	C	1.171367	-0.320923	-0.785214
N82	N	1.188801	-0.361640	-0.763399
H83	H	0.634964	-0.264193	-0.479583
C84	C	0.499899	-0.349078	-0.388736
N85	N	0.478808	-0.380908	-0.429087
H86	H	1.164742	-0.307573	-0.919804
H87	H	1.156291	-1.052389	-0.271125
C88	C	0.970796	-1.060249	-0.456327
N89	N	0.931539	-1.082877	-0.495537
H90	H	1.155971	-0.450984	-0.271014
H91	H	1.156038	-0.550034	-0.271041
C92	C	0.641049	-0.182018	-0.456610
N93	N	0.661753	-0.140775	-0.472968
H94	H	0.507890	-0.318688	-0.277845
H95	H	1.203578	-0.801202	-0.223797
H96	H	1.203522	-0.702151	-0.223771
H97	H	0.507650	-0.267575	-0.477739
C98	C	1.169792	-0.945515	-0.257591
N99	N	1.209060	-0.922886	-0.218395
H100	H	1.087417	-0.165258	-0.792851
C101	C	0.934735	-0.279667	-0.786071
N102	N	0.875859	-0.270141	-0.764672
H103	H	0.506349	-0.198540	-0.454705
H104	H	0.634961	-0.319119	-0.278859
H105	H	0.507065	-0.170421	-0.313198
C106	C	0.934340	-0.279609	-0.927908
N107	N	0.875287	-0.270178	-0.948856
C108	C	1.106899	-0.156002	-0.927276
N109	N	1.149499	-0.125476	-0.947910
C110	C	0.641061	-0.349016	-0.389818
N111	N	0.661788	-0.380627	-0.430688
C112	C	0.970740	-0.945597	-0.456323
N113	N	0.931457	-0.923000	-0.495527
C114	C	0.974816	-0.178127	-0.929039
N115	N	0.917924	-0.164267	-0.950997
C116	C	1.207717	-0.229236	-0.927847
N117	N	1.252778	-0.200696	-0.948952
H118	H	0.936815	-0.801282	-0.490082
H119	H	0.936771	-0.702236	-0.490071
H120	H	1.192187	-0.238457	-0.793835
H121	H	0.984073	-0.550097	-0.442730
H122	H	0.991192	-0.185574	-0.793902
H123	H	0.506076	-0.220529	-0.242220
H124	H	0.984023	-0.451031	-0.442704
C125	C	0.640878	-0.223991	-0.221251
N126	N	0.661690	-0.233406	-0.162135
H127	H	1.025729	-0.332886	-0.921627
H128	H	1.026014	-0.333323	-0.794001
