data_functionalizedCrystal
_audit_creation_method	'MofGen! by Chris Wilmer'
_symmetry_space_group_name_H-M	'P1'
_symmetry_Int_Tables_number	1
_symmetry_cell_setting	triclinic
loop_
_symmetry_equiv_pos_as_xyz
  x,y,z
_cell_length_a	17.077404
_cell_length_b	16.120444
_cell_length_c	17.077396
_cell_angle_alpha	87.130511
_cell_angle_beta	90.018362
_cell_angle_gamma	92.924506
loop_
_atom_site_label
_atom_site_type_symbol
_atom_site_fract_x
_atom_site_fract_y
_atom_site_fract_z
Zn1	Zn	1.184186	-0.331953	0.459656
Zn2	Zn	1.177428	-0.471378	0.335042
Zn3	Zn	1.052917	-0.331977	0.328408
Zn4	Zn	1.046224	-0.471323	0.466265
O5	O	1.115189	-0.401658	0.397343
O6	O	1.293136	-0.350461	0.443136
O7	O	1.160885	-0.452919	0.224316
O8	O	1.075959	-0.215308	0.340276
O9	O	1.288171	-0.452896	0.351582
O10	O	1.172402	-0.215290	0.436703
O11	O	1.069407	-0.350502	0.219442
O12	O	0.942183	-0.350449	0.346684
O13	O	1.064552	-0.452802	0.575234
O14	O	0.937265	-0.452825	0.447968
O15	O	1.165912	-0.350408	0.570378
O16	O	1.154395	-0.588036	0.357991
O17	O	1.057999	-0.587996	0.454400
C18	C	0.911242	-0.401634	0.397324
C19	C	0.823992	-0.401644	0.397335
C20	C	0.785583	-0.348401	0.445088
C21	C	0.703602	-0.348407	0.445092
C22	C	0.660032	-0.401660	0.397347
C23	C	0.698446	-0.454905	0.349588
C24	C	0.780425	-0.454894	0.349581
C25	C	0.527575	-0.454924	0.349609
C26	C	0.445590	-0.454935	0.349617
C27	C	0.450752	-0.348436	0.445120
C28	C	0.532731	-0.348426	0.445113
C29	C	0.571140	-0.401672	0.397355
C30	C	1.104758	-0.618266	0.407650
C31	C	1.100368	-0.710932	0.412086
C32	C	1.138156	-0.921875	0.374500
C33	C	1.092367	-0.880589	0.420193
C34	C	1.096820	-0.786183	0.415681
C35	C	1.133704	-1.016289	0.379012
C36	C	1.319932	-0.401682	0.397362
C37	C	1.407181	-0.401692	0.397370
C38	C	1.115239	-0.401596	0.602084
C39	C	1.115261	-0.401570	0.689333
C40	C	1.125681	-0.184203	0.387012
C41	C	1.130153	-0.091537	0.382610
C42	C	1.115187	-0.401659	0.193395
C43	C	1.115328	-0.401450	0.106135
C44	C	1.168041	-0.348249	0.727795
C45	C	1.168052	-0.348221	0.809775
C46	C	1.115285	-0.401519	0.853290
C47	C	1.062499	-0.454843	0.814821
C48	C	1.062485	-0.454866	0.732843
C49	C	1.062533	-0.454793	0.985689
C50	C	1.062548	-0.454771	1.067673
C51	C	1.168100	-0.348148	1.062620
C52	C	1.168086	-0.348171	0.980642
C53	C	1.115301	-0.401496	0.942180
H54	H	0.419476	-0.305079	0.484005
H55	H	1.211078	-0.304728	1.093940
H56	H	1.211033	-0.304804	0.841087
H57	H	1.049821	-0.916144	0.462700
H58	H	0.672334	-0.305053	0.483979
N59	N	1.191526	-0.877266	0.321186
N60	N	1.195110	-0.799528	0.317555
H61	H	1.232801	-0.768013	0.279901
H62	H	0.662964	-0.498260	0.310709
H63	H	1.211012	-0.304850	0.692371
N64	N	1.008614	-0.509184	1.112110
N65	N	0.961464	-0.556762	1.077760
H66	H	0.923360	-0.595179	1.109143
H67	H	1.019533	-0.498236	0.850258
H68	H	0.568205	-0.305067	0.483996
H69	H	1.019499	-0.498277	0.701528
N70	N	1.221997	-0.293733	0.936203
N71	N	1.269124	-0.246128	0.970552
H72	H	1.307200	-0.207680	0.939168
N73	N	1.008604	-0.509261	0.946411
N74	N	0.961495	-0.556845	0.985271
H75	H	0.923409	-0.595315	0.957531
H76	H	0.410116	-0.498299	0.310739
N77	N	0.830074	-0.294003	0.493870
N78	N	0.795766	-0.246467	0.536501
H79	H	0.827185	-0.208044	0.570953
H80	H	0.811696	-0.498250	0.310695
N81	N	0.566798	-0.509311	0.300814
N82	N	0.527889	-0.556854	0.258186
H83	H	0.555589	-0.595266	0.223726
