data_functionalizedCrystal
_audit_creation_method	'MofGen! by Chris Wilmer'
_symmetry_space_group_name_H-M	'P1'
_symmetry_Int_Tables_number	1
_symmetry_cell_setting	triclinic
loop_
_symmetry_equiv_pos_as_xyz
  x,y,z
_cell_length_a	10.654549
_cell_length_b	9.730223
_cell_length_c	10.654551
_cell_angle_alpha	89.997362
_cell_angle_beta	84.485103
_cell_angle_gamma	89.997684
loop_
_atom_site_label
_atom_site_type_symbol
_atom_site_fract_x
_atom_site_fract_y
_atom_site_fract_z
O1	O	1.667840	-0.114254	0.176396
O2	O	1.302362	-0.114263	0.193203
O3	O	1.493503	-0.114255	0.002060
O4	O	1.476699	-0.114262	0.367539
O5	O	1.493491	0.114325	0.002055
O6	O	1.302349	0.114317	0.193198
O7	O	1.667828	0.114326	0.176391
Zn8	Zn	1.485087	0.150614	0.184793
Zn9	Zn	1.485103	-0.150550	0.184800
O10	O	1.476686	0.114318	0.367533
C11	C	1.255557	0.000026	0.191966
C12	C	1.116114	0.000023	0.188275
C13	C	1.492263	0.000033	-0.044740
C14	C	1.488570	0.000026	-0.184183
C15	C	1.714632	0.000034	0.177628
C16	C	1.854075	0.000029	0.181319
N17	N	1.485085	0.356150	0.184788
C18	C	2.064589	0.000027	0.072256
C19	C	1.933569	0.000025	0.068778
C20	C	1.905608	0.000020	0.297347
C21	C	2.036626	0.000012	0.300824
N22	N	1.485115	-0.356087	0.184796
C23	C	1.569751	0.428079	0.100186
C24	C	1.569764	0.571962	0.100187
C25	C	1.400439	0.571974	0.269402
C26	C	1.400421	0.428094	0.269394
C27	C	1.486844	-0.124574	-0.249684
C28	C	1.483364	-0.124575	-0.380705
C29	C	1.483342	0.124635	-0.380712
C30	C	1.486813	0.124635	-0.249693
C31	C	1.477927	0.000028	0.414334
C32	C	1.481619	0.000025	0.553777
H33	H	2.129305	0.000030	-0.019389
C34	C	1.877801	-0.000179	-0.057277
C35	C	1.918139	-0.117757	-0.125392
C36	C	1.866807	-0.117985	-0.241531
H37	H	1.788390	-0.000251	-0.043415
H38	H	1.905053	0.079493	-0.103730
H39	H	1.890880	-0.197409	-0.078949
H40	H	2.007543	-0.117710	-0.139288
H41	H	1.894059	-0.038313	-0.287984
H42	H	1.777398	-0.118054	-0.227656
H43	H	1.894178	-0.197753	-0.287766
C44	C	1.819154	-0.000190	0.419440
C45	C	1.743090	-0.117763	0.424111
C46	C	1.663424	-0.117990	0.536558
H47	H	1.868449	-0.000267	0.489138
H48	H	1.767393	0.079485	0.422838
H49	H	1.794845	-0.197418	0.420725
H50	H	1.693768	-0.117712	0.354438
H51	H	1.611663	-0.038314	0.539956
H52	H	1.712730	-0.118062	0.606247
H53	H	1.611798	-0.197755	0.539737
C54	C	2.092397	-0.000210	0.426888
C55	C	2.052059	-0.117793	0.495000
C56	C	2.103394	-0.118043	0.611138
H57	H	2.181809	-0.000291	0.413024
H58	H	2.065149	0.079459	0.473344
H59	H	2.079315	-0.197441	0.448555
H60	H	1.962655	-0.117737	0.508899
H61	H	2.076145	-0.038374	0.657594
H62	H	2.192803	-0.118120	0.597261
H63	H	2.076023	-0.197814	0.657371
C64	C	1.661512	0.350077	0.008089
C65	C	1.640023	0.385114	-0.115496
C66	C	1.724517	0.313293	-0.200388
H67	H	1.745502	0.373592	0.022329
H68	H	1.649395	0.254064	0.020084
H69	H	1.652151	0.481106	-0.127485
H70	H	1.556050	0.361595	-0.129776
H71	H	1.712400	0.217280	-0.188393
H72	H	1.808501	0.336814	-0.186136
H73	H	1.709941	0.337046	-0.284249
C74	C	1.661489	0.650129	0.008188
C75	C	1.593940	0.732721	-0.069343
C76	C	1.678396	0.804733	-0.154123
H77	H	1.714193	0.706358	0.053709
H78	H	1.711886	0.586714	-0.042271
H79	H	1.543565	0.796129	-0.018890
H80	H	1.541240	0.676527	-0.114892
H81	H	1.728793	0.741318	-0.204582
H82	H	1.731096	0.860954	-0.108591
H83	H	1.632577	0.860770	-0.206745
C84	C	1.481191	0.259959	-0.451747
C85	C	1.374155	0.335117	-0.406720
C86	C	1.372128	0.459778	-0.472137
H87	H	1.554779	0.311322	-0.439259
H88	H	1.478813	0.242170	-0.539163
H89	H	1.376544	0.352910	-0.319325
H90	H	1.300550	0.283795	-0.419209
H91	H	1.369749	0.441989	-0.559553
H92	H	1.445720	0.511129	-0.459644
H93	H	1.299499	0.510782	-0.441604
C94	C	1.308351	0.349913	0.361055
C95	C	1.230868	0.267360	0.293428
C96	C	1.146030	0.195333	0.377815
H97	H	1.353829	0.293656	0.413781
H98	H	1.257864	0.413318	0.411434
H99	H	1.281349	0.203962	0.243071
H100	H	1.185362	0.323583	0.240706
H101	H	1.095543	0.258739	0.428194
H102	H	1.191519	0.139085	0.430538
H103	H	1.093440	0.139323	0.331943
H104	H	1.331510	0.630565	0.338288
H105	H	1.488271	-0.226039	-0.196350
H106	H	1.481956	-0.226037	-0.434029
H107	H	1.488211	0.226106	-0.196360
