data_functionalizedCrystal
_audit_creation_method	'MofGen! by Chris Wilmer'
_symmetry_space_group_name_H-M	'P1'
_symmetry_Int_Tables_number	1
_symmetry_cell_setting	triclinic
loop_
_symmetry_equiv_pos_as_xyz
  x,y,z
_cell_length_a	19.288864
_cell_length_b	16.098538
_cell_length_c	19.288865
_cell_angle_alpha	92.708117
_cell_angle_beta	96.863755
_cell_angle_gamma	92.743008
loop_
_atom_site_label
_atom_site_type_symbol
_atom_site_fract_x
_atom_site_fract_y
_atom_site_fract_z
O1	O	0.924481	0.069533	-0.083521
O2	O	1.424481	0.569533	0.416479
O3	O	0.722217	0.069478	-0.095213
O4	O	1.222217	0.569478	0.404787
O5	O	0.829193	0.069491	0.011763
O6	O	1.329193	0.569491	0.511763
O7	O	0.817505	0.069520	-0.190497
O8	O	1.317505	0.569520	0.309503
O9	O	0.822944	-0.069023	0.005538
O10	O	1.322944	0.430977	0.505538
O11	O	0.715969	-0.069036	-0.101437
O12	O	1.215969	0.430964	0.398563
O13	O	0.918232	-0.068980	-0.089746
O14	O	1.418232	0.431020	0.410254
Zn15	Zn	0.816108	-0.091000	-0.096580
Zn16	Zn	1.316108	0.409000	0.403420
Zn17	Zn	0.824341	0.091498	-0.088379
Zn18	Zn	1.324341	0.591498	0.411621
O19	O	0.811256	-0.068993	-0.196721
O20	O	1.311256	0.431007	0.303279
C21	C	0.693216	0.000213	-0.097949
C22	C	1.193216	0.500213	0.402051
C23	C	0.616112	0.000192	-0.096821
C24	C	1.116112	0.500192	0.403179
N25	N	0.810494	-0.215550	-0.102176
N26	N	1.310494	0.284450	0.397824
C27	C	0.571416	0.000214	-0.159588
C28	C	1.071416	0.500214	0.340412
C29	C	0.498970	0.000223	-0.158527
C30	C	0.998970	0.500223	0.341473
C31	C	0.471222	0.000226	-0.094695
C32	C	0.971222	0.500226	0.405305
C33	C	0.515927	0.000199	-0.031920
C34	C	1.015927	0.500199	0.468080
C35	C	0.588372	0.000182	-0.032983
C36	C	1.088372	0.500182	0.467017
C37	C	0.365151	0.048774	-0.042334
C38	C	0.865151	0.548774	0.457666
C39	C	0.292707	0.048797	-0.041273
C40	C	0.792707	0.548797	0.458727
C41	C	0.247779	0.000276	-0.091413
C42	C	0.747779	0.500276	0.408587
C43	C	0.275302	-0.048256	-0.142625
C44	C	0.775302	0.451744	0.357375
C45	C	0.347747	-0.048274	-0.143688
C46	C	0.847747	0.451726	0.356312
C47	C	0.392669	0.000245	-0.093535
C48	C	0.892669	0.500245	0.406465
C49	C	0.124528	0.000307	-0.153033
C50	C	0.624528	0.500307	0.346967
C51	C	0.052080	0.000311	-0.151970
C52	C	0.552080	0.500311	0.348030
C53	C	0.069040	0.000296	-0.025360
C54	C	0.569040	0.500296	0.474640
C55	C	0.141486	0.000284	-0.026426
C56	C	0.641486	0.500284	0.473574
C57	C	0.169225	0.000293	-0.090264
C58	C	0.669225	0.500293	0.409736
C59	C	0.855915	-0.259130	-0.056788
C60	C	1.355915	0.240870	0.443212
C61	C	0.851994	-0.346319	-0.060709
C62	C	1.351994	0.153681	0.439291
C63	C	0.802655	-0.389927	-0.110023
C64	C	1.302655	0.110073	0.389977
C65	C	0.757230	-0.346342	-0.155414
C66	C	1.257230	0.153658	0.344586
C67	C	0.761147	-0.259154	-0.151489
C68	C	1.261147	0.240846	0.348511
C69	C	0.788453	-0.653179	-0.124242
C70	C	1.288453	-0.153179	0.375758
C71	C	0.784539	-0.740373	-0.128165
C72	C	1.284539	-0.240373	0.371835
C73	C	0.879304	-0.740344	-0.033459
C74	C	1.379304	-0.240344	0.466541
C75	C	0.883220	-0.653155	-0.029541
C76	C	1.383220	-0.153155	0.470459
C77	C	0.837792	-0.609577	-0.074929
C78	C	1.337792	-0.109577	0.425071
C79	C	0.798648	-0.479049	-0.114035
C80	C	1.298648	0.020951	0.385965
C81	C	0.841796	-0.520457	-0.070914
C82	C	1.341796	-0.020457	0.429086
C83	C	0.947233	0.000286	-0.087009
C84	C	1.447233	0.500286	0.412991
C85	C	1.024338	0.000313	-0.088137
C86	C	1.524338	0.500313	0.411863
C87	C	0.825692	0.000231	0.034527
C88	C	1.325692	0.500231	0.534527
C89	C	0.824563	0.000224	0.111630
C90	C	1.324563	0.500224	0.611630
N91	N	0.829961	0.216047	-0.082777
N92	N	1.329961	0.716047	0.417223
C93	C	0.814757	0.000268	-0.219485
C94	C	1.314757	0.500268	0.280515
C95	C	0.815887	0.000281	-0.296588
C96	C	1.315887	0.500281	0.203412
C97	C	0.887331	0.000237	0.156327
C98	C	1.387331	0.500237	0.656327
C99	C	0.886271	0.000250	0.228775
C100	C	1.386271	0.500250	0.728775
C101	C	0.822438	0.000233	0.256521
C102	C	1.322438	0.500233	0.756521
C103	C	0.759662	0.000224	0.211815
C104	C	1.259662	0.500224	0.711815
C105	C	0.760724	0.000220	0.139369
C106	C	1.260724	0.500220	0.639369
C107	C	0.770069	-0.048300	0.362628
C108	C	1.270069	0.451700	0.862628
C109	C	0.769009	-0.048300	0.435072
C110	C	1.269009	0.451700	0.935072
C111	C	0.819159	0.000250	0.479968
C112	C	1.319159	0.500250	0.979968
C113	C	0.870381	0.048791	0.452411
C114	C	1.370381	0.548791	0.952411
C115	C	0.871443	0.048786	0.379965
C116	C	1.371443	0.548786	0.879965
C117	C	0.821279	0.000238	0.335076
C118	C	1.321279	0.500238	0.835076
C119	C	0.880783	0.000279	0.603221
C120	C	1.380783	0.500279	1.103221
C121	C	0.879720	0.000297	0.675670
C122	C	1.379720	0.500297	1.175670
C123	C	0.753109	0.000263	0.658708
C124	C	1.253109	0.500263	1.158708
C125	C	0.754173	0.000253	0.586262
C126	C	1.254173	0.500253	1.086262
C127	C	0.818012	0.000257	0.558522
C128	C	1.318012	0.500257	1.058522
H129	H	0.593997	0.000223	-0.211570
H130	H	1.093997	0.500223	0.288430
Cl131	Cl	0.159404	0.000311	-0.233286
Cl132	Cl	0.659404	0.500311	0.266714
Cl133	Cl	0.933430	0.109831	0.508843
Cl134	Cl	1.433430	0.609831	1.008843
Cl135	Cl	0.961035	0.000279	0.568345
Cl136	Cl	1.461035	0.500279	1.068345
Cl137	Cl	0.704041	-0.204369	-0.208549
Cl138	Cl	1.204041	0.295631	0.291451
H139	H	0.930836	0.000312	0.712063
H140	H	1.430836	0.500312	1.212063
Cl141	Cl	0.967587	0.000265	0.121460
Cl142	Cl	1.467587	0.500265	0.621460
Cl143	Cl	0.909096	-0.401106	-0.003648
Cl144	Cl	1.409096	0.098894	0.496352
H145	H	0.493331	0.000213	0.020054
H146	H	0.993331	0.500213	0.520054
H147	H	0.881966	-0.484948	-0.030760
H148	H	1.381966	0.015052	0.469240
Cl149	Cl	0.695199	-0.401162	-0.217407
Cl150	Cl	1.195199	0.098838	0.282593
H151	H	0.177878	0.000270	0.024686
H152	H	0.677878	0.500270	0.524686
Cl153	Cl	0.675259	0.000233	0.530068
Cl154	Cl	1.175259	0.500233	1.030068
Cl155	Cl	0.382346	-0.109287	-0.208062
Cl156	Cl	0.882346	0.390713	0.291938
Cl157	Cl	0.258113	0.109817	0.023101
Cl158	Cl	0.758113	0.609817	0.523101
H159	H	0.624764	0.000164	0.018131
H160	H	1.124764	0.500164	0.518131
H161	H	0.015689	0.000324	-0.203085
H162	H	0.515689	0.500324	0.296915
Cl163	Cl	0.736624	-0.533875	-0.176030
Cl164	Cl	1.236624	-0.033875	0.323970
H165	H	0.046451	0.000350	0.026615
H166	H	0.546451	0.500350	0.526615
H167	H	0.896095	-0.223629	-0.016634
H168	H	1.396095	0.276371	0.483366
H169	H	0.401726	0.088291	-0.001502
H170	H	0.901726	0.588291	0.498498
H171	H	0.923396	-0.617651	0.010615
H172	H	1.423396	-0.117651	0.510615
H173	H	0.701135	0.000253	0.681299
H174	H	1.201135	0.500253	1.181299
Cl175	Cl	0.965186	0.000267	0.284975
Cl176	Cl	1.465186	0.500267	0.784975
Cl177	Cl	0.936408	-0.795132	0.023599
Cl178	Cl	1.436408	-0.295132	0.523599
H179	H	0.744360	-0.775875	-0.168325
H180	H	1.244360	-0.275875	0.331675
H181	H	0.751464	-0.617705	-0.161200
H182	H	1.251464	-0.117705	0.338800
H183	H	0.913148	0.088311	0.357532
H184	H	1.413148	0.588311	0.857532
H185	H	0.727299	-0.087820	0.457503
H186	H	1.227299	0.412180	0.957503
Cl187	Cl	0.681808	0.000202	0.083175
Cl188	Cl	1.181808	0.500202	0.583175
H189	H	0.729229	-0.087840	0.326078
H190	H	1.229229	0.412160	0.826078
H191	H	0.238723	-0.087767	-0.183453
H192	H	0.738723	0.412233	0.316547
Cl193	Cl	0.442771	0.000249	-0.237440
Cl194	Cl	0.942771	0.500249	0.262560
Cl195	Cl	0.679415	0.000209	0.246696
Cl196	Cl	1.179415	0.500209	0.746696
