data_functionalizedCrystal
_audit_creation_method	'MofGen! by Chris Wilmer'
_symmetry_space_group_name_H-M	'P1'
_symmetry_Int_Tables_number	1
_symmetry_cell_setting	triclinic
loop_
_symmetry_equiv_pos_as_xyz
  x,y,z
_cell_length_a	10.654550
_cell_length_b	10.540539
_cell_length_c	9.730223
_cell_angle_alpha	90.000839
_cell_angle_beta	90.000242
_cell_angle_gamma	84.505211
loop_
_atom_site_label
_atom_site_type_symbol
_atom_site_fract_x
_atom_site_fract_y
_atom_site_fract_z
O1	O	1.667902	0.178298	0.114180
O2	O	2.167902	0.678298	0.614180
O3	O	1.302430	0.195285	0.114205
O4	O	1.802430	0.695285	0.614205
O5	O	1.493504	0.002082	0.114190
O6	O	1.993504	0.502082	0.614190
O7	O	1.476828	0.371501	0.114195
O8	O	1.976828	0.871501	0.614195
O9	O	1.493491	0.002082	-0.114390
O10	O	1.993491	0.502082	0.385610
O11	O	1.302416	0.195285	-0.114375
O12	O	1.802416	0.695285	0.385625
O13	O	1.667889	0.178298	-0.114400
O14	O	2.167889	0.678298	0.385600
Zn15	Zn	1.485150	0.186792	-0.150679
Zn16	Zn	1.985150	0.686792	0.349321
Zn17	Zn	1.485168	0.186791	0.150484
Zn18	Zn	1.985168	0.686791	0.650484
O19	O	1.476814	0.371501	-0.114385
O20	O	1.976814	0.871501	0.385615
C21	C	1.255625	0.194038	-0.000082
C22	C	1.755625	0.694038	0.499918
C23	C	1.116180	0.190306	-0.000072
C24	C	1.616180	0.690306	0.499928
C25	C	1.492247	-0.045221	-0.000097
C26	C	1.992247	0.454779	0.499903
C27	C	1.488505	-0.186167	-0.000090
C28	C	1.988505	0.313833	0.499910
C29	C	1.036735	0.304061	-0.000075
C30	C	1.536735	0.804061	0.499925
C31	C	0.905712	0.300547	-0.000099
C32	C	1.405712	0.800547	0.499901
C33	C	0.933594	0.069513	-0.000112
C34	C	1.433594	0.569513	0.499888
C35	C	1.064614	0.073029	-0.000098
C36	C	1.564614	0.573029	0.499902
C37	C	1.345134	-0.369543	0.000433
C38	C	1.845134	0.130457	0.500433
C39	C	1.348927	-0.222926	-0.000082
C40	C	1.848927	0.277074	0.499918
C41	C	1.555669	-0.247849	-0.130624
C42	C	2.055669	0.252151	0.369376
C43	C	1.550905	-0.394392	-0.130734
C44	C	2.050905	0.105608	0.369266
C45	C	1.553759	-0.394911	0.129204
C46	C	2.053759	0.105089	0.629204
C47	C	1.555045	-0.247930	0.130930
C48	C	2.055045	0.252070	0.630930
C49	C	1.714694	0.179545	-0.000110
C50	C	2.214694	0.679545	0.499890
C51	C	1.854139	0.183277	-0.000110
C52	C	2.354139	0.683277	0.499890
C53	C	1.478072	0.418804	-0.000095
C54	C	1.978072	0.918804	0.499905
C55	C	1.481813	0.559750	-0.000093
C56	C	1.981813	1.059750	0.499907
N57	N	1.485147	0.186791	-0.356216
N58	N	1.985147	0.686791	0.143784
C59	C	1.562006	0.264502	-0.428141
C60	C	2.062006	0.764502	0.071859
C61	C	1.562027	0.264495	-0.572024
C62	C	2.062027	0.764495	-0.072024
C63	C	1.408319	0.109062	-0.572044
C64	C	1.908319	0.609062	-0.072044
C65	C	1.408306	0.109064	-0.428163
C66	C	1.908306	0.609064	0.071837
N67	N	1.485181	0.186782	0.356021
N68	N	1.985181	0.686782	0.856021
H69	H	1.078715	0.399556	-0.000064
H70	H	1.578715	0.899556	0.499936
H71	H	0.841032	0.393178	-0.000104
H72	H	1.341032	0.893178	0.499896
H73	H	1.345717	0.045776	-0.369600
H74	H	1.845717	0.545776	0.130400
H75	H	1.651288	-0.442396	-0.136663
H76	H	2.151288	0.057604	0.363337
H77	H	0.891593	-0.025970	-0.000141
H78	H	1.391593	0.474030	0.499859
H79	H	1.129302	-0.019610	-0.000100
H80	H	1.629302	0.480390	0.499900
H81	H	1.290216	-0.399730	-0.092644
H82	H	1.790216	0.100270	0.407356
H83	H	1.296078	-0.180304	0.093491
H84	H	1.796078	0.319696	0.593491
H85	H	1.290003	-0.398123	0.094042
H86	H	1.790003	0.101877	0.594042
H87	H	1.509002	-0.205233	-0.227758
H88	H	2.009002	0.294767	0.272242
H89	H	1.345757	0.045781	-0.630641
H90	H	1.845757	0.545781	-0.130641
H91	H	1.295697	-0.181151	-0.093803
H92	H	1.795697	0.318849	0.406197
H93	H	1.501257	-0.422573	-0.228305
H94	H	2.001257	0.077427	0.271695
H95	H	1.508591	-0.426448	0.228141
H96	H	2.008591	0.073552	0.728141
H97	H	1.624575	0.327792	-0.369566
H98	H	2.124575	0.827792	0.130434
H99	H	1.624615	0.327773	-0.630579
H100	H	2.124615	0.827773	-0.130579
H101	H	1.658171	-0.225532	-0.135484
H102	H	2.158171	0.274468	0.364516
H103	H	1.505902	-0.207054	0.227496
H104	H	2.005902	0.292946	0.727496
H105	H	1.656809	-0.223745	0.138805
H106	H	2.156809	0.276255	0.638805
H107	H	1.654576	-0.442173	0.130075
H108	H	2.154576	0.057827	0.630075
