data_functionalizedCrystal
_audit_creation_method	'MofGen! by Chris Wilmer'
_symmetry_space_group_name_H-M	'P1'
_symmetry_Int_Tables_number	1
_symmetry_cell_setting	triclinic
loop_
_symmetry_equiv_pos_as_xyz
  x,y,z
_cell_length_a	17.077404
_cell_length_b	13.032721
_cell_length_c	13.032268
_cell_angle_alpha	103.289627
_cell_angle_beta	97.162375
_cell_angle_gamma	97.204757
loop_
_atom_site_label
_atom_site_type_symbol
_atom_site_fract_x
_atom_site_fract_y
_atom_site_fract_z
Zn1	Zn	1.090014	-0.499079	-0.654216
Zn2	Zn	1.089929	-0.654163	-0.499164
Zn3	Zn	0.977841	-0.476574	-0.476634
Zn4	Zn	0.939633	-0.676637	-0.676704
O5	O	1.024354	-0.576613	-0.576680
O6	O	1.199847	-0.519664	-0.633666
O7	O	1.091015	-0.611782	-0.347556
O8	O	1.008748	-0.330929	-0.481351
O9	O	1.199784	-0.633604	-0.519749
O10	O	1.091161	-0.347463	-0.611820
O11	O	1.008665	-0.481308	-0.331003
O12	O	0.862929	-0.503100	-0.503156
O13	O	0.943627	-0.671908	-0.822340
O14	O	0.834857	-0.650086	-0.650147
O15	O	1.054112	-0.541456	-0.805819
O16	O	1.053965	-0.805775	-0.541555
O17	O	0.943544	-0.822287	-0.671993
C18	C	0.820412	-0.576590	-0.576648
C19	C	0.733159	-0.576609	-0.576663
C20	C	0.677573	-0.653234	-0.653105
C21	C	0.595590	-0.653238	-0.653122
C22	C	0.569195	-0.576622	-0.576692
C23	C	0.624788	-0.499990	-0.500246
C24	C	0.706769	-0.499982	-0.500234
C25	C	0.453913	-0.500014	-0.500274
C26	C	0.371927	-0.500023	-0.500284
C27	C	0.342735	-0.653270	-0.653162
C28	C	0.424715	-0.653262	-0.653150
C29	C	0.480302	-0.576631	-0.576703
C30	C	0.994618	-0.852572	-0.611682
C31	C	0.981965	-0.970633	-0.626692
C32	C	1.030995	-1.015070	-0.568894
C33	C	1.017918	-1.137092	-0.584405
C34	C	1.229093	-0.576637	-0.576712
C35	C	1.316341	-0.576648	-0.576726
C36	C	0.994617	-0.611699	-0.853693
C37	C	0.981944	-0.626651	-0.971739
C38	C	1.054226	-0.299580	-0.541564
C39	C	1.066955	-0.181525	-0.526599
C40	C	1.030960	-0.568772	-1.016193
C41	C	1.017864	-0.584224	-1.138200
C42	C	1.054030	-0.541587	-0.300734
C43	C	1.066886	-0.526337	-0.182651
H44	H	0.297471	-0.715663	-0.715411
H45	H	1.118546	-0.465335	-1.130388
C46	C	0.595759	-0.415710	-0.416174
H47	H	0.640608	-0.370068	-0.370652
H48	H	0.564377	-0.450399	-0.374980
H49	H	0.564395	-0.374652	-0.451027
H50	H	0.930310	-1.022925	-0.687663
H51	H	0.930280	-0.687636	-1.024005
H52	H	0.966260	-1.189381	-0.645381
C53	C	0.706600	-0.737511	-0.737180
H54	H	0.661751	-0.783139	-0.782715
H55	H	0.737966	-0.778570	-0.702340
H56	H	0.737981	-0.702811	-0.778375
H57	H	0.550335	-0.715634	-0.715368
H58	H	0.350439	-0.437625	-0.438059
H59	H	1.118619	-1.129238	-0.465632
H60	H	1.082618	-0.507777	-0.963926
C61	C	1.100782	-0.944438	-0.486532
H62	H	1.100413	-0.871691	-0.486907
H63	H	1.149917	-0.964475	-0.504419
H64	H	1.095060	-0.953563	-0.417448
C65	C	0.767913	-0.415694	-0.416150
H66	H	0.740453	-0.370070	-0.370627
H67	H	0.800507	-0.374634	-0.450990
H68	H	0.800494	-0.450380	-0.374943
H69	H	0.499171	-0.437605	-0.438031
C70	C	0.948074	-0.666629	-1.208795
H71	H	0.948431	-0.666211	-1.281537
H72	H	0.898939	-0.648807	-1.188695
H73	H	0.953808	-0.735716	-1.199717
H74	H	0.446203	-0.715655	-0.715381
