data_functionalizedCrystal
_audit_creation_method	'MofGen! by Chris Wilmer'
_symmetry_space_group_name_H-M	'P1'
_symmetry_Int_Tables_number	1
_symmetry_cell_setting	triclinic
loop_
_symmetry_equiv_pos_as_xyz
  x,y,z
_cell_length_a	10.654554
_cell_length_b	10.654545
_cell_length_c	9.483290
_cell_angle_alpha	100.360124
_cell_angle_beta	79.640062
_cell_angle_gamma	95.512716
loop_
_atom_site_label
_atom_site_type_symbol
_atom_site_fract_x
_atom_site_fract_y
_atom_site_fract_z
O1	O	-1.650157	0.158792	-0.120968
O2	O	-1.284683	0.175587	-0.120950
O3	O	-1.475822	-0.015550	-0.120958
O4	O	-1.459018	0.349928	-0.120960
O5	O	-1.511138	0.019758	0.120815
O6	O	-1.319999	0.210895	0.120824
O7	O	-1.685473	0.194100	0.120806
Cu8	Cu	-1.505960	0.205721	0.142891
Cu9	Cu	-1.464196	0.163965	-0.143035
O10	O	-1.494334	0.385236	0.120814
C11	C	-1.255543	0.192005	-0.000061
C12	C	-1.116102	0.188309	-0.000055
C13	C	-1.492246	-0.044694	-0.000074
C14	C	-1.488552	-0.184139	-0.000083
C15	C	-1.154579	0.226818	0.263535
C16	C	-1.108308	0.244338	0.395327
C17	C	-0.977289	0.240862	0.395324
C18	C	-0.892538	0.219860	0.263516
C19	C	-0.938809	0.202339	0.131724
C20	C	-1.069832	0.205821	0.131740
C21	C	-0.900333	0.163822	-0.131863
C22	C	-1.031350	0.167307	-0.131864
C23	C	-0.815581	0.142819	-0.263671
C24	C	-0.861851	0.125308	-0.395466
C25	C	-0.992878	0.128786	-0.395459
C26	C	-1.077621	0.149786	-0.263656
C27	C	-1.450065	-0.222641	-0.263672
C28	C	-1.429091	-0.307402	-0.395466
C29	C	-1.425622	-0.438421	-0.395468
C30	C	-1.443125	-0.484680	-0.263661
C31	C	-1.464098	-0.399919	-0.131867
C32	C	-1.467569	-0.268899	-0.131880
C33	C	-1.502576	-0.361416	0.131719
C34	C	-1.506054	-0.230397	0.131724
C35	C	-1.520078	-0.407674	0.263526
C36	C	-1.541061	-0.322914	0.395323
C37	C	-1.544531	-0.191888	0.395319
C38	C	-1.527028	-0.145636	0.263518
C39	C	-0.714615	0.177672	-0.000078
C40	C	-0.854062	0.181342	-0.000071
C41	C	-1.477910	0.414380	-0.000073
C42	C	-1.481602	0.553823	-0.000074
N43	N	-1.535345	0.235089	0.343995
N44	N	-1.434821	0.134587	-0.344140
C45	C	-1.497318	0.197055	0.583628
C46	C	-1.472839	0.172612	0.416224
H47	H	-1.261261	0.229668	0.263550
C48	C	-1.376054	0.075927	0.332360
H49	H	-1.372297	0.072182	0.230847
H50	H	-1.293965	0.102139	0.357264
H51	H	-1.402206	-0.006196	0.357214
H52	H	-1.452902	-0.115962	-0.263684
C53	C	-1.201533	0.267446	0.540305
H54	H	-1.286189	0.267021	0.521438
H55	H	-1.196910	0.201685	0.594471
H56	H	-1.179018	0.347907	0.594439
H57	H	-0.939616	0.255138	0.502641
C58	C	-1.402550	-0.531665	-0.540432
H59	H	-1.402983	-0.616317	-0.521547
H60	H	-1.468319	-0.527043	-0.594586
H61	H	-1.322092	-0.509170	-0.594586
H62	H	-1.030542	0.114515	-0.502780
C63	C	-1.560305	-0.373793	0.540294
H64	H	-1.573290	-0.304551	0.618788
H65	H	-1.632853	-0.433050	0.545778
H66	H	-1.486625	-0.415155	0.545762
C67	C	-1.594086	0.293749	0.667498
H68	H	-1.597851	0.297485	0.769010
H69	H	-1.567936	0.375861	0.642633
H70	H	-1.676185	0.267534	0.642604
C71	C	-1.409845	-0.256522	-0.540446
H72	H	-1.396848	-0.325767	-0.618935
H73	H	-1.483508	-0.215148	-0.545920
H74	H	-1.337280	-0.197276	-0.545934
C75	C	-1.567602	-0.098660	0.540296
H76	H	-1.577535	-0.144980	0.618785
H77	H	-1.496649	-0.037808	0.545770
H78	H	-1.642877	-0.055692	0.545783
H79	H	-1.517245	-0.514357	0.263516
H80	H	-1.606969	0.306681	0.406082
H81	H	-1.363187	0.063016	0.593766
H82	H	-0.785859	0.217015	0.263526
H83	H	-1.529857	-0.038957	0.263502
C84	C	-0.768628	0.102210	-0.540435
H85	H	-0.683972	0.102650	-0.521560
H86	H	-0.791138	0.021764	-0.594586
H87	H	-0.773243	0.167990	-0.594588
H88	H	-1.184305	0.152628	-0.263637
H89	H	-0.708902	0.139981	-0.263664
H90	H	-1.440283	-0.591362	-0.263674
