data_functionalizedCrystal
_audit_creation_method	'MofGen! by Chris Wilmer'
_symmetry_space_group_name_H-M	'P1'
_symmetry_Int_Tables_number	1
_symmetry_cell_setting	triclinic
loop_
_symmetry_equiv_pos_as_xyz
  x,y,z
_cell_length_a	8.597187
_cell_length_b	7.681481
_cell_length_c	8.634740
_cell_angle_alpha	83.366800
_cell_angle_beta	87.119854
_cell_angle_gamma	91.833072
loop_
_atom_site_label
_atom_site_type_symbol
_atom_site_fract_x
_atom_site_fract_y
_atom_site_fract_z
O1	O	2.077453	0.461593	-0.276122
O2	O	2.577453	0.961593	0.223878
O3	O	1.629067	0.393571	-0.287121
O4	O	2.129067	0.893571	0.212879
O5	O	1.832036	0.424358	-0.056504
O6	O	2.332036	0.924358	0.443496
O7	O	1.874485	0.430806	-0.506739
O8	O	2.374485	0.930806	-0.006739
O9	O	1.857008	0.135288	-0.028053
O10	O	2.357008	0.635288	0.471947
O11	O	1.654040	0.104501	-0.258670
O12	O	2.154040	0.604501	0.241330
O13	O	2.102425	0.172523	-0.247670
O14	O	2.602425	0.672523	0.252330
Zn15	Zn	1.882197	0.092616	-0.248653
Zn16	Zn	2.382197	0.592616	0.251347
Zn17	Zn	1.849295	0.473478	-0.286139
Zn18	Zn	2.349295	0.973478	0.213861
O19	O	1.899457	0.141737	-0.478288
O20	O	2.399457	0.641737	0.021712
C21	C	1.583554	0.240238	-0.270129
C22	C	2.083554	0.740238	0.229871
C23	C	1.410732	0.214020	-0.261866
C24	C	1.910732	0.714020	0.238134
N25	N	1.904663	-0.167310	-0.223069
N26	N	2.404663	0.332690	0.276931
C27	C	2.147938	0.325861	-0.264663
C28	C	2.647938	0.825861	0.235337
C29	C	2.320760	0.352090	-0.272927
C30	C	2.820760	0.852090	0.227073
C31	C	1.834905	0.278367	0.015462
C32	C	2.334905	0.778367	0.515462
C33	C	1.806232	0.274025	0.187511
C34	C	2.306232	0.774025	0.687511
N35	N	1.826840	0.733407	-0.311711
N36	N	2.326840	1.233407	0.188289
C37	C	1.896587	0.287731	-0.550254
C38	C	2.396587	0.787731	-0.050254
C39	C	1.925260	0.292085	-0.722304
C40	C	2.425260	0.792085	-0.222304
H41	H	1.355545	0.075765	-0.246092
H42	H	1.855545	0.575765	0.253908
H43	H	1.984124	-0.230463	-0.132598
H44	H	2.484124	0.269537	0.367402
F45	F	2.087132	0.316651	0.206579
F46	F	2.587132	0.816651	0.706579
H47	H	1.747397	-0.203447	-0.402187
H48	H	2.247397	0.296553	0.097813
H49	H	1.682381	0.255248	0.241928
H50	H	2.182381	0.755248	0.741928
H51	H	1.375954	0.490354	-0.288720
H52	H	1.875954	0.990354	0.211280
