data_functionalizedCrystal
_audit_creation_method	'MofGen! by Chris Wilmer'
_symmetry_space_group_name_H-M	'P1'
_symmetry_Int_Tables_number	1
_symmetry_cell_setting	triclinic
loop_
_symmetry_equiv_pos_as_xyz
  x,y,z
_cell_length_a	19.077105
_cell_length_b	16.959447
_cell_length_c	19.077068
_cell_angle_alpha	92.264956
_cell_angle_beta	90.115316
_cell_angle_gamma	87.687315
loop_
_atom_site_label
_atom_site_type_symbol
_atom_site_fract_x
_atom_site_fract_y
_atom_site_fract_z
Zn1	Zn	1.062960	-0.509380	-0.322959
Zn2	Zn	1.562960	-0.009380	0.177041
Zn3	Zn	1.058154	-0.382277	-0.440473
Zn4	Zn	1.558154	0.117723	0.059527
Zn5	Zn	0.945460	-0.371708	-0.318259
Zn6	Zn	1.445460	0.128292	0.181741
Zn7	Zn	0.940695	-0.508905	-0.435700
Zn8	Zn	1.440695	-0.008905	0.064300
O9	O	1.001818	-0.443068	-0.379348
O10	O	1.501818	0.056932	0.120652
O11	O	1.160654	-0.497142	-0.342511
O12	O	1.660654	0.002858	0.157489
O13	O	1.043188	-0.270265	-0.424292
O14	O	1.543188	0.229735	0.075708
O15	O	0.965053	-0.385746	-0.220553
O16	O	1.465053	0.114254	0.279447
O17	O	1.157123	-0.403760	-0.428849
O18	O	1.657123	0.096240	0.071151
O19	O	1.051379	-0.486893	-0.224006
O20	O	1.551379	0.013107	0.275994
O21	O	0.960393	-0.262500	-0.334502
O22	O	1.460393	0.237500	0.165498
O23	O	0.846497	-0.385286	-0.329874
O24	O	1.346497	0.114714	0.170126
O25	O	0.956931	-0.619578	-0.420714
O26	O	1.456931	-0.119578	0.079286
O27	O	0.842996	-0.486084	-0.416157
O28	O	1.342996	0.013916	0.083843
O29	O	1.046758	-0.619927	-0.337884
O30	O	1.546758	-0.119927	0.162116
O31	O	1.038568	-0.403299	-0.538170
O32	O	1.538568	0.096701	-0.038170
O33	O	0.952271	-0.496332	-0.534663
O34	O	1.452271	0.003668	-0.034663
C35	C	0.819251	-0.434487	-0.371988
C36	C	1.319251	0.065513	0.128012
C37	C	0.741147	-0.430835	-0.368857
C38	C	1.241147	0.069165	0.131143
C39	C	0.702646	-0.481523	-0.412376
C40	C	1.202646	0.018477	0.087624
C41	C	0.629260	-0.478096	-0.409425
C42	C	1.129260	0.021904	0.090575
C43	C	0.594375	-0.423976	-0.362956
C44	C	1.094375	0.076024	0.137044
C45	C	0.632881	-0.373285	-0.319432
C46	C	1.132881	0.126715	0.180568
C47	C	0.706266	-0.376717	-0.322380
C48	C	1.206266	0.123283	0.177620
C49	C	0.375091	-0.408096	-0.349310
C50	C	0.875091	0.091904	0.150690
C51	C	0.301701	-0.404666	-0.346366
C52	C	0.801701	0.095334	0.153634
C53	C	0.298085	-0.509478	-0.436358
C54	C	0.798085	-0.009478	0.063642
C55	C	0.371472	-0.512902	-0.439306
C56	C	0.871472	-0.012902	0.060694
C57	C	0.409971	-0.462214	-0.395778
C58	C	0.909971	0.037786	0.104222
N59	N	0.519363	-0.420469	-0.359940
N60	N	1.019363	0.079531	0.140060
N61	N	0.484982	-0.465725	-0.398792
N62	N	0.984982	0.034275	0.101208
C63	C	1.001849	-0.649235	-0.379291
C64	C	1.501849	-0.149235	0.120709
C65	C	1.001863	-0.737091	-0.379267
C66	C	1.501863	-0.237091	0.120733
C67	C	0.955180	-1.108388	-0.422322
C68	C	1.455180	-0.608388	0.077678
C69	C	1.048719	-1.108747	-0.336070
C70	C	1.548719	-0.608747	0.163930
C71	C	1.048699	-1.026201	-0.336084
C72	C	1.548699	-0.526201	0.163916
C73	C	1.001921	-0.984745	-0.379218
C74	C	1.501921	-0.484745	0.120782
C75	C	0.955161	-1.025835	-0.422339
C76	C	1.455161	-0.525835	0.077661
C77	C	1.095463	-0.985105	-0.292969
C78	C	1.595463	-0.485105	0.207031
C79	C	1.095446	-0.902554	-0.292982
C80	C	1.595446	-0.402554	0.207018
C81	C	1.048663	-0.861096	-0.336114
C82	C	1.548663	-0.361096	0.163886
C83	C	1.001901	-0.902191	-0.379235
C84	C	1.501901	-0.402191	0.120765
C85	C	0.955123	-0.860735	-0.422370
C86	C	1.455123	-0.360735	0.077630
C87	C	0.908357	-0.901828	-0.465489
C88	C	1.408357	-0.401828	0.034511
C89	C	0.908378	-0.984377	-0.465470
C90	C	1.408378	-0.484377	0.034530
C91	C	1.048641	-0.778547	-0.336132
C92	C	1.548641	-0.278547	0.163868
C93	C	0.955103	-0.778181	-0.422387
C94	C	1.455103	-0.278181	0.077613
C95	C	1.185098	-0.451683	-0.386737
C96	C	1.685098	0.048317	0.113263
C97	C	1.263201	-0.455354	-0.389885
C98	C	1.763201	0.044646	0.110115
C99	C	0.994400	-0.450929	-0.561913
C100	C	1.494400	0.049071	-0.061913
C101	C	0.991291	-0.454322	-0.640018
C102	C	1.491291	0.045678	-0.140018
C103	C	1.001829	-0.237702	-0.379355
C104	C	1.501829	0.262298	0.120645
C105	C	1.001959	-0.149844	-0.379187
C106	C	1.501959	0.350156	0.120813
C107	C	1.034795	-0.407522	-0.678515
C108	C	1.534795	0.092478	-0.178515
C109	C	1.031875	-0.410718	-0.751903
C110	C	1.531875	0.089282	-0.251903
C111	C	0.985447	-0.460710	-0.786792
C112	C	1.485447	0.039290	-0.286792
C113	C	0.941941	-0.507515	-0.748289
C114	C	1.441941	-0.007515	-0.248289
C115	C	0.944865	-0.504323	-0.674903
C116	C	1.444865	-0.004323	-0.174903
C117	C	0.971883	-0.475451	-1.006080
C118	C	1.471883	0.024549	-0.506080
C119	C	0.968961	-0.478638	-1.079471
C120	C	1.468961	0.021362	-0.579471
C121	C	1.058897	-0.381841	-1.083080
C122	C	1.558897	0.118159	-0.583080
C123	C	1.061813	-0.378650	-1.009692
C124	C	1.561813	0.121350	-0.509692
C125	C	1.018310	-0.425458	-0.971196
C126	C	1.518310	0.074542	-0.471196
N127	N	0.982459	-0.463976	-0.861806
N128	N	1.482459	0.036024	-0.361806
N129	N	1.021301	-0.422196	-0.896183
N130	N	1.521301	0.077804	-0.396183
C131	C	1.009283	-0.435193	-0.196071
C132	C	1.509283	0.064807	0.303929
C133	C	1.012465	-0.431838	-0.117969
C134	C	1.512465	0.068162	0.382031
H135	H	0.737613	-0.335446	-0.286938
H136	H	1.237613	0.164554	0.213062
H137	H	1.133525	-0.869102	-0.257872
H138	H	1.633525	-0.369102	0.242128
C139	C	0.263329	-0.345128	-0.295244
C140	C	0.763329	0.154872	0.204756
N141	N	0.234428	-0.300285	-0.256741
N142	N	0.734428	0.199715	0.243259
H143	H	0.904141	-0.548223	-0.776701
H144	H	1.404141	-0.048223	-0.276701
C145	C	0.417431	-0.352332	-0.301432
C146	C	0.917431	0.147668	0.198568
N147	N	0.449324	-0.310328	-0.265370
N148	N	0.949324	0.189672	0.234630
H149	H	0.917004	-0.744433	-0.457506
H150	H	1.417004	-0.244433	0.042494
C151	C	0.409839	-0.572434	-0.490428
C152	C	0.909839	-0.072434	0.009572
N153	N	0.438737	-0.617272	-0.528937
N154	N	0.938737	-0.117272	-0.028937
H155	H	1.094316	-0.343734	-1.114431
H156	H	1.594316	0.156266	-0.614431
C157	C	0.741013	-0.541060	-0.463496
C158	C	1.241013	-0.041060	0.036504
N159	N	0.769908	-0.585907	-0.501999
N160	N	1.269908	-0.085907	-0.001999
C161	C	0.586912	-0.533842	-0.457314
C162	C	1.086912	-0.033842	0.042686
N163	N	0.555016	-0.575829	-0.493390
N164	N	1.055016	-0.075829	0.006610
H165	H	0.604472	-0.329223	-0.281593
H166	H	1.104472	0.170777	0.218407
C167	C	1.085869	-0.352525	-0.640144
C168	C	1.585869	0.147475	-0.140144
N169	N	1.124341	-0.311101	-0.611246
N170	N	1.624341	0.188899	-0.111246
C171	C	1.100081	-0.733348	-0.288705
C172	C	1.600081	-0.233348	0.211295
N173	N	1.138827	-0.699305	-0.252979
N174	N	1.638827	-0.199305	0.247021
H175	H	0.870272	-0.868064	-0.500612
H176	H	1.370272	-0.368064	-0.000612
C177	C	0.903736	-1.153591	-0.469745
C178	C	1.403736	-0.653591	0.030255
N179	N	0.864986	-1.187638	-0.505463
N180	N	1.364986	-0.687638	-0.005463
C181	C	0.856937	-1.029585	-0.512893
C182	C	1.356937	-0.529585	-0.012893
N183	N	0.818191	-1.063639	-0.548610
N184	N	1.318191	-0.563639	-0.048610
H185	H	1.086808	-1.142506	-0.300955
H186	H	1.586808	-0.642506	0.199045
C187	C	1.146909	-1.030710	-0.245517
C188	C	1.646909	-0.530710	0.254483
N189	N	1.185655	-1.065064	-0.209769
N190	N	1.685655	-0.565064	0.290231
H191	H	0.931161	-0.519361	-1.107876
H192	H	1.431161	-0.019361	-0.607876
H193	H	1.067300	-0.372608	-0.783244
H194	H	1.567300	0.127392	-0.283244
C195	C	1.112870	-0.323634	-0.971319
C196	C	1.612870	0.176366	-0.471319
N197	N	1.151319	-0.282185	-0.942417
N198	N	1.651319	0.217815	-0.442417
C199	C	0.924063	-0.526983	-0.963745
C200	C	1.424063	-0.026983	-0.463745
N201	N	0.888056	-0.565816	-0.931856
N202	N	1.388056	-0.065816	-0.431856
H203	H	0.266731	-0.550746	-0.471794
H204	H	0.766731	-0.050746	0.028206
C205	C	0.897007	-0.555807	-0.632556
C206	C	1.397007	-0.055807	-0.132556
N207	N	0.860960	-0.594589	-0.600661
N208	N	1.360960	-0.094589	-0.100661
