data_functionalizedCrystal
_audit_creation_method	'MofGen! by Chris Wilmer'
_symmetry_space_group_name_H-M	'P1'
_symmetry_Int_Tables_number	1
_symmetry_cell_setting	triclinic
loop_
_symmetry_equiv_pos_as_xyz
  x,y,z
_cell_length_a	15.944551
_cell_length_b	10.654550
_cell_length_c	9.130313
_cell_angle_alpha	89.999890
_cell_angle_beta	90.004256
_cell_angle_gamma	83.991821
loop_
_atom_site_label
_atom_site_type_symbol
_atom_site_fract_x
_atom_site_fract_y
_atom_site_fract_z
O1	O	1.115457	0.161961	-0.121643
O2	O	1.615457	0.661961	0.378357
O3	O	0.871023	0.181929	-0.121679
O4	O	1.371023	0.681929	0.378321
O5	O	0.998860	-0.010867	-0.121654
O6	O	1.498860	0.489133	0.378346
O7	O	0.987620	0.354757	-0.121667
O8	O	1.487620	0.854757	0.378333
O9	O	0.998858	-0.010862	0.121944
O10	O	1.498858	0.489138	0.621944
O11	O	0.871021	0.181935	0.121920
O12	O	1.371021	0.681935	0.621920
O13	O	1.115455	0.161966	0.121956
O14	O	1.615455	0.661966	0.621956
Cu15	Cu	0.993238	0.171951	0.144181
Cu16	Cu	1.493238	0.671951	0.644181
Cu17	Cu	0.993240	0.171945	-0.143903
Cu18	Cu	1.493240	0.671945	0.356097
O19	O	0.987618	0.354762	0.121932
O20	O	1.487618	0.854762	0.621932
C21	C	0.998034	-0.057652	0.000143
C22	C	1.498034	0.442348	0.500143
C23	C	0.995565	-0.197063	0.000138
C24	C	1.495565	0.302937	0.500138
C25	C	0.839723	0.181103	0.000116
C26	C	1.339723	0.681103	0.500116
C27	C	0.746463	0.178618	0.000102
C28	C	1.246463	0.678618	0.500102
C29	C	1.070833	-0.277522	0.000153
C30	C	1.570833	0.222478	0.500153
C31	C	1.068508	-0.408513	0.000143
C32	C	1.568508	0.091487	0.500143
C33	C	0.915639	-0.378572	0.000107
C34	C	1.415639	0.121428	0.500107
C35	C	0.917965	-0.247584	0.000107
C36	C	1.417965	0.252416	0.500107
C37	C	1.159090	-0.294810	0.000180
C38	C	1.659090	0.205190	0.500180
C39	C	1.156765	-0.425801	0.000169
C40	C	1.656765	0.074199	0.500169
C41	C	0.530880	0.053173	0.000135
C42	C	1.030880	0.553173	0.500135
C43	C	0.470198	0.111423	-0.119974
C44	C	0.970198	0.611423	0.380026
C45	C	0.575711	0.174122	0.000120
C46	C	1.075711	0.674122	0.500120
C47	C	0.470219	0.111457	0.120195
C48	C	0.970219	0.611457	0.620195
C49	C	0.410773	0.169770	0.000143
C50	C	0.910773	0.669770	0.500143
C51	C	0.516257	0.232405	-0.120088
C52	C	1.016257	0.732405	0.379912
C53	C	0.516284	0.232421	0.120189
C54	C	1.016284	0.732421	0.620189
C55	C	0.455620	0.290759	0.000050
C56	C	0.955620	0.790759	0.500050
C57	C	0.670728	0.176625	0.000105
C58	C	1.170728	0.676625	0.500105
C59	C	0.315757	0.167276	0.000147
C60	C	0.815757	0.667276	0.500147
C61	C	1.146755	0.162792	0.000158
C62	C	1.646755	0.662792	0.500158
C63	C	1.240015	0.165278	0.000162
C64	C	1.740015	0.665278	0.500162
C65	C	0.988444	0.401547	0.000131
C66	C	1.488444	0.901547	0.500131
C67	C	0.990913	0.540958	0.000127
C68	C	1.490913	1.040958	0.500127
N69	N	0.993243	0.171954	0.346803
N70	N	1.493243	0.671954	0.846803
N71	N	0.993242	0.171931	-0.346526
N72	N	1.493242	0.671931	0.153474
C73	C	1.049864	0.086613	0.423466
C74	C	1.549864	0.586613	0.923466
C75	C	1.049861	0.086598	0.576803
C76	C	1.549861	0.586598	1.076803
C77	C	0.936615	0.257277	0.576801
C78	C	1.436615	0.757277	1.076801
C79	C	0.936614	0.257285	0.423467
C80	C	1.436614	0.757285	0.923467
C81	C	1.115248	-0.011924	0.423468
C82	C	1.615248	0.488076	0.923468
C83	C	1.115246	-0.011939	0.576805
C84	C	1.615246	0.488061	1.076805
H85	H	0.852460	-0.419722	0.000081
H86	H	1.352460	0.080278	0.500081
N87	N	0.841080	-0.165397	0.000049
N88	N	1.341080	0.334603	0.500049
N89	N	0.789654	-0.170007	-0.102657
N90	N	1.289654	0.329993	0.397343
H91	H	0.735349	-0.111963	-0.102701
H92	H	1.235349	0.388037	0.397299
H93	H	1.094839	-0.102897	0.624352
H94	H	1.594839	0.397103	1.124352
H95	H	0.536711	0.283537	0.221734
H96	H	1.036711	0.783537	0.721734
N97	N	1.196211	0.014019	0.629048
N98	N	1.696211	0.514019	1.129048
N99	N	1.202705	0.108491	0.707781
N100	N	1.702705	0.608491	1.207781
H101	H	1.259884	0.126821	0.744682
H102	H	1.759884	0.626821	1.244682
N103	N	1.202402	-0.258553	-0.127692
N104	N	1.702402	0.241447	0.372308
N105	N	1.231003	-0.340427	-0.217791
N106	N	1.731003	0.159573	0.282209
H107	H	1.261592	-0.314821	-0.308099
H108	H	1.761592	0.185179	0.191901
N109	N	1.194343	-0.250577	0.132140
N110	N	1.694343	0.249423	0.632140
N111	N	1.218799	-0.326990	0.230960
N112	N	1.718799	0.173010	0.730960
H113	H	1.243695	-0.295751	0.324160
H114	H	1.743695	0.204249	0.824160
H115	H	1.183439	-0.471791	-0.105006
H116	H	1.683439	0.028209	0.394994
H117	H	0.536541	0.283520	-0.221742
H118	H	1.036541	0.783520	0.278258
H119	H	1.190019	-0.467989	0.102118
H120	H	1.690019	0.032011	0.602118
N121	N	0.571927	-0.072772	-0.000017
N122	N	1.071927	0.427228	0.499983
N123	N	0.559930	-0.145797	-0.103305
N124	N	1.059930	0.354203	0.396695
H125	H	0.588919	-0.234744	-0.103419
H126	H	1.088919	0.265256	0.396581
N127	N	1.191756	0.025472	0.363846
N128	N	1.691756	0.525472	0.863846
N129	N	1.260642	-0.036760	0.392596
N130	N	1.760642	0.463240	0.892596
H131	H	1.314675	-0.010336	0.350495
H132	H	1.814675	0.489664	0.850495
H133	H	0.449792	0.060264	-0.221514
H134	H	0.949792	0.560264	0.278486
H135	H	0.423043	0.391240	-0.000020
H136	H	0.923043	0.891240	0.499980
H137	H	0.449836	0.060280	0.221735
H138	H	0.949836	0.560280	0.721735
N139	N	0.878758	0.344447	0.345179
N140	N	1.378758	0.844447	0.845179
N141	N	0.828201	0.420621	0.413651
N142	N	1.328201	0.920621	0.913651
H143	H	0.787336	0.482181	0.358362
H144	H	1.287336	0.982181	0.858362
H145	H	0.890508	0.326750	0.639237
H146	H	1.390508	0.826750	1.139237
H147	H	1.100907	-0.108271	0.381849
H148	H	1.600907	0.391729	0.881849
