data_functionalizedCrystal
_audit_creation_method	'MofGen! by Chris Wilmer'
_symmetry_space_group_name_H-M	'P1'
_symmetry_Int_Tables_number	1
_symmetry_cell_setting	triclinic
loop_
_symmetry_equiv_pos_as_xyz
  x,y,z
_cell_length_a	19.288864
_cell_length_b	19.288865
_cell_length_c	17.766277
_cell_angle_alpha	90.011603
_cell_angle_beta	90.023209
_cell_angle_gamma	83.136245
loop_
_atom_site_label
_atom_site_type_symbol
_atom_site_fract_x
_atom_site_fract_y
_atom_site_fract_z
O1	O	-0.921353	-0.086649	-0.062844
O2	O	-0.421353	0.413351	0.437156
O3	O	-0.719092	-0.098337	-0.062794
O4	O	-0.219092	0.401663	0.437206
O5	O	-0.826067	0.008637	-0.062806
O6	O	-0.326067	0.508637	0.437194
O7	O	-0.814378	-0.193623	-0.062832
O8	O	-0.314378	0.306377	0.437168
O9	O	-0.826048	0.008643	0.062383
O10	O	-0.326048	0.508643	0.562383
O11	O	-0.719074	-0.098332	0.062395
O12	O	-0.219074	0.401668	0.562395
O13	O	-0.921334	-0.086643	0.062344
O14	O	-0.421334	0.413357	0.562344
Cu15	Cu	-0.820202	-0.092487	0.073800
Cu16	Cu	-0.320202	0.407513	0.573800
Cu17	Cu	-0.820224	-0.092494	-0.074250
Cu18	Cu	-0.320224	0.407506	0.425750
O19	O	-0.814360	-0.193618	0.062356
O20	O	-0.314360	0.306382	0.562356
C21	C	-0.693207	-0.097959	-0.000193
C22	C	-0.193207	0.402041	0.499807
C23	C	-0.616103	-0.096830	-0.000173
C24	C	-0.116103	0.403170	0.499827
C25	C	-0.825682	0.034516	-0.000209
C26	C	-0.325682	0.534516	0.499791
C27	C	-0.824553	0.111620	-0.000202
C28	C	-0.324553	0.611620	0.499798
C29	C	-0.947220	-0.087022	-0.000258
C30	C	-0.447220	0.412978	0.499742
C31	C	-1.024324	-0.088151	-0.000283
C32	C	-0.524324	0.411849	0.499717
C33	C	-0.814745	-0.219497	-0.000242
C34	C	-0.314745	0.280503	0.499758
C35	C	-0.815874	-0.296601	-0.000254
C36	C	-0.315874	0.203399	0.499746
C37	C	-0.571407	-0.159598	-0.000193
C38	C	-0.071407	0.340402	0.499807
C39	C	-0.498960	-0.158537	-0.000201
C40	C	0.001040	0.341463	0.499799
C41	C	-0.471212	-0.094705	-0.000205
C42	C	0.028788	0.405295	0.499795
C43	C	-0.515918	-0.031929	-0.000180
C44	C	-0.015918	0.468071	0.499820
C45	C	-0.588364	-0.032991	-0.000164
C46	C	-0.088364	0.467009	0.499836
C47	C	-0.362957	-0.044527	-0.044082
C48	C	0.137043	0.455473	0.455918
C49	C	-0.290512	-0.043468	-0.044103
C50	C	0.209488	0.456532	0.455897
C51	C	-0.247767	-0.091425	-0.000250
C52	C	0.252233	0.408575	0.499750
C53	C	-0.277473	-0.140454	0.043614
C54	C	0.222527	0.359546	0.543614
C55	C	-0.349918	-0.141517	0.043630
C56	C	0.150082	0.358483	0.543630
C57	C	-0.392658	-0.093546	-0.000221
C58	C	0.107342	0.406454	0.499779
C59	C	-0.124514	-0.153047	-0.000278
C60	C	0.375486	0.346953	0.499722
C61	C	-0.052066	-0.151984	-0.000281
C62	C	0.447934	0.348016	0.499719
C63	C	-0.069026	-0.025374	-0.000267
C64	C	0.430974	0.474626	0.499733
C65	C	-0.141473	-0.026439	-0.000256
C66	C	0.358527	0.473561	0.499744
C67	C	-0.169212	-0.090278	-0.000265
C68	C	0.330788	0.409722	0.499735
N69	N	-0.820192	-0.092482	0.177931
N70	N	-0.320192	0.407518	0.677931
C71	C	-0.887321	0.156316	-0.000214
C72	C	-0.387321	0.656316	0.499786
C73	C	-0.886260	0.228763	-0.000226
C74	C	-0.386260	0.728763	0.499774
C75	C	-0.822428	0.256511	-0.000210
C76	C	-0.322428	0.756511	0.499790
C77	C	-0.759652	0.211805	-0.000203
C78	C	-0.259652	0.711805	0.499797
C79	C	-0.760714	0.139359	-0.000198
C80	C	-0.260714	0.639359	0.499802
C81	C	-0.772242	0.364800	0.043653
C82	C	-0.272242	0.864800	0.543653
C83	C	-0.771182	0.437245	0.043654
C84	C	-0.271182	0.937245	0.543654
C85	C	-0.819148	0.479956	-0.000226
C86	C	-0.319148	0.979956	0.499774
C87	C	-0.868186	0.450216	-0.044097
C88	C	-0.368186	0.950216	0.455903
C89	C	-0.869249	0.377771	-0.044093
C90	C	-0.369249	0.877771	0.455907
C91	C	-0.821269	0.335065	-0.000215
C92	C	-0.321269	0.835065	0.499785
C93	C	-0.880770	0.603209	-0.000252
C94	C	-0.380770	1.103209	0.499748
C95	C	-0.879707	0.675657	-0.000268
C96	C	-0.379707	1.175657	0.499732
C97	C	-0.753097	0.658697	-0.000238
C98	C	-0.253097	1.158697	0.499762
C99	C	-0.754162	0.586250	-0.000229
C100	C	-0.254162	1.086250	0.499771
C101	C	-0.818001	0.558511	-0.000232
C102	C	-0.318001	1.058511	0.499768
N103	N	-0.820241	-0.092493	-0.178380
N104	N	-0.320241	0.407507	0.321620
C105	C	-0.867575	-0.045137	0.217312
C106	C	-0.367575	0.454863	0.717312
C107	C	-0.867579	-0.045134	0.296114
C108	C	-0.367579	0.454866	0.796114
C109	C	-0.820206	-0.092488	0.335531
C110	C	-0.320206	0.407512	0.835531
C111	C	-0.772814	-0.139837	0.296140
C112	C	-0.272814	0.360163	0.796140
C113	C	-0.772807	-0.139834	0.217340
C114	C	-0.272807	0.360166	0.717340
C115	C	-0.810908	-0.155775	0.460362
C116	C	-0.310908	0.344225	0.960362
C117	C	-0.810920	-0.155779	0.539161
C118	C	-0.310920	0.344221	1.039161
C119	C	-0.820225	-0.092496	0.578577
C120	C	-0.320225	0.407504	1.078577
C121	C	-0.829533	-0.029207	0.539185
C122	C	-0.329533	0.470793	1.039185
C123	C	-0.829525	-0.029204	0.460385
C124	C	-0.329525	0.470796	0.960385
C125	C	-0.820209	-0.092496	0.420977
C126	C	-0.320209	0.407504	0.920977
C127	C	-0.867616	-0.045143	0.703405
C128	C	-0.367616	0.454857	1.203405
C129	C	-0.867615	-0.045139	0.782208
C130	C	-0.367615	0.454861	1.282208
C131	C	-0.772853	-0.139848	0.782233
C132	C	-0.272853	0.360152	1.282233
C133	C	-0.772850	-0.139846	0.703431
C134	C	-0.272850	0.360154	1.203431
C135	C	-0.820235	-0.092495	0.664022
C136	C	-0.320235	0.407505	1.164022
H137	H	-0.593987	-0.211580	-0.000202
H138	H	-0.093987	0.288420	0.499798
H139	H	-0.462561	-0.209652	-0.000216
H140	H	0.037439	0.290348	0.499784
H141	H	-0.177866	0.024674	-0.000244
H142	H	0.322134	0.524674	0.499756
O143	O	-0.381957	-0.194392	0.090941
O144	O	0.118043	0.305608	0.590941
H145	H	-0.439512	-0.187074	0.083578
H146	H	0.060488	0.312926	0.583578
H147	H	-0.015674	-0.203099	-0.000293
H148	H	0.484326	0.296901	0.499707
H149	H	-0.703049	0.549857	-0.000215
H150	H	-0.203049	1.049857	0.499785
H151	H	-0.242670	-0.179505	0.079324
H152	H	0.257330	0.320495	0.579324
H153	H	-0.734278	-0.178402	0.814325
H154	H	-0.234278	0.321598	1.314325
O155	O	-0.839499	0.039015	0.417825
O156	O	-0.339499	0.539015	0.917825
H157	H	-0.890773	0.068114	0.432857
H158	H	-0.390773	0.568114	0.932857
O159	O	-0.154442	-0.221897	-0.000272
O160	O	0.345558	0.278103	0.499728
H161	H	-0.111187	-0.265367	-0.000273
H162	H	0.388813	0.234633	0.499727
H163	H	-0.803318	-0.207311	0.428276
H164	H	-0.303318	0.292689	0.928276
O165	O	-0.949623	0.573287	-0.000267
O166	O	-0.449623	1.073287	0.499733
H167	H	-0.939817	0.515401	-0.000251
H168	H	-0.439817	1.015401	0.499749
H169	H	-0.906166	-0.006578	0.328185
H170	H	-0.406166	0.493422	0.828185
O171	O	-0.409060	0.007198	-0.091388
O172	O	0.090940	0.507198	0.408612
H173	H	-0.376233	0.041459	-0.121901
H174	H	0.123767	0.541459	0.378099
O175	O	-0.839574	0.039061	0.581676
O176	O	-0.339574	0.539061	1.081676
H177	H	-0.793198	0.043412	0.617596
H178	H	-0.293198	0.543412	1.117596
O179	O	-0.918711	0.005933	0.660890
O180	O	-0.418711	0.505933	1.160890
H181	H	-0.951654	0.038866	0.701518
H182	H	-0.451654	0.538866	1.201518
O183	O	-0.922132	0.345696	-0.091414
O184	O	-0.422132	0.845696	0.408586
H185	H	-0.914812	0.288146	-0.084034
H186	H	-0.414812	0.788146	0.415966
H187	H	-0.731249	0.461453	0.079371
H188	H	-0.231249	0.961453	0.579371
O189	O	-0.039111	0.043477	-0.000271
O190	O	0.460889	0.543477	0.499729
H191	H	0.018774	0.033672	-0.000289
H192	H	0.518774	0.533672	0.499711
H193	H	-0.266331	-0.003548	-0.079822
H194	H	0.233669	0.496452	0.420178
O195	O	-0.485997	0.036921	-0.000184
O196	O	0.014003	0.536921	0.499816
H197	H	-0.428112	0.027116	-0.000205
H198	H	0.071888	0.527116	0.499795
O199	O	-0.919924	0.496271	-0.091435
O200	O	-0.419924	0.996271	0.408565
H201	H	-0.910943	0.551643	-0.084079
H202	H	-0.410943	1.051643	0.415921
H203	H	-0.803345	-0.207313	0.571228
H204	H	-0.303345	0.292687	1.071228
H205	H	-0.906198	-0.006581	0.814274
H206	H	-0.406198	0.493419	1.314274
O207	O	-0.636579	0.034711	-0.000146
O208	O	-0.136579	0.534711	0.499854
H209	H	-0.605117	0.079278	-0.000152
H210	H	-0.105117	0.579278	0.499848
H211	H	-0.939303	0.133736	-0.000220
H212	H	-0.439303	0.633736	0.499780
H213	H	-0.937375	0.265162	-0.000238
H214	H	-0.437375	0.765162	0.499762
H215	H	-0.930822	0.712049	-0.000282
H216	H	-0.430822	1.212049	0.499718
O217	O	-0.721751	-0.190920	0.660947
O218	O	-0.221751	0.309080	1.160947
H219	H	-0.688814	-0.223853	0.701592
H220	H	-0.188814	0.276147	1.201592
H221	H	-0.906158	-0.006579	0.185228
H222	H	-0.406158	0.493421	0.685228
H223	H	-0.734241	-0.178392	0.328237
H224	H	-0.234241	0.321608	0.828237
O225	O	-0.684246	0.688612	-0.000217
O226	O	-0.184246	1.188612	0.499783
H227	H	-0.694051	0.746497	-0.000217
H228	H	-0.194051	1.246497	0.499783
O229	O	-0.720507	0.318734	0.090987
O230	O	-0.220507	0.818734	0.590987
H231	H	-0.686239	0.351584	0.121502
H232	H	-0.186239	0.851584	0.621502
O233	O	-0.721704	-0.190906	0.174856
O234	O	-0.221704	0.309094	0.674856
H235	H	-0.688763	-0.223838	0.215500
H236	H	-0.188763	0.276162	0.715500
H237	H	-0.707679	0.234401	-0.000192
H238	H	-0.207679	0.734401	0.499808
H239	H	-0.709599	0.102967	-0.000188
H240	H	-0.209599	0.602967	0.499812
