data_functionalizedCrystal
_audit_creation_method	'MofGen! by Chris Wilmer'
_symmetry_space_group_name_H-M	'P1'
_symmetry_Int_Tables_number	1
_symmetry_cell_setting	triclinic
loop_
_symmetry_equiv_pos_as_xyz
  x,y,z
_cell_length_a	19.288864
_cell_length_b	27.732048
_cell_length_c	17.766277
_cell_angle_alpha	89.988664
_cell_angle_beta	89.976791
_cell_angle_gamma	82.889449
loop_
_atom_site_label
_atom_site_type_symbol
_atom_site_fract_x
_atom_site_fract_y
_atom_site_fract_z
O1	O	0.920977	0.060300	-0.062844
O2	O	0.718666	0.068434	-0.062793
O3	O	0.826105	-0.006011	-0.062806
O4	O	0.813538	0.134745	-0.062831
O5	O	0.826086	-0.006014	0.062383
O6	O	0.718647	0.068430	0.062395
O7	O	0.920958	0.060296	0.062345
Cu8	Cu	0.819801	0.064363	0.073801
Cu9	Cu	0.819823	0.064367	-0.074249
O10	O	0.813519	0.134741	0.062357
C11	C	0.692781	0.068171	-0.000192
C12	C	0.615683	0.067385	-0.000172
C13	C	0.570714	0.111066	-0.000192
C14	C	0.498271	0.110328	-0.000200
C15	C	0.470801	0.065906	-0.000204
C16	C	0.515780	0.022219	-0.000180
C17	C	0.588220	0.022959	-0.000164
C18	C	0.362763	0.030987	-0.044082
C19	C	0.290324	0.030250	-0.044102
C20	C	0.247370	0.063624	-0.000249
C21	C	0.276863	0.097744	0.043615
C22	C	0.349304	0.098483	0.043631
C23	C	0.392252	0.065099	-0.000220
C24	C	0.123850	0.106507	-0.000277
C25	C	0.051406	0.105767	-0.000280
C26	C	0.068916	0.017658	-0.000267
C27	C	0.141358	0.018399	-0.000256
C28	C	0.168820	0.062825	-0.000264
C29	C	0.825831	-0.024020	-0.000209
C30	C	0.825037	-0.077678	-0.000203
C31	C	0.883526	-0.416316	-0.000256
C32	C	0.880579	-0.617985	-0.000266
O33	O	0.934063	-0.649079	-0.000312
N34	N	0.816872	-0.637301	-0.000249
C35	C	0.753897	-0.606196	-0.000235
O36	O	0.699643	-0.627253	-0.000229
C37	C	0.756845	-0.404529	-0.000231
C38	C	0.820556	-0.385216	-0.000240
C39	C	0.947232	-0.397002	-0.000266
C40	C	0.947968	-0.346588	-0.000259
C41	C	0.884998	-0.315488	-0.000243
C42	C	0.821292	-0.334801	-0.000233
C43	C	0.693871	-0.373425	-0.000222
C44	C	0.694614	-0.323006	-0.000223
C45	C	0.758325	-0.303693	-0.000232
C46	C	0.759059	-0.253287	-0.000210
N47	N	0.822766	-0.233971	-0.000227
C48	C	0.885735	-0.265071	-0.000243
C49	C	0.752354	-0.712075	-0.000236
C50	C	0.751617	-0.762492	-0.000236
C51	C	0.878299	-0.774276	-0.000268
C52	C	0.879035	-0.723859	-0.000263
C53	C	0.816061	-0.692759	-0.000253
C54	C	0.887276	-0.159197	-0.000229
C55	C	0.888007	-0.108778	-0.000219
C56	C	0.761325	-0.096998	-0.000191
C57	C	0.760595	-0.147412	-0.000197
C58	C	0.823576	-0.178511	-0.000218
O59	O	0.705603	-0.222164	-0.000172
O60	O	0.939982	-0.244005	-0.000266
C61	C	0.882790	-0.466730	-0.000263
C62	C	0.819084	-0.486044	-0.000253
C63	C	0.756114	-0.454943	-0.000236
C64	C	0.818347	-0.536461	-0.000253
C65	C	0.881317	-0.567561	-0.000269
C66	C	0.945023	-0.548245	-0.000285
C67	C	0.945760	-0.497831	-0.000279
C68	C	0.692407	-0.474260	-0.000220
C69	C	0.691676	-0.524674	-0.000226
C70	C	0.754646	-0.555775	-0.000242
C71	C	0.946842	0.060560	-0.000258
C72	C	1.023941	0.061345	-0.000282
C73	C	0.813792	0.152751	-0.000241
C74	C	0.814587	0.206408	-0.000252
N75	N	0.819790	0.064359	0.177931
N76	N	0.819839	0.064367	-0.178379
C77	C	0.867380	0.031411	0.217313
C78	C	0.867384	0.031409	0.296114
C79	C	0.819805	0.064363	0.335532
C80	C	0.772207	0.097314	0.296141
C81	C	0.772200	0.097312	0.217341
C82	C	0.810231	0.108406	0.460363
C83	C	0.810244	0.108408	0.539162
C84	C	0.819823	0.064369	0.578578
C85	C	0.829406	0.020325	0.539186
C86	C	0.829399	0.020323	0.460385
C87	C	0.819807	0.064369	0.420977
C88	C	0.867420	0.031416	0.703405
C89	C	0.867419	0.031413	0.782209
C90	C	0.772245	0.097322	0.782234
C91	C	0.772243	0.097321	0.703432
C92	C	0.819834	0.064368	0.664023
H93	H	0.939890	-0.093056	-0.000224
Br94	Br	0.707657	0.142039	0.649979
Br95	Br	0.965503	-0.697654	-0.000273
H96	H	0.999848	-0.330868	-0.000270
H97	H	0.906129	0.004578	0.185228
H98	H	0.710057	-0.071667	-0.000175
H99	H	0.802445	0.144271	0.571229
H100	H	0.701070	-0.686757	-0.000228
Br101	Br	0.707630	0.142035	0.349633
H102	H	0.461651	0.145899	-0.000214
Br103	Br	0.031643	-0.042630	-0.000259
H104	H	0.929571	-0.799607	-0.000281
Br105	Br	1.032703	-0.439202	-0.000289
Br106	Br	0.202391	-0.040886	-0.000231
Br107	Br	0.931973	-0.013311	0.349570
Br108	Br	0.707609	0.142030	0.163890
H109	H	0.699737	-0.778212	-0.000215
Br110	Br	1.030482	-0.590463	-0.000302
H111	H	0.837199	-0.015539	0.428315
Br112	Br	0.707667	0.142041	0.835722
Br113	Br	0.218577	0.143042	0.103132
Br114	Br	0.607981	0.171358	-0.000202
Br115	Br	0.972751	-0.201395	-0.000259
Br116	Br	0.161125	0.166798	-0.000282
Br117	Br	0.389330	0.144785	0.103159
Br118	Br	-0.009625	0.165054	-0.000300
H119	H	0.641991	-0.389141	-0.000219
H120	H	0.266316	0.002469	-0.079822
H121	H	0.641128	-0.448942	-0.000208
H122	H	0.837207	-0.015536	0.571276
H123	H	0.906169	0.004582	0.671317
H124	H	0.397731	0.003809	-0.079797
Br125	Br	0.605203	-0.550878	-0.000207
Br126	Br	0.932003	-0.013310	0.835659
Br127	Br	0.797299	0.168180	0.406878
H128	H	0.493409	-0.013949	-0.000193
H129	H	0.624835	-0.012613	-0.000148
Br130	Br	0.609144	-0.280801	-0.000213
H131	H	0.708716	-0.163138	-0.000169
H132	H	0.997640	-0.482111	-0.000286
