data_functionalizedCrystal
_audit_creation_method	'MofGen! by Chris Wilmer'
_symmetry_space_group_name_H-M	'P1'
_symmetry_Int_Tables_number	1
_symmetry_cell_setting	triclinic
loop_
_symmetry_equiv_pos_as_xyz
  x,y,z
_cell_length_a	21.295418
_cell_length_b	19.077068
_cell_length_c	19.077271
_cell_angle_alpha	90.123862
_cell_angle_beta	92.263831
_cell_angle_gamma	87.656381
loop_
_atom_site_label
_atom_site_type_symbol
_atom_site_fract_x
_atom_site_fract_y
_atom_site_fract_z
Zn1	Zn	0.938165	0.263493	-0.408879
Zn2	Zn	1.271498	0.596826	-0.075546
Zn3	Zn	1.604832	0.930159	0.257787
Zn4	Zn	0.937747	0.385726	-0.296085
Zn5	Zn	1.271080	0.719059	0.037248
Zn6	Zn	1.604413	1.052393	0.370581
Zn7	Zn	0.836953	0.268268	-0.291349
Zn8	Zn	1.170286	0.601601	0.041984
Zn9	Zn	1.503619	0.934934	0.375317
Zn10	Zn	0.828474	0.381002	-0.413513
Zn11	Zn	1.161807	0.714335	-0.080179
Zn12	Zn	1.495141	1.047669	0.253154
O13	O	0.885335	0.324622	-0.352457
O14	O	1.218668	0.657956	-0.019123
O15	O	1.552001	0.991289	0.314210
O16	O	1.026198	0.279686	-0.393960
O17	O	1.359531	0.613019	-0.060627
O18	O	1.692865	0.946353	0.272707
O19	O	0.927749	0.374120	-0.197127
O20	O	1.261083	0.707454	0.136206
O21	O	1.594416	1.040787	0.469540
O22	O	0.854102	0.169300	-0.303019
O23	O	1.187435	0.502633	0.030315
O24	O	1.520769	0.835966	0.363648
O25	O	1.025891	0.369490	-0.311091
O26	O	1.359224	0.702823	0.022243
O27	O	1.692557	1.036157	0.355576
O28	O	0.928462	0.165791	-0.389367
O29	O	1.261796	0.499125	-0.056034
O30	O	1.595129	0.832458	0.277299
O31	O	0.853696	0.287824	-0.193647
O32	O	1.187030	0.621157	0.139686
O33	O	1.520363	0.954491	0.473019
O34	O	0.747739	0.283244	-0.307512
O35	O	1.081073	0.616577	0.025822
O36	O	1.414406	0.949910	0.359155
O37	O	0.839652	0.361439	-0.511228
O38	O	1.172985	0.694772	-0.177895
O39	O	1.506318	1.028106	0.155438
O40	O	0.741510	0.366069	-0.397264
O41	O	1.074843	0.699402	-0.063931
O42	O	1.408177	1.032736	0.269402
O43	O	0.920241	0.275105	-0.507824
O44	O	1.253574	0.608439	-0.174491
O45	O	1.586908	0.941772	0.158842
O46	O	0.919528	0.483434	-0.315584
O47	O	1.252861	0.816767	0.017750
O48	O	1.586195	1.150101	0.351083
O49	O	0.839246	0.479964	-0.401857
O50	O	1.172579	0.813297	-0.068524
O51	O	1.505913	1.146630	0.264810
C52	C	0.721784	0.324662	-0.352377
C53	C	1.055118	0.657996	-0.019044
C54	C	1.388451	0.991329	0.314289
C55	C	0.651816	0.324696	-0.352361
C56	C	0.985149	0.658029	-0.019027
C57	C	1.318482	0.991363	0.314306
C58	C	0.878438	0.507195	-0.359752
C59	C	1.211771	0.840529	-0.026419
C60	C	1.545105	1.173862	0.306914
C61	C	0.875544	0.585300	-0.362897
C62	C	1.208878	0.918633	-0.029564
C63	C	1.542211	1.251966	0.303770
C64	C	0.879047	0.317213	-0.535735
C65	C	1.212381	0.650546	-0.202402
C66	C	1.545714	0.983879	0.130932
C67	C	0.876368	0.314055	-0.613837
C68	C	1.209701	0.647388	-0.280504
C69	C	1.543035	0.980722	0.052829
C70	C	0.615722	0.367885	-0.399030
C71	C	0.949055	0.701219	-0.065697
C72	C	1.282389	1.034552	0.267636
C73	C	0.549979	0.367867	-0.399061
C74	C	0.883312	0.701200	-0.065728
C75	C	1.216646	1.034533	0.267606
C76	C	0.520332	0.324667	-0.352410
C77	C	0.853666	0.658000	-0.019077
C78	C	1.186999	0.991333	0.314257
C79	C	0.556434	0.281469	-0.305737
C80	C	0.889768	0.614802	0.027596
C81	C	1.223101	0.948135	0.360930
C82	C	0.622176	0.281483	-0.305712
C83	C	0.955509	0.614817	0.027621
C84	C	1.288843	0.948150	0.360954
N85	N	0.419388	0.321646	-0.290731
N86	N	0.752721	0.654980	0.042603
N87	N	1.086054	0.988313	0.375936
N88	N	0.356936	0.321636	-0.290756
N89	N	0.690269	0.654970	0.042577
N90	N	1.023602	0.988303	0.375910
C91	C	0.322257	0.324619	-0.352483
C92	C	0.655590	0.657952	-0.019150
C93	C	0.988924	0.991285	0.314184
N94	N	0.352389	0.327625	-0.414185
N95	N	0.685722	0.660958	-0.080851
N96	N	1.019055	0.994292	0.252482
N97	N	0.414846	0.327639	-0.414158
N98	N	0.748180	0.660972	-0.080825
N99	N	1.081513	0.994305	0.252508
C100	C	0.449047	0.324646	-0.352432
C101	C	0.782380	0.657979	-0.019099
C102	C	1.115714	0.991312	0.314235
C103	C	0.214877	0.367790	-0.399190
C104	C	0.548210	0.701124	-0.065856
C105	C	0.881544	1.034457	0.267477
C106	C	0.149133	0.367767	-0.399222
C107	C	0.482466	0.701100	-0.065888
C108	C	0.815800	1.034433	0.267445
C109	C	0.155590	0.281373	-0.305891
C110	C	0.488923	0.614706	0.027442
C111	C	0.822256	0.948039	0.360775
C112	C	0.221332	0.281392	-0.305866
C113	C	0.554666	0.614725	0.027468
C114	C	0.887999	0.948059	0.360801
C115	C	0.250972	0.324605	-0.352514
C116	C	0.584305	0.657938	-0.019181
C117	C	0.917639	0.991271	0.314153
C118	C	1.049523	0.324582	-0.352537
C119	C	1.382857	0.657916	-0.019203
C120	C	1.716190	0.991249	0.314130
C121	C	1.119491	0.324565	-0.352571
C122	C	1.452824	0.657899	-0.019238
C123	C	1.786158	0.991232	0.314096
C124	C	0.892275	0.141336	-0.345148
C125	C	1.225608	0.474669	-0.011815
C126	C	1.558941	0.808002	0.321519
C127	C	0.895232	0.063230	-0.342033
C128	C	1.228566	0.396563	-0.008700
C129	C	1.561899	0.729896	0.324633
C130	C	0.916013	0.623776	-0.319494
C131	C	1.249347	0.957109	0.013840
C132	C	1.582680	1.290442	0.347173
C133	C	0.913295	0.697163	-0.322456
C134	C	1.246629	1.030496	0.010878
C135	C	1.579962	1.363830	0.344211
C136	C	0.870105	0.732073	-0.368818
C137	C	1.203438	1.065406	-0.035484
C138	C	1.536772	1.398740	0.297849
C139	C	0.829634	0.693592	-0.412225
C140	C	1.162967	1.026925	-0.078892
C141	C	1.496301	1.360259	0.254441
C142	C	0.832356	0.620206	-0.409267
C143	C	1.165689	0.953539	-0.075933
C144	C	1.499022	1.286873	0.257400
C145	C	0.857483	0.951363	-0.382483
C146	C	1.190816	1.284696	-0.049149
C147	C	1.524150	1.618029	0.284184
C148	C	0.854763	1.024754	-0.385437
C149	C	1.188096	1.358087	-0.052103
C150	C	1.521430	1.691421	0.281230
C151	C	0.938426	1.028320	-0.295667
C152	C	1.271759	1.361653	0.037666
C153	C	1.605092	1.694986	0.370999
C154	C	0.941141	0.954932	-0.292710
C155	C	1.274474	1.288266	0.040624
C156	C	1.607807	1.621599	0.373957
C157	C	0.900672	0.916457	-0.336120
C158	C	1.234006	1.249791	-0.002787
C159	C	1.567339	1.583124	0.330547
N160	N	0.867324	0.807087	-0.371845
N161	N	1.200658	1.140420	-0.038511
N162	N	1.533991	1.473753	0.294822
N163	N	0.903456	0.841445	-0.333096
N164	N	1.236790	1.174778	0.000237
N165	N	1.570123	1.508112	0.333571
C166	C	0.857150	0.291464	-1.053277
C167	C	1.190483	0.624798	-0.719944
C168	C	1.523816	0.958131	-0.386610
C169	C	0.859670	0.294429	-0.979892
C170	C	1.193004	0.627762	-0.646558
C171	C	1.526337	0.961095	-0.313225
C172	C	0.899482	0.340844	-0.945010
C173	C	1.232816	0.674177	-0.611676
C174	C	1.566149	1.007511	-0.278343
C175	C	0.936781	0.384293	-0.983517
C176	C	1.270114	0.717626	-0.650184
C177	C	1.603448	1.050960	-0.316851
C178	C	0.934263	0.381325	-1.056901
C179	C	1.267597	0.714658	-0.723568
C180	C	1.600930	1.047992	-0.390235
C181	C	0.911149	0.354536	-0.725729
C182	C	1.244482	0.687869	-0.392396
C183	C	1.577816	1.021203	-0.059062
C184	C	0.913662	0.357502	-0.652340
C185	C	1.246996	0.690836	-0.319006
C186	C	1.580329	1.024169	0.014327
C187	C	0.836552	0.267637	-0.648719
C188	C	1.169886	0.600970	-0.315386
C189	C	1.503219	0.934303	0.017948
C190	C	0.834035	0.264676	-0.722105
C191	C	1.167369	0.598009	-0.388771
C192	C	1.500702	0.931342	-0.055438
C193	C	0.871336	0.308122	-0.760606
C194	C	1.204670	0.641455	-0.427272
C195	C	1.538003	0.974789	-0.093939
N196	N	0.902058	0.343877	-0.869998
N197	N	1.235391	0.677210	-0.536665
N198	N	1.568725	1.010543	-0.203331
N199	N	0.868763	0.305085	-0.835616
N200	N	1.202097	0.638419	-0.502283
N201	N	1.535430	0.971752	-0.168949
C202	C	0.891636	0.331952	-0.169889
C203	C	1.224969	0.665286	0.163444
C204	C	1.558302	0.998619	0.496777
C205	C	0.894444	0.334912	-0.091779
C206	C	1.227777	0.668245	0.241554
C207	C	1.561111	1.001578	0.574887
H208	H	0.520586	0.403036	-0.437068
H209	H	0.853919	0.736370	-0.103734
H210	H	1.187253	1.069703	0.229599
O211	O	0.647685	0.414486	-0.449351
O212	O	0.981019	0.747820	-0.116018
O213	O	1.314352	1.081153	0.217315
H214	H	0.677328	0.451475	-0.419261
H215	H	1.010662	0.784808	-0.085928
H216	H	1.343995	1.118141	0.247406
O217	O	0.788700	0.578710	-0.456079
O218	O	1.122034	0.912043	-0.122746
O219	O	1.455367	1.245377	0.210588
H220	H	0.816861	0.543784	-0.490525
H221	H	1.150195	0.877117	-0.157192
H222	H	1.483528	1.210450	0.176141
O223	O	0.974487	0.428193	-1.098426
O224	O	1.307820	0.761526	-0.765093
O225	O	1.641153	1.094860	-0.431760
H226	H	1.006564	0.395385	-1.130616
H227	H	1.339898	0.728718	-0.797282
H228	H	1.673231	1.062052	-0.463949
H229	H	0.532292	0.246293	-0.267755
H230	H	0.865625	0.579627	0.065579
H231	H	1.198959	0.912960	0.398912
H232	H	0.651563	0.246311	-0.267708
H233	H	0.984897	0.579644	0.065625
H234	H	1.318230	0.912978	0.398959
O235	O	0.246853	0.414385	-0.449508
O236	O	0.580187	0.747718	-0.116175
O237	O	0.913520	1.081052	0.217158
H238	H	0.210707	0.444406	-0.481976
H239	H	0.544041	0.777739	-0.148643
H240	H	0.877374	1.111073	0.184691
H241	H	0.119746	0.402935	-0.437230
H242	H	0.453080	0.736269	-0.103896
H243	H	0.786413	1.069602	0.229437
H244	H	0.829300	0.259050	-0.948546
H245	H	1.162634	0.592383	-0.615213
H246	H	1.495967	0.925717	-0.281879
O247	O	0.814220	0.241391	-1.090899
O248	O	1.147553	0.574724	-0.757565
O249	O	1.480886	0.908057	-0.424232
H250	H	0.779848	0.271486	-1.125573
H251	H	1.113181	0.604819	-0.792239
H252	H	1.446514	0.938152	-0.458906
H253	H	0.969200	0.422082	-0.955111
H254	H	1.302533	0.755416	-0.621777
H255	H	1.635866	1.088749	-0.288444
H256	H	0.806185	0.232264	-0.617364
H257	H	1.139518	0.565597	-0.284030
H258	H	1.472852	0.898931	0.049303
O259	O	0.123625	0.234782	-0.255567
O260	O	0.456958	0.568115	0.077767
O261	O	0.790291	0.901449	0.411100
H262	H	0.071846	0.242032	-0.263419
H263	H	0.405179	0.575365	0.069914
H264	H	0.738513	0.908698	0.403248
H265	H	0.824531	0.920042	-0.417828
H266	H	1.157864	1.253375	-0.084494
H267	H	1.491197	1.586709	0.248839
O268	O	0.982079	1.069810	-0.248850
O269	O	1.315413	1.403144	0.084483
O270	O	1.648746	1.736477	0.417816
H271	H	1.031581	1.055157	-0.260403
H272	H	1.364915	1.388490	0.072930
H273	H	1.698248	1.721823	0.406264
H274	H	0.250720	0.246226	-0.267859
H275	H	0.584054	0.579560	0.065474
H276	H	0.917387	0.912893	0.398808
H277	H	0.801613	0.226882	-0.750500
H278	H	1.134947	0.560215	-0.417167
H279	H	1.468280	0.893549	-0.083834
O280	O	0.951375	0.401409	-0.767238
O281	O	1.284709	0.734742	-0.433905
O282	O	1.618042	1.068076	-0.100571
H283	H	0.983459	0.368610	-0.799429
H284	H	1.316793	0.701943	-0.466095
H285	H	1.650126	1.035277	-0.132762
H286	H	0.951181	0.595357	-0.281738
H287	H	1.284514	0.928690	0.051595
H288	H	1.617848	1.262023	0.384929
H289	H	0.946249	0.728487	-0.287112
H290	H	1.279583	1.061820	0.046222
H291	H	1.612916	1.395153	0.379555
H292	H	0.976310	0.926510	-0.254958
H293	H	1.309643	1.259843	0.078375
H294	H	1.642977	1.593177	0.411709
H295	H	0.946097	0.395287	-0.623941
H296	H	1.279431	0.728620	-0.290607
H297	H	1.612764	1.061954	0.042726
H298	H	0.819599	1.053175	-0.423202
H299	H	1.152933	1.386508	-0.089869
H300	H	1.486266	1.719842	0.243464
H301	H	0.794470	0.722022	-0.449977
H302	H	1.127803	1.055355	-0.116644
H303	H	1.461137	1.388688	0.216689
