data_functionalizedCrystal
_audit_creation_method	'MofGen! by Chris Wilmer'
_symmetry_space_group_name_H-M	'P1'
_symmetry_Int_Tables_number	1
_symmetry_cell_setting	triclinic
loop_
_symmetry_equiv_pos_as_xyz
  x,y,z
_cell_length_a	16.992694
_cell_length_b	16.956995
_cell_length_c	13.930277
_cell_angle_alpha	89.998787
_cell_angle_beta	90.001555
_cell_angle_gamma	96.638653
loop_
_atom_site_label
_atom_site_type_symbol
_atom_site_fract_x
_atom_site_fract_y
_atom_site_fract_z
O1	O	-1.029481	0.168385	-0.079699
O2	O	-0.801316	0.166538	-0.079727
O3	O	-0.929105	0.052256	-0.079714
O4	O	-0.901692	0.282667	-0.079712
O5	O	-0.929089	0.052253	0.079948
O6	O	-0.801299	0.166534	0.079935
O7	O	-1.029465	0.168382	0.079963
Zn8	Zn	-0.915380	0.167457	0.105299
Zn9	Zn	-0.915401	0.167462	-0.105063
O10	O	-0.901675	0.282663	0.079950
C11	C	-0.772249	0.164160	0.000100
C12	C	-0.685664	0.157069	0.000089
C13	C	-0.930501	0.022636	0.000114
C14	C	-0.934674	-0.065618	0.000106
C15	C	-1.058532	0.170760	0.000134
C16	C	-1.145116	0.177851	0.000139
C17	C	-0.900280	0.312283	0.000120
C18	C	-0.896107	0.400538	0.000121
C19	C	-0.630990	0.225484	0.000091
C20	C	-0.549635	0.218817	0.000104
C21	C	-0.522957	0.143734	0.000108
C22	C	-0.577638	0.075314	0.000110
C23	C	-0.658991	0.081982	0.000104
C24	C	-0.281150	0.116098	0.000134
C25	C	-0.199791	0.109436	0.000137
C26	C	-0.171794	0.252939	0.000133
C27	C	-0.253149	0.259600	0.000121
C28	C	-0.307823	0.191180	0.000127
N29	N	-0.439800	0.136917	0.000119
N30	N	-0.390979	0.197998	0.000124
N31	N	-0.915370	0.167454	0.248865
C32	C	-0.864889	0.897849	0.000102
C33	C	-0.868816	0.814924	0.000110
C34	C	-0.942529	0.768533	0.000116
C35	C	-1.012319	0.805071	0.000123
C36	C	-1.008391	0.887995	0.000122
C37	C	-0.961969	0.519999	0.000127
C38	C	-0.965892	0.437071	0.000126
C39	C	-0.822388	0.446929	0.000115
C40	C	-0.818467	0.529854	0.000107
C41	C	-0.888257	0.566385	0.000120
N42	N	-0.946544	0.683770	0.000122
N43	N	-0.884241	0.651146	0.000121
N44	N	-0.915417	0.167460	-0.248629
C45	C	-0.858815	0.218045	0.701128
C46	C	-0.972009	0.116875	0.701109
C47	C	-0.972000	0.116872	0.600614
C48	C	-0.915398	0.167457	0.550371
C49	C	-0.858806	0.218045	0.600623
C50	C	-1.028596	0.066290	0.550353
C51	C	-1.028590	0.066286	0.449851
C52	C	-0.971984	0.116867	0.399607
C53	C	-0.915389	0.167457	0.449866
C54	C	-0.858787	0.218042	0.399623
C55	C	-0.802188	0.268628	0.449880
C56	C	-0.802200	0.268626	0.550379
C57	C	-0.971972	0.116869	0.299108
C58	C	-0.858778	0.218042	0.299118
H59	H	-0.652704	0.286624	0.000086
H60	H	-1.018797	0.549733	0.000135
H61	H	-0.765569	0.417177	0.000106
H62	H	-1.025921	0.399300	0.000124
H63	H	-0.756106	0.309818	0.408960
C64	C	-1.090856	0.010661	0.394573
H65	H	-1.082752	0.017912	0.327523
H66	H	-1.085835	-0.042890	0.411038
H67	H	-1.142403	0.022661	0.411043
H68	H	-0.811990	0.785183	0.000100
C69	C	-0.111652	0.328194	0.000138
H70	H	-0.059380	0.313472	0.000151
H71	H	-0.119230	0.358771	-0.055538
H72	H	-0.119237	0.358762	0.055824
H73	H	-1.065217	0.917738	0.000127
C74	C	-0.341281	0.040839	0.000134
H75	H	-0.313738	-0.004830	0.000128
H76	H	-0.373600	0.040454	0.055810
H77	H	-0.373598	0.040456	-0.055552
H78	H	-0.812683	0.259232	0.258216
C79	C	-0.548294	-0.007275	0.000113
H80	H	-0.492012	-0.001449	0.000107
H81	H	-0.567379	-0.035666	0.055789
H82	H	-0.567379	-0.035659	-0.055573
C83	C	-0.796541	0.273665	0.756400
H84	H	-0.762823	0.303780	0.712081
H85	H	-0.822462	0.308537	0.795618
H86	H	-0.765900	0.242981	0.795592
H87	H	-1.018058	0.075686	0.258193
C88	C	-1.034266	0.061237	0.756373
H89	H	-1.026163	0.068479	0.823425
H90	H	-1.085816	0.073209	0.739893
H91	H	-1.029214	0.007688	0.739910
C92	C	-0.489494	0.294071	0.000096
H93	H	-0.437222	0.279349	0.000110
H94	H	-0.497073	0.324640	-0.055587
H95	H	-0.497075	0.324648	0.055775
H96	H	-1.072337	0.767293	0.000134
H97	H	-0.756120	0.309813	0.591304
C98	C	-0.282490	0.342191	0.000129
H99	H	-0.238275	0.381983	0.000143
H100	H	-0.313645	0.347780	-0.055547
H101	H	-0.313643	0.347768	0.055815
H102	H	-0.178074	0.048291	0.000140
H103	H	-0.758442	0.567620	0.000100
H104	H	-1.074683	0.025109	0.591264
H105	H	-0.804864	0.935615	0.000093
C106	C	-0.719133	0.006726	0.000092
H107	H	-0.691594	-0.038946	0.000086
H108	H	-0.751455	0.006341	0.055766
H109	H	-0.751446	0.006348	-0.055597
