data_functionalizedCrystal
_audit_creation_method	'MofGen! by Chris Wilmer'
_symmetry_space_group_name_H-M	'P1'
_symmetry_Int_Tables_number	1
_symmetry_cell_setting	triclinic
loop_
_symmetry_equiv_pos_as_xyz
  x,y,z
_cell_length_a	12.759395
_cell_length_b	18.101397
_cell_length_c	12.759387
_cell_angle_alpha	89.962982
_cell_angle_beta	89.980569
_cell_angle_gamma	90.020311
loop_
_atom_site_label
_atom_site_type_symbol
_atom_site_fract_x
_atom_site_fract_y
_atom_site_fract_z
Zn1	Zn	1.606227	-0.294794	-0.593929
Zn2	Zn	2.106227	0.205206	-0.093929
Zn3	Zn	1.606100	-0.418654	-0.418231
Zn4	Zn	2.106100	0.081346	0.081769
Zn5	Zn	1.430525	-0.294830	-0.418270
Zn6	Zn	1.930525	0.205170	0.081730
Zn7	Zn	1.430499	-0.418597	-0.593873
Zn8	Zn	1.930499	0.081403	-0.093873
O9	O	1.518338	-0.356719	-0.506076
O10	O	2.018338	0.143281	-0.006076
O11	O	1.753231	-0.311232	-0.570630
O12	O	2.253231	0.188768	-0.070630
O13	O	1.582767	-0.402267	-0.271215
O14	O	2.082767	0.097733	0.228785
O15	O	1.453896	-0.191193	-0.441611
O16	O	1.953896	0.308807	0.058389
O17	O	1.753137	-0.402232	-0.441545
O18	O	2.253137	0.097768	0.058455
O19	O	1.582983	-0.191166	-0.570668
O20	O	2.082983	0.308834	-0.070668
O21	O	1.453773	-0.311295	-0.271243
O22	O	1.953773	0.188705	0.228757
O23	O	1.283500	-0.311240	-0.441557
O24	O	1.783500	0.188760	0.058443
O25	O	1.453853	-0.402136	-0.740902
O26	O	1.953853	0.097864	-0.240902
O27	O	1.283482	-0.402171	-0.570572
O28	O	1.783482	0.097829	-0.070572
O29	O	1.582959	-0.311178	-0.740943
O30	O	2.082959	0.188822	-0.240943
O31	O	1.582742	-0.522279	-0.441490
O32	O	2.082742	-0.022279	0.058510
O33	O	1.453729	-0.522238	-0.570534
O34	O	1.953729	-0.022238	-0.070534
C35	C	1.245370	-0.356704	-0.506063
C36	C	1.745370	0.143296	-0.006063
C37	C	1.128593	-0.356716	-0.506082
C38	C	1.628593	0.143284	-0.006082
C39	C	1.128671	-0.262111	-0.640716
C40	C	1.628671	0.237889	-0.140716
C41	C	1.073849	-0.214818	-0.708041
C42	C	1.573849	0.285182	-0.208041
C43	C	0.964128	-0.214831	-0.708054
C44	C	1.464128	0.285169	-0.208054
C45	C	0.909226	-0.262141	-0.640732
C46	C	1.409226	0.237859	-0.140732
C47	C	0.964047	-0.309434	-0.573407
C48	C	1.464047	0.190566	-0.073407
C49	C	1.073771	-0.309417	-0.573404
C50	C	1.573771	0.190583	-0.073404
C51	C	0.963969	-0.404034	-0.438770
C52	C	1.463969	0.095966	0.061230
C53	C	1.073691	-0.404026	-0.438761
C54	C	1.573691	0.095974	0.061239
C55	C	0.909067	-0.451344	-0.371449
C56	C	1.409067	0.048656	0.128551
C57	C	0.963889	-0.498642	-0.304127
C58	C	1.463889	0.001358	0.195873
C59	C	1.073617	-0.498628	-0.304118
C60	C	1.573617	0.001372	0.195882
C61	C	1.128513	-0.451319	-0.371436
C62	C	1.628513	0.048681	0.128564
C63	C	1.518248	-0.549129	-0.506025
C64	C	2.018248	-0.049129	-0.006025
C65	C	1.518305	-0.631443	-0.506038
C66	C	2.018305	-0.131443	-0.006038
C67	C	1.518439	-0.930534	-0.506134
C68	C	2.018439	-0.430534	-0.006134
C69	C	1.599384	-0.899204	-0.424726
C70	C	2.099384	-0.399204	0.075274
C71	C	1.599665	-0.813586	-0.424937
C72	C	2.099665	-0.313586	0.075063
C73	C	1.518373	-0.782152	-0.506086
C74	C	2.018373	-0.282152	-0.006086
C75	C	1.548394	-0.813150	-0.616826
C76	C	2.048394	-0.313150	-0.116826
C77	C	1.549020	-0.898795	-0.616383
C78	C	2.049020	-0.398795	-0.116383
C79	C	1.407258	-0.899045	-0.477760
C80	C	1.907258	-0.399045	0.022240
C81	C	1.407807	-0.813396	-0.475288
C82	C	1.907807	-0.313396	0.024712
C83	C	1.518334	-0.698292	-0.506065
C84	C	2.018334	-0.198292	-0.006065
C85	C	1.518481	-1.014394	-0.506162
C86	C	2.018481	-0.514394	-0.006162
C87	C	1.792371	-0.356734	-0.506089
C88	C	2.292371	0.143266	-0.006089
C89	C	1.909148	-0.356741	-0.506095
C90	C	2.409148	0.143259	-0.006095
C91	C	1.518417	-0.356646	-0.780109
C92	C	2.018417	0.143354	-0.280109
C93	C	1.518451	-0.356615	-0.896886
C94	C	2.018451	0.143385	-0.396886
C95	C	1.518456	-0.163557	-0.506150
C96	C	2.018456	0.336443	-0.006150
C97	C	1.518507	-0.081243	-0.506181
C98	C	2.018507	0.418757	-0.006181
C99	C	1.652898	-0.261907	-0.896949
C100	C	2.152898	0.238093	-0.396949
C101	C	1.720136	-0.214541	-0.951841
C102	C	2.220136	0.285459	-0.451841
C103	C	1.720162	-0.214514	-1.061563
C104	C	2.220162	0.285486	-0.561563
C105	C	1.652940	-0.261856	-1.116395
C106	C	2.152940	0.238144	-0.616395
C107	C	1.585701	-0.309222	-1.061503
C108	C	2.085701	0.190778	-0.561503
C109	C	1.585685	-0.309245	-0.951778
C110	C	2.085685	0.190755	-0.451778
C111	C	1.451250	-0.403925	-1.061440
C112	C	1.951250	0.096075	-0.561440
C113	C	1.451229	-0.403957	-0.951718
C114	C	1.951229	0.096043	-0.451718
C115	C	1.384028	-0.451267	-1.116272
C116	C	1.884028	0.048733	-0.616272
C117	C	1.316794	-0.498637	-1.061380
C118	C	1.816794	0.001363	-0.561380
C119	C	1.316772	-0.498663	-0.951651
C120	C	1.816772	0.001337	-0.451651
C121	C	1.383990	-0.451323	-0.896826
C122	C	1.883990	0.048677	-0.396826
C123	C	1.518319	-0.356738	-0.233108
C124	C	2.018319	0.143262	0.266892
C125	C	1.518489	-0.356560	-0.116332
C126	C	2.018489	0.143440	0.383668
H127	H	1.217854	-0.451299	-0.371429
H128	H	1.717854	0.048701	0.128571
H129	H	1.384050	-0.451239	-1.205613
H130	H	1.884050	0.048761	-0.705613
F131	F	1.131955	-0.548962	-0.232456
F132	F	1.631955	-0.048962	0.267544
F133	F	1.328427	-0.925529	-0.555258
F134	F	1.828427	-0.425529	-0.055258
F135	F	1.383977	-0.451349	-0.780050
F136	F	1.883977	0.048651	-0.280050
H137	H	1.218012	-0.262092	-0.640707
H138	H	1.718012	0.237908	-0.140707
F139	F	1.575060	-0.786194	-0.317622
F140	F	2.075060	-0.286194	0.182378
F141	F	1.245254	-0.549012	-1.119741
F142	F	1.745254	-0.049012	-0.619741
F143	F	1.378213	-0.786922	-0.368769
F144	F	1.878213	-0.286922	0.131231
F145	F	1.324733	-0.785439	-0.547113
F146	F	1.824733	-0.285439	-0.047113
H147	H	0.819726	-0.451349	-0.371461
H148	H	1.319726	0.048651	0.128539
F149	F	1.132287	-0.164469	-0.779685
F150	F	1.632287	0.335531	-0.279685
H151	H	1.630289	-0.918713	-0.640419
H152	H	2.130289	-0.418713	-0.140419
F153	F	0.905781	-0.164492	-0.779702
F154	F	1.405781	0.335508	-0.279702
F155	F	1.652889	-0.261941	-0.780173
F156	F	2.152889	0.238059	-0.280173
H157	H	1.628753	-0.791641	-0.641268
H158	H	2.128753	-0.291641	-0.141268
F159	F	1.473685	-0.786541	-0.698240
F160	F	1.973685	-0.286541	-0.198240
H161	H	1.492646	-0.919517	-0.679128
H162	H	1.992646	-0.419517	-0.179128
H163	H	1.652957	-0.261824	-1.205736
H164	H	2.152957	0.238176	-0.705736
H165	H	1.379948	-0.920712	-0.398409
H166	H	1.879948	-0.420712	0.101591
F167	F	1.245201	-0.549073	-0.893239
F168	F	1.745201	-0.049073	-0.393239
F169	F	1.791655	-0.164145	-0.893478
F170	F	2.291655	0.335855	-0.393478
H171	H	0.819884	-0.262141	-0.640740
H172	H	1.319884	0.237859	-0.140740
F173	F	1.791710	-0.164094	-1.119985
F174	F	2.291710	0.335906	-0.619985
H175	H	1.580828	-0.919854	-0.342367
H176	H	2.080828	-0.419854	0.157633
F177	F	0.905453	-0.548983	-0.232481
F178	F	1.405453	-0.048983	0.267519
F179	F	1.707310	-0.786729	-0.449479
F180	F	2.207310	-0.286729	0.050521
F181	F	1.706445	-0.927260	-0.448980
F182	F	2.206445	-0.427260	0.051020
