data_functionalizedCrystal
_audit_creation_method	'MofGen! by Chris Wilmer'
_symmetry_space_group_name_H-M	'P1'
_symmetry_Int_Tables_number	1
_symmetry_cell_setting	triclinic
loop_
_symmetry_equiv_pos_as_xyz
  x,y,z
_cell_length_a	23.532407
_cell_length_b	8.965430
_cell_length_c	10.489741
_cell_angle_alpha	90.000707
_cell_angle_beta	83.693926
_cell_angle_gamma	90.001560
loop_
_atom_site_label
_atom_site_type_symbol
_atom_site_fract_x
_atom_site_fract_y
_atom_site_fract_z
O1	O	0.756285	-0.123853	0.154816
O2	O	0.590571	-0.123896	0.177218
O3	O	0.677199	-0.123864	-0.019706
O4	O	0.669657	-0.123884	0.351740
O5	O	0.677191	0.124214	-0.019693
O6	O	0.590563	0.124183	0.177231
O7	O	0.756278	0.124226	0.154829
Cu8	Cu	0.673420	0.146856	0.166031
Cu9	Cu	0.673429	-0.146526	0.166016
O10	O	0.669650	0.124195	0.351753
C11	C	0.569347	0.000138	0.176654
C12	C	0.506119	0.000121	0.174939
N13	N	0.673418	0.353205	0.166041
N14	N	0.673435	-0.352875	0.165995
C15	C	0.107717	0.000183	0.280717
C16	C	0.048306	0.000192	0.279124
O17	O	0.012211	0.000241	0.377181
N18	N	0.024904	0.000196	0.162052
C19	C	0.060916	0.000206	0.046567
O20	O	0.035555	0.000211	-0.053158
C21	C	0.120326	0.000207	0.048161
C22	C	0.143724	0.000188	0.165240
C23	C	0.131116	0.000166	0.397786
C24	C	0.190522	0.000154	0.399379
C25	C	0.226530	0.000159	0.283902
C26	C	0.203131	0.000176	0.166833
C27	C	0.156337	0.000228	-0.067323
C28	C	0.215750	0.000230	-0.065718
C29	C	0.239148	0.000211	0.051361
C30	C	0.298545	0.000170	0.052949
N31	N	0.321947	0.000166	0.170020
C32	C	0.285940	0.000161	0.285497
C33	C	-0.063849	0.000205	0.043227
C34	C	-0.123257	0.000193	0.041631
C35	C	-0.135863	0.000183	0.274188
C36	C	-0.076454	0.000184	0.275783
C37	C	-0.040447	0.000202	0.160298
C38	C	0.410699	0.000134	0.288833
C39	C	0.470111	0.000116	0.290416
C40	C	0.482712	0.000135	0.057859
C41	C	0.423305	0.000145	0.056275
C42	C	0.387299	0.000150	0.171773
O43	O	0.334675	0.000127	-0.045057
O44	O	0.311308	0.000175	0.385205
C45	C	0.777502	0.000189	0.155393
C46	C	0.840730	0.000196	0.157108
C47	C	0.676625	0.000174	-0.067213
C48	C	0.674921	0.000171	-0.208785
C49	C	0.633343	0.450496	0.257083
C50	C	0.684905	0.549922	0.281179
C51	C	0.621878	0.549907	0.141955
C52	C	0.725006	0.450442	0.190195
C53	C	0.661945	0.450418	0.050921
C54	C	0.713544	0.549799	0.074968
C55	C	0.619802	0.000145	-0.275093
C56	C	0.645836	0.122468	-0.368075
C57	C	0.645857	-0.122118	-0.368063
C58	C	0.700978	0.122594	-0.299902
C59	C	0.700991	-0.122102	-0.299881
C60	C	0.727065	0.000251	-0.392836
C61	C	0.670223	0.000153	0.399259
C62	C	0.671927	0.000146	0.540832
H63	H	0.489158	0.000100	0.385759
H64	H	0.574484	0.000257	-0.223935
C65	C	0.783909	0.391680	0.217861
H66	H	0.783537	0.285719	0.217757
H67	H	0.812397	0.426472	0.153558
H68	H	0.792125	0.426580	0.299364
C69	C	0.522327	0.000152	-0.069155
H70	H	0.561059	0.000161	-0.051428
H71	H	0.515185	-0.086346	-0.117214
H72	H	0.515184	0.086686	-0.117176
H73	H	0.694620	0.593629	0.378514
C74	C	0.614348	-0.261823	-0.408877
H75	H	0.639492	-0.319422	-0.466411
H76	H	0.601941	-0.319801	-0.335252
H77	H	0.582172	-0.232420	-0.450172
H78	H	0.652214	0.406677	-0.046382
H79	H	0.578285	0.593601	0.121603
C80	C	0.788337	0.000357	-0.461655
H81	H	0.807819	0.087329	-0.438344
H82	H	0.808067	-0.085702	-0.437276
H83	H	0.786924	-0.000458	-0.551814
C84	C	0.614329	0.262151	-0.408923
H85	H	0.576221	0.261996	-0.368194
H86	H	0.633542	0.349016	-0.384439
H87	H	0.613774	0.261595	-0.499342
H88	H	0.381389	0.000143	0.382882
C89	C	0.732473	-0.261792	-0.258981
H90	H	0.712838	-0.348627	-0.282032
H91	H	0.770361	-0.262664	-0.300913
H92	H	0.733627	-0.260285	-0.168746
C93	C	0.732448	0.262463	-0.259299
H94	H	0.733320	0.261646	-0.168970
H95	H	0.770437	0.262832	-0.300677
H96	H	0.712989	0.349208	-0.283181
H97	H	0.209568	0.000138	0.494717
H98	H	0.101804	0.000167	0.491827
H99	H	-0.057407	0.000177	0.371119
H100	H	-0.165192	0.000185	0.368216
H101	H	-0.034534	0.000206	-0.050821
C102	C	-0.148992	0.000187	-0.087152
H103	H	-0.189532	0.000179	-0.071576
H104	H	-0.136661	0.086694	-0.134667
H105	H	-0.136665	-0.086338	-0.134660
C106	C	0.130611	0.000269	-0.196112
H107	H	0.160572	0.000294	-0.264645
H108	H	0.107695	-0.086232	-0.201601
H109	H	0.107703	0.086800	-0.201557
H110	H	0.245065	0.000246	-0.159762
H111	H	0.599484	0.406895	0.334143
H112	H	0.404253	0.000138	-0.039060
H113	H	0.747479	0.593126	-0.002047
