data_functionalizedCrystal
_audit_creation_method	'MofGen! by Chris Wilmer'
_symmetry_space_group_name_H-M	'P1'
_symmetry_Int_Tables_number	1
_symmetry_cell_setting	triclinic
loop_
_symmetry_equiv_pos_as_xyz
  x,y,z
_cell_length_a	29.839135
_cell_length_b	29.839133
_cell_length_c	29.839125
_cell_angle_alpha	89.992589
_cell_angle_beta	89.984512
_cell_angle_gamma	90.032133
loop_
_atom_site_label
_atom_site_type_symbol
_atom_site_fract_x
_atom_site_fract_y
_atom_site_fract_z
Zn1	Zn	0.686757	-0.178886	-0.254079
Zn2	Zn	1.186757	0.321114	0.245921
Zn3	Zn	0.686704	-0.253998	-0.178963
Zn4	Zn	1.186704	0.246002	0.321037
Zn5	Zn	0.611639	-0.178886	-0.178957
Zn6	Zn	1.111639	0.321114	0.321043
Zn7	Zn	0.611603	-0.253993	-0.254060
Zn8	Zn	1.111603	0.246007	0.245940
O9	O	0.649176	-0.216441	-0.216515
O10	O	1.149176	0.283559	0.283485
O11	O	0.749617	-0.188852	-0.244126
O12	O	1.249617	0.311148	0.255874
O13	O	0.676740	-0.244036	-0.116095
O14	O	1.176740	0.255964	0.383905
O15	O	0.621641	-0.116019	-0.188929
O16	O	1.121641	0.383981	0.311071
O17	O	0.749578	-0.244036	-0.188938
O18	O	1.249578	0.255964	0.311062
O19	O	0.676829	-0.116019	-0.244120
O20	O	1.176829	0.383981	0.255880
O21	O	0.621590	-0.188852	-0.116091
O22	O	1.121590	0.311148	0.383909
O23	O	0.548767	-0.188847	-0.188909
O24	O	1.048767	0.311153	0.311091
O25	O	0.621578	-0.244028	-0.316930
O26	O	1.121578	0.255972	0.183070
O27	O	0.548740	-0.244028	-0.244087
O28	O	1.048740	0.255972	0.255913
O29	O	0.676794	-0.188847	-0.316944
O30	O	1.176794	0.311153	0.183056
O31	O	0.676704	-0.316864	-0.188919
O32	O	1.176704	0.183136	0.311081
O33	O	0.621528	-0.316861	-0.244092
O34	O	1.121528	0.183139	0.255908
C35	C	0.532453	-0.216437	-0.216496
C36	C	1.032453	0.283563	0.283504
C37	C	0.482519	-0.216447	-0.216498
C38	C	0.982519	0.283553	0.283502
C39	C	0.172892	-0.187750	-0.245294
C40	C	0.672892	0.312250	0.254706
C41	C	-0.014781	-0.187753	-0.245306
C42	C	0.485219	0.312247	0.254694
O43	O	-0.039031	-0.163343	-0.269768
O44	O	0.460969	0.336657	0.230232
N45	N	-0.038266	-0.216441	-0.216531
N46	N	0.461734	0.283559	0.283469
C47	C	-0.014831	-0.245129	-0.187749
C48	C	0.485169	0.254871	0.312251
O49	O	-0.039113	-0.269527	-0.163271
O50	O	0.460887	0.230473	0.336729
C51	C	0.172841	-0.245123	-0.187734
C52	C	0.672841	0.254877	0.312266
C53	C	0.196324	-0.216436	-0.216514
C54	C	0.696324	0.283564	0.283486
C55	C	0.196376	-0.159065	-0.274071
C56	C	0.696376	0.340935	0.225929
C57	C	0.243291	-0.159066	-0.274069
C58	C	0.743291	0.340934	0.225931
C59	C	0.266723	-0.187752	-0.245290
C60	C	0.766723	0.312248	0.254710
C61	C	0.243240	-0.216437	-0.216513
C62	C	0.743240	0.283563	0.283487
C63	C	0.196276	-0.273808	-0.158950
C64	C	0.696276	0.226192	0.341050
C65	C	0.243197	-0.273803	-0.158948
C66	C	0.743197	0.226197	0.341052
C67	C	0.266680	-0.245116	-0.187728
C68	C	0.766680	0.254884	0.312272
C69	C	0.313588	-0.245125	-0.187732
C70	C	0.813588	0.254875	0.312268
N71	N	0.337073	-0.216436	-0.216507
N72	N	0.837073	0.283564	0.283493
C73	C	0.313641	-0.187750	-0.245286
C74	C	0.813641	0.312250	0.254714
C75	C	-0.113362	-0.245130	-0.187759
C76	C	0.386638	0.254870	0.312241
C77	C	-0.160279	-0.245132	-0.187764
C78	C	0.339721	0.254868	0.312236
C79	C	-0.160226	-0.187756	-0.245320
C80	C	0.339774	0.312244	0.254680
C81	C	-0.113307	-0.187756	-0.245318
C82	C	0.386693	0.312244	0.254682
C83	C	-0.089876	-0.216442	-0.216534
C84	C	0.410124	0.283558	0.283466
C85	C	0.412167	-0.187755	-0.245280
C86	C	0.912167	0.312245	0.254720
C87	C	0.459087	-0.187760	-0.245277
C88	C	0.959087	0.312240	0.254723
C89	C	0.459029	-0.245135	-0.187719
C90	C	0.959029	0.254865	0.312281
C91	C	0.412113	-0.245132	-0.187724
C92	C	0.912113	0.254868	0.312276
C93	C	0.388684	-0.216438	-0.216506
C94	C	0.888684	0.283562	0.283494
O95	O	0.337867	-0.269518	-0.163280
O96	O	0.837867	0.230482	0.336720
O97	O	0.337931	-0.163349	-0.269753
O98	O	0.837931	0.336651	0.230247
C99	C	0.125977	-0.187748	-0.245295
C100	C	0.625977	0.312252	0.254705
C101	C	0.102494	-0.216434	-0.216518
C102	C	0.602494	0.283566	0.283482
C103	C	0.125926	-0.245120	-0.187739
C104	C	0.625926	0.254880	0.312261
C105	C	0.055576	-0.216436	-0.216522
C106	C	0.555576	0.283564	0.283478
C107	C	0.032144	-0.187749	-0.245301
C108	C	0.532144	0.312251	0.254699
C109	C	0.055629	-0.159061	-0.274076
C110	C	0.555629	0.340939	0.225924
C111	C	0.102545	-0.159062	-0.274074
C112	C	0.602545	0.340938	0.225926
C113	C	0.102440	-0.273808	-0.158964
C114	C	0.602440	0.226192	0.341036
C115	C	0.055525	-0.273805	-0.158968
C116	C	0.555525	0.226195	0.341032
C117	C	0.032092	-0.245119	-0.187747
C118	C	0.532092	0.254881	0.312253
C119	C	0.649119	-0.333163	-0.216514
C120	C	1.149119	0.166837	0.283486
C121	C	0.649135	-0.383098	-0.216528
C122	C	1.149135	0.116902	0.283472
C123	C	0.677929	-0.739650	-0.245286
C124	C	1.177929	-0.239650	0.254714
C125	C	0.677886	-0.551977	-0.245286
C126	C	1.177886	-0.051977	0.254714
O127	O	0.702309	-0.527682	-0.269730
O128	O	1.202309	-0.027682	0.230270
N129	N	0.649171	-0.528543	-0.216527
N130	N	1.149171	-0.028543	0.283473
C131	C	0.620466	-0.552030	-0.187764
C132	C	1.120466	-0.052030	0.312236
O133	O	0.596044	-0.527792	-0.163300
O134	O	1.096044	-0.027792	0.336700
C135	C	0.620511	-0.739702	-0.187763
C136	C	1.120511	-0.239702	0.312237
C137	C	0.649225	-0.763134	-0.216527
C138	C	1.149225	-0.263134	0.283473
C139	C	0.706641	-0.763081	-0.274047
C140	C	1.206641	-0.263081	0.225953
C141	C	0.706649	-0.809997	-0.274049
C142	C	1.206649	-0.309997	0.225951
C143	C	0.677946	-0.833481	-0.245289
C144	C	1.177946	-0.333481	0.254711
C145	C	0.649234	-0.810049	-0.216528
C146	C	1.149234	-0.310049	0.283472
C147	C	0.591809	-0.763189	-0.158998
C148	C	1.091809	-0.263189	0.341002
C149	C	0.591824	-0.810110	-0.159000
C150	C	1.091824	-0.310110	0.341000
C151	C	0.620538	-0.833541	-0.187764
C152	C	1.120538	-0.333541	0.312236
C153	C	0.620539	-0.880449	-0.187770
C154	C	1.120539	-0.380449	0.312230
N155	N	0.649254	-0.903883	-0.216529
N156	N	1.149254	-0.403883	0.283471
C157	C	0.677958	-0.880399	-0.245289
C158	C	1.177958	-0.380399	0.254711
C159	C	0.620444	-0.453499	-0.187768
C160	C	1.120444	0.046501	0.312232
C161	C	0.620432	-0.406582	-0.187769
C162	C	1.120432	0.093418	0.312231
C163	C	0.677853	-0.406532	-0.245289
C164	C	1.177853	0.093468	0.254711
C165	C	0.677862	-0.453450	-0.245290
C166	C	1.177862	0.046550	0.254710
C167	C	0.649159	-0.476933	-0.216526
C168	C	1.149159	0.023067	0.283474
C169	C	0.677973	-0.978924	-0.245290
C170	C	1.177973	-0.478924	0.254710
C171	C	0.677978	-1.025844	-0.245290
C172	C	1.177978	-0.525844	0.254710
C173	C	0.620559	-1.025890	-0.187768
C174	C	1.120559	-0.525890	0.312232
C175	C	0.620553	-0.978974	-0.187769
C176	C	1.120553	-0.478974	0.312231
C177	C	0.649263	-0.955493	-0.216532
C178	C	1.149263	-0.455493	0.283468
O179	O	0.596132	-0.904772	-0.163335
O180	O	1.096132	-0.404772	0.336665
O181	O	0.702383	-0.904645	-0.269742
O182	O	1.202383	-0.404645	0.230258
C183	C	0.677920	-0.692734	-0.245285
C184	C	1.177920	-0.192734	0.254715
C185	C	0.649208	-0.669303	-0.216524
C186	C	1.149208	-0.169303	0.283476
C187	C	0.620505	-0.692787	-0.187764
C188	C	1.120505	-0.192787	0.312236
C189	C	0.649196	-0.622385	-0.216524
C190	C	1.149196	-0.122385	0.283476
C191	C	0.677900	-0.598901	-0.245284
C192	C	1.177900	-0.098901	0.254716
C193	C	0.706615	-0.622335	-0.274043
C194	C	1.206615	-0.122335	0.225957
C195	C	0.706623	-0.669250	-0.274044
C196	C	1.206623	-0.169250	0.225956
C197	C	0.591789	-0.669353	-0.159005
C198	C	1.091789	-0.169353	0.340995
C199	C	0.591783	-0.622437	-0.159007
C200	C	1.091783	-0.122437	0.340993
C201	C	0.620486	-0.598953	-0.187766
C202	C	1.120486	-0.098953	0.312234
C203	C	0.766354	-0.216445	-0.216534
C204	C	1.266354	0.283555	0.283466
C205	C	0.816288	-0.216446	-0.216543
C206	C	1.316288	0.283554	0.283457
C207	C	0.649188	-0.216437	-0.333693
C208	C	1.149188	0.283563	0.166307
C209	C	0.649193	-0.216435	-0.383628
C210	C	1.149193	0.283565	0.116372
C211	C	0.649245	-0.099262	-0.216526
C212	C	1.149245	0.400738	0.283474
C213	C	0.649275	-0.049328	-0.216531
C214	C	1.149275	0.450672	0.283469
C215	C	0.677974	-0.187627	-0.693282
C216	C	1.177974	0.312373	-0.193282
C217	C	0.677996	-0.187589	-0.880955
C218	C	1.177996	0.312411	-0.380955
O219	O	0.702433	-0.163138	-0.905229
O220	O	1.202433	0.336862	-0.405229
N221	N	0.649253	-0.216315	-0.904413
N222	N	1.149253	0.283685	-0.404413
C223	C	0.620499	-0.245050	-0.880950
C224	C	1.120499	0.254950	-0.380950
O225	O	0.596048	-0.269479	-0.905209
O226	O	1.096048	0.230521	-0.405209
C227	C	0.620475	-0.245086	-0.693278
C228	C	1.120475	0.254914	-0.193278
C229	C	0.649224	-0.216361	-0.669822
C230	C	1.149224	0.283639	-0.169822
C231	C	0.706720	-0.158905	-0.669826
C232	C	1.206720	0.341095	-0.169826
C233	C	0.706716	-0.158916	-0.622910
C234	C	1.206716	0.341084	-0.122910
C235	C	0.677966	-0.187650	-0.599451
C236	C	1.177966	0.312350	-0.099451
C237	C	0.649220	-0.216373	-0.622907
C238	C	1.149220	0.283627	-0.122907
C239	C	0.591720	-0.273819	-0.669816
C240	C	1.091720	0.226181	-0.169816
C241	C	0.591716	-0.273824	-0.622894
C242	C	1.091716	0.226176	-0.122894
C243	C	0.620464	-0.245100	-0.599439
C244	C	1.120464	0.254900	-0.099439
C245	C	0.620465	-0.245119	-0.552531
C246	C	1.120465	0.254881	-0.052531
N247	N	0.649209	-0.216393	-0.529073
N248	N	1.149209	0.283607	-0.029073
C249	C	0.677959	-0.187659	-0.552533
C250	C	1.177959	0.312341	-0.052533
C251	C	0.620515	-0.245030	-0.979481
C252	C	1.120515	0.254970	-0.479481
C253	C	0.620521	-0.245022	-1.026398
C254	C	1.120521	0.254978	-0.526398
C255	C	0.678018	-0.187560	-1.026400
C256	C	1.178018	0.312440	-0.526400
C257	C	0.678013	-0.187571	-0.979481
C258	C	1.178013	0.312429	-0.479481
C259	C	0.649258	-0.216304	-0.956022
C260	C	1.149258	0.283696	-0.456022
C261	C	0.677948	-0.187685	-0.454007
C262	C	1.177948	0.312315	0.045993
C263	C	0.677943	-0.187701	-0.407087
C264	C	1.177943	0.312299	0.092913
C265	C	0.620445	-0.245161	-0.407090
C266	C	1.120445	0.254839	0.092910
C267	C	0.620452	-0.245147	-0.454005
C268	C	1.120452	0.254853	0.045995
C269	C	0.649205	-0.216406	-0.477463
C270	C	1.149205	0.283594	0.022537
O271	O	0.596038	-0.269553	-0.528229
O272	O	1.096038	0.230447	-0.028229
O273	O	0.702399	-0.163226	-0.528266
O274	O	1.202399	0.336774	-0.028266
C275	C	0.677978	-0.187616	-0.740197
C276	C	1.177978	0.312384	-0.240197
C277	C	0.649232	-0.216338	-0.763653
C278	C	1.149232	0.283662	-0.263653
C279	C	0.620482	-0.245072	-0.740193
C280	C	1.120482	0.254928	-0.240193
C281	C	0.649239	-0.216330	-0.810571
C282	C	1.149239	0.283670	-0.310571
C283	C	0.677989	-0.187596	-0.834031
C284	C	1.177989	0.312404	-0.334031
C285	C	0.706732	-0.158870	-0.810572
C286	C	1.206732	0.341130	-0.310572
C287	C	0.706728	-0.158881	-0.763657
C288	C	1.206728	0.341119	-0.263657
C289	C	0.591738	-0.273798	-0.763651
C290	C	1.091738	0.226202	-0.263651
C291	C	0.591745	-0.273785	-0.810567
C292	C	1.091745	0.226215	-0.310567
C293	C	0.620495	-0.245050	-0.834027
C294	C	1.120495	0.254950	-0.334027
C295	C	0.649189	-0.216412	-0.099792
C296	C	1.149189	0.283588	0.400208
C297	C	0.649271	-0.216288	-0.049858
C298	C	1.149271	0.283712	0.450142
H299	H	0.036543	-0.135705	-0.297511
H300	H	0.536543	0.364295	0.202489
H301	H	0.597099	-0.268431	-0.960385
H302	H	1.097099	0.231569	-0.460385
H303	H	0.568335	-0.297180	-0.829660
H304	H	1.068335	0.202820	-0.329660
H305	H	0.701242	-0.472525	-0.268714
H306	H	1.201242	0.027475	0.231286
C307	C	0.709568	-0.156098	-0.381289
C308	C	1.209568	0.343902	0.118711
N309	N	0.733386	-0.132294	-0.361859
N310	N	1.233386	0.367706	0.138141
C311	C	0.269117	-0.127501	-0.305724
C312	C	0.769117	0.372499	0.194276
N313	N	0.288565	-0.103723	-0.329565
N314	N	0.788565	0.396277	0.170435
H315	H	0.701224	-0.387403	-0.268707
H316	H	1.201224	0.112597	0.231293
H317	H	0.701360	-0.164280	-0.473101
H318	H	1.201360	0.335720	0.026899
H319	H	0.177302	-0.135702	-0.297506
H320	H	0.677302	0.364298	0.202494
C321	C	0.709570	-1.051616	-0.276931
C322	C	1.209570	-0.551616	0.223069
N323	N	0.733366	-1.071026	-0.300761
N324	N	1.233366	-0.571026	0.199239
H325	H	0.597039	-0.268557	-0.387980
H326	H	1.097039	0.231443	0.112020
C327	C	-0.186010	-0.156198	-0.276975
C328	C	0.313990	0.343802	0.223025
N329	N	-0.205433	-0.132427	-0.300813
N330	N	0.294567	0.367573	0.199187
H331	H	0.568450	-0.829227	-0.135576
H332	H	1.068450	-0.329227	0.364424
C333	C	-0.186106	-0.276693	-0.156106
C334	C	0.313894	0.223307	0.343894
N335	N	-0.205557	-0.300462	-0.132257
N336	N	0.294443	0.199538	0.367743
H337	H	0.568310	-0.297209	-0.688905
H338	H	1.068310	0.202791	-0.188905
H339	H	-0.094288	-0.268491	-0.164319
H340	H	0.405712	0.231509	0.335681
C341	C	0.738350	-0.127278	-0.737862
C342	C	1.238350	0.372722	-0.237862
N343	N	0.762169	-0.103471	-0.718436
N344	N	1.262169	0.396529	-0.218436
H345	H	0.478116	-0.268492	-0.164289
H346	H	0.978116	0.231508	0.335711
H347	H	0.121661	-0.135702	-0.297510
H348	H	0.621661	0.364298	0.202490
H349	H	0.597045	-0.387507	-0.164351
H350	H	1.097045	0.112493	0.335649
C351	C	0.738355	-0.127260	-0.836387
C352	C	1.238355	0.372740	-0.336387
N353	N	0.762170	-0.103450	-0.855833
N354	N	1.262170	0.396550	-0.355833
C355	C	0.560083	-0.305435	-0.597093
C356	C	1.060083	0.194565	-0.097093
N357	N	0.536259	-0.329246	-0.577660
N358	N	1.036259	0.170754	-0.077660
C359	C	0.738245	-0.835765	-0.305684
C360	C	1.238245	-0.335765	0.194316
N361	N	0.762048	-0.855171	-0.329510
N362	N	1.262048	-0.355171	0.170490
H363	H	0.568327	-0.297198	-0.744555
H364	H	1.068327	0.202802	-0.244555
C365	C	0.170455	-0.305361	-0.127283
C366	C	0.670455	0.194639	0.372717
N367	N	0.151007	-0.329126	-0.103427
N368	N	0.651007	0.170874	0.396573
C369	C	0.738190	-0.596494	-0.305677
C370	C	1.238190	-0.096494	0.194323
N371	N	0.761973	-0.577028	-0.329500
N372	N	1.261973	-0.077028	0.170500
C373	C	0.588969	-0.953199	-0.156125
C374	C	1.088969	-0.453199	0.343875
N375	N	0.565184	-0.933788	-0.132285
N376	N	1.065184	-0.433788	0.367715
H377	H	0.730125	-0.135525	-0.603817
H378	H	1.230125	0.364475	-0.103817
C379	C	0.588830	-0.276748	-0.479807
C380	C	1.088830	0.223252	0.020193
N381	N	0.565009	-0.300548	-0.499238
N382	N	1.065009	0.199452	0.000762
H383	H	0.036408	-0.297170	-0.135533
H384	H	0.536408	0.202830	0.364467
C385	C	0.709635	-0.155968	-0.953685
C386	C	1.209635	0.344032	-0.453685
N387	N	0.733453	-0.132163	-0.934257
N388	N	1.233453	0.367837	-0.434257
C389	C	0.268968	-0.305362	-0.127284
C390	C	0.768968	0.194638	0.372716
N391	N	0.288379	-0.329133	-0.103436
N392	N	0.788379	0.170867	0.396564
H393	H	-0.094190	-0.164396	-0.268752
H394	H	0.405810	0.335604	0.231248
C395	C	0.588899	-0.276624	-1.052194
C396	C	1.088899	0.223376	-0.552194
N397	N	0.565077	-0.300426	-1.071622
N398	N	1.065077	0.199574	-0.571622
H399	H	0.392992	-0.268496	-0.164294
H400	H	0.892992	0.231504	0.335706
H401	H	0.121514	-0.297168	-0.135527
H402	H	0.621514	0.202832	0.364473
C403	C	0.709555	-0.953101	-0.276932
C404	C	1.209555	-0.453101	0.223068
N405	N	0.733340	-0.933652	-0.300767
N406	N	1.233340	-0.433652	0.199233
C407	C	0.738221	-0.737256	-0.305686
C408	C	1.238221	-0.237256	0.194314
N409	N	0.762008	-0.717808	-0.329521
N410	N	1.262008	-0.217808	0.170479
C411	C	0.589019	-1.051731	-0.156102
C412	C	1.089019	-0.551731	0.343898
N413	N	0.565277	-1.071196	-0.132237
N414	N	1.065277	-0.571196	0.367763
C415	C	0.588863	-0.479325	-0.156126
C416	C	1.088863	0.020675	0.343874
N417	N	0.565074	-0.498775	-0.132295
N418	N	1.065074	0.001225	0.367705
C419	C	0.709640	-0.155949	-1.052214
C420	C	1.209640	0.344051	-0.552214
N421	N	0.733454	-0.132139	-1.071660
N422	N	1.233454	0.367861	-0.571660
H423	H	0.568428	-0.744117	-0.135576
H424	H	1.068428	-0.244117	0.364424
C425	C	0.560187	-0.596668	-0.127367
C426	C	1.060187	-0.096668	0.372633
N427	N	0.536392	-0.577260	-0.103536
N428	N	1.036392	-0.077260	0.396464
C429	C	0.560209	-0.695179	-0.127368
C430	C	1.060209	-0.195179	0.372632
N431	N	0.536418	-0.714629	-0.103539
N432	N	1.036418	-0.214629	0.396461
H433	H	0.478204	-0.164399	-0.268715
H434	H	0.978204	0.335601	0.231285
H435	H	0.393096	-0.164389	-0.268716
H436	H	0.893096	0.335611	0.231284
H437	H	0.730132	-0.135503	-0.688922
H438	H	1.230132	0.364497	-0.188922
H439	H	0.730005	-0.688324	-0.297467
H440	H	1.230005	-0.188324	0.202533
