data_functionalizedCrystal
_audit_creation_method	'MofGen! by Chris Wilmer'
_symmetry_space_group_name_H-M	'P1'
_symmetry_Int_Tables_number	1
_symmetry_cell_setting	triclinic
loop_
_symmetry_equiv_pos_as_xyz
  x,y,z
_cell_length_a	17.699097
_cell_length_b	10.723023
_cell_length_c	16.776229
_cell_angle_alpha	89.994384
_cell_angle_beta	89.989262
_cell_angle_gamma	83.877989
loop_
_atom_site_label
_atom_site_type_symbol
_atom_site_fract_x
_atom_site_fract_y
_atom_site_fract_z
O1	O	1.005068	0.157876	-0.066353
O2	O	0.784820	0.178388	-0.066340
O3	O	0.900025	-0.013531	-0.066343
O4	O	0.889863	0.349795	-0.066349
O5	O	0.900009	-0.013542	0.066233
O6	O	0.784805	0.178377	0.066237
O7	O	1.005052	0.157864	0.066224
Zn8	Zn	0.894926	0.168119	0.087280
Zn9	Zn	0.894946	0.168134	-0.087396
O10	O	0.889848	0.349783	0.066227
C11	C	0.756611	0.177645	-0.000050
C12	C	0.672579	0.175431	-0.000045
C13	C	0.156784	0.161870	-0.072344
C14	C	0.235741	0.163942	-0.072340
C15	C	0.275205	0.164973	-0.000069
C16	C	0.235709	0.163920	0.072202
C17	C	0.156754	0.161840	0.072197
C18	C	0.554126	0.172307	0.072223
C19	C	0.633086	0.174391	0.072222
C20	C	0.633113	0.174409	-0.072315
C21	C	0.554158	0.172329	-0.072319
C22	C	0.514669	0.171270	-0.000048
C23	C	0.429055	0.169021	-0.000053
C24	C	0.360817	0.167230	-0.000063
C25	C	0.899277	-0.060024	-0.000056
C26	C	0.897065	-0.198540	-0.000058
C27	C	0.896087	-0.260283	-0.068738
C28	C	0.893801	-0.403447	-0.068742
C29	C	1.033261	0.158608	-0.000068
C30	C	1.117293	0.160821	-0.000078
C31	C	0.890595	0.396276	-0.000062
C32	C	0.892807	0.534793	-0.000065
N33	N	0.894918	0.168107	0.206491
N34	N	0.894961	0.168136	-0.206607
C35	C	0.945946	0.083160	0.248206
C36	C	0.945950	0.083159	0.331659
C37	C	0.894929	0.168112	0.373394
C38	C	0.843895	0.253063	0.331672
C39	C	0.843888	0.253057	0.248222
C40	C	0.843923	0.253088	0.668220
C41	C	0.843935	0.253090	0.751676
C42	C	0.945985	0.083190	0.751656
C43	C	0.945978	0.083184	0.668206
C44	C	0.894941	0.168130	0.626492
C45	C	0.894937	0.168128	0.536003
C46	C	0.894937	0.168121	0.463881
H47	H	0.665275	0.175266	-0.131161
H48	H	0.665216	0.175231	0.131077
O49	O	0.794293	0.335657	0.792096
C50	C	0.693088	0.504213	0.783314
C51	C	0.749251	0.410762	0.737440
H52	H	0.656668	0.564978	0.739145
H53	H	0.654962	0.450469	0.822380
H54	H	0.726099	0.566437	0.822388
H55	H	0.716302	0.348515	0.698322
H56	H	0.787377	0.464584	0.698424
O57	O	0.794300	0.335414	0.372301
C58	C	0.691061	0.362184	0.466516
C59	C	0.747194	0.268781	0.420569
H60	H	0.652951	0.308347	0.505539
H61	H	0.724021	0.424442	0.505622
H62	H	0.654620	0.422922	0.422351
H63	H	0.783649	0.207959	0.464677
H64	H	0.714188	0.206609	0.381451
O65	O	0.897020	-0.196748	-0.138831
C66	C	0.833929	-0.035322	-0.222612
C67	C	0.832780	-0.107157	-0.143195
H68	H	0.781989	0.037110	-0.226173
H69	H	0.887746	0.014126	-0.226170
H70	H	0.832879	-0.104097	-0.274316
H71	H	0.833802	-0.038466	-0.091446
H72	H	0.778968	-0.156625	-0.139706
O73	O	0.794293	0.335699	0.207820
C74	C	0.693040	0.504173	0.216642
C75	C	0.749181	0.410671	0.262494
H76	H	0.656542	0.564795	0.260825
H77	H	0.725992	0.566529	0.177577
H78	H	0.654986	0.450344	0.177568
H79	H	0.787249	0.464398	0.301611
H80	H	0.716182	0.348316	0.301508
H81	H	0.521985	0.171426	0.131070
H82	H	0.987539	0.014018	0.785629
H83	H	0.124600	0.160999	0.131044
O84	O	0.995398	0.000596	0.627542
C85	C	1.040316	-0.075194	0.498974
C86	C	0.984395	0.018548	0.544925
H87	H	1.031428	-0.060731	0.432170
H88	H	1.101102	-0.059332	0.515206
H89	H	1.029781	-0.174992	0.515538
H90	H	0.994860	0.118382	0.528385
H91	H	0.923628	0.002576	0.528689
H92	H	0.522030	0.171496	-0.131170
H93	H	0.124657	0.161040	-0.131195
H94	H	0.893652	-0.412119	0.058738
H95	H	0.267847	0.164752	0.131046
H96	H	0.267892	0.164788	-0.131186
H97	H	0.896205	-0.251667	0.058738
H98	H	0.892964	-0.456545	-0.127541
O99	O	0.995537	0.000515	0.207792
C100	C	1.096788	-0.167963	0.216590
C101	C	1.040656	-0.074449	0.262455
H102	H	1.133292	-0.228578	0.260765
H103	H	1.063828	-0.230324	0.177558
H104	H	1.134837	-0.114144	0.177482
H105	H	1.002593	-0.128166	0.301606
H106	H	1.073663	-0.012088	0.301437
H107	H	0.987501	0.013988	0.365623
H108	H	0.802369	0.322256	0.634263
