data_functionalizedCrystal
_audit_creation_method	'MofGen! by Chris Wilmer'
_symmetry_space_group_name_H-M	'P1'
_symmetry_Int_Tables_number	1
_symmetry_cell_setting	triclinic
loop_
_symmetry_equiv_pos_as_xyz
  x,y,z
_cell_length_a	11.792241
_cell_length_b	10.489716
_cell_length_c	10.268362
_cell_angle_alpha	89.998762
_cell_angle_beta	89.999626
_cell_angle_gamma	84.361276
loop_
_atom_site_label
_atom_site_type_symbol
_atom_site_fract_x
_atom_site_fract_y
_atom_site_fract_z
O1	O	1.507367	0.174835	-0.108161
O2	O	1.177073	0.192853	-0.108190
O3	O	1.349750	-0.001782	-0.108180
O4	O	1.334690	0.369469	-0.108172
O5	O	1.349735	-0.001790	0.108421
O6	O	1.177058	0.192845	0.108410
O7	O	1.507352	0.174826	0.108439
Cu8	Cu	1.342203	0.183835	0.128202
Cu9	Cu	1.342221	0.183845	-0.127953
O10	O	1.334674	0.369461	0.108429
C11	C	1.134771	0.191717	0.000106
C12	C	1.008749	0.188329	0.000094
C13	C	0.778020	0.182100	0.000132
C14	C	0.906415	0.185561	0.000111
C15	C	1.348611	-0.049314	0.000116
C16	C	1.345225	-0.190934	0.000104
C17	C	1.451116	-0.288968	0.000125
C18	C	1.395169	-0.366134	-0.106671
C19	C	1.395129	-0.366106	0.106880
C20	C	1.289322	-0.266234	-0.106781
C21	C	1.289298	-0.266201	0.106866
C22	C	1.233272	-0.343318	0.000043
C23	C	1.549653	0.175962	0.000140
C24	C	1.675676	0.179350	0.000143
C25	C	1.335814	0.416994	0.000130
C26	C	1.339199	0.558613	0.000133
N27	N	1.342199	0.183827	0.308368
N28	N	1.342235	0.183842	-0.308119
C29	C	1.342215	0.183842	0.574039
C30	C	1.342203	0.183838	0.426201
H31	H	1.543223	-0.264606	0.000025
C32	C	1.454555	-0.424373	-0.227167
C33	C	1.376947	-0.486843	-0.301046
C34	C	1.431615	-0.540486	-0.412060
H35	H	1.516241	-0.484240	-0.201664
H36	H	1.482584	-0.358507	-0.277878
H37	H	1.348936	-0.552702	-0.250345
H38	H	1.315259	-0.427004	-0.326583
H39	H	1.459643	-0.474620	-0.462771
H40	H	1.493299	-0.600347	-0.386544
H41	H	1.378963	-0.582868	-0.462207
H42	H	1.141096	-0.367434	-0.000022
C43	C	1.229879	-0.208065	-0.227276
C44	C	1.233861	-0.075110	-0.225933
C45	C	1.179138	-0.021484	-0.336923
H46	H	1.152705	-0.226851	-0.227717
H47	H	1.267250	-0.243080	-0.303044
H48	H	1.196487	-0.040107	-0.150185
H49	H	1.311021	-0.056289	-0.225511
H50	H	1.216509	-0.056499	-0.412691
H51	H	1.101968	-0.040278	-0.337354
H52	H	1.181842	0.068729	-0.336032
H53	H	1.244630	-0.222534	0.197152
C54	C	1.454931	-0.424123	0.227230
C55	C	1.568854	-0.397055	0.226731
C56	C	1.623982	-0.450462	0.337577
H57	H	1.451843	-0.514270	0.226897
H58	H	1.418143	-0.388543	0.303099
H59	H	1.605632	-0.432640	0.150881
H60	H	1.571976	-0.306919	0.227083
H61	H	1.587195	-0.414882	0.413446
H62	H	1.620886	-0.540607	0.337234
H63	H	1.701282	-0.432094	0.337259
