data_functionalizedCrystal
_audit_creation_method	'MofGen! by Chris Wilmer'
_symmetry_space_group_name_H-M	'P1'
_symmetry_Int_Tables_number	1
_symmetry_cell_setting	triclinic
loop_
_symmetry_equiv_pos_as_xyz
  x,y,z
_cell_length_a	11.169416
_cell_length_b	11.169417
_cell_length_c	12.759393
_cell_angle_alpha	89.981972
_cell_angle_beta	89.971356
_cell_angle_gamma	90.011589
loop_
_atom_site_label
_atom_site_type_symbol
_atom_site_fract_x
_atom_site_fract_y
_atom_site_fract_z
Zn1	Zn	-0.477696	1.834945	-0.593990
Zn2	Zn	-0.678429	1.834839	-0.418319
Zn3	Zn	-0.477763	1.634236	-0.418330
Zn4	Zn	-0.678340	1.634238	-0.593962
O5	O	-0.578057	1.734564	-0.506150
O6	O	-0.504333	2.002880	-0.570693
O7	O	-0.651875	1.808184	-0.271299
O8	O	-0.309804	1.660903	-0.441649
O9	O	-0.651811	2.002803	-0.441629
O10	O	-0.309755	1.808363	-0.570705
O11	O	-0.504447	1.660801	-0.271308
O12	O	-0.504361	1.466286	-0.441621
O13	O	-0.651660	1.660907	-0.740986
O14	O	-0.651724	1.466288	-0.570657
O15	O	-0.504247	1.808366	-0.741007
O16	O	-0.846367	1.808186	-0.441601
O17	O	-0.846302	1.660805	-0.570645
C18	C	-0.889882	1.734517	-0.506142
C19	C	-1.023282	1.734606	-0.506174
C20	C	-0.578041	1.422740	-0.506138
C21	C	-0.578063	1.289340	-0.506158
C22	C	-0.577936	1.734649	-0.780183
C23	C	-0.577885	1.734684	-0.896960
C24	C	-0.265015	1.734645	-0.506181
C25	C	-0.131615	1.734679	-0.506194
C26	C	-0.578074	2.047607	-0.506163
C27	C	-0.578082	2.181007	-0.506168
C28	C	-0.501120	1.811476	-0.951835
C29	C	-0.501076	1.811505	-1.061559
C30	C	-0.654573	1.657946	-1.061524
C31	C	-0.654609	1.657912	-0.951802
C32	C	-0.412503	1.900136	-0.951855
C33	C	-0.412460	1.900165	-1.061580
C34	C	-0.578091	1.734550	-0.233183
C35	C	-0.577805	1.734746	-0.116407
H36	H	-0.717037	1.595438	-1.106190
H37	H	-0.445822	1.988410	-0.917820
C38	C	-0.446115	2.025725	-1.101816
H39	H	-0.459996	2.077340	-1.043906
H40	H	-0.382496	2.056652	-1.143191
H41	H	-0.516641	2.020637	-1.143163
C42	C	-0.293155	1.855250	-1.107579
H43	H	-0.240052	1.835235	-1.052138
H44	H	-0.307389	1.786423	-1.149478
H45	H	-0.258412	1.916399	-1.149490
H46	H	-0.319557	1.875262	-0.922096
C47	C	-0.739028	1.573419	-0.891443
H48	H	-0.784717	1.527707	-0.939822
H49	H	-0.693110	1.521136	-0.848653
H50	H	-0.791354	1.619290	-0.848628
