data_functionalizedCrystal
_audit_creation_method	'MofGen! by Chris Wilmer'
_symmetry_space_group_name_H-M	'P1'
_symmetry_Int_Tables_number	1
_symmetry_cell_setting	triclinic
loop_
_symmetry_equiv_pos_as_xyz
  x,y,z
_cell_length_a	15.995350
_cell_length_b	8.559649
_cell_length_c	7.681215
_cell_angle_alpha	82.932346
_cell_angle_beta	83.574568
_cell_angle_gamma	76.635520
loop_
_atom_site_label
_atom_site_type_symbol
_atom_site_fract_x
_atom_site_fract_y
_atom_site_fract_z
O1	O	-1.103936	-0.219428	0.146278
O2	O	-0.858526	-0.244865	0.146314
O3	O	-1.002852	0.000456	0.146291
O4	O	-0.959610	-0.464749	0.146301
O5	O	-0.990440	0.027430	-0.146577
O6	O	-0.846114	-0.217891	-0.146555
O7	O	-1.091524	-0.192455	-0.146590
Zn8	Zn	-0.966848	-0.200890	-0.193072
Zn9	Zn	-0.983202	-0.236429	0.192795
O10	O	-0.947198	-0.437775	-0.146568
C11	C	-0.821194	-0.230327	-0.000116
C12	C	-0.728446	-0.227176	-0.000102
C13	C	-1.128857	-0.206993	-0.000157
C14	C	-1.221604	-0.210145	-0.000159
C15	C	-0.999923	0.073472	-0.000140
C16	C	-1.009678	0.250852	-0.000132
C17	C	-0.391425	-0.215852	-0.000139
C18	C	-0.450066	-0.041080	-0.000796
C19	C	-0.546582	-0.044295	-0.000124
C20	C	-0.558626	-0.221469	-0.000122
C21	C	-0.519085	-0.323045	0.167115
C22	C	-0.422737	-0.318668	0.167243
C23	C	-0.408051	-0.291604	-0.165803
C24	C	-0.504906	-0.291360	-0.168001
C25	C	-0.653119	-0.224653	-0.000106
C26	C	-0.296932	-0.212674	-0.000143
C27	C	-0.950127	-0.510792	-0.000132
C28	C	-0.940373	-0.688173	-0.000129
N29	N	-0.955694	-0.176635	-0.456415
N30	N	-0.994364	-0.260672	0.456139
H31	H	-0.574286	0.034483	-0.120007
H32	H	-0.511535	-0.419630	-0.178101
N33	N	-0.903439	-0.063004	-0.556052
H34	H	-0.904723	-0.065764	-0.686787
H35	H	-0.841866	-0.097506	-0.523939
H36	H	-0.873576	0.228330	-0.000125
N37	N	-1.098165	0.361452	-0.000142
H38	H	-1.143026	0.295562	-0.000141
H39	H	-1.100697	0.441420	-0.108720
H40	H	-1.033822	-0.346444	-0.468620
H41	H	-0.439997	0.017450	0.118472
N42	N	-0.424755	0.066062	-0.159665
H43	H	-0.375027	0.002358	-0.232756
H44	H	-0.406829	0.160612	-0.119632
H45	H	-0.413767	-0.267340	0.292255
N46	N	-0.596043	0.031389	0.158938
H47	H	-0.555160	0.066961	0.228898
H48	H	-0.624321	-0.050179	0.235021
H49	H	-0.382562	-0.447637	0.174834
H50	H	-0.525103	-0.453783	0.173335
N51	N	-0.354931	-0.462078	-0.167331
H52	H	-0.365874	-0.510126	-0.274049
H53	H	-0.371645	-0.529142	-0.056975
H54	H	-0.556582	-0.274656	0.291575
H55	H	-0.531024	-0.217059	-0.291723
N56	N	-0.378604	-0.200487	-0.333721
H57	H	-0.354183	-0.109173	-0.304098
H58	H	-0.429264	-0.155315	-0.406285
