data_functionalizedCrystal
_audit_creation_method	'MofGen! by Chris Wilmer'
_symmetry_space_group_name_H-M	'P1'
_symmetry_Int_Tables_number	1
_symmetry_cell_setting	triclinic
loop_
_symmetry_equiv_pos_as_xyz
  x,y,z
_cell_length_a	30.700809
_cell_length_b	30.711276
_cell_length_c	30.700862
_cell_angle_alpha	59.998386
_cell_angle_beta	89.999414
_cell_angle_gamma	60.000191
loop_
_atom_site_label
_atom_site_type_symbol
_atom_site_fract_x
_atom_site_fract_y
_atom_site_fract_z
O1	O	-0.371254	-0.311651	0.012944
O2	O	-0.307913	-0.222487	-0.012907
O3	O	-0.307911	-0.311650	0.076286
O4	O	-0.371257	-0.222488	-0.076249
O5	O	-0.235466	-0.384070	0.076286
O6	O	-0.235468	-0.294907	-0.012907
O7	O	-0.298809	-0.384071	0.012944
Zn8	Zn	-0.255636	-0.350987	0.000018
Zn9	Zn	-0.351086	-0.255571	0.000019
O10	O	-0.298812	-0.294908	-0.076249
C11	C	-0.234796	-0.137097	-0.018777
C12	C	-0.261674	-0.083360	-0.015076
C13	C	-0.182374	-0.163176	-0.019143
C14	C	-0.234798	-0.215942	-0.018783
C15	C	-0.261678	-0.246507	-0.015089
C16	C	-0.182376	-0.241901	-0.019150
C17	C	-0.155920	-0.215947	-0.018777
C18	C	-0.098463	-0.246515	-0.015075
C19	C	-0.261132	-0.163172	-0.019150
C20	C	-0.574961	-0.535511	0.039265
C21	C	-0.548506	-0.588283	0.039634
C22	C	-0.496086	-0.535509	0.039262
C23	C	-0.469751	-0.588281	0.039632
C24	C	-0.496085	-0.614360	0.039265
C25	C	-0.548507	-0.509552	0.039632
C26	C	-0.765169	-0.393516	0.024987
C27	C	-0.819034	-0.364488	0.020950
C28	C	-0.846055	-0.389406	0.018925
C29	C	-0.904462	-0.357927	0.014538
C30	C	-0.819206	-0.443357	0.020941
C31	C	-0.765344	-0.472385	0.024984
C32	C	-0.738325	-0.447463	0.027007
C33	C	-0.447920	-0.790230	0.024988
C34	C	-0.423094	-0.840041	0.020951
C35	C	-0.371150	-0.865027	0.018921
C36	C	-0.344230	-0.919028	0.014536
C37	C	-0.344030	-0.840201	0.020935
C38	C	-0.368852	-0.790399	0.024981
C39	C	-0.420803	-0.765414	0.027004
C40	C	-0.447922	-0.393510	0.024977
C41	C	-0.423099	-0.364475	0.020931
C42	C	-0.371152	-0.389391	0.018903
C43	C	-0.344235	-0.357911	0.014513
C44	C	-0.344034	-0.443338	0.020916
C45	C	-0.368860	-0.472368	0.024960
C46	C	-0.420804	-0.447452	0.026995
C47	C	-0.679920	-0.478941	0.031387
C48	C	-0.633366	-0.504032	0.034880
C49	C	-0.469171	-0.504029	0.034875
C50	C	-0.447717	-0.478936	0.031380
C51	C	-0.469170	-0.668361	0.034880
C52	C	-0.447716	-0.711408	0.031386
C53	C	-0.496432	-0.071057	-0.503890
C54	C	-0.548853	-0.018285	-0.530226
C55	C	-0.496432	-0.071056	-0.425015
C56	C	-0.548854	-0.018284	-0.451470
C57	C	-0.575308	0.007793	-0.503892
C58	C	-0.470097	-0.097014	-0.451469
C59	C	-0.368666	-0.213054	-0.552051
C60	C	-0.343664	-0.242084	-0.576877
C61	C	-0.370616	-0.217167	-0.628824
C62	C	-0.343513	-0.248647	-0.655741
C63	C	-0.422570	-0.163216	-0.655945
C64	C	-0.447565	-0.134187	-0.631122
C65	C	-0.420611	-0.159108	-0.579173
C66	C	-0.765518	0.183662	-0.631659
C67	C	-0.819384	0.233473	-0.656662
C68	C	-0.846408	0.258459	-0.629712
C69	C	-0.904813	0.312461	-0.656813
C70	C	-0.819559	0.233635	-0.577758
C71	C	-0.765694	0.183833	-0.552761
C72	C	-0.738677	0.158847	-0.579717
C73	C	-0.368668	-0.213052	-0.234803
C74	C	-0.343669	-0.242086	-0.180935
C75	C	-0.370621	-0.217169	-0.153914
C76	C	-0.343519	-0.248648	-0.095506
C77	C	-0.422573	-0.163222	-0.180762
C78	C	-0.447570	-0.134193	-0.234627
C79	C	-0.420610	-0.159111	-0.261646
C80	C	-0.447720	-0.127629	-0.552258
C81	C	-0.469327	-0.102536	-0.530805
C82	C	-0.469328	-0.102535	-0.366609
C83	C	-0.447721	-0.127627	-0.320054
C84	C	-0.633714	0.061794	-0.530997
C85	C	-0.680269	0.104841	-0.552605
O86	O	0.076277	-0.384081	0.012960
O87	O	-0.076257	-0.294916	-0.012894
O88	O	0.012931	-0.384083	0.076300
O89	O	-0.012910	-0.294914	-0.076234
O90	O	0.012933	-0.311666	0.076306
O91	O	-0.076254	-0.222499	-0.012888
O92	O	0.076280	-0.311664	0.012966
Zn93	Zn	0.000013	-0.255584	0.000040
Zn94	Zn	0.000010	-0.350996	0.000032
O95	O	-0.012908	-0.222497	-0.076228
O96	O	-0.298805	0.063292	0.012964
O97	O	-0.235462	-0.063346	-0.012888
O98	O	-0.235465	-0.063353	0.076305
O99	O	-0.298803	0.063300	-0.076229
O100	O	-0.307912	-0.063350	0.076299
O101	O	-0.307909	-0.063342	-0.012895
O102	O	-0.371252	0.063295	0.012958
Zn103	Zn	-0.351083	-0.000023	0.000031
Zn104	Zn	-0.255631	-0.000027	0.000039
O105	O	-0.371250	0.063303	-0.076236
O106	O	-1.076607	0.456783	-0.692421
O107	O	-0.924074	0.330140	-0.629074
O108	O	-1.013262	0.330138	-0.629073
O109	O	-0.987418	0.456785	-0.692422
O110	O	-1.013261	0.330136	-0.701518
O111	O	-0.924072	0.330138	-0.701518
O112	O	-1.076605	0.456781	-0.764865
Zn113	Zn	-1.000338	0.393459	-0.744694
Zn114	Zn	-1.000340	0.393461	-0.649245
O115	O	-0.987417	0.456783	-0.764866
O116	O	-0.307911	-0.311650	-0.764507
O117	O	-0.371254	-0.222491	-0.701165
O118	O	-0.371252	-0.311652	-0.701162
O119	O	-0.307912	-0.222489	-0.764510
O120	O	-0.298806	-0.384074	-0.628716
O121	O	-0.298807	-0.294912	-0.628719
O122	O	-0.235464	-0.384072	-0.692061
Zn123	Zn	-0.255634	-0.350991	-0.648887
Zn124	Zn	-0.351085	-0.255572	-0.744338
O125	O	-0.235466	-0.294910	-0.692064
C126	C	-0.155920	-0.469469	0.234827
C127	C	-0.098464	-0.523208	0.261706
C128	C	-0.182375	-0.443392	0.261162
C129	C	-0.234797	-0.390619	0.155950
C130	C	-0.261676	-0.360052	0.098494
C131	C	-0.261132	-0.364662	0.182405
C132	C	-0.234797	-0.390620	0.234826
C133	C	-0.261675	-0.360052	0.261704
C134	C	-0.182375	-0.443391	0.182406
C135	C	0.018810	-0.390643	0.234846
C136	C	0.015111	-0.360079	0.261727
C137	C	0.019176	-0.443414	0.261179
C138	C	0.018812	-0.390637	0.155967
C139	C	0.015115	-0.360067	0.098511
C140	C	0.019178	-0.443408	0.182420
C141	C	0.018807	-0.469488	0.234841
C142	C	0.015106	-0.523226	0.261717
C143	C	0.019180	-0.364683	0.182425
C144	C	-0.234799	-0.215977	0.234834
C145	C	-0.261678	-0.246545	0.261708
C146	C	-0.182376	-0.241940	0.261172
C147	C	-0.234798	-0.137119	0.155964
C148	C	-0.261676	-0.083372	0.098509
C149	C	-0.182375	-0.163202	0.182421
C150	C	-0.155921	-0.215981	0.234841
C151	C	-0.098464	-0.246554	0.261721
C152	C	-0.261134	-0.163198	0.182415
C153	C	-0.039199	0.007461	-0.503869
C154	C	-0.039568	-0.018614	-0.530207
C155	C	-0.039203	-0.071390	-0.424995
C156	C	-0.039572	-0.097344	-0.451452
C157	C	-0.039201	-0.071385	-0.503874
C158	C	-0.039570	-0.018618	-0.451448
C159	C	-0.024912	0.183325	-0.552025
C160	C	-0.020873	0.233135	-0.576849
C161	C	-0.018844	0.258123	-0.628796
C162	C	-0.014454	0.312124	-0.655711
C163	C	-0.020859	0.233301	-0.655918
C164	C	-0.024906	0.183500	-0.631097
C165	C	-0.026932	0.158512	-0.579148
C166	C	-0.024920	-0.133799	-0.631644
C167	C	-0.020882	-0.162650	-0.656647
C168	C	-0.018855	-0.216605	-0.629699
C169	C	-0.014470	-0.247897	-0.656801
C170	C	-0.020872	-0.241704	-0.577746
C171	C	-0.024919	-0.212847	-0.552747
C172	C	-0.026939	-0.158893	-0.579702
C173	C	-0.024929	-0.133823	-0.234783
C174	C	-0.020887	-0.162684	-0.180915
C175	C	-0.018862	-0.216639	-0.153896
C176	C	-0.014477	-0.247936	-0.095488
C177	C	-0.020875	-0.241733	-0.180745
C178	C	-0.024915	-0.212872	-0.234610
C179	C	-0.026947	-0.158912	-0.261627
C180	C	-0.031316	0.104507	-0.552235
C181	C	-0.034811	0.061462	-0.530782
C182	C	-0.034820	-0.102682	-0.366590
C183	C	-0.031328	-0.127624	-0.320035
C184	C	-0.034816	-0.102672	-0.530980
C185	C	-0.031322	-0.127610	-0.552588
O186	O	-0.012940	-0.294936	0.371303
O187	O	0.012923	-0.384099	0.307961
O188	O	-0.076273	-0.294935	0.307950
O189	O	0.076257	-0.384100	0.371315
O190	O	-0.076265	-0.222515	0.235508
O191	O	0.012932	-0.311679	0.235520
O192	O	-0.012931	-0.222517	0.298862
Zn193	Zn	0.000002	-0.255600	0.255689
Zn194	Zn	-0.000010	-0.351016	0.351134
O195	O	0.076266	-0.311681	0.298873
C196	C	-0.574962	0.464558	-0.503864
C197	C	-0.548506	0.490518	-0.530195
C198	C	-0.496085	0.385697	-0.424987
C199	C	-0.469749	0.411776	-0.451438
C200	C	-0.496084	0.464555	-0.503857
C201	C	-0.548507	0.411779	-0.451444
C202	C	-0.765173	0.526994	-0.552039
C203	C	-0.819039	0.555852	-0.576867
C204	C	-0.846061	0.609814	-0.628812
C205	C	-0.904469	0.641114	-0.655732
C206	C	-0.819211	0.634913	-0.655928
C207	C	-0.765348	0.606050	-0.631102
C208	C	-0.738329	0.552088	-0.579155
C209	C	-0.447916	0.606561	-0.631604
C210	C	-0.423088	0.635592	-0.656601
C211	C	-0.371143	0.610674	-0.629648
C212	C	-0.344222	0.642150	-0.656742
C213	C	-0.344023	0.556716	-0.577696
C214	C	-0.368845	0.527681	-0.552704
C215	C	-0.420798	0.552613	-0.579664
C216	C	-0.447920	0.209802	-0.234786
C217	C	-0.423096	0.159988	-0.180919
C218	C	-0.371148	0.134996	-0.153895
C219	C	-0.344230	0.080987	-0.095489
C220	C	-0.344029	0.159823	-0.180737
C221	C	-0.368856	0.209637	-0.234602
C222	C	-0.420801	0.234620	-0.261624
C223	C	-0.679923	0.520797	-0.552238
C224	C	-0.633367	0.495853	-0.530781
C225	C	-0.469169	0.331687	-0.366583
C226	C	-0.447714	0.288634	-0.320030
C227	C	-0.469167	0.496035	-0.530956
C228	C	-0.447712	0.521128	-0.552558
H229	H	-0.304205	-0.141343	-0.019747
C230	C	-0.505062	0.237286	-0.264507
C231	C	-0.549889	0.305316	-0.289385
C232	C	-0.607030	0.332802	-0.319106
C233	C	-0.619344	0.292258	-0.323950
C234	C	-0.574516	0.224223	-0.299072
C235	C	-0.517374	0.196737	-0.269350
H236	H	-0.540775	0.335333	-0.285800
H237	H	-0.640215	0.383166	-0.337523
H238	H	-0.661644	0.312604	-0.345952
H239	H	-0.583630	0.194206	-0.302657
H240	H	-0.484189	0.146373	-0.250933
C241	C	-0.849280	0.261119	-0.548112
C242	C	-0.898506	0.261610	-0.537554
C243	C	-0.928229	0.289093	-0.507906
C244	C	-0.908724	0.316084	-0.488817
C245	C	-0.859495	0.315594	-0.499374
C246	C	-0.829773	0.288111	-0.529022
H247	H	-0.912947	0.241629	-0.551686
H248	H	-0.964672	0.289456	-0.500091
H249	H	-0.930726	0.336429	-0.466870
H250	H	-0.845054	0.335575	-0.485242
H251	H	-0.793330	0.287748	-0.536837
H252	H	-0.161128	-0.465208	0.161163
H253	H	0.019773	-0.322218	0.161189
C254	C	-0.153662	-0.299281	-0.019929
C255	C	-0.133217	-0.296715	-0.066385
C256	C	-0.104493	-0.354100	-0.067153
C257	C	-0.096215	-0.414052	-0.021466
C258	C	-0.116660	-0.416620	0.024994
C259	C	-0.145384	-0.359235	0.025762
H260	H	-0.139345	-0.252333	-0.100209
H261	H	-0.089358	-0.352198	-0.101546
H262	H	-0.074952	-0.456532	-0.022034
H263	H	-0.110533	-0.461002	0.058818
H264	H	-0.160519	-0.361137	0.060155
H265	H	-0.161137	-0.141349	-0.019737
C266	C	-0.153695	-0.472875	0.319352
C267	C	-0.133276	-0.539748	0.363232
C268	C	-0.104603	-0.569229	0.421422
C269	C	-0.096349	-0.531838	0.435732
C270	C	-0.116769	-0.464962	0.391851
C271	C	-0.145442	-0.435480	0.333662
H272	H	-0.139385	-0.567430	0.352640
H273	H	-0.089487	-0.618736	0.453905
H274	H	-0.075124	-0.553663	0.478807
H275	H	-0.110659	-0.437279	0.402444
H276	H	-0.160558	-0.385973	0.301178
H277	H	-0.304205	-0.141373	0.161175
C278	C	0.019974	-0.472906	0.319365
C279	C	0.066441	-0.496360	0.363254
C280	C	0.067239	-0.525854	0.421438
C281	C	0.021570	-0.531893	0.435732
C282	C	-0.024899	-0.508439	0.391841
C283	C	-0.025697	-0.478945	0.333658
H284	H	0.100250	-0.491890	0.352674
H285	H	0.101639	-0.543216	0.453929
H286	H	0.022161	-0.553726	0.478803
H287	H	-0.058709	-0.512909	0.402421
H288	H	-0.060098	-0.461583	0.301167
C289	C	0.019980	-0.472895	0.153730
C290	C	0.066450	-0.496343	0.133304
C291	C	0.067253	-0.525831	0.104618
C292	C	0.021586	-0.531870	0.096358
C293	C	-0.024886	-0.508422	0.116785
C294	C	-0.025689	-0.478934	0.145471
H295	H	0.100258	-0.491872	0.139418
H296	H	0.101655	-0.543189	0.089497
H297	H	0.022181	-0.553699	0.075123
H298	H	-0.058694	-0.512892	0.110671
H299	H	-0.060092	-0.461576	0.160592
H300	H	-0.426680	-0.610102	0.040221
H301	H	-0.445183	0.139782	-0.159066
H302	H	-0.026568	-0.089866	-0.653596
H303	H	-0.569747	-0.610106	0.040228
H304	H	-0.569749	-0.467085	0.040220
H305	H	-0.301736	-0.463624	0.019263
C306	C	-0.452929	-0.305136	0.018716
C307	C	-0.463629	-0.245276	-0.030015
C308	C	-0.493459	-0.185938	-0.032227
C309	C	-0.512589	-0.186460	0.014292
C310	C	-0.501889	-0.246322	0.063027
C311	C	-0.472059	-0.305660	0.065238
H312	H	-0.449468	-0.244888	-0.064455
H313	H	-0.501380	-0.141624	-0.068304
H314	H	-0.534671	-0.142534	0.012655
H315	H	-0.516051	-0.246710	0.097466
H316	H	-0.464139	-0.349973	0.101315
C317	C	-0.286523	-0.301424	-0.151402
C318	C	-0.241605	-0.303163	-0.126569
C319	C	-0.184458	-0.362500	-0.097037
C320	C	-0.172227	-0.420098	-0.092337
C321	C	-0.217145	-0.418361	-0.117171
C322	C	-0.274293	-0.359024	-0.146703
H323	H	-0.250658	-0.260524	-0.130048
H324	H	-0.151206	-0.363785	-0.078653
H325	H	-0.129923	-0.464022	-0.070475
H326	H	-0.208092	-0.461000	-0.113692
H327	H	-0.307545	-0.357739	-0.165087
H328	H	-0.019230	0.253339	-0.554762
H329	H	-0.026581	-0.089888	-0.256777
C330	C	-0.736163	0.156527	-0.495616
C331	C	-0.765881	0.184005	-0.465967
C332	C	-0.736351	0.156698	-0.408820
C333	C	-0.677102	0.101912	-0.381323
C334	C	-0.647380	0.074431	-0.410973
C335	C	-0.676911	0.101738	-0.468119
H336	H	-0.809744	0.224564	-0.486321
H337	H	-0.758353	0.177041	-0.386872
H338	H	-0.655242	0.081697	-0.339020
H339	H	-0.603518	0.033873	-0.390618
H340	H	-0.654908	0.081395	-0.490067
H341	H	-0.040166	-0.139808	-0.430213
H342	H	-0.489870	-0.090268	-0.256484
H343	H	-0.346776	-0.516292	0.026600
C344	C	-0.153675	-0.133723	0.153739
C345	C	-0.176682	-0.066853	0.133319
C346	C	-0.147981	-0.037379	0.104641
C347	C	-0.096272	-0.074775	0.096384
C348	C	-0.073262	-0.141649	0.116804
C349	C	-0.101964	-0.171123	0.145482
H350	H	-0.214963	-0.039167	0.139432
H351	H	-0.165014	0.012126	0.089525
H352	H	-0.075025	-0.052956	0.075155
H353	H	-0.034982	-0.169335	0.110692
H354	H	-0.084930	-0.220628	0.160599
C355	C	-0.153680	-0.299311	0.319357
C356	C	-0.101971	-0.359256	0.333655
C357	C	-0.073273	-0.416623	0.391838
C358	C	-0.096285	-0.414046	0.435724
C359	C	-0.147997	-0.354099	0.421427
C360	C	-0.176695	-0.296732	0.363244
H361	H	-0.084933	-0.361166	0.301167
H362	H	-0.034992	-0.461000	0.402422
H363	H	-0.075042	-0.456513	0.478795
H364	H	-0.165035	-0.352189	0.453915
H365	H	-0.214975	-0.252355	0.352661
H366	H	-0.040160	0.003216	-0.573279
H367	H	-0.026563	0.162985	-0.509727
C368	C	-0.505063	-0.366099	0.027208
C369	C	-0.534896	-0.306757	0.024986
C370	C	-0.592036	-0.279349	0.027216
C371	C	-0.619343	-0.311282	0.031668
C372	C	-0.589509	-0.370628	0.033890
C373	C	-0.532369	-0.398036	0.031660
H374	H	-0.514683	-0.283115	0.021690
H375	H	-0.614121	-0.235417	0.025570
H376	H	-0.661641	-0.290993	0.033318
H377	H	-0.609723	-0.394270	0.037186
H378	H	-0.510284	-0.441968	0.033306
C379	C	-0.505060	-0.762754	0.027223
C380	C	-0.532370	-0.707968	0.031666
C381	C	-0.589508	-0.680489	0.033900
C382	C	-0.619336	-0.707796	0.031691
C383	C	-0.592027	-0.762585	0.027247
C384	C	-0.534888	-0.790064	0.025013
H385	H	-0.510289	-0.687751	0.033302
H386	H	-0.609725	-0.639930	0.037189
H387	H	-0.661634	-0.687454	0.033345
H388	H	-0.614107	-0.782802	0.025612
H389	H	-0.514672	-0.830623	0.021724
H390	H	-0.841210	-0.463642	0.019294
H391	H	-0.444519	-0.142934	-0.158758
H392	H	-0.489864	-0.090259	-0.653209
C393	C	-0.018675	-0.135078	-0.151385
C394	C	-0.061855	-0.114997	-0.126555
C395	C	-0.059648	-0.087386	-0.097027
C396	C	-0.014261	-0.079858	-0.092329
C397	C	0.028922	-0.099939	-0.117160
C398	C	0.026715	-0.127550	-0.146688
H399	H	-0.095456	-0.120570	-0.130032
H400	H	-0.091615	-0.072521	-0.078645
H401	H	-0.012627	-0.059419	-0.070471
H402	H	0.062523	-0.094366	-0.113684
H403	H	0.058682	-0.142415	-0.165070
H404	H	-0.743175	-0.373219	0.026636
H405	H	-0.743490	0.626486	-0.653184
C406	C	-0.040370	0.010859	-0.422750
C407	C	-0.040762	0.069020	-0.451835
C408	C	-0.041563	0.098495	-0.423137
C409	C	-0.041971	0.069809	-0.365355
C410	C	-0.041580	0.011646	-0.336267
C411	C	-0.040779	-0.017829	-0.364965
H412	H	-0.040460	0.090257	-0.494612
H413	H	-0.041853	0.141551	-0.444670
H414	H	-0.042564	0.091629	-0.344111
H415	H	-0.041882	-0.009591	-0.293490
H416	H	-0.040489	-0.060885	-0.343432
H417	H	-0.840890	-0.320560	0.019306
H418	H	-0.019210	0.253653	-0.698214
C419	C	-0.452216	-0.135809	-0.713084
C420	C	-0.471308	-0.070234	-0.759176
C421	C	-0.500958	-0.042824	-0.816316
C422	C	-0.511514	-0.080989	-0.827365
C423	C	-0.492422	-0.146568	-0.781272
C424	C	-0.462772	-0.173978	-0.724131
H425	H	-0.463494	-0.041979	-0.750998
H426	H	-0.515091	0.005722	-0.850437
H427	H	-0.533463	-0.060699	-0.869663
H428	H	-0.500236	-0.174824	-0.789449
H429	H	-0.448639	-0.222524	-0.690010
C430	C	-0.452926	-0.867342	0.018729
C431	C	-0.472069	-0.894195	0.065239
C432	C	-0.501903	-0.921494	0.063015
C433	C	-0.512594	-0.921940	0.014282
C434	C	-0.493450	-0.895086	-0.032232
C435	C	-0.463617	-0.867787	-0.030008
H436	H	-0.464155	-0.893866	0.101317
H437	H	-0.516074	-0.941374	0.097447
H438	H	-0.534678	-0.942149	0.012635
H439	H	-0.501364	-0.895415	-0.068310
H440	H	-0.449446	-0.847908	-0.064440
C441	C	-0.027137	-0.240454	-0.495602
C442	C	0.016040	-0.260542	-0.450677
C443	C	0.013824	-0.288150	-0.393531
C444	C	-0.031568	-0.295671	-0.381311
C445	C	-0.074749	-0.275582	-0.426237
C446	C	-0.072533	-0.247974	-0.483383
H447	H	0.049645	-0.254975	-0.459722
H448	H	0.045789	-0.303021	-0.360273
H449	H	-0.033209	-0.316108	-0.339008
H450	H	-0.108354	-0.281149	-0.417192
H451	H	-0.104498	-0.233103	-0.516641
H452	H	-0.490215	0.626864	-0.653559
C453	C	-0.319319	-0.307297	0.153717
C454	C	-0.363203	-0.309880	0.133290
C455	C	-0.421387	-0.252518	0.104606
C456	C	-0.435688	-0.192572	0.096349
C457	C	-0.391803	-0.189986	0.116777
C458	C	-0.333618	-0.247348	0.145461
H459	H	-0.352617	-0.354258	0.139402
H460	H	-0.453873	-0.254432	0.089485
H461	H	-0.478759	-0.150108	0.075116
H462	H	-0.402388	-0.145608	0.110665
H463	H	-0.301132	-0.245434	0.160582
H464	H	-0.026547	0.163294	-0.653183
C465	C	-0.577550	0.011199	-0.588412
C466	C	-0.548463	-0.017486	-0.617504
C467	C	-0.577160	0.011997	-0.675686
C468	C	-0.634944	0.070164	-0.704776
C469	C	-0.664033	0.098852	-0.675684
C470	C	-0.635336	0.069370	-0.617502
H471	H	-0.505686	-0.060548	-0.595970
H472	H	-0.555626	-0.009241	-0.697222
H473	H	-0.656187	0.091989	-0.747846
H474	H	-0.706811	0.141914	-0.697218
H475	H	-0.656871	0.090607	-0.595966
H476	H	-0.019237	-0.142213	-0.698946
C477	C	-0.411910	-0.154380	-0.422772
C478	C	-0.382821	-0.183053	-0.364990
C479	C	-0.324637	-0.240416	-0.336293
C480	C	-0.295542	-0.269106	-0.365379
C481	C	-0.324632	-0.240433	-0.423165
C482	C	-0.382816	-0.183070	-0.451862
H483	H	-0.404358	-0.161815	-0.343456
H484	H	-0.303103	-0.261642	-0.293516
H485	H	-0.252471	-0.311570	-0.344137
H486	H	-0.303095	-0.261671	-0.444699
H487	H	-0.404350	-0.161845	-0.494639
H488	H	-0.743487	-0.516312	0.026628
H489	H	-0.019230	-0.285631	-0.555806
C490	C	-0.286890	-0.867685	0.018708
C491	C	-0.275840	-0.868177	-0.030027
C492	C	-0.218700	-0.895660	-0.032256
C493	C	-0.172609	-0.922650	0.014249
C494	C	-0.183658	-0.922159	0.062987
C495	C	-0.240798	-0.894676	0.065216
H496	H	-0.309960	-0.848197	-0.064455
H497	H	-0.210521	-0.896024	-0.068336
H498	H	-0.130311	-0.942995	0.012598
H499	H	-0.149538	-0.942140	0.097416
H500	H	-0.248977	-0.894312	0.101296
C501	C	-0.848573	0.528250	-0.547039
C502	C	-0.828927	0.462623	-0.527904
C503	C	-0.858460	0.435021	-0.498075
C504	C	-0.907639	0.473045	-0.487380
C505	C	-0.927287	0.538676	-0.506515
C506	C	-0.897754	0.566278	-0.536345
H507	H	-0.792520	0.434472	-0.535821
H508	H	-0.843915	0.386437	-0.483910
H509	H	-0.929502	0.452612	-0.465299
H510	H	-0.963695	0.566827	-0.498599
H511	H	-0.912299	0.614863	-0.550510
C512	C	-0.339023	-0.763092	0.027195
C513	C	-0.281886	-0.790569	0.024963
C514	C	-0.252058	-0.763260	0.027174
C515	C	-0.279366	-0.708474	0.031617
C516	C	-0.336506	-0.680994	0.033850
C517	C	-0.366334	-0.708303	0.031639
H518	H	-0.261668	-0.831127	0.021673
H519	H	-0.209759	-0.783603	0.025521
H520	H	-0.257286	-0.688258	0.033254
H521	H	-0.356724	-0.640435	0.037140
H522	H	-0.408633	-0.687960	0.033291
H523	H	-0.026556	-0.233307	-0.256467
C524	C	-0.848934	0.694266	-0.713066
C525	C	-0.898161	0.754028	-0.724113
C526	C	-0.927883	0.813382	-0.781253
C527	C	-0.908378	0.812974	-0.827345
C528	C	-0.859148	0.753209	-0.816299
C529	C	-0.829426	0.693855	-0.759159
H530	H	-0.912603	0.754333	-0.689992
H531	H	-0.964327	0.857624	-0.789430
H532	H	-0.930380	0.856911	-0.869643
H533	H	-0.844707	0.752904	-0.850420
H534	H	-0.792983	0.649613	-0.750982
H535	H	-0.019226	-0.285667	-0.158742
H536	H	-0.570092	0.003538	-0.430229
C537	C	-0.411560	0.382286	-0.422747
C538	C	-0.382465	0.324116	-0.364964
C539	C	-0.324279	0.294627	-0.336276
C540	C	-0.295187	0.323310	-0.365371
C541	C	-0.324282	0.381484	-0.423158
C542	C	-0.382469	0.410972	-0.451845
H543	H	-0.404001	0.302880	-0.343422
H544	H	-0.302741	0.251563	-0.293498
H545	H	-0.252114	0.301481	-0.344135
H546	H	-0.302746	0.402719	-0.444699
H547	H	-0.404006	0.454037	-0.494623
C548	C	-0.577207	0.547913	-0.588369
C549	C	-0.635002	0.576624	-0.617458
C550	C	-0.663705	0.634027	-0.675624
C551	C	-0.634613	0.662719	-0.704702
C552	C	-0.576815	0.634007	-0.675613
C553	C	-0.548111	0.576604	-0.617446
H554	H	-0.656540	0.555385	-0.595933
H555	H	-0.706492	0.655281	-0.697158
H556	H	-0.655861	0.705212	-0.747760
H557	H	-0.555276	0.655246	-0.697138
H558	H	-0.505325	0.555350	-0.595913
C559	C	-0.286522	-0.301429	-0.547043
C560	C	-0.240518	-0.300926	-0.527900
C561	C	-0.183376	-0.360273	-0.498065
C562	C	-0.172238	-0.420124	-0.487373
C563	C	-0.218244	-0.420630	-0.506516
C564	C	-0.275386	-0.361283	-0.536351
H565	H	-0.248761	-0.256618	-0.535814
H566	H	-0.149320	-0.359898	-0.483894
H567	H	-0.129939	-0.464056	-0.465287
H568	H	-0.210001	-0.464937	-0.498602
H569	H	-0.309442	-0.361658	-0.550523
H570	H	-0.743179	0.483055	-0.509743
C571	C	-0.452921	0.694945	-0.713740
C572	C	-0.505833	0.752533	-0.725946
C573	C	-0.535667	0.811888	-0.783084
C574	C	-0.512590	0.813655	-0.828017
C575	C	-0.459676	0.756065	-0.815812
C576	C	-0.429841	0.696710	-0.758673
H577	H	-0.522918	0.751226	-0.692683
H578	H	-0.574837	0.854520	-0.792119
H579	H	-0.534675	0.857593	-0.870315
H580	H	-0.442590	0.757372	-0.849075
H581	H	-0.390671	0.654078	-0.749639
C582	C	-0.286881	0.529299	-0.548046
C583	C	-0.242054	0.509367	-0.571274
C584	C	-0.184913	0.481952	-0.541623
C585	C	-0.172599	0.474469	-0.488743
C586	C	-0.217427	0.494401	-0.465511
C587	C	-0.274568	0.521817	-0.495163
H588	H	-0.251168	0.514906	-0.610422
H589	H	-0.151728	0.467197	-0.558820
H590	H	-0.130300	0.454174	-0.466793
H591	H	-0.208313	0.488862	-0.426364
H592	H	-0.307753	0.536572	-0.477965
C593	C	-0.286884	0.132335	-0.151016
C594	C	-0.242056	0.064307	-0.126146
C595	C	-0.184913	0.036820	-0.096427
C596	C	-0.172599	0.077361	-0.091579
C597	C	-0.217428	0.145393	-0.116449
C598	C	-0.274570	0.172880	-0.146168
H599	H	-0.251171	0.034292	-0.129735
H600	H	-0.151728	-0.013542	-0.078016
H601	H	-0.130298	0.057014	-0.069579
H602	H	-0.208313	0.175408	-0.112861
H603	H	-0.307756	0.223242	-0.164579
H604	H	-0.569753	0.389964	-0.430206
H605	H	-0.346709	-0.233340	-0.256801
H606	H	-0.346713	-0.233351	-0.509753
H607	H	-0.346770	0.229846	-0.256454
H608	H	-0.743523	0.163324	-0.653612
C609	C	-0.848916	0.260772	-0.713803
C610	C	-0.853612	0.220084	-0.726014
C611	C	-0.883144	0.247381	-0.783156
C612	C	-0.907981	0.315368	-0.828087
C613	C	-0.903286	0.356060	-0.815878
C614	C	-0.873754	0.328762	-0.758736
H615	H	-0.835225	0.169753	-0.692752
H616	H	-0.886620	0.217258	-0.792193
H617	H	-0.929843	0.335575	-0.870387
H618	H	-0.921672	0.406391	-0.849140
H619	H	-0.870278	0.358886	-0.749698
H620	H	-0.346761	0.483749	-0.510407
