data_functionalizedCrystal
_audit_creation_method	'MofGen! by Chris Wilmer'
_symmetry_space_group_name_H-M	'P1'
_symmetry_Int_Tables_number	1
_symmetry_cell_setting	triclinic
loop_
_symmetry_equiv_pos_as_xyz
  x,y,z
_cell_length_a	12.759401
_cell_length_b	12.759400
_cell_length_c	19.805399
_cell_angle_alpha	90.020600
_cell_angle_beta	90.016038
_cell_angle_gamma	90.014267
loop_
_atom_site_label
_atom_site_type_symbol
_atom_site_fract_x
_atom_site_fract_y
_atom_site_fract_z
Zn1	Zn	1.606227	-0.418291	0.382689
Zn2	Zn	2.106227	0.081709	0.882689
Zn3	Zn	1.606132	-0.593984	0.269514
Zn4	Zn	2.106132	-0.093984	0.769514
Zn5	Zn	1.430538	-0.418320	0.269520
Zn6	Zn	1.930538	0.081680	0.769520
Zn7	Zn	1.430519	-0.593929	0.382668
Zn8	Zn	1.930519	-0.093929	0.882668
O9	O	1.518354	-0.506131	0.326098
O10	O	2.018354	-0.006131	0.826098
O11	O	1.753235	-0.441609	0.367682
O12	O	2.253235	0.058391	0.867682
O13	O	1.582807	-0.570718	0.174798
O14	O	2.082807	-0.070718	0.674798
O15	O	1.453891	-0.271295	0.284543
O16	O	1.953891	0.228705	0.784543
O17	O	1.753165	-0.570690	0.284533
O18	O	2.253165	-0.070690	0.784533
O19	O	1.582969	-0.271274	0.367688
O20	O	2.082969	0.228726	0.867688
O21	O	1.453799	-0.441658	0.174803
O22	O	1.953799	0.058342	0.674803
O23	O	1.283514	-0.441604	0.284523
O24	O	1.783514	0.058396	0.784523
O25	O	1.453858	-0.570594	0.477387
O26	O	1.953858	-0.070594	0.977387
O27	O	1.283500	-0.570622	0.367652
O28	O	1.783500	-0.070622	0.867652
O29	O	1.582950	-0.441554	0.477403
O30	O	2.082950	0.058446	0.977403
O31	O	1.582788	-0.740998	0.284513
O32	O	2.082788	-0.240998	0.784513
O33	O	1.453766	-0.740957	0.367647
O34	O	1.953766	-0.240957	0.867647
C35	C	1.245386	-0.506111	0.326087
C36	C	1.745386	-0.006111	0.826087
C37	C	1.128610	-0.506128	0.326098
C38	C	1.628610	-0.006128	0.826098
C39	C	0.964054	-0.439050	0.369466
C40	C	1.464054	0.060950	0.869466
C41	C	1.073778	-0.439035	0.369460
C42	C	1.573778	0.060965	0.869460
C43	C	1.073711	-0.573246	0.282744
C44	C	1.573711	-0.073246	0.782744
C45	C	0.963989	-0.573265	0.282754
C46	C	1.463989	-0.073265	0.782754
C47	C	0.909229	-0.371946	0.412826
C48	C	1.409229	0.128054	0.912826
C49	C	0.964119	-0.304828	0.456182
C50	C	1.464119	0.195172	0.956182
C51	C	1.073843	-0.304814	0.456176
C52	C	1.573843	0.195186	0.956176
C53	C	1.128677	-0.371917	0.412814
C54	C	1.628677	0.128083	0.912814
C55	C	1.518293	-0.779098	0.326092
C56	C	2.018293	-0.279098	0.826092
C57	C	1.518364	-0.895875	0.326112
C58	C	2.018364	-0.395875	0.826112
C59	C	1.451167	-0.950754	0.369365
C60	C	1.951167	-0.450754	0.869365
C61	C	1.451223	-1.060478	0.369372
C62	C	1.951223	-0.560478	0.869372
C63	C	1.585680	-1.060435	0.282869
C64	C	2.085680	-0.560435	0.782869
C65	C	1.585619	-0.950713	0.282860
C66	C	2.085619	-0.450713	0.782860
C67	C	1.383912	-0.895916	0.412617
C68	C	1.883912	-0.395916	0.912617
C69	C	1.316712	-0.950795	0.455875
C70	C	1.816712	-0.450795	0.955875
C71	C	1.316767	-1.060519	0.455881
C72	C	1.816767	-0.560519	0.955881
C73	C	1.384024	-1.115364	0.412630
C74	C	1.884024	-0.615364	0.912630
C75	C	1.792387	-0.506152	0.326109
C76	C	2.292387	-0.006152	0.826109
C77	C	1.909164	-0.506161	0.326114
C78	C	2.409164	-0.006161	0.826114
C79	C	1.518413	-0.506065	0.502641
C80	C	2.018413	-0.006065	1.002641
C81	C	1.518438	-0.506037	0.577873
C82	C	2.018438	-0.006037	1.077873
C83	C	1.518443	-0.232098	0.326119
C84	C	2.018443	0.267902	0.826119
C85	C	1.518481	-0.115321	0.326127
C86	C	2.018481	0.384679	0.826127
C87	C	1.518356	-0.506121	0.150242
C88	C	2.018356	-0.006121	0.650242
C89	C	1.518534	-0.505853	0.075010
C90	C	2.018534	-0.005853	0.575010
C91	C	1.585657	-0.438842	0.613226
C92	C	2.085657	0.061158	1.113226
C93	C	1.585668	-0.438812	0.683914
C94	C	2.085668	0.061188	1.183914
C95	C	1.518464	-0.505982	0.719248
C96	C	2.018464	-0.005982	1.219248
C97	C	1.451237	-0.573179	0.683890
C98	C	1.951237	-0.073179	1.183890
C99	C	1.451221	-0.573204	0.613203
C100	C	1.951221	-0.073204	1.113203
C101	C	1.451296	-0.573081	0.968964
C102	C	1.951296	-0.073081	1.468964
C103	C	1.451319	-0.573054	1.039656
C104	C	1.951319	-0.073054	1.539656
C105	C	1.585743	-0.438689	1.039675
C106	C	2.085743	0.061311	1.539675
C107	C	1.585728	-0.438714	0.968988
C108	C	2.085728	0.061286	1.468988
C109	C	1.518497	-0.505907	0.933636
C110	C	2.018497	-0.005907	1.433636
C111	C	1.518485	-0.505938	0.856987
C112	C	2.018485	-0.005938	1.356987
C113	C	1.518481	-0.505957	0.795895
C114	C	2.018481	-0.005957	1.295895
H115	H	1.118533	-0.250170	0.491482
H116	H	1.618533	0.249830	0.991482
H117	H	1.384061	-1.204709	0.412637
H118	H	1.884061	-0.704709	0.912637
Cl119	Cl	1.232283	-1.129507	0.510257
Cl120	Cl	1.732283	-0.629507	1.010257
H121	H	1.640439	-1.105098	0.247657
H122	H	2.140439	-0.605098	0.747657
H123	H	1.118365	-0.627878	0.247441
H124	H	1.618365	-0.127878	0.747441
H125	H	0.919467	-0.250201	0.491488
H126	H	1.419467	0.249799	0.991488
H127	H	1.218022	-0.371892	0.412808
H128	H	1.718022	0.128108	0.912808
Cl129	Cl	1.670259	-0.354212	1.084122
Cl130	Cl	2.170259	0.145788	1.584122
Cl131	Cl	1.670085	-0.881717	0.228477
Cl132	Cl	2.170085	-0.381717	0.728477
H133	H	1.640387	-0.384148	0.584462
H134	H	2.140387	0.115852	1.084462
H135	H	1.640408	-0.384098	0.712696
H136	H	2.140408	0.115902	1.212696
H137	H	0.919296	-0.627915	0.247454
H138	H	1.419296	-0.127915	0.747454
H139	H	1.640456	-0.384020	0.940222
H140	H	2.140456	0.115980	1.440222
H141	H	1.396588	-0.627754	1.068423
H142	H	1.896588	-0.127754	1.568423
H143	H	1.396568	-0.627809	0.940188
H144	H	1.896568	-0.127809	1.440188
H145	H	1.396514	-0.627867	0.712665
H146	H	1.896514	-0.127867	1.212665
H147	H	0.819886	-0.371945	0.412833
H148	H	1.319886	0.128055	0.912833
Cl149	Cl	1.366710	-0.657677	0.568759
Cl150	Cl	1.866710	-0.157677	1.068759
H151	H	1.383862	-0.806574	0.412618
H152	H	1.883862	-0.306574	0.912618
Cl153	Cl	1.232158	-0.881849	0.510239
Cl154	Cl	1.732158	-0.381849	1.010239
