data_functionalizedCrystal
_audit_creation_method	'MofGen! by Chris Wilmer'
_symmetry_space_group_name_H-M	'P1'
_symmetry_Int_Tables_number	1
_symmetry_cell_setting	triclinic
loop_
_symmetry_equiv_pos_as_xyz
  x,y,z
_cell_length_a	14.519709
_cell_length_b	13.596369
_cell_length_c	10.654550
_cell_angle_alpha	89.994175
_cell_angle_beta	95.917462
_cell_angle_gamma	89.999709
loop_
_atom_site_label
_atom_site_type_symbol
_atom_site_fract_x
_atom_site_fract_y
_atom_site_fract_z
O1	O	1.224722	0.081663	-0.164625
O2	O	1.558055	0.414996	0.168708
O3	O	1.891389	0.748330	0.502042
O4	O	0.956346	0.081693	-0.184012
O5	O	1.289679	0.415026	0.149322
O6	O	1.623012	0.748360	0.482655
O7	O	1.096704	0.081671	0.008480
O8	O	1.430038	0.415004	0.341814
O9	O	1.763371	0.748338	0.675147
O10	O	1.084363	0.081685	-0.357117
O11	O	1.417697	0.415018	-0.023784
O12	O	1.751030	0.748352	0.309550
O13	O	1.096690	-0.081912	0.008490
O14	O	1.430023	0.251422	0.341824
O15	O	1.763357	0.584755	0.675157
O16	O	0.956331	-0.081890	-0.184001
O17	O	1.289665	0.251443	0.149332
O18	O	1.622998	0.584777	0.482665
O19	O	1.224708	-0.081920	-0.164615
O20	O	1.558041	0.251413	0.168718
O21	O	1.891375	0.584747	0.502052
Zn22	Zn	1.090517	-0.107877	-0.174307
Zn23	Zn	1.423851	0.225456	0.159027
Zn24	Zn	1.757184	0.558789	0.492360
Zn25	Zn	1.090536	0.107650	-0.174320
Zn26	Zn	1.423869	0.440984	0.159013
Zn27	Zn	1.757203	0.774317	0.492347
O28	O	1.084349	-0.081898	-0.357107
O29	O	1.417683	0.251435	-0.023773
O30	O	1.751016	0.584769	0.309560
C31	C	0.921974	-0.000095	-0.183103
C32	C	1.255307	0.333239	0.150230
C33	C	1.588641	0.666572	0.483564
C34	C	0.819579	-0.000083	-0.180396
C35	C	1.152912	0.333250	0.152938
C36	C	1.486245	0.666583	0.486271
N37	N	1.090511	-0.254969	-0.174297
N38	N	1.423845	0.078364	0.159037
N39	N	1.757178	0.411698	0.492370
C40	C	1.090535	-0.656260	-0.174321
C41	C	1.423868	-0.322927	0.159012
C42	C	1.757201	0.010407	0.492345
C43	C	1.090526	-0.544609	-0.174319
C44	C	1.423859	-0.211275	0.159015
C45	C	1.757192	0.122058	0.492348
C46	C	1.090524	-0.455618	-0.174310
C47	C	1.423857	-0.122285	0.159023
C48	C	1.757190	0.211049	0.492357
C49	C	1.090513	-0.343960	-0.174305
C50	C	1.423847	-0.010626	0.159028
C51	C	1.757180	0.322707	0.492361
C52	C	0.444631	-0.000128	-0.170428
C53	C	0.777965	0.333205	0.162905
C54	C	1.111298	0.666538	0.496238
C55	C	0.548954	-0.000116	-0.173196
C56	C	0.882287	0.333218	0.160137
C57	C	1.215620	0.666551	0.493470
C58	C	0.632102	-0.000105	-0.175412
C59	C	0.965435	0.333228	0.157922
C60	C	1.298768	0.666562	0.491255
C61	C	0.736431	-0.000094	-0.178180
C62	C	1.069764	0.333239	0.155153
C63	C	1.403097	0.666573	0.488486
C64	C	1.259079	-0.000130	-0.165524
C65	C	1.592413	0.333203	0.167810
C66	C	1.925746	0.666537	0.501143
C67	C	1.361475	-0.000135	-0.168231
C68	C	1.694808	0.333198	0.165102
C69	C	2.028141	0.666532	0.498436
C70	C	1.095791	-0.000120	0.055275
C71	C	1.429124	0.333214	0.388608
C72	C	1.762458	0.666547	0.721941
C73	C	1.093080	-0.000118	0.194692
C74	C	1.426413	0.333215	0.528025
C75	C	1.759747	0.666549	0.861358
N76	N	1.090549	0.254742	-0.174320
N77	N	1.423883	0.588075	0.159013
N78	N	1.757216	0.921409	0.492347
C79	C	1.085262	-0.000105	-0.403901
C80	C	1.418596	0.333228	-0.070568
C81	C	1.751929	0.666562	0.262766
C82	C	1.087973	-0.000100	-0.543318
C83	C	1.421307	0.333233	-0.209985
C84	C	1.754640	0.666566	0.123348
C85	C	1.175721	-0.000127	0.274972
C86	C	1.509054	0.333207	0.608305
C87	C	1.842388	0.666540	0.941639
C88	C	1.173168	-0.000115	0.405968
C89	C	1.506501	0.333219	0.739302
C90	C	1.839835	0.666552	1.072635
C91	C	1.005326	-0.000089	0.376391
C92	C	1.338660	0.333245	0.709725
C93	C	1.671993	0.666578	1.043058
C94	C	1.007880	-0.000094	0.245397
C95	C	1.341213	0.333240	0.578731
C96	C	1.674547	0.666573	0.912064
C97	C	1.270504	0.057191	0.602745
C98	C	1.603838	0.390524	0.936079
C99	C	1.937171	0.723857	1.269412
C100	C	1.353150	0.057165	0.683031
C101	C	1.686483	0.390498	1.016364
C102	C	2.019816	0.723831	1.349697
C103	C	1.428065	-0.000170	0.653583
C104	C	1.761398	0.333164	0.986916
C105	C	2.094732	0.666497	1.320249
C106	C	1.420339	-0.057502	0.543852
C107	C	1.753672	0.275831	0.877185
C108	C	2.087005	0.609165	1.210519
C109	C	1.337692	-0.057485	0.463573
C110	C	1.671025	0.275848	0.796906
C111	C	2.004358	0.609182	1.130240
C112	C	1.262780	-0.000128	0.493020
C113	C	1.596113	0.333206	0.826353
C114	C	1.929446	0.666539	1.159686
C115	C	0.910550	-0.057407	0.048619
C116	C	1.243883	0.275926	0.381952
C117	C	1.577216	0.609260	0.715286
C118	C	0.827902	-0.057397	-0.031663
C119	C	1.161235	0.275936	0.301671
C120	C	1.494568	0.609270	0.635004
C121	C	0.752979	-0.000069	-0.002218
C122	C	1.086312	0.333265	0.331115
C123	C	1.419645	0.666598	0.664448
C124	C	0.760696	0.057249	0.107515
C125	C	1.094029	0.390582	0.440848
C126	C	1.427363	0.723916	0.774182
C127	C	0.843344	0.057239	0.187797
C128	C	1.176677	0.390572	0.521130
C129	C	1.510010	0.723906	0.854463
C130	C	0.918267	-0.000088	0.158343
C131	C	1.251601	0.333246	0.491677
C132	C	1.584934	0.666579	0.825010
H133	H	1.245096	-0.000144	0.233692
H134	H	1.578430	0.333189	0.567025
H135	H	1.911763	0.666522	0.900359
H136	H	0.971565	-0.104071	0.024616
H137	H	1.304898	0.229263	0.357949
H138	H	1.638231	0.562596	0.691283
C139	C	0.819418	-0.120444	-0.152379
C140	C	1.152751	0.212889	0.180954
C141	C	1.486085	0.546223	0.514288
N142	N	0.813030	-0.167925	-0.243306
N143	N	1.146364	0.165409	0.090027
N144	N	1.479697	0.498742	0.423361
H145	H	1.359435	0.103852	0.772372
H146	H	1.692769	0.437186	1.105705
H147	H	2.026102	0.770519	1.439039
H148	H	1.331400	-0.104167	0.374235
H149	H	1.664733	0.229166	0.707569
H150	H	1.998066	0.562499	1.040902
H151	H	0.685678	-0.000078	-0.067587
H152	H	1.019012	0.333255	0.265747
H153	H	1.352345	0.666588	0.599080
C154	C	0.851833	0.120299	0.308502
C155	C	1.185167	0.453632	0.641835
C156	C	1.518500	0.786965	0.975169
N157	N	0.858229	0.167796	0.399415
N158	N	1.191562	0.501130	0.732748
N159	N	1.524895	0.834463	1.066081
C160	C	1.502751	-0.120583	0.511476
C161	C	1.836084	0.212751	0.844810
C162	C	2.169417	0.546084	1.178143
N163	N	1.564826	-0.168094	0.487088
N164	N	1.898159	0.165239	0.820421
N165	N	2.231493	0.498573	1.153755
H166	H	0.699679	0.103910	0.131507
H167	H	1.033013	0.437243	0.464840
H168	H	1.366346	0.770577	0.798173
H169	H	1.495357	-0.000189	0.718961
H170	H	1.828690	0.333144	1.052294
H171	H	2.162023	0.666478	1.385627
H172	H	1.209511	0.103891	0.626725
H173	H	1.542845	0.437224	0.960058
H174	H	1.876178	0.770558	1.293391
H175	H	0.935959	-0.000071	0.417692
H176	H	1.269292	0.333262	0.751026
H177	H	1.602626	0.666596	1.084359
