data_functionalizedCrystal
_audit_creation_method	'MofGen! by Chris Wilmer'
_symmetry_space_group_name_H-M	'P1'
_symmetry_Int_Tables_number	1
_symmetry_cell_setting	triclinic
loop_
_symmetry_equiv_pos_as_xyz
  x,y,z
_cell_length_a	15.297475
_cell_length_b	21.295417
_cell_length_c	15.296720
_cell_angle_alpha	99.638166
_cell_angle_beta	91.617114
_cell_angle_gamma	80.332118
loop_
_atom_site_label
_atom_site_type_symbol
_atom_site_fract_x
_atom_site_fract_y
_atom_site_fract_z
Zn1	Zn	1.253315	-0.489896	-0.726513
Zn2	Zn	1.753315	0.010104	-0.226513
Zn3	Zn	1.278561	-0.580536	-0.580012
Zn4	Zn	1.778561	-0.080536	-0.080012
Zn5	Zn	1.132199	-0.454534	-0.554760
Zn6	Zn	1.632199	0.045466	-0.054760
Zn7	Zn	1.106789	-0.574348	-0.701142
Zn8	Zn	1.606789	-0.074348	-0.201142
O9	O	1.192716	-0.524829	-0.640607
O10	O	1.692716	-0.024829	-0.140607
O11	O	1.379239	-0.519309	-0.728265
O12	O	1.879239	-0.019309	-0.228265
O13	O	1.280346	-0.551612	-0.454090
O14	O	1.780346	-0.051612	0.045910
O15	O	1.148333	-0.371150	-0.577592
O16	O	1.648333	0.128850	-0.077592
O17	O	1.397787	-0.585901	-0.620632
O18	O	1.897787	-0.085901	-0.120632
O19	O	1.237317	-0.397130	-0.703779
O20	O	1.737317	0.102870	-0.203779
O21	O	1.172814	-0.459039	-0.435537
O22	O	1.672814	0.040961	0.064463
O23	O	1.006253	-0.453039	-0.552991
O24	O	1.506253	0.046961	-0.052991
O25	O	1.105026	-0.575355	-0.827080
O26	O	1.605026	-0.075355	-0.327080
O27	O	0.987585	-0.541066	-0.660538
O28	O	1.487585	-0.041066	-0.160538
O29	O	1.212678	-0.513309	-0.845720
O30	O	1.712678	-0.013309	-0.345720
O31	O	1.255707	-0.667790	-0.596031
O32	O	1.755707	-0.167790	-0.096031
O33	O	1.129506	-0.663244	-0.685025
O34	O	1.629506	-0.163244	-0.185025
C35	C	0.965136	-0.492545	-0.601272
C36	C	1.465136	0.007455	-0.101272
C37	C	0.867773	-0.478750	-0.584465
C38	C	1.367773	0.021250	-0.084465
C39	C	1.192609	-0.688359	-0.640538
C40	C	1.692609	-0.188359	-0.140538
C41	C	1.192639	-0.758333	-0.640552
C42	C	1.692639	-0.258333	-0.140552
C43	C	0.554602	-0.623422	-0.760730
C44	C	1.054602	-0.123422	-0.260730
C45	C	0.646080	-0.636386	-0.776518
C46	C	1.146080	-0.136386	-0.276518
C47	C	0.701507	-0.596978	-0.728507
C48	C	1.201507	-0.096978	-0.228507
C49	C	0.665449	-0.544604	-0.664703
C50	C	1.165449	-0.044604	-0.164703
C51	C	0.573963	-0.531641	-0.648908
C52	C	1.073963	-0.031641	-0.148908
C53	C	0.720868	-0.505198	-0.616685
C54	C	1.220868	-0.005198	-0.116685
C55	C	0.684809	-0.452823	-0.552882
C56	C	1.184809	0.047177	-0.052882
C57	C	0.593332	-0.439862	-0.537090
C58	C	1.093332	0.060138	-0.037090
C59	C	0.537904	-0.479270	-0.585102
C60	C	1.037904	0.020730	-0.085102
C61	C	0.812354	-0.518160	-0.632480
C62	C	1.312354	-0.018160	-0.132480
C63	C	0.831715	-0.426380	-0.520659
C64	C	1.331715	0.073620	-0.020659
C65	C	0.740237	-0.413415	-0.504870
C66	C	1.240237	0.086585	-0.004870
C67	C	1.258392	-0.793558	-0.594279
C68	C	1.758392	-0.293558	-0.094279
C69	C	1.258429	-0.859308	-0.594306
C70	C	1.758429	-0.359308	-0.094306
C71	C	1.192700	-0.889827	-0.640594
C72	C	1.692700	-0.389827	-0.140594
C73	C	1.126942	-0.854594	-0.686877
C74	C	1.626942	-0.354594	-0.186877
C75	C	1.126911	-0.788847	-0.686856
C76	C	1.626911	-0.288847	-0.186856
N77	N	1.114918	-0.982893	-0.634027
N78	N	1.614918	-0.482893	-0.134027
N79	N	1.114951	-1.045351	-0.634042
N80	N	1.614951	-0.545351	-0.134042
C81	C	1.192790	-1.087921	-0.640661
C82	C	1.692790	-0.587921	-0.140661
N83	N	1.270600	-1.065673	-0.647247
N84	N	1.770600	-0.565673	-0.147247
N85	N	1.270567	-1.003210	-0.647228
N86	N	1.770567	-0.503210	-0.147228
C87	C	1.192726	-0.961119	-0.640622
C88	C	1.692726	-0.461119	-0.140622
C89	C	1.258588	-1.194441	-0.594415
C90	C	1.758588	-0.694441	-0.094415
C91	C	1.258626	-1.260193	-0.594448
C92	C	1.758626	-0.760193	-0.094448
C93	C	1.127132	-1.255477	-0.687013
C94	C	1.627132	-0.755477	-0.187013
C95	C	1.127101	-1.189727	-0.686986
C96	C	1.627101	-0.689727	-0.186986
C97	C	1.192829	-1.159213	-0.640682
C98	C	1.692829	-0.659213	-0.140682
C99	C	1.421184	-0.557239	-0.680096
C100	C	1.921184	-0.057239	-0.180096
C101	C	1.518543	-0.571051	-0.696923
C102	C	2.018543	-0.071051	-0.196923
C103	C	1.153201	-0.547586	-0.869070
C104	C	1.653201	-0.047586	-0.369070
C105	C	1.136362	-0.557284	-0.966428
C106	C	1.636362	-0.057284	-0.466428
C107	C	1.192843	-0.360665	-0.640699
C108	C	1.692843	0.139335	-0.140699
C109	C	1.192898	-0.290708	-0.640738
C110	C	1.692898	0.209292	-0.140738
C111	C	1.313098	-0.455410	-1.279682
C112	C	1.813098	0.044590	-0.779682
C113	C	1.328925	-0.446300	-1.188211
C114	C	1.828925	0.053700	-0.688211
C115	C	1.280785	-0.474045	-1.132761
C116	C	1.780785	0.025955	-0.632761
C117	C	1.216817	-0.510902	-1.168791
C118	C	1.716817	-0.010902	-0.668791
C119	C	1.200994	-0.520017	-1.260272
C120	C	1.700994	-0.020017	-0.760272
C121	C	1.168681	-0.538652	-1.113350
C122	C	1.668681	-0.038652	-0.613350
C123	C	1.104713	-0.575509	-1.149380
C124	C	1.604713	-0.075509	-0.649380
C125	C	1.088892	-0.584622	-1.240852
C126	C	1.588892	-0.084622	-0.740852
C127	C	1.137031	-0.556877	-1.296302
C128	C	1.637031	-0.056877	-0.796302
C129	C	1.184504	-0.529537	-1.021869
C130	C	1.684504	-0.029537	-0.521869
C131	C	1.072400	-0.594144	-1.002458
C132	C	1.572400	-0.094144	-0.502458
C133	C	1.056573	-0.603254	-1.093930
C134	C	1.556573	-0.103254	-0.593930
C135	C	1.232127	-0.502121	-0.413041
C136	C	1.732127	-0.002121	0.086959
C137	C	1.249136	-0.492270	-0.315713
C138	C	1.749136	0.007730	0.184287
H139	H	0.775992	-0.607537	-0.741366
H140	H	1.275992	-0.107537	-0.241366
H141	H	1.293675	-0.466626	-1.058281
H142	H	1.793675	0.033374	-0.558281
C143	C	1.307542	-0.382735	-1.384718
C144	C	1.807542	0.117265	-0.884718
C145	C	1.366010	-0.424919	-1.340633
C146	C	1.866010	0.075081	-0.840633
H147	H	1.340214	-0.363908	-1.422344
H148	H	1.840214	0.136092	-0.922344
H149	H	1.267192	-0.405993	-1.419261
H150	H	1.767192	0.094007	-0.919261
H151	H	1.275578	-0.349688	-1.342445
H152	H	1.775578	0.150312	-0.842445
H153	H	1.397970	-0.457969	-1.382907
H154	H	1.897970	0.042031	-0.882907
H155	H	1.406376	-0.401659	-1.306089
H156	H	1.906376	0.098341	-0.806089
H157	H	1.073367	-0.760165	-0.724538
H158	H	1.573367	-0.260165	-0.224538
H159	H	1.312110	-1.169596	-0.556715
H160	H	1.812110	-0.669596	-0.056715
H161	H	1.312175	-1.288874	-0.556770
H162	H	1.812175	-0.788874	-0.056770
H163	H	0.675432	-0.679031	-0.828465
H164	H	1.175432	-0.179031	-0.328465
H165	H	1.311976	-0.887995	-0.556626
H166	H	1.811976	-0.387995	-0.056626
H167	H	1.236587	-0.499527	-0.992543
H168	H	1.736587	0.000473	-0.492543
C169	C	1.464530	-0.443996	-1.105681
C170	C	1.964530	0.056004	-0.605681
C171	C	1.399207	-0.405771	-1.148590
C172	C	1.899207	0.094229	-0.648590
H173	H	1.507916	-0.418967	-1.081219
H174	H	2.007916	0.081033	-0.581219
H175	H	1.438122	-0.459221	-1.059584
H176	H	1.938122	0.040779	-0.559584
H177	H	1.491864	-0.479718	-1.147145
H178	H	1.991864	0.020282	-0.647145
H179	H	1.371869	-0.370051	-1.107123
H180	H	1.871869	0.129949	-0.607123
H181	H	1.425619	-0.390536	-1.194692
H182	H	1.925619	0.109464	-0.694692
C183	C	0.402992	-0.403101	-0.584979
C184	C	0.902992	0.096899	-0.084979
C185	C	0.437345	-0.465031	-0.567753
C186	C	0.937345	0.034969	-0.067753
H187	H	0.340909	-0.394318	-0.574276
H188	H	0.840909	0.105682	-0.074276
H189	H	0.430822	-0.372139	-0.547245
H190	H	0.930822	0.127861	-0.047245
H191	H	0.413934	-0.400852	-0.645107
H192	H	0.913934	0.099148	-0.145107
H193	H	0.426409	-0.467279	-0.507623
H194	H	0.926409	0.032721	-0.007623
H195	H	0.409506	-0.496002	-0.605488
H196	H	0.909506	0.003998	-0.105488
H197	H	1.073426	-0.879448	-0.724567
H198	H	1.573426	-0.379448	-0.224567
H199	H	0.563978	-0.397221	-0.485129
H200	H	1.063978	0.102779	0.014871
H201	H	0.710865	-0.370771	-0.452921
H202	H	1.210865	0.129229	0.047079
C203	C	0.982552	-0.645912	-1.225541
C204	C	1.482552	-0.145912	-0.725541
C205	C	0.986268	-0.643772	-1.133542
C206	C	1.486268	-0.143772	-0.633542
H207	H	0.939152	-0.670930	-1.249995
H208	H	1.439152	-0.170930	-0.749995
H209	H	0.967172	-0.603302	-1.238334
H210	H	1.467172	-0.103302	-0.738334
H211	H	1.038810	-0.664966	-1.250689
H212	H	1.538810	-0.164966	-0.750689
H213	H	0.930011	-0.624714	-1.108394
H214	H	1.430011	-0.124714	-0.608394
H215	H	1.001642	-0.686390	-1.120742
H216	H	1.501642	-0.186390	-0.620742
C217	C	0.405768	-0.644295	-0.786157
C218	C	0.905768	-0.144295	-0.286157
C219	C	0.493676	-0.666735	-0.813497
C220	C	0.993676	-0.166735	-0.313497
H221	H	0.368155	-0.671036	-0.818741
H222	H	0.868155	-0.171036	-0.318741
H223	H	0.400951	-0.645452	-0.724697
H224	H	0.900951	-0.145452	-0.224697
H225	H	0.388575	-0.601182	-0.796507
H226	H	0.888575	-0.101182	-0.296507
H227	H	0.510871	-0.709847	-0.803142
H228	H	1.010871	-0.209847	-0.303142
H229	H	0.498497	-0.665585	-0.874972
H230	H	0.998497	-0.165585	-0.374972
H231	H	0.876845	-0.394291	-0.481562
H232	H	1.376845	0.105709	0.018438
C233	C	1.068794	-1.354165	-0.728147
C234	C	1.568794	-0.854165	-0.228147
C235	C	1.054882	-1.289016	-0.737897
C236	C	1.554882	-0.789016	-0.237897
H237	H	1.024187	-1.374871	-0.759561
H238	H	1.524187	-0.874871	-0.259561
H239	H	1.125410	-1.374517	-0.751187
H240	H	1.625410	-0.874517	-0.251187
H241	H	1.066205	-1.357288	-0.667079
H242	H	1.566205	-0.857288	-0.167079
H243	H	1.057478	-1.285893	-0.798966
H244	H	1.557478	-0.785893	-0.298966
H245	H	0.998252	-1.268658	-0.714861
H246	H	1.498252	-0.768658	-0.214861
C247	C	1.388374	-0.804831	-0.502793
C248	C	1.888374	-0.304831	-0.002793
C249	C	1.330649	-0.760020	-0.543397
C250	C	1.830649	-0.260020	-0.043397
H251	H	1.432987	-0.784125	-0.471388
H252	H	1.932987	-0.284125	0.028612
H253	H	1.356050	-0.821757	-0.462671
H254	H	1.856050	-0.321757	0.037329
H255	H	1.415246	-0.838996	-0.546786
H256	H	1.915246	-0.338996	-0.046786
H257	H	1.303772	-0.725858	-0.499403
H258	H	1.803772	-0.225858	0.000597
H259	H	1.362978	-0.743085	-0.583522
H260	H	1.862978	-0.243085	-0.083522
C261	C	0.997124	-1.191669	-0.778469
C262	C	1.497124	-0.691669	-0.278469
C263	C	1.054813	-1.151000	-0.737837
C264	C	1.554813	-0.651000	-0.237837
H265	H	0.952492	-1.167758	-0.809860
H266	H	1.452492	-0.667758	-0.309860
H267	H	1.029470	-1.226022	-0.818607
H268	H	1.529470	-0.726022	-0.318607
H269	H	0.970274	-1.208798	-0.734492
H270	H	1.470274	-0.708798	-0.234492
H271	H	1.081668	-1.133874	-0.781816
H272	H	1.581668	-0.633874	-0.281816
H273	H	1.022462	-1.116635	-0.697696
H274	H	1.522462	-0.616635	-0.197696
C275	C	1.136642	-0.632968	-1.431170
C276	C	1.636642	-0.132968	-0.931170
C277	C	1.119636	-0.566892	-1.396853
C278	C	1.619636	-0.066892	-0.896853
H279	H	1.125899	-0.639148	-1.493246
H280	H	1.625899	-0.139148	-0.993246
H281	H	1.196733	-0.649802	-1.420244
H282	H	1.696733	-0.149802	-0.920244
H283	H	1.098814	-0.654764	-1.403303
H284	H	1.598814	-0.154764	-0.903303
H285	H	1.157469	-0.545096	-1.424716
H286	H	1.657469	-0.045096	-0.924716
H287	H	1.059536	-0.550050	-1.407788
H288	H	1.559536	-0.050050	-0.907788
H289	H	1.036812	-0.614639	-1.270186
H290	H	1.536812	-0.114639	-0.770186
C291	C	1.046868	-0.608855	-0.853615
C292	C	1.546868	-0.108855	-0.353615
C293	C	1.019476	-0.624642	-0.941515
C294	C	1.519476	-0.124642	-0.441515
H295	H	1.014194	-0.627680	-0.815989
H296	H	1.514194	-0.127680	-0.315989
H297	H	1.108299	-0.624923	-0.848794
H298	H	1.608299	-0.124923	-0.348794
H299	H	1.036672	-0.563253	-0.836445
H300	H	1.536672	-0.063253	-0.336445
H301	H	1.029678	-0.670244	-0.958687
H302	H	1.529678	-0.170244	-0.458687
H303	H	0.958031	-0.608577	-0.946340
H304	H	1.458031	-0.108577	-0.446340
H305	H	0.841704	-0.560804	-0.684430
H306	H	1.341704	-0.060804	-0.184430
