data_functionalizedCrystal
_audit_creation_method	'MofGen! by Chris Wilmer'
_symmetry_space_group_name_H-M	'P1'
_symmetry_Int_Tables_number	1
_symmetry_cell_setting	triclinic
loop_
_symmetry_equiv_pos_as_xyz
  x,y,z
_cell_length_a	14.560438
_cell_length_b	14.560438
_cell_length_c	14.560438
_cell_angle_alpha	60.001579
_cell_angle_beta	90.002394
_cell_angle_gamma	60.001166
loop_
_atom_site_label
_atom_site_type_symbol
_atom_site_fract_x
_atom_site_fract_y
_atom_site_fract_z
Zr1	Zr	0.884753	1.005289	-0.120492
O2	O	0.738105	1.196887	-0.267138
O3	O	0.929708	0.813690	-0.075539
O4	O	0.929705	1.005290	-0.267138
O5	O	0.738110	1.005288	0.075600
O6	O	1.080844	1.005292	-0.267136
O7	O	0.738107	1.005287	-0.075539
O8	O	1.080848	0.662555	0.075599
O9	O	0.738105	1.348025	-0.267135
O10	O	1.061674	0.892500	-0.056363
O11	O	0.948883	0.892499	0.056429
O12	O	0.948880	1.118083	-0.169154
O13	O	0.836089	1.118081	-0.056362
Zr14	Zr	1.125804	1.005294	0.120562
Zr15	Zr	1.125801	1.005294	-0.120488
Zr16	Zr	0.884756	1.005290	0.120558
Zr17	Zr	0.884753	1.246337	-0.120487
Zr18	Zr	1.125804	0.764247	0.120557
O19	O	1.080849	1.196894	0.075609
O20	O	1.080844	1.196893	-0.267132
O21	O	0.738110	1.196888	0.075604
O22	O	1.272453	0.813697	0.267208
O23	O	1.272447	0.813696	-0.075534
O24	O	0.929713	0.813691	0.267202
O25	O	1.272448	1.005296	-0.075530
O26	O	1.080852	1.005294	0.267208
O27	O	0.929714	1.005292	0.267206
O28	O	1.272450	1.005297	0.075609
O29	O	0.929706	1.348028	-0.267132
O30	O	1.080851	0.662555	0.267202
O31	O	1.272452	0.662559	0.267205
O32	O	1.272449	0.662558	0.075603
O33	O	0.738108	1.348026	-0.075532
O34	O	0.929709	1.348029	-0.075529
O35	O	1.061677	0.892501	0.169224
O36	O	1.174468	0.892502	0.056432
O37	O	1.061674	1.118085	-0.056359
O38	O	0.948883	1.118084	0.056433
C39	C	1.005278	0.703778	0.000029
C40	C	1.005278	0.601447	0.000027
C41	C	1.064151	0.553372	-0.058849
C42	C	1.064156	0.457213	-0.058838
C43	C	0.946404	0.457216	0.058926
C44	C	0.946407	0.553367	0.058922
C45	C	0.703764	1.005287	0.000030
C46	C	0.601433	1.005285	0.000029
C47	C	0.612232	0.887535	0.058904
C48	C	0.516077	0.887542	0.058914
C49	C	0.398327	1.123058	-0.058836
C50	C	0.494481	1.123050	-0.058839
C51	C	0.680213	0.751562	0.126882
C52	C	0.584058	0.751568	0.126892
C53	C	1.306793	1.005297	0.000040
C54	C	1.409124	1.005299	0.000042
C55	C	1.005274	1.005291	-0.301481
C56	C	1.005272	1.005291	-0.403813
C57	C	1.005279	1.306806	0.000041
C58	C	1.005279	1.409137	0.000043
C59	C	0.922016	1.005292	-0.548053
C60	C	0.922012	1.005286	-0.451898
C61	C	1.088549	1.005288	-0.451881
C62	C	1.088557	1.005285	-0.548030
C63	C	1.005283	1.005293	0.301551
C64	C	1.005285	1.005293	0.403883
C65	C	1.306792	0.703783	0.000034
C66	C	1.409123	0.601454	0.000034
C67	C	1.005283	0.703779	0.301546
C68	C	1.005284	0.601448	0.403876
C69	C	1.306797	0.703784	0.301551
C70	C	1.409130	0.601455	0.403882
C71	C	0.703760	1.306800	-0.301481
C72	C	0.601428	1.409129	-0.403812
C73	C	0.703765	1.306801	0.000036
C74	C	0.601434	1.409130	0.000036
C75	C	1.005275	1.306805	-0.301476
C76	C	1.005273	1.409135	-0.403806
C77	C	1.398324	0.553376	-0.058842
C78	C	1.494479	0.457234	-0.058846
C79	C	1.612229	0.457254	0.058910
C80	C	1.516075	0.553400	0.058907
C81	C	1.064161	0.553373	0.510829
C82	C	1.064150	0.457231	0.606975
C83	C	0.946382	0.457246	0.489201
C84	C	0.946388	0.553392	0.393058
C85	C	1.516081	0.553380	0.393085
C86	C	1.612230	0.457239	0.489240
C87	C	1.494461	0.457255	0.606987
C88	C	1.398315	0.553400	0.510833
H89	H	1.112097	0.418071	-0.106779
H90	H	0.485680	1.218933	-0.106777
H91	H	1.156347	1.005284	-0.412721
H92	H	1.699313	0.418100	0.480441
H93	H	1.156370	1.005282	-0.587164
O94	O	0.572506	0.695674	0.242204
H95	H	0.495217	0.697996	0.237454
O96	O	1.127665	0.405376	0.722328
H97	H	1.068227	0.423844	0.768948
H98	H	1.311243	0.592510	-0.106792
O99	O	0.882896	0.405379	0.477533
H100	H	0.892802	0.330426	0.562355
O101	O	1.482796	0.405406	0.722338
H102	H	1.567620	0.330460	0.787388
O103	O	0.883048	0.605091	0.277688
H104	H	0.842166	0.555450	0.286316
H105	H	1.112114	0.592502	0.519643
H106	H	1.311224	0.592547	0.519633
O107	O	0.882900	0.605236	0.122421
H108	H	0.841948	0.555666	0.163359
H109	H	1.524893	0.592506	0.306004
O110	O	0.832205	1.005294	-0.599912
H111	H	0.846189	1.005306	-0.674853
H112	H	0.732372	0.699440	0.216900
H113	H	1.112089	0.592514	-0.106802
H114	H	0.898472	0.418059	0.106874
O115	O	0.282972	1.250068	-0.122341
H116	H	0.236349	1.255703	-0.062900
O117	O	0.747660	0.695679	0.067461
H118	H	0.705661	0.666051	0.035965
H119	H	0.854208	1.005283	-0.412767
O120	O	0.584026	0.682447	0.076775
H121	H	0.660278	0.580824	0.127621
O122	O	1.482830	0.405384	-0.122354
H123	H	1.523836	0.299317	-0.062917
H124	H	1.699319	0.418115	0.106844
O125	O	1.527724	0.605251	0.122424
H126	H	1.486738	0.711313	0.062981
