data_functionalizedCrystal
_audit_creation_method	'MofGen! by Chris Wilmer'
_symmetry_space_group_name_H-M	'P1'
_symmetry_Int_Tables_number	1
_symmetry_cell_setting	triclinic
loop_
_symmetry_equiv_pos_as_xyz
  x,y,z
_cell_length_a	15.995350
_cell_length_b	16.992695
_cell_length_c	15.455301
_cell_angle_alpha	87.173129
_cell_angle_beta	87.003404
_cell_angle_gamma	87.080299
loop_
_atom_site_label
_atom_site_type_symbol
_atom_site_fract_x
_atom_site_fract_y
_atom_site_fract_z
O1	O	-1.121222	-0.104129	0.072058
O2	O	-0.787888	0.229205	0.405392
O3	O	-0.454555	0.562538	0.738725
O4	O	-0.878282	-0.116610	0.072076
O5	O	-0.544949	0.216723	0.405410
O6	O	-0.211616	0.550056	0.738743
O7	O	-0.998778	0.003773	0.072060
O8	O	-0.665444	0.337107	0.405394
O9	O	-0.332111	0.670440	0.738727
O10	O	-1.000726	-0.224512	0.072074
O11	O	-0.667393	0.108821	0.405407
O12	O	-0.334059	0.442154	0.738741
O13	O	-0.991813	0.009903	-0.072202
O14	O	-0.658480	0.343237	0.261131
O15	O	-0.325146	0.676570	0.594465
O16	O	-0.871318	-0.110480	-0.072186
O17	O	-0.537984	0.222853	0.261147
O18	O	-0.204651	0.556186	0.594480
O19	O	-1.114257	-0.097999	-0.072204
O20	O	-0.780924	0.235335	0.261129
O21	O	-0.447590	0.568668	0.594462
Cu22	Cu	-0.992151	-0.103680	-0.085368
Cu23	Cu	-0.658818	0.229654	0.247966
Cu24	Cu	-0.325485	0.562987	0.581299
Cu25	Cu	-1.000388	-0.110929	0.085240
Cu26	Cu	-0.667055	0.222404	0.418573
Cu27	Cu	-0.333721	0.555737	0.751906
O28	O	-0.993761	-0.218382	-0.072188
O29	O	-0.660428	0.114951	0.261145
O30	O	-0.327095	0.448284	0.594478
C31	C	-0.843571	-0.113029	-0.000053
C32	C	-0.510237	0.220304	0.333281
C33	C	-0.176904	0.553637	0.666614
C34	C	-0.750517	-0.111483	-0.000046
C35	C	-0.417184	0.221851	0.333287
C36	C	-0.083851	0.555184	0.666621
C37	C	-0.992790	0.036051	-0.000071
C38	C	-0.659456	0.369384	0.333263
C39	C	-0.326123	0.702718	0.666596
C40	C	-0.985313	0.123095	-0.000070
C41	C	-0.651980	0.456428	0.333264
C42	C	-0.318647	0.789762	0.666597
C43	C	-1.148968	-0.101580	-0.000073
C44	C	-0.815635	0.231754	0.333260
C45	C	-0.482302	0.565087	0.666593
C46	C	-1.242022	-0.103127	-0.000074
C47	C	-0.908689	0.230207	0.333259
C48	C	-0.575356	0.563540	0.666592
C49	C	-0.412397	-0.105927	-0.000065
C50	C	-0.079064	0.227407	0.333269
C51	C	0.254270	0.560740	0.666602
C52	C	-0.454079	-0.020178	-0.000391
C53	C	-0.120745	0.313155	0.332942
C54	C	0.212588	0.646488	0.666275
C55	C	-0.550888	-0.021740	-0.000060
C56	C	-0.217555	0.311594	0.333273
C57	C	0.115778	0.644927	0.666606
C58	C	-0.580142	-0.108683	-0.000056
C59	C	-0.246809	0.224651	0.333277
C60	C	0.086524	0.557984	0.666611
C61	C	-0.545862	-0.154470	0.082324
C62	C	-0.212529	0.178863	0.415657
C63	C	0.120805	0.512196	0.748991
C64	C	-0.449085	-0.152319	0.082387
C65	C	-0.115752	0.181014	0.415720
C66	C	0.217582	0.514348	0.749054
C67	C	-0.440945	-0.147120	-0.081666
C68	C	-0.107611	0.186214	0.251667
C69	C	0.225722	0.519547	0.585000
C70	C	-0.537836	-0.147053	-0.082749
C71	C	-0.204503	0.186280	0.250584
C72	C	0.128830	0.519613	0.583918
C73	C	-0.674945	-0.110245	-0.000048
C74	C	-0.341611	0.223089	0.333285
C75	C	-0.008278	0.556422	0.666619
C76	C	-0.317595	-0.104367	-0.000066
C77	C	0.015739	0.228966	0.333267
C78	C	0.349072	0.562299	0.666600
C79	C	-0.999750	-0.250660	-0.000056
C80	C	-0.666416	0.082673	0.333278
C81	C	-0.333083	0.416007	0.666611
C82	C	-1.007226	-0.337704	-0.000051
C83	C	-0.673893	-0.004371	0.333283
C84	C	-0.340559	0.328962	0.666616
N85	N	-0.986364	-0.098580	-0.205363
N86	N	-0.653031	0.234753	0.127970
N87	N	-0.319698	0.568086	0.461303
C88	C	-1.057448	0.173336	-0.000076
C89	C	-0.724115	0.506669	0.333257
C90	C	-0.390782	0.840003	0.666591
C91	C	-1.050419	0.255122	-0.000067
C92	C	-0.717086	0.588455	0.333266
C93	C	-0.383753	0.921789	0.666599
C94	C	-0.971254	0.286666	-0.000058
C95	C	-0.637921	0.620000	0.333275
C96	C	-0.304587	0.953333	0.666608
C97	C	-0.899114	0.236419	-0.000050
C98	C	-0.565780	0.569752	0.333284
C99	C	-0.232447	0.903086	0.666617
C100	C	-0.906144	0.154634	-0.000052
C101	C	-0.572811	0.487967	0.333281
C102	C	-0.239477	0.821301	0.666614
C103	C	-0.942116	0.530263	-0.000044
C104	C	-0.608783	0.863597	0.333289
C105	C	-0.275449	1.196930	0.666622
C106	C	-0.935091	0.612055	-0.000044
C107	C	-0.601758	0.945388	0.333289
C108	C	-0.268424	1.278722	0.666622
C109	C	-1.086397	0.630752	-0.000060
C110	C	-0.753064	0.964086	0.333273
C111	C	-0.419731	1.297419	0.666606
C112	C	-1.093421	0.548965	-0.000068
C113	C	-0.760087	0.882299	0.333265
C114	C	-0.426754	1.215632	0.666598
C115	C	-1.021281	0.498725	-0.000055
C116	C	-0.687947	0.832058	0.333279
C117	C	-0.354614	1.165392	0.666612
N118	N	-0.964067	0.370265	-0.000052
N119	N	-0.630734	0.703598	0.333281
N120	N	-0.297400	1.036932	0.666614
N121	N	-1.028469	0.415128	-0.000055
N122	N	-0.695135	0.748461	0.333279
N123	N	-0.361802	1.081794	0.666612
C124	C	-1.038139	-0.144238	-0.250755
C125	C	-0.704806	0.189096	0.082579
C126	C	-0.371472	0.522429	0.415912
C127	C	-1.033773	-0.140376	-0.341563
C128	C	-0.700440	0.192957	-0.008230
C129	C	-0.367107	0.526290	0.325104
C130	C	-0.977628	-0.090861	-0.386978
C131	C	-0.644295	0.242472	-0.053645
C132	C	-0.310961	0.575805	0.279689
C133	C	-0.925851	-0.045199	-0.341580
C134	C	-0.592518	0.288134	-0.008247
C135	C	-0.259184	0.621468	0.325086
C136	C	-0.930221	-0.049057	-0.250774
C137	C	-0.596888	0.284277	0.082560
C138	C	-0.263555	0.617610	0.415893
C139	C	-0.958775	-0.074218	-0.658560
C140	C	-0.625441	0.259116	-0.325227
C141	C	-0.292108	0.592449	0.008106
C142	C	-0.954406	-0.070365	-0.749373
C143	C	-0.621073	0.262968	-0.416040
C144	C	-0.287740	0.596302	-0.082707
C145	C	-1.062330	-0.165542	-0.749350
C146	C	-0.728997	0.167792	-0.416016
C147	C	-0.395664	0.501125	-0.082683
C148	C	-1.066692	-0.169399	-0.658541
C149	C	-0.733359	0.163935	-0.325208
C150	C	-0.400026	0.497268	0.008125
C151	C	-1.014918	-0.123733	-0.613152
C152	C	-0.681585	0.209600	-0.279818
C153	C	-0.348252	0.542934	0.053515
N154	N	-0.973162	-0.086915	-0.479798
N155	N	-0.639829	0.246418	-0.146465
N156	N	-0.306496	0.579752	0.186868
N157	N	-1.019389	-0.127676	-0.520333
N158	N	-0.686055	0.205658	-0.186999
N159	N	-0.352722	0.538991	0.146334
N160	N	-1.006181	-0.116022	0.205235
N161	N	-0.672848	0.217311	0.538569
N162	N	-0.339514	0.550644	0.871902
H163	H	-0.574242	0.014010	-0.059114
H164	H	-0.240909	0.347343	0.274219
H165	H	0.092425	0.680676	0.607553
H166	H	-0.564409	-0.218475	0.085390
H167	H	-0.231076	0.114858	0.418724
H168	H	0.102258	0.448191	0.752057
Cl169	Cl	-1.098864	-0.197779	-0.398623
Cl170	Cl	-0.765530	0.135555	-0.065289
Cl171	Cl	-0.432197	0.468888	0.268044
H172	H	-0.431686	-0.124098	0.143965
H173	H	-0.098353	0.209235	0.477298
H174	H	0.234980	0.542569	0.810632
Cl175	Cl	-1.156975	0.133689	-0.000096
Cl176	Cl	-0.823642	0.467023	0.333237
Cl177	Cl	-0.490309	0.800356	0.666571
Cl178	Cl	-1.137244	-0.231682	-0.601455
Cl179	Cl	-0.803911	0.101651	-0.268122
Cl180	Cl	-0.470578	0.434985	0.065212
Cl181	Cl	-0.799591	0.276074	-0.000028
Cl182	Cl	-0.466258	0.609408	0.333305
Cl183	Cl	-0.132925	0.942741	0.666639
H184	H	-1.104482	-0.202719	-0.786316
H185	H	-0.771149	0.130614	-0.452983
H186	H	-0.437815	0.463947	-0.119649
H187	H	-0.413386	-0.210307	-0.082220
H188	H	-0.080053	0.123026	0.251113
H189	H	0.253281	0.456359	0.584446
H190	H	-0.870621	0.637735	-0.000051
H191	H	-0.537288	0.971068	0.333282
H192	H	-0.203955	1.304402	0.666615
Cl193	Cl	-0.815456	0.091473	-0.000041
Cl194	Cl	-0.482123	0.424807	0.333292
Cl195	Cl	-0.148789	0.758140	0.666626
Cl196	Cl	-1.177082	0.693915	-0.000075
Cl197	Cl	-0.843748	1.027248	0.333259
Cl198	Cl	-0.510415	1.360582	0.666592
Cl199	Cl	-0.406074	-0.249744	0.088166
Cl200	Cl	-0.072740	0.083590	0.421499
Cl201	Cl	0.260593	0.416923	0.754832
H202	H	-1.109159	0.296025	-0.000074
H203	H	-0.775826	0.629359	0.333259
H204	H	-0.442493	0.962692	0.666592
H205	H	-0.430411	0.016602	-0.059470
H206	H	-0.097078	0.349936	0.273864
H207	H	0.236256	0.683269	0.607197
Cl208	Cl	-0.424678	0.028641	0.090306
Cl209	Cl	-0.091345	0.361975	0.423639
Cl210	Cl	0.241988	0.695308	0.756972
Cl211	Cl	-0.883819	-0.008112	-0.806465
Cl212	Cl	-0.550486	0.325221	-0.473132
Cl213	Cl	-0.217152	0.658555	-0.139799
H214	H	-0.880140	-0.004879	-0.378564
H215	H	-0.546807	0.328454	-0.045231
H216	H	-0.213473	0.661788	0.288102
H217	H	-0.888061	-0.011878	-0.213817
H218	H	-0.554727	0.321456	0.119516
H219	H	-0.221394	0.654789	0.452849
H220	H	-1.083854	-0.184563	-0.213784
H221	H	-0.750521	0.148771	0.119549
H222	H	-0.417187	0.482104	0.452882
H223	H	-0.883374	0.489367	-0.000034
H224	H	-0.550041	0.822700	0.333300
H225	H	-0.216707	1.156034	0.666633
Cl226	Cl	-0.893656	-0.016840	-0.601511
Cl227	Cl	-0.560322	0.316493	-0.268177
Cl228	Cl	-0.226989	0.649827	0.065156
H229	H	-0.579363	0.009212	0.059092
H230	H	-0.246029	0.342545	0.392426
H231	H	0.087304	0.675878	0.725759
H232	H	-0.575231	-0.127704	0.143630
H233	H	-0.241897	0.205629	0.476963
H234	H	0.091436	0.538962	0.810297
H235	H	-1.157885	0.523288	-0.000075
H236	H	-0.824552	0.856622	0.333258
H237	H	-0.491219	1.189955	0.666591
H238	H	-0.415519	-0.116438	-0.144108
H239	H	-0.082186	0.216896	0.189225
H240	H	0.251148	0.550229	0.522558
H241	H	-0.560145	-0.113594	-0.143694
H242	H	-0.226812	0.219739	0.189640
H243	H	0.106522	0.553072	0.522973
H244	H	-0.557204	-0.210243	-0.087722
H245	H	-0.223871	0.123090	0.245611
H246	H	0.109463	0.456423	0.578945
