data_functionalizedCrystal
_audit_creation_method	'MofGen! by Chris Wilmer'
_symmetry_space_group_name_H-M	'P1'
_symmetry_Int_Tables_number	1
_symmetry_cell_setting	triclinic
loop_
_symmetry_equiv_pos_as_xyz
  x,y,z
_cell_length_a	19.288859
_cell_length_b	19.288859
_cell_length_c	18.366186
_cell_angle_alpha	89.994011
_cell_angle_beta	89.990083
_cell_angle_gamma	83.133726
loop_
_atom_site_label
_atom_site_type_symbol
_atom_site_fract_x
_atom_site_fract_y
_atom_site_fract_z
O1	O	0.921354	0.086628	-0.060564
O2	O	1.421354	0.586628	0.439436
O3	O	0.719092	0.098322	-0.060562
O4	O	1.219092	0.598322	0.439438
O5	O	0.826069	-0.008656	-0.060558
O6	O	1.326069	0.491344	0.439442
O7	O	0.814376	0.193606	-0.060567
O8	O	1.314376	0.693606	0.439433
O9	O	0.826051	-0.008661	0.060541
O10	O	1.326051	0.491339	0.560541
O11	O	0.719074	0.098317	0.060538
O12	O	1.219074	0.598317	0.560538
O13	O	0.921335	0.086623	0.060536
O14	O	1.421335	0.586623	0.560536
Zn15	Zn	0.820202	0.092469	0.079764
Zn16	Zn	1.320202	0.592469	0.579764
Zn17	Zn	0.820226	0.092476	-0.079790
Zn18	Zn	1.320226	0.592476	0.420210
O19	O	0.814358	0.193601	0.060532
O20	O	1.314358	0.693601	0.560532
C21	C	0.693206	0.097944	-0.000012
C22	C	1.193206	0.597944	0.499988
C23	C	0.616103	0.096816	-0.000011
C24	C	1.116103	0.596816	0.499989
C25	C	0.052061	0.151960	-0.000015
C26	C	0.552061	0.651960	0.499985
C27	C	0.124507	0.153025	-0.000018
C28	C	0.624507	0.653025	0.499982
C29	C	0.169215	0.090256	-0.000014
C30	C	0.669215	0.590256	0.499986
C31	C	0.141472	0.026416	-0.000025
C32	C	0.641472	0.526416	0.499975
C33	C	0.069026	0.025353	-0.000029
C34	C	0.569026	0.525353	0.499971
C35	C	0.290480	0.043441	0.042417
C36	C	0.790480	0.543441	0.542417
C37	C	0.362924	0.044507	0.042425
C38	C	0.862924	0.544507	0.542425
C39	C	0.392661	0.093533	-0.000007
C40	C	0.892661	0.593533	0.499993
C41	C	0.349944	0.141505	-0.042437
C42	C	0.849944	0.641505	0.457563
C43	C	0.277499	0.140442	-0.042441
C44	C	0.777499	0.640442	0.457559
C45	C	0.247771	0.091402	-0.000011
C46	C	0.747771	0.591402	0.499989
C47	C	0.498951	0.158524	-0.000006
C48	C	0.998951	0.658524	0.499994
C49	C	0.571399	0.159586	-0.000014
C50	C	1.071399	0.659586	0.499986
C51	C	0.588363	0.032976	-0.000013
C52	C	1.088363	0.532976	0.499987
C53	C	0.515916	0.031915	-0.000012
C54	C	1.015916	0.531915	0.499988
C55	C	0.471214	0.094691	-0.000005
C56	C	0.971214	0.594691	0.499995
C57	C	0.825685	-0.034535	-0.000009
C58	C	1.325685	0.465465	0.499991
C59	C	0.824558	-0.111639	-0.000011
C60	C	1.324558	0.388361	0.499989
C61	C	0.879701	-0.675680	-0.000030
C62	C	1.379701	-0.175680	0.499970
C63	C	0.880766	-0.603234	-0.000024
C64	C	1.380766	-0.103234	0.499976
C65	C	0.817997	-0.558526	-0.000023
C66	C	1.317997	-0.058526	0.499977
C67	C	0.754157	-0.586269	-0.000011
C68	C	1.254157	-0.086269	0.499989
C69	C	0.753094	-0.658715	-0.000010
C70	C	1.253094	-0.158715	0.499990
C71	C	0.771190	-0.437249	-0.042448
C72	C	1.271190	0.062751	0.457552
C73	C	0.772256	-0.364806	-0.042453
C74	C	1.272256	0.135194	0.457547
C75	C	0.821274	-0.335080	-0.000023
C76	C	1.321274	0.164920	0.499977
C77	C	0.869238	-0.377809	0.042404
C78	C	1.369238	0.122191	0.542404
C79	C	0.868175	-0.450254	0.042405
C80	C	1.368175	0.049746	0.542405
C81	C	0.819143	-0.479970	-0.000024
C82	C	1.319143	0.020030	0.499976
C83	C	0.886265	-0.228790	-0.000023
C84	C	1.386265	0.271210	0.499977
C85	C	0.887328	-0.156342	-0.000012
C86	C	1.387328	0.343658	0.499988
C87	C	0.760717	-0.139378	-0.000007
C88	C	1.260717	0.360622	0.499993
C89	C	0.759656	-0.211825	-0.000010
C90	C	1.259656	0.288175	0.499990
C91	C	0.822432	-0.256527	-0.000022
C92	C	1.322432	0.243473	0.499978
C93	C	0.947221	0.087001	-0.000016
C94	C	1.447221	0.587001	0.499984
C95	C	1.024325	0.088129	-0.000021
C96	C	1.524325	0.588129	0.499979
C97	C	0.814743	0.219480	-0.000018
C98	C	1.314743	0.719480	0.499982
C99	C	0.815870	0.296584	-0.000022
C100	C	1.315870	0.796584	0.499978
N101	N	0.820191	0.092464	0.188655
N102	N	1.320191	0.592464	0.688655
N103	N	0.820242	0.092476	-0.188681
N104	N	1.320242	0.592476	0.311319
C105	C	0.867576	0.045118	0.226757
C106	C	1.367576	0.545118	0.726757
C107	C	0.867580	0.045114	0.302985
C108	C	1.367580	0.545114	0.802985
C109	C	0.820206	0.092470	0.341108
C110	C	1.320206	0.592470	0.841108
C111	C	0.772812	0.139820	0.302997
C112	C	1.272812	0.639820	0.802997
C113	C	0.772804	0.139817	0.226770
C114	C	1.272804	0.639817	0.726770
C115	C	0.810906	0.155758	0.461865
C116	C	1.310906	0.655758	0.961865
C117	C	0.810919	0.155762	0.538090
C118	C	1.310919	0.655762	1.038090
C119	C	0.820226	0.092478	0.576215
C120	C	1.320226	0.592478	1.076215
C121	C	0.829535	0.029188	0.538106
C122	C	1.329535	0.529188	1.038106
C123	C	0.829527	0.029186	0.461879
C124	C	1.329527	0.529186	0.961879
C125	C	0.820209	0.092478	0.423762
C126	C	1.320209	0.592478	0.923762
C127	C	0.867618	0.045125	0.696972
C128	C	1.367618	0.545125	1.196972
C129	C	0.867618	0.045121	0.773201
C130	C	1.367618	0.545121	1.273201
C131	C	0.772853	0.139832	0.773212
C132	C	1.272853	0.639832	1.273212
C133	C	0.772850	0.139830	0.696984
C134	C	1.272850	0.639830	1.196984
C135	C	0.820236	0.092477	0.658869
C136	C	1.320236	0.592477	1.158869
H137	H	0.374154	0.181429	-0.076987
H138	H	0.874154	0.681429	0.423013
H139	H	0.803343	0.207296	0.569113
H140	H	1.303343	0.707296	1.069113
H141	H	0.906158	0.006558	0.195726
H142	H	1.406158	0.506558	0.695726
Cl143	Cl	0.416617	-0.015795	0.095771
Cl144	Cl	0.916617	0.484205	0.595771
H145	H	0.906168	0.006558	0.334013
H146	H	1.406168	0.506558	0.834013
Cl147	Cl	0.927185	-0.014408	0.649055
Cl148	Cl	1.427185	0.485592	1.149055
H149	H	0.734238	0.178376	0.334040
H150	H	1.234238	0.678376	0.834040
Cl151	Cl	0.711965	-0.311098	-0.095796
Cl152	Cl	1.211965	0.188902	0.404204
H153	H	0.906202	0.006562	0.804224
H154	H	1.406202	0.506562	1.304224
Cl155	Cl	0.713281	0.199358	0.649080
Cl156	Cl	1.213281	0.699358	1.149080
H157	H	0.703050	-0.549863	-0.000009
H158	H	1.203050	-0.049863	0.499991
H159	H	0.266276	0.003514	0.076971
H160	H	0.766276	0.503514	0.576971
Cl161	Cl	0.841221	-0.050375	0.413973
Cl162	Cl	1.341221	0.449625	0.913973
Cl163	Cl	0.197675	-0.052494	-0.000023
Cl164	Cl	0.697675	0.447506	0.499977
H165	H	0.731265	-0.461444	-0.076995
H166	H	1.231265	0.038556	0.423005
Cl167	Cl	0.672842	-0.693584	-0.000001
Cl168	Cl	1.172842	-0.193584	0.499999
Cl169	Cl	0.713292	0.199359	0.821132
Cl170	Cl	1.213292	0.699359	1.321132
H171	H	0.837113	-0.022343	0.569145
H172	H	1.337113	0.477657	1.069145
H173	H	0.803316	0.207294	0.430830
H174	H	1.303316	0.707294	0.930830
Cl175	Cl	0.159384	0.233276	-0.000008
Cl176	Cl	0.659384	0.733276	0.499992
H177	H	0.734217	0.178373	0.195747
H178	H	1.234217	0.678373	0.695747
H179	H	0.493334	-0.020063	-0.000014
H180	H	0.993334	0.479937	0.499986
H181	H	0.593980	0.211567	-0.000014
H182	H	1.093980	0.711567	0.499986
Cl183	Cl	0.223801	0.200742	-0.095784
Cl184	Cl	0.723801	0.700742	0.404216
Cl185	Cl	-0.004132	0.230878	-0.000015
Cl186	Cl	0.495868	0.730878	0.499985
H187	H	0.707678	-0.234407	-0.000009
H188	H	1.207678	0.265593	0.499991
Cl189	Cl	0.442752	0.237440	0.000001
Cl190	Cl	0.942752	0.737440	0.500001
H191	H	0.046445	-0.026628	-0.000034
H192	H	0.546445	0.473372	0.499966
Cl193	Cl	0.961017	-0.568357	-0.000026
Cl194	Cl	1.461017	-0.068357	0.499974
H195	H	0.624764	-0.018133	-0.000016
H196	H	1.124764	0.481867	0.499984
H197	H	0.930818	-0.712073	-0.000036
H198	H	1.430818	-0.212073	0.499964
Cl199	Cl	0.930867	-0.340449	0.095747
Cl200	Cl	1.430867	0.159551	0.595747
Cl201	Cl	0.965182	-0.284989	-0.000033
Cl202	Cl	1.465182	0.215011	0.499967
Cl203	Cl	0.928465	-0.503966	0.095743
Cl204	Cl	1.428465	-0.003966	0.595743
H205	H	0.939309	-0.133762	-0.000014
H206	H	1.439309	0.366238	0.499986
Cl207	Cl	0.681805	-0.083181	0.000004
Cl208	Cl	1.181805	0.416819	0.500004
