data_functionalizedCrystal
_audit_creation_method	'MofGen! by Chris Wilmer'
_symmetry_space_group_name_H-M	'P1'
_symmetry_Int_Tables_number	1
_symmetry_cell_setting	triclinic
loop_
_symmetry_equiv_pos_as_xyz
  x,y,z
_cell_length_a	12.759401
_cell_length_b	16.120444
_cell_length_c	12.759393
_cell_angle_alpha	92.864429
_cell_angle_beta	89.981756
_cell_angle_gamma	92.925484
loop_
_atom_site_label
_atom_site_type_symbol
_atom_site_fract_x
_atom_site_fract_y
_atom_site_fract_z
Zn1	Zn	1.584959	-0.331886	-0.615155
Zn2	Zn	1.575908	-0.471322	-0.448370
Zn3	Zn	1.409259	-0.331925	-0.439497
Zn4	Zn	1.400307	-0.471257	-0.624007
O5	O	1.492608	-0.401598	-0.531757
O6	O	1.730778	-0.350393	-0.593040
O7	O	1.553760	-0.452874	-0.300175
O8	O	1.440100	-0.215254	-0.455380
O9	O	1.724129	-0.452836	-0.470503
O10	O	1.569186	-0.215225	-0.584435
O11	O	1.431324	-0.350460	-0.293656
O12	O	1.261051	-0.350397	-0.463964
O13	O	1.424843	-0.452726	-0.769851
O14	O	1.254475	-0.452764	-0.599523
O15	O	1.560506	-0.350330	-0.763348
O16	O	1.545080	-0.587979	-0.479087
O17	O	1.416067	-0.587932	-0.608127
C18	C	1.219642	-0.401578	-0.531742
C19	C	1.102865	-0.401590	-0.531761
C20	C	1.051452	-0.348348	-0.595676
C21	C	0.941727	-0.348364	-0.595684
C22	C	0.934837	-0.454870	-0.467859
C23	C	1.044560	-0.454849	-0.467846
C24	C	1.109756	-0.295088	-0.659591
C25	C	1.058343	-0.241843	-0.723512
C26	C	0.948618	-0.241859	-0.723520
C27	C	0.890306	-0.295120	-0.659606
C28	C	1.478649	-0.618205	-0.545553
C29	C	1.472773	-0.710871	-0.551490
C30	C	1.523347	-0.921817	-0.501184
C31	C	1.462064	-0.880527	-0.562341
C32	C	1.468024	-0.786122	-0.556302
C33	C	1.517388	-1.016230	-0.507222
C34	C	1.766640	-0.401618	-0.531774
C35	C	1.883416	-0.401626	-0.531781
C36	C	1.492686	-0.401517	-0.805786
C37	C	1.492718	-0.401482	-0.922560
C38	C	1.506651	-0.184144	-0.517930
C39	C	1.512635	-0.091478	-0.512038
C40	C	1.422136	-0.454747	-1.090532
C41	C	1.422102	-0.454777	-0.980810
C42	C	1.563367	-0.348147	-0.974038
C43	C	1.563395	-0.348113	-1.083758
C44	C	1.351523	-0.508051	-1.148776
C45	C	1.280873	-0.561386	-1.097306
C46	C	1.280838	-0.561416	-0.987584
C47	C	1.351454	-0.508112	-0.929332
C48	C	1.492596	-0.401618	-0.258791
C49	C	1.492781	-0.401418	-0.142002
H50	H	1.405122	-0.916079	-0.619235
C51	C	1.641110	-0.289456	-1.140384
C52	C	1.718795	-0.230833	-1.076323
C53	C	1.796510	-0.172174	-1.132950
C54	C	1.796539	-0.172138	-1.253638
C55	C	1.718852	-0.230763	-1.317706
C56	C	1.641137	-0.289422	-1.261079
H57	H	1.718776	-0.230858	-0.986977
H58	H	1.854019	-0.128776	-1.085522
H59	H	1.854068	-0.128714	-1.295556
H60	H	1.718871	-0.230738	-1.407052
H61	H	1.583628	-0.332820	-1.308507
H62	H	1.351417	-0.508139	-0.839989
C63	C	1.101123	-0.513418	-0.397545
C64	C	1.221815	-0.513393	-0.397531
C65	C	1.278378	-0.571961	-0.327225
C66	C	1.214250	-0.630554	-0.256933
C67	C	1.093551	-0.630581	-0.256944
C68	C	1.036988	-0.572014	-0.327250
H69	H	1.269292	-0.470017	-0.449568
H70	H	1.367727	-0.571940	-0.327217
H71	H	1.256121	-0.673909	-0.204888
H72	H	1.046073	-0.673957	-0.204908
H73	H	0.947638	-0.572034	-0.327258
C74	C	1.641047	-0.289523	-0.909964
C75	C	1.599733	-0.224093	-0.830361
C76	C	1.677418	-0.165471	-0.766288
C77	C	1.796418	-0.172280	-0.781818
C78	C	1.837738	-0.237713	-0.861424
C79	C	1.760053	-0.296335	-0.925497
H80	H	1.511637	-0.219050	-0.818861
H81	H	1.646829	-0.117033	-0.707358
H82	H	1.853925	-0.128884	-0.734387
H83	H	1.925834	-0.242756	-0.872924
H84	H	1.790642	-0.344773	-0.984427
H85	H	1.223303	-0.604836	-0.945680
C86	C	1.122483	-0.183255	-0.793808
C87	C	1.195621	-0.219445	-0.878519
C88	C	1.259759	-0.160854	-0.948814
C89	C	1.250758	-0.066072	-0.934398
C90	C	1.177617	-0.029876	-0.849683
C91	C	1.113479	-0.088468	-0.779388
H92	H	1.202287	-0.289613	-0.889193
H93	H	1.313903	-0.187648	-1.011525
H94	H	1.298237	-0.022699	-0.986434
H95	H	1.170951	0.040291	-0.839009
H96	H	1.059335	-0.061673	-0.716677
C97	C	0.870696	-0.513460	-0.397566
C98	C	0.886168	-0.506542	-0.277701
C99	C	0.822028	-0.565135	-0.207410
C100	C	0.742415	-0.630646	-0.256984
C101	C	0.726940	-0.637567	-0.376855
C102	C	0.791080	-0.578974	-0.447146
H103	H	0.945105	-0.458044	-0.240997
H104	H	0.833484	-0.560011	-0.118673
H105	H	0.694935	-0.674020	-0.204950
H106	H	0.668002	-0.686064	-0.413558
H107	H	0.779623	-0.584097	-0.535883
C108	C	1.600261	-0.873794	-0.424321
C109	C	1.591003	-0.885745	-0.305627
C110	C	1.667912	-0.837710	-0.228762
C111	C	1.754078	-0.777723	-0.270591
C112	C	1.763339	-0.765769	-0.389291
C113	C	1.686430	-0.813804	-0.466156
H114	H	1.527215	-0.930153	-0.274658
H115	H	1.661056	-0.846560	-0.140892
H116	H	1.811010	-0.742164	-0.213691
H117	H	1.827127	-0.721361	-0.420260
H118	H	1.693287	-0.804955	-0.554025
H119	H	1.199100	-0.295069	-0.659592
H120	H	0.906761	-0.198498	-0.775559
H121	H	0.800962	-0.295111	-0.659594
H122	H	1.351544	-0.508034	-1.238118
H123	H	1.223373	-0.604777	-1.144742
