data_functionalizedCrystal
_audit_creation_method	'MofGen! by Chris Wilmer'
_symmetry_space_group_name_H-M	'P1'
_symmetry_Int_Tables_number	1
_symmetry_cell_setting	triclinic
loop_
_symmetry_equiv_pos_as_xyz
  x,y,z
_cell_length_a	14.853566
_cell_length_b	14.853559
_cell_length_c	13.330367
_cell_angle_alpha	89.997552
_cell_angle_beta	89.995295
_cell_angle_gamma	83.632934
loop_
_atom_site_label
_atom_site_type_symbol
_atom_site_fract_x
_atom_site_fract_y
_atom_site_fract_z
O1	O	1.196366	0.117699	-0.083352
O2	O	0.933906	0.131721	-0.083368
O3	O	1.072151	-0.006520	-0.083359
O4	O	1.058121	0.255940	-0.083362
O5	O	1.072131	-0.006523	0.083488
O6	O	0.933886	0.131718	0.083479
O7	O	1.196346	0.117696	0.083495
Cu8	Cu	1.065114	0.124707	0.098721
Cu9	Cu	1.065138	0.124710	-0.098595
O10	O	1.058101	0.255937	0.083485
C11	C	0.900307	0.131085	0.000053
C12	C	0.800223	0.129181	0.000047
C13	C	0.377050	0.121132	-0.090884
C14	C	0.377049	0.121129	0.091020
C15	C	0.471083	0.122917	0.091016
C16	C	0.518105	0.123813	0.000062
C17	C	0.471092	0.122922	-0.090890
C18	C	0.518102	0.123817	0.181966
C19	C	0.612141	0.125605	0.181967
C20	C	0.659165	0.126496	0.091011
C21	C	0.612147	0.125604	0.000056
C22	C	0.659168	0.126500	-0.090899
C23	C	0.612153	0.125602	-0.181855
C24	C	0.518116	0.123813	-0.181845
C25	C	0.753202	0.128285	0.091002
C26	C	0.753211	0.128290	-0.090904
C27	C	1.071506	-0.040111	0.000063
C28	C	1.069605	-0.140195	0.000057
C29	C	1.061553	-0.563368	-0.090892
C30	C	1.061531	-0.563366	0.091011
C31	C	1.063324	-0.469333	0.091012
C32	C	1.064230	-0.422313	0.000060
C33	C	1.063343	-0.469326	-0.090894
C34	C	1.064202	-0.422312	0.181964
C35	C	1.065994	-0.328273	0.181969
C36	C	1.066907	-0.281251	0.091015
C37	C	1.066021	-0.328270	0.000058
C38	C	1.066928	-0.281250	-0.090894
C39	C	1.066048	-0.328268	-0.181853
C40	C	1.064256	-0.422305	-0.181847
C41	C	1.068699	-0.187215	0.091010
C42	C	1.068718	-0.187208	-0.090896
C43	C	1.229945	0.118332	0.000071
C44	C	1.330028	0.120236	0.000071
C45	C	1.058745	0.289528	0.000062
C46	C	1.060646	0.389612	0.000061
N47	N	1.065104	0.124703	0.237503
N48	N	1.065155	0.124706	-0.237376
C49	C	1.003920	0.185900	0.710122
C50	C	1.126379	0.063514	0.710098
C51	C	1.126369	0.063511	0.605080
C52	C	1.065135	0.124704	0.552577
C53	C	1.003910	0.185900	0.605094
C54	C	1.187599	0.002322	0.552556
C55	C	1.187592	0.002318	0.447531
C56	C	1.126352	0.063507	0.395027
C57	C	1.065124	0.124705	0.447549
C58	C	1.003890	0.185899	0.395047
C59	C	0.942657	0.247093	0.447568
C60	C	0.942670	0.247090	0.552589
C61	C	1.126339	0.063510	0.290005
C62	C	1.003879	0.185900	0.290019
H63	H	0.338766	0.120397	-0.164938
N64	N	1.063300	-0.473027	-0.279936
H65	H	1.006711	-0.504797	-0.283981
H66	H	1.064183	-0.428930	-0.337507
N67	N	0.326339	0.120172	0.189117
H68	H	0.259482	0.120138	0.175327
H69	H	0.349169	0.064016	0.228240
H70	H	0.954011	0.235728	0.247278
H71	H	0.650414	0.126335	0.256029
H72	H	1.069395	-0.148934	0.165066
N73	N	0.803911	0.129263	0.189090
H74	H	0.759853	0.128429	0.246710
H75	H	0.850168	0.074161	0.193058
N76	N	0.876617	0.313098	0.390937
H77	H	0.885909	0.303811	0.316438
H78	H	0.812652	0.302564	0.409298
N79	N	1.253630	-0.063681	0.390887
H80	H	1.292423	-0.102445	0.440085
H81	H	1.219064	-0.103603	0.347326
H82	H	1.066779	-0.289971	-0.255906
N83	N	1.069704	-0.136496	-0.188997
H84	H	1.068876	-0.180553	-0.246612
H85	H	1.014602	-0.090241	-0.192968
N86	N	1.192414	-0.002483	0.766732
H87	H	1.181950	-0.066489	0.748464
H88	H	1.256380	0.008088	0.748424
N89	N	1.060611	-0.614073	-0.188993
H90	H	1.059342	-0.680781	-0.175197
H91	H	1.005085	-0.590396	-0.228716
N92	N	1.253636	-0.063667	0.609197
H93	H	1.219135	-0.103643	0.652775
H94	H	1.292415	-0.102375	0.559940
H95	H	1.066714	-0.289999	0.256033
N96	N	1.063245	-0.473025	0.280057
H97	H	1.061992	-0.539733	0.266254
H98	H	1.119405	-0.463818	0.319759
H99	H	1.176197	0.013691	0.247248
N100	N	1.060565	-0.614077	0.189106
H101	H	1.059300	-0.680784	0.175305
H102	H	1.116725	-0.604878	0.228810
N103	N	0.467391	0.122860	0.280063
H104	H	0.400534	0.122834	0.266274
H105	H	0.490216	0.066699	0.319183
H106	H	0.954063	0.235721	0.752887
N107	N	0.803926	0.129246	-0.189007
H108	H	0.759871	0.128404	-0.246620
H109	H	0.835701	0.185834	-0.192979
N110	N	0.662867	0.126570	-0.279957
H111	H	0.694639	0.183157	-0.284013
H112	H	0.709080	0.071435	-0.283948
N113	N	0.467399	0.122844	-0.279935
H114	H	0.421145	0.177946	-0.283983
H115	H	0.511511	0.123647	-0.337503
N116	N	0.876631	0.313087	0.609234
H117	H	0.885934	0.303802	0.683732
H118	H	0.887117	0.377064	0.590871
