data_functionalizedCrystal
_audit_creation_method	'MofGen! by Chris Wilmer'
_symmetry_space_group_name_H-M	'P1'
_symmetry_Int_Tables_number	1
_symmetry_cell_setting	triclinic
loop_
_symmetry_equiv_pos_as_xyz
  x,y,z
_cell_length_a	14.971482
_cell_length_b	16.974885
_cell_length_c	15.455322
_cell_angle_alpha	96.310867
_cell_angle_beta	87.315739
_cell_angle_gamma	83.503967
loop_
_atom_site_label
_atom_site_type_symbol
_atom_site_fract_x
_atom_site_fract_y
_atom_site_fract_z
O1	O	1.190238	0.099907	-0.065109
O2	O	0.929761	0.112291	-0.064245
O3	O	1.067701	-0.009384	-0.072774
O4	O	1.052298	0.221582	-0.056580
O5	O	1.059812	-0.002454	0.071974
O6	O	0.921872	0.119221	0.080503
O7	O	1.182349	0.106837	0.079638
Cu8	Cu	1.051390	0.113661	0.093287
Cu9	Cu	1.060720	0.105466	-0.077894
O10	O	1.044409	0.228511	0.088168
C11	C	0.892495	0.115202	0.008090
C12	C	0.793208	0.113544	0.007972
C13	C	0.742268	0.116541	0.086820
C14	C	0.648979	0.114970	0.086711
C15	C	0.606631	0.110409	0.007753
C16	C	0.657579	0.107409	-0.071101
C17	C	0.750867	0.108974	-0.070992
C18	C	0.463137	0.104150	-0.071324
C19	C	0.369842	0.102586	-0.071434
C20	C	0.361250	0.110146	0.086378
C21	C	0.454537	0.111710	0.086488
C22	C	0.505478	0.108713	0.007633
C23	C	1.063317	-0.035477	-0.002475
C24	C	1.061997	-0.123550	-0.008656
C25	C	1.057074	-0.161157	0.067339
C26	C	1.055840	-0.243912	0.061523
C27	C	1.059522	-0.289058	-0.020287
C28	C	1.064448	-0.251446	-0.096287
C29	C	1.065688	-0.168693	-0.090471
C30	C	1.056279	-0.536958	-0.046142
C31	C	1.055036	-0.619716	-0.051953
C32	C	1.046430	-0.612176	0.105859
C33	C	1.047666	-0.529422	0.111667
C34	C	1.052596	-0.491817	0.035667
N35	N	1.058258	-0.373647	-0.026233
N36	N	1.053866	-0.407231	0.041614
C37	C	1.219615	0.103925	0.007302
C38	C	1.318902	0.105583	0.007414
C39	C	1.048793	0.254604	0.017866
C40	C	1.050114	0.342677	0.024042
N41	N	1.044835	0.119425	0.213687
C42	C	1.103456	0.067753	0.255459
C43	C	1.098507	0.072119	0.346573
C44	C	1.034940	0.128162	0.395914
C45	C	0.976312	0.179836	0.354136
C46	C	0.981258	0.175466	0.263023
C47	C	1.013593	0.147005	0.668816
C48	C	1.008653	0.151373	0.759935
C49	C	1.130848	0.043654	0.752366
C50	C	1.135792	0.039291	0.661252
C51	C	1.077161	0.090963	0.619482
N52	N	1.029881	0.132628	0.489047
N53	N	1.082216	0.086493	0.526350
N54	N	1.067275	0.099700	0.801707
H55	H	0.504610	0.101709	-0.135536
H56	H	1.155223	0.022120	0.215291
H57	H	1.054061	-0.124403	0.133958
H58	H	0.924549	0.225465	0.394314
H59	H	0.607510	0.117397	0.150916
Br60	Br	1.222065	-0.036764	0.594288
Br61	Br	1.210413	-0.026470	0.809057
H62	H	1.042418	-0.642803	0.167733
Br63	Br	1.049160	-0.294947	0.164664
Br64	Br	1.062968	-0.485934	-0.149286
Br65	Br	0.922379	0.227442	0.826893
Br66	Br	0.600113	0.101184	-0.178263
Br67	Br	0.934027	0.217130	0.612132
Br68	Br	1.042639	-0.468153	0.222700
Br69	Br	0.799729	0.122740	0.193984
Br70	Br	1.069460	-0.312717	-0.207317
H71	H	0.933521	0.217542	0.229013
Br72	Br	1.072377	-0.117656	-0.193611
Br73	Br	1.060024	-0.680985	-0.162989
Br74	Br	0.312370	0.096396	-0.178592
Br75	Br	1.178063	0.001988	0.403266
H76	H	0.489013	0.115430	0.150783
H77	H	0.319769	0.112587	0.150585
Br78	Br	0.820002	0.104900	-0.178005
