data_functionalizedCrystal
_audit_creation_method	'MofGen! by Chris Wilmer'
_symmetry_space_group_name_H-M	'P1'
_symmetry_Int_Tables_number	1
_symmetry_cell_setting	triclinic
loop_
_symmetry_equiv_pos_as_xyz
  x,y,z
_cell_length_a	16.793024
_cell_length_b	16.793047
_cell_length_c	33.586455
_cell_angle_alpha	113.253857
_cell_angle_beta	66.219990
_cell_angle_gamma	112.758327
loop_
_atom_site_label
_atom_site_type_symbol
_atom_site_fract_x
_atom_site_fract_y
_atom_site_fract_z
O1	O	0.005016	-0.570216	-0.583573
O2	O	-0.034529	-0.474528	-0.453458
O3	O	0.114723	-0.474535	-0.528082
O4	O	-0.144235	-0.570209	-0.508949
O5	O	0.108729	-0.346329	-0.530229
O6	O	-0.040523	-0.346322	-0.455605
O7	O	-0.000977	-0.442010	-0.585721
Zn8	Zn	-0.021701	-0.373810	-0.521004
Zn9	Zn	-0.013805	-0.542728	-0.518175
O10	O	-0.150229	-0.442003	-0.511097
C11	C	0.005100	-0.790970	-0.238461
C12	C	0.009223	-0.693065	-0.217557
C13	C	0.003804	-0.645758	-0.241627
C14	C	-0.075059	-0.538459	-0.266316
C15	C	0.049838	-0.422849	-0.250165
C16	C	-0.040584	-0.395375	-0.435637
C17	C	-0.044693	-0.353446	-0.386631
C18	C	-0.039275	-0.401741	-0.363054
C19	C	-0.040566	-0.125547	-0.300731
C20	C	-0.044689	-0.223451	-0.321635
C21	C	-0.039266	-0.270752	-0.297563
C22	C	0.039597	-0.378051	-0.272874
C23	C	-0.085304	-0.493667	-0.289026
C24	C	0.005118	-0.521142	-0.103554
C25	C	0.009231	-0.563064	-0.152559
C26	C	0.003809	-0.514775	-0.176138
C27	C	0.010758	-0.652581	-0.172822
C28	C	0.001010	-0.556371	-0.220792
C29	C	-0.008251	-0.506059	-0.245823
C30	C	-0.046224	-0.263935	-0.366370
C31	C	-0.036476	-0.360146	-0.318399
C32	C	-0.027211	-0.410451	-0.293367
C33	C	0.815184	-0.521162	-0.508596
C34	C	0.717729	-0.563083	-0.506815
C35	C	0.669923	-0.514793	-0.509201
C36	C	0.564072	-0.463272	-0.548285
C37	C	0.445555	-0.498966	-0.486078
C38	C	0.415541	-0.125553	-0.528781
C39	C	0.375032	-0.223457	-0.531493
C40	C	0.423813	-0.270761	-0.529101
C41	C	0.149318	-0.395376	-0.530584
C42	C	0.246774	-0.353455	-0.532364
C43	C	0.294574	-0.401748	-0.529976
C44	C	0.400424	-0.453269	-0.490892
C45	C	0.518948	-0.417572	-0.553101
C46	C	0.548961	-0.790984	-0.510398
C47	C	0.589464	-0.693083	-0.507684
C48	C	0.540690	-0.645776	-0.510078
C49	C	0.678399	-0.652598	-0.506649
C50	C	0.581167	-0.556389	-0.510877
C51	C	0.530434	-0.506073	-0.515170
C52	C	0.286104	-0.263940	-0.532530
C53	C	0.383336	-0.360149	-0.528302
C54	C	0.434062	-0.410467	-0.524008
C55	C	-0.040530	-0.395407	-0.935652
C56	C	-0.044651	-0.353482	-0.886645
C57	C	-0.039242	-0.401770	-0.863061
C58	C	0.039602	-0.453292	-0.810474
C59	C	-0.085288	-0.417587	-0.750981
C60	C	0.005063	-0.791004	-0.738448
C61	C	0.009186	-0.693099	-0.717543
C62	C	0.003779	-0.645796	-0.741620
C63	C	0.005077	-0.521171	-0.603544
C64	C	0.009198	-0.563096	-0.652550
C65	C	0.003786	-0.514804	-0.676131
C66	C	-0.075058	-0.463283	-0.728717
C67	C	0.049835	-0.498991	-0.788214
C68	C	-0.040516	-0.125574	-0.800747
C69	C	-0.044642	-0.223476	-0.821649
C70	C	-0.039232	-0.270782	-0.797575
C71	C	-0.046172	-0.263965	-0.866386
C72	C	-0.036447	-0.360171	-0.818406
C73	C	-0.027197	-0.410486	-0.793373
C74	C	0.010719	-0.652613	-0.672809
C75	C	0.000994	-0.556406	-0.720789
C76	C	-0.008259	-0.506089	-0.745819
O77	O	-0.000965	0.173549	-0.277957
O78	O	-0.040516	-0.085616	-0.325254
O79	O	0.108737	0.059592	-0.327284
O80	O	-0.150219	0.028341	-0.275927
O81	O	0.114753	0.055151	-0.263265
O82	O	-0.034500	-0.090057	-0.261234
O83	O	0.005051	0.169108	-0.213937
Zn84	Zn	-0.013769	0.038820	-0.227421
Zn85	Zn	-0.021696	0.044672	-0.311770
O86	O	-0.144202	0.023900	-0.211907
O87	O	-0.034458	-0.474571	0.046517
O88	O	0.005076	-0.570190	-0.083599
O89	O	-0.144170	-0.570237	-0.008972
O90	O	0.114787	-0.474523	-0.028110
O91	O	-0.150200	-0.442024	-0.011093
O92	O	-0.000954	-0.441976	-0.085720
O93	O	-0.040488	-0.346357	0.044396
Zn94	Zn	-0.021679	-0.373810	-0.020999
Zn95	Zn	-0.013734	-0.542737	-0.018204
O96	O	0.108757	-0.346309	-0.030231
C97	C	-0.850734	0.086244	-0.289716
C98	C	-0.753280	0.087165	-0.312001
C99	C	-0.705462	0.081107	-0.288506
C100	C	-0.599592	0.000085	-0.264184
C101	C	-0.481080	0.121287	-0.283645
C102	C	-0.450996	0.035117	-0.097351
C103	C	-0.410501	0.028587	-0.146852
C104	C	-0.459292	0.034683	-0.169840
C105	C	-0.184802	0.024283	-0.235878
C106	C	-0.282257	0.023363	-0.213592
C107	C	-0.330068	0.029423	-0.237088
C108	C	-0.435938	0.110445	-0.261411
C109	C	-0.554456	-0.010759	-0.241948
C110	C	-0.584541	0.075410	-0.428242
C111	C	-0.625029	0.081943	-0.378743
C112	C	-0.576244	0.075844	-0.355753
C113	C	-0.713963	0.086424	-0.357292
C114	C	-0.616708	0.075351	-0.310510
C115	C	-0.565963	0.065400	-0.286043
C116	C	-0.321573	0.024104	-0.168302
C117	C	-0.418828	0.035176	-0.215083
C118	C	-0.469568	0.045131	-0.239552
O119	O	0.585213	0.169090	-0.504004
O120	O	0.494056	-0.090076	-0.525516
O121	O	0.488081	0.055124	-0.449918
O122	O	0.591189	0.023889	-0.579602
O123	O	0.359978	0.059584	-0.452885
O124	O	0.365953	-0.085616	-0.528483
O125	O	0.457110	0.173550	-0.506971
Zn126	Zn	0.391193	0.044675	-0.518198
Zn127	Zn	0.559974	0.038798	-0.514289
O128	O	0.463086	0.028349	-0.582569
C129	C	0.815354	-0.521094	-0.008709
C130	C	0.717898	-0.563028	-0.006927
C131	C	0.670072	-0.514739	-0.009298
C132	C	0.564182	-0.463204	-0.048354
C133	C	0.445681	-0.498945	0.013847
C134	C	0.415547	-0.125494	-0.028771
C135	C	0.375059	-0.223405	-0.031498
C136	C	0.423859	-0.270708	-0.029121
C137	C	0.149365	-0.395355	-0.030599
C138	C	0.246820	-0.353421	-0.032381
C139	C	0.294640	-0.401713	-0.030008
C140	C	0.400530	-0.453248	0.009048
C141	C	0.519038	-0.417504	-0.053155
C142	C	0.549171	-0.790955	-0.010537
C143	C	0.589653	-0.693047	-0.007809
C144	C	0.540859	-0.645741	-0.010187
C145	C	0.678588	-0.652551	-0.006775
C146	C	0.581317	-0.556344	-0.010973
C147	C	0.530562	-0.506029	-0.015250
C148	C	0.286131	-0.263897	-0.032533
C149	C	0.383402	-0.360104	-0.028335
C150	C	0.434150	-0.410423	-0.024057
O151	O	-0.620614	0.089309	0.052274
O152	O	-0.529507	0.043784	-0.078544
O153	O	-0.523494	0.194833	-0.006033
O154	O	-0.626628	-0.061740	-0.020236
O155	O	-0.395386	0.185419	-0.005549
O156	O	-0.401400	0.034370	-0.078059
O157	O	-0.492507	0.079895	0.052758
Zn158	Zn	-0.426614	0.055638	-0.012574
Zn159	Zn	-0.595401	0.068041	-0.013212
O160	O	-0.498521	-0.071154	-0.019752
C161	C	-0.437537	0.048335	0.402491
C162	C	-0.397043	0.041789	0.352989
C163	C	-0.445822	0.047883	0.329994
C164	C	-0.496646	0.126653	0.277022
C165	C	-0.465894	-0.000633	0.218811
C166	C	-0.837226	0.099430	0.210091
C167	C	-0.739773	0.100339	0.187806
C168	C	-0.691967	0.094287	0.211308
C169	C	-0.571027	0.088563	0.071568
C170	C	-0.611521	0.095108	0.121070
C171	C	-0.562739	0.089011	0.144061
C172	C	-0.511915	0.010241	0.197033
C173	C	-0.542670	0.137531	0.255247
C174	C	-0.171338	0.037467	0.263967
C175	C	-0.268788	0.036555	0.286249
C176	C	-0.316597	0.042611	0.262750
C177	C	-0.308112	0.037305	0.331542
C178	C	-0.405351	0.048369	0.284750
C179	C	-0.456092	0.058317	0.260279
C180	C	-0.700452	0.099593	0.142516
C181	C	-0.603213	0.088528	0.189308
C182	C	-0.552469	0.078578	0.213776
O183	O	-0.040608	-1.085661	-0.825229
O184	O	-0.001018	-0.826491	-0.777938
O185	O	-0.150287	-0.971682	-0.775894
O186	O	0.108661	-0.940470	-0.827272
O187	O	-0.144253	-0.976123	-0.711878
O188	O	0.005016	-0.830932	-0.713922
O189	O	-0.034575	-1.090102	-0.761213
Zn190	Zn	-0.013821	-0.961222	-0.727403
Zn191	Zn	-0.021771	-0.955371	-0.811747
O192	O	0.114695	-0.944911	-0.763256
C193	C	-0.036359	-0.225031	-0.248201
C194	C	0.040746	-0.140751	-0.237194
C195	C	0.043649	-0.095033	-0.187832
C196	C	-0.030554	-0.133594	-0.149477
C197	C	-0.107664	-0.217878	-0.160483
C198	C	-0.110566	-0.263597	-0.209845
H199	H	0.095680	-0.112202	-0.265588
H200	H	0.100731	-0.032640	-0.179685
H201	H	-0.028405	-0.099750	-0.112936
H202	H	-0.162598	-0.246428	-0.132090
H203	H	-0.167649	-0.325990	-0.217992
H204	H	0.634201	-0.467612	-0.072637
H205	H	-0.142686	-0.383972	-0.734830
H206	H	0.468233	-0.679598	-0.011487
H207	H	-0.503619	0.071273	-0.373665
C208	C	0.733150	-0.706462	-0.005373
C209	C	0.749605	-0.791992	-0.044056
C210	C	0.804168	-0.845903	-0.042656
C211	C	0.842276	-0.814284	-0.002572
C212	C	0.825822	-0.728750	0.036114
C213	C	0.771259	-0.674839	0.034714
H214	H	0.721394	-0.815402	-0.073731
H215	H	0.816348	-0.909221	-0.071294
H216	H	0.882667	-0.854192	-0.001535
H217	H	0.854033	-0.705340	0.065790
H218	H	0.759079	-0.611521	0.063352
H219	H	-0.586315	-0.066836	-0.224702
H220	H	-0.283673	0.042875	0.225734
H221	H	-0.142704	-0.524425	-0.305055
H222	H	-0.048809	-0.224052	-0.886301
H223	H	-0.669612	-0.046576	-0.265443
H224	H	0.245727	-0.224039	-0.533582
H225	H	0.413839	-0.532573	0.042316
H226	H	-0.037089	-0.236932	-0.761035
H227	H	0.088092	-0.309407	-0.275738
C228	C	0.714535	-0.415928	-0.010081
C229	C	0.672965	-0.341238	0.027528
C230	C	0.717428	-0.242429	0.026744
C231	C	0.803461	-0.218309	-0.011649
C232	C	0.845037	-0.293001	-0.049260
C233	C	0.800574	-0.391811	-0.048477
H234	H	0.609273	-0.359091	0.055951
H235	H	0.686650	-0.187137	0.054587
H236	H	0.836376	-0.145165	-0.012229
H237	H	0.908728	-0.275148	-0.077684
H238	H	0.831351	-0.447102	-0.076319
H239	H	-0.365918	0.157102	-0.260160
H240	H	-0.740818	0.102779	0.123104
H241	H	-0.490116	0.084434	0.126151
C242	C	0.562053	-0.372064	-0.091611
C243	C	0.514313	-0.399890	-0.127639
C244	C	0.557328	-0.354450	-0.166095
C245	C	0.648084	-0.281185	-0.168522
C246	C	0.695829	-0.253356	-0.132492
C247	C	0.652814	-0.298795	-0.094036
H248	H	0.447126	-0.454129	-0.125844
H249	H	0.521984	-0.375052	-0.192766
H250	H	0.679926	-0.247548	-0.196989
H251	H	0.763016	-0.199117	-0.134287
H252	H	0.688159	-0.278193	-0.067365
H253	H	0.496488	-0.236853	-0.027824
H254	H	0.330406	-0.448859	-0.466617
C255	C	-0.487644	0.193172	0.323265
C256	C	-0.435346	0.180812	0.348014
C257	C	-0.426350	0.247330	0.394257
C258	C	-0.469653	0.326209	0.415751
C259	C	-0.521955	0.338573	0.391002
C260	C	-0.530951	0.272055	0.344759
H261	H	-0.403287	0.122418	0.332103
H262	H	-0.387633	0.238177	0.412578
H263	H	-0.462994	0.375449	0.449983
H264	H	-0.554014	0.396966	0.406913
H265	H	-0.569668	0.281208	0.326438
C266	C	-0.557407	0.040853	-0.145650
C267	C	-0.629806	-0.035460	-0.125999
C268	C	-0.727920	-0.029289	-0.101809
C269	C	-0.753636	0.053194	-0.097272
C270	C	-0.681235	0.129513	-0.116924
C271	C	-0.583121	0.123343	-0.141113
H272	H	-0.610771	-0.096525	-0.129357
H273	H	-0.781515	-0.085786	-0.087262
H274	H	-0.826266	0.057762	-0.079365
H275	H	-0.700270	0.190578	-0.113565
H276	H	-0.529525	0.179839	-0.155661
H277	H	0.245737	-0.223998	-0.033572
C278	C	-0.036343	-0.500575	-0.885960
C279	C	0.040763	-0.524679	-0.929141
C280	C	0.043660	-0.623484	-0.952040
C281	C	-0.030548	-0.698186	-0.931757
C282	C	-0.107660	-0.674084	-0.888573
C283	C	-0.110557	-0.575279	-0.865674
H284	H	0.095702	-0.469379	-0.944158
H285	H	0.100744	-0.641326	-0.984008
H286	H	-0.028403	-0.771327	-0.948708
H287	H	-0.162598	-0.729384	-0.873556
H288	H	-0.167641	-0.557437	-0.833706
H289	H	0.702857	-0.441654	-0.509785
C290	C	-0.520911	-0.056283	0.150794
C291	C	-0.477606	-0.135160	0.129305
C292	C	-0.486604	-0.201689	0.083064
C293	C	-0.538906	-0.189341	0.058312
C294	C	-0.582214	-0.110461	0.079801
C295	C	-0.573216	-0.043932	0.126042
H296	H	-0.438886	-0.144304	0.147627
H297	H	-0.454544	-0.260082	0.067156
H298	H	-0.545567	-0.238590	0.024082
H299	H	-0.620934	-0.101317	0.061478
H300	H	-0.605276	0.014461	0.141949
C301	C	-0.423141	-0.079888	0.197471
C302	C	-0.351273	-0.088918	0.150706
C303	C	-0.308519	-0.168171	0.129366
C304	C	-0.337632	-0.238395	0.154793
C305	C	-0.409504	-0.229367	0.201561
C306	C	-0.452258	-0.150113	0.222900
H307	H	-0.329719	-0.036932	0.131881
H308	H	-0.255315	-0.174854	0.094745
H309	H	-0.305983	-0.297063	0.138996
H310	H	-0.431059	-0.281352	0.220385
H311	H	-0.505462	-0.143431	0.257521
C312	C	0.000894	-0.415997	-0.653236
C313	C	-0.076205	-0.391879	-0.610053
C314	C	-0.079091	-0.293070	-0.587159
C315	C	-0.004877	-0.218379	-0.607448
C316	C	0.072228	-0.242494	-0.650633
C317	C	0.075114	-0.341303	-0.673527
H318	H	-0.131147	-0.447172	-0.595032
H319	H	-0.136170	-0.275219	-0.555191
H320	H	-0.007014	-0.145234	-0.590501
H321	H	0.127170	-0.187201	-0.665654
H322	H	0.132192	-0.359154	-0.705495
C323	C	-0.768514	0.090730	-0.383506
C324	C	-0.735371	0.169136	-0.404219
C325	C	-0.789922	0.173442	-0.430433
C326	C	-0.877617	0.099342	-0.435935
C327	C	-0.910764	0.020930	-0.415221
C328	C	-0.856213	0.016624	-0.389007
H329	H	-0.670450	0.223995	-0.400147
H330	H	-0.765384	0.231488	-0.445767
H331	H	-0.917999	0.102529	-0.455340
H332	H	-0.975685	-0.033928	-0.419293
H333	H	-0.880751	-0.041421	-0.373674
C334	C	0.105114	-0.447318	-0.857730
C335	C	0.182253	-0.493280	-0.879686
C336	C	0.247765	-0.487312	-0.926942
C337	C	0.236137	-0.435382	-0.952243
C338	C	0.158994	-0.389417	-0.930287
C339	C	0.093482	-0.395385	-0.883031
H340	H	0.190864	-0.531725	-0.860957
H341	H	0.304871	-0.521340	-0.943195
H342	H	0.284632	-0.430965	-0.987225
H343	H	0.150383	-0.350972	-0.949016
H344	H	0.036376	-0.361358	-0.866778
C345	C	-0.253568	0.033020	0.357767
C346	C	-0.165781	0.107033	0.363187
C347	C	-0.111235	0.102758	0.389414
C348	C	-0.144478	0.024471	0.410221
C349	C	-0.232271	-0.049546	0.404802
C350	C	-0.286816	-0.045272	0.378575
H351	H	-0.141168	0.164990	0.347784
H352	H	-0.046245	0.157551	0.393425
H353	H	-0.104101	0.021307	0.429636
H354	H	-0.256883	-0.107504	0.420205
H355	H	-0.351806	-0.100065	0.374563
H356	H	-0.449229	0.177371	-0.300885
C357	C	-0.543932	0.054066	0.354186
C358	C	-0.621171	-0.018564	0.335963
C359	C	-0.719281	-0.012383	0.360156
C360	C	-0.740154	0.066428	0.402572
C361	C	-0.662913	0.139064	0.420797
C362	C	-0.564802	0.132883	0.396604
H363	H	-0.605722	-0.076910	0.304563
H364	H	-0.776460	-0.066154	0.346664
H365	H	-0.812781	0.071003	0.420480
H366	H	-0.678362	0.197410	0.452197
H367	H	-0.507624	0.186653	0.410096
H368	H	0.107227	-0.532615	-0.804368
H369	H	-0.297145	0.029698	-0.274103
H370	H	0.634089	-0.467700	-0.572564
C371	C	0.521931	-0.225054	-0.527348
C372	C	0.599146	-0.263628	-0.564708
C373	C	0.697265	-0.217924	-0.562956
C374	C	0.718169	-0.133646	-0.523844
C375	C	0.640952	-0.095066	-0.486481
C376	C	0.542833	-0.140770	-0.488234
H377	H	0.583673	-0.326021	-0.593664
H378	H	0.754426	-0.246484	-0.590615
H379	H	0.790803	-0.099813	-0.522547
H380	H	0.656424	-0.032674	-0.457526
H381	H	0.485672	-0.112211	-0.460575
H382	H	-0.738384	0.080845	-0.251490
C383	C	0.014318	-0.706496	-0.145914
C384	C	0.094172	-0.674969	-0.126737
C385	C	0.097729	-0.728885	-0.099829
C386	C	0.021432	-0.814329	-0.092098
C387	C	-0.058428	-0.845861	-0.111275
C388	C	-0.061985	-0.791944	-0.138183
H389	H	0.150657	-0.611715	-0.132460
H390	H	0.156847	-0.705543	-0.085633
H391	H	0.024065	-0.854241	-0.072179
H392	H	-0.114913	-0.909115	-0.105553
H393	H	-0.121103	-0.815287	-0.152379
C394	C	-0.585426	0.216783	0.276589
C395	C	-0.657292	0.225809	0.323355
C396	C	-0.700052	0.305059	0.344696
C397	C	-0.670945	0.375283	0.319271
C398	C	-0.599075	0.366260	0.272503
C399	C	-0.556316	0.287010	0.251162
H400	H	-0.678843	0.173822	0.342178
H401	H	-0.753255	0.311738	0.379317
H402	H	-0.702598	0.433949	0.335069
H403	H	-0.577525	0.418246	0.253679
H404	H	-0.503113	0.280330	0.216540
H405	H	-0.281187	0.020914	-0.148901
C406	C	-0.736435	0.093932	0.261315
C407	C	-0.834494	0.100329	0.285378
C408	C	-0.878963	0.099974	0.335385
C409	C	-0.825374	0.093222	0.361329
C410	C	-0.727310	0.086825	0.337267
C411	C	-0.682840	0.087180	0.287260
H412	H	-0.874169	0.105328	0.266172
H413	H	-0.951558	0.104710	0.353198
H414	H	-0.858293	0.092960	0.398348
H415	H	-0.687635	0.081826	0.356473
H416	H	-0.610246	0.082444	0.269447
C417	C	0.000865	-0.691513	-0.790981
C418	C	0.075060	-0.652959	-0.829339
C419	C	0.072139	-0.698676	-0.878699
C420	C	-0.004978	-0.782948	-0.889699
C421	C	-0.079179	-0.821506	-0.851339
C422	C	-0.076258	-0.775789	-0.801980
H423	H	0.132152	-0.590573	-0.821197
H424	H	0.127068	-0.670132	-0.907095
H425	H	-0.007140	-0.816790	-0.926238
H426	H	-0.136271	-0.883893	-0.859482
H427	H	-0.131187	-0.804333	-0.773584
H428	H	0.550810	-0.383955	-0.581575
H429	H	0.107243	-0.392097	-0.234140
H430	H	0.001660	-0.441639	-0.159184
H431	H	0.001650	-0.679613	-0.278166
H432	H	-0.123560	-0.607102	-0.263443
H433	H	0.261721	-0.474856	-0.029430
C434	C	0.014264	-0.706525	-0.645896
C435	C	0.094011	-0.747214	-0.662787
C436	C	0.097552	-0.801126	-0.635872
C437	C	0.021346	-0.814349	-0.592066
C438	C	-0.058407	-0.773659	-0.575172
C439	C	-0.061948	-0.719747	-0.602087
H440	H	0.150429	-0.737427	-0.695216
H441	H	0.156591	-0.831248	-0.648378
H442	H	0.023967	-0.854258	-0.572142
H443	H	-0.114825	-0.783446	-0.542743
H444	H	-0.120987	-0.689625	-0.589582
C445	C	-0.140570	-0.469248	-0.681463
C446	C	-0.217314	-0.422741	-0.659370
C447	C	-0.282829	-0.428708	-0.612114
C448	C	-0.271601	-0.481182	-0.586952
C449	C	-0.194854	-0.527693	-0.609045
C450	C	-0.129338	-0.521726	-0.656301
H451	H	-0.225628	-0.383892	-0.677997
H452	H	-0.339642	-0.394277	-0.595760
H453	H	-0.320099	-0.485600	-0.551971
H454	H	-0.186539	-0.566542	-0.590419
H455	H	-0.072525	-0.556157	-0.672656
C456	C	-0.036376	-0.500546	-0.385949
C457	C	0.045304	-0.528582	-0.391248
C458	C	0.048203	-0.627388	-0.414143
C459	C	-0.030578	-0.698157	-0.431738
C460	C	-0.112265	-0.670123	-0.426439
C461	C	-0.115164	-0.571317	-0.403545
H462	H	0.103629	-0.476193	-0.378223
H463	H	0.108674	-0.648140	-0.418065
H464	H	-0.028432	-0.771299	-0.448686
H465	H	-0.170589	-0.722512	-0.439465
H466	H	-0.175634	-0.550565	-0.399622
C467	C	-0.049779	-0.210017	-0.393277
C468	C	-0.129626	-0.169489	-0.376430
C469	C	-0.133177	-0.115568	-0.403338
C470	C	-0.056881	-0.102176	-0.447093
C471	C	0.022971	-0.142704	-0.463942
C472	C	0.026522	-0.196625	-0.437035
H473	H	-0.186109	-0.179402	-0.344038
H474	H	-0.192289	-0.085566	-0.390864
H475	H	-0.059510	-0.062260	-0.467011
H476	H	0.079455	-0.132791	-0.496334
H477	H	0.085635	-0.226627	-0.449508
C478	C	0.250094	-0.500553	-0.529186
C479	C	0.291663	-0.575251	-0.566787
C480	C	0.247186	-0.674057	-0.565999
C481	C	0.161140	-0.698165	-0.527609
C482	C	0.119565	-0.623465	-0.490006
C483	C	0.164043	-0.524659	-0.490794
H484	H	0.355365	-0.557406	-0.595207
H485	H	0.277963	-0.729355	-0.593836
H486	H	0.128215	-0.771307	-0.527026
H487	H	0.055864	-0.641310	-0.461585
H488	H	0.133266	-0.469361	-0.462957
C489	C	0.402520	-0.544382	-0.447613
C490	C	0.311757	-0.617636	-0.445184
C491	C	0.268722	-0.663054	-0.406719
C492	C	0.316450	-0.635217	-0.370684
C493	C	0.407218	-0.561959	-0.373112
C494	C	0.450253	-0.516541	-0.411577
H495	H	0.276422	-0.638246	-0.471860
H496	H	0.201530	-0.717285	-0.404922
H497	H	0.284593	-0.668838	-0.342211
H498	H	0.442553	-0.541349	-0.346436
H499	H	0.517445	-0.462310	-0.413374
H500	H	0.468064	-0.679625	-0.511379
H501	H	0.718758	-0.692512	-0.505593
H502	H	0.330510	-0.448858	0.033327
