data_functionalizedCrystal
_audit_creation_method	'MofGen! by Chris Wilmer'
_symmetry_space_group_name_H-M	'P1'
_symmetry_Int_Tables_number	1
_symmetry_cell_setting	triclinic
loop_
_symmetry_equiv_pos_as_xyz
  x,y,z
_cell_length_a	16.992694
_cell_length_b	10.723023
_cell_length_c	16.053802
_cell_angle_alpha	92.591082
_cell_angle_beta	87.249047
_cell_angle_gamma	87.567885
loop_
_atom_site_label
_atom_site_type_symbol
_atom_site_fract_x
_atom_site_fract_y
_atom_site_fract_z
O1	O	1.045091	0.259813	-0.069321
O2	O	1.545091	0.759813	0.430679
O3	O	0.816791	0.256907	-0.069346
O4	O	1.316791	0.756907	0.430654
O5	O	0.936207	0.077238	-0.069330
O6	O	1.436207	0.577238	0.430670
O7	O	0.925675	0.439483	-0.069338
O8	O	1.425675	0.939483	0.430662
O9	O	0.929634	0.087084	0.069528
O10	O	1.429634	0.587084	0.569528
O11	O	0.810218	0.266753	0.069512
O12	O	1.310218	0.766753	0.569512
O13	O	1.038518	0.269659	0.069537
O14	O	1.538518	0.769659	0.569537
Zn15	Zn	0.923324	0.269769	0.091571
Zn16	Zn	1.423324	0.769769	0.591571
Zn17	Zn	0.931985	0.256797	-0.091380
Zn18	Zn	1.431985	0.756797	0.408620
O19	O	0.919102	0.449329	0.069520
O20	O	1.419102	0.949329	0.569520
C21	C	0.784272	0.258094	0.000080
C22	C	1.284272	0.758094	0.500080
C23	C	0.697169	0.246945	0.000070
C24	C	1.197169	0.746945	0.500070
C25	C	0.647507	0.354505	0.000069
C26	C	1.147507	0.854505	0.500069
C27	C	0.565663	0.344024	0.000080
C28	C	1.065663	0.844024	0.500080
C29	C	0.533483	0.225982	0.000088
C30	C	1.033483	0.725982	0.500088
C31	C	0.583152	0.118414	0.000092
C32	C	1.083152	0.618414	0.500092
C33	C	0.664993	0.128896	0.000086
C34	C	1.164993	0.628896	0.500086
C35	C	0.289651	0.182535	0.000111
C36	C	0.789651	0.682535	0.500111
C37	C	0.207803	0.172060	0.000115
C38	C	0.707803	0.672060	0.500115
C39	C	0.190320	0.397672	0.000104
C40	C	0.690320	0.897672	0.500104
C41	C	0.272164	0.408144	0.000094
C42	C	0.772164	0.908144	0.500094
C43	C	0.321825	0.300577	0.000102
C44	C	0.821825	0.800577	0.500102
N45	N	0.449827	0.215265	0.000097
N46	N	0.949827	0.715265	0.500097
N47	N	0.405480	0.311294	0.000099
N48	N	0.905480	0.811294	0.500099
C49	C	0.932155	0.035595	0.000098
C50	C	1.432155	0.535595	0.500098
C51	C	0.929862	-0.103157	0.000095
C52	C	1.429862	0.396843	0.500095
C53	C	0.932245	-0.170111	-0.071838
C54	C	1.432245	0.329889	0.428162
C55	C	0.929875	-0.313519	-0.071843
C56	C	1.429875	0.186481	0.428157
C57	C	1.071037	0.268472	0.000109
C58	C	1.571037	0.768472	0.500109
C59	C	1.158141	0.279620	0.000113
C60	C	1.658141	0.779620	0.500113
C61	C	0.923155	0.490971	0.000090
C62	C	1.423155	0.990971	0.500090
C63	C	0.925448	0.629723	0.000088
C64	C	1.425448	1.129723	0.500088
N65	N	0.917420	0.278623	0.216430
N66	N	1.417420	0.778623	0.716430
N67	N	0.937896	0.247934	-0.216240
N68	N	1.437896	0.747934	0.283760
C69	C	0.968250	0.202204	0.260131
C70	C	1.468250	0.702204	0.760131
C71	C	0.964127	0.208409	0.347538
C72	C	1.464127	0.708409	0.847538
C73	C	0.909176	0.291041	0.391241
C74	C	1.409176	0.791041	0.891241
C75	C	0.858341	0.367463	0.347534
C76	C	1.358341	0.867463	0.847534
C77	C	0.862460	0.361250	0.260130
C78	C	1.362460	0.861250	0.760130
C79	C	0.891180	0.318143	0.652648
C80	C	1.391180	0.818143	1.152648
C81	C	0.887065	0.324353	0.740059
C82	C	1.387065	0.824353	1.240059
C83	C	0.992851	0.165297	0.740056
C84	C	1.492851	0.665297	1.240056
C85	C	0.996970	0.159097	0.652650
C86	C	1.496970	0.659097	1.152650
C87	C	0.946131	0.235514	0.608951
C88	C	1.446131	0.735514	1.108951
N89	N	0.904962	0.297389	0.480584
N90	N	1.404962	0.797389	0.980584
N91	N	0.950342	0.229159	0.519609
N92	N	1.450342	0.729159	1.019609
H93	H	0.298359	0.504266	0.000078
H94	H	0.798359	1.004266	0.500078
H95	H	1.041715	0.091812	0.617068
H96	H	1.541715	0.591812	1.117068
H97	H	0.926062	-0.152003	0.061677
H98	H	1.426062	0.347997	0.561677
H99	H	1.013000	0.134922	0.224554
H100	H	1.513000	0.634922	0.724554
H101	H	0.813595	0.434739	0.383123
H102	H	1.313595	0.934739	0.883123
H103	H	0.923415	-0.312726	0.061676
H104	H	1.423415	0.187274	0.561676
H105	H	0.821068	0.423477	0.224549
H106	H	1.321068	0.923477	0.724549
H107	H	1.005517	0.146182	0.383118
H108	H	1.505517	0.646182	0.883118
C109	C	0.937372	-0.104136	-0.155033
C110	C	1.437372	0.395864	0.344967
H111	H	0.938298	-0.016406	-0.144116
H112	H	1.438298	0.483594	0.355884
H113	H	0.892826	-0.122686	-0.186161
H114	H	1.392826	0.377314	0.313839
H115	H	0.984169	-0.132606	-0.186145
H116	H	1.484169	0.367394	0.313855
C117	C	1.048761	0.081235	0.788127
C118	C	1.548761	0.581235	1.288127
H119	H	1.038435	0.096758	0.846441
H120	H	1.538435	0.596758	1.346441
H121	H	1.101866	0.099038	0.773795
H122	H	1.601866	0.599038	1.273795
H123	H	1.040462	-0.003968	0.773810
H124	H	1.540462	0.496032	1.273810
H125	H	0.842316	0.391646	0.775639
H126	H	1.342316	0.891646	1.275639
H127	H	0.673700	0.450628	0.000062
H128	H	1.173700	0.950628	0.500062
C129	C	0.719625	0.010584	0.000087
C130	C	1.219625	0.510584	0.500087
H131	H	0.772975	0.033733	0.000092
H132	H	1.272975	0.533733	0.500092
H133	H	0.712092	-0.040923	-0.048331
H134	H	1.212092	0.459077	0.451669
H135	H	0.707518	-0.034041	0.048520
H136	H	1.207518	0.465959	0.548520
H137	H	0.849786	0.380368	0.617075
H138	H	1.349786	0.880368	1.117075
H139	H	0.525231	0.431611	0.000078
H140	H	1.025231	0.931611	0.500078
H141	H	0.181606	0.075931	0.000120
H142	H	0.681606	0.575931	0.500120
C143	C	0.135696	0.515989	0.000099
C144	C	0.635696	1.015989	0.500099
H145	H	0.166583	0.587790	0.000088
H146	H	0.666583	1.087790	0.500088
H147	H	0.101119	0.520029	0.048522
H148	H	0.601119	1.020029	0.548522
H149	H	0.105694	0.513153	-0.048329
H150	H	0.605694	1.013153	0.451671
C151	C	0.344268	0.064215	0.000115
C152	C	0.844268	0.564215	0.500115
H153	H	0.313379	-0.007586	0.000111
H154	H	0.813379	0.492414	0.500111
H155	H	0.374272	0.067044	0.048537
H156	H	0.874272	0.567044	0.548537
H157	H	0.378843	0.060176	-0.048315
H158	H	0.878843	0.560176	0.451685
H159	H	0.556944	0.022301	0.000110
H160	H	1.056944	0.522301	0.500110
C161	C	0.932625	-0.391267	-0.155043
C162	C	1.432625	0.108733	0.344957
H163	H	0.930666	-0.477452	-0.144131
H164	H	1.430666	0.022548	0.355869
H165	H	0.980117	-0.377124	-0.186160
H166	H	1.480117	0.122876	0.313840
H167	H	0.888774	-0.367203	-0.186163
H168	H	1.388774	0.132797	0.313837
