data_functionalizedCrystal
_audit_creation_method	'MofGen! by Chris Wilmer'
_symmetry_space_group_name_H-M	'P1'
_symmetry_Int_Tables_number	1
_symmetry_cell_setting	triclinic
loop_
_symmetry_equiv_pos_as_xyz
  x,y,z
_cell_length_a	10.686220
_cell_length_b	13.031981
_cell_length_c	10.686551
_cell_angle_alpha	100.978188
_cell_angle_beta	89.692081
_cell_angle_gamma	102.074677
loop_
_atom_site_label
_atom_site_type_symbol
_atom_site_fract_x
_atom_site_fract_y
_atom_site_fract_z
Zn1	Zn	1.929639	-0.259859	0.525766
Zn2	Zn	1.881746	-0.452785	0.288815
Zn3	Zn	1.699282	-0.287126	0.328240
Zn4	Zn	1.688530	-0.450625	0.514897
O5	O	1.799799	-0.362599	0.414429
O6	O	2.100552	-0.274943	0.482384
O7	O	1.841998	-0.443125	0.116764
O8	O	1.754382	-0.134344	0.375490
O9	O	2.065365	-0.416685	0.308297
O10	O	1.923625	-0.114310	0.520612
O11	O	1.707942	-0.321417	0.145729
O12	O	1.520589	-0.319323	0.364950
O13	O	1.736058	-0.413004	0.693620
O14	O	1.512690	-0.439445	0.502087
O15	O	1.913199	-0.272849	0.701606
O16	O	1.831572	-0.601664	0.297757
O17	O	1.689617	-0.600077	0.463858
C18	C	1.470676	-0.382109	0.436618
C19	C	1.329874	-0.390479	0.446136
C20	C	1.754268	-0.639543	0.375376
C21	C	1.734909	-0.758012	0.358703
C22	C	1.809972	-0.800831	0.423152
C23	C	1.789966	-0.923274	0.405921
C24	C	2.130207	-0.343013	0.392155
C25	C	2.271007	-0.334667	0.382663
C26	C	1.828771	-0.339644	0.744865
C27	C	1.841118	-0.329862	0.885677
C28	C	1.845545	-0.084569	0.453661
C29	C	1.865040	0.033911	0.470379
C30	C	1.771025	-0.385383	0.085285
C31	C	1.758974	-0.394850	-0.055500
H32	H	1.889045	-0.746844	0.491091
H33	H	1.679205	-0.457975	0.887134
H34	H	1.328331	-0.280483	0.321027
H35	H	1.920899	-0.266740	0.943048
O36	O	1.261482	-0.454963	0.519821
C37	C	1.124530	-0.466432	0.698722
C38	C	1.201967	-0.393279	0.615394
H39	H	1.076370	-0.416593	0.775995
H40	H	1.191444	-0.507085	0.745082
H41	H	1.048372	-0.529799	0.636709
H42	H	1.278129	-0.329854	0.677318
H43	H	1.134972	-0.352705	0.569024
H44	H	1.944117	-0.912104	0.538323
O45	O	1.695713	-0.987824	0.324883
C46	C	1.589752	-1.168716	0.233928
C47	C	1.696558	-1.095738	0.325717
H48	H	1.590383	-1.255980	0.234593
H49	H	1.606646	-1.152768	0.133294
H50	H	1.493087	-1.151416	0.266015
H51	H	1.793269	-1.112995	0.293747
H52	H	1.679552	-1.111700	0.426332
H53	H	1.655827	-0.812001	0.290776
