data_functionalizedCrystal
_audit_creation_method	'MofGen! by Chris Wilmer'
_symmetry_space_group_name_H-M	'P1'
_symmetry_Int_Tables_number	1
_symmetry_cell_setting	triclinic
loop_
_symmetry_equiv_pos_as_xyz
  x,y,z
_cell_length_a	12.837943
_cell_length_b	23.532407
_cell_length_c	11.295483
_cell_angle_alpha	94.064566
_cell_angle_beta	85.461227
_cell_angle_gamma	88.838809
loop_
_atom_site_label
_atom_site_type_symbol
_atom_site_fract_x
_atom_site_fract_y
_atom_site_fract_z
O1	O	1.380948	0.144513	-0.099028
O2	O	1.079219	0.137204	-0.099034
O3	O	1.239181	0.058450	-0.099009
O4	O	1.220986	0.223267	-0.099053
O5	O	1.225131	0.065355	0.099039
O6	O	1.065169	0.144109	0.099014
O7	O	1.366899	0.151419	0.099020
Cu8	Cu	1.214751	0.148394	0.117101
Cu9	Cu	1.231366	0.140228	-0.117115
O10	O	1.206937	0.230173	0.098995
C11	C	1.033599	0.138187	-0.000010
C12	C	0.918597	0.130823	-0.000012
C13	C	0.676728	0.219356	-0.000018
C14	C	0.568673	0.212439	-0.000018
C15	C	0.594431	0.110073	-0.000004
C16	C	0.702485	0.116990	-0.000004
C17	C	0.743630	0.171633	-0.000013
C18	C	0.851687	0.178549	-0.000021
C19	C	0.877442	0.076184	0.000002
C20	C	0.769387	0.069267	0.000002
C21	C	1.231692	0.040660	0.000018
C22	C	1.230298	-0.022637	0.000027
C23	C	1.316228	-0.416812	-0.000037
C24	C	1.314934	-0.476287	-0.000046
O25	O	1.394590	-0.508463	-0.000088
N26	N	1.219836	-0.504370	-0.000047
C27	C	1.126025	-0.472975	-0.000051
O28	O	1.045018	-0.502323	-0.000053
C29	C	1.127321	-0.413501	-0.000050
C30	C	1.222424	-0.385421	-0.000037
C31	C	1.411324	-0.388732	-0.000025
C32	C	1.412617	-0.329261	-0.000014
C33	C	1.318814	-0.297871	-0.000014
C34	C	1.223717	-0.325951	-0.000026
C35	C	1.033512	-0.382108	-0.000063
C36	C	1.034816	-0.322631	-0.000063
C37	C	1.129920	-0.294551	-0.000050
C38	C	1.131207	-0.235089	-0.000015
N39	N	1.226306	-0.207006	-0.000014
C40	C	1.320109	-0.238397	-0.000013
C41	C	1.123313	-0.597873	-0.000054
C42	C	1.122016	-0.657345	-0.000046
C43	C	1.310925	-0.660653	-0.000043
C44	C	1.312220	-0.601180	-0.000043
C45	C	1.218411	-0.569790	-0.000053
C46	C	1.322817	-0.113504	0.000011
C47	C	1.324101	-0.054028	0.000027
C48	C	1.135193	-0.050725	0.000019
C49	C	1.133908	-0.110196	0.000009
C50	C	1.227729	-0.141584	0.000001
O51	O	1.051593	-0.202877	0.000023
O52	O	1.401104	-0.209042	-0.000026
C53	C	1.412519	0.150435	-0.000006
C54	C	1.527521	0.157799	-0.000013
C55	C	1.214425	0.247962	-0.000035
C56	C	1.215820	0.311259	-0.000052
N57	N	1.203072	0.154138	0.281835
N58	N	1.243053	0.134480	-0.281849
C59	C	1.327124	0.093101	0.531144
C60	C	1.318306	0.097446	0.655806
C61	C	1.176612	0.167170	0.655824
C62	C	1.185431	0.162825	0.531162
C63	C	1.260690	0.125790	0.468826
C64	C	1.269513	0.121448	0.344162
C65	C	1.127815	0.191169	0.344182
C66	C	1.118997	0.195514	0.468844
H67	H	0.735871	0.024778	0.000023
H68	H	0.956070	-0.404961	-0.000080
O69	O	1.032235	-0.567316	0.000112
C70	C	1.020037	-0.529256	0.102700
H71	H	1.099811	-0.520588	0.136895
H72	H	0.982596	-0.487539	0.079634
H73	H	0.967840	-0.548865	0.174523
H74	H	0.958424	-0.297076	-0.000073
H75	H	0.931927	0.037324	-0.000001
H76	H	1.330795	0.091294	0.293409
O77	O	1.401958	-0.691241	-0.000110
C78	C	1.380409	-0.749753	-0.000091
H79	H	1.301712	-0.757749	-0.037579
H80	H	1.444307	-0.775417	-0.057601
H81	H	1.377784	-0.763407	0.094919
O82	O	1.382875	0.065778	0.716472
C83	C	1.441397	0.102259	0.788536
H84	H	1.398358	0.145198	0.807216
H85	H	1.451831	0.082449	0.876198
H86	H	1.521324	0.108627	0.740470
H87	H	0.710228	0.263848	-0.000027
O88	O	1.502440	-0.419251	-0.000233
C89	C	1.514630	-0.457333	-0.102786
H90	H	1.466504	-0.440975	-0.174485
H91	H	1.600598	-0.460660	-0.137206
H92	H	1.486647	-0.501158	-0.079596
H93	H	0.514204	0.251300	-0.000020
H94	H	1.115331	0.197319	0.706594
O95	O	0.554283	0.057036	-0.000035
C96	C	0.444562	0.061170	0.000007
H97	H	0.421399	0.102904	-0.037502
H98	H	0.415786	0.023849	-0.057473
H99	H	0.407778	0.060098	0.095026
O100	O	1.416585	-0.026843	-0.000017
C101	C	1.499095	-0.067307	0.000006
H102	H	1.473137	-0.110519	-0.037496
H103	H	1.569609	-0.053283	-0.057490
H104	H	1.521260	-0.070839	0.095019
O105	O	1.413874	-0.144045	0.000168
C106	C	1.411517	-0.174967	0.102751
H107	H	1.326892	-0.181258	0.136937
H108	H	1.452234	-0.218288	0.079681
H109	H	1.453519	-0.150360	0.174583
O110	O	1.505097	-0.302080	-0.000064
C111	C	1.587598	-0.342549	-0.000037
H112	H	1.561630	-0.385760	-0.037533
H113	H	1.658114	-0.328531	-0.057537
H114	H	1.609764	-0.346080	0.094976
H115	H	1.389662	-0.578321	-0.000033
H116	H	1.044571	-0.680202	-0.000036
O117	O	1.041439	-0.137388	-0.000053
C118	C	0.958922	-0.096924	-0.000016
H119	H	0.990199	-0.056316	-0.037487
H120	H	0.896572	-0.114945	-0.057531
H121	H	0.923270	-0.086792	0.094997
O122	O	1.044176	-0.020142	-0.000036
C123	C	1.065721	0.038372	-0.000000
H124	H	1.149737	0.043762	-0.037482
H125	H	1.009982	0.060036	-0.057507
H126	H	1.054867	0.058634	0.095014
O127	O	1.400257	0.057084	0.470768
C128	C	1.457028	0.029176	0.552505
H129	H	1.408275	0.029310	0.641381
H130	H	1.475855	-0.016672	0.516490
H131	H	1.532857	0.052322	0.565739
H132	H	1.057719	0.225666	0.519612
O133	O	1.063429	0.222955	0.283519
C134	C	1.123658	0.258595	0.211421
H135	H	1.206278	0.239693	0.192727
H136	H	1.086527	0.262193	0.123768
H137	H	1.126873	0.302717	0.259466
H138	H	0.885184	0.223042	-0.000026
