data_functionalizedCrystal
_audit_creation_method	'MofGen! by Chris Wilmer'
_symmetry_space_group_name_H-M	'P1'
_symmetry_Int_Tables_number	1
_symmetry_cell_setting	triclinic
loop_
_symmetry_equiv_pos_as_xyz
  x,y,z
_cell_length_a	7.540329
_cell_length_b	9.065218
_cell_length_c	9.065218
_cell_angle_alpha	94.984081
_cell_angle_beta	89.998243
_cell_angle_gamma	90.005135
loop_
_atom_site_label
_atom_site_type_symbol
_atom_site_fract_x
_atom_site_fract_y
_atom_site_fract_z
O1	O	-0.147565	-1.960398	0.216356
O2	O	0.352435	-1.460398	0.716356
O3	O	-0.147548	-1.531114	0.234102
O4	O	0.352452	-1.031114	0.734102
O5	O	-0.147554	-1.754629	0.010587
O6	O	0.352446	-1.254629	0.510587
O7	O	-0.147560	-1.736883	0.439871
O8	O	0.352440	-1.236883	0.939871
O9	O	0.147411	-1.754616	0.010584
O10	O	0.647411	-1.254616	0.510584
O11	O	0.147417	-1.531100	0.234099
O12	O	0.647417	-1.031100	0.734099
O13	O	0.147400	-1.960385	0.216353
O14	O	0.647400	-1.460385	0.716353
Cu15	Cu	0.174341	-1.745741	0.225226
Cu16	Cu	0.674341	-1.245741	0.725226
Cu17	Cu	-0.174489	-1.745757	0.225229
Cu18	Cu	0.325511	-1.245757	0.725229
O19	O	0.147405	-1.736869	0.439868
O20	O	0.647405	-1.236869	0.939868
C21	C	-0.000064	-1.476120	0.232395
C22	C	0.499936	-0.976120	0.732395
C23	C	-0.000057	-1.312277	0.227295
C24	C	0.499943	-0.812277	0.727295
N25	N	0.419689	-1.745741	0.225223
N26	N	0.919689	-1.245741	0.725223
N27	N	-0.419838	-1.745769	0.225221
N28	N	0.080162	-1.245769	0.725221
C29	C	-0.000074	-1.752917	-0.044402
C30	C	0.499926	-1.252917	0.455598
C31	C	-0.000082	-1.747817	-0.208244
C32	C	0.499918	-1.247817	0.291756
C33	C	-0.000078	-1.015378	0.218060
C34	C	0.499922	-0.515378	0.718060
C35	C	-0.000063	-1.179221	0.223159
C36	C	0.499937	-0.679221	0.723159
C37	C	-0.000079	-1.738581	0.494856
C38	C	0.499921	-1.238581	0.994856
C39	C	-0.000082	-1.743681	0.658699
C40	C	0.499918	-1.243681	1.158699
