data_functionalizedCrystal
_audit_creation_method	'MofGen! by Chris Wilmer'
_symmetry_space_group_name_H-M	'P1'
_symmetry_Int_Tables_number	1
_symmetry_cell_setting	triclinic
loop_
_symmetry_equiv_pos_as_xyz
  x,y,z
_cell_length_a	10.540539
_cell_length_b	8.559649
_cell_length_c	7.088638
_cell_angle_alpha	84.654732
_cell_angle_beta	83.730066
_cell_angle_gamma	102.847922
loop_
_atom_site_label
_atom_site_type_symbol
_atom_site_fract_x
_atom_site_fract_y
_atom_site_fract_z
O1	O	1.647729	-0.241181	0.158897
O2	O	1.276095	-0.262375	0.158920
O3	O	1.494653	-0.019549	0.158904
O4	O	1.429170	-0.484007	0.158912
O5	O	1.523875	0.012983	-0.159088
O6	O	1.305316	-0.229843	-0.159072
O7	O	1.676950	-0.208648	-0.159095
Cu8	Cu	1.493801	-0.216275	-0.188119
Cu9	Cu	1.459244	-0.254748	0.187944
O10	O	1.458392	-0.451475	-0.159080
C11	C	1.243569	-0.244520	-0.000073
C12	C	1.103118	-0.239766	-0.000064
N13	N	1.518117	-0.189215	-0.452621
C14	C	1.514226	0.056190	-0.000088
C15	C	1.528996	0.233400	-0.000079
C16	C	0.938835	-0.057488	-0.000810
C17	C	1.084881	-0.062384	-0.000073
C18	C	1.015822	-0.343707	0.181519
C19	C	0.869899	-0.337666	0.181651
C20	C	0.902263	-0.304280	-0.179965
C21	C	1.049293	-0.305670	-0.182345
C22	C	1.709476	-0.226504	-0.000098
C23	C	1.849926	-0.231259	-0.000094
C24	C	1.438819	-0.527214	-0.000083
C25	C	1.424047	-0.704426	-0.000080
N26	N	1.434940	-0.281797	0.452446
H27	H	1.146488	0.018100	-0.130241
H28	H	1.630157	0.315754	-0.000100
H29	H	1.348762	-0.377709	0.534142
O30	O	1.290055	0.186507	-0.000080
H31	H	1.215506	0.259921	-0.000102
O32	O	1.063983	-0.283464	0.360534
H33	H	1.167206	-0.292727	0.362628
H34	H	1.604308	-0.093307	0.465673
H35	H	0.929553	0.025910	-0.131034
H36	H	0.904033	-0.000957	0.128686
H37	H	0.835821	-0.288461	0.317385
O38	O	1.133701	0.009526	0.172648
H39	H	1.052964	0.047921	0.255986
H40	H	1.023915	-0.474663	0.188277
O41	O	0.787645	-0.507757	0.192611
H42	H	0.852171	-0.593958	0.197808
H43	H	1.109128	-0.229566	-0.316680
O44	O	0.885226	-0.209577	-0.362297
H45	H	0.839259	-0.109397	-0.326742
H46	H	0.841735	-0.432276	-0.181190
O47	O	1.064784	-0.475485	-0.196896
H48	H	1.111285	-0.515749	-0.073876
