data_functionalizedCrystal
_audit_creation_method	'MofGen! by Chris Wilmer'
_symmetry_space_group_name_H-M	'P1'
_symmetry_Int_Tables_number	1
_symmetry_cell_setting	triclinic
loop_
_symmetry_equiv_pos_as_xyz
  x,y,z
_cell_length_a	8.559649
_cell_length_b	11.026607
_cell_length_c	7.088638
_cell_angle_alpha	82.415764
_cell_angle_beta	95.333776
_cell_angle_gamma	89.182341
loop_
_atom_site_label
_atom_site_type_symbol
_atom_site_fract_x
_atom_site_fract_y
_atom_site_fract_z
O1	O	2.121074	-0.053723	0.158963
O2	O	2.621074	0.446277	0.658963
O3	O	1.673427	0.007310	0.158972
O4	O	2.173427	0.507310	0.658972
O5	O	1.860149	-0.196401	0.158961
O6	O	2.360149	0.303599	0.658961
O7	O	1.934351	0.149988	0.158974
O8	O	2.434351	0.649988	0.658974
O9	O	1.835166	-0.169139	-0.159027
O10	O	2.335166	0.330861	0.340973
O11	O	1.648443	0.034573	-0.159017
O12	O	2.148443	0.534573	0.340983
O13	O	2.096090	-0.026461	-0.159025
O14	O	2.596090	0.473539	0.340975
Cu15	Cu	1.869985	0.006545	-0.188056
Cu16	Cu	2.369985	0.506545	0.311944
Cu17	Cu	1.899532	-0.025696	0.188003
Cu18	Cu	2.399532	0.474304	0.688003
O19	O	1.909368	0.177251	-0.159015
O20	O	2.409368	0.677251	0.340985
C21	C	1.602735	0.025567	-0.000021
C22	C	2.102735	0.525567	0.499979
C23	C	1.429316	0.039335	-0.000018
C24	C	1.929316	0.539335	0.499982
C25	C	1.833969	-0.226706	-0.000030
C26	C	2.333969	0.273294	0.499970
C27	C	1.793162	-0.357617	-0.000023
C28	C	2.293162	0.142383	0.499977
C29	C	1.905837	-0.441924	-0.000022
C30	C	2.405837	0.058076	0.499978
C31	C	1.863665	-0.577228	-0.000014
C32	C	2.363665	-0.077228	0.499986
C33	C	2.166782	-0.044718	-0.000028
C34	C	2.666782	0.455282	0.499972
C35	C	2.340203	-0.058487	-0.000019
C36	C	2.840203	0.441513	0.499981
C37	C	1.935549	0.207555	-0.000019
C38	C	2.435549	0.707555	0.499981
C39	C	1.976356	0.338465	-0.000014
C40	C	2.476356	0.838465	0.499986
N41	N	1.849216	0.029220	-0.452555
N42	N	2.349216	0.529220	0.047445
N43	N	1.920311	-0.048381	0.452502
N44	N	2.420311	0.451619	0.952502
H45	H	1.735971	-0.605215	0.000001
H46	H	2.235971	-0.105215	0.500001
H47	H	1.993954	-0.128794	-0.465803
H48	H	2.493954	0.371206	0.034197
N49	N	2.074977	-0.404861	-0.000048
N50	N	2.574977	0.095139	0.499952
H51	H	2.081127	-0.313456	-0.000063
H52	H	2.581127	0.186544	0.499937
H53	H	2.119181	-0.428129	-0.117943
H54	H	2.619181	0.071871	0.382057
H55	H	2.104063	-0.633564	0.000127
H56	H	2.604063	-0.133564	0.500127
H57	H	1.372932	0.133622	-0.000004
H58	H	1.872932	0.633622	0.499996
N59	N	1.414855	-0.183383	-0.000026
N60	N	1.914855	0.316617	0.499974
H61	H	1.491185	-0.203670	0.117849
H62	H	1.991185	0.296330	0.617849
H63	H	1.472570	-0.183371	-0.117986
H64	H	1.972570	0.316629	0.382014
H65	H	1.775564	0.109620	-0.534241
H66	H	2.275564	0.609620	-0.034241
N67	N	1.624023	-0.394679	-0.000000
N68	N	2.124023	0.105321	0.500000
H69	H	1.617872	-0.486084	0.000006
H70	H	2.117872	0.013916	0.500006
H71	H	1.561269	-0.351211	-0.117883
H72	H	2.061269	0.148789	0.382117
