data_functionalizedCrystal
_audit_creation_method	'MofGen! by Chris Wilmer'
_symmetry_space_group_name_H-M	'P1'
_symmetry_Int_Tables_number	1
_symmetry_cell_setting	triclinic
loop_
_symmetry_equiv_pos_as_xyz
  x,y,z
_cell_length_a	29.839131
_cell_length_b	14.908783
_cell_length_c	29.839125
_cell_angle_alpha	93.315207
_cell_angle_beta	90.011606
_cell_angle_gamma	93.332050
loop_
_atom_site_label
_atom_site_type_symbol
_atom_site_fract_x
_atom_site_fract_y
_atom_site_fract_z
Zn1	Zn	-0.139383	1.379091	0.293697
Zn2	Zn	-0.214491	1.378950	0.218563
Zn3	Zn	-0.143699	1.228236	0.214238
Zn4	Zn	-0.218817	1.228135	0.289324
O5	O	-0.179097	1.303603	0.253955
O6	O	-0.145729	1.505323	0.287370
O7	O	-0.205096	1.358941	0.155121
O8	O	-0.080256	1.248348	0.224798
O9	O	-0.200911	1.505219	0.232170
O10	O	-0.077085	1.359181	0.283176
O11	O	-0.153086	1.248212	0.151944
O12	O	-0.157280	1.101972	0.220558
O13	O	-0.208284	1.248176	0.352771
O14	O	-0.212469	1.101898	0.275723
O15	O	-0.149924	1.359083	0.355984
O16	O	-0.277935	1.358844	0.227929
O17	O	-0.281113	1.248040	0.279917
C18	C	-0.185813	1.069200	0.247197
C19	C	-0.188697	0.968921	0.244316
C20	C	-0.136733	0.780592	0.296471
C21	C	-0.139441	0.686371	0.293766
C22	C	-0.196818	0.686257	0.236199
C23	C	-0.194110	0.780478	0.238904
C24	C	-0.164067	0.827642	0.269042
C25	C	-0.161362	0.921865	0.271749
C26	C	-0.218736	0.921748	0.214179
C27	C	-0.221444	0.827528	0.211474
C28	C	-0.295825	1.303440	0.253928
C29	C	-0.345759	1.303453	0.253934
C30	C	-0.653727	1.361403	0.226930
C31	C	-0.841397	1.361515	0.226951
O32	O	-0.864241	1.410657	0.203970
N33	N	-0.866534	1.303790	0.253994
C34	C	-0.844751	1.246038	0.281037
O35	O	-0.870437	1.196949	0.304043
C36	C	-0.657081	1.245932	0.281018
C37	C	-0.631947	1.303654	0.253970
C38	C	-0.628593	1.419121	0.199884
C39	C	-0.581678	1.419089	0.199877
C40	C	-0.559898	1.361340	0.226917
C41	C	-0.585032	1.303622	0.253963
C42	C	-0.635299	1.188185	0.308063
C43	C	-0.588378	1.188165	0.308057
C44	C	-0.563244	1.245887	0.281008
C45	C	-0.516338	1.245840	0.280996
N46	N	-0.491201	1.303565	0.253952
C47	C	-0.512981	1.361314	0.226913
C48	C	-0.943280	1.246096	0.281044
C49	C	-0.990197	1.246122	0.281048
C50	C	-0.986840	1.361600	0.226963
C51	C	-0.939922	1.361569	0.226956
C52	C	-0.918143	1.303821	0.254001
C53	C	-0.414457	1.361242	0.226900
C54	C	-0.367539	1.361203	0.226895
C55	C	-0.370900	1.245728	0.280982
C56	C	-0.417814	1.245764	0.280986
C57	C	-0.439592	1.303529	0.253944
O58	O	-0.493463	1.196731	0.303968
O59	O	-0.487286	1.410410	0.203917
C60	C	-0.700642	1.361435	0.226937
C61	C	-0.725776	1.303717	0.253983
C62	C	-0.703996	1.245968	0.281023
C63	C	-0.772693	1.303743	0.253987
C64	C	-0.794473	1.361492	0.226948
C65	C	-0.769336	1.419217	0.199904
C66	C	-0.722422	1.419185	0.199897
C67	C	-0.729133	1.188243	0.308066
C68	C	-0.776047	1.188279	0.308070
C69	C	-0.797828	1.246029	0.281031
C70	C	-0.061913	1.303791	0.253993
C71	C	-0.011977	1.303871	0.254009
C72	C	-0.179105	1.303634	0.371134
C73	C	-0.179108	1.303648	0.421069
C74	C	-0.172356	1.538922	0.260740
C75	C	-0.169483	1.639200	0.263632
C76	C	-0.179056	1.303624	0.137233
C77	C	-0.178921	1.303786	0.087304
C78	C	-0.209391	1.245961	0.775985
C79	C	-0.209444	1.245929	0.588311
O80	O	-0.235279	1.196793	0.562623
N81	N	-0.179066	1.303668	0.566515
C82	C	-0.148671	1.361415	0.591640
O83	O	-0.122830	1.410518	0.568795
C84	C	-0.148616	1.361442	0.779313
C85	C	-0.178999	1.303705	0.801107
C86	C	-0.239771	1.188229	0.797779
C87	C	-0.239760	1.188241	0.844695
C88	C	-0.209367	1.245985	0.869817
C89	C	-0.178987	1.303718	0.848023
C90	C	-0.118219	1.419184	0.804437
C91	C	-0.118207	1.419184	0.851358
C92	C	-0.148590	1.361447	0.873152
C93	C	-0.148583	1.361474	0.920060
N94	N	-0.178961	1.303735	0.941857
C95	C	-0.209353	1.245991	0.916735
C96	C	-0.148702	1.361397	0.493109
C97	C	-0.148716	1.361392	0.446191
C98	C	-0.209489	1.245905	0.442865
C99	C	-0.209477	1.245915	0.489784
C100	C	-0.179080	1.303659	0.514905
C101	C	-0.209326	1.246021	1.015262
C102	C	-0.209313	1.246041	1.062182
C103	C	-0.148539	1.361525	1.065503
C104	C	-0.148554	1.361509	1.018587
C105	C	-0.178949	1.303750	0.993468
O106	O	-0.122759	1.410577	0.945776
O107	O	-0.235183	1.196881	0.939588
C108	C	-0.209403	1.245949	0.729070
C109	C	-0.179023	1.303681	0.707275
C110	C	-0.148631	1.361426	0.732397
C111	C	-0.179037	1.303676	0.660357
C112	C	-0.209429	1.245931	0.635236
C113	C	-0.239807	1.188192	0.657032
C114	C	-0.239795	1.188204	0.703948
C115	C	-0.118253	1.419165	0.710601
C116	C	-0.118267	1.419148	0.663685
C117	C	-0.148659	1.361404	0.638563
H118	H	-0.240996	0.960066	0.191847
H119	H	-0.353159	1.198706	0.302996
H120	H	-0.093452	1.466202	0.871809
H121	H	-0.925550	1.199068	0.303067
H122	H	-0.117182	0.648067	0.316101
N123	N	-0.253849	0.776652	0.178975
H124	H	-0.270755	0.820758	0.162009
H125	H	-0.236654	0.737566	0.157092
N126	N	-0.792834	1.481511	0.170744
H127	H	-0.769795	1.518079	0.153608
H128	H	-0.813379	1.444827	0.148884
H129	H	-0.221272	0.647839	0.211657
H130	H	-0.438280	1.198765	0.303013
H131	H	-0.136900	0.960264	0.296289
H132	H	-0.701960	1.466188	0.177872
H133	H	-0.347075	1.408207	0.204867
N134	N	-0.115758	1.423804	1.092601
H135	H	-0.132811	1.465588	1.113276
H136	H	-0.095995	1.387102	1.110980
N137	N	-0.705645	1.125950	0.337230
H138	H	-0.728692	1.089391	0.354361
H139	H	-0.687406	1.084210	0.317719
H140	H	-0.796508	1.141267	0.330096
H141	H	-0.432183	1.408282	0.204881
H142	H	-0.234056	1.199025	1.079924
H143	H	-0.112273	0.818994	0.321013
H144	H	-0.234074	1.198980	0.994814
N145	N	-0.272528	1.125964	0.868198
H146	H	-0.291779	1.089384	0.845159
H147	H	-0.255432	1.084241	0.886458
N148	N	-0.554572	1.481360	0.170710
H149	H	-0.575494	1.517949	0.153587
H150	H	-0.533886	1.523074	0.190220
H151	H	-0.646321	1.466153	0.177865
H152	H	-0.919460	1.408572	0.204931
N153	N	-0.272546	1.125926	0.770688
H154	H	-0.291784	1.089354	0.791620
H155	H	-0.292296	1.162599	0.752279
N156	N	-0.085466	1.481438	0.737693
H157	H	-0.066224	1.518006	0.716761
H158	H	-0.102546	1.523173	0.758365
N159	N	-1.010335	1.423886	0.197796
H160	H	-1.043870	1.415138	0.201906
H161	H	-1.000255	1.488306	0.206674
N162	N	-1.017304	1.183850	0.310214
H163	H	-0.996383	1.147265	0.327341
H164	H	-1.035694	1.220550	0.332081
H165	H	-0.655756	1.141177	0.330087
H166	H	-0.570648	1.141140	0.330081
H167	H	-0.264536	1.141189	0.721688
N168	N	-0.242246	1.183644	0.513289
H169	H	-0.261501	1.147067	0.490251
H170	H	-0.225151	1.141918	0.531548
H171	H	-0.123816	1.408529	1.000842
H172	H	-0.234236	1.198888	0.422403
H173	H	-0.123980	1.408416	0.428451
N174	N	-0.085494	1.481430	0.640185
H175	H	-0.065730	1.444792	0.619662
H176	H	-0.102587	1.523200	0.621949
H177	H	-0.123948	1.408423	0.513558
N178	N	-0.085449	1.481457	0.780938
H179	H	-0.066195	1.518029	0.803979
H180	H	-0.065714	1.444761	0.760413
H181	H	-0.264555	1.141178	0.636570
