data_functionalizedCrystal
_audit_creation_method	'MofGen! by Chris Wilmer'
_symmetry_space_group_name_H-M	'P1'
_symmetry_Int_Tables_number	1
_symmetry_cell_setting	triclinic
loop_
_symmetry_equiv_pos_as_xyz
  x,y,z
_cell_length_a	23.532407
_cell_length_b	23.532407
_cell_length_c	9.565339
_cell_angle_alpha	89.995586
_cell_angle_beta	90.001814
_cell_angle_gamma	82.848678
loop_
_atom_site_label
_atom_site_type_symbol
_atom_site_fract_x
_atom_site_fract_y
_atom_site_fract_z
O1	O	0.755259	0.069131	-0.116100
O2	O	1.088593	0.402464	0.217234
O3	O	1.421926	0.735797	0.550567
O4	O	0.589396	0.079134	-0.116143
O5	O	0.922729	0.412467	0.217191
O6	O	1.256062	0.745801	0.550524
O7	O	0.677329	-0.008799	-0.116094
O8	O	1.010662	0.324534	0.217239
O9	O	1.343996	0.657867	0.550572
O10	O	0.667326	0.157064	-0.116148
O11	O	1.000659	0.490397	0.217185
O12	O	1.333993	0.823731	0.550519
O13	O	0.677322	-0.008794	0.116426
O14	O	1.010656	0.324539	0.449759
O15	O	1.343989	0.657873	0.783093
O16	O	0.589389	0.079139	0.116377
O17	O	0.922722	0.412473	0.449711
O18	O	1.256056	0.745806	0.783044
O19	O	0.755252	0.069136	0.116421
O20	O	1.088586	0.402470	0.449754
O21	O	1.421919	0.735803	0.783087
Zn22	Zn	0.672319	0.074139	0.153317
Zn23	Zn	1.005653	0.407472	0.486650
Zn24	Zn	1.338986	0.740805	0.819983
Zn25	Zn	0.672329	0.074131	-0.153039
Zn26	Zn	1.005662	0.407465	0.180295
Zn27	Zn	1.338995	0.740798	0.513628
O28	O	0.667319	0.157070	0.116372
O29	O	1.000652	0.490403	0.449705
O30	O	1.333986	0.823736	0.783039
C31	C	0.568176	0.078882	0.000112
C32	C	0.901510	0.412215	0.333446
C33	C	1.234843	0.745549	0.666779
C34	C	0.504959	0.078116	0.000097
C35	C	0.838293	0.411449	0.333430
C36	C	1.171626	0.744783	0.666764
C37	C	0.105856	0.125350	0.000145
C38	C	0.439190	0.458683	0.333478
C39	C	0.772523	0.792016	0.666812
C40	C	0.046456	0.124638	0.000154
C41	C	0.379789	0.457971	0.333487
C42	C	0.713123	0.791305	0.666820
O43	O	0.009711	0.168424	0.000190
O44	O	0.343045	0.501757	0.333524
O45	O	0.676378	0.835091	0.666857
N46	N	0.023830	0.072362	0.000168
N47	N	0.357163	0.405695	0.333502
N48	N	0.690496	0.739028	0.666835
C49	C	0.060607	0.020794	0.000188
C50	C	0.393941	0.354127	0.333522
C51	C	0.727274	0.687460	0.666855
O52	O	0.035908	-0.023737	0.000203
O53	O	0.369241	0.309596	0.333536
O54	O	0.702574	0.642930	0.666870
C55	C	0.120006	0.021506	0.000190
C56	C	0.453340	0.354839	0.333523
C57	C	0.786673	0.688172	0.666856
C58	C	0.142629	0.073785	0.000161
C59	C	0.475962	0.407119	0.333494
C60	C	0.809296	0.740452	0.666828
C61	C	0.128479	0.177625	0.000118
C62	C	0.461813	0.510958	0.333451
C63	C	0.795146	0.844292	0.666784
C64	C	0.187876	0.178336	0.000106
C65	C	0.521209	0.511670	0.333440
C66	C	0.854542	0.845003	0.666773
C67	C	0.224649	0.126772	0.000122
C68	C	0.557982	0.460105	0.333456
C69	C	0.891315	0.793439	0.666789
C70	C	0.202025	0.074497	0.000149
C71	C	0.535359	0.407830	0.333483
C72	C	0.868692	0.741163	0.666816
C73	C	0.156783	-0.030062	0.000220
C74	C	0.490116	0.303271	0.333553
C75	C	0.823450	0.636605	0.666886
C76	C	0.216185	-0.029345	0.000222
C77	C	0.549519	0.303988	0.333555
C78	C	0.882852	0.637321	0.666889
C79	C	0.238808	0.022934	0.000193
C80	C	0.572141	0.356268	0.333527
C81	C	0.905475	0.689601	0.666860
C82	C	0.298194	0.023643	0.000154
C83	C	0.631528	0.356977	0.333487
C84	C	0.964861	0.690310	0.666821
N85	N	0.320820	0.075920	0.000139
N86	N	0.654154	0.409253	0.333473
N87	N	0.987487	0.742586	0.666806
C88	C	0.284048	0.127484	0.000123
C89	C	0.617381	0.460817	0.333457
C90	C	0.950714	0.794151	0.666790
C91	C	-0.064135	0.019302	0.000188
C92	C	0.269198	0.352635	0.333522
C93	C	0.602532	0.685969	0.666855
C94	C	-0.123533	0.018589	0.000177
C95	C	0.209800	0.351923	0.333510
C96	C	0.543134	0.685256	0.666844
C97	C	-0.137680	0.122434	0.000145
C98	C	0.195653	0.455768	0.333478
C99	C	0.528986	0.789101	0.666812
C100	C	-0.078281	0.123146	0.000146
C101	C	0.255052	0.456480	0.333480
C102	C	0.588385	0.789813	0.666813
C103	C	-0.041509	0.071578	0.000174
C104	C	0.291824	0.404912	0.333507
C105	C	0.625158	0.738245	0.666840
C106	C	0.408784	0.128974	0.000098
C107	C	0.742118	0.462307	0.333432
C108	C	1.075451	0.795640	0.666765
C109	C	0.468186	0.129680	0.000081
C110	C	0.801520	0.463014	0.333414
C111	C	1.134853	0.796347	0.666748
C112	C	0.482329	0.025836	0.000121
C113	C	0.815662	0.359169	0.333454
C114	C	1.148995	0.692503	0.666787
C115	C	0.422932	0.025129	0.000130
C116	C	0.756265	0.358462	0.333464
C117	C	1.089598	0.691796	0.666797
C118	C	0.386160	0.076702	0.000124
C119	C	0.719494	0.410036	0.333457
C120	C	1.052827	0.743369	0.666791
O121	O	0.334974	-0.020119	0.000123
O122	O	0.668307	0.313214	0.333456
O123	O	1.001640	0.646547	0.666790
O124	O	0.308755	0.172007	0.000127
O125	O	0.642089	0.505340	0.333461
O126	O	0.975422	0.838674	0.666794
C127	C	0.677071	-0.030013	0.000169
C128	C	1.010404	0.303321	0.333503
C129	C	1.343738	0.636654	0.666836
C130	C	0.676305	-0.093230	0.000180
C131	C	1.009638	0.240104	0.333513
C132	C	1.342972	0.573437	0.666847
C133	C	0.723539	-0.492333	0.000116
C134	C	1.056872	-0.158999	0.333449
C135	C	1.390205	0.174334	0.666782
C136	C	0.722827	-0.551733	0.000105
C137	C	1.056160	-0.218400	0.333438
C138	C	1.389494	0.114934	0.666771
O139	O	0.766613	-0.588478	0.000065
O140	O	1.099946	-0.255144	0.333398
O141	O	1.433280	0.078189	0.666731
N142	N	0.670551	-0.574359	0.000092
N143	N	1.003884	-0.241026	0.333426
N144	N	1.337217	0.092307	0.666759
C145	C	0.618983	-0.537582	0.000076
C146	C	0.952316	-0.204248	0.333410
C147	C	1.285649	0.129085	0.666743
O148	O	0.574452	-0.562281	0.000063
O149	O	0.907785	-0.228948	0.333397
O150	O	1.241119	0.104385	0.666730
C151	C	0.619695	-0.478182	0.000077
C152	C	0.953028	-0.144849	0.333410
C153	C	1.286361	0.188484	0.666744
C154	C	0.671974	-0.455560	0.000104
C155	C	1.005308	-0.122227	0.333437
C156	C	1.338641	0.211107	0.666770
C157	C	0.775814	-0.469710	0.000141
C158	C	1.109147	-0.136376	0.333474
C159	C	1.442481	0.196957	0.666807
C160	C	0.776525	-0.410313	0.000154
C161	C	1.109859	-0.076980	0.333487
C162	C	1.443192	0.256353	0.666821
C163	C	0.724961	-0.373540	0.000142
C164	C	1.058294	-0.040207	0.333476
C165	C	1.391628	0.293126	0.666809
C166	C	0.672685	-0.396164	0.000117
C167	C	1.006019	-0.062830	0.333451
C168	C	1.339352	0.270503	0.666784
C169	C	0.568127	-0.441406	0.000051
C170	C	0.901460	-0.108073	0.333384
C171	C	1.234794	0.225261	0.666718
C172	C	0.568844	-0.382004	0.000051
C173	C	0.902177	-0.048670	0.333384
C174	C	1.235510	0.284663	0.666717
C175	C	0.621123	-0.359381	0.000078
C176	C	0.954457	-0.026048	0.333411
C177	C	1.287790	0.307286	0.666744
C178	C	0.621832	-0.299995	0.000119
C179	C	0.955166	0.033339	0.333452
C180	C	1.288499	0.366672	0.666785
N181	N	0.674109	-0.277368	0.000131
N182	N	1.007442	0.055965	0.333465
N183	N	1.340775	0.389298	0.666798
C184	C	0.725673	-0.314141	0.000143
C185	C	1.059006	0.019192	0.333476
C186	C	1.392340	0.352525	0.666810
C187	C	0.617491	-0.662324	0.000072
C188	C	0.950824	-0.328991	0.333405
C189	C	1.284158	0.004343	0.666739
C190	C	0.616778	-0.721722	0.000081
C191	C	0.950112	-0.388389	0.333415
C192	C	1.283445	-0.055055	0.666748
C193	C	0.720623	-0.735869	0.000107
C194	C	1.053957	-0.402536	0.333441
C195	C	1.387290	-0.069203	0.666774
C196	C	0.721335	-0.676470	0.000108
C197	C	1.054669	-0.343137	0.333441
C198	C	1.388002	-0.009804	0.666775
C199	C	0.669767	-0.639698	0.000085
C200	C	1.003101	-0.306365	0.333418
C201	C	1.336434	0.026969	0.666751
C202	C	0.727163	-0.189405	0.000173
C203	C	1.060496	0.143929	0.333506
C204	C	1.393829	0.477262	0.666839
C205	C	0.727869	-0.130003	0.000192
C206	C	1.061203	0.203331	0.333525
C207	C	1.394536	0.536664	0.666858
C208	C	0.624025	-0.115860	0.000158
C209	C	0.957358	0.217473	0.333492
C210	C	1.290692	0.550806	0.666825
C211	C	0.623318	-0.175257	0.000147
C212	C	0.956651	0.158076	0.333480
C213	C	1.289985	0.491409	0.666813
C214	C	0.674891	-0.212029	0.000149
C215	C	1.008225	0.121305	0.333482
C216	C	1.341558	0.454638	0.666816
O217	O	0.578070	-0.263215	0.000153
O218	O	0.911403	0.070118	0.333487
O219	O	1.244736	0.403451	0.666820
O220	O	0.770196	-0.289433	0.000138
O221	O	1.103529	0.043900	0.333471
O222	O	1.436863	0.377233	0.666804
C223	C	0.776472	0.069388	0.000163
C224	C	1.109805	0.402722	0.333496
C225	C	1.443138	0.736055	0.666829
C226	C	0.839689	0.070154	0.000169
C227	C	1.173022	0.403487	0.333502
C228	C	1.506355	0.736821	0.666835
C229	C	0.667577	0.178283	0.000105
C230	C	1.000910	0.511616	0.333439
C231	C	1.334244	0.844949	0.666772
C232	C	0.668343	0.241500	0.000086
C233	C	1.001676	0.574833	0.333419
C234	C	1.335010	0.908167	0.666752
N235	N	0.672317	0.074143	0.362396
N236	N	1.005651	0.407477	0.695729
N237	N	1.338984	0.740810	1.029063
N238	N	0.672335	0.074122	-0.362118
N239	N	1.005669	0.407456	-0.028785
N240	N	1.339002	0.740789	0.304549
C241	C	0.631639	0.114796	0.453577
C242	C	0.964972	0.448130	0.786910
C243	C	1.298306	0.781463	1.120243
C244	C	0.683041	0.125556	0.546765
C245	C	1.016375	0.458889	0.880098
C246	C	1.349708	0.792223	1.213431
C247	C	0.620937	0.063388	0.546763
C248	C	0.954271	0.396721	0.880097
C249	C	1.287604	0.730054	1.213430
C250	C	0.723745	0.084929	0.453532
C251	C	1.057079	0.418262	0.786866
C252	C	1.390412	0.751595	1.120199
C253	C	0.661608	0.022738	0.453523
C254	C	0.994941	0.356071	0.786856
C255	C	1.328274	0.689405	1.120189
C256	C	0.713047	0.033476	0.546669
C257	C	1.046381	0.366809	0.880002
C258	C	1.379714	0.700142	1.213335
H259	H	0.378851	0.170970	0.000098
H260	H	0.712185	0.504303	0.333431
H261	H	1.045518	0.837637	0.666764
C262	C	0.777345	-0.776325	0.000110
C263	C	1.110678	-0.442991	0.333443
C264	C	1.444012	-0.109658	0.666776
H265	H	0.808585	-0.754348	0.000130
H266	H	1.141918	-0.421014	0.333463
H267	H	1.475251	-0.087681	0.666797
H268	H	0.779224	-0.799787	-0.080977
H269	H	1.112558	-0.466453	0.252356
H270	H	1.445891	-0.133120	0.585690
H271	H	0.779221	-0.799793	0.081203
H272	H	1.112554	-0.466460	0.414536
H273	H	1.445888	-0.133127	0.747870
H274	H	0.512280	-0.016146	0.000128
H275	H	0.845613	0.317187	0.333462
H276	H	1.178946	0.650520	0.666795
C277	C	0.695292	0.184267	0.602115
C278	C	1.028625	0.517600	0.935448
C279	C	1.361959	0.850933	1.268782
H280	H	0.666349	0.213118	0.570253
H281	H	0.999682	0.546451	0.903586
H282	H	1.333015	0.879785	1.236920
H283	H	0.731518	0.192183	0.568828
H284	H	1.064851	0.525516	0.902162
H285	H	1.398185	0.858850	1.235495
H286	H	0.695552	0.183722	0.701422
H287	H	1.028886	0.517055	1.034756
H288	H	1.362219	0.850389	1.368089
H289	H	0.767213	0.094069	0.412752
H290	H	1.100547	0.427402	0.746085
H291	H	1.433880	0.760735	1.079419
C292	C	0.510620	-0.466281	0.000005
C293	C	0.843953	-0.132947	0.333338
C294	C	1.177287	0.200386	0.666671
H295	H	0.517572	-0.506924	0.000010
H296	H	0.850905	-0.173591	0.333343
H297	H	1.184238	0.159743	0.666677
H298	H	0.489413	-0.453630	-0.081092
H299	H	0.822747	-0.120296	0.252241
H300	H	1.156080	0.213037	0.585575
H301	H	0.489398	-0.453640	0.081088
H302	H	0.822731	-0.120307	0.414421
H303	H	1.156064	0.213026	0.747754
H304	H	0.575496	-0.632386	0.000065
H305	H	0.908829	-0.299053	0.333398
H306	H	1.242162	0.034280	0.666732
H307	H	0.770443	-0.111587	0.000217
H308	H	1.103777	0.221746	0.333550
H309	H	1.437110	0.555080	0.666884
C310	C	-0.148412	-0.038918	0.000195
C311	C	0.184922	0.294415	0.333529
C312	C	0.518255	0.627749	0.666862
H313	H	-0.117999	-0.069523	0.000213
H314	H	0.215334	0.263811	0.333546
H315	H	0.548668	0.597144	0.666879
H316	H	-0.171293	-0.041360	-0.080883
H317	H	0.162041	0.291973	0.252451
H318	H	0.495374	0.625307	0.585784
H319	H	-0.171284	-0.041354	0.081297
H320	H	0.162049	0.291980	0.414631
H321	H	0.495383	0.625313	0.747964
H322	H	0.246123	-0.071339	0.000245
H323	H	0.579457	0.261994	0.333579
H324	H	0.912790	0.595327	0.666912
C325	C	0.649335	-0.035956	0.398132
C326	C	0.982669	0.297378	0.731465
C327	C	1.316002	0.630711	1.064799
H328	H	0.680832	-0.052515	0.343489
H329	H	1.014166	0.280818	0.676822
H330	H	1.347499	0.614152	1.010156
H331	H	0.615755	-0.031140	0.342088
H332	H	0.949088	0.302193	0.675421
H333	H	1.282421	0.635527	1.008754
H334	H	0.643853	-0.060427	0.474657
H335	H	0.977187	0.272906	0.807990
H336	H	1.310520	0.606240	1.141323
H337	H	0.577479	0.054300	0.587719
H338	H	0.910812	0.387633	0.921053
H339	H	1.244146	0.720966	1.254386
H340	H	0.404512	-0.017441	0.000133
H341	H	0.737845	0.315892	0.333467
H342	H	1.071178	0.649225	0.666800
H343	H	0.817806	-0.499645	0.000145
H344	H	1.151140	-0.166312	0.333478
H345	H	1.484473	0.167022	0.666812
C346	C	0.493068	0.187190	0.000057
C347	C	0.826401	0.520523	0.333391
C348	C	1.159734	0.853857	0.666724
H349	H	0.462657	0.217797	0.000065
H350	H	0.795990	0.551130	0.333398
H351	H	1.129323	0.884463	0.666731
H352	H	0.515943	0.189628	-0.081031
H353	H	0.849276	0.522961	0.252303
H354	H	1.182609	0.856294	0.585636
H355	H	0.515947	0.189628	0.081149
H356	H	0.849280	0.522961	0.414483
H357	H	1.182613	0.856295	0.747816
C358	C	0.783892	-0.229845	0.000187
C359	C	1.117225	0.103489	0.333520
C360	C	1.450559	0.436822	0.666854
H361	H	0.815123	-0.207856	0.000217
H362	H	1.148457	0.125477	0.333550
H363	H	1.481790	0.458810	0.666884
H364	H	0.785784	-0.253308	-0.080898
H365	H	1.119117	0.080025	0.252435
H366	H	1.452450	0.413358	0.585769
H367	H	0.785771	-0.253312	0.081282
H368	H	1.119104	0.080021	0.414615
H369	H	1.452438	0.413354	0.747949
C370	C	0.212756	0.235843	0.000085
C371	C	0.546089	0.569176	0.333418
C372	C	0.879423	0.902509	0.666752
H373	H	0.253399	0.228889	0.000074
H374	H	0.586732	0.562223	0.333407
H375	H	0.920066	0.895556	0.666740
H376	H	0.200112	0.257060	0.081163
H377	H	0.533445	0.590393	0.414496
H378	H	0.866779	0.923727	0.747829
H379	H	0.200109	0.257055	-0.081017
H380	H	0.533442	0.590388	0.252316
H381	H	0.866776	0.923722	0.585649
H382	H	0.747493	-0.000914	0.587286
H383	H	1.080826	0.332419	0.920619
H384	H	1.414159	0.665752	1.253953
H385	H	0.819097	-0.391900	0.000170
H386	H	1.152430	-0.058567	0.333504
H387	H	1.485763	0.274767	0.666837
H388	H	0.763906	-0.658056	0.000129
H389	H	1.097239	-0.324722	0.333462
H390	H	1.430573	0.008611	0.666795
H391	H	0.580748	-0.193677	0.000164
H392	H	0.914081	0.139656	0.333497
H393	H	1.247414	0.472989	0.666830
C394	C	0.559271	-0.746601	0.000063
C395	C	0.892604	-0.413267	0.333397
C396	C	1.225938	-0.079934	0.666730
H397	H	0.528666	-0.716188	0.000048
H398	H	0.861999	-0.382855	0.333381
H399	H	1.195333	-0.049521	0.666714
H400	H	0.556828	-0.769484	0.081140
H401	H	0.890161	-0.436150	0.414473
H402	H	1.223494	-0.102817	0.747807
H403	H	0.556836	-0.769471	-0.081040
H404	H	0.890170	-0.436137	0.252293
H405	H	1.223503	-0.102804	0.585627
H406	H	0.526850	-0.352066	0.000030
H407	H	0.860183	-0.018732	0.333363
H408	H	1.193516	0.314601	0.666696
H409	H	0.582043	-0.085909	0.000154
H410	H	0.915376	0.247424	0.333487
H411	H	1.248709	0.580757	0.666820
H412	H	-0.034198	-0.022693	0.000198
H413	H	0.299136	0.310640	0.333532
H414	H	0.632469	0.643973	0.666865
C415	C	0.585210	0.161275	0.398339
C416	C	0.918544	0.494609	0.731673
C417	C	1.251877	0.827942	1.065006
H418	H	0.558406	0.143896	0.343695
H419	H	0.891740	0.477229	0.677029
H420	H	1.225073	0.810563	1.010362
H421	H	0.602548	0.187669	0.342326
H422	H	0.935881	0.521003	0.675660
H423	H	1.269214	0.854336	1.008993
H424	H	0.566027	0.180929	0.474929
H425	H	0.899360	0.514263	0.808262
H426	H	1.232694	0.847596	1.141596
C427	C	0.088035	0.234349	0.000091
C428	C	0.421368	0.567683	0.333424
C429	C	0.754702	0.901016	0.666757
H430	H	0.049416	0.226448	0.000100
H431	H	0.382749	0.559781	0.333433
H432	H	0.716083	0.893115	0.666767
H433	H	0.094869	0.255792	-0.081005
H434	H	0.428203	0.589126	0.252329
H435	H	0.761536	0.922459	0.585662
H436	H	0.094866	0.255802	0.081175
H437	H	0.428199	0.589135	0.414509
H438	H	0.761533	0.922468	0.747842
C439	C	-0.178138	0.179155	0.000140
C440	C	0.155195	0.512488	0.333473
C441	C	0.488528	0.845821	0.666807
H442	H	-0.216753	0.171239	0.000158
H443	H	0.116581	0.504572	0.333491
H444	H	0.449914	0.837906	0.666825
H445	H	-0.171317	0.200607	-0.080949
H446	H	0.162016	0.533940	0.252384
H447	H	0.495350	0.867274	0.585717
H448	H	-0.171311	0.200605	0.081231
H449	H	0.162023	0.533938	0.414564
H450	H	0.495356	0.867271	0.747897
C451	C	-0.053402	0.180653	0.000127
C452	C	0.279932	0.513986	0.333460
C453	C	0.613265	0.847320	0.666794
H454	H	-0.083814	0.211258	0.000124
H455	H	0.249519	0.544591	0.333457
H456	H	0.582852	0.877925	0.666791
H457	H	-0.030523	0.183091	-0.080955
H458	H	0.302810	0.516424	0.252379
H459	H	0.636143	0.849757	0.585712
H460	H	-0.030527	0.183093	0.081225
H461	H	0.302806	0.516427	0.414559
H462	H	0.636140	0.849760	0.747892
H463	H	0.138375	-0.072634	0.000244
H464	H	0.471708	0.260700	0.333578
H465	H	0.805041	0.594033	0.666911
