data_functionalizedCrystal
_audit_creation_method	'MofGen! by Chris Wilmer'
_symmetry_space_group_name_H-M	'P1'
_symmetry_Int_Tables_number	1
_symmetry_cell_setting	triclinic
loop_
_symmetry_equiv_pos_as_xyz
  x,y,z
_cell_length_a	10.654545
_cell_length_b	19.288857
_cell_length_c	9.730223
_cell_angle_alpha	89.993455
_cell_angle_beta	89.997167
_cell_angle_gamma	83.808094
loop_
_atom_site_label
_atom_site_type_symbol
_atom_site_fract_x
_atom_site_fract_y
_atom_site_fract_z
O1	O	1.665750	0.097540	-0.114283
O2	O	1.300071	0.106838	-0.114290
O3	O	1.493482	0.001127	-0.114270
O4	O	1.472339	0.203250	-0.114303
O5	O	1.493469	0.001124	0.114310
O6	O	1.300059	0.106835	0.114290
O7	O	1.665737	0.097537	0.114296
Zn8	Zn	1.482896	0.102185	0.150585
Zn9	Zn	1.482912	0.102189	-0.150579
O10	O	1.472326	0.203247	0.114277
C11	C	1.253281	0.106154	-0.000001
C12	C	1.113882	0.104114	-0.000002
C13	C	1.048391	0.103151	0.124597
C14	C	0.917413	0.101223	0.124598
C15	C	0.917427	0.101221	-0.124613
C16	C	1.048404	0.103145	-0.124612
C17	C	1.492797	-0.024755	0.000021
C18	C	1.490759	-0.101872	0.000025
C19	C	1.489815	-0.138088	-0.124574
C20	C	1.487883	-0.210546	-0.124584
C21	C	1.486920	-0.246789	0.000012
C22	C	1.487858	-0.210564	0.124627
C23	C	1.489777	-0.138106	0.124634
C24	C	1.557428	-0.366560	0.095461
C25	C	1.555517	-0.439018	0.095449
C26	C	1.480994	-0.470273	-0.000004
C27	C	1.408400	-0.429064	-0.095468
C28	C	1.410320	-0.356606	-0.095461
C29	C	1.484838	-0.325357	0.000018
C30	C	1.477953	-0.585056	-0.124623
C31	C	1.476013	-0.657516	-0.124628
C32	C	1.476001	-0.657533	0.124587
C33	C	1.477928	-0.585074	0.124589
C34	C	1.478910	-0.548841	-0.000020
C35	C	1.712527	0.098220	0.000004
C36	C	1.851927	0.100261	-0.000003
C37	C	1.473011	0.229130	-0.000018
C38	C	1.475049	0.306247	-0.000031
N39	N	1.482894	0.102182	0.356122
N40	N	1.482924	0.102187	-0.356115
C41	C	1.568565	0.055394	0.428056
C42	C	1.568578	0.055394	0.571939
C43	C	1.397244	0.148978	0.571940
C44	C	1.397226	0.148973	0.428060
H45	H	0.864099	0.100433	-0.226065
H46	H	1.490611	-0.108590	-0.226040
C47	C	1.120449	0.104199	-0.261688
N48	N	1.174714	0.104990	-0.364930
C49	C	1.662812	0.003917	0.651061
N50	N	1.733790	-0.034860	0.710655
H51	H	1.327497	0.187075	0.630527
H52	H	1.614632	-0.472565	0.173177
C53	C	1.662792	0.003917	0.348929
N54	N	1.733762	-0.034860	0.289335
H55	H	1.618112	-0.341118	0.173201
C56	C	1.486796	-0.250432	0.261683
N57	N	1.485991	-0.280460	0.364918
C58	C	1.120414	0.104209	0.261671
N59	N	1.174659	0.105002	0.364919
H60	H	1.327457	0.187075	0.369487
H61	H	1.475238	-0.687001	-0.226096
C62	C	1.490823	-0.098269	0.261709
N63	N	1.491615	-0.068262	0.364956
C64	C	1.486837	-0.250391	-0.261658
N65	N	1.486047	-0.280399	-0.364903
H66	H	0.864096	0.100439	0.226060
H67	H	1.351208	-0.323056	-0.173189
C68	C	1.478980	-0.545237	0.261660
N69	N	1.479770	-0.515231	0.364908
H70	H	1.347717	-0.454510	-0.173195
C71	C	1.479015	-0.545196	-0.261694
N72	N	1.479811	-0.515174	-0.364937
H73	H	1.475207	-0.687040	0.226036
