data_functionalizedCrystal
_audit_creation_method	'MofGen! by Chris Wilmer'
_symmetry_space_group_name_H-M	'P1'
_symmetry_Int_Tables_number	1
_symmetry_cell_setting	triclinic
loop_
_symmetry_equiv_pos_as_xyz
  x,y,z
_cell_length_a	10.723023
_cell_length_b	10.489741
_cell_length_c	9.198806
_cell_angle_alpha	90.003164
_cell_angle_beta	90.003822
_cell_angle_gamma	84.503361
loop_
_atom_site_label
_atom_site_type_symbol
_atom_site_fract_x
_atom_site_fract_y
_atom_site_fract_z
O1	O	1.657298	0.178902	0.120888
O2	O	1.294156	0.196028	0.120891
O3	O	1.483990	0.001862	0.120881
O4	O	1.467464	0.373068	0.120898
O5	O	1.483975	0.001860	-0.120904
O6	O	1.294141	0.196026	-0.120894
O7	O	1.657283	0.178900	-0.120897
Cu8	Cu	1.475710	0.187463	-0.142972
Cu9	Cu	1.475728	0.187465	0.142966
O10	O	1.467448	0.373066	-0.120887
C11	C	1.247648	0.194781	-0.000001
C12	C	1.109091	0.191053	0.000000
C13	C	0.904112	0.185537	-0.125246
C14	C	1.047317	0.189390	-0.125250
C15	C	1.482734	-0.045670	-0.000011
C16	C	1.479000	-0.187297	-0.000008
C17	C	1.358214	-0.255360	0.000004
C18	C	1.415265	-0.347520	-0.119210
C19	C	1.415308	-0.347493	0.119172
C20	C	1.536100	-0.277592	-0.119320
C21	C	1.536127	-0.277555	0.119168
C22	C	1.593265	-0.369688	-0.000074
C23	C	1.703791	0.180147	-0.000002
C24	C	1.842347	0.183875	0.000006
C25	C	1.468704	0.420598	0.000008
C26	C	1.472439	0.562225	0.000015
N27	N	1.475707	0.187461	-0.344086
C28	C	1.548517	0.261427	-0.416281
C29	C	1.548536	0.261425	-0.583694
N30	N	1.475741	0.187457	0.344080
H31	H	1.055983	0.189621	0.107239
H32	H	0.850971	0.184113	-0.232476
C33	C	1.119063	0.191320	-0.270126
C34	C	1.195424	0.304301	-0.306239
C35	C	1.267172	0.306231	-0.451120
C36	C	1.262558	0.195179	-0.559887
C37	C	1.186193	0.082190	-0.523776
C38	C	1.114445	0.080260	-0.378895
H39	H	1.198843	0.386515	-0.225721
H40	H	1.323703	0.389873	-0.477851
H41	H	1.315670	0.196608	-0.667136
H42	H	1.182775	-0.000024	-0.604294
H43	H	1.057915	-0.003382	-0.352164
H44	H	1.364151	-0.378499	-0.219995
H45	H	1.610865	0.324757	-0.645780
H46	H	0.895486	0.185313	0.107236
H47	H	1.258904	-0.205645	-0.000115
H48	H	1.587157	-0.246793	-0.220218
H49	H	1.692664	-0.419175	-0.000141
H50	H	1.587197	-0.246543	0.219959
H51	H	1.364192	-0.378423	0.219967
H52	H	1.610843	0.324747	-0.354150
H53	H	1.413397	0.124135	-0.593843
H54	H	1.413389	0.124132	-0.406218
