data_functionalizedCrystal
_audit_creation_method	'MofGen! by Chris Wilmer'
_symmetry_space_group_name_H-M	'P1'
_symmetry_Int_Tables_number	1
_symmetry_cell_setting	triclinic
loop_
_symmetry_equiv_pos_as_xyz
  x,y,z
_cell_length_a	10.968023
_cell_length_b	17.766277
_cell_length_c	10.967962
_cell_angle_alpha	77.876510
_cell_angle_beta	82.165761
_cell_angle_gamma	77.883553
loop_
_atom_site_label
_atom_site_type_symbol
_atom_site_fract_x
_atom_site_fract_y
_atom_site_fract_z
O1	O	-1.657095	0.174993	-0.174955
O2	O	-1.157095	0.674993	0.325045
O3	O	-1.293964	0.130076	-0.191723
O4	O	-0.793964	0.630076	0.308277
O5	O	-1.483912	0.130072	-0.001767
O6	O	-0.983912	0.630072	0.498233
O7	O	-1.467147	0.174996	-0.364911
O8	O	-0.967147	0.674996	0.135089
O9	O	-1.483878	0.255255	-0.001757
O10	O	-0.983878	0.755255	0.498243
O11	O	-1.293930	0.255258	-0.191713
O12	O	-0.793930	0.755258	0.308287
O13	O	-1.657062	0.300175	-0.174945
O14	O	-1.157062	0.800175	0.325055
Cu15	Cu	-1.475493	0.289147	-0.183328
Cu16	Cu	-0.975493	0.789147	0.316672
Cu17	Cu	-1.475533	0.141104	-0.183340
Cu18	Cu	-0.975533	0.641104	0.316660
O19	O	-1.467114	0.300179	-0.364901
O20	O	-0.967114	0.800179	0.135099
C21	C	-1.247450	0.186479	-0.190501
C22	C	-0.747450	0.686479	0.309499
C23	C	-1.108904	0.168040	-0.186859
C24	C	-0.608904	0.668040	0.313141
N25	N	-1.475474	0.393274	-0.183319
N26	N	-0.975474	0.893274	0.316681
C27	C	-1.482677	0.186474	0.044736
C28	C	-0.982677	0.686474	0.544736
C29	C	-1.479034	0.168027	0.183286
C30	C	-0.979034	0.668027	0.683286
C31	C	-0.903917	0.205603	-0.181453
C32	C	-0.403917	0.705603	0.318547
C33	C	-1.047110	0.224669	-0.185226
C34	C	-0.547110	0.724669	0.314774
C35	C	-0.703575	0.243775	-0.176170
C36	C	-0.203575	0.743775	0.323830
C37	C	-0.842120	0.262224	-0.179820
C38	C	-0.342120	0.762224	0.320180
N39	N	-1.475561	0.036977	-0.183339
N40	N	-0.975561	0.536977	0.316661
C41	C	-1.559610	0.432668	-0.099248
C42	C	-1.059610	0.932668	0.400752
C43	C	-1.559618	0.511470	-0.099243
C44	C	-1.059618	1.011470	0.400757
C45	C	-1.475500	0.550879	-0.183329
C46	C	-0.975500	1.050879	0.316671
C47	C	-1.391347	0.511474	-0.267406
C48	C	-0.891347	1.011474	0.232594
C49	C	-1.391334	0.432671	-0.267401
C50	C	-0.891334	0.932671	0.232599
C51	C	-1.460119	0.688444	-0.296839
C52	C	-0.960119	1.188444	0.203161
C53	C	-1.460141	0.767247	-0.296846
C54	C	-0.960141	1.267247	0.203154
C55	C	-1.475534	0.793932	-0.183344
C56	C	-0.975534	1.293932	0.316656
C57	C	-1.490930	0.741808	-0.069831
C58	C	-0.990930	1.241808	0.430169
C59	C	-1.490917	0.663005	-0.069826
C60	C	-0.990917	1.163005	0.430174
C61	C	-1.475504	0.636327	-0.183343
C62	C	-0.975504	1.136327	0.316657
C63	C	-1.559683	0.918772	-0.099261
C64	C	-1.059683	1.418772	0.400739
C65	C	-1.559681	0.997574	-0.099253
C66	C	-1.059681	1.497574	0.400747
C67	C	-1.391417	0.997578	-0.267427
C68	C	-0.891417	1.497578	0.232573
C69	C	-1.391412	0.918776	-0.267424
C70	C	-0.891412	1.418776	0.232576
C71	C	-1.475552	0.879378	-0.183342
C72	C	-0.975552	1.379378	0.316658
C73	C	-1.477392	0.224651	0.245068
C74	C	-0.977392	0.724651	0.745068
C75	C	-1.473627	0.205587	0.388267
C76	C	-0.973627	0.705587	0.888267
C77	C	-1.468347	0.243776	0.588596
C78	C	-0.968347	0.743776	1.088596
C79	C	-1.471985	0.262219	0.450045
C80	C	-0.971985	0.762219	0.950045
H81	H	-0.850814	0.143010	-0.180050
H82	H	-0.350814	0.643010	0.319950
H83	H	-1.628134	0.543551	-0.030780
H84	H	-1.128134	1.043551	0.469220
F85	F	-1.649228	1.039501	-0.009763
F86	F	-1.149228	1.539501	0.490237
H87	H	-1.100210	0.287264	-0.186615
H88	H	-0.600210	0.787264	0.313385
F89	F	-1.039504	0.086224	-0.185058
F90	F	-0.539504	0.586224	0.314942
F91	F	-1.471830	0.123771	0.457690
F92	F	-0.971830	0.623771	0.957690
H93	H	-1.478781	0.287243	0.191948
H94	H	-0.978781	0.787243	0.691948
F95	F	-1.473801	0.344038	0.380627
F96	F	-0.973801	0.844038	0.880627
F97	F	-0.911525	0.344037	-0.181635
F98	F	-0.411525	0.844037	0.318365
H99	H	-1.477658	0.105437	0.236408
H100	H	-0.977658	0.605437	0.736408
H101	H	-1.322905	0.886700	-0.335887
H102	H	-0.822905	1.386700	0.164113
F103	F	-1.507293	0.607532	0.050979
F104	F	-1.007293	1.107532	0.550979
H105	H	-1.447563	0.666723	-0.389272
H106	H	-0.947563	1.166723	0.110728
F107	F	-1.649226	0.876840	-0.009769
F108	F	-1.149226	1.376840	0.490231
H109	H	-1.628119	0.400593	-0.030781
H110	H	-1.128119	0.900593	0.469219
H111	H	-1.322855	0.543564	-0.335868
H112	H	-0.822855	1.043564	0.164132
H113	H	-1.503464	0.763532	0.022592
H114	H	-1.003464	1.263532	0.522592
F115	F	-1.301885	1.039514	-0.356911
F116	F	-0.801885	1.539514	0.143089
H117	H	-1.447612	0.809682	-0.389275
H118	H	-0.947612	1.309682	0.110725
F119	F	-1.301781	0.390743	-0.356884
F120	F	-0.801781	0.890743	0.143116
