data_functionalizedCrystal
_audit_creation_method	'MofGen! by Chris Wilmer'
_symmetry_space_group_name_H-M	'P1'
_symmetry_Int_Tables_number	1
_symmetry_cell_setting	triclinic
loop_
_symmetry_equiv_pos_as_xyz
  x,y,z
_cell_length_a	10.489741
_cell_length_b	15.538191
_cell_length_c	14.185569
_cell_angle_alpha	82.127072
_cell_angle_beta	103.293762
_cell_angle_gamma	65.905634
loop_
_atom_site_label
_atom_site_type_symbol
_atom_site_fract_x
_atom_site_fract_y
_atom_site_fract_z
O1	O	1.592397	0.153564	-0.083347
O2	O	1.215281	0.166004	-0.083362
O3	O	1.477245	0.023153	-0.083357
O4	O	1.330433	0.296415	-0.083353
O5	O	1.554630	-0.019042	0.083479
O6	O	1.292666	0.123809	0.083474
O7	O	1.669781	0.111369	0.083489
Cu8	Cu	1.488289	0.113737	0.098715
Cu9	Cu	1.396773	0.163637	-0.098588
O10	O	1.407817	0.254220	0.083483
C11	C	1.531297	-0.032935	0.000059
C12	C	1.577047	-0.137196	0.000050
C13	C	1.206887	0.143968	0.000054
C14	C	1.066591	0.141159	0.000048
C15	C	1.122492	-0.428071	0.000054
C16	C	1.165519	-0.526046	0.000058
C17	C	1.407530	-0.546850	0.000067
C18	C	1.364521	-0.448873	0.000058
C19	C	1.222000	-0.389492	0.000053
C20	C	1.464030	-0.410294	0.000057
C21	C	1.421026	-0.312327	0.000053
C22	C	1.278513	-0.252940	0.000051
C23	C	1.178997	-0.291525	0.000049
C24	C	1.606553	-0.469679	0.000070
C25	C	1.706061	-0.431099	0.000068
C26	C	1.663055	-0.333129	0.000058
C27	C	1.520542	-0.273742	0.000055
C28	C	1.762572	-0.294544	0.000059
C29	C	1.719568	-0.196578	0.000056
C30	C	1.477539	-0.175776	0.000052
C31	C	1.041669	0.050266	0.000056
C32	C	0.890975	0.114006	-0.082200
C33	C	0.967293	0.072427	0.082287
C34	C	0.917714	0.204953	-0.082276
C35	C	0.994082	0.163343	0.082285
C36	C	0.843375	0.227153	0.000009
C37	C	1.678174	0.133406	0.000070
C38	C	1.818467	0.136216	0.000070
C39	C	1.353764	0.310309	0.000066
C40	C	1.308011	0.414572	0.000067
N41	N	1.552666	0.078639	0.237487
N42	N	1.332410	0.198727	-0.237361
C43	C	1.143289	0.301803	0.605128
C44	C	1.192060	0.275223	0.710151
C45	C	1.424042	0.148777	0.710117
C46	C	1.375288	0.175343	0.605092
C47	C	1.234911	0.251857	0.552606
C48	C	1.466910	0.125397	0.552570
C49	C	1.418162	0.151964	0.447554
C50	C	1.277793	0.228478	0.395061
C51	C	1.186164	0.278425	0.447591
C52	C	1.607290	0.048887	0.605058
C53	C	1.698912	-0.001059	0.552536
C54	C	1.650161	0.025504	0.447518
C55	C	1.509792	0.102017	0.395025
C56	C	1.741790	-0.024443	0.394989
C57	C	1.693043	0.002124	0.289973
C58	C	1.461044	0.128585	0.290009
H59	H	1.361481	-0.127421	0.000040
H60	H	1.538341	0.086480	0.752863
H61	H	1.856092	-0.086736	0.437736
H62	H	1.117438	0.315903	0.752909
H63	H	1.084482	-0.557456	0.000074
H64	H	1.071849	0.340724	0.404855
H65	H	1.028974	0.364102	0.562392
H66	H	1.238107	0.250111	0.309551
H67	H	1.646978	0.027262	0.690568
H68	H	1.813211	-0.063356	0.595282
H69	H	1.243505	-0.173172	0.000054
H70	H	1.767653	-0.038546	0.247209
H71	H	1.062939	-0.243171	0.000037
H72	H	1.039117	0.184180	0.151832
H73	H	1.523572	-0.595212	0.000075
H74	H	1.641557	-0.549447	0.000063
H75	H	1.822104	-0.479462	0.000077
H76	H	1.006434	-0.379717	0.000042
H77	H	1.878616	-0.342910	0.000074
H78	H	1.800599	-0.165167	0.000056
H79	H	1.126835	-0.024426	-0.000048
H80	H	0.845988	0.093136	-0.151744
H81	H	1.346729	0.190884	0.247273
H82	H	0.897979	0.260989	-0.151896
H83	H	0.758369	0.301962	-0.000035
H84	H	0.986864	0.016364	0.151829
