data_functionalizedCrystal
_audit_creation_method	'MofGen! by Chris Wilmer'
_symmetry_space_group_name_H-M	'P1'
_symmetry_Int_Tables_number	1
_symmetry_cell_setting	triclinic
loop_
_symmetry_equiv_pos_as_xyz
  x,y,z
_cell_length_a	15.538191
_cell_length_b	15.625429
_cell_length_c	14.185328
_cell_angle_alpha	122.263589
_cell_angle_beta	108.252531
_cell_angle_gamma	66.736792
loop_
_atom_site_label
_atom_site_type_symbol
_atom_site_fract_x
_atom_site_fract_y
_atom_site_fract_z
O1	O	1.243976	-0.296174	-0.024290
O2	O	0.978986	-0.186378	0.015644
O3	O	1.107073	-0.382289	-0.055618
O4	O	1.115890	-0.100264	0.046972
O5	O	1.066793	-0.407614	-0.231674
O6	O	0.938707	-0.211704	-0.160412
O7	O	1.203697	-0.321500	-0.200346
Cu8	Cu	1.067524	-0.268915	-0.196454
Cu9	Cu	1.115159	-0.238964	0.011752
O10	O	1.075610	-0.125590	-0.129084
C11	C	0.924721	-0.187554	-0.068206
C12	C	0.823036	-0.153336	-0.055761
C13	C	1.083341	-0.430164	-0.156453
C14	C	1.072626	-0.535083	-0.194612
C15	C	0.506547	-0.493280	-0.179403
C16	C	0.410998	-0.461103	-0.167698
C17	C	0.403836	-0.280115	-0.101862
C18	C	0.499385	-0.312278	-0.113567
C19	C	0.550734	-0.418861	-0.152337
C20	C	0.543572	-0.237859	-0.086501
C21	C	0.639114	-0.270019	-0.098200
C22	C	0.690469	-0.376597	-0.136965
C23	C	0.646276	-0.451021	-0.164036
C24	C	0.492223	-0.131275	-0.047723
C25	C	0.536409	-0.056857	-0.020657
C26	C	0.631951	-0.089017	-0.032363
C27	C	0.683307	-0.195595	-0.071128
C28	C	0.676145	-0.014593	-0.005292
C29	C	0.771687	-0.046753	-0.016991
C30	C	0.778849	-0.227755	-0.082827
C31	C	1.257963	-0.320324	-0.116494
C32	C	1.359650	-0.354541	-0.128932
C33	C	1.147132	-0.811121	0.159691
C34	C	1.137052	-0.909711	0.123803
C35	C	1.093142	-0.937306	-0.068121
C36	C	1.103223	-0.838718	-0.032249
C37	C	1.130217	-0.775633	0.081658
C38	C	1.086308	-0.803230	-0.110282
C39	C	1.096384	-0.704649	-0.074412
C40	C	1.123374	-0.641556	0.039491
C41	C	1.140292	-0.677051	0.117529
C42	C	1.059308	-0.866314	-0.224188
C43	C	1.042393	-0.830826	-0.302221
C44	C	1.052475	-0.732246	-0.266353
C45	C	1.079465	-0.669153	-0.152450
C46	C	1.035556	-0.696751	-0.344390
C47	C	1.045632	-0.598169	-0.308520
C48	C	1.089540	-0.570572	-0.116579
C49	C	1.099343	-0.077714	-0.028247
C50	C	1.110060	0.027206	0.009919
N51	N	1.034027	-0.289983	-0.342897
C52	C	1.247007	-0.155953	-0.661745
C53	C	1.221653	-0.171934	-0.772585
C54	C	1.100995	-0.247909	-0.800209
C55	C	1.126335	-0.231929	-0.689367
C56	C	1.199343	-0.185952	-0.620143
C57	C	1.078671	-0.261928	-0.647766
C58	C	1.104014	-0.245954	-0.536935
C59	C	1.177020	-0.199982	-0.467706
C60	C	1.224685	-0.169978	-0.509313
C61	C	1.005669	-0.307912	-0.716994
C62	C	0.958005	-0.337911	-0.675393
C63	C	0.983342	-0.321930	-0.564558
C64	C	1.056348	-0.275958	-0.495329
C65	C	0.935677	-0.351934	-0.522951
C66	C	0.961019	-0.335960	-0.412120
C67	C	1.081691	-0.259984	-0.384498
N68	N	1.148663	-0.217905	0.158191
H69	H	0.820659	-0.314546	-0.114404
H70	H	1.306447	-0.118499	-0.605373
H71	H	1.111530	-0.519207	-0.023826
H72	H	1.031838	-0.569265	-0.372059
H73	H	0.768269	-0.402777	-0.146475
H74	H	0.922205	-0.360387	-0.378248
H75	H	1.141131	-0.222531	-0.328126
H76	H	1.150820	-0.938596	0.187357
H77	H	0.414427	-0.105094	-0.038196
H78	H	0.362016	-0.193334	-0.070291
H79	H	0.688086	-0.537812	-0.195613
H80	H	0.985043	-0.320924	-0.807242
H81	H	0.807662	0.013845	0.005040
H82	H	0.494589	0.029925	0.010914
H83	H	0.898564	-0.375350	-0.731771
H84	H	0.876240	-0.389379	-0.579333
H85	H	0.634325	0.072189	0.026285
H86	H	0.548357	-0.580071	-0.210980
H87	H	0.375026	-0.521711	-0.189740
H88	H	1.162282	-0.625687	0.210282
H89	H	1.131567	-0.561280	0.068697
H90	H	1.284125	-0.132525	-0.452941
H91	H	1.260472	-0.147501	-0.806450
H92	H	1.169121	-0.759756	0.252445
H93	H	1.041554	-0.285348	-0.856587
H94	H	1.071160	-0.988682	-0.160865
H95	H	1.051095	-0.946580	-0.253389
H96	H	1.020411	-0.882202	-0.394965
H97	H	1.013568	-0.748125	-0.437132
H98	H	1.197654	-0.186979	-0.377462
