data_functionalizedCrystal
_audit_creation_method	'MofGen! by Chris Wilmer'
_symmetry_space_group_name_H-M	'P1'
_symmetry_Int_Tables_number	1
_symmetry_cell_setting	triclinic
loop_
_symmetry_equiv_pos_as_xyz
  x,y,z
_cell_length_a	17.699077
_cell_length_b	15.538191
_cell_length_c	16.776229
_cell_angle_alpha	89.995703
_cell_angle_beta	89.993415
_cell_angle_gamma	65.276335
loop_
_atom_site_label
_atom_site_type_symbol
_atom_site_fract_x
_atom_site_fract_y
_atom_site_fract_z
O1	O	0.971517	0.119175	-0.066270
O2	O	0.746899	0.134689	-0.066273
O3	O	0.902932	-0.010299	-0.066275
O4	O	0.815485	0.264163	-0.066269
O5	O	0.902919	-0.010307	0.066302
O6	O	0.746886	0.134680	0.066303
O7	O	0.971504	0.119166	0.066306
Zn8	Zn	0.859193	0.126922	0.087354
Zn9	Zn	0.859210	0.126933	-0.087321
O10	O	0.815472	0.264154	0.066308
C11	C	0.718847	0.134130	0.000015
C12	C	0.635284	0.132465	0.000013
C13	C	0.596024	0.131676	0.072281
C14	C	0.517513	0.130096	0.072282
C15	C	0.478261	0.129313	0.000014
C16	C	0.517527	0.130100	-0.072260
C17	C	0.596040	0.131672	-0.072260
C18	C	0.200897	0.123756	-0.072262
C19	C	0.122379	0.122186	-0.072256
C20	C	0.122371	0.122180	0.072280
C21	C	0.200883	0.123753	0.072281
C22	C	0.240144	0.124534	0.000007
C23	C	0.325276	0.126245	0.000007
C24	C	0.393128	0.127609	0.000013
C25	C	0.912075	-0.045420	0.000011
C26	C	0.939328	-0.150057	0.000003
C27	C	0.668578	-0.437220	0.000017
C28	C	0.694205	-0.535545	0.000019
C29	C	0.838353	-0.558322	0.000020
C30	C	0.812738	-0.459997	0.000014
C31	C	0.727849	-0.399453	0.000013
C32	C	0.872009	-0.422230	0.000011
C33	C	0.846395	-0.323913	0.000009
C34	C	0.761511	-0.263364	0.000011
C35	C	0.702236	-0.301137	0.000012
C36	C	0.956897	-0.482775	0.000018
C37	C	1.016168	-0.445008	0.000014
C38	C	0.990555	-0.346690	0.000007
C39	C	0.905670	-0.286140	0.000008
C40	C	1.049830	-0.308917	0.000006
C41	C	1.024216	-0.210600	0.000004
C42	C	0.880057	-0.187824	0.000007
C43	C	0.999556	0.119725	0.000017
C44	C	1.083120	0.121390	0.000013
C45	C	0.806329	0.299275	0.000021
C46	C	0.779076	0.403912	0.000023
N47	N	0.859187	0.126913	0.206565
N48	N	0.859224	0.126935	-0.206532
C49	C	0.928287	0.062739	0.248282
C50	C	0.928292	0.062738	0.331734
C51	C	0.859198	0.126917	0.373468
C52	C	0.790092	0.191094	0.331746
C53	C	0.790086	0.191090	0.248295
C54	C	0.790114	0.191113	0.668293
C55	C	0.790126	0.191114	0.751750
C56	C	0.928320	0.062761	0.751732
C57	C	0.928314	0.062757	0.668281
C58	C	0.859206	0.126930	0.626566
C59	C	0.859202	0.126929	0.536078
C60	C	0.859204	0.126923	0.463955
H61	H	0.232856	0.124390	-0.131111
H62	H	0.485565	0.129455	-0.131102
H63	H	0.733831	0.243347	0.365731
O64	O	0.920800	-0.617177	-0.000122
C65	C	0.939927	-0.674745	-0.068772
H66	H	0.891307	-0.638654	-0.116762
H67	H	0.939972	-0.746198	-0.053244
C68	C	1.086150	-0.734192	-0.040971
C69	C	1.026439	-0.689860	-0.099915
H70	H	1.139516	-0.743519	-0.060181
H71	H	1.073265	-0.695410	0.005282
H72	H	1.086178	-0.793730	-0.028037
H73	H	1.026405	-0.630318	-0.112842
H74	H	1.039327	-0.728632	-0.146171
O75	O	0.995341	0.000308	0.372288
C76	C	0.970784	-0.057775	0.420587
H77	H	0.911508	-0.059279	0.395456
H78	H	0.958718	-0.028273	0.483834
C79	C	1.113131	-0.157198	0.452723
C80	C	1.040332	-0.159051	0.421853
H81	H	1.156032	-0.219669	0.453508
H82	H	1.129677	-0.118064	0.420186
H83	H	1.103065	-0.132608	0.505426
H84	H	1.050395	-0.183630	0.369148
H85	H	1.023789	-0.198192	0.454381
H86	H	0.645933	-0.566290	0.000033
H87	H	0.733845	0.243367	0.634336
H88	H	1.118946	-0.358226	0.000015
O89	O	1.081898	-0.174064	-0.000042
C90	C	1.162314	-0.248583	-0.000026
H91	H	1.159446	-0.315330	-0.025120
H92	H	1.187201	-0.262538	0.063576
C93	C	1.223936	-0.138986	-0.021207
C94	C	1.220414	-0.220965	-0.052034
H95	H	1.259776	-0.121950	-0.053284
H96	H	1.169758	-0.088780	-0.021215
H97	H	1.244672	-0.150626	0.031794
H98	H	1.199669	-0.209320	-0.105030
H99	H	1.274590	-0.271168	-0.052036
H100	H	0.090422	0.121548	-0.131109
H101	H	0.090396	0.121540	0.131129
O102	O	0.722918	0.253491	0.792169
C103	C	0.661927	0.310145	0.737456
H104	H	0.671685	0.271500	0.677972
H105	H	0.667260	0.380136	0.728571
C106	C	0.562932	0.377154	0.843109
C107	C	0.574913	0.329686	0.770051
H108	H	0.509257	0.389212	0.863215
H109	H	0.604023	0.338988	0.879970
H110	H	0.567381	0.435475	0.835694
H111	H	0.570474	0.271362	0.777468
H112	H	0.533819	0.367843	0.733191
O113	O	1.098592	-0.503958	-0.000021
C114	C	1.108491	-0.598834	0.000004
H115	H	1.050046	-0.602476	-0.025090
H116	H	1.119174	-0.627273	0.063609
C117	C	1.255610	-0.654663	-0.021167
C118	C	1.183828	-0.659137	-0.051996
H119	H	1.302083	-0.691863	-0.053240
H120	H	1.248942	-0.590744	-0.021181
H121	H	1.264501	-0.678361	0.031836
H122	H	1.174933	-0.635429	-0.104994
H123	H	1.190497	-0.723054	-0.051992
O124	O	0.995372	0.000246	0.207798
C125	C	1.008691	-0.093029	0.228242
H126	H	0.948185	-0.093366	0.251184
H127	H	1.058250	-0.120767	0.276693
C128	C	1.112341	-0.156581	0.125959
C129	C	1.038025	-0.156996	0.154130
H130	H	1.130440	-0.196041	0.080245
H131	H	1.103371	-0.093740	0.112187
H132	H	1.153632	-0.179694	0.166341
H133	H	0.996734	-0.133872	0.113752
H134	H	1.046989	-0.219835	0.167893
H135	H	0.984578	0.010499	0.634304
H136	H	0.984590	0.010504	0.785705
O137	O	0.722910	0.253522	0.207893
C138	C	0.661918	0.310155	0.262621
H139	H	0.692672	0.311176	0.322101
H140	H	0.614084	0.279636	0.271513
C141	C	0.580595	0.410611	0.156992
C142	C	0.618369	0.411872	0.230044
H143	H	0.553728	0.473354	0.136897
H144	H	0.621684	0.372455	0.120120
H145	H	0.540738	0.385174	0.164412
H146	H	0.658231	0.437297	0.222622
H147	H	0.577285	0.450035	0.266914
O148	O	0.634274	0.132276	-0.142442
C149	C	0.710693	0.051593	-0.146760
H150	H	0.708693	-0.005919	-0.105750
H151	H	0.763187	0.071233	-0.127345
C152	C	0.728415	0.085259	-0.283473
C153	C	0.725956	0.014617	-0.233108
H154	H	0.737832	0.062452	-0.336737
H155	H	0.676931	0.139618	-0.280563
H156	H	0.772160	0.101618	-0.267284
H157	H	0.682205	-0.001733	-0.249291
H158	H	0.777432	-0.039746	-0.236023
H159	H	0.485557	0.129438	0.131130
O160	O	0.634050	0.132391	0.142556
C161	C	0.582550	0.131377	0.206341
H162	H	0.537916	0.100429	0.185151
H163	H	0.545487	0.206799	0.228566
C164	C	0.691476	0.108202	0.300643
C165	C	0.636660	0.070184	0.274619
H166	H	0.724852	0.070460	0.342762
H167	H	0.726172	0.108889	0.257671
H168	H	0.660581	0.171053	0.319159
H169	H	0.667555	0.007339	0.256095
H170	H	0.601970	0.069485	0.317590
H171	H	0.232836	0.124395	0.131129
H172	H	0.740658	-0.183308	0.000014
O173	O	0.797618	-0.128910	0.000107
C174	C	0.778475	-0.071375	0.068779
H175	H	0.837216	-0.066537	0.091675
H176	H	0.752766	-0.103644	0.116857
C177	C	0.640795	0.022587	0.019796
C178	C	0.712941	0.028535	0.047914
H179	H	0.600368	0.084215	0.006928
H180	H	0.653690	-0.016177	-0.026468
H181	H	0.619382	-0.004308	0.059866
H182	H	0.734358	0.055418	0.007841
H183	H	0.700047	0.067306	0.094171
O184	O	0.619751	-0.242410	-0.000103
C185	C	0.582175	-0.259484	-0.068779
H186	H	0.621264	-0.334108	-0.091667
H187	H	0.577768	-0.205732	-0.116860
C188	C	0.446267	-0.158283	-0.019820
C189	C	0.494274	-0.249942	-0.047927
H190	H	0.392044	-0.152394	-0.006960
H191	H	0.471582	-0.146777	0.026447
H192	H	0.442604	-0.113500	-0.059892
H193	H	0.497945	-0.294722	-0.007852
H194	H	0.468957	-0.261456	-0.094188
O195	O	0.586083	-0.378534	0.000042
C196	C	0.539255	-0.432947	0.000016
H197	H	0.578633	-0.506370	0.025122
H198	H	0.519832	-0.439902	-0.063590
C199	C	0.412784	-0.293629	0.021162
C200	C	0.461146	-0.383806	0.052003
H201	H	0.364600	-0.263315	0.053226
H202	H	0.444332	-0.256969	0.021176
H203	H	0.396606	-0.299438	-0.031843
H204	H	0.477332	-0.377995	0.105003
H205	H	0.429599	-0.420464	0.051998
H206	H	0.977748	-0.562830	0.000012
