data_functionalizedCrystal
_audit_creation_method	'MofGen! by Chris Wilmer'
_symmetry_space_group_name_H-M	'P1'
_symmetry_Int_Tables_number	1
_symmetry_cell_setting	triclinic
loop_
_symmetry_equiv_pos_as_xyz
  x,y,z
_cell_length_a	12.827893
_cell_length_b	12.645329
_cell_length_c	12.827885
_cell_angle_alpha	90.030356
_cell_angle_beta	90.019272
_cell_angle_gamma	90.017948
loop_
_atom_site_label
_atom_site_type_symbol
_atom_site_fract_x
_atom_site_fract_y
_atom_site_fract_z
Zn1	Zn	1.597651	-0.421989	0.590845
Zn2	Zn	2.097651	0.078011	1.090845
Zn3	Zn	1.597537	-0.599290	0.416103
Zn4	Zn	2.097537	-0.099290	0.916103
Zn5	Zn	1.422892	-0.422040	0.416118
Zn6	Zn	1.922892	0.077960	0.916118
Zn7	Zn	1.422870	-0.599211	0.590803
Zn8	Zn	1.922870	-0.099211	1.090803
O9	O	1.510237	-0.510632	0.503467
O10	O	2.010237	-0.010632	1.003467
O11	O	1.743872	-0.445520	0.567676
O12	O	2.243872	0.054480	1.067676
O13	O	1.574332	-0.575832	0.269869
O14	O	2.074332	-0.075832	0.769869
O15	O	1.446131	-0.273686	0.439320
O16	O	1.946131	0.226314	0.939320
O17	O	1.743788	-0.575782	0.439294
O18	O	2.243788	-0.075782	0.939294
O19	O	1.574526	-0.273648	0.567690
O20	O	2.074526	0.226352	1.067690
O21	O	1.446021	-0.445608	0.269880
O22	O	1.946021	0.054392	0.769880
O23	O	1.276653	-0.445531	0.439279
O24	O	1.776653	0.054469	0.939279
O25	O	1.446093	-0.575647	0.737045
O26	O	1.946093	-0.075647	1.237045
O27	O	1.276637	-0.575697	0.567620
O28	O	1.776637	-0.075697	1.067620
O29	O	1.574504	-0.445443	0.737075
O30	O	2.074504	0.054557	1.237075
O31	O	1.574310	-0.747626	0.439254
O32	O	2.074310	-0.247626	0.939254
O33	O	1.445983	-0.747568	0.567605
O34	O	1.945983	-0.247568	1.067605
C35	C	1.238728	-0.510612	0.503447
C36	C	1.738728	-0.010612	1.003447
C37	C	1.122574	-0.510629	0.503464
C38	C	1.622574	-0.010629	1.003464
C39	C	1.070809	-0.575140	0.566872
C40	C	1.570809	-0.075140	1.066872
C41	C	0.950759	-0.575159	0.566891
C42	C	1.450759	-0.075159	1.066891
C43	C	1.510160	-0.786062	0.503446
C44	C	2.010160	-0.286062	1.003446
C45	C	1.510222	-0.903892	0.503472
C46	C	2.010222	-0.403892	1.003472
C47	C	1.429454	-0.948782	0.584171
C48	C	1.929454	-0.448782	1.084171
C49	C	1.429788	-1.071342	0.584521
C50	C	1.929788	-0.571342	1.084521
C51	C	1.620552	-1.071657	0.533147
C52	C	2.120552	-0.571657	1.033147
C53	C	1.619988	-0.949059	0.533699
C54	C	2.119988	-0.449059	1.033699
C55	C	1.481827	-0.949190	0.392966
C56	C	1.981827	-0.449190	0.892966
C57	C	1.479494	-1.071799	0.393589
C58	C	1.979494	-0.571799	0.893589
C59	C	1.782808	-0.510654	0.503488
C60	C	2.282808	-0.010654	1.003488
C61	C	1.898961	-0.510663	0.503497
C62	C	2.398961	-0.010663	1.003497
C63	C	1.510309	-0.510531	0.776038
C64	C	2.010309	-0.010531	1.276038
C65	C	1.510339	-0.510487	0.892191
C66	C	2.010339	-0.010487	1.392191
C67	C	1.510344	-0.234127	0.503511
C68	C	2.010344	0.265873	1.003511
C69	C	1.510389	-0.116297	0.503530
C70	C	2.010389	0.383703	1.003530
C71	C	1.510227	-0.510657	0.231957
C72	C	2.010227	-0.010657	0.731957
C73	C	1.510399	-0.510402	0.115805
C74	C	2.010399	-0.010402	0.615805
C75	C	1.573888	-0.446045	0.943991
C76	C	2.073888	0.053955	1.443991
C77	C	1.573920	-0.445999	1.064041
C78	C	2.073920	0.054001	1.564041
H79	H	1.115368	-0.630352	0.621149
H80	H	1.615368	-0.130352	1.121149
H81	H	1.540648	-0.920148	0.332842
H82	H	2.040648	-0.420148	0.832842
C83	C	1.553207	-1.113131	0.308065
C84	C	2.053207	-0.613131	0.808065
H85	H	1.604021	-1.158262	0.338426
H86	H	2.104021	-0.658262	0.838426
H87	H	1.514161	-1.151502	0.257739
H88	H	2.014161	-0.651502	0.757739
H89	H	1.586939	-1.055118	0.275282
H90	H	2.086939	-0.555118	0.775282
H91	H	1.348109	-1.101531	0.566011
H92	H	1.848109	-0.601531	1.066011
H93	H	1.078016	-0.455408	0.449195
H94	H	1.578016	0.044592	0.949195
C95	C	1.436908	-0.584956	1.055646
C96	C	1.936908	-0.084956	1.555646
H97	H	1.397069	-0.625365	1.103696
H98	H	1.897069	-0.125365	1.603696
H99	H	1.391414	-0.544394	1.013060
H100	H	1.891414	-0.044394	1.513060
H101	H	1.476913	-0.631127	1.013074
H102	H	1.976913	-0.131127	1.513074
H103	H	1.398420	-1.100990	0.371249
H104	H	1.898420	-0.600990	0.871249
H105	H	0.906242	-0.630392	0.621174
H106	H	1.406242	-0.130392	1.121174
H107	H	1.455950	-0.565617	0.936720
H108	H	1.955950	-0.065617	1.436720
C109	C	1.375086	-0.907576	0.356453
C110	C	1.875086	-0.407576	0.856453
H111	H	1.359438	-0.935856	0.289626
H112	H	1.859438	-0.435856	0.789626
H113	H	1.322863	-0.928605	0.404668
H114	H	1.822863	-0.428605	0.904668
H115	H	1.377112	-0.832584	0.352530
H116	H	1.877112	-0.332584	0.852530
H117	H	0.943471	-0.455433	0.449203
H118	H	1.443471	0.044567	0.949203
C119	C	1.318700	-0.909093	0.559455
C120	C	1.818700	-0.409093	1.059455
H121	H	1.320721	-0.864784	0.499704
H122	H	1.820721	-0.364784	0.999704
H123	H	1.274417	-0.967810	0.546217
H124	H	1.774417	-0.467810	1.046217
H125	H	1.292640	-0.870173	0.617197
H126	H	1.792640	-0.370173	1.117197
H127	H	1.628266	-0.390905	0.899461
H128	H	2.128266	0.109095	1.399461
H129	H	1.448044	-0.917898	0.665587
H130	H	1.948044	-0.417898	1.165587
H131	H	1.644024	-0.920379	0.614470
H132	H	2.144024	-0.420379	1.114470
C133	C	1.455281	-1.110862	0.695152
C134	C	1.955281	-0.610862	1.195152
H135	H	1.465483	-1.051989	0.740054
H136	H	1.965483	-0.551989	1.240054
H137	H	1.399124	-1.152621	0.720350
H138	H	1.899124	-0.652621	1.220350
H139	H	1.516985	-1.152345	0.693308
H140	H	2.016985	-0.652345	1.193308
H141	H	1.682237	-0.919355	0.477463
H142	H	2.182237	-0.419355	0.977463
H143	H	1.682423	-1.100768	0.476193
H144	H	2.182423	-0.600768	0.976193
H145	H	1.628330	-0.390832	1.108588
H146	H	2.128330	0.109168	1.608588
C147	C	1.653650	-1.113008	0.641087
C148	C	2.153650	-0.613008	1.141087
H149	H	1.600490	-1.157463	0.668248
H150	H	2.100490	-0.657463	1.168248
H151	H	1.716550	-1.152101	0.634702
H152	H	2.216550	-0.652101	1.134702
H153	H	1.664308	-1.054960	0.686915
H154	H	2.164308	-0.554960	1.186915
