data_functionalizedCrystal
_audit_creation_method	'MofGen! by Chris Wilmer'
_symmetry_space_group_name_H-M	'P1'
_symmetry_Int_Tables_number	1
_symmetry_cell_setting	triclinic
loop_
_symmetry_equiv_pos_as_xyz
  x,y,z
_cell_length_a	14.044220
_cell_length_b	13.101039
_cell_length_c	14.044220
_cell_angle_alpha	86.332523
_cell_angle_beta	86.811122
_cell_angle_gamma	86.340132
loop_
_atom_site_label
_atom_site_type_symbol
_atom_site_fract_x
_atom_site_fract_y
_atom_site_fract_z
O1	O	1.281968	-0.085109	-0.225348
O2	O	1.615302	0.248224	0.107985
O3	O	1.948635	0.581558	0.441318
O4	O	1.005298	-0.085135	-0.217041
O5	O	1.338632	0.248198	0.116292
O6	O	1.671965	0.581532	0.449626
O7	O	1.139480	-0.085112	-0.082860
O8	O	1.472813	0.248221	0.250474
O9	O	1.806147	0.581554	0.583807
O10	O	1.147787	-0.085132	-0.359530
O11	O	1.481120	0.248202	-0.026197
O12	O	1.814454	0.581535	0.307137
O13	O	1.129854	0.085316	-0.092504
O14	O	1.463188	0.418649	0.240829
O15	O	1.796521	0.751983	0.574162
O16	O	0.995673	0.085293	-0.226686
O17	O	1.329006	0.418627	0.106647
O18	O	1.662339	0.751960	0.439981
O19	O	1.272343	0.085319	-0.234993
O20	O	1.605676	0.418652	0.098340
O21	O	1.939009	0.751986	0.431674
Zn22	Zn	1.132479	0.112365	-0.232371
Zn23	Zn	1.465813	0.445699	0.100963
Zn24	Zn	1.799146	0.779032	0.434296
Zn25	Zn	1.145162	-0.112181	-0.219663
Zn26	Zn	1.478495	0.221152	0.113670
Zn27	Zn	1.811828	0.554485	0.447003
O28	O	1.138161	0.085296	-0.369175
O29	O	1.471494	0.418630	-0.035841
O30	O	1.804828	0.751963	0.297492
C31	C	0.964864	0.000076	-0.218228
C32	C	1.298197	0.333409	0.115106
C33	C	1.631531	0.666743	0.448439
C34	C	0.858722	0.000066	-0.207383
C35	C	1.192055	0.333400	0.125951
C36	C	1.525388	0.666733	0.459284
C37	C	1.131031	0.000102	-0.052060
C38	C	1.464365	0.333435	0.281273
C39	C	1.797698	0.666769	0.614607
C40	C	1.120187	0.000102	0.054083
C41	C	1.453520	0.333435	0.387416
C42	C	1.786854	0.666769	0.720749
N43	N	1.123831	0.265612	-0.241043
N44	N	1.457164	0.598946	0.092290
N45	N	1.790497	0.932279	0.425623
C46	C	0.664383	0.000088	-0.187558
C47	C	0.997716	0.333421	0.145776
C48	C	1.331049	0.666755	0.479109
C49	C	0.613253	0.000087	-0.264472
C50	C	0.946586	0.333420	0.068861
C51	C	1.279920	0.666754	0.402195
C52	C	0.505116	0.000099	-0.253441
C53	C	0.838449	0.333432	0.079892
C54	C	1.171783	0.666766	0.413226
C55	C	0.772529	0.000076	-0.198587
C56	C	1.105863	0.333409	0.134746
C57	C	1.439196	0.666743	0.468080
C58	C	1.312777	0.000106	-0.233806
C59	C	1.646111	0.333439	0.099527
C60	C	1.979444	0.666773	0.432860
C61	C	1.418920	0.000109	-0.244651
C62	C	1.752253	0.333442	0.088682
C63	C	2.085587	0.666775	0.422016
N64	N	1.153817	-0.265428	-0.210984
N65	N	1.487151	0.067905	0.122349
N66	N	1.820484	0.401238	0.455683
C67	C	1.112065	0.474653	-0.252851
C68	C	1.445398	0.807986	0.080482
C69	C	1.778731	1.141320	0.413815
C70	C	1.165580	0.525538	-0.199179
C71	C	1.498914	0.858871	0.134154
C72	C	1.832247	1.192204	0.467488
C73	C	1.159034	0.641855	-0.205749
C74	C	1.492367	0.975188	0.127584
C75	C	1.825700	1.308522	0.460918
C76	C	1.118610	0.358325	-0.246282
C77	C	1.451944	0.691658	0.087051
C78	C	1.785277	1.024992	0.420384
C79	C	1.146610	0.000080	-0.399974
C80	C	1.479943	0.333413	-0.066641
C81	C	1.813276	0.666747	0.266693
C82	C	1.157455	0.000073	-0.506116
C83	C	1.490788	0.333406	-0.172783
C84	C	1.824121	0.666740	0.160550
C85	C	1.100362	0.000086	0.248421
C86	C	1.433695	0.333419	0.581755
C87	C	1.767028	0.666752	0.915088
C88	C	1.177276	0.000090	0.299551
C89	C	1.510609	0.333423	0.632884
C90	C	1.843942	0.666756	0.966218
C91	C	1.166245	0.000080	0.407688
C92	C	1.499578	0.333414	0.741021
C93	C	1.832911	0.666747	1.074354
C94	C	1.111391	0.000095	0.140275
C95	C	1.444725	0.333428	0.473608
C96	C	1.778058	0.666761	0.806941
H97	H	0.650693	0.000077	-0.338605
H98	H	0.984026	0.333410	-0.005271
H99	H	1.317359	0.666744	0.328062
H100	H	1.026235	0.000076	0.285859
H101	H	1.359568	0.333410	0.619192
H102	H	1.692901	0.666743	0.952525
H103	H	1.251413	0.000028	0.262115
H104	H	1.584746	0.333361	0.595449
H105	H	1.918079	0.666694	0.928782
H106	H	1.216314	0.481744	-0.148295
H107	H	1.549647	0.815077	0.185038
H108	H	1.882981	1.148411	0.518372
H109	H	1.061336	0.518442	-0.303733
H110	H	1.394669	0.851775	0.029600
H111	H	1.728002	1.185108	0.362934
Cl112	Cl	0.606582	0.000098	-0.073108
Cl113	Cl	0.939915	0.333431	0.260225
Cl114	Cl	1.273249	0.666765	0.593559
