data_functionalizedCrystal
_audit_creation_method	'MofGen! by Chris Wilmer'
_symmetry_space_group_name_H-M	'P1'
_symmetry_Int_Tables_number	1
_symmetry_cell_setting	triclinic
loop_
_symmetry_equiv_pos_as_xyz
  x,y,z
_cell_length_a	16.625547
_cell_length_b	25.639240
_cell_length_c	16.625539
_cell_angle_alpha	89.963426
_cell_angle_beta	89.978691
_cell_angle_gamma	90.032694
loop_
_atom_site_label
_atom_site_type_symbol
_atom_site_fract_x
_atom_site_fract_y
_atom_site_fract_z
Zn1	Zn	1.232595	-0.208160	-0.455944
Zn2	Zn	1.565928	0.125173	-0.122611
Zn3	Zn	1.899262	0.458506	0.210723
Zn4	Zn	1.232482	-0.295595	-0.321087
Zn5	Zn	1.565815	0.037738	0.012246
Zn6	Zn	1.899149	0.371071	0.345579
Zn7	Zn	1.097765	-0.208176	-0.321115
Zn8	Zn	1.431098	0.125158	0.012219
Zn9	Zn	1.764432	0.458491	0.345552
Zn10	Zn	1.097703	-0.295566	-0.455867
Zn11	Zn	1.431036	0.037767	-0.122534
Zn12	Zn	1.764370	0.371100	0.210799
O13	O	1.165136	-0.251874	-0.388503
O14	O	1.498470	0.081459	-0.055170
O15	O	1.831803	0.414792	0.278163
O16	O	1.345412	-0.219764	-0.438076
O17	O	1.678746	0.113569	-0.104742
O18	O	2.012079	0.446902	0.228591
O19	O	1.214590	-0.284017	-0.208259
O20	O	1.547924	0.049316	0.125075
O21	O	1.881257	0.382649	0.458408
O22	O	1.115724	-0.135008	-0.339043
O23	O	1.449057	0.198325	-0.005710
O24	O	1.782390	0.531658	0.327623
O25	O	1.345329	-0.284003	-0.338997
O26	O	1.678663	0.049331	-0.005664
O27	O	2.011996	0.382664	0.327669
O28	O	1.214783	-0.134997	-0.438102
O29	O	1.548116	0.198336	-0.104769
O30	O	1.881449	0.531670	0.228565
O31	O	1.115614	-0.219791	-0.208279
O32	O	1.448948	0.113543	0.125055
O33	O	1.782281	0.446876	0.458388
O34	O	0.984924	-0.219763	-0.338969
O35	O	1.318258	0.113571	-0.005636
O36	O	1.651591	0.446904	0.327698
O37	O	1.115618	-0.283953	-0.568710
O38	O	1.448951	0.049380	-0.235377
O39	O	1.782284	0.382713	0.097957
O40	O	0.984879	-0.283968	-0.437971
O41	O	1.318212	0.049365	-0.104638
O42	O	1.651545	0.382698	0.228695
O43	O	1.214722	-0.219736	-0.568766
O44	O	1.548056	0.113597	-0.235433
O45	O	1.881389	0.446930	0.097900
O46	O	1.214530	-0.368757	-0.338923
O47	O	1.547864	-0.035423	-0.005589
O48	O	1.881197	0.297910	0.327744
O49	O	1.115508	-0.368736	-0.437945
O50	O	1.448842	-0.035402	-0.104612
O51	O	1.782175	0.297931	0.228722
C52	C	0.955645	-0.251864	-0.388465
C53	C	1.288979	0.081469	-0.055132
C54	C	1.622312	0.414802	0.278201
C55	C	0.866024	-0.251873	-0.388468
C56	C	1.199358	0.081461	-0.055135
C57	C	1.532691	0.414794	0.278199
C58	C	0.793242	-0.251874	-0.388478
C59	C	1.126575	0.081460	-0.055145
C60	C	1.459908	0.414793	0.278189
C61	C	0.701933	-0.251876	-0.388498
C62	C	1.035267	0.081457	-0.055165
C63	C	1.368600	0.414790	0.278168
C64	C	0.629157	-0.251881	-0.388519
C65	C	0.962490	0.081452	-0.055185
C66	C	1.295824	0.414786	0.278148
C67	C	0.537843	-0.251885	-0.388538
C68	C	0.871176	0.081449	-0.055205
C69	C	1.204509	0.414782	0.278129
C70	C	1.165022	-0.387717	-0.388440
C71	C	1.498356	-0.054384	-0.055107
C72	C	1.831689	0.278950	0.278227
C73	C	1.165047	-0.445831	-0.388440
C74	C	1.498381	-0.112498	-0.055107
C75	C	1.831714	0.220836	0.278227
C76	C	1.216742	-0.806150	-0.440176
C77	C	1.550075	-0.472816	-0.106843
C78	C	1.883408	-0.139483	0.226490
C79	C	1.216766	-0.860754	-0.440193
C80	C	1.550099	-0.527421	-0.106859
C81	C	1.883432	-0.194087	0.226474
O82	O	1.260583	-0.888953	-0.484116
O83	O	1.593916	-0.555620	-0.150782
O84	O	1.927249	-0.222286	0.182551
N85	N	1.165248	-0.888113	-0.388581
N86	N	1.498581	-0.554780	-0.055248
N87	N	1.831915	-0.221447	0.278085
C88	C	1.113698	-0.860866	-0.336956
C89	C	1.447031	-0.527532	-0.003623
C90	C	1.780364	-0.194199	0.329711
O91	O	1.069880	-0.889151	-0.293059
O92	O	1.403213	-0.555818	0.040275
O93	O	1.736546	-0.222484	0.373608
C94	C	1.113670	-0.806262	-0.336944
C95	C	1.447004	-0.472929	-0.003611
C96	C	1.780337	-0.139596	0.329722
C97	C	1.165197	-0.778906	-0.388553
C98	C	1.498530	-0.445573	-0.055220
C99	C	1.831864	-0.112239	0.278113
C100	C	1.268264	-0.778793	-0.491782
C101	C	1.601597	-0.445460	-0.158448
C102	C	1.934930	-0.112126	0.174885
C103	C	1.268241	-0.724193	-0.491764
C104	C	1.601574	-0.390859	-0.158431
C105	C	1.934907	-0.057526	0.174903
C106	C	1.216696	-0.696949	-0.440141
C107	C	1.550029	-0.363615	-0.106808
C108	C	1.883363	-0.030282	0.226526
C109	C	1.165174	-0.724305	-0.388536
C110	C	1.498507	-0.390972	-0.055202
C111	C	1.831841	-0.057639	0.278131
C112	C	1.062116	-0.779016	-0.285324
C113	C	1.395450	-0.445682	0.048010
C114	C	1.728783	-0.112349	0.381343
C115	C	1.062093	-0.724409	-0.285317
C116	C	1.395427	-0.391075	0.048017
C117	C	1.728760	-0.057742	0.381350
C118	C	1.113620	-0.697052	-0.336926
C119	C	1.446953	-0.363719	-0.003592
C120	C	1.780287	-0.030385	0.329741
C121	C	1.113606	-0.642461	-0.336895
C122	C	1.446940	-0.309128	-0.003562
C123	C	1.780273	0.024206	0.329772
N124	N	1.165124	-0.615102	-0.388506
N125	N	1.498457	-0.281768	-0.055173
N126	N	1.831791	0.051565	0.278161
C127	C	1.216669	-0.642345	-0.440129
C128	C	1.550002	-0.309012	-0.106796
C129	C	1.883335	0.024321	0.226537
C130	C	1.113758	-0.975536	-0.336986
C131	C	1.447091	-0.642203	-0.003652
C132	C	1.780424	-0.308870	0.329681
C133	C	1.113789	-1.030139	-0.336993
C134	C	1.447122	-0.696805	-0.003659
C135	C	1.780455	-0.363472	0.329674
C136	C	1.216856	-1.030023	-0.440230
C137	C	1.550189	-0.696690	-0.106897
C138	C	1.883522	-0.363357	0.226436
C139	C	1.216828	-0.975420	-0.440219
C140	C	1.550162	-0.642087	-0.106885
C141	C	1.883495	-0.308753	0.226448
C142	C	1.165275	-0.948177	-0.388597
C143	C	1.498609	-0.614844	-0.055263
C144	C	1.831942	-0.281510	0.278070
C145	C	1.216617	-0.527680	-0.440088
C146	C	1.549951	-0.194347	-0.106754
C147	C	1.883284	0.138986	0.226579
C148	C	1.216592	-0.473075	-0.440063
C149	C	1.549925	-0.139742	-0.106730
C150	C	1.883259	0.193592	0.226604
C151	C	1.113522	-0.473195	-0.336829
C152	C	1.446856	-0.139862	-0.003495
C153	C	1.780189	0.193471	0.329838
C154	C	1.113550	-0.527796	-0.336850
C155	C	1.446883	-0.194462	-0.003516
C156	C	1.780217	0.138871	0.329817
C157	C	1.165100	-0.555037	-0.388486
C158	C	1.498434	-0.221704	-0.055153
C159	C	1.831767	0.111630	0.278181
O160	O	1.069809	-0.614227	-0.292997
O161	O	1.403143	-0.280894	0.040337
O162	O	1.736476	0.052439	0.373670
O163	O	1.260472	-0.614053	-0.484027
O164	O	1.593805	-0.280720	-0.150693
O165	O	1.927139	0.052613	0.182640
C166	C	1.375445	-0.251885	-0.388542
C167	C	1.708778	0.081448	-0.055209
C168	C	2.042112	0.414782	0.278125
C169	C	1.465066	-0.251890	-0.388559
C170	C	1.798400	0.081444	-0.055225
C171	C	2.131733	0.414777	0.278108
C172	C	1.165176	-0.251840	-0.598812
C173	C	1.498509	0.081493	-0.265479
C174	C	1.831842	0.414827	0.067854
C175	C	1.165193	-0.251825	-0.688434
C176	C	1.498526	0.081508	-0.355100
C177	C	1.831859	0.414841	-0.021767
C178	C	1.165273	-0.115501	-0.388584
C179	C	1.498606	0.217832	-0.055251
C180	C	1.831939	0.551165	0.278082
C181	C	1.165331	-0.057387	-0.388619
C182	C	1.498664	0.275946	-0.055286
C183	C	1.831997	0.609279	0.278048
C184	C	1.165206	-0.251814	-0.761216
C185	C	1.498539	0.081520	-0.427883
C186	C	1.831872	0.414853	-0.094549
C187	C	1.165225	-0.251794	-0.852525
C188	C	1.498558	0.081539	-0.519191
C189	C	1.831891	0.414872	-0.185858
C190	C	1.165244	-0.251776	-0.925301
C191	C	1.498577	0.081557	-0.591968
C192	C	1.831910	0.414891	-0.258634
C193	C	1.165264	-0.251757	-1.016615
C194	C	1.498597	0.081576	-0.683282
C195	C	1.831930	0.414910	-0.349949
C196	C	1.165143	-0.251871	-0.179013
C197	C	1.498477	0.081462	0.154321
C198	C	1.831810	0.414796	0.487654
C199	C	1.165283	-0.251739	-0.089392
C200	C	1.498616	0.081595	0.243941
C201	C	1.831949	0.414928	0.577275
H202	H	1.258554	-0.450803	-0.482089
H203	H	1.591887	-0.117470	-0.148756
H204	H	1.925221	0.215864	0.184577
H205	H	1.258589	-0.549854	-0.482140
H206	H	1.591922	-0.216520	-0.148807
H207	H	1.925255	0.116813	0.184526
N208	N	1.060887	-0.445352	-0.284095
N209	N	1.394220	-0.112019	0.049238
N210	N	1.727554	0.221314	0.382571
N211	N	1.060881	-0.396600	-0.284093
N212	N	1.394215	-0.063267	0.049240
N213	N	1.727548	0.270067	0.382574
H214	H	1.023706	-0.376934	-0.246851
H215	H	1.357039	-0.043600	0.086482
H216	H	1.690373	0.289733	0.419815
N217	N	1.269502	-1.057850	-0.492981
N218	N	1.602836	-0.724517	-0.159648
N219	N	1.936169	-0.391183	0.173686
N220	N	1.315498	-1.033423	-0.539065
N221	N	1.648831	-0.700089	-0.205732
N222	N	1.982164	-0.366756	0.127602
H223	H	1.352677	-1.053076	-0.576319
H224	H	1.686011	-0.719743	-0.242986
H225	H	2.019344	-0.386409	0.090348
H226	H	1.310196	-0.701922	-0.533791
H227	H	1.643529	-0.368589	-0.200457
H228	H	1.976862	-0.035255	0.132876
H229	H	1.310237	-0.800969	-0.533824
H230	H	1.643571	-0.467636	-0.200491
H231	H	1.976904	-0.134303	0.132843
H232	H	1.258785	-0.953149	-0.482244
H233	H	1.592119	-0.619816	-0.148910
H234	H	1.925452	-0.286483	0.184423
H235	H	1.071839	-1.052408	-0.294959
H236	H	1.405172	-0.719075	0.038375
H237	H	1.738506	-0.385741	0.371708
N238	N	1.061091	-0.947719	-0.284243
N239	N	1.394425	-0.614385	0.049090
N240	N	1.727758	-0.281052	0.382423
N241	N	1.015101	-0.972158	-0.238170
N242	N	1.348434	-0.638825	0.095164
N243	N	1.681767	-0.305491	0.428497
H244	H	0.977903	-0.952515	-0.200921
H245	H	1.311237	-0.619182	0.132412
H246	H	1.644570	-0.285848	0.465745
N247	N	1.009467	-0.806943	-0.232610
N248	N	1.342801	-0.473609	0.100723
N249	N	1.676134	-0.140276	0.434057
N250	N	0.963442	-0.782601	-0.186539
N251	N	1.296775	-0.449267	0.146794
N252	N	1.630109	-0.115934	0.480128
H253	H	0.926250	-0.802323	-0.149311
H254	H	1.259583	-0.468990	0.184022
H255	H	1.592916	-0.135656	0.517355
N256	N	1.009421	-0.696590	-0.232584
N257	N	1.342755	-0.363257	0.100749
N258	N	1.676088	-0.029923	0.434083
N259	N	0.963422	-0.721026	-0.186515
N260	N	1.296756	-0.387693	0.146818
N261	N	1.630089	-0.054360	0.480152
H262	H	0.926223	-0.701381	-0.149272
H263	H	1.259556	-0.368047	0.184062
H264	H	1.592890	-0.034714	0.517395
N265	N	1.060945	-0.555760	-0.284128
N266	N	1.394278	-0.222426	0.049205
N267	N	1.727612	0.110907	0.382538
N268	N	1.089373	-0.586245	-0.232799
N269	N	1.422706	-0.252912	0.100534
N270	N	1.756040	0.080422	0.433867
H271	H	1.052220	-0.605996	-0.195568
H272	H	1.385554	-0.272662	0.137766
H273	H	1.718887	0.060671	0.471099
