data_functionalizedCrystal
_audit_creation_method	'MofGen! by Chris Wilmer'
_symmetry_space_group_name_H-M	'P1'
_symmetry_Int_Tables_number	1
_symmetry_cell_setting	triclinic
loop_
_symmetry_equiv_pos_as_xyz
  x,y,z
_cell_length_a	16.625539
_cell_length_b	15.297475
_cell_length_c	15.297327
_cell_angle_alpha	91.625546
_cell_angle_beta	99.647259
_cell_angle_gamma	80.314414
loop_
_atom_site_label
_atom_site_type_symbol
_atom_site_fract_x
_atom_site_fract_y
_atom_site_fract_z
Zn1	Zn	-0.743124	1.278690	-0.580793
Zn2	Zn	-0.626999	1.253225	-0.727254
Zn3	Zn	-0.581768	1.132210	-0.555436
Zn4	Zn	-0.735255	1.106832	-0.701825
O5	O	-0.671786	1.192739	-0.641327
O6	O	-0.749943	1.397880	-0.621475
O7	O	-0.508166	1.237135	-0.704491
O8	O	-0.587536	1.172918	-0.436240
O9	O	-0.664626	1.379171	-0.729079
O10	O	-0.706083	1.280537	-0.454870
O11	O	-0.474934	1.148226	-0.578257
O12	O	-0.579905	1.006275	-0.553601
O13	O	-0.849132	1.129666	-0.685740
O14	O	-0.692671	0.987631	-0.661153
O15	O	-0.854914	1.255929	-0.596818
O16	O	-0.656996	1.212528	-0.846440
O17	O	-0.736531	1.104974	-0.827758
C18	C	-0.630527	0.965172	-0.601867
C19	C	-0.612897	0.867814	-0.585006
C20	C	-0.882097	1.192807	-0.641271
C21	C	-0.971719	1.192836	-0.641248
C22	C	-0.797788	0.554586	-0.761835
C23	C	-0.814350	0.646057	-0.777683
C24	C	-0.763989	0.701501	-0.729515
C25	C	-0.697062	0.665465	-0.665497
C26	C	-0.680494	0.573983	-0.649653
C27	C	-0.646695	0.720898	-0.617333
C28	C	-0.579768	0.684862	-0.553315
C29	C	-0.563203	0.593390	-0.537473
C30	C	-0.613565	0.537946	-0.585641
C31	C	-0.663262	0.812380	-0.633177
C32	C	-0.545968	0.831777	-0.520994
C33	C	-0.529406	0.740306	-0.505147
C34	C	-1.299890	1.192894	-0.641157
C35	C	-1.208583	1.192875	-0.641184
C36	C	-1.135808	1.192865	-0.641203
C37	C	-1.044494	1.192846	-0.641229
C38	C	-0.462295	1.192732	-0.641327
C39	C	-0.372672	1.192916	-0.641134
C40	C	-0.700839	1.153257	-0.868881
C41	C	-0.713310	1.136447	-0.966243
C42	C	-0.713208	1.421194	-0.680942
C43	C	-0.730859	1.518549	-0.697823
C44	C	-0.582998	1.313246	-1.279507
C45	C	-0.571278	1.329040	-1.188030
C46	C	-0.606785	1.280893	-1.132579
C47	C	-0.654014	1.216950	-1.168614
C48	C	-0.665731	1.201150	-1.260099
C49	C	-0.689518	1.168797	-1.113171
C50	C	-0.736747	1.104853	-1.149206
C51	C	-0.748462	1.089057	-1.240682
C52	C	-0.712955	1.137203	-1.296133
C53	C	-0.677801	1.184597	-1.021686
C54	C	-0.760534	1.072500	-1.002278
C55	C	-0.772254	1.056707	-1.093755
C56	C	-0.642642	1.232399	-0.412888
C57	C	-0.630222	1.249300	-0.315541
H58	H	-0.717755	0.841711	-0.685300
H59	H	-0.777478	0.775981	-0.742421
H60	H	-0.532823	1.381101	-1.158694
C61	C	-0.928623	0.617689	-0.886973
C62	C	-0.887915	0.685667	-0.848043
H63	H	-0.974045	0.642146	-0.930408
H64	H	-0.891249	0.576194	-0.914241
H65	H	-0.948196	0.588636	-0.842669
H66	H	-0.868337	0.714716	-0.892346
H67	H	-0.925296	0.727178	-0.820775
H68	H	-0.597238	1.293756	-1.058095
C69	C	-0.564182	1.338743	-1.428353
C70	C	-0.543939	1.366132	-1.340453
H71	H	-0.540058	1.371391	-1.465977
H72	H	-0.543620	1.277301	-1.433176
H73	H	-0.622598	1.348980	-1.445524
H74	H	-0.485523	1.355889	-1.323280
H75	H	-0.564496	1.427589	-1.335627
C76	C	-0.810498	1.136889	-1.430961
C77	C	-0.725842	1.119853	-1.396692
H78	H	-0.818451	1.126187	-1.493043
H79	H	-0.838391	1.099053	-1.403105
H80	H	-0.832059	1.196986	-1.419986
H81	H	-0.704282	1.059753	-1.407661
H82	H	-0.697938	1.157689	-1.424556
H83	H	-0.789445	1.033294	-0.957129
H84	H	-0.786909	1.036979	-1.270016
H85	H	-0.508700	0.564051	-0.485354
C86	C	-0.852864	0.947493	-1.065389
C87	C	-0.824167	0.986419	-1.133369
H88	H	-0.884917	0.904106	-1.089849
H89	H	-0.807079	0.920159	-1.023961
H90	H	-0.886072	0.991817	-1.036263
H91	H	-0.790955	0.942096	-1.162491
H92	H	-0.869960	1.013754	-1.174813
C93	C	-0.824460	0.405743	-0.787350
C94	C	-0.853139	0.493642	-0.814776
H95	H	-0.858638	0.368120	-0.820034
H96	H	-0.769180	0.388526	-0.797492
H97	H	-0.826128	0.400969	-0.725922
H98	H	-0.851465	0.498418	-0.876203
H99	H	-0.908434	0.510865	-0.804641
H100	H	-0.600085	0.463462	-0.572740
H101	H	-0.504959	0.876919	-0.481773
C102	C	-0.400754	0.639515	-0.475005
C103	C	-0.455835	0.700689	-0.434786
H104	H	-0.355332	0.615063	-0.431567
H105	H	-0.428379	0.593414	-0.501417
H106	H	-0.381184	0.668587	-0.519298
H107	H	-0.475409	0.671616	-0.390498
H108	H	-0.428204	0.746797	-0.408361
C109	C	-0.545451	1.232192	-1.001005
C110	C	-0.625892	1.254884	-0.982084
H111	H	-0.513407	1.275592	-0.976562
H112	H	-0.521034	1.175938	-0.975864
H113	H	-0.547361	1.229672	-1.063425
H114	H	-0.623983	1.257398	-0.919664
H115	H	-0.650316	1.311154	-1.007222
