data_functionalizedCrystal
_audit_creation_method	'MofGen! by Chris Wilmer'
_symmetry_space_group_name_H-M	'P1'
_symmetry_Int_Tables_number	1
_symmetry_cell_setting	triclinic
loop_
_symmetry_equiv_pos_as_xyz
  x,y,z
_cell_length_a	11.026607
_cell_length_b	15.995350
_cell_length_c	9.482900
_cell_angle_alpha	99.336743
_cell_angle_beta	78.636152
_cell_angle_gamma	96.039196
loop_
_atom_site_label
_atom_site_type_symbol
_atom_site_fract_x
_atom_site_fract_y
_atom_site_fract_z
O1	O	1.629075	0.340363	-0.120882
O2	O	1.275769	0.300437	-0.120885
O3	O	1.462080	0.199968	-0.120882
O4	O	1.442765	0.440832	-0.120885
O5	O	1.424236	0.220481	0.120910
O6	O	1.237926	0.320950	0.120907
O7	O	1.591231	0.360875	0.120910
Cu8	Cu	1.411123	0.342785	0.142986
Cu9	Cu	1.455878	0.318527	-0.142961
O10	O	1.404921	0.461344	0.120907
C11	C	1.211637	0.303328	0.000010
C12	C	1.076923	0.281371	0.000009
C13	C	1.003118	0.341997	0.000007
C14	C	0.863884	0.319305	0.000005
C15	C	1.442360	0.178909	0.000011
C16	C	1.439967	0.085597	0.000003
C17	C	1.431369	-0.253446	0.000008
C18	C	1.298767	-0.226057	-0.000536
C19	C	1.301076	-0.128960	0.000009
C20	C	1.435634	-0.085243	0.000005
C21	C	1.479470	-0.104742	0.138078
C22	C	1.476118	-0.201871	0.138193
C23	C	1.521895	-0.225142	-0.136769
C24	C	1.522149	-0.128356	-0.138594
C25	C	1.438051	0.009819	0.000008
C26	C	1.428954	-0.348507	0.000014
C27	C	1.655364	0.357984	0.000012
C28	C	1.790080	0.379940	0.000004
C29	C	1.424641	0.482403	0.000011
C30	C	1.427036	0.575714	0.000009
N31	N	1.379654	0.359848	0.344106
N32	N	1.487357	0.301459	-0.344081
C33	C	1.446587	0.323554	0.416306
C34	C	1.420413	0.337759	0.583723
H35	H	1.043008	0.410702	0.000014
H36	H	0.824003	0.250594	-0.000031
H37	H	0.829962	0.448650	0.000012
H38	H	1.564039	0.259864	0.593796
H39	H	1.343722	0.379346	0.645846
H40	H	1.619870	-0.242236	-0.137701
N41	N	1.283449	0.412011	0.422055
N42	N	1.262319	0.423472	0.557943
H43	H	1.194372	0.460313	0.612994
N44	N	1.026870	0.195186	0.000028
N45	N	0.913835	0.176876	0.000036
H46	H	0.878485	0.116006	0.000053
N47	N	1.255966	-0.113573	-0.124156
N48	N	1.222552	-0.174639	-0.211821
H49	H	1.190684	-0.163778	-0.299514
H50	H	1.261230	-0.260983	-0.099551
N51	N	1.216643	-0.093226	0.124373
N52	N	1.127905	-0.055330	0.108203
H53	H	1.068270	-0.030092	0.196040
H54	H	1.412240	-0.218609	0.241408
N55	N	1.213206	-0.250147	0.122984
N56	N	1.249463	-0.287399	0.211414
H57	H	1.189039	-0.304414	0.298653
N58	N	1.597095	-0.223231	0.146068
N59	N	1.683727	-0.166419	0.151471
H60	H	1.769164	-0.181499	0.157043
N61	N	1.602478	-0.067785	0.144502
N62	N	1.659342	-0.026562	0.047158
H63	H	1.746218	-0.000460	0.051690
H64	H	1.417932	-0.074495	0.240830
N65	N	1.488020	-0.270260	-0.268044
N66	N	1.396735	-0.323831	-0.262385
H67	H	1.372799	-0.355699	-0.355090
N68	N	1.482244	-0.114016	-0.266727
N69	N	1.390447	-0.072206	-0.256123
H70	H	1.362260	-0.062073	-0.346615
N71	N	1.542772	0.271375	0.338357
N72	N	1.563894	0.259907	0.202469
H73	H	1.631826	0.223054	0.147417
H74	H	1.621579	-0.098912	-0.146934
