data_functionalizedCrystal
_audit_creation_method	'MofGen! by Chris Wilmer'
_symmetry_space_group_name_H-M	'P1'
_symmetry_Int_Tables_number	1
_symmetry_cell_setting	triclinic
loop_
_symmetry_equiv_pos_as_xyz
  x,y,z
_cell_length_a	11.792254
_cell_length_b	11.792254
_cell_length_c	9.130313
_cell_angle_alpha	89.995304
_cell_angle_beta	89.996532
_cell_angle_gamma	84.198598
loop_
_atom_site_label
_atom_site_type_symbol
_atom_site_fract_x
_atom_site_fract_y
_atom_site_fract_z
O1	O	1.506906	0.155635	-0.121799
O2	O	1.176567	0.171653	-0.121802
O3	O	1.349745	-0.001525	-0.121790
O4	O	1.333728	0.328813	-0.121811
O5	O	1.349733	-0.001530	0.121809
O6	O	1.176555	0.171648	0.121797
O7	O	1.506894	0.155630	0.121800
Cu8	Cu	1.341723	0.163639	0.144041
Cu9	Cu	1.341738	0.163645	-0.144043
O10	O	1.333716	0.328808	0.121788
C11	C	1.134271	0.170642	-0.000003
C12	C	1.008257	0.167621	-0.000004
C13	C	0.905921	0.165168	-0.000010
C14	C	0.777534	0.162099	-0.000011
C15	C	1.348730	-0.043818	0.000009
C16	C	1.345710	-0.169832	0.000008
C17	C	1.343256	-0.272168	0.000002
C18	C	1.340188	-0.400555	-0.000011
C19	C	1.549190	0.156642	-0.000002
C20	C	1.675204	0.159662	-0.000011
C21	C	1.334731	0.371102	-0.000014
C22	C	1.337751	0.497115	-0.000022
N23	N	1.341722	0.163634	0.346664
N24	N	1.341748	0.163641	-0.346666
C25	C	1.418431	0.086983	0.423321
C26	C	1.418442	0.086983	0.576658
C27	C	1.265031	0.240295	0.576666
C28	C	1.265015	0.240288	0.423332
H29	H	1.480889	0.024564	0.360901
H30	H	1.480904	0.024566	0.639068
C31	C	1.180671	0.324619	0.661007
H32	H	1.191674	0.313654	0.763307
H33	H	1.104845	0.311780	0.635904
H34	H	1.193469	0.400455	0.635855
H35	H	1.202544	0.302707	0.360914
