data_functionalizedCrystal
_audit_creation_method	'MofGen! by Chris Wilmer'
_symmetry_space_group_name_H-M	'P1'
_symmetry_Int_Tables_number	1
_symmetry_cell_setting	triclinic
loop_
_symmetry_equiv_pos_as_xyz
  x,y,z
_cell_length_a	17.038272
_cell_length_b	17.019294
_cell_length_c	15.455313
_cell_angle_alpha	88.788101
_cell_angle_beta	87.131318
_cell_angle_gamma	87.244363
loop_
_atom_site_label
_atom_site_type_symbol
_atom_site_fract_x
_atom_site_fract_y
_atom_site_fract_z
O1	O	1.041241	0.167513	-0.084532
O2	O	0.813604	0.164801	-0.084355
O3	O	0.933367	0.052131	-0.075922
O4	O	0.921478	0.280183	-0.092965
O5	O	0.926518	0.058545	0.067860
O6	O	0.806755	0.171216	0.059427
O7	O	1.034392	0.173927	0.059250
Cu8	Cu	0.919948	0.173157	0.072467
Cu9	Cu	0.928048	0.165571	-0.097572
O10	O	0.914629	0.286598	0.050817
C11	C	0.781045	0.165543	-0.012283
C12	C	0.694233	0.158186	-0.011743
C13	C	0.929357	0.026014	-0.001841
C14	C	0.927602	-0.061362	0.004683
C15	C	0.644300	0.225721	-0.016790
C16	C	0.562731	0.218806	-0.016261
C17	C	0.531095	0.144354	-0.010692
C18	C	0.581033	0.076814	-0.005642
C19	C	0.662601	0.083731	-0.006165
C20	C	0.285270	0.119919	-0.008842
C21	C	0.203696	0.113007	-0.008323
C22	C	0.185399	0.254999	-0.018940
C23	C	0.266969	0.261909	-0.019467
C24	C	0.316900	0.194369	-0.014413
C25	C	0.447718	0.137283	-0.010154
C26	C	0.400275	0.201441	-0.014945
C27	C	0.930512	-0.105903	-0.070628
C28	C	0.928858	-0.188002	-0.064495
C29	C	0.924299	-0.225558	0.016948
C30	C	0.921386	-0.181011	0.092264
C31	C	0.923035	-0.098913	0.086131
C32	C	0.919130	-0.473265	0.039388
C33	C	0.917484	-0.555369	0.045516
C34	C	0.924955	-0.562354	-0.111244
C35	C	0.926608	-0.480255	-0.117370
C36	C	0.923690	-0.435714	-0.042055
C37	C	0.922611	-0.309476	0.023219
C38	C	0.925373	-0.351797	-0.048326
C39	C	1.066951	0.173186	-0.012824
C40	C	1.153764	0.180542	-0.013369
C41	C	0.918639	0.312714	-0.023265
C42	C	0.920394	0.400090	-0.029795
N43	N	0.914257	0.178493	0.192063
N44	N	0.933745	0.160230	-0.217167
C45	C	0.965155	0.130646	0.241039
C46	C	0.960858	0.134689	0.331544
C47	C	0.905667	0.186583	0.373072
C48	C	0.854765	0.234431	0.324090
C49	C	0.859058	0.230383	0.233587
C50	C	0.887135	0.204031	0.643347
C51	C	0.882847	0.208076	0.733857
C52	C	0.988940	0.108333	0.741305
C53	C	0.993232	0.104294	0.650799
C54	C	0.942327	0.152139	0.601826
N55	N	0.901276	0.190718	0.465583
N56	N	0.946715	0.147999	0.509317
H57	H	0.670051	0.286348	-0.021325
H58	H	0.522079	0.273800	-0.020371
H59	H	0.913767	-0.585944	0.111840
O60	O	0.297566	0.334294	-0.024838
C61	C	0.236003	0.392420	-0.029200
H62	H	0.179248	0.367893	-0.000051
H63	H	0.251190	0.445934	0.008682
H64	H	0.227790	0.410436	-0.099756
H65	H	0.934229	-0.075332	-0.136948
H66	H	1.038173	0.062038	0.616989
O67	O	0.927665	-0.605537	-0.184458
C68	C	0.862657	-0.583233	-0.233943
H69	H	0.840252	-0.521166	-0.216224
H70	H	0.881327	-0.584617	-0.305785
H71	H	0.813828	-0.625879	-0.219838
O72	O	0.918094	-0.346047	0.102280
C73	C	0.849250	-0.388939	0.110197
H74	H	0.829675	-0.402801	0.042954
H75	H	0.861738	-0.446182	0.147740
H76	H	0.800669	-0.352520	0.146296
O77	O	0.837768	0.250630	0.595817
C78	C	0.849608	0.330296	0.612064
H79	H	0.911038	0.336010	0.636582
H80	H	0.843526	0.366490	0.549644
H81	H	0.803837	0.352810	0.663103
H82	H	0.809823	0.276681	0.357908
H83	H	0.837902	0.250337	0.767665
H84	H	0.144737	0.309986	-0.023052
O85	O	0.916922	-0.217363	0.171447
C86	C	0.914725	-0.160443	0.236603
H87	H	0.892260	-0.101346	0.209131
H88	H	0.873710	-0.179266	0.293005
H89	H	0.976427	-0.154688	0.260360
H90	H	0.920654	-0.062647	0.147456
O91	O	0.173092	0.040622	-0.002870
C92	C	0.234653	-0.017510	0.001456
H93	H	0.288822	0.009444	0.026755
H94	H	0.215496	-0.067297	0.047059
H95	H	0.249422	-0.041682	-0.065947
H96	H	0.817611	0.269344	0.193712
H97	H	0.929080	-0.321215	-0.114637
H98	H	0.421950	0.076665	-0.005595
O99	O	1.038459	0.061819	0.788747
C100	C	1.088074	0.015130	0.732687
H101	H	1.092101	0.044542	0.665758
H102	H	1.149250	0.008507	0.759413
H103	H	1.062992	-0.045409	0.727559
H104	H	0.325915	0.064922	-0.004726
H105	H	0.555269	0.016194	-0.001095
O106	O	0.916417	-0.429922	0.112481
C107	C	0.984818	-0.386617	0.113958
H108	H	1.010858	-0.378817	0.045097
H109	H	0.969184	-0.326420	0.142738
H110	H	1.029721	-0.419595	0.155232
O111	O	0.710998	0.018045	-0.001300
C112	C	0.665586	-0.049151	0.003747
H113	H	0.606051	-0.034484	-0.024657
H114	H	0.697537	-0.098668	-0.034436
H115	H	0.656449	-0.068638	0.074414
H116	H	0.426037	0.262060	-0.019474
H117	H	0.931232	-0.224265	-0.125821
H118	H	0.930321	-0.449683	-0.183690
H119	H	1.010100	0.088393	0.207233
O120	O	1.010391	0.088190	0.378985
C121	C	1.060018	0.041514	0.322925
H122	H	1.064027	0.070920	0.255993
H123	H	1.121198	0.034918	0.349644
H124	H	1.034959	-0.019037	0.317808
