data_functionalizedCrystal
_audit_creation_method	'MofGen! by Chris Wilmer'
_symmetry_space_group_name_H-M	'P1'
_symmetry_Int_Tables_number	1
_symmetry_cell_setting	triclinic
loop_
_symmetry_equiv_pos_as_xyz
  x,y,z
_cell_length_a	21.395364
_cell_length_b	18.050589
_cell_length_c	21.395355
_cell_angle_alpha	89.987098
_cell_angle_beta	89.975273
_cell_angle_gamma	90.026554
loop_
_atom_site_label
_atom_site_type_symbol
_atom_site_fract_x
_atom_site_fract_y
_atom_site_fract_z
Zn1	Zn	0.957870	-0.295779	-0.354289
Zn2	Zn	1.457870	0.204221	0.145711
Zn3	Zn	0.957777	-0.419950	-0.249522
Zn4	Zn	1.457777	0.080050	0.250478
Zn5	Zn	0.853085	-0.295775	-0.249525
Zn6	Zn	1.353085	0.204225	0.250475
Zn7	Zn	0.853059	-0.419928	-0.354261
Zn8	Zn	1.353059	0.080072	0.145739
O9	O	0.905448	-0.357858	-0.301899
O10	O	1.405448	0.142142	0.198101
O11	O	1.045535	-0.312261	-0.340401
O12	O	1.545535	0.187739	0.159599
O13	O	0.943861	-0.403486	-0.161844
O14	O	1.443861	0.096514	0.338156
O15	O	0.867035	-0.191851	-0.263435
O16	O	1.367035	0.308149	0.236565
O17	O	1.045467	-0.403490	-0.263429
O18	O	1.545467	0.096510	0.236571
O19	O	0.944020	-0.191853	-0.340405
O20	O	1.444020	0.308147	0.159595
O21	O	0.866945	-0.312255	-0.161847
O22	O	1.366945	0.187745	0.338153
O23	O	0.765403	-0.312233	-0.263409
O24	O	1.265403	0.187767	0.236591
O25	O	0.866990	-0.403451	-0.441943
O26	O	1.366990	0.096549	0.058057
O27	O	0.765384	-0.403448	-0.340358
O28	O	1.265384	0.096552	0.159642
O29	O	0.943994	-0.312239	-0.441963
O30	O	1.443994	0.187761	0.058037
O31	O	0.943836	-0.523872	-0.263403
O32	O	1.443836	-0.023872	0.236597
O33	O	0.866900	-0.523855	-0.340354
O34	O	1.366900	-0.023855	0.159646
C35	C	0.742660	-0.357838	-0.301881
C36	C	1.242660	0.142162	0.198119
C37	C	0.673019	-0.357847	-0.301888
C38	C	1.173019	0.142153	0.198112
C39	C	0.171229	-0.405440	-0.341928
C40	C	0.671229	0.094560	0.158072
C41	C	0.236664	-0.405440	-0.341921
C42	C	0.736664	0.094560	0.158079
C43	C	0.269380	-0.357874	-0.301919
C44	C	0.769380	0.142126	0.198081
C45	C	0.236656	-0.310318	-0.261909
C46	C	0.736656	0.189682	0.238091
C47	C	0.171221	-0.310324	-0.261912
C48	C	0.671221	0.189676	0.238088
C49	C	0.373067	-0.290946	-0.297062
C50	C	0.873067	0.209054	0.202938
C51	C	0.438500	-0.290938	-0.297063
C52	C	0.938500	0.209062	0.202937
C53	C	0.471201	-0.357855	-0.301905
C54	C	0.971201	0.142145	0.198095
C55	C	0.438462	-0.424781	-0.306759
C56	C	0.938462	0.075219	0.193241
C57	C	0.373027	-0.424787	-0.306763
C58	C	0.873027	0.075213	0.193237
C59	C	0.340333	-0.357862	-0.301911
C60	C	0.840333	0.142138	0.198089
C61	C	0.574871	-0.405412	-0.341903
C62	C	1.074871	0.094588	0.158097
C63	C	0.640307	-0.405413	-0.341892
C64	C	1.140307	0.094587	0.158108
C65	C	0.640297	-0.310284	-0.261883
C66	C	1.140297	0.189716	0.238117
C67	C	0.574862	-0.310289	-0.261890
C68	C	1.074862	0.189711	0.238110
C69	C	0.542152	-0.357852	-0.301904
C70	C	1.042152	0.142148	0.198096
C71	C	0.905372	-0.550810	-0.301889
C72	C	1.405372	-0.050810	0.198111
C73	C	0.905397	-0.633356	-0.301905
C74	C	1.405397	-0.133356	0.198095
C75	C	0.863600	-0.832824	-0.343737
C76	C	1.363600	-0.332824	0.156263
C77	C	0.848322	-0.882251	-0.286564
C78	C	1.348322	-0.382251	0.213436
C79	C	0.905458	-0.784486	-0.301913
C80	C	1.405458	-0.284486	0.198087
C81	C	0.920767	-0.882141	-0.359093
C82	C	1.420767	-0.382141	0.140907
C83	C	0.905517	-0.930471	-0.301926
C84	C	1.405517	-0.430471	0.198074
C85	C	0.890150	-0.832826	-0.244710
C86	C	1.390150	-0.332826	0.255290
C87	C	0.962622	-0.832711	-0.317278
C88	C	1.462622	-0.332711	0.182722
C89	C	0.947366	-0.882116	-0.260065
C90	C	1.447366	-0.382116	0.239935
C91	C	0.905423	-0.700388	-0.301907
C92	C	1.405423	-0.200388	0.198093
C93	C	0.905552	-1.014568	-0.301927
C94	C	1.405552	-0.514568	0.198073
C95	C	1.068871	-0.357878	-0.301918
C96	C	1.568871	0.142122	0.198082
C97	C	1.138512	-0.357887	-0.301926
C98	C	1.638512	0.142113	0.198074
C99	C	0.905500	-0.357843	-0.465323
C100	C	1.405500	0.142157	0.034677
C101	C	0.905522	-0.357836	-0.534964
C102	C	1.405522	0.142164	-0.034964
C103	C	0.905541	-0.164152	-0.301923
C104	C	1.405541	0.335848	0.198077
C105	C	0.905580	-0.081606	-0.301934
C106	C	1.405580	0.418394	0.198066
C107	C	0.945616	-0.310340	-0.567688
C108	C	1.445616	0.189660	-0.067688
C109	C	0.945615	-0.310309	-0.633124
C110	C	1.445615	0.189691	-0.133124
C111	C	0.905527	-0.357786	-0.665832
C112	C	1.405527	0.142214	-0.165832
C113	C	0.865424	-0.405285	-0.633100
C114	C	1.365424	0.094715	-0.133100
C115	C	0.865422	-0.405310	-0.567666
C116	C	1.365422	0.094690	-0.067666
C117	C	0.900553	-0.424655	-0.769503
C118	C	1.400553	0.075345	-0.269503
C119	C	0.900560	-0.424631	-0.834936
C120	C	1.400560	0.075369	-0.334936
C121	C	0.905530	-0.357707	-0.867653
C122	C	1.405530	0.142293	-0.367653
C123	C	0.910507	-0.290806	-0.834929
C124	C	1.410507	0.209194	-0.334929
C125	C	0.910505	-0.290831	-0.769495
C126	C	1.410505	0.209169	-0.269495
C127	C	0.905525	-0.357763	-0.736785
C128	C	1.405525	0.142237	-0.236785
C129	C	0.945626	-0.310173	-0.971330
C130	C	1.445626	0.189827	-0.471330
C131	C	0.945621	-0.310140	-1.036767
C132	C	1.445621	0.189860	-0.536767
C133	C	0.865433	-0.405123	-1.036742
C134	C	1.365433	0.094877	-0.536742
C135	C	0.865435	-0.405149	-0.971306
C136	C	1.365435	0.094851	-0.471306
C137	C	0.905535	-0.357675	-0.938604
C138	C	1.405535	0.142325	-0.438604
C139	C	0.905432	-0.357819	-0.139112
C140	C	1.405432	0.142181	0.360888
C141	C	0.905531	-0.357616	-0.069471
C142	C	1.405531	0.142384	0.430529
H143	H	0.144584	-0.271599	-0.229337
H144	H	0.644584	0.228401	0.270663
C145	C	0.821330	-0.457403	-0.935308
C146	C	1.321330	0.042597	-0.435308
N147	N	0.788107	-0.496760	-0.908194
N148	N	1.288107	0.003240	-0.408194
C149	C	0.895097	-0.498282	-0.733521
C150	C	1.395097	0.001718	-0.233521
N151	N	0.890992	-0.553736	-0.706421
N152	N	1.390992	-0.053736	-0.206421
H153	H	0.832782	-0.443939	-0.659735
H154	H	1.332782	0.056061	-0.159735
H155	H	0.978264	-0.271628	-0.659773
H156	H	1.478264	0.228372	-0.159773
H157	H	0.832786	-0.443772	-1.063372
H158	H	1.332786	0.056228	-0.563372
H159	H	0.828150	-0.811180	-0.379056
H160	H	1.328150	-0.311180	0.120944
H161	H	1.010926	-0.810936	-0.330289
H162	H	1.510926	-0.310936	0.169711
H163	H	0.933693	-0.903802	-0.407444
H164	H	1.433693	-0.403802	0.092556
H165	H	0.877169	-0.811254	-0.196346
H166	H	1.377169	-0.311254	0.303654
H167	H	0.978270	-0.271458	-1.063410
H168	H	1.478270	0.228542	-0.563410
H169	H	0.832769	-0.443986	-0.541022
H170	H	1.332769	0.056014	-0.041022
C171	C	0.915974	-0.217184	-0.870912
C172	C	1.415974	0.282816	-0.370912
N173	N	0.920092	-0.161734	-0.898018
N174	N	1.420092	0.338266	-0.398018
H175	H	0.896511	-0.479106	-0.861575
H176	H	1.396511	0.020894	-0.361575
C177	C	0.995219	-0.911177	-0.212237
C178	C	1.495219	-0.411177	0.287763
N179	N	1.031259	-0.933069	-0.176210
N180	N	1.531259	-0.433069	0.323790
H181	H	0.144601	-0.444172	-0.374508
H182	H	0.644601	0.055828	0.125492
C183	C	0.989731	-0.257944	-0.935356
C184	C	1.489731	0.242056	-0.435356
N185	N	1.022950	-0.218604	-0.908262
N186	N	1.522950	0.281396	-0.408262
H187	H	0.914556	-0.236358	-0.742853
H188	H	1.414556	0.263642	-0.242853
C189	C	0.989719	-0.258108	-0.531720
C190	C	1.489719	0.241892	-0.031720
N191	N	1.022935	-0.218762	-0.504628
N192	N	1.522935	0.281238	-0.004628
C193	C	0.783048	-0.911649	-0.269010
C194	C	1.283048	-0.411649	0.230990
N195	N	0.733883	-0.933790	-0.255793
N196	N	1.233883	-0.433790	0.244207
H197	H	0.346373	-0.479281	-0.310713
H198	H	0.846373	0.020719	0.189287
C199	C	0.272660	-0.457749	-0.385933
C200	C	0.772660	0.042251	0.114067
N201	N	0.299770	-0.497147	-0.419085
N202	N	0.799770	0.002853	0.080915
H203	H	0.666934	-0.271557	-0.229310
H204	H	1.166934	0.228443	0.270690
C205	C	0.538888	-0.457737	-0.385913
C206	C	1.038888	0.042263	0.114087
N207	N	0.511788	-0.497149	-0.419062
N208	N	1.011788	0.002851	0.080938
C209	C	0.474428	-0.498395	-0.312085
C210	C	0.974428	0.001605	0.187915
N211	N	0.501521	-0.553839	-0.316098
N212	N	1.001521	-0.053839	0.183902
C213	C	0.474507	-0.217318	-0.291725
C214	C	0.974507	0.282682	0.208275
N215	N	0.501626	-0.161866	-0.287702
N216	N	1.001626	0.338134	0.212298
C217	C	0.676296	-0.457732	-0.385897
C218	C	1.176296	0.042268	0.114103
N219	N	0.703402	-0.497140	-0.419042
N220	N	1.203402	0.002860	0.080958
H221	H	0.548224	-0.271564	-0.229318
H222	H	1.048224	0.228436	0.270682
H223	H	0.346447	-0.236452	-0.293109
H224	H	0.846447	0.263548	0.206891
H225	H	0.263297	-0.271590	-0.229338
H226	H	0.763297	0.228410	0.270662
