data_functionalizedCrystal
_audit_creation_method	'MofGen! by Chris Wilmer'
_symmetry_space_group_name_H-M	'P1'
_symmetry_Int_Tables_number	1
_symmetry_cell_setting	triclinic
loop_
_symmetry_equiv_pos_as_xyz
  x,y,z
_cell_length_a	18.215407
_cell_length_b	13.032721
_cell_length_c	13.033454
_cell_angle_alpha	89.068673
_cell_angle_beta	97.160462
_cell_angle_gamma	97.205008
loop_
_atom_site_label
_atom_site_type_symbol
_atom_site_fract_x
_atom_site_fract_y
_atom_site_fract_z
Zn1	Zn	1.038452	-0.335495	-0.633487
Zn2	Zn	1.034453	-0.529348	-0.483349
Zn3	Zn	0.928799	-0.357393	-0.461533
Zn4	Zn	0.898034	-0.507432	-0.655261
O5	O	0.974934	-0.432417	-0.558407
O6	O	1.140904	-0.361218	-0.613588
O7	O	1.031639	-0.524874	-0.336546
O8	O	0.957893	-0.210568	-0.466100
O9	O	1.137965	-0.503641	-0.503282
O10	O	1.038455	-0.194480	-0.592434
O11	O	0.954015	-0.398539	-0.320517
O12	O	0.821736	-0.377288	-0.487214
O13	O	0.905460	-0.466288	-0.796282
O14	O	0.799133	-0.487521	-0.629545
O15	O	1.008624	-0.339966	-0.780285
O16	O	1.001808	-0.670361	-0.524396
O17	O	0.901582	-0.654259	-0.650699
C18	C	0.783732	-0.432403	-0.558376
C19	C	0.701931	-0.432419	-0.558390
C20	C	0.501983	-0.489931	-0.632432
C21	C	0.425123	-0.489933	-0.632445
C22	C	0.448634	-0.374919	-0.484407
C23	C	0.525493	-0.374912	-0.484400
C24	C	0.552165	-0.432424	-0.558411
C25	C	0.398446	-0.432432	-0.558432
C26	C	0.315111	-0.432434	-0.558446
C27	C	0.635505	-0.432421	-0.558399
C28	C	0.947941	-0.699624	-0.592300
C29	C	0.936457	-0.813932	-0.606834
C30	C	0.980963	-0.872820	-0.550868
C31	C	0.969096	-0.990963	-0.565888
C32	C	1.166883	-0.432431	-0.558440
C33	C	1.248680	-0.432438	-0.558454
C34	C	0.954056	-0.398240	-0.826641
C35	C	0.945159	-0.383675	-0.940946
C36	C	1.002052	-0.164164	-0.524405
C37	C	1.013608	-0.049850	-0.509915
C38	C	0.979599	-0.439690	-0.999837
C39	C	0.970405	-0.424639	-1.117977
C40	C	0.995781	-0.466387	-0.291208
C41	C	1.004850	-0.480661	-0.176867
H42	H	0.426908	-0.328096	-0.424148
H43	H	0.934114	-0.365531	-1.155016
O44	O	1.048038	-0.551290	-1.132660
C45	C	1.004231	-0.625558	-1.078912
H46	H	0.943121	-0.627802	-1.112141
H47	H	1.011201	-0.604053	-0.993506
C48	C	1.104569	-0.729947	-1.049867
C49	C	1.029514	-0.732710	-1.090686
H50	H	1.120166	-0.796043	-1.057126
H51	H	1.134084	-0.679910	-1.086075
H52	H	1.110368	-0.712022	-0.978700
H53	H	1.023718	-0.750621	-1.161855
H54	H	0.999999	-0.782753	-1.054490
O55	O	0.901762	-0.313233	-0.985020
C56	C	0.828162	-0.339033	-0.961704
H57	H	0.828669	-0.388439	-0.888694
H58	H	0.793361	-0.384262	-1.028840
C59	C	0.793467	-0.178697	-1.033843
C60	C	0.794091	-0.239371	-0.944166
H61	H	0.772448	-0.117221	-1.023029
H62	H	0.843052	-0.161316	-1.049556
H63	H	0.764467	-0.216399	-1.089781
H64	H	0.823097	-0.201673	-0.888234
H65	H	0.744510	-0.256743	-0.928444
O66	O	0.527769	-0.545808	-0.704432
C67	C	0.466991	-0.596583	-0.769752
H68	H	0.416176	-0.554005	-0.768039
H69	H	0.453869	-0.679451	-0.741874
C70	C	0.549380	-0.649914	-0.883183
C71	C	0.486970	-0.597615	-0.881085
H72	H	0.561704	-0.650556	-0.951858
H73	H	0.590328	-0.615710	-0.839174
H74	H	0.538437	-0.718966	-0.859946
H75	H	0.497917	-0.528561	-0.904310
H76	H	0.446024	-0.631808	-0.925101
H77	H	0.889570	-0.850980	-0.665873
O78	O	0.913239	-1.035253	-0.636388
C79	C	0.943739	-1.088823	-0.710713
H80	H	1.000760	-1.109368	-0.676526
H81	H	0.949973	-1.037734	-0.781710
C82	C	0.821573	-1.163368	-0.784163
C83	C	0.891605	-1.188610	-0.742172
H84	H	0.789413	-1.224918	-0.803573
H85	H	0.801024	-1.127274	-0.734093
H86	H	0.826778	-1.120791	-0.843323
H87	H	0.886399	-1.231174	-0.683007
H88	H	0.912152	-1.224713	-0.792234
O89	O	0.376350	-0.545637	-0.704439
C90	C	0.332616	-0.478718	-0.763533
H91	H	0.363455	-0.396900	-0.759741
H92	H	0.277198	-0.479180	-0.731296
C93	C	0.280170	-0.616008	-0.881409
C94	C	0.318049	-0.515519	-0.876759
H95	H	0.271181	-0.638710	-0.951252
H96	H	0.309631	-0.661095	-0.841595
H97	H	0.233992	-0.616381	-0.854540
H98	H	0.364229	-0.515151	-0.903616
H99	H	0.288595	-0.470433	-0.916581
O100	O	1.069608	-1.005832	-0.439468
C101	C	1.108672	-1.083529	-0.390329
H102	H	1.100278	-1.154747	-0.442121
H103	H	1.086708	-1.104933	-0.313635
C104	C	1.202663	-0.955814	-0.306680
C105	C	1.192358	-1.043282	-0.370296
H106	H	1.254284	-0.930988	-0.294318
H107	H	1.176344	-0.903467	-0.339782
H108	H	1.184355	-0.973663	-0.242776
H109	H	1.210658	-1.025430	-0.434203
H110	H	1.218682	-1.095626	-0.337204
H111	H	1.015895	-0.498786	-0.962793
O112	O	0.574142	-0.319027	-0.412389
C113	C	0.534122	-0.268253	-0.347076
H114	H	0.475362	-0.310838	-0.348791
H115	H	0.530895	-0.185388	-0.374961
C116	C	0.646310	-0.214901	-0.233642
C117	C	0.574142	-0.267209	-0.235741
H118	H	0.670997	-0.214252	-0.164965
H119	H	0.673273	-0.249104	-0.277646
H120	H	0.643611	-0.145851	-0.256885
H121	H	0.576843	-0.336260	-0.212511
H122	H	0.547180	-0.233017	-0.191730
H123	H	1.027855	-0.835774	-0.491837
