data_functionalizedCrystal
_audit_creation_method	'MofGen! by Chris Wilmer'
_symmetry_space_group_name_H-M	'P1'
_symmetry_Int_Tables_number	1
_symmetry_cell_setting	triclinic
loop_
_symmetry_equiv_pos_as_xyz
  x,y,z
_cell_length_a	23.532407
_cell_length_b	23.532407
_cell_length_c	13.596369
_cell_angle_alpha	90.000007
_cell_angle_beta	89.989360
_cell_angle_gamma	82.848678
loop_
_atom_site_label
_atom_site_type_symbol
_atom_site_fract_x
_atom_site_fract_y
_atom_site_fract_z
O1	O	0.069136	0.755260	-0.081679
O2	O	0.319136	1.005260	0.168321
O3	O	0.569136	1.255260	0.418321
O4	O	0.819136	1.505260	0.668321
O5	O	0.079139	0.589397	-0.081709
O6	O	0.329139	0.839397	0.168291
O7	O	0.579139	1.089397	0.418291
O8	O	0.829139	1.339397	0.668291
O9	O	-0.008794	0.677330	-0.081675
O10	O	0.241206	0.927330	0.168325
O11	O	0.491206	1.177330	0.418325
O12	O	0.741206	1.427330	0.668325
O13	O	0.157069	0.667327	-0.081713
O14	O	0.407069	0.917327	0.168287
O15	O	0.657069	1.167327	0.418287
O16	O	0.907069	1.417327	0.668287
O17	O	-0.008799	0.677321	0.081908
O18	O	0.241201	0.927321	0.331908
O19	O	0.491201	1.177321	0.581908
O20	O	0.741201	1.427321	0.831908
O21	O	0.079134	0.589388	0.081874
O22	O	0.329134	0.839388	0.331874
O23	O	0.579134	1.089388	0.581874
O24	O	0.829134	1.339388	0.831874
O25	O	0.069131	0.755251	0.081904
O26	O	0.319131	1.005251	0.331904
O27	O	0.569131	1.255251	0.581904
O28	O	0.819131	1.505251	0.831904
Zn29	Zn	0.074132	0.672318	0.107862
Zn30	Zn	0.324132	0.922318	0.357862
Zn31	Zn	0.574132	1.172318	0.607862
Zn32	Zn	0.824132	1.422318	0.857862
Zn33	Zn	0.074138	0.672330	-0.107666
Zn34	Zn	0.324138	0.922330	0.142334
Zn35	Zn	0.574138	1.172330	0.392334
Zn36	Zn	0.824138	1.422330	0.642334
O37	O	0.157064	0.667318	0.081870
O38	O	0.407064	0.917318	0.331870
O39	O	0.657064	1.167318	0.581870
O40	O	0.907064	1.417318	0.831870
C41	C	0.078882	0.568176	0.000079
C42	C	0.328882	0.818176	0.250079
C43	C	0.578882	1.068176	0.500079
C44	C	0.828882	1.318176	0.750079
C45	C	0.078116	0.504959	0.000068
C46	C	0.328116	0.754959	0.250068
C47	C	0.578116	1.004959	0.500068
C48	C	0.828116	1.254959	0.750068
C49	C	0.125350	0.105856	0.000102
C50	C	0.375350	0.355856	0.250102
C51	C	0.625350	0.605856	0.500102
C52	C	0.875350	0.855856	0.750102
C53	C	0.124638	0.046456	0.000108
C54	C	0.374638	0.296456	0.250108
C55	C	0.624638	0.546456	0.500108
C56	C	0.874638	0.796456	0.750108
O57	O	0.168424	0.009711	0.000134
O58	O	0.418424	0.259711	0.250134
O59	O	0.668424	0.509711	0.500134
O60	O	0.918424	0.759711	0.750134
N61	N	0.072362	0.023830	0.000118
N62	N	0.322362	0.273830	0.250118
N63	N	0.572362	0.523830	0.500118
N64	N	0.822362	0.773830	0.750118
C65	C	0.020794	0.060607	0.000133
C66	C	0.270794	0.310607	0.250133
C67	C	0.520794	0.560607	0.500133
C68	C	0.770794	0.810607	0.750133
O69	O	-0.023737	0.035908	0.000143
O70	O	0.226263	0.285908	0.250143
O71	O	0.476263	0.535908	0.500143
O72	O	0.726263	0.785908	0.750143
C73	C	0.021506	0.120006	0.000133
C74	C	0.271506	0.370006	0.250133
C75	C	0.521506	0.620006	0.500133
C76	C	0.771506	0.870006	0.750133
C77	C	0.073785	0.142629	0.000113
C78	C	0.323785	0.392629	0.250113
C79	C	0.573785	0.642629	0.500113
C80	C	0.823785	0.892629	0.750113
C81	C	0.177625	0.128479	0.000083
C82	C	0.427625	0.378479	0.250083
C83	C	0.677625	0.628479	0.500083
C84	C	0.927625	0.878479	0.750083
C85	C	0.178336	0.187876	0.000075
C86	C	0.428336	0.437876	0.250075
C87	C	0.678336	0.687876	0.500075
C88	C	0.928336	0.937876	0.750075
C89	C	0.126772	0.224649	0.000086
C90	C	0.376772	0.474649	0.250086
C91	C	0.626772	0.724649	0.500086
C92	C	0.876772	0.974649	0.750086
C93	C	0.074496	0.202025	0.000105
C94	C	0.324496	0.452025	0.250105
C95	C	0.574496	0.702025	0.500105
C96	C	0.824496	0.952025	0.750105
C97	C	-0.030062	0.156783	0.000155
C98	C	0.219938	0.406783	0.250155
C99	C	0.469938	0.656783	0.500155
C100	C	0.719938	0.906783	0.750155
C101	C	-0.029345	0.216185	0.000156
C102	C	0.220655	0.466185	0.250156
C103	C	0.470655	0.716185	0.500156
C104	C	0.720655	0.966185	0.750156
C105	C	0.022934	0.238808	0.000136
C106	C	0.272934	0.488808	0.250136
C107	C	0.522934	0.738808	0.500136
C108	C	0.772934	0.988808	0.750136
C109	C	0.023643	0.298194	0.000108
C110	C	0.273643	0.548194	0.250108
C111	C	0.523643	0.798194	0.500108
C112	C	0.773643	1.048194	0.750108
N113	N	0.075920	0.320820	0.000098
N114	N	0.325920	0.570820	0.250098
N115	N	0.575920	0.820820	0.500098
N116	N	0.825920	1.070820	0.750098
C117	C	0.127484	0.284048	0.000087
C118	C	0.377484	0.534048	0.250087
C119	C	0.627484	0.784048	0.500087
C120	C	0.877484	1.034048	0.750087
C121	C	0.019302	-0.064135	0.000133
C122	C	0.269302	0.185865	0.250133
C123	C	0.519302	0.435865	0.500133
C124	C	0.769302	0.685865	0.750133
C125	C	0.018589	-0.123533	0.000125
C126	C	0.268589	0.126467	0.250125
C127	C	0.518589	0.376467	0.500125
C128	C	0.768589	0.626467	0.750125
C129	C	0.122434	-0.137680	0.000102
C130	C	0.372434	0.112320	0.250102
C131	C	0.622434	0.362320	0.500102
C132	C	0.872434	0.612320	0.750102
C133	C	0.123146	-0.078281	0.000103
C134	C	0.373146	0.171719	0.250103
C135	C	0.623146	0.421719	0.500103
C136	C	0.873146	0.671719	0.750103
C137	C	0.071578	-0.041509	0.000122
C138	C	0.321578	0.208491	0.250122
C139	C	0.571578	0.458491	0.500122
C140	C	0.821578	0.708491	0.750122
C141	C	0.128974	0.408784	0.000069
C142	C	0.378974	0.658784	0.250069
C143	C	0.628974	0.908784	0.500069
C144	C	0.878974	1.158784	0.750069
C145	C	0.129680	0.468186	0.000057
C146	C	0.379680	0.718186	0.250057
C147	C	0.629680	0.968186	0.500057
C148	C	0.879680	1.218186	0.750057
C149	C	0.025836	0.482329	0.000085
C150	C	0.275836	0.732329	0.250085
C151	C	0.525836	0.982329	0.500085
C152	C	0.775836	1.232329	0.750085
C153	C	0.025129	0.422932	0.000092
C154	C	0.275129	0.672932	0.250092
C155	C	0.525129	0.922932	0.500092
C156	C	0.775129	1.172932	0.750092
C157	C	0.076702	0.386160	0.000087
C158	C	0.326702	0.636160	0.250087
C159	C	0.576702	0.886160	0.500087
C160	C	0.826702	1.136160	0.750087
O161	O	-0.020119	0.334974	0.000087
O162	O	0.229881	0.584974	0.250087
O163	O	0.479881	0.834974	0.500087
O164	O	0.729881	1.084974	0.750087
O165	O	0.172007	0.308755	0.000090
O166	O	0.422007	0.558755	0.250090
O167	O	0.672007	0.808755	0.500090
O168	O	0.922007	1.058755	0.750090
C169	C	-0.030013	0.677071	0.000119
C170	C	0.219987	0.927071	0.250119
C171	C	0.469987	1.177071	0.500119
C172	C	0.719987	1.427071	0.750119
C173	C	-0.093230	0.676305	0.000127
C174	C	0.156770	0.926305	0.250127
C175	C	0.406770	1.176305	0.500127
C176	C	0.656770	1.426305	0.750127
C177	C	-0.492333	0.723539	0.000081
C178	C	-0.242333	0.973539	0.250081
C179	C	0.007667	1.223539	0.500081
C180	C	0.257667	1.473539	0.750081
C181	C	-0.551733	0.722827	0.000074
C182	C	-0.301733	0.972827	0.250074
C183	C	-0.051733	1.222827	0.500074
C184	C	0.198267	1.472827	0.750074
O185	O	-0.588478	0.766613	0.000045
O186	O	-0.338478	1.016613	0.250045
O187	O	-0.088478	1.266613	0.500045
O188	O	0.161522	1.516613	0.750045
N189	N	-0.574359	0.670551	0.000065
N190	N	-0.324359	0.920551	0.250065
N191	N	-0.074359	1.170551	0.500065
N192	N	0.175641	1.420551	0.750065
C193	C	-0.537582	0.618983	0.000054
C194	C	-0.287582	0.868983	0.250054
C195	C	-0.037582	1.118983	0.500054
C196	C	0.212418	1.368983	0.750054
O197	O	-0.562281	0.574452	0.000044
O198	O	-0.312281	0.824452	0.250044
O199	O	-0.062281	1.074452	0.500044
O200	O	0.187719	1.324452	0.750044
C201	C	-0.478182	0.619695	0.000054
C202	C	-0.228182	0.869695	0.250054
C203	C	0.021818	1.119695	0.500054
C204	C	0.271818	1.369695	0.750054
C205	C	-0.455560	0.671974	0.000073
C206	C	-0.205560	0.921974	0.250073
C207	C	0.044440	1.171974	0.500073
C208	C	0.294440	1.421974	0.750073
C209	C	-0.469710	0.775814	0.000099
C210	C	-0.219710	1.025814	0.250099
C211	C	0.030290	1.275814	0.500099
C212	C	0.280290	1.525814	0.750099
C213	C	-0.410313	0.776525	0.000108
C214	C	-0.160313	1.026525	0.250108
C215	C	0.089687	1.276525	0.500108
C216	C	0.339687	1.526525	0.750108
C217	C	-0.373540	0.724961	0.000100
C218	C	-0.123540	0.974961	0.250100
C219	C	0.126460	1.224961	0.500100
C220	C	0.376460	1.474961	0.750100
C221	C	-0.396164	0.672685	0.000082
C222	C	-0.146164	0.922685	0.250082
C223	C	0.103836	1.172685	0.500082
C224	C	0.353836	1.422685	0.750082
C225	C	-0.441406	0.568127	0.000036
C226	C	-0.191406	0.818127	0.250036
C227	C	0.058594	1.068127	0.500036
C228	C	0.308594	1.318127	0.750036
C229	C	-0.382004	0.568844	0.000036
C230	C	-0.132004	0.818844	0.250036
C231	C	0.117996	1.068844	0.500036
C232	C	0.367996	1.318844	0.750036
C233	C	-0.359381	0.621123	0.000055
C234	C	-0.109381	0.871123	0.250055
C235	C	0.140619	1.121123	0.500055
C236	C	0.390619	1.371123	0.750055
C237	C	-0.299995	0.621832	0.000084
C238	C	-0.049995	0.871832	0.250084
C239	C	0.200005	1.121832	0.500084
C240	C	0.450005	1.371832	0.750084
N241	N	-0.277368	0.674109	0.000092
N242	N	-0.027368	0.924109	0.250092
N243	N	0.222632	1.174109	0.500092
N244	N	0.472632	1.424109	0.750092
C245	C	-0.314141	0.725673	0.000101
C246	C	-0.064141	0.975673	0.250101
C247	C	0.185859	1.225673	0.500101
C248	C	0.435859	1.475673	0.750101
C249	C	-0.662324	0.617491	0.000051
C250	C	-0.412324	0.867491	0.250051
C251	C	-0.162324	1.117491	0.500051
C252	C	0.087676	1.367491	0.750051
C253	C	-0.721722	0.616778	0.000057
C254	C	-0.471722	0.866778	0.250057
C255	C	-0.221722	1.116778	0.500057
C256	C	0.028278	1.366778	0.750057
C257	C	-0.735869	0.720623	0.000075
C258	C	-0.485869	0.970623	0.250075
C259	C	-0.235869	1.220623	0.500075
C260	C	0.014131	1.470623	0.750075
C261	C	-0.676470	0.721335	0.000076
C262	C	-0.426470	0.971335	0.250076
C263	C	-0.176470	1.221335	0.500076
C264	C	0.073530	1.471335	0.750076
C265	C	-0.639698	0.669767	0.000060
C266	C	-0.389698	0.919767	0.250060
C267	C	-0.139698	1.169767	0.500060
C268	C	0.110302	1.419767	0.750060
C269	C	-0.189405	0.727163	0.000121
C270	C	0.060595	0.977163	0.250121
C271	C	0.310595	1.227163	0.500121
C272	C	0.560595	1.477163	0.750121
C273	C	-0.130003	0.727869	0.000135
C274	C	0.119997	0.977869	0.250135
C275	C	0.369997	1.227869	0.500135
C276	C	0.619997	1.477869	0.750135
C277	C	-0.115860	0.624025	0.000111
C278	C	0.134140	0.874025	0.250111
C279	C	0.384140	1.124025	0.500111
C280	C	0.634140	1.374025	0.750111
C281	C	-0.175257	0.623318	0.000103
C282	C	0.074743	0.873318	0.250103
C283	C	0.324743	1.123318	0.500103
C284	C	0.574743	1.373318	0.750103
C285	C	-0.212029	0.674891	0.000105
C286	C	0.037971	0.924891	0.250105
C287	C	0.287971	1.174891	0.500105
C288	C	0.537971	1.424891	0.750105
O289	O	-0.263215	0.578070	0.000108
O290	O	-0.013215	0.828070	0.250108
O291	O	0.236785	1.078070	0.500108
O292	O	0.486785	1.328070	0.750108
O293	O	-0.289433	0.770196	0.000097
O294	O	-0.039433	1.020196	0.250097
O295	O	0.210567	1.270196	0.500097
O296	O	0.460567	1.520196	0.750097
C297	C	0.178283	0.667577	0.000074
C298	C	0.428283	0.917577	0.250074
C299	C	0.678283	1.167577	0.500074
C300	C	0.928283	1.417577	0.750074
C301	C	0.241500	0.668343	0.000060
C302	C	0.491500	0.918343	0.250060
C303	C	0.741500	1.168343	0.500060
C304	C	0.991500	1.418343	0.750060
C305	C	0.069388	0.776472	0.000114
C306	C	0.319388	1.026472	0.250114
C307	C	0.569388	1.276472	0.500114
C308	C	0.819388	1.526472	0.750114
C309	C	0.070154	0.839689	0.000119
C310	C	0.320154	1.089689	0.250119
C311	C	0.570154	1.339689	0.500119
C312	C	0.820154	1.589689	0.750119
N313	N	0.074128	0.672315	0.254953
N314	N	0.324128	0.922315	0.504953
N315	N	0.574128	1.172315	0.754953
N316	N	0.824128	1.422315	1.004953
N317	N	0.074138	0.672338	-0.254758
N318	N	0.324138	0.922338	-0.004758
N319	N	0.574138	1.172338	0.245242
N320	N	0.824138	1.422338	0.495242
C321	C	0.074139	0.672329	0.656244
C322	C	0.324139	0.922329	0.906244
C323	C	0.574139	1.172329	1.156244
C324	C	0.824139	1.422329	1.406244
C325	C	0.074138	0.672323	0.544593
C326	C	0.324138	0.922323	0.794593
C327	C	0.574138	1.172323	1.044593
C328	C	0.824138	1.422323	1.294593
C329	C	0.074134	0.672322	0.455602
C330	C	0.324134	0.922322	0.705602
C331	C	0.574134	1.172322	0.955602
C332	C	0.824134	1.422322	1.205602
C333	C	0.074132	0.672316	0.343944
C334	C	0.324132	0.922316	0.593944
C335	C	0.574132	1.172316	0.843944
C336	C	0.824132	1.422316	1.093944
H337	H	-0.016146	0.512280	0.000090
H338	H	0.233854	0.762280	0.250090
H339	H	0.483854	1.012280	0.500090
H340	H	0.733854	1.262280	0.750090
H341	H	0.165717	-0.059867	0.000092
H342	H	0.415717	0.190133	0.250092
H343	H	0.665717	0.440133	0.500092
H344	H	0.915717	0.690133	0.750092
H345	H	-0.022693	-0.034198	0.000140
H346	H	0.227307	0.215802	0.250140
H347	H	0.477307	0.465802	0.500140
H348	H	0.727307	0.715802	0.750140
F349	F	-0.076714	0.569149	0.000103
F350	F	0.173286	0.819149	0.250103
F351	F	0.423286	1.069149	0.500103
F352	F	0.673286	1.319149	0.750103
F353	F	0.233980	0.211944	0.000058
F354	F	0.483980	0.461944	0.250058
F355	F	0.733980	0.711944	0.500058
F356	F	0.983980	0.961944	0.750058
H357	H	0.172255	0.486602	0.000040
H358	H	0.422255	0.736602	0.250040
H359	H	0.672255	0.986602	0.500040
H360	H	0.922255	1.236602	0.750040
F361	F	-0.084233	0.255318	0.000179
F362	F	0.165767	0.505318	0.250179
F363	F	0.415767	0.755318	0.500179
F364	F	0.665767	1.005318	0.750179
H365	H	-0.111587	0.770443	0.000153
H366	H	0.138413	1.020443	0.250153
H367	H	0.388413	1.270443	0.500153
H368	H	0.638413	1.520443	0.750153
H369	H	-0.023982	-0.141947	0.000126
H370	H	0.226018	0.108053	0.250126
H371	H	0.476018	0.358053	0.500126
H372	H	0.726018	0.608053	0.750126
F373	F	-0.085706	0.132720	0.000162
F374	F	0.164294	0.382720	0.250162
F375	F	0.414294	0.632720	0.500162
F376	F	0.664294	0.882720	0.750162
F377	F	-0.228531	0.782053	0.000123
F378	F	0.021469	1.032053	0.250123
F379	F	0.271469	1.282053	0.500123
F380	F	0.521469	1.532053	0.750123
F381	F	-0.652399	0.776978	0.000096
F382	F	-0.402399	1.026978	0.250096
F383	F	-0.152399	1.276978	0.500096
F384	F	0.097601	1.526978	0.750096
H385	H	-0.352066	0.526850	0.000021
H386	H	-0.102066	0.776850	0.250021
H387	H	0.147934	1.026850	0.500021
H388	H	0.397934	1.276850	0.750021
F389	F	-0.386245	0.832169	0.000107
F390	F	-0.136245	1.082169	0.250107
F391	F	0.113755	1.332169	0.500107
F392	F	0.363755	1.582169	0.750107
F393	F	0.232512	0.089351	0.000071
F394	F	0.482512	0.339351	0.250071
F395	F	0.732512	0.589351	0.500071
F396	F	0.982512	0.839351	0.750071
F397	F	0.177314	-0.176827	0.000094
F398	F	0.427314	0.073173	0.250094
F399	F	0.677314	0.323173	0.500094
F400	F	0.927314	0.573173	0.750094
H401	H	-0.017441	0.404512	0.000094
H402	H	0.232559	0.654512	0.250094
H403	H	0.482559	0.904512	0.500094
H404	H	0.732559	1.154512	0.750094
F405	F	-0.508838	0.830701	0.000107
F406	F	-0.258838	1.080701	0.250107
F407	F	-0.008838	1.330701	0.500107
F408	F	0.241162	1.580701	0.750107
H409	H	-0.765821	0.762610	0.000078
H410	H	-0.515821	1.012610	0.250078
H411	H	-0.265821	1.262610	0.500078
H412	H	-0.015821	1.512610	0.750078
F413	F	-0.745792	0.561135	0.000055
F414	F	-0.495792	0.811135	0.250055
F415	F	-0.245792	1.061135	0.500055
F416	F	0.004208	1.311135	0.750055
F417	F	-0.623192	0.562602	0.000042
F418	F	-0.373192	0.812602	0.250042
F419	F	-0.123192	1.062602	0.500042
F420	F	0.126808	1.312602	0.750042
H421	H	-0.459814	0.525555	0.000015
H422	H	-0.209814	0.775555	0.250015
H423	H	0.040186	1.025555	0.500015
H424	H	0.290186	1.275555	0.750015
H425	H	0.170970	0.378851	0.000069
H426	H	0.420970	0.628851	0.250069
H427	H	0.670970	0.878851	0.500069
H428	H	0.920970	1.128851	0.750069
F429	F	-0.199335	0.567676	0.000101
F430	F	0.050665	0.817676	0.250101
F431	F	0.300665	1.067676	0.500101
F432	F	0.550665	1.317676	0.750101
