data_functionalizedCrystal
_audit_creation_method	'MofGen! by Chris Wilmer'
_symmetry_space_group_name_H-M	'P1'
_symmetry_Int_Tables_number	1
_symmetry_cell_setting	triclinic
loop_
_symmetry_equiv_pos_as_xyz
  x,y,z
_cell_length_a	10.654550
_cell_length_b	16.992695
_cell_length_c	15.455313
_cell_angle_alpha	92.847427
_cell_angle_beta	87.289345
_cell_angle_gamma	87.576563
loop_
_atom_site_label
_atom_site_type_symbol
_atom_site_fract_x
_atom_site_fract_y
_atom_site_fract_z
O1	O	1.682532	0.106785	-0.072204
O2	O	1.317960	0.117284	-0.072190
O3	O	1.498784	-0.002116	-0.072190
O4	O	1.501708	0.226184	-0.072204
O5	O	1.488441	0.004683	0.072072
O6	O	1.307616	0.124083	0.072072
O7	O	1.672189	0.113584	0.072058
Cu8	Cu	1.488958	0.119455	0.085237
Cu9	Cu	1.501190	0.111413	-0.085369
O10	O	1.491365	0.232984	0.072058
C11	C	1.489852	-0.027949	-0.000059
C12	C	1.478633	-0.115054	-0.000059
C13	C	1.265923	0.119913	-0.000057
C14	C	1.126280	0.117607	-0.000052
C15	C	1.586884	-0.164706	-0.000062
C16	C	1.576335	-0.246551	-0.000070
C17	C	1.457534	-0.278741	-0.000068
C18	C	1.349275	-0.229083	-0.000068
C19	C	1.359825	-0.147241	-0.000066
C20	C	1.413808	-0.522577	-0.000079
C21	C	1.403265	-0.604426	-0.000078
C22	C	1.630327	-0.621888	-0.000081
C23	C	1.640866	-0.540043	-0.000074
C24	C	1.532607	-0.490392	-0.000078
N25	N	1.446748	-0.362399	-0.000073
N26	N	1.543394	-0.406736	-0.000079
C27	C	1.052871	0.187907	-0.000069
C28	C	0.921664	0.185734	-0.000084
C29	C	0.937287	0.042956	-0.000068
C30	C	1.068492	0.045129	-0.000047
C31	C	1.110659	0.260384	-0.000073
C32	C	1.037249	0.330690	-0.000091
C33	C	0.906042	0.328517	-0.000106
C34	C	0.848245	0.256039	-0.000103
C35	C	1.724225	0.110955	-0.000077
C36	C	1.863868	0.113261	-0.000088
C37	C	1.500296	0.258817	-0.000075
C38	C	1.511516	0.345922	-0.000081
N39	N	1.480364	0.125110	0.205233
N40	N	1.509794	0.105752	-0.205365
C41	C	1.557215	0.074404	0.250627
C42	C	1.550728	0.078688	0.341435
C43	C	1.467395	0.133682	0.386847
C44	C	1.390536	0.184391	0.341447
C45	C	1.397017	0.180102	0.250640
C46	C	1.439416	0.152172	0.658428
C47	C	1.432943	0.156458	0.749241
C48	C	1.593134	0.050754	0.749223
C49	C	1.599613	0.046473	0.658415
C50	C	1.522749	0.097179	0.613023
N51	N	1.460765	0.138064	0.479667
N52	N	1.529374	0.092792	0.520204
H53	H	1.683624	-0.138504	-0.000058
C54	C	0.826558	0.404929	-0.000166
C55	C	0.905257	0.468861	-0.000186
C56	C	0.832086	0.539265	-0.000257
H57	H	0.771409	0.409536	0.050121
H58	H	0.778700	0.404717	-0.050501
H59	H	0.953094	0.469074	0.050143
H60	H	0.960406	0.464280	-0.050469
H61	H	0.784228	0.539053	-0.050592
H62	H	0.776939	0.543864	0.050030
H63	H	0.885472	0.582651	-0.000280
C64	C	0.874716	-0.035792	-0.000210
C65	C	0.916723	-0.081837	-0.074412
C66	C	0.859125	-0.154389	-0.074570
H67	H	0.786058	-0.027132	-0.000272
H68	H	0.895830	-0.062443	0.050076
H69	H	0.895601	-0.055192	-0.124685
H70	H	1.005373	-0.090519	-0.074365
H71	H	0.880238	-0.181040	-0.024284
H72	H	0.770469	-0.145721	-0.074630
H73	H	0.887627	-0.185642	-0.124910
C74	C	1.220269	-0.263996	-0.000247
C75	C	1.159681	-0.242331	-0.074477
C76	C	1.040845	-0.274485	-0.074676
H77	H	1.171591	-0.244652	0.050002
H78	H	1.229440	-0.319855	-0.000294
H79	H	1.150505	-0.186484	-0.074423
H80	H	1.208322	-0.261675	-0.124738
H81	H	1.050015	-0.330345	-0.074723
H82	H	0.992178	-0.255139	-0.024424
H83	H	0.999725	-0.259797	-0.125044
H84	H	1.655711	0.009471	0.786190
H85	H	0.741405	0.254277	-0.000102
C86	C	1.647728	0.014613	0.201483
C87	C	1.713616	-0.028890	0.260679
C88	C	1.796995	-0.083986	0.215442
H89	H	1.705505	0.041372	0.166041
H90	H	1.601807	-0.020022	0.166094
H91	H	1.759535	0.005740	0.296053
H92	H	1.655873	-0.055666	0.296123
H93	H	1.751073	-0.118622	0.180053
H94	H	1.854763	-0.057220	0.180001
H95	H	1.841701	-0.113515	0.255599
C96	C	1.296119	-0.468806	-0.000025
C97	C	1.189823	-0.514517	0.000006
C98	C	1.081381	-0.465006	0.000070
H99	H	1.298933	-0.438865	-0.050317
H100	H	1.291839	-0.434161	0.050304
H101	H	1.194103	-0.549148	-0.050319
H102	H	1.186968	-0.544456	0.050294
H103	H	1.077101	-0.430360	0.050399
H104	H	1.084207	-0.435067	-0.050223
H105	H	1.009246	-0.496012	0.000099
H106	H	1.128264	-0.012115	-0.000036
H107	H	1.613305	0.037398	0.378394
H108	H	1.667469	0.001692	0.621443
H109	H	1.365080	0.201245	0.786211
C110	C	1.355915	0.207322	0.609309
C111	C	1.281581	0.256416	0.668519
C112	C	1.204654	0.307240	0.623298
H113	H	1.303194	0.177217	0.573900
H114	H	1.406887	0.238614	0.573888
H115	H	1.230613	0.225127	0.703925
H116	H	1.334269	0.286538	0.703930
H117	H	1.255626	0.338532	0.587877
H118	H	1.151940	0.277129	0.587891
H119	H	1.154217	0.340561	0.663465
C120	C	1.299848	0.244003	0.390705
C121	C	1.176674	0.229504	0.368663
C122	C	1.093097	0.284398	0.414030
H123	H	1.319631	0.295776	0.375849
H124	H	1.306911	0.239291	0.451296
H125	H	1.169615	0.234223	0.308086
H126	H	1.156851	0.177742	0.383521
H127	H	1.100161	0.279686	0.474620
H128	H	1.112892	0.336167	0.399170
H129	H	1.009514	0.274563	0.399086
C130	C	1.693986	-0.300368	-0.000204
C131	C	1.770388	-0.289201	-0.074409
C132	C	1.878793	-0.338755	-0.074557
H133	H	1.670878	-0.353750	-0.000253
H134	H	1.738818	-0.288164	0.050080
H135	H	1.725565	-0.301411	-0.124680
H136	H	1.793530	-0.235830	-0.074376
H137	H	1.923625	-0.326550	-0.024273
H138	H	1.855673	-0.392134	-0.074603
H139	H	1.930650	-0.331179	-0.124900
H140	H	1.737606	-0.513840	-0.000076
C141	C	1.313736	0.235287	0.201397
C142	C	1.340289	0.313541	0.223447
C143	C	1.263601	0.364397	0.178094
H144	H	1.227919	0.227087	0.216260
H145	H	1.329540	0.224908	0.140805
H146	H	1.324475	0.323916	0.284026
H147	H	1.426091	0.321766	0.208581
H148	H	1.279405	0.354019	0.117501
H149	H	1.177788	0.356190	0.192961
H150	H	1.281614	0.417498	0.193042
H151	H	1.718464	-0.662322	-0.000080
H152	H	1.271675	-0.106814	-0.000064
H153	H	1.306517	-0.630631	-0.000062
H154	H	1.084316	0.389699	-0.000086
H155	H	1.217494	0.262161	-0.000065
