data_functionalizedCrystal
_audit_creation_method	'MofGen! by Chris Wilmer'
_symmetry_space_group_name_H-M	'P1'
_symmetry_Int_Tables_number	1
_symmetry_cell_setting	triclinic
loop_
_symmetry_equiv_pos_as_xyz
  x,y,z
_cell_length_a	10.723023
_cell_length_b	10.723024
_cell_length_c	14.048226
_cell_angle_alpha	89.994758
_cell_angle_beta	89.994021
_cell_angle_gamma	84.467709
loop_
_atom_site_label
_atom_site_type_symbol
_atom_site_fract_x
_atom_site_fract_y
_atom_site_fract_z
O1	O	1.657192	0.175025	-0.079148
O2	O	1.294040	0.191780	-0.079152
O3	O	1.483993	0.001826	-0.079147
O4	O	1.467239	0.364979	-0.079154
O5	O	1.483970	0.001815	0.079175
O6	O	1.294017	0.191768	0.079169
O7	O	1.657169	0.175014	0.079173
Zn8	Zn	1.475589	0.183389	0.104308
Zn9	Zn	1.475620	0.183404	-0.104287
O10	O	1.467216	0.364967	0.079168
C11	C	1.247529	0.190555	0.000008
C12	C	1.108974	0.186908	0.000007
C13	C	1.047190	0.185276	0.082021
C14	C	0.903987	0.181506	0.082022
C15	C	1.482762	-0.044679	0.000013
C16	C	1.479114	-0.183233	0.000010
C17	C	1.585402	-0.258216	0.000009
C18	C	1.581634	-0.401420	0.000006
C19	C	1.703680	0.176239	0.000011
C20	C	1.842235	0.179886	0.000006
C21	C	1.468447	0.411473	0.000006
C22	C	1.472095	0.550027	0.000003
N23	N	1.475578	0.183378	0.246669
N24	N	1.475641	0.183405	-0.246648
C25	C	1.559716	0.099302	0.296489
C26	C	1.559724	0.099301	0.396147
C27	C	1.475600	0.183384	0.445982
C28	C	1.391452	0.267464	0.396155
C29	C	1.391439	0.267458	0.296499
C30	C	1.391489	0.267473	0.603869
C31	C	1.391503	0.267482	0.703532
C32	C	1.559774	0.099317	0.703517
C33	C	1.559760	0.099311	0.603861
C34	C	1.475614	0.183393	0.554041
H35	H	0.850854	0.180109	0.152237
C36	C	0.913994	0.181781	-0.094861
C37	C	1.016777	0.075967	-0.118508
C38	C	1.088547	0.077862	-0.213375
C39	C	1.057534	0.185572	-0.284595
C40	C	0.954745	0.291395	-0.260950
C41	C	0.882975	0.289499	-0.166083
H42	H	1.039740	-0.003773	-0.065785
H43	H	1.164638	-0.000475	-0.230878
H44	H	1.110662	0.186975	-0.354821
H45	H	0.931782	0.371135	-0.313673
H46	H	0.806884	0.367836	-0.148579
H47	H	1.055853	0.185511	-0.070209
H48	H	1.381099	-0.385548	0.000010
C49	C	1.298887	0.359946	0.241693
C50	C	1.206395	0.452480	0.296507
C51	C	1.113836	0.544966	0.241703
C52	C	1.113769	0.544919	0.132085
C53	C	1.206265	0.452382	0.077266
C54	C	1.298824	0.359895	0.132070
H55	H	1.206442	0.452518	0.377658
H56	H	1.045365	0.613468	0.282285
H57	H	1.045251	0.613383	0.091516
H58	H	1.206218	0.452344	-0.003885
H59	H	1.367295	0.291393	0.091488
H60	H	1.672625	-0.465852	0.000010
H61	H	1.628225	0.030838	0.255920
C62	C	1.352407	-0.239717	0.000006
C63	C	1.259156	-0.210479	0.082218
C64	C	1.132444	-0.266959	0.082214
C65	C	1.098984	-0.352676	-0.000000
C66	C	1.192238	-0.381918	-0.082218
C67	C	1.318949	-0.325439	-0.082214
H68	H	1.283923	-0.147022	0.143083
H69	H	1.063412	-0.245311	0.143078
H70	H	1.005185	-0.394486	-0.000003
H71	H	1.167471	-0.445376	-0.143083
H72	H	1.387981	-0.347086	-0.143077
H73	H	1.679188	-0.216394	0.000016
H74	H	1.628235	0.030840	0.436710
C75	C	1.652296	0.006823	0.549037
C76	C	1.648999	-0.135305	0.562746
C77	C	1.741532	-0.227795	0.507920
C78	C	1.837363	-0.178157	0.439386
C79	C	1.840664	-0.036021	0.425674
C80	C	1.748131	0.056469	0.480500
H81	H	1.578055	-0.172057	0.613482
H82	H	1.739088	-0.333013	0.518071
H83	H	1.905862	-0.246623	0.398801
H84	H	1.911608	0.000731	0.374938
H85	H	1.750575	0.161687	0.470349
C86	C	1.652330	0.006822	0.758318
C87	C	1.652341	0.006820	0.867935
C88	C	1.744898	-0.085666	0.922742
C89	C	1.837443	-0.178150	0.867932
C90	C	1.837435	-0.178152	0.758308
C91	C	1.744879	-0.085666	0.703501
H92	H	1.583830	0.075285	0.908515
H93	H	1.744903	-0.085664	1.003893
H94	H	1.905959	-0.246614	0.908503
H95	H	1.905946	-0.246617	0.717729
H96	H	1.744874	-0.085668	0.622350
H97	H	1.322999	0.335949	0.744103
H98	H	1.100313	0.186662	0.152236
H99	H	1.322964	0.335938	0.563308
H100	H	1.322950	0.335921	0.436736
