data_functionalizedCrystal
_audit_creation_method	'MofGen! by Chris Wilmer'
_symmetry_space_group_name_H-M	'P1'
_symmetry_Int_Tables_number	1
_symmetry_cell_setting	triclinic
loop_
_symmetry_equiv_pos_as_xyz
  x,y,z
_cell_length_a	16.120484
_cell_length_b	21.395362
_cell_length_c	21.395356
_cell_angle_alpha	90.035878
_cell_angle_beta	92.870655
_cell_angle_gamma	87.057600
loop_
_atom_site_label
_atom_site_type_symbol
_atom_site_fract_x
_atom_site_fract_y
_atom_site_fract_z
Zn1	Zn	-0.331576	-0.945196	-0.367212
Zn2	Zn	0.001757	-0.611863	-0.033879
Zn3	Zn	0.335090	-0.278529	0.299455
Zn4	Zn	-0.470997	-0.939809	-0.267744
Zn5	Zn	-0.137664	-0.606476	0.065590
Zn6	Zn	0.195669	-0.273143	0.398923
Zn7	Zn	-0.331639	-0.840423	-0.262416
Zn8	Zn	0.001695	-0.507090	0.070918
Zn9	Zn	0.335028	-0.173757	0.404251
Zn10	Zn	-0.470991	-0.835077	-0.372448
Zn11	Zn	-0.137658	-0.501743	-0.039115
Zn12	Zn	0.195676	-0.168410	0.294218
O13	O	-0.401301	-0.890126	-0.317455
O14	O	-0.067968	-0.556793	0.015878
O15	O	0.265366	-0.223460	0.349212
O16	O	-0.350047	-1.032160	-0.354056
O17	O	-0.016714	-0.698827	-0.020722
O18	O	0.316619	-0.365494	0.312611
O19	O	-0.452540	-0.926609	-0.179360
O20	O	-0.119207	-0.593276	0.153973
O21	O	0.214127	-0.259942	0.487307
O22	O	-0.214963	-0.858814	-0.271896
O23	O	0.118371	-0.525480	0.061437
O24	O	0.451704	-0.192147	0.394771
O25	O	-0.452479	-1.028203	-0.280977
O26	O	-0.119146	-0.694869	0.052356
O27	O	0.214187	-0.361536	0.385690
O28	O	-0.214917	-0.935790	-0.348889
O29	O	0.118416	-0.602456	-0.015556
O30	O	0.451750	-0.269123	0.317777
O31	O	-0.350154	-0.853590	-0.175446
O32	O	-0.016820	-0.520257	0.157888
O33	O	0.316513	-0.186924	0.491221
O34	O	-0.350147	-0.752035	-0.276973
O35	O	-0.016814	-0.418702	0.056360
O36	O	0.316519	-0.085369	0.389693
O37	O	-0.452469	-0.849701	-0.459430
O38	O	-0.119135	-0.516367	-0.126097
O39	O	0.214198	-0.183034	0.207236
O40	O	-0.452529	-0.748107	-0.357814
O41	O	-0.119196	-0.414774	-0.024480
O42	O	0.214138	-0.081440	0.308853
O43	O	-0.350041	-0.930605	-0.455583
O44	O	-0.016708	-0.597272	-0.122250
O45	O	0.316625	-0.263938	0.211083
O46	O	-0.587664	-0.921424	-0.286054
O47	O	-0.254331	-0.588091	0.047279
O48	O	0.079002	-0.254758	0.380613
O49	O	-0.587660	-0.844478	-0.362980
O50	O	-0.254326	-0.511144	-0.029647
O51	O	0.079007	-0.177811	0.303687
C52	C	-0.401345	-0.727337	-0.317384
C53	C	-0.068012	-0.394004	0.015949
C54	C	0.265322	-0.060670	0.349283
C55	C	-0.401384	-0.657694	-0.317369
C56	C	-0.068051	-0.324361	0.015964
C57	C	0.265283	0.008972	0.349298
C58	C	-0.617913	-0.881803	-0.325677
C59	C	-0.284579	-0.548470	0.007656
C60	C	0.048754	-0.215137	0.340990
C61	C	-0.710580	-0.878300	-0.329216
C62	C	-0.377247	-0.544967	0.004118
C63	C	-0.043913	-0.211633	0.337451
C64	C	-0.401247	-0.890157	-0.480876
C65	C	-0.067914	-0.556824	-0.147543
C66	C	0.265419	-0.223491	0.185790
C67	C	-0.401224	-0.890171	-0.550517
C68	C	-0.067891	-0.556837	-0.217183
C69	C	0.265442	-0.223504	0.116150
C70	C	-0.880244	-0.871908	-0.335689
C71	C	-0.546911	-0.538574	-0.002355
C72	C	-0.213578	-0.205241	0.330978
C73	C	-0.921517	-0.908457	-0.299231
C74	C	-0.588184	-0.575124	0.034102
C75	C	-0.254850	-0.241791	0.367435
C76	C	-1.015924	-0.904900	-0.302833
C77	C	-0.682591	-0.571567	0.030500
C78	C	-0.349257	-0.238234	0.363834
C79	C	-0.785829	-0.875464	-0.332088
C80	C	-0.452495	-0.542130	0.001245
C81	C	-0.119162	-0.208797	0.334579
C82	C	-0.183843	-0.898499	-0.309214
C83	C	0.149490	-0.565165	0.024119
C84	C	0.482823	-0.231832	0.357452
C85	C	-0.091176	-0.902067	-0.305703
C86	C	0.242157	-0.568733	0.027631
C87	C	0.575491	-0.235400	0.360964
C88	C	-0.401257	-1.053551	-0.317527
C89	C	-0.067924	-0.720218	0.015807
C90	C	0.265409	-0.386885	0.349140
C91	C	-0.401239	-1.123193	-0.317557
C92	C	-0.067905	-0.789860	0.015776
C93	C	0.265428	-0.456527	0.349110
C94	C	-0.454765	-0.622949	-0.359405
C95	C	-0.121431	-0.289616	-0.026072
C96	C	0.211902	0.043717	0.307261
C97	C	-0.454744	-0.557515	-0.359433
C98	C	-0.121411	-0.224181	-0.026099
C99	C	0.211922	0.109152	0.307234
C100	C	-0.401352	-0.526827	-0.317413
C101	C	-0.068018	-0.193494	0.015921
C102	C	0.265315	0.139840	0.349254
C103	C	-0.347961	-0.561580	-0.275373
C104	C	-0.014627	-0.228247	0.057960
C105	C	0.318706	0.105086	0.391294
C106	C	-0.347977	-0.627014	-0.275351
C107	C	-0.014643	-0.293680	0.057982
C108	C	0.318690	0.039653	0.391315
C109	C	-0.394648	-0.423365	-0.260752
C110	C	-0.061315	-0.090032	0.072581
C111	C	0.272019	0.243301	0.405915
C112	C	-0.394638	-0.357933	-0.260773
C113	C	-0.061305	-0.024599	0.072560
C114	C	0.272029	0.308734	0.405894
C115	C	-0.401297	-0.325009	-0.317480
C116	C	-0.067964	0.008325	0.015854
C117	C	0.265369	0.341658	0.349187
C118	C	-0.407985	-0.357524	-0.374168
C119	C	-0.074651	-0.024191	-0.040835
C120	C	0.258682	0.309143	0.292499
C121	C	-0.408001	-0.422958	-0.374146
C122	C	-0.074667	-0.089624	-0.040813
C123	C	0.258666	0.243709	0.292520
C124	C	-0.401328	-0.455876	-0.317432
C125	C	-0.067995	-0.122542	0.015902
C126	C	0.265339	0.210791	0.349235
C127	C	-0.454659	-0.219312	-0.359549
C128	C	-0.121326	0.114021	-0.026216
C129	C	0.212008	0.447355	0.307118
C130	C	-0.454633	-0.153876	-0.359577
C131	C	-0.121299	0.179457	-0.026244
C132	C	0.212034	0.512790	0.307090
C133	C	-0.347853	-0.157943	-0.275512
C134	C	-0.014520	0.175390	0.057821
C135	C	0.318813	0.508724	0.391155
C136	C	-0.347875	-0.223377	-0.275489
C137	C	-0.014542	0.109956	0.057844
C138	C	0.318791	0.443289	0.391177
C139	C	-0.401282	-0.254058	-0.317507
C140	C	-0.067949	0.079276	0.015826
C141	C	0.265384	0.412609	0.349160
C142	C	-0.347758	-0.932361	-1.050306
C143	C	-0.014424	-0.599028	-0.716973
C144	C	0.318909	-0.265695	-0.383639
C145	C	-0.347778	-0.932356	-0.984871
C146	C	-0.014444	-0.599022	-0.651538
C147	C	0.318889	-0.265689	-0.318205
C148	C	-0.401113	-0.890229	-0.954151
C149	C	-0.067780	-0.556895	-0.620818
C150	C	0.265553	-0.223562	-0.287484
C151	C	-0.454448	-0.848115	-0.988872
C152	C	-0.121115	-0.514781	-0.655538
C153	C	0.212219	-0.181448	-0.322205
C154	C	-0.454432	-0.848126	-1.054305
C155	C	-0.121099	-0.514793	-0.720972
C156	C	0.212234	-0.181459	-0.387638
C157	C	-0.407737	-0.833508	-0.850708
C158	C	-0.074403	-0.500174	-0.517375
C159	C	0.258930	-0.166841	-0.184041
C160	C	-0.407747	-0.833496	-0.785275
C161	C	-0.074413	-0.500162	-0.451942
C162	C	0.258920	-0.166829	-0.118609
C163	C	-0.401167	-0.890194	-0.752332
C164	C	-0.067833	-0.556861	-0.418999
C165	C	0.265500	-0.223528	-0.085665
C166	C	-0.394560	-0.946908	-0.784829
C167	C	-0.061226	-0.613574	-0.451495
C168	C	0.272107	-0.280241	-0.118162
C169	C	-0.394544	-0.946919	-0.850262
C170	C	-0.061210	-0.613585	-0.516929
C171	C	0.272123	-0.280252	-0.183596
C172	C	-0.401137	-0.890212	-0.883199
C173	C	-0.067803	-0.556879	-0.549866
C174	C	0.265530	-0.223545	-0.216533
C175	C	-0.347861	-0.932302	-0.646668
C176	C	-0.014528	-0.598969	-0.313335
C177	C	0.318805	-0.265636	0.019999
C178	C	-0.347887	-0.932298	-0.581232
C179	C	-0.014554	-0.598964	-0.247899
C180	C	0.318779	-0.265631	0.085434
C181	C	-0.454553	-0.848051	-0.585234
C182	C	-0.121220	-0.514718	-0.251900
C183	C	0.212113	-0.181384	0.081433
C184	C	-0.454532	-0.848061	-0.650668
C185	C	-0.121198	-0.514728	-0.317335
C186	C	0.212135	-0.181395	0.015998
C187	C	-0.401181	-0.890186	-0.681381
C188	C	-0.067848	-0.556853	-0.348048
C189	C	0.265485	-0.223520	-0.014715
C190	C	-0.401294	-0.890134	-0.154667
C191	C	-0.067961	-0.556800	0.178666
C192	C	0.265373	-0.223467	0.512000
C193	C	-0.401082	-0.890251	-0.085018
C194	C	-0.067749	-0.556917	0.248315
C195	C	0.265585	-0.223584	0.581649
H196	H	-0.885949	-0.942419	-0.265314
H197	H	-0.552616	-0.609086	0.068019
H198	H	-0.219283	-0.275752	0.401353
H199	H	-0.915809	-0.837948	-0.369603
H200	H	-0.582476	-0.504614	-0.036269
H201	H	-0.249143	-0.171281	0.297064
H202	H	-0.498252	-0.647925	-0.393620
H203	H	-0.164919	-0.314592	-0.060287
H204	H	0.168415	0.018741	0.273046
Br205	Br	-0.275441	-0.989457	-0.688353
Br206	Br	0.057892	-0.656124	-0.355020
Br207	Br	0.391225	-0.322791	-0.021687
Br208	Br	-0.526838	-0.790945	-0.947182
Br209	Br	-0.193505	-0.457612	-0.613849
Br210	Br	0.139829	-0.124279	-0.280515
Br211	Br	-0.275426	-0.270535	-0.218437
Br212	Br	0.057907	0.062799	0.114897
Br213	Br	0.391241	0.396132	0.448230
H214	H	-0.389199	-0.993077	-0.758008
H215	H	-0.055865	-0.659744	-0.424674
H216	H	0.277468	-0.326411	-0.091341
H217	H	-0.304319	-0.966666	-1.075308
H218	H	0.029014	-0.633332	-0.741975
H219	H	0.362347	-0.299999	-0.408642
H220	H	-0.413443	-0.449429	-0.420304
H221	H	-0.080110	-0.116096	-0.086970
H222	H	0.253223	0.217237	0.246363
Br223	Br	-0.417021	-0.312850	-0.451133
Br224	Br	-0.083687	0.020483	-0.117800
Br225	Br	0.249646	0.353817	0.215534
H226	H	-0.498213	-0.529220	-0.393666
H227	H	-0.164880	-0.195887	-0.060333
H228	H	0.168454	0.137447	0.273001
H229	H	-0.498142	-0.244293	-0.393765
H230	H	-0.164809	0.089040	-0.060432
H231	H	0.168525	0.422373	0.272901
H232	H	-0.498100	-0.125588	-0.393812
H233	H	-0.164767	0.207745	-0.060478
H234	H	0.168567	0.541079	0.272855
H235	H	-0.304376	-0.132958	-0.241301
H236	H	0.028957	0.200375	0.092032
H237	H	0.362290	0.533709	0.425366
Br238	Br	-0.385564	-0.313811	-0.183840
Br239	Br	-0.052231	0.019522	0.149493
Br240	Br	0.281102	0.352856	0.482826
H241	H	-0.389222	-0.450167	-0.214571
H242	H	-0.055888	-0.116834	0.118762
H243	H	0.277445	0.216500	0.452095
H244	H	-0.304487	-0.536590	-0.241161
H245	H	0.028847	-0.203257	0.092172
H246	H	0.362180	0.130076	0.425505
H247	H	-0.389166	-0.993096	-0.876719
H248	H	-0.055833	-0.659763	-0.543385
H249	H	0.277501	-0.326430	-0.210052
H250	H	-0.304505	-0.655303	-0.241120
H251	H	0.028828	-0.321970	0.092213
H252	H	0.362162	0.011364	0.425547
H253	H	-0.304352	-0.966647	-0.956603
H254	H	0.028982	-0.633314	-0.623270
H255	H	0.362315	-0.299980	-0.289936
Br256	Br	-0.275519	-0.989458	-0.534121
Br257	Br	0.057814	-0.656125	-0.200788
Br258	Br	0.391147	-0.322792	0.132546
H259	H	-0.497983	-0.813753	-0.560222
H260	H	-0.164650	-0.480419	-0.226889
H261	H	0.168683	-0.147086	0.106445
Br262	Br	-0.526905	-0.790908	-0.697781
Br263	Br	-0.193572	-0.457575	-0.364448
Br264	Br	0.139762	-0.124241	-0.031115
Br265	Br	-0.416701	-0.756529	-0.741179
Br266	Br	-0.083368	-0.423196	-0.407846
Br267	Br	0.249965	-0.089862	-0.074512
Br268	Br	-0.526809	-0.790973	-1.101418
Br269	Br	-0.193476	-0.457639	-0.768085
Br270	Br	0.139858	-0.124306	-0.434752
Br271	Br	-0.416657	-0.756552	-0.895410
Br272	Br	-0.083323	-0.423218	-0.562076
Br273	Br	0.250010	-0.089885	-0.228743
