data_functionalizedCrystal
_audit_creation_method	'MofGen! by Chris Wilmer'
_symmetry_space_group_name_H-M	'P1'
_symmetry_Int_Tables_number	1
_symmetry_cell_setting	triclinic
loop_
_symmetry_equiv_pos_as_xyz
  x,y,z
_cell_length_a	10.723023
_cell_length_b	10.723024
_cell_length_c	9.730223
_cell_angle_alpha	89.999810
_cell_angle_beta	90.000239
_cell_angle_gamma	84.467709
loop_
_atom_site_label
_atom_site_type_symbol
_atom_site_fract_x
_atom_site_fract_y
_atom_site_fract_z
O1	O	1.657182	0.175017	-0.114272
O2	O	2.157182	0.675017	0.385728
O3	O	1.294029	0.191771	-0.114278
O4	O	1.794029	0.691771	0.385722
O5	O	1.483982	0.001818	-0.114270
O6	O	1.983982	0.501818	0.385730
O7	O	1.467229	0.364971	-0.114280
O8	O	1.967229	0.864971	0.385720
O9	O	1.483980	0.001823	0.114310
O10	O	1.983980	0.501823	0.614310
O11	O	1.294027	0.191776	0.114302
O12	O	1.794027	0.691776	0.614302
O13	O	1.657180	0.175022	0.114308
O14	O	2.157180	0.675022	0.614308
Zn15	Zn	1.475603	0.183400	0.150597
Zn16	Zn	1.975603	0.683400	0.650597
Zn17	Zn	1.475606	0.183394	-0.150567
Zn18	Zn	1.975606	0.683394	0.349433
O19	O	1.467227	0.364975	0.114300
O20	O	1.967227	0.864975	0.614300
C21	C	1.247529	0.190555	0.000012
C22	C	1.747529	0.690555	0.500012
C23	C	1.108974	0.186908	0.000010
C24	C	1.608974	0.686908	0.500010
C25	C	0.904008	0.181509	-0.118402
C26	C	1.404008	0.681509	0.381598
C27	C	1.047211	0.185279	-0.118402
C28	C	1.547211	0.685279	0.381598
C29	C	1.482762	-0.044679	0.000019
C30	C	1.982762	0.455321	0.500019
C31	C	1.479114	-0.183233	0.000014
C32	C	1.979114	0.316767	0.500014
C33	C	1.585402	-0.258216	0.000014
C34	C	2.085402	0.241784	0.500014
C35	C	1.581634	-0.401420	0.000008
C36	C	2.081634	0.098580	0.500008
C37	C	1.703680	0.176239	0.000016
C38	C	2.203680	0.676239	0.500016
C39	C	1.842235	0.179886	0.000009
C40	C	2.342235	0.679886	0.500009
C41	C	1.468447	0.411473	0.000009
C42	C	1.968447	0.911473	0.500009
C43	C	1.472095	0.550027	0.000004
C44	C	1.972095	1.050027	0.500004
N45	N	1.475610	0.183403	0.356134
N46	N	1.975610	0.683403	0.856134
N47	N	1.475609	0.183380	-0.356103
N48	N	1.975609	0.683380	0.143897
C49	C	1.559743	0.099321	0.428063
C50	C	2.059743	0.599321	0.928063
C51	C	1.559740	0.099306	0.571946
C52	C	2.059740	0.599306	1.071946
C53	C	1.391467	0.267467	0.571957
C54	C	1.891467	0.767467	1.071957
C55	C	1.391465	0.267475	0.428077
C56	C	1.891465	0.767475	0.928077
C57	C	1.656898	0.002238	0.428058
C58	C	2.156898	0.502238	0.928058
C59	C	1.656895	0.002223	0.571941
C60	C	2.156895	0.502223	1.071941
H61	H	1.055858	0.185518	0.101390
H62	H	1.555858	0.685518	0.601390
H63	H	0.850878	0.180101	-0.219776
H64	H	1.350878	0.680101	0.280224
H65	H	1.626590	-0.088414	0.616558
H66	H	2.126590	0.411586	1.116558
F67	F	0.911675	0.181708	0.132518
F68	F	1.411675	0.681708	0.632518
H69	H	1.747496	0.032618	0.383432
H70	H	2.247496	0.532618	0.883432
H71	H	1.385328	-0.225055	0.000003
H72	H	1.885328	0.274945	0.500003
H73	H	1.679188	-0.216394	0.000023
H74	H	2.179188	0.283606	0.500023
F75	F	1.301917	0.356936	0.648535
F76	F	1.801917	0.856936	1.148535
F77	F	1.700570	-0.485634	0.000018
F78	F	2.200570	0.014366	0.500018
F79	F	1.301907	0.356950	0.351525
F80	F	1.801907	0.856950	0.851525
F81	F	1.353154	-0.365766	0.000015
F82	F	1.853154	0.134234	0.500015
H83	H	1.752788	0.023589	0.610992
H84	H	2.252788	0.523589	1.110992
F85	F	1.629068	-0.123126	0.377008
F86	F	2.129068	0.376874	0.877008
H87	H	1.100334	0.186683	-0.219777
H88	H	1.600334	0.686683	0.280223
