data_functionalizedCrystal
_audit_creation_method	'MofGen! by Chris Wilmer'
_symmetry_space_group_name_H-M	'P1'
_symmetry_Int_Tables_number	1
_symmetry_cell_setting	triclinic
loop_
_symmetry_equiv_pos_as_xyz
  x,y,z
_cell_length_a	21.395364
_cell_length_b	12.645324
_cell_length_c	21.395361
_cell_angle_alpha	89.959053
_cell_angle_beta	90.045659
_cell_angle_gamma	89.977228
loop_
_atom_site_label
_atom_site_type_symbol
_atom_site_fract_x
_atom_site_fract_y
_atom_site_fract_z
Zn1	Zn	0.957848	-0.599374	-0.249141
Zn2	Zn	1.457848	-0.099374	0.250859
Zn3	Zn	0.957754	-0.422085	-0.353936
Zn4	Zn	1.457754	0.077915	0.146064
Zn5	Zn	0.853066	-0.422118	-0.249204
Zn6	Zn	1.353066	0.077882	0.250796
Zn7	Zn	0.853032	-0.599301	-0.353912
Zn8	Zn	1.353032	-0.099301	0.146088
O9	O	0.905425	-0.510720	-0.301548
O10	O	1.405425	-0.010720	0.198452
O11	O	1.045514	-0.575872	-0.263026
O12	O	1.545514	-0.075872	0.236974
O13	O	0.943842	-0.273742	-0.340080
O14	O	1.443842	0.226258	0.159920
O15	O	0.867020	-0.445676	-0.161518
O16	O	1.367020	0.054324	0.338482
O17	O	1.045444	-0.445619	-0.340019
O18	O	1.545444	0.054381	0.159981
O19	O	0.944002	-0.575905	-0.161471
O20	O	1.444002	-0.075905	0.338529
O21	O	0.866928	-0.273767	-0.263134
O22	O	1.366928	0.226233	0.236866
O23	O	0.765384	-0.445606	-0.263110
O24	O	1.265384	0.054394	0.236890
O25	O	0.866962	-0.747658	-0.339977
O26	O	1.366962	-0.247658	0.160023
O27	O	0.765359	-0.575781	-0.340038
O28	O	1.265359	-0.075781	0.159962
O29	O	0.943969	-0.747711	-0.263003
O30	O	1.443969	-0.247711	0.236997
O31	O	0.943809	-0.445549	-0.441611
O32	O	1.443809	0.054451	0.058389
O33	O	0.866870	-0.575749	-0.441593
O34	O	1.366870	-0.075749	0.058407
C35	C	0.742638	-0.510690	-0.301579
C36	C	1.242638	-0.010690	0.198421
C37	C	0.672996	-0.510702	-0.301607
C38	C	1.172996	-0.010702	0.198393
C39	C	0.640342	-0.578630	-0.261582
C40	C	1.140342	-0.078630	0.238418
C41	C	0.574906	-0.578634	-0.261566
C42	C	1.074906	-0.078634	0.238434
C43	C	0.542128	-0.510722	-0.301585
C44	C	1.042128	-0.010722	0.198415
C45	C	0.574791	-0.442781	-0.341612
C46	C	1.074791	0.057219	0.158388
C47	C	0.640225	-0.442771	-0.341623
C48	C	1.140225	0.057229	0.158377
C49	C	0.438404	-0.502193	-0.358011
C50	C	0.938404	-0.002193	0.141989
C51	C	0.372971	-0.502210	-0.358001
C52	C	0.872971	-0.002210	0.141999
C53	C	0.340307	-0.510745	-0.301550
C54	C	0.840307	-0.010745	0.198450
C55	C	0.373085	-0.519285	-0.245108
C56	C	0.873085	-0.019285	0.254892
C57	C	0.438519	-0.519275	-0.245119
C58	C	0.938519	-0.019275	0.254881
C59	C	0.471176	-0.510724	-0.301577
C60	C	0.971176	-0.010724	0.198423
C61	C	0.236700	-0.578681	-0.261504
C62	C	0.736700	-0.078681	0.238496
C63	C	0.171264	-0.578677	-0.261487
C64	C	0.671264	-0.078677	0.238513
C65	C	0.171149	-0.442830	-0.341539
C66	C	0.671149	0.057170	0.158461
C67	C	0.236585	-0.442828	-0.341551
C68	C	0.736585	0.057172	0.158449
C69	C	0.269356	-0.510759	-0.301534
C70	C	0.769356	-0.010759	0.198466
C71	C	0.905472	-0.787225	-0.301480
C72	C	1.405472	-0.287225	0.198520
C73	C	0.905492	-0.905055	-0.301451
C74	C	1.405492	-0.405055	0.198549
C75	C	0.954126	-1.072653	-0.253167
C76	C	1.454126	-0.572653	0.246833
C77	C	0.953971	-0.950093	-0.252992
C78	C	1.453971	-0.450093	0.247008
C79	C	0.839489	-0.949539	-0.283526
C80	C	1.339489	-0.449539	0.216474
C81	C	0.839784	-1.072137	-0.283159
C82	C	1.339784	-0.572137	0.216841
C83	C	0.922326	-1.072235	-0.367732
C84	C	1.422326	-0.572235	0.132268
C85	C	0.923770	-0.949630	-0.367398
C86	C	1.423770	-0.449630	0.132602
C87	C	1.068849	-0.510750	-0.301518
C88	C	1.568849	-0.010750	0.198482
C89	C	1.138490	-0.510763	-0.301505
C90	C	1.638490	-0.010763	0.198495
C91	C	0.905343	-0.510661	-0.464336
C92	C	1.405343	-0.010661	0.035664
C93	C	0.905365	-0.510671	-0.533977
C94	C	1.405365	-0.010671	-0.033977
C95	C	0.905415	-0.235290	-0.301571
C96	C	1.405415	0.264710	0.198429
C97	C	0.905516	-0.117460	-0.301423
C98	C	1.405516	0.382540	0.198577
C99	C	0.945462	-0.442945	-0.566679
C100	C	1.445462	0.057055	-0.066679
C101	C	0.945491	-0.442969	-0.632114
C102	C	1.445491	0.057031	-0.132114
C103	C	0.905412	-0.510707	-0.664846
C104	C	1.405412	-0.010707	-0.164846
C105	C	0.865311	-0.578446	-0.632136
C106	C	1.365311	-0.078446	-0.132136
C107	C	0.865288	-0.578428	-0.566702
C108	C	1.365288	-0.078428	-0.066702
C109	C	0.848997	-0.519015	-0.768574
C110	C	1.348997	-0.019015	-0.268574
C111	C	0.849019	-0.519025	-0.834007
C112	C	1.349019	-0.019025	-0.334007
C113	C	0.905485	-0.510769	-0.866666
C114	C	1.405485	-0.010769	-0.366666
C115	C	0.961929	-0.502480	-0.833885
C116	C	1.461929	-0.002480	-0.333885
C117	C	0.961906	-0.502462	-0.768451
C118	C	1.461906	-0.002462	-0.268451
C119	C	0.905433	-0.510735	-0.735798
C120	C	1.405433	-0.010735	-0.235798
C121	C	0.945617	-0.443066	-0.970320
C122	C	1.445617	0.056934	-0.470320
C123	C	0.945647	-0.443097	-1.035757
C124	C	1.445647	0.056903	-0.535757
C125	C	0.865462	-0.578568	-1.035777
C126	C	1.365462	-0.078568	-0.535777
C127	C	0.865437	-0.578543	-0.970342
C128	C	1.365437	-0.078543	-0.470342
C129	C	0.905514	-0.510786	-0.937618
C130	C	1.405514	-0.010786	-0.437618
C131	C	0.905525	-0.510802	-0.138125
C132	C	1.405525	-0.010802	0.361875
C133	C	0.905568	-0.510837	-0.068484
C134	C	1.405568	-0.010837	0.431516
H135	H	0.346289	-0.495261	-0.403960
H136	H	0.846289	0.004739	0.096040
H137	H	1.007909	-0.495758	-0.860475
H138	H	1.507909	0.004242	-0.360475
H139	H	0.464993	-0.495242	-0.403984
H140	H	0.964993	0.004758	0.096016
C141	C	0.989748	-0.368584	-1.071732
C142	C	1.489748	0.131416	-0.571732
H143	H	0.984026	-0.378302	-1.115389
H144	H	1.484026	0.121698	-0.615389
H145	H	0.980586	-0.297345	-1.061054
H146	H	1.480586	0.202655	-0.561054
H147	H	1.031842	-0.384149	-1.060953
H148	H	1.531842	0.115851	-0.560953
C149	C	0.676390	-0.653346	-0.217566
C150	C	1.176390	-0.153346	0.282434
H151	H	0.720038	-0.643621	-0.223307
H152	H	1.220038	-0.143621	0.276693
H153	H	0.665702	-0.637973	-0.175455
H154	H	1.165702	-0.137973	0.324545
H155	H	0.665676	-0.724548	-0.226790
H156	H	1.165676	-0.224548	0.273210
H157	H	0.886923	-1.101218	-0.403688
H158	H	1.386923	-0.601218	0.096312
H159	H	0.969614	-1.103216	-0.384054
H160	H	1.469614	-0.603216	0.115946
C161	C	0.337164	-0.528678	-0.183009
C162	C	0.837164	-0.028678	0.316991
H163	H	0.293500	-0.527450	-0.191083
H164	H	0.793500	-0.027450	0.308917
H165	H	0.347925	-0.593277	-0.163021
H166	H	0.847925	-0.093277	0.336979
H167	H	0.347899	-0.471086	-0.156616
H168	H	0.847899	0.028914	0.343384
C169	C	0.989387	-0.910357	-0.385662
C170	C	1.489387	-0.410357	0.114338
H171	H	1.005579	-0.866969	-0.353239
H172	H	1.505579	-0.366969	0.146761
H173	H	1.016245	-0.969284	-0.391756
H174	H	1.516245	-0.469284	0.108244
H175	H	0.986815	-0.870563	-0.423255
H176	H	1.486815	-0.370563	0.076745
H177	H	0.943141	-1.103490	-0.204318
H178	H	1.443141	-0.603490	0.295682
H179	H	0.978252	-0.387897	-0.943675
H180	H	1.478252	0.112103	-0.443675
H181	H	0.548314	-0.633947	-0.228970
H182	H	1.048314	-0.133947	0.271030
H183	H	0.802285	-0.920363	-0.317595
H184	H	1.302285	-0.420363	0.182405
H185	H	0.890937	-0.918967	-0.405286
H186	H	1.390937	-0.418967	0.094714
H187	H	0.465204	-0.526226	-0.199161
H188	H	0.965204	-0.026226	0.300839
C189	C	0.989551	-0.368428	-0.530685
C190	C	1.489551	0.131572	-0.030685
H191	H	1.013440	-0.328103	-0.559537
H192	H	1.513440	0.171897	-0.059537
H193	H	0.965592	-0.322193	-0.505208
H194	H	1.465592	0.177807	-0.005208
H195	H	1.016833	-0.409025	-0.505110
H196	H	1.516833	0.090975	-0.005110
C197	C	0.272751	-0.653391	-0.217484
C198	C	0.772751	-0.153391	0.282516
H199	H	0.243929	-0.693838	-0.193637
H200	H	0.743929	-0.193838	0.306363
H201	H	0.298266	-0.699504	-0.241487
H202	H	0.798266	-0.199504	0.258513
H203	H	0.298293	-0.612915	-0.190161
H204	H	0.798293	-0.112915	0.309839
C205	C	1.020090	-0.909460	-0.268141
C206	C	1.520090	-0.409460	0.231859
H207	H	1.047288	-0.967880	-0.274455
H208	H	1.547288	-0.467880	0.225545
H209	H	1.018745	-0.867553	-0.304984
H210	H	1.518745	-0.367553	0.195016
H211	H	1.035034	-0.867893	-0.234318
H212	H	1.535034	-0.367893	0.265682
C213	C	0.789188	-1.112188	-0.328566
C214	C	1.289188	-0.612188	0.171434
H215	H	0.789027	-1.187316	-0.328651
H216	H	1.289027	-0.687316	0.171349
H217	H	0.749454	-1.086929	-0.315567
H218	H	1.249454	-0.586929	0.184433
H219	H	0.797875	-1.087035	-0.369497
H220	H	1.297875	-0.587035	0.130503
C221	C	0.989598	-0.368469	-0.668097
C222	C	1.489598	0.131531	-0.168097
H223	H	0.983874	-0.378190	-0.711754
H224	H	1.483874	0.121810	-0.211754
H225	H	0.980445	-0.297224	-0.657422
H226	H	1.480445	0.202776	-0.157422
H227	H	1.031690	-0.384048	-0.657318
H228	H	1.531690	0.115952	-0.157318
H229	H	0.832831	-0.633727	-1.062427
H230	H	1.332831	-0.133727	-0.562427
C231	C	0.821322	-0.653029	-0.934369
C232	C	1.321322	-0.153029	-0.434369
H233	H	0.797451	-0.693369	-0.963232
H234	H	1.297451	-0.193369	-0.463232
H235	H	0.845263	-0.699249	-0.908789
H236	H	1.345263	-0.199249	-0.408789
H237	H	0.794024	-0.612415	-0.908898
H238	H	1.294024	-0.112415	-0.408898
C239	C	0.938932	-0.910498	-0.186639
C240	C	1.438932	-0.410498	0.313361
H241	H	0.938791	-0.835371	-0.186304
H242	H	1.438791	-0.335371	0.313696
H243	H	0.899008	-0.935904	-0.174359
H244	H	1.399008	-0.435904	0.325641
H245	H	0.969730	-0.935779	-0.158317
H246	H	1.469730	-0.435779	0.341683
C247	C	0.135101	-0.368132	-0.385562
C248	C	0.635101	0.131868	0.114438
H249	H	0.091453	-0.377871	-0.379827
H250	H	0.591453	0.122129	0.120173
H251	H	0.145813	-0.296931	-0.376351
H252	H	0.645813	0.203069	0.123649
H253	H	0.145789	-0.383527	-0.427673
H254	H	0.645789	0.116473	0.072327
C255	C	0.821176	-0.652923	-0.530729
C256	C	1.321176	-0.152923	-0.030729
H257	H	0.797307	-0.693268	-0.559591
H258	H	1.297307	-0.193268	-0.059591
H259	H	0.845118	-0.699140	-0.505148
H260	H	1.345118	-0.199140	-0.005148
H261	H	0.793876	-0.612312	-0.505259
H262	H	1.293876	-0.112312	-0.005259
C263	C	1.023989	-0.493361	-0.732393
C264	C	1.523989	0.006639	-0.232393
H265	H	1.057624	-0.488455	-0.761211
H266	H	1.557624	0.011545	-0.261211
H267	H	1.023188	-0.431907	-0.706897
H268	H	1.523188	0.068093	-0.206897
H269	H	1.029463	-0.554129	-0.706832
H270	H	1.529463	-0.054129	-0.206832
H271	H	0.548099	-0.387485	-0.374195
H272	H	1.048099	0.112515	0.125805
H273	H	0.803058	-0.525764	-0.860692
H274	H	1.303058	-0.025764	-0.360692
H275	H	0.263172	-0.387518	-0.374146
H276	H	0.763172	0.112482	0.125854
C277	C	0.819885	-0.908110	-0.218774
C278	C	1.319885	-0.408110	0.281226
H279	H	0.851831	-0.863718	-0.202577
H280	H	1.351831	-0.363718	0.297423
H281	H	0.782174	-0.868935	-0.222525
H282	H	1.282174	-0.368935	0.277475
H283	H	0.813570	-0.966130	-0.191266
H284	H	1.313570	-0.466130	0.308734
C285	C	0.786883	-0.528095	-0.732652
C286	C	1.286883	-0.028095	-0.232652
H287	H	0.794952	-0.526907	-0.688987
H288	H	1.294952	-0.026907	-0.188987
H289	H	0.760550	-0.470388	-0.743436
H290	H	1.260550	0.029612	-0.243436
H291	H	0.766832	-0.592609	-0.743365
H292	H	1.266832	-0.092609	-0.243365
C293	C	0.135343	-0.653402	-0.217457
C294	C	0.635343	-0.153402	0.282543
H295	H	0.164235	-0.693861	-0.193633
H296	H	0.664235	-0.193861	0.306367
H297	H	0.109833	-0.612944	-0.190123
H298	H	0.609833	-0.112944	0.309877
H299	H	0.109807	-0.699518	-0.241458
H300	H	0.609807	-0.199518	0.258542
C301	C	0.676147	-0.368057	-0.385658
C302	C	1.176147	0.131943	0.114342
H303	H	0.647256	-0.327613	-0.409493
H304	H	1.147256	0.172387	0.090507
H305	H	0.701687	-0.321941	-0.361667
H306	H	1.201687	0.178059	0.138333
H307	H	0.701653	-0.408533	-0.412991
H308	H	1.201653	0.091467	0.087009
H309	H	0.832680	-0.633601	-0.658790
H310	H	1.332680	-0.133601	-0.158790
H311	H	1.003232	-1.102142	-0.264249
H312	H	1.503232	-0.602142	0.235751
C313	C	0.820537	-1.110810	-0.217681
C314	C	1.320537	-0.610810	0.282319
H315	H	0.812614	-1.051594	-0.191554
H316	H	1.312614	-0.551594	0.308446
H317	H	0.783802	-1.152637	-0.220854
H318	H	1.283802	-0.652637	0.279146
H319	H	0.853330	-1.152042	-0.200233
H320	H	1.353330	-0.652042	0.299767
