data_functionalizedCrystal
_audit_creation_method	'MofGen! by Chris Wilmer'
_symmetry_space_group_name_H-M	'P1'
_symmetry_Int_Tables_number	1
_symmetry_cell_setting	triclinic
loop_
_symmetry_equiv_pos_as_xyz
  x,y,z
_cell_length_a	27.440280
_cell_length_b	14.395555
_cell_length_c	14.395555
_cell_angle_alpha	119.995344
_cell_angle_beta	90.004830
_cell_angle_gamma	59.991377
loop_
_atom_site_label
_atom_site_type_symbol
_atom_site_fract_x
_atom_site_fract_y
_atom_site_fract_z
Zr1	Zr	0.469471	1.016730	0.121941
O2	O	0.391652	1.210529	0.270255
O3	O	0.493331	0.822928	0.076473
O4	O	0.493332	1.016707	0.270260
O5	O	0.391646	1.016770	-0.076393
O6	O	0.573534	1.016692	0.270266
O7	O	0.391651	1.016751	0.076468
O8	O	0.573532	0.670057	-0.076384
O9	O	0.391648	1.363405	0.270257
O10	O	0.563356	0.902632	0.057088
O11	O	0.503498	0.902657	-0.056995
O12	O	0.503499	1.130807	0.171164
O13	O	0.443641	1.130833	0.057082
Zr14	Zr	0.597376	1.016738	-0.121846
Zr15	Zr	0.597384	1.016707	0.121950
Zr16	Zr	0.469463	1.016761	-0.121855
Zr17	Zr	0.469464	1.260549	0.121943
Zr18	Zr	0.597383	0.772919	-0.121848
O19	O	0.573516	1.210540	-0.076378
O20	O	0.573528	1.210496	0.270268
O21	O	0.391641	1.210574	-0.076391
O22	O	0.675195	0.822939	-0.270160
O23	O	0.675206	0.822894	0.076486
O24	O	0.493319	0.822972	-0.270173
O25	O	0.675201	1.016698	0.076488
O26	O	0.573516	1.016761	-0.270165
O27	O	0.493314	1.016776	-0.270171
O28	O	0.675196	1.016717	-0.076373
O29	O	0.493321	1.363386	0.270264
O30	O	0.573526	0.670082	-0.270169
O31	O	0.675199	0.670063	-0.270162
O32	O	0.675206	0.670038	-0.076377
O33	O	0.391641	1.363430	0.076472
O34	O	0.493315	1.363411	0.076479
O35	O	0.563348	0.902661	-0.171069
O36	O	0.623206	0.902635	-0.056987
O37	O	0.563349	1.130811	0.057090
O38	O	0.503491	1.130836	-0.056993
C39	C	0.533433	0.711753	0.000044
C40	C	0.533436	0.608246	0.000043
C41	C	0.566067	0.547654	0.062257
C42	C	0.589715	0.409554	-0.045005
C43	C	0.509791	0.561911	0.107293
C44	C	0.557116	0.471447	-0.107281
C45	C	0.477161	0.623877	0.045094
C46	C	0.500795	0.485787	-0.062232
C47	C	0.373424	1.016764	0.000036
C48	C	0.319122	1.016774	0.000033
C49	C	-0.017573	1.016694	0.084262
C50	C	-0.068591	1.016685	0.084262
O51	O	-0.094964	1.016626	0.155858
N52	N	-0.094112	1.016698	0.000051
C53	C	-0.068608	1.016707	-0.084173
O54	O	-0.095000	1.016716	-0.155801
C55	C	-0.017589	1.016707	-0.084177
C56	C	0.007926	1.016707	0.000046
C57	C	0.007942	1.016693	0.168477
C58	C	0.058955	1.016704	0.168477
C59	C	0.084454	1.016718	0.084262
C60	C	0.058939	1.016719	0.000047
C61	C	0.007916	1.016707	-0.168404
C62	C	0.058939	1.016706	-0.168402
C63	C	0.084454	1.016706	-0.084179
C64	C	0.135452	1.016744	-0.084169
N65	N	0.160973	1.016731	0.000042
C66	C	0.135474	1.016717	0.084258
C67	C	-0.175752	1.016705	-0.084158
C68	C	-0.226773	1.016714	-0.084150
C69	C	-0.226752	1.016689	0.084284
C70	C	-0.175732	1.016689	0.084279
C71	C	-0.150231	1.016692	0.000053
C72	C	0.242606	1.016743	0.084253
C73	C	0.293623	1.016761	0.084248
C74	C	0.293599	1.016779	-0.084189
C75	C	0.242585	1.016768	-0.084181
C76	C	0.217091	1.016746	0.000045
O77	O	0.161858	1.016797	-0.155730
O78	O	0.161876	1.016691	0.155866
C79	C	0.693423	1.016704	0.000059
C80	C	0.747726	1.016694	0.000062
C81	C	0.533434	1.016695	0.304999
C82	C	0.533437	1.016682	0.408496
C83	C	0.533415	1.321714	0.000051
C84	C	0.533412	1.425222	0.000052
C85	C	0.566078	0.892266	0.406883
C86	C	0.509799	0.954461	0.499897
C87	C	0.589708	0.954476	0.499902
C88	C	0.477125	1.078878	0.500148
C89	C	0.557074	1.078875	0.500138
C90	C	0.500761	1.141162	0.593170
C91	C	0.533421	1.016752	0.695086
C92	C	0.533439	1.016704	0.591558
C93	C	0.693432	0.711724	0.000055
C94	C	0.747737	0.608206	0.000058
C95	C	0.533422	0.711792	-0.304907
C96	C	0.533422	0.608298	-0.408405
C97	C	0.693422	0.711763	-0.304895
C98	C	0.747724	0.608258	-0.408390
C99	C	0.373425	1.321705	0.304991
C100	C	0.319123	1.425210	0.408485
C101	C	0.373415	1.321744	0.000040
C102	C	0.319110	1.425262	0.000037
C103	C	0.533425	1.321675	0.305002
C104	C	0.533425	1.425170	0.408500
C105	C	0.741999	0.559591	0.059615
C106	C	0.793020	0.462339	0.059640
C107	C	0.849778	0.413696	0.000101
C108	C	0.855516	0.462321	-0.059457
C109	C	0.804496	0.559578	-0.059475
C110	C	0.804475	0.559638	-0.397443
C111	C	0.855503	0.462398	-0.494678
C112	C	0.849777	0.413774	-0.602860
C113	C	0.793020	0.462403	-0.613805
C114	C	0.741994	0.559648	-0.516571
C115	C	0.262372	1.473842	0.397538
C116	C	0.211345	1.571112	0.494773
C117	C	0.217070	1.619741	0.602955
C118	C	0.273827	1.571105	0.613900
C119	C	0.324853	1.473844	0.516666
C120	C	0.324848	1.473887	-0.059510
C121	C	0.273828	1.571166	-0.059508
C122	C	0.217069	1.619812	0.000034
C123	C	0.211331	1.571183	0.059588
C124	C	0.262351	1.473912	0.059593
C125	C	0.500788	0.547717	-0.406794
C126	C	0.557071	0.409611	-0.499805
C127	C	0.477158	0.561965	-0.499816
C128	C	0.589738	0.471493	-0.500054
C129	C	0.509784	0.623920	-0.500051
C130	C	0.566101	0.485824	-0.593079
H131	H	0.429591	0.715534	0.083225
H132	H	0.788336	0.422761	0.108140
H133	H	-0.012850	1.016706	-0.236987
O134	O	0.904818	0.308872	-0.707725
H135	H	0.891308	0.283222	-0.784796
H136	H	0.165111	1.610805	0.108066
H137	H	0.809148	0.599214	-0.309365
O138	O	-0.019558	1.016697	0.259330
H139	H	-0.019437	0.927640	0.218862
H140	H	0.489805	0.901885	0.500827
O141	O	0.916715	0.409942	-0.482861
H142	H	0.912118	0.460077	-0.391298
O143	O	0.652802	0.421940	-0.498963
H144	H	0.664005	0.486242	-0.498662
H145	H	0.577071	0.317983	-0.500731
O146	O	0.904806	0.308787	0.000114
H147	H	0.891274	0.283151	0.051524
H148	H	0.257670	1.434324	0.108080
H149	H	0.278511	1.610743	-0.108009
H150	H	0.473120	1.246447	0.672794
O151	O	0.321110	1.016790	-0.175017
H152	H	0.294798	1.016798	-0.233581
H153	H	0.489805	0.599102	0.197989
H154	H	0.788367	0.422799	-0.701899
O155	O	0.810693	0.611982	-0.123740
H156	H	0.788950	0.719261	-0.063646
O157	O	0.680783	0.612059	-0.528384
H158	H	0.685381	0.561887	-0.619947
H159	H	0.637295	0.317919	-0.083111
H160	H	0.314394	1.016764	0.152837
H161	H	0.079701	1.016703	-0.236993
H162	H	0.429516	1.131430	0.499323
H163	H	0.221855	1.016723	0.152836
H164	H	0.257699	1.434253	0.309460
O165	O	0.150132	1.623536	0.482956
H166	H	0.154729	1.573351	0.391393
H167	H	0.371061	1.434248	0.525593
O168	O	0.483274	0.745330	-0.498757
H169	H	0.509912	0.720052	-0.575974
H170	H	0.429574	0.599148	-0.500735
O171	O	0.464245	0.449972	-0.132018
H172	H	0.446440	0.508944	-0.167241
O173	O	0.916736	0.409841	-0.123684
H174	H	0.951244	0.334033	-0.113671
O175	O	0.162032	1.724660	0.707826
H176	H	0.121610	1.750297	0.682028
O177	O	0.464293	0.583601	-0.301140
H178	H	0.446474	0.523401	-0.325965
H179	H	0.577082	1.131406	0.499165
H180	H	0.637297	0.901867	0.500804
H181	H	0.371060	1.434287	-0.108004
H182	H	0.278482	1.610712	0.701993
H183	H	0.593741	0.458799	-0.672702
O184	O	0.583676	0.421902	-0.227479
H185	H	0.583502	0.499640	-0.226533
O186	O	0.162047	1.724694	-0.000019
H187	H	0.162084	1.813300	0.037220
O188	O	0.602677	0.583474	0.131847
H189	H	0.639776	0.564276	0.077250
O190	O	0.086476	1.016691	0.259311
H191	H	0.060171	1.016667	0.317857
H192	H	-0.154961	1.016688	0.152861
H193	H	-0.247549	1.016735	-0.152722
O194	O	-0.254258	1.016673	0.175120
H195	H	-0.254131	0.927606	0.134621
O196	O	-0.148252	1.016725	-0.174999
H197	H	-0.174576	1.016744	-0.233543
O198	O	0.215059	1.016773	-0.175016
H199	H	0.241365	1.016778	-0.233578
H200	H	0.593633	0.787069	0.327127
H201	H	0.695787	0.599195	0.108113
