data_functionalizedCrystal
_audit_creation_method	'MofGen! by Chris Wilmer'
_symmetry_space_group_name_H-M	'P1'
_symmetry_Int_Tables_number	1
_symmetry_cell_setting	triclinic
loop_
_symmetry_equiv_pos_as_xyz
  x,y,z
_cell_length_a	14.628931
_cell_length_b	20.875641
_cell_length_c	20.875625
_cell_angle_alpha	59.251205
_cell_angle_beta	92.971375
_cell_angle_gamma	62.439816
loop_
_atom_site_label
_atom_site_type_symbol
_atom_site_fract_x
_atom_site_fract_y
_atom_site_fract_z
Zr1	Zr	0.909209	0.702110	-0.109937
O2	O	0.762306	0.835931	-0.217270
O3	O	0.949640	0.568290	-0.073629
O4	O	0.946376	0.702111	-0.212360
O5	O	0.773380	0.702107	0.027022
O6	O	1.096808	0.702111	-0.212360
O7	O	0.765571	0.702109	-0.078539
O8	O	1.102648	0.462729	0.035804
O9	O	0.767541	0.941489	-0.221142
O10	O	1.084710	0.623331	-0.062257
O11	O	0.978272	0.623330	0.016521
O12	O	0.974429	0.780887	-0.146817
O13	O	0.867991	0.780886	-0.068038
Zr14	Zr	1.161586	0.702106	0.058420
Zr15	Zr	1.149131	0.702109	-0.109937
Zr16	Zr	0.921664	0.702107	0.058420
Zr17	Zr	0.917557	0.870464	-0.116113
Zr18	Zr	1.153238	0.533752	0.064597
O19	O	1.121154	0.835926	0.022112
O20	O	1.103444	0.835930	-0.217269
O21	O	0.780016	0.835926	0.022112
O22	O	1.308489	0.568285	0.165753
O23	O	1.290778	0.568289	-0.073629
O24	O	0.967351	0.568286	0.165753
O25	O	1.297414	0.702108	-0.078538
O26	O	1.124419	0.702104	0.160843
O27	O	0.973987	0.702105	0.160843
O28	O	1.305224	0.702106	0.027022
O29	O	0.958247	0.941489	-0.221142
O30	O	1.112548	0.462727	0.169626
O31	O	1.303254	0.462726	0.169626
O32	O	1.293354	0.462729	0.035805
O33	O	0.777441	0.941487	-0.087321
O34	O	0.968147	0.941487	-0.087321
O35	O	1.096366	0.623328	0.095300
O36	O	1.202804	0.623330	0.016521
O37	O	1.092523	0.780886	-0.068038
O38	O	0.986085	0.780885	0.010741
C39	C	1.024955	0.491523	-0.018032
C40	C	1.021410	0.420052	-0.015410
C41	C	1.075301	0.386476	-0.055300
C42	C	1.071975	0.319317	-0.052828
C43	C	1.014749	0.285740	-0.010472
C44	C	0.960857	0.319319	0.029423
C45	C	0.964191	0.386472	0.026956
C46	C	0.998826	0.084896	0.001321
C47	C	0.995493	0.017740	0.003783
C48	C	1.106613	0.017741	-0.078467
C49	C	1.109937	0.084899	-0.080935
C50	C	1.056049	0.118469	-0.041037
N51	N	1.011344	0.217095	-0.007946
N52	N	1.059462	0.187109	-0.043557
C53	C	0.735292	0.702108	-0.025759
C54	C	0.633439	0.702109	-0.025759
C55	C	0.642736	0.623950	0.016188
C56	C	0.537467	0.623949	0.016189
C57	C	1.335503	0.702107	-0.025758
C58	C	1.437356	0.702107	-0.025758
C59	C	1.019817	0.702112	-0.236347
C60	C	1.014529	0.702113	-0.307819
C61	C	1.045840	0.912693	-0.033484
C62	C	1.049385	0.984164	-0.036106
C63	C	1.094919	0.702114	-0.341396
C64	C	1.089953	0.702108	-0.408548
C65	C	1.004593	0.702106	-0.442123
C66	C	0.924199	0.702102	-0.408540
C67	C	0.929170	0.702102	-0.341386
C68	C	0.980843	0.702099	-0.642961
C69	C	0.975876	0.702101	-0.710120
C70	C	1.141632	0.702105	-0.710122
C71	C	1.146592	0.702111	-0.642971
C72	C	1.066202	0.702102	-0.609390
N73	N	0.999513	0.702102	-0.510764
N74	N	1.071287	0.702100	-0.540747
C75	C	1.050978	0.702104	0.184830
C76	C	1.056265	0.702103	0.256302
C77	C	1.325060	0.491522	-0.018032
C78	C	1.423369	0.420051	-0.015410
C79	C	1.040535	0.491519	0.192557
C80	C	1.042278	0.420047	0.266651
C81	C	1.340640	0.491518	0.192557
C82	C	1.444237	0.420046	0.266651
C83	C	0.730154	0.912697	-0.244073
C84	C	0.626558	0.984169	-0.318168
C85	C	0.745735	0.912694	-0.033485
C86	C	0.647426	0.984164	-0.036107
C87	C	1.030260	0.912697	-0.244073
C88	C	1.028517	0.984169	-0.318167
C89	C	1.407892	0.386489	-0.055307
C90	C	1.500253	0.319344	-0.052859
C91	C	1.608092	0.285758	-0.010509
C92	C	1.623568	0.319327	0.029390
C93	C	1.531207	0.386475	0.026937
C94	C	1.104741	0.386482	0.342575
C95	C	1.106376	0.319336	0.412200
C96	C	1.045554	0.285752	0.405900
C97	C	0.983083	0.319323	0.329967
C98	C	0.981443	0.386472	0.260344
C99	C	1.548456	0.386483	0.260325
C100	C	1.645806	0.319336	0.329937
C101	C	1.638933	0.285750	0.405876
C102	C	1.534702	0.319320	0.412200
C103	C	1.437356	0.386470	0.342588
C104	C	0.522339	1.017741	-0.311842
C105	C	0.424991	1.084908	-0.381455
C106	C	0.431864	1.118498	-0.457393
C107	C	0.536094	1.084924	-0.463717
C108	C	0.633440	1.017762	-0.394105
C109	C	0.662903	1.017734	0.003783
C110	C	0.570541	1.084898	0.001316
C111	C	0.462702	1.118486	-0.041037
C112	C	0.447227	1.084914	-0.080932
C113	C	0.539588	1.017756	-0.078469
C114	C	1.089352	1.017732	-0.311841
C115	C	1.087735	1.084879	-0.381453
C116	C	1.025277	1.118465	-0.457391
C117	C	0.964440	1.084895	-0.463716
C118	C	0.966063	1.017745	-0.394104
H119	H	0.948888	-0.009595	0.038275
F120	F	0.941478	0.120612	0.043788
F121	F	1.175514	0.702107	-0.444283
H122	H	0.526970	0.990425	-0.110950
F123	F	0.906835	0.422205	0.069414
H124	H	1.730665	0.292011	0.324774
F125	F	0.543391	1.120680	-0.544543
H126	H	0.429562	0.769025	-0.061675
H127	H	1.046899	0.231074	0.462598
F128	F	1.555797	0.422220	0.179512
F129	F	0.918356	0.283570	0.323275
H130	H	1.320092	0.413834	-0.089803
H131	H	1.140212	0.990396	-0.250015
H132	H	0.930581	0.413792	0.198526
H133	H	1.115858	0.291979	-0.085309
H134	H	1.683288	0.231080	-0.008517
F135	F	1.742548	0.214282	0.479957
H136	H	1.529123	0.291965	0.474038
H137	H	1.154271	0.413819	0.347720
H138	H	0.728630	0.557037	0.052103
H139	H	1.157251	0.292010	0.474020
H140	H	0.914269	0.291971	0.063916
H141	H	0.863710	0.702099	-0.314047
F142	F	1.152484	1.120598	-0.374705
F143	F	1.023557	1.189935	-0.531472
F144	F	1.326441	0.422180	0.349333
H145	H	0.516721	0.990396	-0.250015
F146	F	0.314073	1.120626	-0.374707
F147	F	0.521172	0.789572	-0.072695
H148	H	1.711382	0.291971	0.063870
H149	H	0.352590	1.173185	-0.514070
H150	H	1.216099	0.702112	-0.615634
F151	F	0.897963	1.120656	-0.544542
H152	H	0.750703	0.990391	0.038277
F153	F	1.136203	0.422209	-0.100387
F154	F	0.901301	0.982038	-0.400850
F155	F	1.483760	0.283626	-0.095324
H156	H	1.164425	0.702121	-0.314066
F157	F	1.547697	0.422184	0.069409
H158	H	0.583163	1.112221	0.033807
H159	H	0.718296	0.990429	-0.399265
H160	H	0.387506	1.173170	-0.043036
H161	H	1.156534	0.112236	-0.115425
H162	H	1.207083	0.702111	-0.737469
H163	H	1.150488	-0.009599	-0.110950
H164	H	0.545252	0.557034	0.052096
F165	F	0.885016	0.702102	-0.745851
H166	H	0.915384	0.702094	-0.615626
F167	F	0.833355	0.702094	-0.444271
F168	F	0.332448	1.120668	-0.126002
