data_functionalizedCrystal
_audit_creation_method	'MofGen! by Chris Wilmer'
_symmetry_space_group_name_H-M	'P1'
_symmetry_Int_Tables_number	1
_symmetry_cell_setting	triclinic
loop_
_symmetry_equiv_pos_as_xyz
  x,y,z
_cell_length_a	19.288864
_cell_length_b	15.944551
_cell_length_c	18.366186
_cell_angle_alpha	89.992809
_cell_angle_beta	89.977106
_cell_angle_gamma	83.317492
loop_
_atom_site_label
_atom_site_type_symbol
_atom_site_fract_x
_atom_site_fract_y
_atom_site_fract_z
O1	O	0.921629	0.104784	-0.060785
O2	O	0.719405	0.118919	-0.060735
O3	O	0.826039	-0.010445	-0.060755
O4	O	0.814995	0.234147	-0.060765
O5	O	0.826021	-0.010451	0.060345
O6	O	0.719387	0.118912	0.060364
O7	O	0.921611	0.104777	0.060315
Zn8	Zn	0.820496	0.111844	0.079567
Zn9	Zn	0.820520	0.111852	-0.079987
O10	O	0.814977	0.234141	0.060334
C11	C	0.693519	0.118461	-0.000179
C12	C	0.616411	0.117095	-0.000160
C13	C	0.571915	0.193000	-0.000175
C14	C	0.499465	0.191717	-0.000183
C15	C	0.471514	0.114526	-0.000191
C16	C	0.516020	0.038611	-0.000172
C17	C	0.588469	0.039896	-0.000156
C18	C	0.363098	0.053847	-0.042639
C19	C	0.290650	0.052565	-0.042659
C20	C	0.248058	0.110560	-0.000234
C21	C	0.277920	0.169850	0.042200
C22	C	0.350369	0.171135	0.042216
C23	C	0.392956	0.113124	-0.000207
C24	C	0.125002	0.185079	-0.000257
C25	C	0.052550	0.183793	-0.000260
C26	C	0.069107	0.030684	-0.000257
C27	C	0.141557	0.031972	-0.000246
C28	C	0.169500	0.109172	-0.000249
C29	C	0.825572	-0.041740	-0.000205
C30	C	0.824197	-0.134981	-0.000204
C31	C	0.754815	-0.349571	-0.000197
C32	C	0.787025	-0.410715	0.059504
C33	C	0.821710	-0.305697	-0.000209
C34	C	0.787058	-0.410692	-0.059890
C35	C	0.819303	-0.470601	-0.000217
C36	C	0.853939	-0.365614	0.059542
C37	C	0.853963	-0.365585	-0.059906
C38	C	0.886222	-0.426712	-0.000190
C39	C	0.823095	-0.210700	-0.000204
C40	C	0.817924	-0.565597	-0.000217
C41	C	0.947497	0.105235	-0.000243
C42	C	1.024605	0.106600	-0.000267
C43	C	0.815444	0.265436	-0.000217
C44	C	0.816819	0.358677	-0.000223
N45	N	0.820485	0.111838	0.188458
N46	N	0.820537	0.111852	-0.188878
C47	C	0.867718	0.054583	0.226549
C48	C	0.867722	0.054580	0.302777
C49	C	0.820500	0.111844	0.340910
C50	C	0.773258	0.169103	0.302810
C51	C	0.773251	0.169100	0.226583
C52	C	0.811404	0.188378	0.461669
C53	C	0.811416	0.188383	0.537894
C54	C	0.820520	0.111855	0.576018
C55	C	0.829626	0.035320	0.537908
C56	C	0.829618	0.035316	0.461681
C57	C	0.820503	0.111854	0.423565
C58	C	0.867760	0.054592	0.696765
C59	C	0.867760	0.054587	0.772994
C60	C	0.773299	0.169118	0.773025
C61	C	0.773296	0.169115	0.696797
C62	C	0.820531	0.111853	0.658671
H63	H	0.016321	0.245606	-0.000268
H64	H	0.758723	-0.430717	0.109991
H65	H	0.177787	-0.029838	-0.000238
N66	N	0.801590	0.270926	0.578995
H67	H	0.840189	0.305837	0.565702
H68	H	0.754994	0.302859	0.565731
H69	H	0.147754	0.247939	-0.000249
H70	H	0.046351	-0.032167	-0.000308
H71	H	0.803978	0.250700	0.430635
N72	N	0.891380	-0.339293	0.126472
H73	H	0.892056	-0.276051	0.126073
H74	H	0.866275	-0.356143	0.171484
N75	N	0.258444	-0.011378	-0.088426
H76	H	0.296418	-0.047930	-0.115292
H77	H	0.232259	-0.047924	-0.055885
H78	H	0.374680	0.219409	0.076770
N79	N	0.636461	-0.041980	-0.000139
H80	H	0.627496	-0.075671	-0.045031
H81	H	0.686579	-0.029386	-0.000103
N82	N	0.409035	-0.008711	-0.088397
H83	H	0.379125	-0.046459	-0.115285
H84	H	0.435773	0.022734	-0.124629
H85	H	0.463229	0.253530	-0.000193
H86	H	0.734808	0.215728	0.333861
N87	N	0.485878	-0.044647	-0.000172
H88	H	0.433230	-0.033944	-0.000184
H89	H	0.502182	-0.077854	-0.045058
N90	N	0.918678	-0.007183	0.655625
H91	H	0.949430	0.024810	0.623973
H92	H	0.948552	-0.043457	0.691363
H93	H	0.699288	-0.316049	-0.000124
H94	H	0.941797	-0.460084	-0.000170
N95	N	0.722302	0.230852	0.185493
H96	H	0.692384	0.267127	0.221214
H97	H	0.748887	0.267906	0.153847
H98	H	0.243242	0.217075	0.076747
N99	N	0.918657	-0.007182	0.185431
H100	H	0.911488	0.001502	0.131361
H101	H	0.967928	0.002377	0.198729
H102	H	0.882240	-0.345560	-0.110395
H103	H	0.758763	-0.430658	-0.110366
N104	N	0.602060	0.276257	-0.000166
H105	H	0.631777	0.280204	-0.045050
H106	H	0.562839	0.324104	-0.000147
N107	N	0.918666	-0.007177	0.343875
H108	H	0.948586	-0.043453	0.308155
H109	H	0.949370	0.024894	0.375479
N110	N	0.839437	-0.047224	0.420575
H111	H	0.845206	-0.095708	0.456288
H112	H	0.797239	-0.051998	0.388972
H113	H	0.837039	-0.026997	0.568947
H114	H	0.906221	0.007959	0.804009
H115	H	0.734848	0.215741	0.804072
H116	H	0.734838	0.215741	0.665781
