data_functionalizedCrystal
_audit_creation_method	'MofGen! by Chris Wilmer'
_symmetry_space_group_name_H-M	'P1'
_symmetry_Int_Tables_number	1
_symmetry_cell_setting	triclinic
loop_
_symmetry_equiv_pos_as_xyz
  x,y,z
_cell_length_a	11.169417
_cell_length_b	19.121063
_cell_length_c	11.169409
_cell_angle_alpha	92.400842
_cell_angle_beta	89.979436
_cell_angle_gamma	92.469728
loop_
_atom_site_label
_atom_site_type_symbol
_atom_site_fract_x
_atom_site_fract_y
_atom_site_fract_z
Zn1	Zn	1.814451	-0.279539	-0.698851
Zn2	Zn	1.805714	-0.397013	-0.506702
Zn3	Zn	1.613731	-0.279582	-0.498188
Zn4	Zn	1.605125	-0.396955	-0.707343
O5	O	1.709755	-0.338272	-0.602771
O6	O	1.981241	-0.295129	-0.673371
O7	O	1.780192	-0.381477	-0.337626
O8	O	1.647615	-0.181292	-0.517690
O9	O	1.974822	-0.381435	-0.532200
O10	O	1.795083	-0.181261	-0.665116
O11	O	1.639143	-0.295201	-0.331371
O12	O	1.444640	-0.295146	-0.525924
O13	O	1.632947	-0.381338	-0.874163
O14	O	1.438317	-0.381380	-0.679589
O15	O	1.786738	-0.295073	-0.867924
O16	O	1.771847	-0.495289	-0.540435
O17	O	1.624475	-0.495247	-0.687844
C18	C	1.397931	-0.338262	-0.602755
C19	C	1.264530	-0.338274	-0.602778
C20	C	1.696312	-0.520752	-0.616011
C21	C	1.690671	-0.598818	-0.621715
C22	C	1.764809	-0.635491	-0.547710
C23	C	1.759510	-0.708842	-0.553082
C24	C	1.680067	-0.745518	-0.632454
C25	C	1.605926	-0.708839	-0.706467
C26	C	1.611231	-0.635489	-0.701100
C27	C	1.660212	-0.966986	-0.652499
C28	C	1.654910	-1.040341	-0.657858
C29	C	1.808497	-1.040339	-0.504474
C30	C	1.813790	-0.966988	-0.499110
C31	C	1.739653	-0.930316	-0.573127
C32	C	1.674647	-0.820494	-0.637944
C33	C	1.745081	-0.855341	-0.567642
C34	C	2.022796	-0.338284	-0.602788
C35	C	2.156196	-0.338288	-0.602795
C36	C	1.709857	-0.338195	-0.915808
C37	C	1.709900	-0.338161	-1.049206
C38	C	1.723283	-0.155080	-0.589506
C39	C	1.729048	-0.077015	-0.583853
C40	C	1.709726	-0.338299	-0.290948
C41	C	1.709930	-0.338135	-0.157537
H42	H	1.819881	-0.738699	-0.492818
C43	C	1.530941	-0.595630	-0.781593
C44	C	1.601917	-0.553464	-0.855509
C45	C	1.528000	-0.516743	-0.929692
H46	H	1.480718	-0.567005	-0.733685
H47	H	1.482887	-0.627953	-0.829703
H48	H	1.649950	-0.521145	-0.807405
H49	H	1.652138	-0.582071	-0.903442
H50	H	1.479946	-0.549066	-0.977802
H51	H	1.477780	-0.488123	-0.881775
H52	H	1.576146	-0.488134	-0.979860
C53	C	1.519707	-0.748783	-0.792521
C54	C	1.530901	-0.820869	-0.781358
C55	C	1.451480	-0.857685	-0.860599
H56	H	1.538020	-0.736799	-0.872349
H57	H	1.439914	-0.736848	-0.774000
H58	H	1.610676	-0.832798	-0.799887
H59	H	1.512578	-0.832874	-0.701548
H60	H	1.371687	-0.845751	-0.842078
H61	H	1.469800	-0.845695	-0.940421
H62	H	1.459056	-0.906599	-0.853028
C63	C	1.900179	-0.927298	-0.412909
C64	C	1.964000	-0.975115	-0.349272
C65	C	2.043603	-0.938578	-0.269865
H66	H	1.856501	-0.898727	-0.358378
H67	H	1.954582	-0.898653	-0.456751
H68	H	1.909604	-1.003748	-0.305432
H69	H	2.007702	-1.003687	-0.403771
H70	H	2.098006	-0.909933	-0.313707
H71	H	1.999916	-0.910009	-0.215342
H72	H	2.086923	-0.971017	-0.226685
H73	H	1.590232	-1.070200	-0.722513
C74	C	1.831131	-0.815487	-0.481315
C75	C	1.766238	-0.773462	-0.401250
C76	C	1.845461	-0.736738	-0.321695
H77	H	1.885503	-0.786766	-0.525029
H78	H	1.874509	-0.847808	-0.437928
H79	H	1.722880	-0.741144	-0.444633
H80	H	1.711871	-0.802164	-0.357508
H81	H	1.888839	-0.769060	-0.278308
H82	H	1.899828	-0.708022	-0.365419
H83	H	1.801442	-0.708225	-0.267355
H84	H	1.609961	-0.850364	-0.702566
C85	C	1.850942	-0.595549	-0.461569
C86	C	1.839701	-0.523462	-0.472681
C87	C	1.919021	-0.486648	-0.393337
H88	H	1.930761	-0.607437	-0.479998
H89	H	1.832536	-0.607580	-0.381769
H90	H	1.858115	-0.511436	-0.552463
H91	H	1.759900	-0.511553	-0.454242
H92	H	1.900615	-0.498679	-0.313536
H93	H	1.998835	-0.498542	-0.411773
H94	H	1.911397	-0.437733	-0.400857
C95	C	1.889148	-1.080190	-0.424333
C96	C	1.963020	-1.122210	-0.495440
C97	C	2.037354	-1.158921	-0.421659
H98	H	1.841339	-1.108912	-0.374071
H99	H	1.937291	-1.047861	-0.376323
H100	H	1.914883	-1.154535	-0.543429
H101	H	2.010854	-1.093505	-0.545701
H102	H	2.085496	-1.126592	-0.373649
H103	H	1.989535	-1.187639	-0.371399
H104	H	2.087492	-1.187431	-0.469893
H105	H	1.599845	-0.937133	-0.712765
