data_functionalizedCrystal
_audit_creation_method	'MofGen! by Chris Wilmer'
_symmetry_space_group_name_H-M	'P1'
_symmetry_Int_Tables_number	1
_symmetry_cell_setting	triclinic
loop_
_symmetry_equiv_pos_as_xyz
  x,y,z
_cell_length_a	7.088929
_cell_length_b	19.288864
_cell_length_c	19.288865
_cell_angle_alpha	96.863755
_cell_angle_beta	96.207236
_cell_angle_gamma	96.168270
loop_
_atom_site_label
_atom_site_type_symbol
_atom_site_fract_x
_atom_site_fract_y
_atom_site_fract_z
O1	O	0.159620	-0.914167	0.093839
O2	O	0.159493	-0.711912	0.105522
O3	O	0.159522	-0.818886	-0.001452
O4	O	0.159591	-0.807194	0.200812
O5	O	-0.158449	-0.833182	-0.015780
O6	O	-0.158479	-0.726208	0.091194
O7	O	-0.158351	-0.928463	0.079511
Cu8	Cu	-0.187448	-0.828641	0.084044
Cu9	Cu	0.188590	-0.811734	0.100988
O10	O	-0.158381	-0.821490	0.186484
C11	C	0.000490	-0.693185	0.097981
C12	C	0.000440	-0.616083	0.096849
N13	N	-0.451933	-0.840537	0.072125
C14	C	0.000531	-0.825658	-0.034492
C15	C	0.000513	-0.824530	-0.111597
N16	N	0.453074	-0.799844	0.112901
C17	C	0.000656	-0.947191	0.087052
C18	C	0.000719	-1.024291	0.088184
C19	C	0.000491	-0.571385	0.159620
C20	C	0.000512	-0.498937	0.158560
C21	C	0.000520	-0.471189	0.094728
C22	C	0.000457	-0.515898	0.031949
C23	C	0.000417	-0.588345	0.033010
C24	C	0.111966	-0.357916	0.049571
C25	C	0.112018	-0.285469	0.048513
C26	C	0.000634	-0.247738	0.091454
C27	C	-0.110777	-0.282460	0.135464
C28	C	-0.110817	-0.354907	0.136525
C29	C	0.000562	-0.392633	0.093571
C30	C	0.000705	-0.124483	0.153079
C31	C	0.000714	-0.052034	0.152016
C32	C	0.000679	-0.068996	0.025404
C33	C	0.000651	-0.141444	0.026468
C34	C	0.000673	-0.169182	0.090308
C35	C	0.000543	-0.887296	-0.156292
C36	C	0.000573	-0.886234	-0.228737
C37	C	0.000534	-0.822404	-0.256487
C38	C	0.000514	-0.759628	-0.211782
C39	C	0.000504	-0.760691	-0.139337
C40	C	-0.110876	-0.777233	-0.369794
C41	C	-0.110878	-0.776173	-0.442239
C42	C	0.000575	-0.819122	-0.479931
C43	C	0.112004	-0.863144	-0.445171
C44	C	0.111993	-0.864207	-0.372726
C45	C	0.000546	-0.821244	-0.335040
C46	C	0.000640	-0.880741	-0.603180
C47	C	0.000681	-0.879676	-0.675626
C48	C	0.000603	-0.753070	-0.658669
C49	C	0.000581	-0.754136	-0.586224
C50	C	0.000590	-0.817974	-0.558484
C51	C	0.000615	-0.814717	0.219525
C52	C	0.000645	-0.815845	0.296630
H53	H	-0.465291	-0.757669	0.155157
H54	H	-0.201478	-0.251741	0.170430
H55	H	-0.533577	-0.882720	0.029872
N56	N	0.232176	-0.248027	0.001045
H57	H	0.146845	-0.225785	-0.033067
H58	H	0.327463	-0.210319	0.030453
H59	H	0.000513	-0.593964	0.211603
N60	N	0.000571	-0.450714	0.226264
H61	H	0.000578	-0.479279	0.266866
H62	H	0.118470	-0.415007	0.233885
N63	N	0.000617	-0.003826	0.219715
H64	H	0.000583	-0.032397	0.260312
H65	H	0.118460	0.031908	0.227373
N66	N	-0.230978	-0.392359	0.183986
H67	H	-0.301539	-0.357469	0.211029
H68	H	-0.326148	-0.430104	0.154574
N69	N	0.000719	-0.154408	0.221929
H70	H	0.000739	-0.115096	0.261534
H71	H	-0.117167	-0.189381	0.219815
N72	N	0.000583	-0.684221	-0.688587
H73	H	0.000600	-0.693070	-0.741263
H74	H	-0.117310	-0.662062	-0.677543
H75	H	0.202680	-0.388631	0.014603
N76	N	0.000666	-0.039080	-0.043446
H77	H	0.000692	0.013598	-0.034594
H78	H	0.118525	-0.050164	-0.065594
H79	H	0.000620	-0.177838	-0.024646
N80	N	0.000443	-0.485976	-0.036900
H81	H	0.000478	-0.433298	-0.028048
H82	H	0.118296	-0.497062	-0.059051
H83	H	0.000377	-0.624739	-0.018107
H84	H	0.000558	-0.939278	-0.133711
H85	H	0.000605	-0.937347	-0.265135
N86	N	0.232169	-0.911681	-0.335234
H87	H	0.302779	-0.938730	-0.370099
H88	H	0.327297	-0.882283	-0.297460
H89	H	0.202760	-0.898117	-0.475858
N90	N	0.000658	-0.949590	-0.573253
H91	H	0.000697	-0.989193	-0.612563
H92	H	0.118525	-0.947489	-0.538242
N93	N	0.000722	-0.947377	-0.723837
H94	H	0.000720	-0.987977	-0.695268
H95	H	-0.117146	-0.954987	-0.759585
H96	H	0.000546	-0.703025	-0.549833
H97	H	-0.201599	-0.740325	-0.470533
H98	H	-0.201644	-0.742258	-0.339112
H99	H	0.000487	-0.707657	-0.234379
H100	H	0.000479	-0.709578	-0.102945
