data_functionalizedCrystal
_audit_creation_method	'MofGen! by Chris Wilmer'
_symmetry_space_group_name_H-M	'P1'
_symmetry_Int_Tables_number	1
_symmetry_cell_setting	triclinic
loop_
_symmetry_equiv_pos_as_xyz
  x,y,z
_cell_length_a	19.902436
_cell_length_b	17.917603
_cell_length_c	17.917603
_cell_angle_alpha	60.138055
_cell_angle_beta	90.004008
_cell_angle_gamma	63.031398
loop_
_atom_site_label
_atom_site_type_symbol
_atom_site_fract_x
_atom_site_fract_y
_atom_site_fract_z
Zr1	Zr	0.685655	0.806773	-0.128997
O2	O	0.589239	0.951818	-0.249542
O3	O	0.710603	0.654542	-0.087343
O4	O	0.722777	0.796393	-0.242751
O5	O	0.572705	0.820661	0.023107
O6	O	0.833355	0.796379	-0.242741
O7	O	0.577066	0.809967	-0.094134
O8	O	0.811579	0.542634	0.035255
O9	O	0.594481	1.074406	-0.254888
O10	O	0.809334	0.719808	-0.075250
O11	O	0.723556	0.727799	0.012239
O12	O	0.737888	0.894810	-0.170734
O13	O	0.652111	0.902801	-0.083245
Zr14	Zr	0.855058	0.823807	0.058006
Zr15	Zr	0.862013	0.806751	-0.128981
Zr16	Zr	0.678699	0.823829	0.057989
Zr17	Zr	0.694014	1.002287	-0.137524
Zr18	Zr	0.846699	0.628293	0.066533
O19	O	0.830109	0.976038	0.016352
O20	O	0.839999	0.951787	-0.249519
O21	O	0.579349	0.976069	0.016329
O22	O	0.951473	0.678762	0.178550
O23	O	0.961363	0.654511	-0.087320
O24	O	0.700713	0.678793	0.178527
O25	O	0.968008	0.809919	-0.094098
O26	O	0.817936	0.834187	0.171759
O27	O	0.707358	0.834201	0.171749
O28	O	0.963646	0.820613	0.023143
O29	O	0.734663	1.074389	-0.254876
O30	O	0.806050	0.556191	0.183884
O31	O	0.946232	0.556174	0.183897
O32	O	0.951760	0.542617	0.035268
O33	O	0.588952	1.087963	-0.106259
O34	O	0.729134	1.087946	-0.106246
O35	O	0.802824	0.735770	0.099742
O36	O	0.888602	0.727779	0.012254
O37	O	0.817157	0.902781	-0.083230
O38	O	0.731379	0.910772	0.004258
C39	C	0.759900	0.570732	-0.024829
C40	C	0.756351	0.487731	-0.021209
C41	C	0.749868	0.335765	-0.014598
C42	C	0.790843	0.294811	-0.056391
C43	C	0.787235	0.210252	-0.052713
C44	C	0.753474	0.420332	-0.018276
C45	C	0.549758	0.815317	-0.035516
C46	C	0.474889	0.815326	-0.035523
C47	C	0.202884	0.815278	-0.035487
C48	C	0.186295	0.925696	-0.095455
C49	C	0.264148	0.925741	-0.095763
C50	C	0.337829	0.815303	-0.035505
C51	C	0.334464	0.754307	-0.073254
C52	C	0.256283	0.755008	-0.073692
C53	C	0.252114	0.765031	0.062292
C54	C	0.329133	0.767187	0.062051
C55	C	0.414096	0.815310	-0.035514
C56	C	0.126618	0.815266	-0.035481
C57	C	0.990954	0.815263	-0.035475
C58	C	1.065823	0.815254	-0.035469
C59	C	0.779057	0.793956	-0.269387
C60	C	0.782009	0.786715	-0.348768
C61	C	0.780812	1.059849	-0.046162
C62	C	0.784361	1.142849	-0.049782
C63	C	0.787420	0.773489	-0.494122
C64	C	0.753294	0.857087	-0.576872
C65	C	0.756305	0.849728	-0.657752
C66	C	0.784410	0.780846	-0.413233
C67	C	0.761656	0.836624	0.198396
C68	C	0.758703	0.843865	0.277776
C69	C	0.980498	0.570705	-0.024809
C70	C	1.051818	0.487694	-0.021182
C71	C	0.751200	0.592066	0.209062
C72	C	0.744698	0.516306	0.292063
C73	C	0.971798	0.592039	0.209083
C74	C	1.040165	0.516269	0.292090
C75	C	0.568915	1.038541	-0.280074
C76	C	0.500547	1.114311	-0.363082
C77	C	0.560214	1.059876	-0.046183
C78	C	0.488894	1.142886	-0.049810
C79	C	0.789513	1.038514	-0.280054
C80	C	0.796014	1.114275	-0.363054
C81	C	1.043934	0.444551	-0.065162
C82	C	1.110941	0.366563	-0.061772
C83	C	1.185832	0.331716	-0.014396
C84	C	1.193715	0.374867	0.029585
C85	C	1.126708	0.452858	0.026190
C86	C	0.783022	0.484889	0.376725
C87	C	0.776910	0.413716	0.454719
C88	C	0.732479	0.373955	0.448051
C89	C	0.694150	0.405378	0.363380
C90	C	0.700258	0.476556	0.285387
C91	C	1.117054	0.476516	0.285403
C92	C	1.181299	0.405333	0.363390
C93	C	1.168655	0.373899	0.448063
C94	C	1.091759	0.413660	0.454748
C95	C	1.027515	0.484847	0.376762
C96	C	0.423659	1.154074	-0.356395
C97	C	0.359414	1.225281	-0.434383
C98	C	0.372059	1.256719	-0.519056
C99	C	0.448955	1.216953	-0.525741
C100	C	0.513199	1.145752	-0.447754
C101	C	0.496779	1.186037	-0.005837
C102	C	0.429773	1.264044	-0.009249
C103	C	0.354883	1.298894	-0.056628
C104	C	0.347000	1.255739	-0.100606
C105	C	0.414005	1.177738	-0.097199
C106	C	0.840452	1.154013	-0.356357
C107	C	0.846576	1.225188	-0.434337
C108	C	0.808258	1.256629	-0.519015
C109	C	0.763819	1.216883	-0.525710
C110	C	0.757699	1.145703	-0.447731
H111	H	0.828631	0.323255	-0.094934
H112	H	0.436207	1.299169	0.026567
C113	C	0.404467	0.644338	-0.016886
N114	N	0.457219	0.561526	0.025541
H115	H	0.657974	0.372995	0.357963
H116	H	0.712081	0.307323	0.023941
C117	C	0.710760	0.961242	-0.590519
N118	N	0.678720	1.039688	-0.600794
H119	H	0.266920	0.964582	-0.167968
C120	C	0.829933	0.669342	-0.480478
N121	N	0.861950	0.590899	-0.470211
H122	H	0.407574	1.142606	-0.133004
C123	C	0.462851	1.251536	-0.618890
N124	N	0.473315	1.277579	-0.689052
C125	C	0.274835	1.269009	-0.427010
N126	N	0.211132	1.301943	-0.421454
C127	C	0.263785	0.989874	-0.061991
N128	N	0.263500	1.038201	-0.036572
C129	C	0.708800	1.102012	-0.455114
N130	N	0.671965	1.069110	-0.460682
H131	H	0.148067	0.973452	-0.070572
C132	C	0.579153	1.147722	0.046281
N133	N	0.641195	1.118873	0.085534
H134	H	1.133139	0.487977	0.062009
H135	H	0.669052	0.502125	0.216455
H136	H	0.150908	0.964411	-0.167230
C137	C	0.281182	1.384694	-0.060362
N138	N	0.225673	1.449316	-0.063168
C139	C	0.721704	1.251440	-0.618863
N140	N	0.689993	1.277461	-0.689028
C141	C	1.130982	0.511085	0.192270
N142	N	1.141480	0.537123	0.122124
H143	H	0.286016	1.284126	-0.139181
C144	C	0.882615	1.119437	-0.263218
N145	N	0.914380	1.093394	-0.193068
H146	H	1.220973	0.315933	0.511557
H147	H	0.727512	0.315999	0.511565
C148	C	1.077862	0.379063	0.547897
N149	N	1.067397	0.352997	0.618060
H150	H	0.982961	0.472921	-0.103752
C151	C	0.212786	0.801411	-0.170742
N152	N	0.180026	0.836365	-0.243842
H153	H	0.882762	1.257543	-0.428868
C154	C	1.265878	0.361599	0.356017
N155	N	1.329581	0.328658	0.350461
H156	H	0.808125	0.388140	0.523654
C157	C	0.814996	1.334931	-0.604787
N158	N	0.820072	1.393910	-0.669388
H159	H	0.964910	0.517205	0.382219
H160	H	0.270617	0.673732	-0.032574
C161	C	0.329535	0.827351	0.100216
N162	N	0.329844	0.872667	0.128960
C163	C	1.276101	0.336517	0.081704
N164	N	1.338156	0.307623	0.120966
C165	C	0.342324	0.799555	-0.169357
N166	N	0.348234	0.833647	-0.241747
C167	C	0.203506	0.819085	0.105533
N168	N	0.166891	0.859810	0.138092
H169	H	0.413348	1.128481	-0.287457
H170	H	0.381340	0.686989	0.110101
H171	H	0.266866	0.683751	0.107125
H172	H	0.319741	1.314696	-0.582551
H173	H	0.575803	1.113377	-0.453209
H174	H	1.104508	0.331438	-0.097588
H175	H	1.240386	0.268209	-0.011637
H176	H	0.819202	0.517255	0.382172
