data_functionalizedCrystal
_audit_creation_method	'MofGen! by Chris Wilmer'
_symmetry_space_group_name_H-M	'P1'
_symmetry_Int_Tables_number	1
_symmetry_cell_setting	triclinic
loop_
_symmetry_equiv_pos_as_xyz
  x,y,z
_cell_length_a	10.654550
_cell_length_b	23.532357
_cell_length_c	9.130313
_cell_angle_alpha	89.993247
_cell_angle_beta	89.996220
_cell_angle_gamma	83.656597
loop_
_atom_site_label
_atom_site_type_symbol
_atom_site_fract_x
_atom_site_fract_y
_atom_site_fract_z
O1	O	1.665268	0.079984	-0.121940
O2	O	1.299545	0.087605	-0.121918
O3	O	1.493468	0.000933	-0.121899
O4	O	1.471346	0.166656	-0.121958
O5	O	1.493466	0.000935	0.121700
O6	O	1.299543	0.087607	0.121681
O7	O	1.665266	0.079986	0.121659
Cu8	Cu	1.482404	0.083797	0.143913
Cu9	Cu	1.482407	0.083794	-0.144171
O10	O	1.471343	0.166658	0.121641
C11	C	1.252764	0.087046	-0.000115
C12	C	1.113375	0.085372	-0.000106
C13	C	1.492913	-0.020286	-0.000095
C14	C	1.491250	-0.083516	-0.000081
C15	C	1.032252	0.136403	-0.000145
C16	C	0.901282	0.134827	-0.000170
C17	C	0.932570	0.031184	-0.000122
C18	C	1.063537	0.032761	-0.000087
C19	C	1.014187	0.196241	-0.000179
C20	C	0.883217	0.194664	-0.000204
C21	C	1.480807	-0.475596	-0.132946
C22	C	1.479225	-0.535006	-0.132954
O23	O	1.478366	-0.565729	-0.245883
N24	N	1.478440	-0.564721	-0.000170
C25	C	1.479223	-0.535023	0.132631
O26	O	1.478408	-0.565753	0.245573
C27	C	1.480795	-0.475613	0.132638
C28	C	1.481594	-0.445902	-0.000155
C29	C	1.481604	-0.445885	-0.265727
C30	C	1.483187	-0.386479	-0.265719
C31	C	1.483974	-0.356785	-0.132928
C32	C	1.483177	-0.386497	-0.000146
C33	C	1.481570	-0.445916	0.265437
C34	C	1.483141	-0.386502	0.265432
C35	C	1.483939	-0.356791	0.132640
C36	C	1.485548	-0.297397	0.132653
N37	N	1.486334	-0.267682	-0.000131
C38	C	1.485547	-0.297376	-0.132921
C39	C	1.475919	-0.659786	0.132607
C40	C	1.474355	-0.719194	0.132602
C41	C	1.474355	-0.719174	-0.132984
C42	C	1.475928	-0.659764	-0.132977
C43	C	1.476704	-0.630071	-0.000177
C44	C	1.488874	-0.172620	-0.132893
C45	C	1.490463	-0.113210	-0.132872
C46	C	1.490456	-0.113235	0.132712
C47	C	1.488874	-0.172641	0.132693
C48	C	1.488078	-0.202332	-0.000122
O49	O	1.486403	-0.266636	0.245525
O50	O	1.486345	-0.266638	-0.245845
C51	C	1.712047	0.080545	-0.000147
C52	C	1.851437	0.082219	-0.000166
C53	C	1.471898	0.187877	-0.000167
C54	C	1.473562	0.251107	-0.000190
N55	N	1.482411	0.083798	0.346535
N56	N	1.482410	0.083788	-0.346794
C57	C	1.568302	0.045433	0.423195
C58	C	1.568299	0.045426	0.576532
C59	C	1.396510	0.122155	0.576535
C60	C	1.396509	0.122159	0.423201
C61	C	1.667486	0.001136	0.423195
C62	C	1.667483	0.001129	0.576532
H63	H	0.891976	-0.011651	-0.000129
H64	H	1.129584	-0.008794	-0.000033
N65	N	1.488041	-0.204689	0.275919
H66	H	1.565242	-0.233651	0.281825
H67	H	1.488745	-0.176820	0.359949
N68	N	1.640940	-0.056841	0.368070
H69	H	1.714302	-0.074061	0.306607
H70	H	1.629061	-0.082672	0.454145
H71	H	1.326570	0.153386	0.638973
N72	N	1.483990	-0.354482	0.408678
H73	H	1.562502	-0.334149	0.414605
H74	H	1.406740	-0.325550	0.414528
N75	N	1.052068	0.227236	0.134850
H76	H	1.094334	0.261789	0.104794
H77	H	0.974455	0.239892	0.195033
H78	H	1.491103	-0.089048	0.240827
N79	N	0.826974	0.224515	-0.135273
H80	H	0.732486	0.223390	-0.135343
H81	H	0.846247	0.265583	-0.135274
H82	H	1.758225	0.015006	0.375626
H83	H	1.491116	-0.089022	-0.241012
H84	H	1.480922	-0.470096	0.373571
N85	N	1.303847	0.163532	0.340530
H86	H	1.317767	0.204014	0.367206
H87	H	1.316914	0.157666	0.231785
H88	H	0.836964	0.212749	0.104958
H89	H	1.638297	-0.040235	0.624096
H90	H	1.488220	-0.196787	-0.241043
N91	N	1.060626	0.221473	-0.139496
H92	H	0.986734	0.232506	-0.206834
H93	H	1.103450	0.256499	-0.115179
H94	H	1.763681	0.010887	0.618139
H95	H	1.483833	-0.362294	-0.373852
H96	H	1.476576	-0.635577	-0.241109
N97	N	1.480827	-0.477899	-0.408981
H98	H	1.403274	-0.463246	-0.467079
H99	H	1.559036	-0.471832	-0.466841
N100	N	1.473506	-0.751207	-0.276214
H101	H	1.472385	-0.793349	-0.256057
H102	H	1.395923	-0.736508	-0.334196
N103	N	1.473521	-0.751238	0.275827
H104	H	1.474262	-0.723407	0.359943
H105	H	1.395009	-0.771574	0.281624
H106	H	1.476555	-0.635613	0.240755
