data_functionalizedCrystal
_audit_creation_method	'MofGen! by Chris Wilmer'
_symmetry_space_group_name_H-M	'P1'
_symmetry_Int_Tables_number	1
_symmetry_cell_setting	triclinic
loop_
_symmetry_equiv_pos_as_xyz
  x,y,z
_cell_length_a	19.077115
_cell_length_b	12.827892
_cell_length_c	19.076919
_cell_angle_alpha	92.275535
_cell_angle_beta	90.076897
_cell_angle_gamma	87.711893
loop_
_atom_site_label
_atom_site_type_symbol
_atom_site_fract_x
_atom_site_fract_y
_atom_site_fract_z
Zn1	Zn	1.058323	-0.505562	-0.440428
Zn2	Zn	1.062980	-0.673587	-0.322928
Zn3	Zn	0.945539	-0.491562	-0.318222
Zn4	Zn	0.940802	-0.672956	-0.435682
O5	O	1.001911	-0.585917	-0.379315
O6	O	1.157273	-0.533973	-0.428797
O7	O	1.051333	-0.643846	-0.223972
O8	O	0.960534	-0.347186	-0.334449
O9	O	1.160695	-0.657420	-0.342470
O10	O	1.043395	-0.357472	-0.424233
O11	O	0.965050	-0.510113	-0.220515
O12	O	0.846578	-0.509502	-0.329847
O13	O	0.952460	-0.656346	-0.534643
O14	O	0.843098	-0.642772	-0.416145
O15	O	1.038802	-0.533362	-0.538130
O16	O	1.046740	-0.819736	-0.337869
O17	O	0.956976	-0.819273	-0.420709
C18	C	0.819342	-0.574550	-0.371971
C19	C	0.741237	-0.569714	-0.368846
C20	C	0.301783	-0.534980	-0.346439
C21	C	0.375170	-0.539531	-0.349379
C22	C	0.410071	-0.611298	-0.395707
C23	C	0.371580	-0.678512	-0.439102
C24	C	0.298194	-0.673956	-0.436165
C25	C	0.629360	-0.632371	-0.409304
C26	C	0.702752	-0.636925	-0.412237
C27	C	0.706337	-0.497942	-0.322514
C28	C	0.632949	-0.493396	-0.319578
C29	C	0.594464	-0.560606	-0.362976
N30	N	0.485085	-0.615953	-0.398712
N31	N	0.519452	-0.555945	-0.359974
C32	C	1.001868	-0.857423	-0.379301
C33	C	1.001912	-0.973580	-0.379321
C34	C	1.046379	-1.025565	-0.338378
C35	C	1.046426	-1.145620	-0.338398
C36	C	1.185193	-0.597328	-0.386688
C37	C	1.263297	-0.602191	-0.389830
C38	C	0.994583	-0.596345	-0.562596
C39	C	0.991460	-0.600789	-0.640699
C40	C	1.001973	-0.313352	-0.379345
C41	C	1.002000	-0.197201	-0.379358
C42	C	1.034944	-0.538849	-0.679208
C43	C	1.032001	-0.543020	-0.752594
C44	C	0.985577	-0.609138	-0.787470
C45	C	0.942088	-0.671081	-0.748955
C46	C	0.945028	-0.666903	-0.675570
C47	C	0.971961	-0.628492	-1.006752
C48	C	0.969026	-0.632667	-1.080142
C49	C	1.058939	-0.504604	-1.083776
C50	C	1.061877	-0.500437	-1.010390
C51	C	1.018386	-0.562376	-0.971882
N52	N	0.982570	-0.613405	-0.862482
N53	N	1.021390	-0.558102	-0.896870
C54	C	1.009251	-0.575456	-0.196749
C55	C	1.012510	-0.570726	-0.118651
H56	H	0.731165	-0.695367	-0.449966
H57	H	0.604538	-0.434963	-0.281848
H58	H	0.904286	-0.724911	-0.777356
H59	H	1.099683	-0.446600	-0.982000
H60	H	0.963925	-1.152504	-0.414410
N61	N	1.105837	-0.437784	-1.125305
H62	H	1.156552	-0.456409	-1.114556
H63	H	1.096873	-0.450483	-1.177072
H64	H	1.084417	-0.981195	-0.303314
H65	H	0.598035	-0.687102	-0.444640
N66	N	0.951526	-1.032338	-0.425776
H67	H	0.978798	-1.081198	-0.459492
H68	H	0.920186	-1.073971	-0.395816
N69	N	1.085021	-0.467542	-0.641595
H70	H	1.112120	-0.428936	-0.677129
H71	H	1.057649	-0.415668	-0.610000
H72	H	0.400002	-0.736942	-0.476826
N73	N	0.256679	-0.746453	-0.482958
H74	H	0.224941	-0.704028	-0.514354
H75	H	0.289967	-0.792598	-0.512706
N76	N	0.918928	-0.703964	-1.117743
H77	H	0.885161	-0.661183	-1.146877
H78	H	0.946285	-0.755908	-1.149300
N79	N	0.925032	-0.695258	-0.965222
H80	H	0.895172	-0.737766	-0.998453
H81	H	0.954817	-0.743678	-0.935905
N82	N	1.096851	-1.204824	-0.291957
H83	H	1.089735	-1.282194	-0.298551
H84	H	1.146595	-1.189476	-0.304936
H85	H	1.067412	-0.492584	-0.783946
H86	H	0.909611	-0.717331	-0.644217
H87	H	0.273372	-0.476541	-0.308713
H88	H	0.737679	-0.443222	-0.287183
N89	N	0.416680	-0.467021	-0.302593
H90	H	0.383435	-0.420864	-0.272800
H91	H	0.448426	-0.509500	-0.271240
