data_functionalizedCrystal
_audit_creation_method	'MofGen! by Chris Wilmer'
_symmetry_space_group_name_H-M	'P1'
_symmetry_Int_Tables_number	1
_symmetry_cell_setting	triclinic
loop_
_symmetry_equiv_pos_as_xyz
  x,y,z
_cell_length_a	6.817900
_cell_length_b	19.551823
_cell_length_c	10.773894
_cell_angle_alpha	96.640095
_cell_angle_beta	96.645922
_cell_angle_gamma	101.663376
loop_
_atom_site_label
_atom_site_type_symbol
_atom_site_fract_x
_atom_site_fract_y
_atom_site_fract_z
V1	V	-3.940090	-0.094103	-0.389512
O2	O	-3.938613	0.007164	-0.381497
O3	O	-3.883197	-0.189132	-0.387425
O4	O	-3.857996	-0.091497	-0.559128
O5	O	-3.963989	-0.091148	-0.208605
V6	V	-4.429184	-0.082128	-0.367804
O7	O	-4.189127	-0.120373	-0.437130
O8	O	-4.630344	-0.055858	-0.320186
O9	O	-4.262870	0.012901	-0.369891
O10	O	-4.548057	-0.183395	-0.375819
O11	O	-4.522681	-0.085084	-0.548710
O12	O	-4.288072	-0.084734	-0.198188
C13	C	-3.727222	-0.212335	-0.381429
C14	C	-3.761768	-0.290015	-0.380854
C15	C	-3.958524	-0.330021	-0.386821
C16	C	-3.990985	-0.403011	-0.386293
C17	C	-3.826676	-0.435989	-0.379772
C18	C	-3.629893	-0.395974	-0.373811
C19	C	-3.597439	-0.322987	-0.374352
C20	C	-3.729160	-0.542999	-0.300672
C21	C	-3.761620	-0.615984	-0.300124
C22	C	-3.926768	-0.661106	-0.378109
C23	C	-4.059484	-0.633232	-0.456628
C24	C	-4.027030	-0.560245	-0.457169
C25	C	-3.861847	-0.515131	-0.379186
C26	C	-4.158736	-0.780256	-0.383506
C27	C	-4.191192	-0.853248	-0.382986
C28	C	-3.830092	-0.846208	-0.370491
C29	C	-3.797643	-0.773219	-0.371024
C30	C	-3.961972	-0.740247	-0.377526
C31	C	-3.695074	-0.087790	-0.600452
C32	C	-3.709181	-0.086287	-0.739118
C33	C	-3.887023	-0.088891	-0.806996
C34	C	-3.901606	-0.087338	-0.950315
C35	C	-4.082187	0.036100	-0.375883
C36	C	-4.026878	0.113779	-0.376467
C37	C	-4.114336	-0.088444	-0.156857
C38	C	-4.079469	-0.089943	-0.018190
H39	H	-4.151213	-0.435590	-0.391152
C40	C	-3.350967	-0.079609	-0.713720
C41	C	-3.518196	-0.081722	-0.803887
H42	H	-3.233057	-0.076785	-0.753705
H43	H	-3.372789	-0.121158	-0.674809
H44	H	-3.333624	-0.039441	-0.651508
H45	H	-3.535548	-0.121893	-0.866095
H46	H	-3.496371	-0.040168	-0.842818
H47	H	-3.594662	-0.506266	-0.237172
C48	C	-3.615189	-0.619211	-0.087780
C49	C	-3.615736	-0.646613	-0.213814
H50	H	-3.525111	-0.638115	-0.034496
H51	H	-3.747821	-0.631646	-0.066398
H52	H	-3.572230	-0.569285	-0.076969
H53	H	-3.658709	-0.696539	-0.224627
H54	H	-3.483076	-0.634183	-0.235202
H55	H	-4.220945	-0.093325	-0.970208
H56	H	-4.092338	-0.303180	-0.392124
C57	C	-3.264096	-0.285820	-0.256078
C58	C	-3.381147	-0.279005	-0.367778
H59	H	-3.130569	-0.258663	-0.252016
H60	H	-3.259909	-0.334003	-0.254840
H61	H	-3.322414	-0.269405	-0.185624
H62	H	-3.322836	-0.295426	-0.438232
H63	H	-3.385324	-0.230813	-0.369027
C64	C	-3.762027	-0.082123	-1.144521
C65	C	-3.710613	-0.082778	-1.015081
H66	H	-3.644119	-0.079312	-1.184504
H67	H	-3.818801	-0.042452	-1.156780
H68	H	-3.858009	-0.124170	-1.180067
H69	H	-3.614642	-0.040728	-0.979534
H70	H	-3.653808	-0.122453	-1.002814
H71	H	-3.637423	-0.740645	-0.366157
H72	H	-4.292542	-0.753409	-0.388798
H73	H	-4.135090	-0.537554	-0.521103
H74	H	-4.028481	-0.092266	-0.759005
C75	C	-4.420859	-0.665869	-0.511080
C76	C	-4.241031	-0.682818	-0.542360
H77	H	-4.532936	-0.696486	-0.563999
H78	H	-4.420506	-0.618417	-0.522635
H79	H	-4.431102	-0.671222	-0.425394
H80	H	-4.230780	-0.677460	-0.628044
H81	H	-4.241383	-0.730282	-0.530816
C82	C	-4.493343	-0.873010	-0.285651
C83	C	-4.407487	-0.897222	-0.389539
H84	H	-4.626873	-0.900161	-0.289693
H85	H	-4.497516	-0.824828	-0.286910
H86	H	-4.413879	-0.877634	-0.209893
H87	H	-4.486944	-0.892594	-0.465297
H88	H	-4.403327	-0.945416	-0.388291
H89	H	-3.696308	-0.873059	-0.365189
H90	H	-3.496114	-0.422830	-0.368505
