data_functionalizedCrystal
_audit_creation_method	'MofGen! by Chris Wilmer'
_symmetry_space_group_name_H-M	'P1'
_symmetry_Int_Tables_number	1
_symmetry_cell_setting	triclinic
loop_
_symmetry_equiv_pos_as_xyz
  x,y,z
_cell_length_a	34.571875
_cell_length_b	34.571051
_cell_length_c	34.567439
_cell_angle_alpha	60.004367
_cell_angle_beta	60.008842
_cell_angle_gamma	59.994195
loop_
_atom_site_label
_atom_site_type_symbol
_atom_site_fract_x
_atom_site_fract_y
_atom_site_fract_z
O1	O	0.053721	-0.565181	0.472559
O2	O	0.553721	-0.065181	0.972559
O3	O	0.020283	-0.440038	0.380761
O4	O	0.520283	0.059962	0.880761
O5	O	0.099534	-0.519209	0.380676
O6	O	0.599534	-0.019209	0.880676
O7	O	-0.025530	-0.486010	0.472643
O8	O	0.474470	0.013990	0.972643
O9	O	0.125831	-0.492917	0.406885
O10	O	0.625831	0.007083	0.906885
O11	O	0.046580	-0.413746	0.406969
O12	O	0.546580	0.086254	0.906969
O13	O	0.080018	-0.538889	0.498767
O14	O	0.580018	-0.038889	0.998767
Zn15	Zn	0.067475	-0.472143	0.457030
Zn16	Zn	0.567475	0.027857	0.957030
Zn17	Zn	0.032827	-0.506784	0.422498
Zn18	Zn	0.532827	-0.006784	0.922498
O19	O	0.000767	-0.459718	0.498852
O20	O	0.500767	0.040282	0.998852
N21	N	0.091122	-0.448505	0.480598
N22	N	0.591122	0.051495	0.980598
N23	N	0.009184	-0.530426	0.398930
N24	N	0.509184	-0.030426	0.898930
C25	C	0.124402	-0.415465	0.717633
C26	C	0.624402	0.084535	1.217633
C27	C	0.328327	-0.415388	0.513477
C28	C	0.828327	0.084612	1.013477
C29	C	0.124221	-0.415437	0.513630
C30	C	0.624221	0.084563	1.013630
C31	C	0.124201	-0.211364	0.513624
C32	C	0.624201	0.288636	1.013624
C33	C	0.157075	-0.309853	0.546423
C34	C	0.657075	0.190147	1.046423
C35	C	0.157084	-0.382601	0.546423
C36	C	0.657084	0.117399	1.046423
C37	C	0.175289	-0.364414	0.564591
C38	C	0.675289	0.135586	1.064591
C39	C	0.254624	-0.350722	0.522790
C40	C	0.754624	0.149278	1.022790
C41	C	0.304220	-0.367243	0.506229
C42	C	0.804220	0.132757	1.006229
C43	C	0.304249	-0.447494	0.536832
C44	C	0.804249	0.052506	1.036832
C45	C	0.254655	-0.430972	0.553394
C46	C	0.754655	0.069028	1.053394
C47	C	0.169014	-0.285043	0.497667
C48	C	0.669014	0.214957	0.997667
C49	C	0.152454	-0.235444	0.481153
C50	C	0.652454	0.264556	0.981153
C51	C	0.112020	-0.235469	0.562154
C52	C	0.612020	0.264531	1.062154
C53	C	0.128580	-0.285068	0.578668
C54	C	0.628580	0.214932	1.078668
C55	C	0.108321	-0.370634	0.558439
C56	C	0.608321	0.129366	1.058439
C57	C	0.091776	-0.387168	0.541918
C58	C	0.591776	0.112832	1.041918
C59	C	0.172754	-0.427637	0.501375
C60	C	0.672754	0.072363	1.001375
C61	C	0.189301	-0.411103	0.517891
C62	C	0.689301	0.088897	1.017891
C63	C	0.108399	-0.370649	0.643978
C64	C	0.608399	0.129351	1.143978
C65	C	0.091911	-0.387197	0.693575
C66	C	0.591911	0.112803	1.193575
C67	C	0.172928	-0.427676	0.693511
C68	C	0.672928	0.072324	1.193511
C69	C	0.189415	-0.411128	0.643912
C70	C	0.689415	0.088872	1.143912
C71	C	0.157149	-0.382613	0.619147
C72	C	0.657149	0.117387	1.119147
C73	C	0.229844	-0.382585	0.546371
C74	C	0.729844	0.117415	1.046371
C75	C	0.105624	-0.433333	0.772186
C76	C	0.605624	0.066667	1.272186
C77	C	0.382878	-0.432925	0.495007
C78	C	0.882878	0.067075	0.995007
C79	C	0.105380	-0.433313	0.495792
C80	C	0.605380	0.066687	0.995792
C81	C	0.105683	-0.156808	0.496094
C82	C	0.605683	0.343192	0.996094
C83	C	-0.023527	-0.563458	0.161535
C84	C	0.476473	-0.063458	0.661535
C85	C	-0.023851	-0.767445	0.365663
C86	C	0.476149	-0.267445	0.865663
C87	C	-0.023821	-0.563448	0.365756
C88	C	0.476179	-0.063448	0.865756
C89	C	-0.227785	-0.563229	0.365355
C90	C	0.272215	-0.063229	0.865355
C91	C	-0.129302	-0.596153	0.332678
C92	C	0.370698	-0.096153	0.832678
C93	C	-0.056593	-0.596234	0.332823
C94	C	0.443407	-0.096234	0.832823
C95	C	-0.074746	-0.614396	0.314578
C96	C	0.425254	-0.114396	0.814578
C97	C	-0.088477	-0.693710	0.356299
C98	C	0.411523	-0.193710	0.856299
C99	C	-0.071982	-0.743310	0.372851
C100	C	0.428018	-0.243310	0.872851
C101	C	0.008266	-0.743392	0.342376
C102	C	0.508266	-0.243392	0.842376
C103	C	-0.008230	-0.693794	0.325823
C104	C	0.491770	-0.193794	0.825823
C105	C	-0.154162	-0.608103	0.381422
C106	C	0.345838	-0.108103	0.881422
C107	C	-0.203757	-0.591517	0.397874
C108	C	0.296243	-0.091517	0.897874
C109	C	-0.203630	-0.551037	0.316836
C110	C	0.296370	-0.051037	0.816836
C111	C	-0.154034	-0.567623	0.300384
C112	C	0.345966	-0.067623	0.800384
C113	C	-0.068543	-0.547475	0.320829
C114	C	0.431457	-0.047475	0.820829
C115	C	-0.052041	-0.530969	0.337421
C116	C	0.447959	-0.030969	0.837421
C117	C	-0.011639	-0.611977	0.377990
C118	C	0.488361	-0.111977	0.877990
C119	C	-0.028141	-0.628485	0.361404
C120	C	0.471859	-0.128485	0.861404
C121	C	-0.068417	-0.547482	0.235199
C122	C	0.431583	-0.047482	0.735199
C123	C	-0.051814	-0.530977	0.185602
C124	C	0.448186	-0.030977	0.685602
C125	C	-0.011349	-0.611990	0.185649
C126	C	0.488651	-0.111990	0.685649
C127	C	-0.027951	-0.628493	0.235248
C128	C	0.472049	-0.128493	0.735248
C129	C	-0.056486	-0.596238	0.260022
C130	C	0.443514	-0.096238	0.760022
C131	C	-0.056602	-0.668955	0.332787
C132	C	0.443398	-0.168955	0.832787
C133	C	-0.005599	-0.544662	0.106983
C134	C	0.494401	-0.044662	0.606983
C135	C	-0.006342	-0.821999	0.384121
C136	C	0.493658	-0.321999	0.884121
C137	C	-0.005979	-0.544649	0.383673
C138	C	0.494021	-0.044649	0.883673
C139	C	-0.282336	-0.544682	0.382817
C140	C	0.217664	-0.044682	0.882817
N141	N	0.427518	-0.448428	0.480350
N142	N	0.927518	0.051572	0.980350
O143	O	0.589573	-0.456297	0.363634
O144	O	1.089573	0.043703	0.863634
O145	O	0.589761	-0.548399	0.488643
O146	O	1.089761	-0.048399	0.988643
O147	O	0.589681	-0.548188	0.409364
O148	O	1.089681	-0.048188	0.909364
O149	O	0.589654	-0.456508	0.442913
O150	O	1.089654	0.043492	0.942913
O151	O	0.510890	-0.521988	0.435708
O152	O	1.010890	-0.021988	0.935708
O153	O	0.510970	-0.522199	0.514987
O154	O	1.010970	-0.022199	1.014987
O155	O	0.510782	-0.430098	0.389978
O156	O	1.010782	0.069902	0.889978
Zn157	Zn	0.498366	-0.471989	0.456665
Zn158	Zn	0.998366	0.028011	0.956665
Zn159	Zn	0.602177	-0.506508	0.421956
Zn160	Zn	1.102177	-0.006508	0.921956
O161	O	0.510862	-0.430308	0.469257
O162	O	1.010862	0.069692	0.969257
N163	N	0.673025	-0.530068	0.398267
N164	N	1.173025	-0.030068	0.898267
N165	N	0.091092	-0.112167	0.480590
N166	N	0.591092	0.387833	0.980590
O167	O	-0.025539	0.049976	0.472612
O168	O	0.474461	0.549976	0.972612
O169	O	0.099472	0.050011	0.380491
O170	O	0.599472	0.550011	0.880491
O171	O	0.020155	0.049979	0.380751
O172	O	0.520155	0.549979	0.880751
O173	O	0.053778	0.050009	0.472352
O174	O	0.553778	0.550009	0.972352
O175	O	0.046458	-0.028818	0.407008
O176	O	0.546458	0.471182	0.907008
O177	O	0.125775	-0.028785	0.406748
O178	O	0.625775	0.471215	0.906748
O179	O	0.000764	-0.028821	0.498869
O180	O	0.500764	0.471179	0.998869
Zn181	Zn	0.067445	-0.041314	0.456977
Zn182	Zn	0.567445	0.458686	0.956977
Zn183	Zn	0.032791	0.062504	0.422382
Zn184	Zn	0.532791	0.562504	0.922382
O185	O	0.080081	-0.028788	0.498609
O186	O	0.580081	0.471212	0.998609
N187	N	0.009138	0.133358	0.398771
N188	N	0.509138	0.633358	0.898771
N189	N	0.091421	-0.448552	0.816827
N190	N	0.591421	0.051448	1.316827
O191	O	0.083469	-0.565164	0.978960
O192	O	0.583469	-0.065164	1.478960
O193	O	-0.008614	-0.440110	0.979002
O194	O	0.491386	0.059890	1.479002
O195	O	-0.008399	-0.519410	0.978978
O196	O	0.491601	-0.019410	1.478978
O197	O	0.083253	-0.485863	0.978984
O198	O	0.583253	0.014137	1.478984
O199	O	0.017837	-0.493128	0.900185
O200	O	0.517837	0.006872	1.400185
O201	O	0.017621	-0.413827	0.900208
O202	O	0.517621	0.086173	1.400208
O203	O	0.109704	-0.538881	0.900167
O204	O	0.609704	-0.038881	1.400167
Zn205	Zn	0.067828	-0.472181	0.887677
Zn206	Zn	0.567828	0.027819	1.387677
Zn207	Zn	0.033262	-0.506810	0.991491
Zn208	Zn	0.533262	-0.006810	1.491491
O209	O	0.109489	-0.459581	0.900191
O210	O	0.609489	0.040419	1.400191
N211	N	0.009668	-0.530444	1.062341
N212	N	0.509668	-0.030444	1.562341
C213	C	0.030297	-0.411123	0.381218
C214	C	0.530297	0.088877	0.881218
C215	C	0.128439	-0.509167	0.381113
C216	C	0.628439	-0.009167	0.881113
C217	C	0.070004	-0.567805	0.498310
C218	C	0.570004	-0.067805	0.998310
C219	C	-0.028138	-0.469761	0.498415
C220	C	0.471862	0.030239	0.998415
C221	C	0.550388	-0.547982	0.517564
C222	C	1.050388	-0.047982	1.017564
C223	C	0.550290	-0.547721	0.419387
C224	C	1.050290	-0.047721	0.919387
C225	C	0.550153	-0.430514	0.361058
C226	C	1.050153	0.069486	0.861058
C227	C	0.550253	-0.430775	0.459234
C228	C	1.050253	0.069225	0.959234
C229	C	0.128339	0.010714	0.380902
C230	C	0.628339	0.510714	0.880902
C231	C	0.030148	0.010577	0.381256
C232	C	0.530148	0.510577	0.881256
C233	C	-0.028136	0.010574	0.498426
C234	C	0.471864	0.510574	0.998426
C235	C	0.070089	0.010613	0.498104
C236	C	0.570089	0.510613	0.998104
C237	C	-0.008178	-0.411214	0.939610
C238	C	0.491822	0.088786	1.439610
C239	C	-0.007906	-0.509413	0.939566
C240	C	0.492094	-0.009413	1.439566
C241	C	0.109268	-0.567777	0.939558
C242	C	0.609268	-0.067777	1.439558
C243	C	0.109002	-0.469572	0.939586
C244	C	0.609002	0.030428	1.439586
H245	H	0.052212	-0.377448	0.713786
H246	H	0.552212	0.122552	1.213786
H247	H	-0.064037	0.010563	0.527345
H248	H	0.435963	0.510563	1.027345
H249	H	-0.037087	-0.375298	0.939623
H250	H	0.462913	0.124702	1.439623
H251	H	0.137795	-0.462392	0.939581
H252	H	0.637795	0.037608	1.439581
O253	O	0.550534	-0.582491	0.560375
O254	O	1.050534	-0.082491	1.060375
C255	C	0.591429	-0.632538	0.617392
C256	C	1.091429	-0.132538	1.117392
C257	C	0.591327	-0.593464	0.568895
C258	C	1.091327	-0.093464	1.068895
H259	H	0.624402	-0.641415	0.624300
H260	H	1.124402	-0.141415	1.124300
H261	H	0.591481	-0.665577	0.617463
H262	H	1.091481	-0.165577	1.117463
H263	H	0.558455	-0.619524	0.646331
H264	H	1.058455	-0.119524	1.146331
H265	H	0.624296	-0.606434	0.539929
H266	H	1.124296	-0.106434	1.039929
H267	H	0.591251	-0.560434	0.568864
H268	H	1.091251	-0.060434	1.068864
O269	O	-0.042184	-0.518030	0.939502
O270	O	0.457816	-0.018030	1.439502
C271	C	-0.063839	-0.574305	0.939456
C272	C	0.436161	-0.074305	1.439456
C273	C	-0.024973	-0.564606	0.939516
C274	C	0.475027	-0.064606	1.439516
H275	H	-0.049941	-0.611965	0.939477
H276	H	0.450059	-0.111965	1.439477
H277	H	-0.074180	-0.548093	0.906467
H278	H	0.425820	-0.048093	1.406467
H279	H	-0.096185	-0.570045	0.972417
H280	H	0.403815	-0.070045	1.472417
H281	H	0.007398	-0.568873	0.906578
H282	H	0.507398	-0.068873	1.406578
H283	H	-0.014672	-0.590817	0.972527
H284	H	0.485328	-0.090817	1.472527
O285	O	0.550000	-0.395971	0.318266
O286	O	1.050000	0.104029	0.818266
C287	C	0.509091	-0.316956	0.276025
C288	C	1.009091	0.183044	0.776025
C289	C	0.509200	-0.356039	0.324516
C290	C	1.009200	0.143961	0.824516
H291	H	0.476113	-0.284657	0.281063
H292	H	0.976113	0.215343	0.781063
H293	H	0.509045	-0.330651	0.252128
H294	H	1.009045	0.169349	0.752128
H295	H	0.542060	-0.306616	0.258987
H296	H	1.042060	0.193384	0.758987
H297	H	0.476237	-0.366396	0.341595
H298	H	0.976237	0.133604	0.841595
H299	H	0.509271	-0.342322	0.348380
H300	H	1.009271	0.157678	0.848380
O301	O	0.550180	-0.396356	0.467757
O302	O	1.050180	0.103644	0.967757
C303	C	0.509302	-0.317486	0.472264
C304	C	1.009302	0.182514	0.972264
C305	C	0.509329	-0.356420	0.462590
C306	C	1.009329	0.143580	0.962590
H307	H	0.476272	-0.285192	0.468099
H308	H	0.976272	0.214808	0.968099
H309	H	0.542225	-0.307061	0.446001
H310	H	1.042225	0.192939	0.946001
H311	H	0.509374	-0.331399	0.509891
H312	H	1.009374	0.168601	1.009891
H313	H	0.509240	-0.342541	0.424976
H314	H	1.009240	0.157459	0.924976
H315	H	0.476409	-0.366839	0.488882
H316	H	0.976409	0.133161	0.988882
H317	H	-0.064060	-0.462687	0.527292
H318	H	0.435940	0.037313	1.027292
H319	H	0.138179	-0.603691	0.939539
H320	H	0.638179	-0.103691	1.439539
O321	O	0.021575	0.010474	0.346964
O322	O	0.521575	0.510474	0.846964
C323	C	0.000696	-0.030377	0.324409
C324	C	0.500696	0.469623	0.824409
C325	C	0.010397	-0.030318	0.363281
C326	C	0.510397	0.469682	0.863281
H327	H	-0.008353	-0.063348	0.337591
H328	H	0.491647	0.436652	0.837591
H329	H	0.033543	-0.030404	0.291311
H330	H	0.533543	0.469596	0.791311
H331	H	-0.030318	0.002603	0.315559
H332	H	0.469682	0.502603	0.815559
H333	H	0.041395	-0.063291	0.372172
H334	H	0.541395	0.436709	0.872172
H335	H	-0.022474	-0.030265	0.396355
H336	H	0.477526	0.469735	0.896355
H337	H	0.164166	0.010943	0.351910
H338	H	0.664166	0.510943	0.851910
O339	O	0.550282	-0.582023	0.410755
O340	O	1.050282	-0.082023	0.910755
C341	C	0.550267	-0.603706	0.354474
C342	C	1.050267	-0.103706	0.854474
C343	C	0.550265	-0.564814	0.364189
C344	C	1.050265	-0.064814	0.864189
H345	H	0.550263	-0.589811	0.316823
H346	H	1.050263	-0.089811	0.816823
H347	H	0.517313	-0.614090	0.380696
H348	H	1.017313	-0.114090	0.880696
H349	H	0.583262	-0.636027	0.358703
H350	H	1.083262	-0.136027	0.858703
H351	H	0.517293	-0.532469	0.359954
H352	H	1.017293	-0.032469	0.859954
H353	H	0.583240	-0.554471	0.337968
H354	H	1.083240	-0.054471	0.837968
O355	O	0.078726	0.010531	0.532456
O356	O	0.578726	0.510531	1.032456
C357	C	0.126868	-0.030272	0.582216
C358	C	0.626868	0.469728	1.082216
C359	C	0.117132	-0.030240	0.543317
C360	C	0.617132	0.469760	1.043317
H361	H	0.157926	-0.063226	0.591002
H362	H	0.657926	0.436774	1.091002
H363	H	0.094047	-0.030313	0.615339
H364	H	0.594047	0.469687	1.115339
H365	H	0.135860	0.002725	0.569076
H366	H	0.635860	0.502725	1.069076
H367	H	0.108152	-0.063231	0.556412
H368	H	0.608152	0.436769	1.056412
H369	H	0.149961	-0.030174	0.510201
H370	H	0.649961	0.469826	1.010201
O371	O	0.076990	-0.342971	0.619994
O372	O	0.576990	0.157029	1.119994
C373	C	-0.005108	-0.304543	0.625293
C374	C	0.494892	0.195457	1.125293
C375	C	0.030407	-0.335898	0.652513
C376	C	0.530407	0.164102	1.152513
H377	H	-0.042778	-0.298806	0.651573
H378	H	0.457222	0.201194	1.151573
H379	H	0.000551	-0.322705	0.602089
H380	H	0.500551	0.177295	1.102089
H381	H	0.000613	-0.268873	0.602060
H382	H	0.500613	0.231127	1.102060
H383	H	0.024707	-0.371572	0.675771
H384	H	0.524707	0.128428	1.175771
H385	H	0.024739	-0.317698	0.675687
H386	H	0.524739	0.182302	1.175687
O387	O	0.044403	-0.375605	0.553671
O388	O	0.544403	0.124395	1.053671
C389	C	-0.029840	-0.379403	0.616594
C390	C	0.470160	0.120597	1.116594
C391	C	0.023803	-0.392536	0.603350
C392	C	0.523803	0.107464	1.103350
H393	H	-0.046513	-0.393077	0.656760
H394	H	0.453487	0.106923	1.156760
H395	H	-0.036156	-0.396132	0.599921
H396	H	0.463844	0.103868	1.099921
H397	H	-0.046571	-0.339242	0.602902
H398	H	0.453429	0.160758	1.102902
H399	H	0.040569	-0.432689	0.617039
H400	H	0.540569	0.067311	1.117039
H401	H	0.030085	-0.375773	0.620016
H402	H	0.530085	0.124227	1.120016
O403	O	0.204290	-0.455434	0.717543
O404	O	0.704290	0.044566	1.217543
C405	C	0.268522	-0.528404	0.732635
C406	C	0.768522	-0.028404	1.232635
C407	C	0.233021	-0.497020	0.705398
C408	C	0.733021	0.002980	1.205398
H409	H	0.291766	-0.562029	0.722819
H410	H	0.791766	-0.062029	1.222819
H411	H	0.248393	-0.538218	0.772354
H412	H	0.748393	-0.038218	1.272354
H413	H	0.291712	-0.508180	0.722870
H414	H	0.791712	-0.008180	1.222870
H415	H	0.209822	-0.517215	0.715124
H416	H	0.709822	-0.017215	1.215124
H417	H	0.253179	-0.487204	0.665685
H418	H	0.753179	0.012796	1.165685
O419	O	0.204115	-0.455304	0.473651
O420	O	0.704115	0.044696	0.973651
C421	C	0.286185	-0.493724	0.435208
C422	C	0.786185	0.006276	0.935208
C423	C	0.250719	-0.462380	0.466602
C424	C	0.750719	0.037620	0.966602
H425	H	0.323872	-0.499463	0.429508
H426	H	0.823872	0.000537	0.929508
H427	H	0.280474	-0.475552	0.399525
H428	H	0.780474	0.024448	0.899525
H429	H	0.280460	-0.529393	0.453380
H430	H	0.780460	-0.029393	0.953380
H431	H	0.256422	-0.426705	0.448472
H432	H	0.756422	0.073295	0.948472
H433	H	0.256439	-0.480589	0.502283
H434	H	0.756439	0.019411	1.002283
H435	H	0.082085	-0.347427	0.581670
H436	H	0.582085	0.152573	1.081670
O437	O	0.230655	-0.461987	0.576272
O438	O	0.730655	0.038013	1.076272
C439	C	0.235920	-0.543333	0.604899
C440	C	0.735920	-0.043333	1.104899
C441	C	0.263158	-0.508259	0.578972
C442	C	0.763158	-0.008259	1.078972
H443	H	0.262187	-0.580753	0.607099
H444	H	0.762187	-0.080753	1.107099
H445	H	0.212689	-0.533415	0.584642
H446	H	0.712689	-0.033415	1.084642
H447	H	0.212715	-0.541798	0.642184
H448	H	0.712715	-0.041798	1.142184
H449	H	0.286389	-0.509776	0.541687
H450	H	0.786389	-0.009776	1.041687
H451	H	0.286360	-0.518189	0.599265
H452	H	0.786360	-0.018189	1.099265
H453	H	0.023152	-0.375173	0.352387
H454	H	0.523152	0.124827	0.852387
H455	H	0.229008	-0.420842	0.508101
H456	H	0.729008	0.079158	1.008101
O457	O	0.328428	-0.494480	0.543592
O458	O	0.828428	0.005520	1.043592
C459	C	0.404847	-0.555501	0.531666
C460	C	0.904847	-0.055501	1.031666
C461	C	0.377526	-0.502278	0.523966
C462	C	0.877526	-0.002278	1.023966
H463	H	0.444548	-0.561824	0.515811
H464	H	0.944548	-0.061824	1.015811
H465	H	0.395115	-0.567837	0.513675
H466	H	0.895115	-0.067837	1.013675
H467	H	0.395100	-0.576251	0.571247
H468	H	0.895100	-0.076251	1.071247
H469	H	0.387258	-0.481491	0.484396
H470	H	0.887258	0.018509	0.984396
H471	H	0.387260	-0.489980	0.541988
H472	H	0.887260	0.010020	1.041988
O473	O	0.328220	-0.336224	0.483312
O474	O	0.828220	0.163776	0.983312
C475	C	0.322959	-0.254886	0.454728
C476	C	0.822959	0.245114	0.954728
C477	C	0.295719	-0.289961	0.480679
C478	C	0.795719	0.210039	0.980679
H479	H	0.296693	-0.217476	0.452599
H480	H	0.796693	0.282524	0.952599
H481	H	0.346140	-0.256359	0.417419
H482	H	0.846140	0.243641	0.917419
H483	H	0.346214	-0.264863	0.474984
H484	H	0.846214	0.235137	0.974984
H485	H	0.272437	-0.280007	0.460462
H486	H	0.772437	0.219993	0.960462
H487	H	0.272567	-0.288482	0.517990
H488	H	0.772567	0.211518	1.017990
O489	O	0.078446	-0.610693	0.532725
O490	O	0.578446	-0.110693	1.032725
C491	C	0.055606	-0.680362	0.584460
C492	C	0.555606	-0.180362	1.084460
C493	C	0.045987	-0.631796	0.545495
C494	C	0.545987	-0.131796	1.045495
H495	H	0.029374	-0.697443	0.594789
H496	H	0.529374	-0.197443	1.094789
H497	H	0.051341	-0.675460	0.616798
H498	H	0.551341	-0.175460	1.116798
H499	H	0.093251	-0.704154	0.570612
H500	H	0.593251	-0.204154	1.070612
H501	H	0.008344	-0.607980	0.559298
H502	H	0.508344	-0.107980	1.059298
H503	H	0.050282	-0.636734	0.513165
H504	H	0.550282	-0.136734	1.013165
H505	H	0.229113	-0.420876	0.623698
H506	H	0.729113	0.079124	1.123698
H507	H	0.234427	-0.311322	0.517070
H508	H	0.734427	0.188678	1.017070
H509	H	0.192214	-0.305222	0.471410
H510	H	0.692214	0.194778	0.971410
H511	H	0.162174	-0.215242	0.441450
H512	H	0.662174	0.284758	0.941450
H513	H	0.088825	-0.215289	0.588411
H514	H	0.588825	0.284711	1.088411
O515	O	0.171292	-0.517526	0.346642
O516	O	0.671292	-0.017526	0.846642
C517	C	0.240877	-0.494556	0.294849
C518	C	0.740877	0.005444	0.794849
C519	C	0.192352	-0.485031	0.333878
C520	C	0.692352	0.014969	0.833878
H521	H	0.257922	-0.468297	0.284524
H522	H	0.757922	0.031703	0.784524
H523	H	0.235926	-0.490257	0.262523
H524	H	0.735926	0.009743	0.762523
H525	H	0.264723	-0.532195	0.308630
H526	H	0.764723	-0.032195	0.808630
H527	H	0.168481	-0.447395	0.320141
H528	H	0.668481	0.052605	0.820141
H529	H	0.197339	-0.489362	0.366195
H530	H	0.697339	0.010638	0.866195
O531	O	0.116956	-0.309099	0.626048
O532	O	0.616956	0.190901	1.126048
C533	C	0.075078	-0.303893	0.704649
C534	C	0.575078	0.196107	1.204649
C535	C	0.088216	-0.276620	0.651006
C536	C	0.588216	0.223380	1.151006
H537	H	0.051831	-0.277646	0.724843
H538	H	0.551831	0.222354	1.224843
H539	H	0.108735	-0.327094	0.714414
H540	H	0.608735	0.172906	1.214414
H541	H	0.054914	-0.327135	0.714403
H542	H	0.554914	0.172865	1.214403
H543	H	0.108368	-0.253353	0.641214
H544	H	0.608368	0.246647	1.141214
H545	H	0.054542	-0.253449	0.641270
H546	H	0.554542	0.246551	1.141270
H547	H	-0.091654	-0.521212	0.255368
H548	H	0.408346	-0.021212	0.755368
O549	O	-0.063473	-0.483597	0.161568
O550	O	0.436527	0.016403	0.661568
C551	C	-0.105347	-0.404987	0.166760
C552	C	0.394653	0.095013	0.666760
C553	C	-0.092189	-0.458631	0.194039
C554	C	0.407811	0.041369	0.694039
H555	H	-0.128557	-0.384786	0.193002
H556	H	0.371443	0.115214	0.693002
H557	H	-0.125524	-0.395182	0.143500
H558	H	0.374476	0.104818	0.643500
H559	H	-0.071668	-0.395278	0.143579
H560	H	0.428332	0.104722	0.643579
H561	H	-0.125843	-0.468378	0.217247
H562	H	0.374157	0.031622	0.717247
H563	H	-0.071994	-0.468406	0.217270
H564	H	0.428006	0.031594	0.717270
H565	H	-0.018232	-0.668197	0.255455
H566	H	0.481768	-0.168197	0.755455
O567	O	0.016374	-0.643388	0.161660
O568	O	0.516374	-0.143388	0.661660
C569	C	0.054723	-0.725486	0.166949
C570	C	0.554723	-0.225486	0.666949
C571	C	0.023331	-0.689978	0.194174
C572	C	0.523331	-0.189978	0.694174
H573	H	0.060349	-0.763161	0.193224
H574	H	0.560349	-0.263161	0.693224
H575	H	0.090438	-0.719854	0.143796
H576	H	0.590438	-0.219854	0.643796
H577	H	0.036592	-0.719725	0.143664
H578	H	0.536592	-0.219725	0.643664
H579	H	0.041419	-0.695718	0.217485
H580	H	0.541419	-0.195718	0.717485
H581	H	-0.012382	-0.695619	0.217297
H582	H	0.487618	-0.195619	0.717297
H583	H	-0.091707	-0.521211	0.297556
H584	H	0.408293	-0.021211	0.797556
H585	H	-0.061773	-0.491265	0.327657
H586	H	0.438227	0.008735	0.827657
H587	H	-0.018411	-0.668189	0.371171
H588	H	0.481589	-0.168189	0.871171
O589	O	0.016050	-0.643353	0.405694
O590	O	0.516050	-0.143353	0.905694
C591	C	0.089009	-0.707561	0.412141
C592	C	0.589009	-0.207561	0.912141
C593	C	0.057694	-0.672060	0.380719
C594	C	0.557694	-0.172060	0.880719
H595	H	0.122689	-0.730773	0.391957
H596	H	0.622689	-0.230773	0.891957
H597	H	0.068806	-0.730786	0.445768
H598	H	0.568806	-0.230786	0.945768
H599	H	0.098727	-0.687380	0.421953
H600	H	0.598727	-0.187380	0.921953
H601	H	0.047967	-0.692202	0.370871
H602	H	0.547967	-0.192202	0.870871
H603	H	0.077914	-0.648836	0.347115
H604	H	0.577914	-0.148836	0.847115
O605	O	0.022796	-0.669818	0.303011
O606	O	0.522796	-0.169818	0.803011
C607	C	0.104137	-0.675136	0.274506
C608	C	0.604137	-0.175136	0.774506
C609	C	0.069050	-0.702346	0.300360
C610	C	0.569050	-0.202346	0.800360
H611	H	0.141542	-0.701423	0.272346
H612	H	0.641542	-0.201423	0.772346
H613	H	0.094197	-0.651923	0.294792
H614	H	0.594197	-0.151923	0.794792
H615	H	0.102648	-0.651911	0.237207
H616	H	0.602648	-0.151911	0.737207
H617	H	0.070521	-0.725597	0.337660
H618	H	0.570521	-0.225597	0.837660
H619	H	0.079002	-0.725529	0.280038
H620	H	0.579002	-0.225529	0.780038
O621	O	0.055238	-0.767597	0.335674
O622	O	0.555238	-0.267597	0.835674
C623	C	0.116218	-0.844045	0.347645
C624	C	0.616218	-0.344045	0.847645
C625	C	0.063011	-0.816693	0.355278
C626	C	0.563011	-0.316693	0.855278
H627	H	0.122521	-0.883744	0.363481
H628	H	0.622521	-0.383744	0.863481
H629	H	0.128521	-0.834345	0.365692
H630	H	0.628521	-0.334345	0.865692
H631	H	0.137008	-0.834291	0.308075
H632	H	0.637008	-0.334291	0.808075
H633	H	0.042183	-0.826432	0.394837
H634	H	0.542183	-0.326432	0.894837
H635	H	0.050745	-0.826395	0.337199
H636	H	0.550745	-0.326395	0.837199
O637	O	-0.103020	-0.767285	0.395756
O638	O	0.396980	-0.267285	0.895756
C639	C	-0.184371	-0.761971	0.424343
C640	C	0.315629	-0.261971	0.924343
C641	C	-0.149268	-0.734759	0.398369
C642	C	0.350732	-0.234759	0.898369
H643	H	-0.221770	-0.735685	0.426455
H644	H	0.278230	-0.235685	0.926455
H645	H	-0.182904	-0.785139	0.461658
H646	H	0.317096	-0.285139	0.961658
H647	H	-0.174417	-0.785241	0.404112
H648	H	0.325583	-0.285241	0.904112
H649	H	-0.159198	-0.711463	0.418560
H650	H	0.340802	-0.211463	0.918560
H651	H	-0.150741	-0.711621	0.361051
H652	H	0.349259	-0.211621	0.861051
H653	H	-0.134026	-0.631339	0.407719
H654	H	0.365974	-0.131339	0.907719
O655	O	-0.227836	-0.603188	0.445243
O656	O	0.272164	-0.103188	0.945243
C657	C	-0.222731	-0.645075	0.523888
C658	C	0.277269	-0.145075	1.023888
C659	C	-0.195404	-0.631898	0.470258
C660	C	0.304596	-0.131898	0.970258
H661	H	-0.196522	-0.668281	0.544128
H662	H	0.303478	-0.168281	1.044128
H663	H	-0.245942	-0.665265	0.533624
H664	H	0.254058	-0.165265	1.033624
H665	H	-0.245966	-0.611400	0.533615
H666	H	0.254034	-0.111400	1.033615
H667	H	-0.172144	-0.665548	0.460492
H668	H	0.327856	-0.165548	0.960492
H669	H	-0.172224	-0.611690	0.460551
H670	H	0.327776	-0.111690	0.960551
O671	O	-0.227585	-0.523315	0.285403
O672	O	0.272415	-0.023315	0.785403
C673	C	-0.222227	-0.484953	0.203287
C674	C	0.277773	0.015047	0.703287
C675	C	-0.195040	-0.516342	0.238833
C676	C	0.304960	-0.016342	0.738833
H677	H	-0.195926	-0.479314	0.165627
H678	H	0.304074	0.020686	0.665627
H679	H	-0.245422	-0.449241	0.208935
H680	H	0.254578	0.050759	0.708935
H681	H	-0.245463	-0.503095	0.208989
H682	H	0.254537	-0.003095	0.708989
H683	H	-0.171778	-0.498242	0.233153
H684	H	0.328222	0.001758	0.733153
H685	H	-0.171875	-0.552053	0.233175
H686	H	0.328125	-0.052053	0.733175
O687	O	-0.135445	-0.669525	0.362972
O688	O	0.364555	-0.169525	0.862972
C689	C	-0.195362	-0.613501	0.326302
C690	C	0.304638	-0.113501	0.826302
C691	C	-0.142157	-0.640857	0.318682
C692	C	0.357843	-0.140857	0.818682
H693	H	-0.200807	-0.590323	0.290500
H694	H	0.299193	-0.090323	0.790500
H695	H	-0.209362	-0.590237	0.348082
H696	H	0.290638	-0.090237	0.848082
H697	H	-0.215309	-0.639719	0.345970
H698	H	0.284691	-0.139719	0.845970
H699	H	-0.122171	-0.614673	0.299002
H700	H	0.377829	-0.114673	0.799002
H701	H	-0.128194	-0.664128	0.296921
H702	H	0.371806	-0.164128	0.796921
H703	H	-0.133793	-0.557888	0.260690
H704	H	0.366207	-0.057888	0.760690
