data_functionalizedCrystal
_audit_creation_method	'MofGen! by Chris Wilmer'
_symmetry_space_group_name_H-M	'P1'
_symmetry_Int_Tables_number	1
_symmetry_cell_setting	triclinic
loop_
_symmetry_equiv_pos_as_xyz
  x,y,z
_cell_length_a	29.839125
_cell_length_b	17.639874
_cell_length_c	17.640280
_cell_angle_alpha	92.181642
_cell_angle_beta	101.210223
_cell_angle_gamma	78.821096
loop_
_atom_site_label
_atom_site_type_symbol
_atom_site_fract_x
_atom_site_fract_y
_atom_site_fract_z
Zn1	Zn	-0.106112	-1.221960	0.067470
Zn2	Zn	0.393888	-0.721960	0.567470
Zn3	Zn	-0.013478	-1.247576	0.194427
Zn4	Zn	0.486522	-0.747576	0.694427
Zn5	Zn	-0.042609	-1.094998	0.093158
Zn6	Zn	0.457391	-0.594998	0.593158
Zn7	Zn	-0.100193	-1.120639	0.220101
Zn8	Zn	0.399807	-0.620639	0.720101
O9	O	-0.065598	-1.171293	0.143789
O10	O	0.434402	-0.671293	0.643789
O11	O	-0.084110	-1.331615	0.062816
O12	O	0.415890	-0.831615	0.562816
O13	O	0.045524	-1.227326	0.180999
O14	O	0.545524	-0.727326	0.680999
O15	O	-0.065702	-1.090389	-0.016508
O16	O	0.434298	-0.590389	0.483492
O17	O	-0.016052	-1.350436	0.156091
O18	O	0.483948	-0.850436	0.656091
O19	O	-0.112357	-1.183667	-0.035380
O20	O	0.387643	-0.683667	0.464620
O21	O	0.024121	-1.115228	0.106597
O22	O	0.524121	-0.615228	0.606597
O23	O	-0.059962	-0.992142	0.131492
O24	O	0.440038	-0.492142	0.631492
O25	O	-0.163845	-1.134090	0.199848
O26	O	0.336155	-0.634090	0.699848
O27	O	-0.102269	-1.010981	0.224756
O28	O	0.397731	-0.510981	0.724756
O29	O	-0.168194	-1.208530	0.087711
O30	O	0.331806	-0.708530	0.587711
O31	O	-0.010312	-1.252189	0.304091
O32	O	0.489688	-0.752189	0.804091
O33	O	-0.074021	-1.158929	0.322953
O34	O	0.425979	-0.658929	0.822953
C35	C	-0.083635	-0.974010	0.183698
C36	C	0.416365	-0.474010	0.683698
C37	C	-0.091359	-0.889615	0.200790
C38	C	0.408641	-0.389615	0.700790
C39	C	-0.006907	-0.562834	0.013885
C40	C	0.493093	-0.062834	0.513885
C41	C	-0.014169	-0.483536	0.029960
C42	C	0.485831	0.016464	0.529960
C43	C	-0.058106	-0.503234	0.127210
C44	C	0.441894	-0.003234	0.627210
C45	C	-0.050849	-0.582535	0.111140
C46	C	0.449151	-0.082535	0.611140
C47	C	-0.025249	-0.612329	0.054477
C48	C	0.474751	-0.112329	0.554477
C49	C	-0.069191	-0.632030	0.151733
C50	C	0.430809	-0.132030	0.651733
C51	C	-0.061933	-0.711325	0.135667
C52	C	0.438067	-0.211325	0.635667
C53	C	-0.036333	-0.741125	0.079008
C54	C	0.463667	-0.241125	0.579008
C55	C	-0.017991	-0.691624	0.038411
C56	C	0.482009	-0.191624	0.538411
C57	C	-0.094788	-0.602235	0.208399
C58	C	0.405212	-0.102235	0.708399
C59	C	-0.113130	-0.651729	0.248992
C60	C	0.386870	-0.151729	0.748992
C61	C	-0.105875	-0.731025	0.232922
C62	C	0.394125	-0.231025	0.732922
C63	C	-0.080275	-0.760826	0.176263
C64	C	0.419725	-0.260826	0.676263
C65	C	-0.124217	-0.780526	0.273519
C66	C	0.375783	-0.280526	0.773519
C67	C	-0.116959	-0.859821	0.257453
C68	C	0.383041	-0.359821	0.757453
C69	C	-0.073017	-0.840121	0.160197
C70	C	0.426983	-0.340121	0.660197
C71	C	-0.182776	-1.171313	0.143778
C72	C	0.317224	-0.671313	0.643778
C73	C	-0.232710	-1.171321	0.143773
C74	C	0.267290	-0.671321	0.643773
C75	C	-0.544634	-1.210107	0.085246
C76	C	-0.044634	-0.710107	0.585246
C77	C	-0.732312	-1.210131	0.085174
C78	C	-0.232312	-0.710131	0.585174
O79	O	-0.758511	-1.243067	0.035495
O80	O	-0.258511	-0.743067	0.535495
N81	N	-0.753514	-1.171380	0.143550
N82	N	-0.253514	-0.671380	0.643550
C83	C	-0.727794	-1.132616	0.201945
C84	C	-0.227794	-0.632616	0.701945
O85	O	-0.750135	-1.099650	0.251591
O86	O	-0.250135	-0.599650	0.751591
C87	C	-0.540117	-1.132587	0.202014
C88	C	-0.040117	-0.632587	0.702014
C89	C	-0.518916	-1.171348	0.143638
C90	C	-0.018916	-0.671348	0.643638
C91	C	-0.523433	-1.248863	0.026875
C92	C	-0.023433	-0.748863	0.526875
C93	C	-0.476515	-1.248860	0.026896
C94	C	0.023485	-0.748860	0.526896
C95	C	-0.450798	-1.210101	0.085288
C96	C	0.049202	-0.710101	0.585288
C97	C	-0.471999	-1.171345	0.143659
C98	C	0.028001	-0.671345	0.643659
C99	C	-0.514399	-1.093819	0.260405
C100	C	-0.014399	-0.593819	0.760405
C101	C	-0.467477	-1.093814	0.260416
C102	C	0.032523	-0.593814	0.760416
C103	C	-0.446276	-1.132574	0.202041
C104	C	0.053724	-0.632574	0.702041
C105	C	-0.399364	-1.132582	0.202072
C106	C	0.100636	-0.632582	0.702072
N107	N	-0.378163	-1.171333	0.143696
N108	N	0.121837	-0.671333	0.643696
C109	C	-0.403880	-1.210093	0.085304
C110	C	0.096120	-0.710093	0.585304
C111	C	-0.826327	-1.132635	0.201906
C112	C	-0.326327	-0.632635	0.701906
C113	C	-0.873245	-1.132643	0.201889
C114	C	-0.373245	-0.632643	0.701889
C115	C	-0.877761	-1.210158	0.085117
C116	C	-0.377761	-0.710158	0.585117
C117	C	-0.830840	-1.210154	0.085137
C118	C	-0.330840	-0.710154	0.585137
C119	C	-0.805125	-1.171386	0.143530
C120	C	-0.305125	-0.671386	0.643530
C121	C	-0.305349	-1.210084	0.085353
C122	C	0.194651	-0.710084	0.585353
C123	C	-0.258427	-1.210080	0.085381
C124	C	0.241573	-0.710080	0.585381
C125	C	-0.253916	-1.132563	0.202151
C126	C	0.246084	-0.632563	0.702151
C127	C	-0.300834	-1.132570	0.202126
C128	C	0.199166	-0.632570	0.702126
C129	C	-0.326550	-1.171332	0.143720
C130	C	0.173450	-0.671332	0.643720
O131	O	-0.373139	-1.099657	0.251720
O132	O	0.126861	-0.599657	0.751720
O133	O	-0.381533	-1.243040	0.035656
O134	O	0.118467	-0.743040	0.535656
C135	C	-0.591551	-1.210110	0.085225
C136	C	-0.091551	-0.710110	0.585225
C137	C	-0.612752	-1.171354	0.143596
C138	C	-0.112752	-0.671354	0.643596
C139	C	-0.587035	-1.132594	0.201988
C140	C	-0.087035	-0.632594	0.701988
C141	C	-0.659670	-1.171362	0.143580
C142	C	-0.159670	-0.671362	0.643580
C143	C	-0.685387	-1.210121	0.085188
C144	C	-0.185387	-0.710121	0.585188
C145	C	-0.664186	-1.248872	0.026812
C146	C	-0.164186	-0.748872	0.526812
C147	C	-0.617268	-1.248869	0.026833
C148	C	-0.117268	-0.748869	0.526833
C149	C	-0.608236	-1.093843	0.260364
C150	C	-0.108236	-0.593843	0.760364
C151	C	-0.655154	-1.093850	0.260339
C152	C	-0.155154	-0.593850	0.760339
C153	C	-0.680871	-1.132609	0.201947
C154	C	-0.180871	-0.632609	0.701947
C155	C	0.051120	-1.171307	0.143736
C156	C	0.551120	-0.671307	0.643736
C157	C	0.101037	-1.171403	0.143497
C158	C	0.601037	-0.671403	0.643497
C159	C	-0.038371	-1.211142	0.341069
C160	C	0.461629	-0.711142	0.841069
C161	C	-0.026732	-1.228259	0.425453
C162	C	0.473268	-0.728259	0.925453
C163	C	-0.047488	-0.369345	0.103715
C164	C	0.452512	0.130655	0.603715
C165	C	-0.039762	-0.453738	0.086613
C166	C	0.460238	0.046262	0.586613
C167	C	-0.092939	-1.131310	-0.054266
C168	C	0.407061	-0.631310	0.445734
C169	C	-0.104591	-1.114271	-0.138665
C170	C	0.395409	-0.614271	0.361335
C171	C	-0.154154	-1.041570	0.752261
C172	C	0.345846	-0.541570	1.252261
C173	C	-0.143203	-1.057656	0.831551
C174	C	0.356797	-0.557656	1.331551
C175	C	-0.076915	-1.154827	0.811832
C176	C	0.423085	-0.654827	1.311832
C177	C	-0.087862	-1.138753	0.732538
C178	C	0.412138	-0.638753	1.232538
C179	C	-0.126482	-1.082123	0.702759
C180	C	0.373518	-0.582123	1.202759
C181	C	-0.060190	-1.179305	0.683036
C182	C	0.439810	-0.679305	1.183036
C183	C	-0.071135	-1.163229	0.603749
C184	C	0.428865	-0.663229	1.103749
C185	C	-0.109752	-1.106600	0.573964
C186	C	0.390248	-0.606600	1.073964
C187	C	-0.137427	-1.066046	0.623472
C188	C	0.362573	-0.566046	1.123472
C189	C	-0.021569	-1.235931	0.712817
C190	C	0.478431	-0.735931	1.212817
C191	C	0.006104	-1.276484	0.663316
C192	C	0.506104	-0.776484	1.163316
C193	C	-0.004843	-1.260412	0.584026
C194	C	0.495157	-0.760412	1.084026
C195	C	-0.043460	-1.203783	0.554241
C196	C	0.456540	-0.703783	1.054241
C197	C	0.022832	-1.300965	0.534519
C198	C	0.522832	-0.800965	1.034519
C199	C	0.011887	-1.284889	0.455232
C200	C	0.511887	-0.784889	0.955232
C201	C	-0.054405	-1.187706	0.474954
C202	C	0.445595	-0.687706	0.974954
H203	H	-0.052179	-0.864378	0.114045
H204	H	0.447821	-0.364378	0.614045
H205	H	-0.168877	-1.019938	0.599224
H206	H	0.331123	-0.519938	1.099224
H207	H	-0.045470	-1.200933	0.836090
H208	H	0.454530	-0.700933	1.336090
H209	H	-0.085855	-1.141598	0.450707
H210	H	0.414145	-0.641598	0.950707
H211	H	-0.185605	-0.995462	0.728013
H212	H	0.314395	-0.495462	1.228013
H213	H	-0.531652	-1.062256	0.307941
H214	H	-0.031652	-0.562256	0.807941
H215	H	-0.100697	-0.537667	0.221478
H216	H	0.399303	-0.037667	0.721478
H217	H	-0.805393	-1.101068	0.249461
H218	H	-0.305393	-0.601068	0.749461
H219	H	-0.446543	-1.062234	0.307961
H220	H	0.053457	-0.562234	0.807961
H221	H	-0.133972	-0.627460	0.295129
H222	H	0.366028	-0.127460	0.795129
H223	H	-0.459259	-1.280421	-0.020640
H224	H	0.040741	-0.780421	0.479360
H225	H	-0.165745	-1.024637	0.871853
H226	H	0.334255	-0.524637	1.371853
H227	H	-0.145056	-0.756257	0.319659
H228	H	0.354944	-0.256257	0.819659
H229	H	-0.030423	-0.805693	0.065930
H230	H	0.469577	-0.305693	0.565930
H231	H	0.002846	-0.715881	-0.007741
H232	H	0.502846	-0.215881	0.492259
H233	H	-0.118660	-1.093506	0.509404
H234	H	0.381340	-0.593506	1.009404
H235	H	-0.241168	-1.241646	0.037844
H236	H	0.258832	-0.741646	0.537844
H237	H	-0.318094	-1.101016	0.249665
H238	H	0.181906	-0.601016	0.749665
H239	H	-0.587302	-1.062281	0.307916
H240	H	-0.087302	-0.562281	0.807916
H241	H	0.037549	-1.322590	0.687573
H242	H	0.537549	-0.822590	1.187573
H243	H	0.013930	-0.587092	-0.032267
H244	H	0.513930	-0.087092	0.467733
H245	H	-0.898708	-1.241718	0.037572
H246	H	-0.398708	-0.741718	0.537572
H247	H	-0.685132	-1.280435	-0.020731
H248	H	-0.185132	-0.780435	0.479269
H249	H	-0.600011	-1.280431	-0.020703
H250	H	-0.100011	-0.780431	0.479297
H251	H	0.000765	-0.443237	-0.003104
H252	H	0.500765	0.056763	0.496896
H253	H	-0.232968	-1.101009	0.249694
H254	H	0.267032	-0.601009	0.749694
H255	H	-0.131895	-0.900121	0.290506
H256	H	0.368105	-0.400121	0.790506
H257	H	-0.012660	-1.249021	0.777378
H258	H	0.487340	-0.749021	1.277378
H259	H	-0.672410	-1.062289	0.307882
H260	H	-0.172410	-0.562289	0.807882
H261	H	0.054279	-1.347068	0.558778
H262	H	0.554279	-0.847068	1.058778
H263	H	0.034422	-1.317911	0.414926
H264	H	0.534422	-0.817911	0.914926
H265	H	-0.078947	-0.478964	0.173347
H266	H	0.421053	0.021036	0.673347
H267	H	-0.326282	-1.241645	0.037792
H268	H	0.173718	-0.741645	0.537792
H269	H	-0.544368	-1.280425	-0.020679
H270	H	-0.044368	-0.780425	0.479321
H271	H	-0.813583	-1.241714	0.037602
H272	H	-0.313583	-0.741714	0.537602
H273	H	-0.890501	-1.101091	0.249431
H274	H	-0.390501	-0.601091	0.749431
