data_functionalizedCrystal
_audit_creation_method	'MofGen! by Chris Wilmer'
_symmetry_space_group_name_H-M	'P1'
_symmetry_Int_Tables_number	1
_symmetry_cell_setting	triclinic
loop_
_symmetry_equiv_pos_as_xyz
  x,y,z
_cell_length_a	21.295418
_cell_length_b	25.639239
_cell_length_c	21.295411
_cell_angle_alpha	90.019526
_cell_angle_beta	90.043738
_cell_angle_gamma	90.054499
loop_
_atom_site_label
_atom_site_type_symbol
_atom_site_fract_x
_atom_site_fract_y
_atom_site_fract_z
Zn1	Zn	0.962320	-0.207990	0.356243
Zn2	Zn	1.295653	0.125344	0.689576
Zn3	Zn	1.628987	0.458677	1.022910
Zn4	Zn	0.962207	-0.295410	0.250972
Zn5	Zn	1.295541	0.037924	0.584305
Zn6	Zn	1.628874	0.371257	0.917639
Zn7	Zn	0.857043	-0.208014	0.250953
Zn8	Zn	1.190377	0.125319	0.584286
Zn9	Zn	1.523710	0.458652	0.917619
Zn10	Zn	0.856998	-0.295420	0.356169
Zn11	Zn	1.190331	0.037913	0.689502
Zn12	Zn	1.523664	0.371247	1.022835
O13	O	0.909642	-0.251708	0.303584
O14	O	1.242975	0.081625	0.636917
O15	O	1.576309	0.414958	0.970251
O16	O	1.050395	-0.219572	0.342318
O17	O	1.383728	0.113762	0.675651
O18	O	1.717061	0.447095	1.008984
O19	O	0.948229	-0.283822	0.162880
O20	O	1.281562	0.049511	0.496213
O21	O	1.614896	0.382844	0.829547
O22	O	0.871075	-0.134846	0.264943
O23	O	1.204408	0.198488	0.598276
O24	O	1.537741	0.531821	0.931609
O25	O	1.050312	-0.283799	0.264976
O26	O	1.383645	0.049535	0.598309
O27	O	1.716978	0.382868	0.931642
O28	O	0.948421	-0.134828	0.342299
O29	O	1.281754	0.198506	0.675632
O30	O	1.615088	0.531839	1.008965
O31	O	0.870965	-0.219613	0.162866
O32	O	1.204299	0.113720	0.496199
O33	O	1.537632	0.447053	0.829532
O34	O	0.768948	-0.219623	0.264871
O35	O	1.102281	0.113710	0.598204
O36	O	1.435614	0.447043	0.931537
O37	O	0.870997	-0.283816	0.444268
O38	O	1.204330	0.049517	0.777601
O39	O	1.537664	0.382850	1.110935
O40	O	0.768914	-0.283840	0.342172
O41	O	1.102248	0.049493	0.675506
O42	O	1.435581	0.382827	1.008839
O43	O	0.948377	-0.219582	0.444322
O44	O	1.281710	0.113752	0.777656
O45	O	1.615043	0.447085	1.110989
O46	O	0.948185	-0.368576	0.264904
O47	O	1.281518	-0.035243	0.598237
O48	O	1.614852	0.298090	0.931570
O49	O	0.870888	-0.368584	0.342191
O50	O	1.204221	-0.035251	0.675524
O51	O	1.537554	0.298083	1.008858
C52	C	0.746090	-0.251736	0.303512
C53	C	1.079424	0.081597	0.636845
C54	C	1.412757	0.414931	0.970178
C55	C	0.676122	-0.251760	0.303496
C56	C	1.009456	0.081573	0.636829
C57	C	1.342789	0.414906	0.970162
C58	C	0.643255	-0.285242	0.343686
C59	C	0.976588	0.048091	0.677020
C60	C	1.309921	0.381424	1.010353
C61	C	0.577512	-0.285229	0.343715
C62	C	0.910845	0.048104	0.677048
C63	C	1.244179	0.381437	1.010381
C64	C	0.544640	-0.251740	0.303541
C65	C	0.877973	0.081593	0.636874
C66	C	1.211306	0.414927	0.970207
C67	C	0.577515	-0.218252	0.263347
C68	C	0.910849	0.115082	0.596680
C69	C	1.244182	0.448415	0.930014
C70	C	0.643257	-0.218262	0.263325
C71	C	0.976590	0.115072	0.596658
C72	C	1.309923	0.448405	0.929991
N73	N	0.441365	-0.247648	0.248483
N74	N	0.774698	0.085686	0.581816
N75	N	1.108031	0.419019	0.915150
N76	N	0.378913	-0.247641	0.248506
N77	N	0.712246	0.085692	0.581840
N78	N	1.045580	0.419026	0.915173
C79	C	0.346565	-0.251707	0.303608
C80	C	0.679898	0.081627	0.636941
C81	C	1.013232	0.414960	0.970274
N82	N	0.379028	-0.255789	0.358686
N83	N	0.712361	0.077544	0.692019
N84	N	1.045695	0.410877	1.025353
N85	N	0.441485	-0.255799	0.358662
N86	N	0.774818	0.077535	0.691995
N87	N	1.108152	0.410868	1.025328
C88	C	0.473354	-0.251725	0.303561
C89	C	0.806688	0.081608	0.636894
C90	C	1.140021	0.414942	0.970228
C91	C	0.242412	-0.285176	0.343832
C92	C	0.575745	0.048157	0.677166
C93	C	0.909079	0.381490	1.010499
C94	C	0.176668	-0.285160	0.343862
C95	C	0.510002	0.048173	0.677195
C96	C	0.843335	0.381507	1.010528
C97	C	0.176673	-0.218185	0.263489
C98	C	0.510006	0.115148	0.596822
C99	C	0.843339	0.448482	0.930155
C100	C	0.242415	-0.218199	0.263465
C101	C	0.575749	0.115135	0.596798
C102	C	0.909082	0.448468	0.930132
C103	C	0.275281	-0.251697	0.303636
C104	C	0.608614	0.081636	0.636969
C105	C	0.941948	0.414969	0.970303
C106	C	0.909536	-0.387551	0.303555
C107	C	1.242870	-0.054218	0.636889
C108	C	1.576203	0.279116	0.970222
C109	C	0.909548	-0.445665	0.303564
C110	C	1.242882	-0.112332	0.636897
C111	C	1.576215	0.221002	0.970231
C112	C	0.949996	-0.806011	0.263409
C113	C	1.283329	-0.472678	0.596742
C114	C	1.616662	-0.139345	0.930076
C115	C	0.950020	-0.860616	0.263418
C116	C	1.283353	-0.527282	0.596751
C117	C	1.616687	-0.193949	0.930084
O118	O	0.984300	-0.888838	0.229245
O119	O	1.317633	-0.555505	0.562578
O120	O	1.650967	-0.222172	0.895912
N121	N	0.909753	-0.887947	0.303626
N122	N	1.243086	-0.554614	0.636959
N123	N	1.576419	-0.221281	0.970292
C124	C	0.869463	-0.860672	0.343833
C125	C	1.202796	-0.527339	0.677166
C126	C	1.536129	-0.194005	1.010499
O127	O	0.835215	-0.888934	0.378034
O128	O	1.168548	-0.555600	0.711368
O129	O	1.501881	-0.222267	1.044701
C130	C	0.869442	-0.806069	0.343827
C131	C	1.202775	-0.472735	0.677160
C132	C	1.536109	-0.139402	1.010494
C133	C	0.909708	-0.778740	0.303612
C134	C	1.243041	-0.445406	0.636945
C135	C	1.576374	-0.112073	0.970278
C136	C	0.990259	-0.778683	0.223198
C137	C	1.323592	-0.445349	0.556531
C138	C	1.656925	-0.112016	0.889864
C139	C	0.990233	-0.724082	0.223188
C140	C	1.323567	-0.390749	0.556522
C141	C	1.656900	-0.057415	0.889855
C142	C	0.949945	-0.696810	0.263391
C143	C	1.283278	-0.363477	0.596724
C144	C	1.616612	-0.030144	0.930058
C145	C	0.909682	-0.724139	0.303603
C146	C	1.243016	-0.390806	0.636936
C147	C	1.576349	-0.057473	0.970269
C148	C	0.829156	-0.778794	0.384037
C149	C	1.162489	-0.445461	0.717370
C150	C	1.495822	-0.112127	1.050703
C151	C	0.829139	-0.724187	0.384028
C152	C	1.162472	-0.390854	0.717361
C153	C	1.495805	-0.057520	1.050695
C154	C	0.869404	-0.696858	0.343812
C155	C	1.202738	-0.363525	0.677146
C156	C	1.536071	-0.030192	1.010479
C157	C	0.869369	-0.642267	0.343796
C158	C	1.202702	-0.308934	0.677129
C159	C	1.536035	0.024400	1.010463
N160	N	0.909636	-0.614935	0.303588
N161	N	1.242969	-0.281602	0.636921
N162	N	1.576303	0.051731	0.970254
C163	C	0.949924	-0.642207	0.263385
C164	C	1.283258	-0.308874	0.596719
C165	C	1.616591	0.024460	0.930052
C166	C	0.869510	-0.975343	0.343842
C167	C	1.202844	-0.642009	0.677176
C168	C	1.536177	-0.308676	1.010509
C169	C	0.869527	-1.029945	0.343845
C170	C	1.202861	-0.696611	0.677179
C171	C	1.536194	-0.363278	1.010512
C172	C	0.950086	-1.029885	0.263431
C173	C	1.283419	-0.696552	0.596764
C174	C	1.616752	-0.363218	0.930098
C175	C	0.950065	-0.975282	0.263425
C176	C	1.283398	-0.641948	0.596759
C177	C	1.616732	-0.308615	0.930092
C178	C	0.909778	-0.948011	0.303634
C179	C	1.243111	-0.614678	0.636968
C180	C	1.576444	-0.281344	0.970301
C181	C	0.949868	-0.527542	0.263369
C182	C	1.283201	-0.194209	0.596702
C183	C	1.616534	0.139125	0.930035
C184	C	0.949837	-0.472937	0.263361
C185	C	1.283170	-0.139603	0.596695
C186	C	1.616503	0.193730	0.930028
C187	C	0.869281	-0.473001	0.343778
C188	C	1.202614	-0.139668	0.677111
C189	C	1.535948	0.193665	1.010445
C190	C	0.869309	-0.527602	0.343783
C191	C	1.202642	-0.194269	0.677117
C192	C	1.535976	0.139065	1.010450
C193	C	0.909607	-0.554871	0.303577
C194	C	1.242941	-0.221538	0.636910
C195	C	1.576274	0.111796	0.970243
O196	O	0.835108	-0.614010	0.377953
O197	O	1.168441	-0.280676	0.711286
O198	O	1.501775	0.052657	1.044620
O199	O	0.984172	-0.613939	0.229195
O200	O	1.317506	-0.280605	0.562529
O201	O	1.650839	0.052728	0.895862
C202	C	1.073832	-0.251681	0.303657
C203	C	1.407166	0.081652	0.636990
C204	C	1.740499	0.414985	0.970324
C205	C	1.143801	-0.251670	0.303688
C206	C	1.477134	0.081664	0.637022
C207	C	1.810467	0.414997	0.970355
C208	C	0.909694	-0.251697	0.467774
C209	C	1.243028	0.081636	0.801108
C210	C	1.576361	0.414969	1.134441
C211	C	0.909717	-0.251693	0.537743
C212	C	1.243050	0.081641	0.871076
C213	C	1.576383	0.414974	1.204409
C214	C	0.909766	-0.115335	0.303627
C215	C	1.243099	0.217998	0.636960
C216	C	1.576432	0.551331	0.970293
C217	C	0.909818	-0.057221	0.303645
C218	C	1.243151	0.276112	0.636978
C219	C	1.576485	0.609445	0.970312
C220	C	0.909626	-0.251682	0.140032
C221	C	1.242960	0.081652	0.473366
C222	C	1.576293	0.414985	0.806699
C223	C	0.909726	-0.251539	0.070065
C224	C	1.243059	0.081794	0.403398
C225	C	1.576393	0.415128	0.736731
C226	C	0.950007	-0.218244	0.570639
C227	C	1.283340	0.115089	0.903972
C228	C	1.616673	0.448423	1.237305
C229	C	0.950006	-0.218221	0.636381
C230	C	1.283339	0.115112	0.969714
C231	C	1.616672	0.448445	1.303048
C232	C	0.909721	-0.251657	0.669225
C233	C	1.243055	0.081677	1.002558
C234	C	1.576388	0.415010	1.335892
C235	C	0.869424	-0.285108	0.636321
C236	C	1.202757	0.048226	0.969654
C237	C	1.536090	0.381559	1.302988
C238	C	0.869421	-0.285126	0.570580
C239	C	1.202755	0.048208	0.903913
C240	C	1.536088	0.381541	1.237246
N241	N	0.904857	-0.297396	0.772441
N242	N	1.238190	0.035937	1.105774
N243	N	1.571524	0.369271	1.439108
N244	N	0.904863	-0.297377	0.834892
N245	N	1.238196	0.035956	1.168226
N246	N	1.571530	0.369289	1.501559
C247	C	0.909725	-0.251604	0.867300
C248	C	1.243059	0.081730	1.200633
C249	C	1.576392	0.415063	1.533967
N250	N	0.914594	-0.205848	0.834897
N251	N	1.247927	0.127485	1.168230
N252	N	1.581261	0.460818	1.501563
N253	N	0.914591	-0.205867	0.772440
N254	N	1.247925	0.127466	1.105773
N255	N	1.581258	0.460799	1.439106
C256	C	0.909719	-0.251641	0.740511
C257	C	1.243053	0.081693	1.073844
C258	C	1.576386	0.415026	1.407177
C259	C	0.950017	-0.218128	0.971482
C260	C	1.283350	0.115206	1.304815
C261	C	1.616683	0.448539	1.638148
C262	C	0.950011	-0.218104	1.037225
C263	C	1.283345	0.115229	1.370559
C264	C	1.616678	0.448562	1.703892
C265	C	0.869433	-0.284995	1.037164
C266	C	1.202766	0.048338	1.370497
C267	C	1.536099	0.381672	1.703831
C268	C	0.869435	-0.285014	0.971422
C269	C	1.202768	0.048320	1.304755
C270	C	1.536101	0.381653	1.638088
C271	C	0.909730	-0.251581	0.938584
C272	C	1.243063	0.081752	1.271918
C273	C	1.576397	0.415086	1.605251
H274	H	0.149909	-0.312424	0.376594
H275	H	0.483242	0.020909	0.709927
H276	H	0.816575	0.354243	1.043261
H277	H	0.836626	-0.312213	1.063905
H278	H	1.169959	0.021120	1.397238
H279	H	1.503293	0.354453	1.730572
O280	O	1.029329	-0.805244	0.184146
O281	O	1.362663	-0.471910	0.517479
O282	O	1.695996	-0.138577	0.850813
C283	C	0.993556	-0.836892	0.143430
C284	C	1.326889	-0.503559	0.476763
C285	C	1.660223	-0.170226	0.810097
H286	H	0.945827	-0.845107	0.165541
H287	H	1.279160	-0.511774	0.498874
H288	H	1.612493	-0.178440	0.832207
H289	H	1.019225	-0.875268	0.135077
H290	H	1.352559	-0.541935	0.468410
H291	H	1.685892	-0.208601	0.801743
H292	H	0.986689	-0.815895	0.096750
H293	H	1.320023	-0.482561	0.430083
H294	H	1.653356	-0.149228	0.763416
H295	H	0.982626	-0.450687	0.230611
H296	H	1.315959	-0.117354	0.563944
H297	H	1.649292	0.215979	0.897278
H298	H	0.982684	-0.549738	0.230630
H299	H	1.316017	-0.216405	0.563963
H300	H	1.649350	0.116929	0.897297
O301	O	0.989117	-0.185658	0.668277
O302	O	1.322450	0.147675	1.001610
O303	O	1.655783	0.481009	1.334944
C304	C	0.975405	-0.133551	0.652221
C305	C	1.308739	0.199782	0.985555
C306	C	1.642072	0.533116	1.318888
H307	H	0.951208	-0.132477	0.604471
H308	H	1.284541	0.200856	0.937804
H309	H	1.617874	0.534189	1.271137
H310	H	1.020862	-0.110105	0.650010
H311	H	1.354195	0.223228	0.983343
H312	H	1.687528	0.556562	1.316677
H313	H	0.943061	-0.115936	0.689200
H314	H	1.276394	0.217398	1.022533
H315	H	1.609727	0.550731	1.355866
O316	O	0.274444	-0.185696	0.224476
O317	O	0.607777	0.147637	0.557809
O318	O	0.941110	0.480971	0.891142
C319	C	0.339517	-0.192896	0.233057
C320	C	0.672850	0.140437	0.566391
C321	C	1.006183	0.473770	0.899724
H322	H	0.348526	-0.210079	0.281598
H323	H	0.681860	0.123254	0.614931
H324	H	1.015193	0.456588	0.948264
H325	H	0.364552	-0.153733	0.228862
H326	H	0.697886	0.179601	0.562195
H327	H	1.031219	0.512934	0.895529
H328	H	0.358092	-0.220698	0.195653
H329	H	0.691425	0.112635	0.528986
H330	H	1.024758	0.445968	0.862320
H331	H	0.982853	-0.953034	0.230679
H332	H	1.316186	-0.619700	0.564012
H333	H	1.649520	-0.286367	0.897346
O334	O	0.675209	-0.317831	0.382623
O335	O	1.008542	0.015503	0.715956
O336	O	1.341876	0.348836	1.049290
C337	C	0.713167	-0.351553	0.346702
C338	C	1.046500	-0.018220	0.680036
C339	C	1.379833	0.315114	1.013369
H340	H	0.693298	-0.354723	0.297123
H341	H	1.026631	-0.021390	0.630456
H342	H	1.359965	0.311944	0.963790
H343	H	0.713885	-0.391817	0.369385
H344	H	1.047218	-0.058483	0.702718
H345	H	1.380552	0.274850	1.036052
H346	H	0.763009	-0.335390	0.344553
H347	H	1.096342	-0.002056	0.677886
H348	H	1.429676	0.331277	1.011220
O349	O	0.830383	-0.317644	0.668250
O350	O	1.163717	0.015689	1.001584
O351	O	1.497050	0.349023	1.334917
C352	C	0.866194	-0.351390	0.706312
C353	C	1.199527	-0.018056	1.039646
C354	C	1.532860	0.315277	1.372979
H355	H	0.915768	-0.354616	0.686535
H356	H	1.249101	-0.021282	1.019868
H357	H	1.582435	0.312051	1.353202
H358	H	0.843390	-0.391630	0.707040
H359	H	1.176723	-0.058297	1.040373
H360	H	1.510056	0.275037	1.373707
H361	H	0.868380	-0.335212	0.756139
H362	H	1.201713	-0.001878	1.089472
H363	H	1.535046	0.331455	1.422806
H364	H	0.836609	-0.312363	0.543796
H365	H	1.169943	0.020971	0.877129
H366	H	1.503276	0.354304	1.210463
H367	H	0.550747	-0.190983	0.230639
H368	H	0.884080	0.142350	0.563972
H369	H	1.217413	0.475683	0.897305
O370	O	1.029414	-0.697620	0.184110
O371	O	1.362747	-0.364286	0.517443
O372	O	1.696080	-0.030953	0.850776
C373	C	1.064964	-0.733408	0.148624
C374	C	1.398298	-0.400075	0.481957
C375	C	1.731631	-0.066742	0.815290
H376	H	1.067135	-0.772318	0.174419
H377	H	1.400469	-0.438985	0.507752
H378	H	1.733802	-0.105652	0.841086
H379	H	1.114563	-0.717589	0.141974
H380	H	1.447896	-0.384255	0.475308
H381	H	1.781229	-0.050922	0.808641
H382	H	1.041944	-0.739258	0.100784
H383	H	1.375277	-0.405924	0.434118
H384	H	1.708610	-0.072591	0.767451
H385	H	0.982824	-0.190902	0.944744
H386	H	1.316157	0.142432	1.278077
H387	H	1.649491	0.475765	1.611411
H388	H	0.796364	-0.801036	0.416781
H389	H	1.129697	-0.467703	0.750115
H390	H	1.463031	-0.134369	1.083448
H391	H	0.550746	-0.312494	0.376445
H392	H	0.884079	0.020839	0.709778
H393	H	1.217413	0.354173	1.043112
H394	H	0.982819	-0.190863	1.064008
H395	H	1.316153	0.142470	1.397342
H396	H	1.649486	0.475803	1.730675
O397	O	0.989249	-1.056463	0.224482
O398	O	1.322582	-0.723130	0.557815
O399	O	1.655915	-0.389796	0.891148
C400	C	0.980641	-1.110516	0.233128
C401	C	1.313975	-0.777183	0.566462
C402	C	1.647308	-0.443849	0.899795
H403	H	0.959943	-1.117960	0.281661
H404	H	1.293276	-0.784627	0.614995
H405	H	1.626609	-0.451293	0.948328
H406	H	1.027821	-1.131204	0.229000
H407	H	1.361154	-0.797871	0.562333
H408	H	1.694487	-0.464537	0.895667
H409	H	0.947202	-1.126094	0.195717
H410	H	1.280536	-0.792760	0.529050
H411	H	1.613869	-0.459427	0.862383
O412	O	0.144651	-0.185715	0.224468
O413	O	0.477985	0.147619	0.557801
O414	O	0.811318	0.480952	0.891135
C415	C	0.079578	-0.192880	0.233110
C416	C	0.412911	0.140453	0.566443
C417	C	0.746244	0.473786	0.899777
H418	H	0.070570	-0.233247	0.253663
H419	H	0.403904	0.100086	0.586996
H420	H	0.737237	0.433420	0.920329
H421	H	0.054552	-0.189294	0.185968
H422	H	0.387886	0.144039	0.519302
H423	H	0.721219	0.477372	0.852635
H424	H	0.060989	-0.161895	0.266686
H425	H	0.394323	0.171438	0.600019
H426	H	0.727656	0.504771	0.933352
H427	H	0.836630	-0.312254	0.944637
H428	H	1.169963	0.021079	1.277971
H429	H	1.503296	0.354412	1.611304
H430	H	0.670017	-0.190995	0.230596
H431	H	1.003350	0.142338	0.563929
H432	H	1.336684	0.475672	0.897263
O433	O	0.830397	-0.948911	0.382986
O434	O	1.163730	-0.615577	0.716319
O435	O	1.497064	-0.282244	1.049652
C436	C	0.844137	-0.962210	0.445744
C437	C	1.177471	-0.628877	0.779077
C438	C	1.510804	-0.295543	1.112410
H439	H	0.868356	-1.001827	0.447081
H440	H	1.201689	-0.668494	0.780414
H441	H	1.535023	-0.335160	1.113747
H442	H	0.798692	-0.964122	0.473911
H443	H	1.132025	-0.630789	0.807244
H444	H	1.465358	-0.297456	1.140577
H445	H	0.876473	-0.931435	0.466988
H446	H	1.209807	-0.598102	0.800322
H447	H	1.543140	-0.264768	1.133655
O448	O	0.789970	-0.697641	0.423001
O449	O	1.123303	-0.364308	0.756334
O450	O	1.456637	-0.030974	1.089667
C451	C	0.749300	-0.666125	0.387111
C452	C	1.082633	-0.332791	0.720444
C453	C	1.415967	0.000542	1.053778
H454	H	0.771517	-0.657934	0.339432
H455	H	1.104851	-0.324601	0.672765
H456	H	1.438184	0.008733	1.006099
H457	H	0.740832	-0.627729	0.412740
H458	H	1.074166	-0.294396	0.746073
H459	H	1.407499	0.038937	1.079407
H460	H	0.702665	-0.687225	0.380140
H461	H	1.035998	-0.353892	0.713474
H462	H	1.369331	-0.020558	1.046807
H463	H	0.269173	-0.312450	0.376545
H464	H	0.602506	0.020883	0.709879
H465	H	0.935839	0.354216	1.043212
O466	O	0.830496	-1.056546	0.382938
O467	O	1.163830	-0.723212	0.716271
O468	O	1.497163	-0.389879	1.049605
C469	C	0.866328	-1.088064	0.423660
C470	C	1.199661	-0.754731	0.756993
C471	C	1.532994	-0.421397	1.090327
H472	H	0.914046	-1.096206	0.401520
H473	H	1.247380	-0.762872	0.734853
H474	H	1.580713	-0.429539	1.068187
H475	H	0.840696	-1.126483	0.432076
H476	H	1.174030	-0.793150	0.765409
H477	H	1.507363	-0.459817	1.098742
H478	H	0.873214	-1.066990	0.470312
H479	H	1.206548	-0.733657	0.803645
H480	H	1.539881	-0.400324	1.136978
O481	O	0.989195	-0.185832	0.538705
O482	O	1.322528	0.147501	0.872038
O483	O	1.655861	0.480835	1.205372
C484	C	1.029814	-0.215589	0.500680
C485	C	1.363148	0.117744	0.834014
C486	C	1.696481	0.451078	1.167347
H487	H	1.033691	-0.256761	0.520492
H488	H	1.367024	0.076572	0.853825
H489	H	1.700358	0.409905	1.187158
H490	H	1.078267	-0.196656	0.499955
H491	H	1.411601	0.136677	0.833288
H492	H	1.744934	0.470010	1.166621
H493	H	1.010332	-0.217411	0.450849
H494	H	1.343665	0.115922	0.784182
H495	H	1.676999	0.449255	1.117515
H496	H	0.836477	-0.450788	0.376509
H497	H	1.169810	-0.117455	0.709842
H498	H	1.503143	0.215878	1.043175
O499	O	0.830174	-0.554072	0.382905
O500	O	1.163507	-0.220738	0.716238
O501	O	1.496841	0.112595	1.049571
C502	C	0.794597	-0.518289	0.418373
C503	C	1.127930	-0.184956	0.751706
C504	C	1.461263	0.148378	1.085039
H505	H	0.820358	-0.479335	0.420571
H506	H	1.153692	-0.146001	0.753904
H507	H	1.487025	0.187332	1.087238
H508	H	0.787869	-0.534049	0.467967
H509	H	1.121202	-0.200716	0.801300
H510	H	1.454536	0.132618	1.134633
H511	H	0.746794	-0.512549	0.395262
H512	H	1.080128	-0.179215	0.728595
H513	H	1.413461	0.154118	1.061929
