data_functionalizedCrystal
_audit_creation_method	'MofGen! by Chris Wilmer'
_symmetry_space_group_name_H-M	'P1'
_symmetry_Int_Tables_number	1
_symmetry_cell_setting	triclinic
loop_
_symmetry_equiv_pos_as_xyz
  x,y,z
_cell_length_a	14.044202
_cell_length_b	12.503572
_cell_length_c	10.723024
_cell_angle_alpha	86.442056
_cell_angle_beta	91.169715
_cell_angle_gamma	86.162225
loop_
_atom_site_label
_atom_site_type_symbol
_atom_site_fract_x
_atom_site_fract_y
_atom_site_fract_z
O1	O	-1.265084	0.089261	0.294497
O2	O	-0.989045	0.089275	0.283620
O3	O	-1.133432	0.089264	0.108120
O4	O	-1.120698	0.089272	0.469997
O5	O	-1.122573	-0.089377	0.121343
O6	O	-0.978187	-0.089366	0.296843
O7	O	-1.254226	-0.089380	0.307720
Cu8	Cu	-1.115215	-0.105684	0.303489
Cu9	Cu	-1.128056	0.105579	0.287851
O10	O	-1.109839	-0.089369	0.483220
C11	C	-0.948271	-0.000044	0.285475
C12	C	-0.842953	-0.000038	0.271285
C13	C	-0.593152	-0.000047	0.345969
C14	C	-0.650127	-0.000047	0.245365
C15	C	-0.757425	-0.000042	0.259791
C16	C	-0.485843	-0.000052	0.331545
N17	N	-1.106190	-0.254276	0.314487
C18	C	-1.092913	-0.473390	0.330676
C19	C	-1.150362	-0.526722	0.260658
C20	C	-1.142975	-0.648644	0.269666
C21	C	-1.100299	-0.351456	0.321670
C22	C	-0.295001	-0.000059	0.305862
C23	C	-0.400320	-0.000056	0.320043
C24	C	-1.127076	-0.000055	0.068139
C25	C	-1.124303	-0.000052	-0.070693
N26	N	-1.137089	0.254171	0.276844
C27	C	-1.205095	-0.000054	-0.137589
C28	C	-1.202231	-0.000050	-0.281079
C29	C	-1.116195	-0.000047	0.523201
C30	C	-1.118968	-0.000044	0.662032
H31	H	-0.624956	-0.000041	0.442924
C32	C	-1.018960	-0.535395	0.420764
H33	H	-0.983873	-0.485903	0.463501
H34	H	-1.050855	-0.579279	0.479688
H35	H	-0.976508	-0.579255	0.374662
C36	C	-1.025523	-0.000042	-0.260300
H37	H	-0.972914	-0.000045	-0.314605
H38	H	-1.026786	0.062251	-0.213795
H39	H	-1.019214	-0.062349	-0.204589
H40	H	-1.205094	-0.480813	0.193949
C41	C	-1.295672	-0.000055	-0.358755
H42	H	-1.348281	-0.000066	-0.304449
H43	H	-1.301983	0.062241	-0.414473
H44	H	-1.294407	-0.062359	-0.405251
H45	H	-1.276383	-0.000065	-0.088631
H46	H	-1.053015	-0.000041	-0.119651
H47	H	-0.618325	0.000026	0.148397
