data_functionalizedCrystal
_audit_creation_method	'MofGen! by Chris Wilmer'
_symmetry_space_group_name_H-M	'P1'
_symmetry_Int_Tables_number	1
_symmetry_cell_setting	triclinic
loop_
_symmetry_equiv_pos_as_xyz
  x,y,z
_cell_length_a	16.109318
_cell_length_b	14.853569
_cell_length_c	15.186229
_cell_angle_alpha	89.995084
_cell_angle_beta	90.000224
_cell_angle_gamma	83.552064
loop_
_atom_site_label
_atom_site_type_symbol
_atom_site_fract_x
_atom_site_fract_y
_atom_site_fract_z
O1	O	1.103285	0.115955	-0.073158
O2	O	0.861245	0.130360	-0.073176
O3	O	0.988730	-0.008083	-0.073158
O4	O	0.975801	0.254397	-0.073176
O5	O	0.988721	-0.008084	0.073299
O6	O	0.861237	0.130358	0.073282
O7	O	1.103277	0.115953	0.073300
Zn8	Zn	0.982255	0.123155	0.096544
Zn9	Zn	0.982267	0.123158	-0.096420
O10	O	0.975792	0.254395	0.073282
C11	C	0.830266	0.129773	0.000051
C12	C	0.737969	0.128015	0.000044
C13	C	0.438892	0.122340	-0.079774
C14	C	0.525615	0.123985	-0.079779
C15	C	0.525625	0.123970	0.079896
C16	C	0.438903	0.122319	0.079901
C17	C	0.395539	0.121508	0.000063
C18	C	0.568983	0.124805	0.000053
C19	C	0.663013	0.126589	0.000048
C20	C	0.301503	0.119722	0.000068
C21	C	0.988140	-0.041671	0.000071
C22	C	0.986383	-0.141752	0.000072
C23	C	0.909831	-0.178007	0.000068
C24	C	1.061286	-0.199537	0.000069
C25	C	1.059638	-0.293568	0.000066
C26	C	0.983086	-0.329824	0.000061
C27	C	0.908181	-0.272047	0.000061
C28	C	1.134542	-0.351351	0.000057
C29	C	1.132897	-0.445389	0.000052
C30	C	1.056344	-0.481646	0.000054
C31	C	0.981436	-0.423864	0.000055
C32	C	0.904884	-0.460119	0.000051
C33	C	0.829975	-0.402338	0.000058
C34	C	0.831627	-0.308304	0.000063
C35	C	1.054691	-0.575680	0.000049
C36	C	0.903234	-0.554159	0.000044
C37	C	1.134256	0.116540	0.000071
C38	C	1.226553	0.118298	0.000072
C39	C	0.976382	0.287984	0.000051
C40	C	0.978139	0.388065	0.000044
N41	N	0.982254	0.123153	0.228236
N42	N	0.982275	0.123153	-0.228113
C43	C	1.038723	0.061871	0.453967
C44	C	1.038726	0.061869	0.546157
C45	C	0.925799	0.184437	0.546150
C46	C	0.925793	0.184435	0.453962
C47	C	0.982260	0.123152	0.407873
C48	C	0.982269	0.123153	0.592251
C49	C	0.982271	0.123151	0.692207
C50	C	0.982257	0.123153	0.307911
H51	H	0.840895	-0.583670	0.000049
N52	N	1.099603	-0.004247	0.404258
H53	H	1.091031	0.005045	0.338862
H54	H	1.158599	0.006174	0.420361
N55	N	0.572369	0.124877	-0.165894
H56	H	0.550602	0.180446	-0.200796
H57	H	0.633877	0.126007	-0.153717
N58	N	0.829041	-0.115692	0.000065
H59	H	0.780297	-0.152932	0.000060
H60	H	0.826423	-0.076218	0.054363
N61	N	0.572393	0.124862	0.166004
H62	H	0.563981	0.068720	0.200912
H63	H	0.633890	0.126074	0.153817
N64	N	0.392123	0.121445	-0.165882
H65	H	0.330606	0.120272	-0.153768
H66	H	0.400605	0.177587	-0.200752
N67	N	1.099638	-0.004216	0.595871
H68	H	1.090003	-0.068209	0.579834
H69	H	1.158620	0.006285	0.579794
H70	H	0.879827	0.234333	0.583685
H71	H	0.403605	0.121640	0.144918
N72	N	0.747409	-0.441445	0.000045
H73	H	0.757736	-0.509783	0.000036
H74	H	0.714627	-0.420326	0.054341
H75	H	0.770641	-0.261251	0.000067
N76	N	0.864884	0.250526	0.404238
H77	H	0.829117	0.289352	0.447422
H78	H	0.896751	0.290393	0.365978
H79	H	1.123611	-0.170012	0.000090
H80	H	1.193893	-0.492427	0.000048
N81	N	1.217101	-0.312244	0.000079
H82	H	1.221165	-0.273687	-0.054200
H83	H	1.221092	-0.273771	0.054419
N84	N	1.135474	-0.638000	0.000032
H85	H	1.184220	-0.600763	0.000030
H86	H	1.138094	-0.677493	0.054324
