data_functionalizedCrystal
_audit_creation_method	'MofGen! by Chris Wilmer'
_symmetry_space_group_name_H-M	'P1'
_symmetry_Int_Tables_number	1
_symmetry_cell_setting	triclinic
loop_
_symmetry_equiv_pos_as_xyz
  x,y,z
_cell_length_a	19.288864
_cell_length_b	9.130307
_cell_length_c	19.288865
_cell_angle_alpha	89.989504
_cell_angle_beta	96.863755
_cell_angle_gamma	90.017833
loop_
_atom_site_label
_atom_site_type_symbol
_atom_site_fract_x
_atom_site_fract_y
_atom_site_fract_z
O1	O	0.921348	0.122286	-0.086648
O2	O	0.719087	0.122188	-0.098337
O3	O	0.826062	0.122211	0.008638
O4	O	0.814373	0.122263	-0.193623
O5	O	0.826054	-0.121388	0.008642
O6	O	0.719079	-0.121411	-0.098333
O7	O	0.921340	-0.121313	-0.086644
Cu8	Cu	0.820209	-0.143605	-0.092488
Cu9	Cu	0.820218	0.144479	-0.092493
O10	O	0.814365	-0.121336	-0.193619
C11	C	0.693207	0.000375	-0.097959
C12	C	0.616103	0.000337	-0.096830
N13	N	0.820207	-0.346227	-0.092484
C14	C	0.571407	0.000376	-0.159598
C15	C	0.498960	0.000392	-0.158537
C16	C	0.471212	0.000398	-0.094705
C17	C	0.515918	0.000350	-0.031929
C18	C	0.588364	0.000320	-0.032991
C19	C	0.362953	0.085778	-0.044527
C20	C	0.290508	0.085817	-0.043467
C21	C	0.247767	0.000486	-0.091425
C22	C	0.277476	-0.084867	-0.140455
C23	C	0.349922	-0.084897	-0.141517
C24	C	0.392658	0.000430	-0.093546
C25	C	0.124514	0.000540	-0.153047
C26	C	0.052066	0.000547	-0.151984
C27	C	0.069026	0.000520	-0.025374
C28	C	0.141473	0.000499	-0.026439
C29	C	0.169212	0.000516	-0.090278
C30	C	0.736231	-0.346354	-0.008434
C31	C	0.694251	-0.423083	0.033592
C32	C	0.694261	-0.576417	0.033592
C33	C	0.736254	-0.653024	-0.008440
C34	C	0.778235	-0.576294	-0.050466
C35	C	0.778222	-0.422957	-0.050460
C36	C	0.862206	-0.576168	-0.134518
C37	C	0.862200	-0.422835	-0.134516
C38	C	0.904199	-0.652775	-0.176550
C39	C	0.946184	-0.576046	-0.218573
C40	C	0.946173	-0.422703	-0.218571
C41	C	0.904181	-0.346105	-0.176542
C42	C	0.947220	0.000502	-0.087022
C43	C	1.024324	0.000551	-0.088151
C44	C	0.825682	0.000407	0.034516
C45	C	0.824553	0.000393	0.111620
N46	N	0.820225	0.347102	-0.092492
C47	C	0.814745	0.000471	-0.219497
C48	C	0.815874	0.000494	-0.296601
C49	C	0.887321	0.000416	0.156316
C50	C	0.886260	0.000439	0.228763
C51	C	0.822428	0.000409	0.256511
C52	C	0.759652	0.000394	0.211805
C53	C	0.760714	0.000386	0.139359
C54	C	0.772245	-0.084943	0.364800
C55	C	0.771186	-0.084944	0.437244
C56	C	0.819148	0.000440	0.479956
C57	C	0.868182	0.085806	0.450217
C58	C	0.869245	0.085798	0.377771
C59	C	0.821269	0.000419	0.335065
C60	C	0.880770	0.000490	0.603209
C61	C	0.879707	0.000522	0.675657
C62	C	0.753097	0.000462	0.658697
C63	C	0.754162	0.000445	0.586250
C64	C	0.818000	0.000452	0.558511
H65	H	0.462561	0.000420	-0.209652
N66	N	0.684249	0.000406	0.688616
H67	H	0.644645	0.000379	0.649304
H68	H	0.681048	0.090710	0.718296
N69	N	0.922123	0.177876	0.345695
H70	H	0.915516	0.164908	0.293321
H71	H	0.970784	0.145991	0.364903
N72	N	0.991474	-0.658654	-0.263906
H73	H	0.961128	-0.722279	-0.297982
H74	H	1.025565	-0.722176	-0.233535
H75	H	0.266324	0.155322	-0.003547
N76	N	0.485989	0.000345	0.036916
H77	H	0.456332	0.090660	0.040180
H78	H	0.525336	0.000257	0.076482
N79	N	0.601332	0.000369	-0.228445
H80	H	0.631035	0.090657	-0.231709
H81	H	0.561986	0.000337	-0.268012
N82	N	0.720525	-0.177060	0.318728
H83	H	0.691134	-0.111719	0.284663
H84	H	0.689352	-0.231147	0.348603
N85	N	0.636577	0.000270	0.034711
H86	H	0.608010	0.000270	0.075312
H87	H	0.667026	0.090563	0.037028
N88	N	0.381969	-0.176953	-0.194391
H89	H	0.343904	-0.231010	-0.224613
H90	H	0.415432	-0.249864	-0.169266
N91	N	0.690801	0.000345	0.241724
H92	H	0.663314	0.090634	0.225402
H93	H	0.699707	0.000291	0.294396
H94	H	0.736252	-0.777876	-0.008442
H95	H	0.177866	0.000475	0.024674
N96	N	0.904174	-0.180725	-0.176536
H97	H	0.871202	-0.143844	-0.143533
H98	H	0.888451	-0.143896	-0.225256
H99	H	0.939303	0.000427	0.133736
H100	H	0.660073	-0.638890	0.067810
N101	N	0.953961	0.000467	0.276984
H102	H	0.994563	0.000473	0.248418
H103	H	0.956268	-0.089836	0.307419
H104	H	0.242677	-0.154353	-0.179506
H105	H	0.904201	-0.777628	-0.176550
N106	N	0.736229	-0.180974	-0.008423
H107	H	0.687521	-0.144065	-0.024118
H108	H	0.769228	-0.144111	-0.041415
H109	H	0.046435	0.000616	0.026600
H110	H	0.147101	0.000533	-0.205028
N111	N	0.648965	-0.340460	0.078930
H112	H	0.655330	-0.231680	0.072559
H113	H	0.662864	-0.367283	0.129479
N114	N	0.991450	-0.339948	-0.263904
H115	H	1.018050	-0.411750	-0.290528
H116	H	1.025501	-0.276313	-0.233535
H117	H	0.015674	0.000571	-0.203099
N118	N	0.693012	0.000362	0.091146
H119	H	0.652411	0.000352	0.119713
H120	H	0.690692	-0.089951	0.060730
N121	N	0.919921	0.177903	0.496274
H122	H	0.911807	0.164965	0.546680
H123	H	0.913617	0.284349	0.482725
N124	N	0.949620	0.000504	0.573283
H125	H	0.989224	0.000534	0.612594
H126	H	0.952821	0.090802	0.543581
N127	N	0.409051	0.177814	0.007204
H128	H	0.379238	0.231897	0.038419
H129	H	0.435702	0.250702	-0.018799
N130	N	0.947410	0.000553	0.723869
H131	H	0.988009	0.000551	0.695300
H132	H	0.949717	-0.089746	0.754307
H133	H	0.703049	0.000418	0.549857
H134	H	0.731256	-0.154445	0.461452
