data_functionalizedCrystal
_audit_creation_method	'MofGen! by Chris Wilmer'
_symmetry_space_group_name_H-M	'P1'
_symmetry_Int_Tables_number	1
_symmetry_cell_setting	triclinic
loop_
_symmetry_equiv_pos_as_xyz
  x,y,z
_cell_length_a	16.109301
_cell_length_b	10.540539
_cell_length_c	14.586319
_cell_angle_alpha	89.998343
_cell_angle_beta	89.999213
_cell_angle_gamma	83.993486
loop_
_atom_site_label
_atom_site_type_symbol
_atom_site_fract_x
_atom_site_fract_y
_atom_site_fract_z
O1	O	1.104129	0.163159	-0.076178
O2	O	0.862191	0.183464	-0.076192
O3	O	0.988679	-0.011474	-0.076184
O4	O	0.977640	0.358096	-0.076186
O5	O	0.988670	-0.011477	0.076297
O6	O	0.862182	0.183461	0.076289
O7	O	1.104120	0.163156	0.076303
Cu8	Cu	0.983150	0.173308	0.090219
Cu9	Cu	0.983160	0.173312	-0.090108
O10	O	0.977631	0.358094	0.076294
C11	C	0.831206	0.182640	0.000047
C12	C	0.738896	0.180174	0.000041
C13	C	0.517296	0.290112	0.000051
C14	C	0.430561	0.287785	0.000057
C15	C	0.449021	0.056499	0.000055
C16	C	0.535754	0.058827	0.000055
C17	C	0.569889	0.175637	0.000049
C18	C	0.396421	0.170982	0.000054
C19	C	0.302380	0.168459	0.000060
C20	C	0.663936	0.178162	0.000044
C21	C	0.987847	-0.058767	0.000055
C22	C	0.985370	-0.199679	0.000050
C23	C	0.890460	-0.381753	-0.000298
C24	C	0.892971	-0.235171	0.000046
C25	C	1.029832	-0.261973	0.087127
C26	C	1.026678	-0.408472	0.087200
C27	C	1.028567	-0.409014	-0.086199
C28	C	1.029419	-0.262044	-0.087350
C29	C	1.135104	0.163980	0.000062
C30	C	1.227414	0.166446	0.000062
C31	C	0.978463	0.405386	0.000054
C32	C	0.980940	0.546299	0.000053
N33	N	0.983149	0.173305	0.217050
N34	N	0.983168	0.173305	-0.216939
C35	C	1.039177	0.087015	0.452060
C36	C	1.039179	0.087012	0.548042
C37	C	0.927134	0.259598	0.548044
C38	C	0.927129	0.259594	0.452064
C39	C	0.983154	0.173304	0.404075
C40	C	0.983163	0.173305	0.596036
C41	C	0.983165	0.173303	0.700103
C42	C	0.983151	0.173305	0.300001
H43	H	0.545085	0.385227	0.000052
H44	H	0.387743	0.381003	0.000060
Br45	Br	0.607137	-0.096544	0.000064
Br46	Br	0.402690	-0.102022	0.000060
H47	H	0.857986	-0.192068	-0.062374
Br48	Br	0.829625	-0.428545	-0.104378
H49	H	0.854105	-0.411444	0.061793
Br50	Br	0.851104	0.376704	0.613175
Br51	Br	0.834234	-0.164726	0.104247
Br52	Br	0.851087	0.376699	0.386933
H53	H	0.993812	-0.436204	0.152288
H54	H	1.093130	-0.457388	0.091154
H55	H	1.097687	-0.240586	0.090368
Br56	Br	1.115210	-0.030094	0.386936
Br57	Br	0.978345	-0.190245	0.195128
Br58	Br	0.978723	-0.460872	-0.196202
Br59	Br	0.975660	-0.192351	-0.194735
Br60	Br	1.141700	-0.223267	-0.096118
Br61	Br	1.115208	-0.030104	0.613163
Br62	Br	1.139803	-0.489311	-0.087171
