data_functionalizedCrystal
_audit_creation_method	'MofGen! by Chris Wilmer'
_symmetry_space_group_name_H-M	'P1'
_symmetry_Int_Tables_number	1
_symmetry_cell_setting	triclinic
loop_
_symmetry_equiv_pos_as_xyz
  x,y,z
_cell_length_a	14.185569
_cell_length_b	17.699083
_cell_length_c	17.699083
_cell_angle_alpha	83.283015
_cell_angle_beta	76.871494
_cell_angle_gamma	103.133031
loop_
_atom_site_label
_atom_site_type_symbol
_atom_site_fract_x
_atom_site_fract_y
_atom_site_fract_z
O1	O	0.083282	-0.986904	-0.112875
O2	O	0.083316	-0.766518	-0.125334
O3	O	0.083289	-0.882939	-0.008913
O4	O	0.083309	-0.870483	-0.229296
O5	O	-0.083553	-0.917331	0.025475
O6	O	-0.083527	-0.800910	-0.090946
O7	O	-0.083560	-1.021295	-0.078487
Cu8	Cu	-0.098777	-0.914243	-0.081577
Cu9	Cu	0.098533	-0.873571	-0.122244
O10	O	-0.083534	-0.904874	-0.194908
C11	C	-0.000101	-0.755516	-0.107695
C12	C	-0.000089	-0.671496	-0.106359
N13	N	-0.237555	-0.942855	-0.052973
C14	C	-0.000132	-0.899689	0.036478
C15	C	-0.000132	-0.898350	0.120496
C16	C	-0.605164	-0.760902	-0.234848
C17	C	-0.710190	-0.782581	-0.213186
C18	C	-0.710174	-0.885692	-0.110134
C19	C	-0.605146	-0.864020	-0.131785
C20	C	-0.552649	-0.801625	-0.194143
C21	C	-0.552631	-0.904742	-0.091079
C22	C	-0.447611	-0.883074	-0.112732
C23	C	-0.395107	-0.820683	-0.175089
C24	C	-0.447629	-0.779956	-0.215795
C25	C	-0.605130	-0.967141	-0.028725
C26	C	-0.552615	-1.007863	0.011980
C27	C	-0.447594	-0.986192	-0.009668
C28	C	-0.395089	-0.923801	-0.072026
C29	C	-0.395071	-1.026918	0.031038
C30	C	-0.290052	-1.005250	0.009386
C31	C	-0.290070	-0.902132	-0.093678
N32	N	0.237311	-0.844965	-0.150842
C33	C	-0.000141	-1.032297	-0.096127
C34	C	-0.000146	-1.116316	-0.097464
C35	C	-0.000083	-0.622874	-0.174693
C36	C	-0.000096	-0.543933	-0.173428
C37	C	-0.000108	-0.513615	-0.103829
C38	C	-0.000117	-0.562244	-0.035489
C39	C	-0.000111	-0.641184	-0.036753
C40	C	-0.000142	-0.243886	-0.030389
C41	C	-0.000145	-0.164938	-0.029130
C42	C	-0.000128	-0.146635	-0.167064
C43	C	-0.000122	-0.225575	-0.168328
C44	C	-0.000136	-0.274198	-0.099987
C45	C	-0.000123	-0.359795	-0.101359
C46	C	-0.000113	-0.428018	-0.102458
C47	C	-0.000110	-0.888124	-0.240299
C48	C	-0.000103	-0.889461	-0.324319
C49	C	-0.000144	-0.966686	0.169119
C50	C	-0.000135	-0.965422	0.248061
C51	C	-0.000121	-0.895823	0.278379
C52	C	-0.000107	-0.827481	0.229748
C53	C	-0.000108	-0.828744	0.150807
C54	C	-0.000098	-0.822384	0.548110
C55	C	-0.000099	-0.821126	0.627058
C56	C	-0.000124	-0.959061	0.645363
C57	C	-0.000126	-0.960325	0.566422
C58	C	-0.000106	-0.891983	0.517798
C59	C	-0.000114	-0.893354	0.432200
C60	C	-0.000121	-0.894452	0.363976
H61	H	-0.247325	-0.851319	-0.144451
H62	H	-0.000091	-0.504347	-0.229074
H63	H	-0.000108	-0.250255	-0.225003
C64	C	-0.720649	-0.990980	-0.004906
H65	H	-0.744393	-1.033979	0.038054
H66	H	-0.744420	-0.947535	0.010296
H67	H	-0.744402	-1.006149	-0.048375
C68	C	-0.000136	-1.036883	0.533075
H69	H	-0.000132	-1.077399	0.573338
H70	H	-0.058317	-1.052238	0.514653
H71	H	0.058054	-1.028243	0.490666
C72	C	-0.000130	-1.034235	0.698849
H73	H	-0.000114	-1.023515	0.750204
H74	H	-0.058316	-1.074773	0.701670
H75	H	0.058054	-1.050782	0.677672
H76	H	-0.000156	-0.140257	0.027549
H77	H	-0.000090	-0.764447	0.651740
C78	C	-0.000119	-0.093152	-0.242239
H79	H	-0.000098	-0.122513	-0.283872
H80	H	-0.058301	-0.073975	-0.232629
H81	H	0.058069	-0.049977	-0.256603
C82	C	-0.000095	-0.750924	0.263097
H83	H	-0.000106	-0.759960	0.317078
H84	H	0.058090	-0.710798	0.234405
H85	H	-0.058280	-0.734791	0.258393
C86	C	-0.000137	-1.040587	0.301544
H87	H	-0.000118	-1.029866	0.352898
H88	H	-0.058322	-1.081130	0.304370
H89	H	0.058049	-1.057131	0.280364
H90	H	-0.000154	-0.283466	0.025259
H91	H	-0.752930	-0.936497	-0.059362
H92	H	-0.000082	-0.766735	0.508529
H93	H	-0.404884	-0.729143	-0.266568
H94	H	-0.752943	-0.749414	-0.246340
H95	H	-0.000115	-0.680772	0.018892
H96	H	-0.595370	-1.058668	0.062751
H97	H	-0.437828	-1.077726	0.081806
C98	C	-0.000128	-0.528895	0.041068
H99	H	-0.000120	-0.474915	0.032033
H100	H	-0.058311	-0.557592	0.081192
H101	H	0.058060	-0.533593	0.057202
H102	H	-0.000161	-1.023363	0.144442
H103	H	-0.247294	-1.038412	0.042532
C104	C	-0.000067	-0.656220	-0.251252
H105	H	-0.000055	-0.710196	-0.242222
H106	H	-0.058246	-0.651522	-0.267392
H107	H	0.058125	-0.627518	-0.291373
C108	C	-0.279588	-0.796844	-0.198912
H109	H	-0.255846	-0.753856	-0.241883
H110	H	-0.255828	-0.781675	-0.155450
H111	H	-0.255822	-0.840295	-0.214116
C112	C	-0.547410	-0.692267	-0.303440
H113	H	-0.593725	-0.671116	-0.324586
H114	H	-0.506444	-0.652365	-0.284698
H115	H	-0.506441	-0.710986	-0.343362
C116	C	-0.000098	-0.753576	0.097322
H117	H	-0.000098	-0.711945	0.126685
H118	H	0.058084	-0.739209	0.054151
H119	H	-0.058287	-0.763196	0.078143
