data_functionalizedCrystal
_audit_creation_method	'MofGen! by Chris Wilmer'
_symmetry_space_group_name_H-M	'P1'
_symmetry_Int_Tables_number	1
_symmetry_cell_setting	triclinic
loop_
_symmetry_equiv_pos_as_xyz
  x,y,z
_cell_length_a	21.395362
_cell_length_b	16.625546
_cell_length_c	21.395355
_cell_angle_alpha	89.981524
_cell_angle_beta	89.956060
_cell_angle_gamma	90.038346
loop_
_atom_site_label
_atom_site_type_symbol
_atom_site_fract_x
_atom_site_fract_y
_atom_site_fract_z
Zn1	Zn	0.957895	-0.320753	-0.354586
Zn2	Zn	1.207895	-0.070753	-0.104586
Zn3	Zn	1.457895	0.179247	0.145414
Zn4	Zn	1.707895	0.429247	0.395414
Zn5	Zn	0.957813	-0.455568	-0.249808
Zn6	Zn	1.207813	-0.205568	0.000192
Zn7	Zn	1.457813	0.044432	0.250192
Zn8	Zn	1.707813	0.294432	0.500192
Zn9	Zn	0.853110	-0.320791	-0.249787
Zn10	Zn	1.103110	-0.070791	0.000213
Zn11	Zn	1.353110	0.179209	0.250213
Zn12	Zn	1.603110	0.429209	0.500213
Zn13	Zn	0.853095	-0.455585	-0.354513
Zn14	Zn	1.103095	-0.205585	-0.104513
Zn15	Zn	1.353095	0.044415	0.145487
Zn16	Zn	1.603095	0.294415	0.395487
O17	O	0.905478	-0.388174	-0.302174
O18	O	1.155478	-0.138174	-0.052174
O19	O	1.405478	0.111826	0.197826
O20	O	1.655478	0.361826	0.447826
O21	O	1.045562	-0.338614	-0.340726
O22	O	1.295562	-0.088614	-0.090726
O23	O	1.545562	0.161386	0.159274
O24	O	1.795562	0.411386	0.409274
O25	O	0.943896	-0.437699	-0.162128
O26	O	1.193896	-0.187699	0.087872
O27	O	1.443896	0.062301	0.337872
O28	O	1.693896	0.312301	0.587872
O29	O	0.867051	-0.207953	-0.263710
O30	O	1.117051	0.042047	-0.013710
O31	O	1.367051	0.292047	0.236290
O32	O	1.617051	0.542047	0.486290
O33	O	1.045502	-0.437662	-0.263747
O34	O	1.295502	-0.187662	-0.013747
O35	O	1.545502	0.062338	0.236253
O36	O	1.795502	0.312338	0.486253
O37	O	0.944036	-0.207926	-0.340706
O38	O	1.194036	0.042074	-0.090706
O39	O	1.444036	0.292074	0.159294
O40	O	1.694036	0.542074	0.409294
O41	O	0.866971	-0.338678	-0.162112
O42	O	1.116971	-0.088678	0.087888
O43	O	1.366971	0.161322	0.337888
O44	O	1.616971	0.411322	0.587888
O45	O	0.765430	-0.338694	-0.263640
O46	O	1.015430	-0.088694	-0.013640
O47	O	1.265430	0.161306	0.236360
O48	O	1.515430	0.411306	0.486360
O49	O	0.867024	-0.437690	-0.442201
O50	O	1.117024	-0.187690	-0.192201
O51	O	1.367024	0.062310	0.057799
O52	O	1.617024	0.312310	0.307799
O53	O	0.765419	-0.437727	-0.340582
O54	O	1.015419	-0.187727	-0.090582
O55	O	1.265419	0.062273	0.159418
O56	O	1.515419	0.312273	0.409418
O57	O	0.944021	-0.338630	-0.442254
O58	O	1.194021	-0.088630	-0.192254
O59	O	1.444021	0.161370	0.057746
O60	O	1.694021	0.411370	0.307746
O61	O	0.943881	-0.568403	-0.263676
O62	O	1.193881	-0.318403	-0.013676
O63	O	1.443881	-0.068403	0.236324
O64	O	1.693881	0.181597	0.486324
O65	O	0.866945	-0.568415	-0.340602
O66	O	1.116945	-0.318415	-0.090602
O67	O	1.366945	-0.068415	0.159398
O68	O	1.616945	0.181585	0.409398
C69	C	0.742691	-0.388217	-0.302101
C70	C	0.992691	-0.138217	-0.052101
C71	C	1.242691	0.111783	0.197899
C72	C	1.492691	0.361783	0.447899
C73	C	0.673049	-0.388255	-0.302085
C74	C	0.923049	-0.138255	-0.052085
C75	C	1.173049	0.111745	0.197915
C76	C	1.423049	0.361745	0.447915
C77	C	0.640347	-0.439889	-0.342088
C78	C	0.890347	-0.189889	-0.092088
C79	C	1.140347	0.060111	0.157912
C80	C	1.390347	0.310111	0.407912
C81	C	0.574911	-0.439870	-0.342116
C82	C	0.824911	-0.189870	-0.092116
C83	C	1.074911	0.060130	0.157884
C84	C	1.324911	0.310130	0.407884
C85	C	0.542181	-0.388224	-0.302129
C86	C	0.792181	-0.138224	-0.052129
C87	C	1.042181	0.111776	0.197871
C88	C	1.292181	0.361776	0.447871
C89	C	0.574892	-0.336579	-0.262123
C90	C	0.824892	-0.086579	-0.012123
C91	C	1.074892	0.163421	0.237877
C92	C	1.324892	0.413421	0.487877
C93	C	0.640326	-0.336594	-0.262101
C94	C	0.890326	-0.086594	-0.012101
C95	C	1.140326	0.163406	0.237899
C96	C	1.390326	0.413406	0.487899
C97	C	0.438456	-0.381728	-0.245724
C98	C	0.688456	-0.131728	0.004276
C99	C	0.938456	0.118272	0.254276
C100	C	1.188456	0.368272	0.504276
C101	C	0.373023	-0.381718	-0.245745
C102	C	0.623023	-0.131718	0.004255
C103	C	0.873023	0.118282	0.254255
C104	C	1.123023	0.368282	0.504255
C105	C	0.340360	-0.388171	-0.302198
C106	C	0.590360	-0.138171	-0.052198
C107	C	0.840360	0.111829	0.197802
C108	C	1.090360	0.361829	0.447802
C109	C	0.373139	-0.394651	-0.358632
C110	C	0.623139	-0.144651	-0.108632
C111	C	0.873139	0.105349	0.141368
C112	C	1.123139	0.355349	0.391368
C113	C	0.438573	-0.394666	-0.358610
C114	C	0.688573	-0.144666	-0.108610
C115	C	0.938573	0.105334	0.141390
C116	C	1.188573	0.355334	0.391390
C117	C	0.471229	-0.388201	-0.302149
C118	C	0.721229	-0.138201	-0.052149
C119	C	0.971229	0.111799	0.197851
C120	C	1.221229	0.361799	0.447851
C121	C	0.236705	-0.439787	-0.342236
C122	C	0.486705	-0.189787	-0.092236
C123	C	0.736705	0.060213	0.157764
C124	C	0.986705	0.310213	0.407764
C125	C	0.171268	-0.439762	-0.342265
C126	C	0.421268	-0.189762	-0.092265
C127	C	0.671268	0.060238	0.157735
C128	C	0.921268	0.310238	0.407735
C129	C	0.171250	-0.336475	-0.262266
C130	C	0.421250	-0.086475	-0.012266
C131	C	0.671250	0.163525	0.237734
C132	C	0.921250	0.413525	0.487734
C133	C	0.236686	-0.336496	-0.262242
C134	C	0.486686	-0.086496	-0.012242
C135	C	0.736686	0.163504	0.237758
C136	C	0.986686	0.413504	0.487758
C137	C	0.269409	-0.388157	-0.302227
C138	C	0.519409	-0.138157	-0.052227
C139	C	0.769409	0.111843	0.197773
C140	C	1.019409	0.361843	0.447773
C141	C	0.905419	-0.597665	-0.302147
C142	C	1.155419	-0.347665	-0.052147
C143	C	1.405419	-0.097665	0.197853
C144	C	1.655419	0.152335	0.447853
C145	C	0.905451	-0.687286	-0.302157
C146	C	1.155451	-0.437286	-0.052157
C147	C	1.405451	-0.187286	0.197843
C148	C	1.655451	0.062714	0.447843
C149	C	0.905560	-1.015462	-0.302222
C150	C	1.155560	-0.765462	-0.052222
C151	C	1.405560	-0.515462	0.197778
C152	C	1.655560	-0.265462	0.447778
C153	C	0.905528	-0.924153	-0.302206
C154	C	1.155528	-0.674153	-0.052206
C155	C	1.405528	-0.424153	0.197794
C156	C	1.655528	-0.174153	0.447794
C157	C	0.905505	-0.851377	-0.302189
C158	C	1.155505	-0.601377	-0.052189
C159	C	1.405505	-0.351377	0.197811
C160	C	1.655505	-0.101377	0.447811
C161	C	0.905474	-0.760063	-0.302174
C162	C	1.155474	-0.510063	-0.052174
C163	C	1.405474	-0.260063	0.197826
C164	C	1.655474	-0.010063	0.447826
C165	C	1.068902	-0.388132	-0.302247
C166	C	1.318902	-0.138132	-0.052247
C167	C	1.568902	0.111868	0.197753
C168	C	1.818902	0.361868	0.447753
C169	C	1.138543	-0.388114	-0.302278
C170	C	1.388543	-0.138114	-0.052278
C171	C	1.638543	0.111886	0.197722
C172	C	1.888543	0.361886	0.447722
C173	C	0.905530	-0.388158	-0.465597
C174	C	1.155530	-0.138158	-0.215597
C175	C	1.405530	0.111842	0.034403
C176	C	1.655530	0.361842	0.284403
C177	C	0.905552	-0.388151	-0.535238
C178	C	1.155552	-0.138151	-0.285238
C179	C	1.405552	0.111849	-0.035238
C180	C	1.655552	0.361849	0.214762
C181	C	0.905555	-0.177865	-0.302214
C182	C	1.155555	0.072135	-0.052214
C183	C	1.405555	0.322135	0.197786
C184	C	1.655555	0.572135	0.447786
C185	C	0.905588	-0.088244	-0.302231
C186	C	1.155588	0.161756	-0.052231
C187	C	1.405588	0.411756	0.197769
C188	C	1.655588	0.661756	0.447769
C189	C	0.945643	-0.336568	-0.567980
C190	C	1.195643	-0.086568	-0.317980
C191	C	1.445643	0.163432	-0.067980
C192	C	1.695643	0.413432	0.182020
C193	C	0.945642	-0.336534	-0.633416
C194	C	1.195642	-0.086534	-0.383416
C195	C	1.445642	0.163466	-0.133416
C196	C	1.695642	0.413466	0.116584
C197	C	0.905557	-0.388096	-0.666107
C198	C	1.155557	-0.138096	-0.416107
C199	C	1.405557	0.111904	-0.166107
C200	C	1.655557	0.361904	0.083893
C201	C	0.865459	-0.439683	-0.633357
C202	C	1.115459	-0.189683	-0.383357
C203	C	1.365459	0.060317	-0.133357
C204	C	1.615459	0.310317	0.116643
C205	C	0.865457	-0.439710	-0.567923
C206	C	1.115457	-0.189710	-0.317923
C207	C	1.365457	0.060290	-0.067923
C208	C	1.615457	0.310290	0.182077
C209	C	0.900589	-0.460699	-0.769771
C210	C	1.150589	-0.210699	-0.519771
C211	C	1.400589	0.039301	-0.269771
C212	C	1.650589	0.289301	-0.019771
C213	C	0.900596	-0.460672	-0.835204
C214	C	1.150596	-0.210672	-0.585204
C215	C	1.400596	0.039328	-0.335204
C216	C	1.650596	0.289328	-0.085204
C217	C	0.905561	-0.388011	-0.867927
C218	C	1.155561	-0.138011	-0.617927
C219	C	1.405561	0.111989	-0.367927
C220	C	1.655561	0.361989	-0.117927
C221	C	0.910532	-0.315373	-0.835210
C222	C	1.160532	-0.065373	-0.585210
C223	C	1.410532	0.184627	-0.335210
C224	C	1.660532	0.434627	-0.085210
C225	C	0.910530	-0.315401	-0.769776
C226	C	1.160530	-0.065401	-0.519776
C227	C	1.410530	0.184599	-0.269776
C228	C	1.660530	0.434599	-0.019776
C229	C	0.905555	-0.388072	-0.737059
C230	C	1.155555	-0.138072	-0.487059
C231	C	1.405555	0.111928	-0.237059
C232	C	1.655555	0.361928	0.012941
C233	C	0.945653	-0.336386	-0.971622
C234	C	1.195653	-0.086386	-0.721622
C235	C	1.445653	0.163614	-0.471622
C236	C	1.695653	0.413614	-0.221622
C237	C	0.945648	-0.336350	-1.037059
C238	C	1.195648	-0.086350	-0.787059
C239	C	1.445648	0.163650	-0.537059
C240	C	1.695648	0.413650	-0.287059
C241	C	0.865468	-0.439506	-1.036999
C242	C	1.115468	-0.189506	-0.786999
C243	C	1.365468	0.060494	-0.536999
C244	C	1.615468	0.310494	-0.286999
C245	C	0.865470	-0.439535	-0.971563
C246	C	1.115470	-0.189535	-0.721563
C247	C	1.365470	0.060465	-0.471563
C248	C	1.615470	0.310465	-0.221563
C249	C	0.905566	-0.387976	-0.938879
C250	C	1.155566	-0.137976	-0.688879
C251	C	1.405566	0.112024	-0.438879
C252	C	1.655566	0.362024	-0.188879
C253	C	0.905463	-0.388132	-0.139386
C254	C	1.155463	-0.138132	0.110614
C255	C	1.405463	0.111868	0.360614
C256	C	1.655463	0.361868	0.610614
C257	C	0.905562	-0.387912	-0.069745
C258	C	1.155562	-0.137912	0.180255
C259	C	1.405562	0.112088	0.430255
C260	C	1.655562	0.362088	0.680255
H261	H	0.548279	-0.481916	-0.374694
H262	H	0.798279	-0.231916	-0.124694
H263	H	1.048279	0.018084	0.125306
H264	H	1.298279	0.268084	0.375306
N265	N	0.822220	-0.495284	-0.668620
N266	N	1.072220	-0.245284	-0.418620
N267	N	1.322220	0.004716	-0.168620
N268	N	1.572220	0.254716	0.081380
H269	H	0.847667	-0.532633	-0.695789
H270	H	1.097667	-0.282633	-0.445789
H271	H	1.347667	-0.032633	-0.195789
H272	H	1.597667	0.217367	0.054211
H273	H	0.796825	-0.527914	-0.637912
H274	H	1.046825	-0.277914	-0.387912
H275	H	1.296825	-0.027914	-0.137912
H276	H	1.546825	0.222086	0.112088
N277	N	0.988894	-0.280778	-0.936364
N278	N	1.238894	-0.030778	-0.686364
N279	N	1.488894	0.219222	-0.436364
N280	N	1.738894	0.469222	-0.186364
H281	H	1.014289	-0.248089	-0.967038
H282	H	1.264289	0.001911	-0.717038
H283	H	1.514289	0.251911	-0.467038
H284	H	1.764289	0.501911	-0.217038
H285	H	0.963404	-0.243484	-0.909193
H286	H	1.213404	0.006516	-0.659193
H287	H	1.463404	0.256516	-0.409193
H288	H	1.713404	0.506516	-0.159193
H289	H	0.978293	-0.294340	-1.063716
H290	H	1.228293	-0.044340	-0.813716
H291	H	1.478293	0.205660	-0.563716
H292	H	1.728293	0.455660	-0.313716
N293	N	0.915878	-0.237061	-0.734490
N294	N	1.165878	0.012939	-0.484490
N295	N	1.415878	0.262939	-0.234490
N296	N	1.665878	0.512939	0.015510
H297	H	0.915122	-0.248107	-0.688073
H298	H	1.165122	0.001893	-0.438073
H299	H	1.415122	0.251893	-0.188073
H300	H	1.665122	0.501893	0.061927
H301	H	0.956435	-0.209639	-0.745953
H302	H	1.206435	0.040361	-0.495953
H303	H	1.456435	0.290361	-0.245953
H304	H	1.706435	0.540361	0.004047
H305	H	0.978287	-0.294524	-0.660079
H306	H	1.228287	-0.044524	-0.410079
H307	H	1.478287	0.205476	-0.160079
H308	H	1.728287	0.455476	0.089921
N309	N	0.895241	-0.539076	-0.734480
N310	N	1.145241	-0.289076	-0.484480
N311	N	1.395241	-0.039076	-0.234480
N312	N	1.645241	0.210924	0.015520
H313	H	0.895992	-0.528073	-0.688064
H314	H	1.145992	-0.278073	-0.438064
H315	H	1.395992	-0.028073	-0.188064
H316	H	1.645992	0.221927	0.061936
H317	H	0.854685	-0.566486	-0.745888
H318	H	1.104685	-0.316486	-0.495888
H319	H	1.354685	-0.066486	-0.245888
H320	H	1.604685	0.183514	0.004112
H321	H	0.144643	-0.481807	-0.374844
H322	H	0.394643	-0.231807	-0.124844
H323	H	0.644643	0.018193	0.125156
H324	H	0.894643	0.268193	0.375156
N325	N	0.539592	-0.280882	-0.218989
N326	N	0.789592	-0.030882	0.031011
N327	N	1.039592	0.219118	0.281011
N328	N	1.289592	0.469118	0.531011
H329	H	0.570241	-0.248173	-0.193642
H330	H	0.820241	0.001827	0.056358
H331	H	1.070241	0.251827	0.306358
H332	H	1.320241	0.501827	0.556358
H333	H	0.512494	-0.243611	-0.244553
H334	H	0.762494	0.006389	0.005447
H335	H	1.012494	0.256389	0.255447
H336	H	1.262494	0.506389	0.505447
N337	N	0.822227	-0.495115	-1.072248
N338	N	1.072227	-0.245115	-0.822248
N339	N	1.322227	0.004885	-0.572248
N340	N	1.572227	0.254885	-0.322248
H341	H	0.828310	-0.487270	-1.118670
H342	H	1.078310	-0.237270	-0.868670
H343	H	1.328310	0.012730	-0.618670
H344	H	1.578310	0.262730	-0.368670
H345	H	0.831956	-0.552704	-1.060820
H346	H	1.081956	-0.302704	-0.810820
H347	H	1.331956	-0.052704	-0.560820
H348	H	1.581956	0.197296	-0.310820
N349	N	0.337921	-0.401616	-0.419527
N350	N	0.587921	-0.151616	-0.169527
N351	N	0.837921	0.098384	0.080473
N352	N	1.087921	0.348384	0.330473
H353	H	0.291496	-0.400619	-0.410981
H354	H	0.541496	-0.150619	-0.160981
H355	H	0.791496	0.099381	0.089019
H356	H	1.041496	0.349381	0.339019
H357	H	0.349424	-0.355045	-0.447599
H358	H	0.599424	-0.105045	-0.197599
H359	H	0.849424	0.144955	0.052401
H360	H	1.099424	0.394955	0.302401
N361	N	0.473923	-0.401644	-0.419475
N362	N	0.723923	-0.151644	-0.169475
N363	N	0.973923	0.098356	0.080525
N364	N	1.223923	0.348356	0.330525
H365	H	0.501110	-0.352542	-0.425407
H366	H	0.751110	-0.102542	-0.175407
H367	H	1.001110	0.147458	0.074593
H368	H	1.251110	0.397458	0.324593
H369	H	0.501002	-0.451363	-0.418516
H370	H	0.751002	-0.201363	-0.168516
H371	H	1.001002	0.048637	0.081484
H372	H	1.251002	0.298637	0.331484
H373	H	0.832807	-0.481714	-0.541264
H374	H	1.082807	-0.231714	-0.291264
H375	H	1.332807	0.018286	-0.041264
H376	H	1.582807	0.268286	0.208736
H377	H	0.914576	-0.256205	-0.861853
H378	H	1.164576	-0.006205	-0.611853
H379	H	1.414576	0.243795	-0.361853
H380	H	1.664576	0.493795	-0.111853
N381	N	0.135958	-0.280764	-0.219141
N382	N	0.385958	-0.030764	0.030859
N383	N	0.635958	0.219236	0.280859
N384	N	0.885958	0.469236	0.530859
H385	H	0.089543	-0.288586	-0.225225
H386	H	0.339543	-0.038586	0.024775
H387	H	0.589543	0.211414	0.274775
H388	H	0.839543	0.461414	0.524775
H389	H	0.147336	-0.293230	-0.174371
H390	H	0.397336	-0.043230	0.075629
H391	H	0.647336	0.206770	0.325629
H392	H	0.897336	0.456770	0.575629
N393	N	0.822219	-0.495158	-0.936244
N394	N	1.072219	-0.245158	-0.686244
N395	N	1.322219	0.004842	-0.436244
N396	N	1.572219	0.254842	-0.186244
H397	H	0.796821	-0.527814	-0.966880
H398	H	1.046821	-0.277814	-0.716880
H399	H	1.296821	-0.027814	-0.466880
H400	H	1.546821	0.222186	-0.216880
H401	H	0.847696	-0.532483	-0.909106
H402	H	1.097696	-0.282483	-0.659106
H403	H	1.347696	-0.032483	-0.409106
H404	H	1.597696	0.217517	-0.159106
N405	N	0.895237	-0.539011	-0.870490
N406	N	1.145237	-0.289011	-0.620490
N407	N	1.395237	-0.039011	-0.370490
N408	N	1.645237	0.210989	-0.120490
H409	H	0.931449	-0.575095	-0.859127
H410	H	1.181449	-0.325095	-0.609127
H411	H	1.431449	-0.075095	-0.359127
H412	H	1.681449	0.174905	-0.109127
H413	H	0.854654	-0.566391	-0.859061
H414	H	1.104654	-0.316391	-0.609061
H415	H	1.354654	-0.066391	-0.359061
H416	H	1.604654	0.183609	-0.109061
H417	H	0.666986	-0.481954	-0.374647
H418	H	0.916986	-0.231954	-0.124647
H419	H	1.166986	0.018046	0.125353
H420	H	1.416986	0.268046	0.375353
H421	H	0.263350	-0.481848	-0.374796
H422	H	0.513350	-0.231848	-0.124796
H423	H	0.763350	0.018152	0.125204
H424	H	1.013350	0.268152	0.375204
N425	N	0.271955	-0.280798	-0.219093
N426	N	0.521955	-0.030798	0.030907
N427	N	0.771955	0.219202	0.280907
N428	N	1.021955	0.469202	0.530907
H429	H	0.260510	-0.293229	-0.174312
H430	H	0.510510	-0.043229	0.075688
H431	H	0.760510	0.206771	0.325688
H432	H	1.010510	0.456771	0.575688
H433	H	0.318363	-0.288663	-0.225198
H434	H	0.568363	-0.038663	0.024802
H435	H	0.818363	0.211337	0.274802
H436	H	1.068363	0.461337	0.524802
N437	N	0.337671	-0.374736	-0.184881
N438	N	0.587671	-0.124736	0.065119
N439	N	0.837671	0.125264	0.315119
N440	N	1.087671	0.375264	0.565119
H441	H	0.368290	-0.370641	-0.149116
H442	H	0.618290	-0.120641	0.100884
H443	H	0.868290	0.129359	0.350884
H444	H	1.118290	0.379359	0.600884
H445	H	0.310554	-0.325051	-0.185864
H446	H	0.560554	-0.075051	0.064136
H447	H	0.810554	0.174949	0.314136
H448	H	1.060554	0.424949	0.564136
H449	H	0.465044	-0.376470	-0.199750
H450	H	0.715044	-0.126470	0.050250
H451	H	0.965044	0.123530	0.300250
H452	H	1.215044	0.373530	0.550250
H453	H	0.666952	-0.294545	-0.229525
H454	H	0.916952	-0.044545	0.020475
H455	H	1.166952	0.205455	0.270475
H456	H	1.416952	0.455455	0.520475
H457	H	0.978291	-0.294584	-0.541373
H458	H	1.228291	-0.044584	-0.291373
H459	H	1.478291	0.205416	-0.041373
H460	H	1.728291	0.455416	0.208627
