data_functionalizedCrystal
_audit_creation_method	'MofGen! by Chris Wilmer'
_symmetry_space_group_name_H-M	'P1'
_symmetry_Int_Tables_number	1
_symmetry_cell_setting	triclinic
loop_
_symmetry_equiv_pos_as_xyz
  x,y,z
_cell_length_a	25.639242
_cell_length_b	25.639234
_cell_length_c	18.050589
_cell_angle_alpha	89.981527
_cell_angle_beta	90.020525
_cell_angle_gamma	89.978465
loop_
_atom_site_label
_atom_site_type_symbol
_atom_site_fract_x
_atom_site_fract_y
_atom_site_fract_z
Zn1	Zn	0.799300	-0.295657	-0.295857
Zn2	Zn	0.799229	-0.208231	-0.420041
Zn3	Zn	0.711865	-0.208233	-0.295853
Zn4	Zn	0.711838	-0.295633	-0.419993
O5	O	0.755558	-0.251938	-0.357936
O6	O	0.872456	-0.284069	-0.312352
O7	O	0.787621	-0.135066	-0.403585
O8	O	0.723506	-0.219840	-0.191929
O9	O	0.872403	-0.219837	-0.403590
O10	O	0.787743	-0.284070	-0.191932
O11	O	0.723436	-0.135067	-0.312345
O12	O	0.638697	-0.219817	-0.312298
O13	O	0.723458	-0.368801	-0.403508
O14	O	0.638676	-0.284030	-0.403504
O15	O	0.787716	-0.368819	-0.312306
O16	O	0.787594	-0.219814	-0.523959
O17	O	0.723388	-0.284028	-0.523924
C18	C	0.619715	-0.251921	-0.357896
C19	C	0.561601	-0.251926	-0.357897
C20	C	0.310443	-0.285444	-0.310513
C21	C	0.365048	-0.285441	-0.310506
O22	O	0.393314	-0.313936	-0.270186
N23	N	0.392327	-0.251944	-0.357927
C24	C	0.365000	-0.218451	-0.405365
O25	O	0.393218	-0.189959	-0.445700
C26	C	0.310397	-0.218457	-0.405375
C27	C	0.283120	-0.251953	-0.357945
C28	C	0.283166	-0.318938	-0.263088
C29	C	0.228566	-0.318940	-0.263094
C30	C	0.201242	-0.285449	-0.310526
C31	C	0.228519	-0.251955	-0.357952
C32	C	0.283071	-0.184968	-0.452816
C33	C	0.228463	-0.184977	-0.452823
C34	C	0.201186	-0.218472	-0.405393
C35	C	0.146595	-0.218466	-0.405390
N36	N	0.119315	-0.251963	-0.357969
C37	C	0.146639	-0.285455	-0.310537
C38	C	0.479671	-0.218442	-0.405340
C39	C	0.534273	-0.218433	-0.405326
C40	C	0.534317	-0.285424	-0.310468
C41	C	0.479713	-0.285430	-0.310479
C42	C	0.452391	-0.251939	-0.357918
C43	C	0.031974	-0.285456	-0.310554
C44	C	-0.022632	-0.285454	-0.310562
C45	C	-0.022671	-0.218465	-0.405423
C46	C	0.031930	-0.218465	-0.405412
C47	C	0.059251	-0.251965	-0.357975
O48	O	0.118294	-0.189988	-0.445692
O49	O	0.118415	-0.313947	-0.270215
C50	C	0.755592	-0.388311	-0.357902
C51	C	0.755606	-0.446425	-0.357888
C52	C	0.722200	-0.806795	-0.310290
C53	C	0.722203	-0.861399	-0.310277
O54	O	0.693773	-0.889641	-0.269890
N55	N	0.755624	-0.888708	-0.357771
C56	C	0.789041	-0.861410	-0.405288
O57	O	0.817468	-0.889652	-0.445684
C58	C	0.789035	-0.806806	-0.405304
C59	C	0.755615	-0.779500	-0.357801
C60	C	0.688782	-0.779488	-0.262792
C61	C	0.688780	-0.724888	-0.262805
C62	C	0.722196	-0.697594	-0.310316
C63	C	0.755613	-0.724900	-0.357814
C64	C	0.822448	-0.779509	-0.452824
C65	C	0.822439	-0.724902	-0.452837
C66	C	0.789020	-0.697596	-0.405334
C67	C	0.789026	-0.643005	-0.405338
N68	N	0.755605	-0.615696	-0.357843
C69	C	0.722190	-0.642990	-0.310332
C70	C	0.789050	-0.976080	-0.405250
C71	C	0.789059	-1.030683	-0.405230
C72	C	0.722220	-1.030668	-0.310220
C73	C	0.722214	-0.976065	-0.310237
C74	C	0.755628	-0.948771	-0.357755
C75	C	0.722189	-0.528325	-0.310362
C76	C	0.722191	-0.473720	-0.310377
C77	C	0.789028	-0.473739	-0.405389
C78	C	0.789027	-0.528339	-0.405372
C79	C	0.755604	-0.555631	-0.357856
O80	O	0.817440	-0.614728	-0.445707
O81	O	0.693763	-0.614741	-0.269949
C82	C	0.891931	-0.251955	-0.357977
C83	C	0.950045	-0.251963	-0.357994
C84	C	0.755495	-0.251929	-0.550888
C85	C	0.755516	-0.251943	-0.633434
C86	C	0.755554	-0.116096	-0.357916
C87	C	0.755641	-0.057982	-0.357721
C88	C	0.720635	-0.286850	-0.832892
C89	C	0.707889	-0.239141	-0.882324
C90	C	0.755567	-0.251950	-0.784564
C91	C	0.768339	-0.299665	-0.882214
C92	C	0.755616	-0.251961	-0.930549
C93	C	0.742796	-0.204215	-0.832909
C94	C	0.803268	-0.264772	-0.832794
C95	C	0.790540	-0.217029	-0.882204
C96	C	0.755538	-0.251945	-0.700466
C97	C	0.755645	-0.251961	-1.014646
C98	C	0.755636	-0.251958	-0.164230
C99	C	0.755669	-0.251967	-0.081685
H100	H	0.556477	-0.191152	-0.443941
H101	H	0.820102	-0.187486	-0.903719
H102	H	0.661565	-0.702660	-0.224126
C103	C	0.652024	-0.809506	-0.210521
C104	C	0.610958	-0.847029	-0.242659
C105	C	0.574200	-0.877041	-0.190379
C106	C	0.578507	-0.869530	-0.105960
C107	C	0.619575	-0.832005	-0.073816
C108	C	0.656333	-0.801993	-0.126097
H109	H	0.607768	-0.852591	-0.305155
H110	H	0.543799	-0.904820	-0.214174
H111	H	0.551297	-0.891747	-0.067259
H112	H	0.622765	-0.826443	-0.011320
H113	H	0.686734	-0.774214	-0.102302
C114	C	0.825785	-0.558388	-0.457620
C115	C	0.803093	-0.595908	-0.515904
C116	C	0.839844	-0.625956	-0.568159
C117	C	0.899285	-0.618482	-0.562131
C118	C	0.921980	-0.580960	-0.503845
C119	C	0.885230	-0.550912	-0.451589
H120	H	0.759088	-0.601442	-0.520369
H121	H	0.823043	-0.653732	-0.611306
H122	H	0.926490	-0.640725	-0.600813
H123	H	0.965985	-0.575426	-0.499380
H124	H	0.902030	-0.523136	-0.408442
H125	H	0.816235	-0.451506	-0.444069
C126	C	0.449711	-0.322279	-0.258310
C127	C	0.457252	-0.381707	-0.264487
C128	C	0.427252	-0.418558	-0.212318
C129	C	0.389712	-0.395981	-0.153971
C130	C	0.382170	-0.336549	-0.147792
C131	C	0.412169	-0.299698	-0.199961
H132	H	0.485042	-0.398423	-0.307681
H133	H	0.432836	-0.462554	-0.216892
H134	H	0.367505	-0.423261	-0.115352
H135	H	0.354379	-0.319833	-0.104598
H136	H	0.406586	-0.255703	-0.195387
C137	C	0.449618	-0.181593	-0.457519
C138	C	0.412082	-0.204174	-0.515884
C139	C	0.382033	-0.167326	-0.568062
C140	C	0.389519	-0.107896	-0.561875
C141	C	0.427057	-0.085312	-0.503508
C142	C	0.457106	-0.122160	-0.451330
H143	H	0.406539	-0.248170	-0.520465
H144	H	0.354245	-0.184045	-0.611269
H145	H	0.367275	-0.080619	-0.600501
H146	H	0.432600	-0.041315	-0.498926
H147	H	0.484894	-0.105441	-0.408122
H148	H	0.667572	-0.228306	-0.904097
C149	C	0.728169	-0.149690	-0.803779
C150	C	0.725421	-0.139614	-0.719773
C151	C	0.710795	-0.085090	-0.690642
C152	C	0.698918	-0.040642	-0.745517
C153	C	0.701665	-0.050717	-0.829529
C154	C	0.716291	-0.105241	-0.858660
H155	H	0.734214	-0.172518	-0.679146
H156	H	0.708762	-0.077632	-0.628450
H157	H	0.688091	-0.000281	-0.723952
H158	H	0.692873	-0.017813	-0.870155
H159	H	0.718325	-0.112699	-0.920851
C160	C	0.685457	-1.060698	-0.257961
C161	C	0.644402	-1.098220	-0.290128
C162	C	0.607642	-1.128251	-0.237872
C163	C	0.611938	-1.120760	-0.153448
C164	C	0.652995	-1.083236	-0.121276
C165	C	0.689755	-1.053205	-0.173532
H166	H	0.641221	-1.103767	-0.352628
H167	H	0.577249	-1.156029	-0.261688
H168	H	0.584726	-1.142990	-0.114764
H169	H	0.656176	-1.077689	-0.058776
H170	H	0.720148	-1.025427	-0.149716
H171	H	0.305407	-0.346213	-0.224462
H172	H	-0.044838	-0.312730	-0.271935
H173	H	0.695001	-0.953836	-0.271555
C174	C	0.825828	-1.060714	-0.457475
C175	C	0.821531	-1.053191	-0.541901
C176	C	0.858302	-1.083219	-0.594150
C177	C	0.899369	-1.120769	-0.561974
C178	C	0.903669	-1.128294	-0.477544
C179	C	0.866898	-1.098266	-0.425294
H180	H	0.791129	-1.025393	-0.565724
H181	H	0.855119	-1.077649	-0.656651
H182	H	0.926589	-1.142998	-0.600652
H183	H	0.934071	-1.156092	-0.453721
H184	H	0.870081	-1.103836	-0.362794
C185	C	0.198409	-0.148134	-0.505006
C186	C	0.205894	-0.088703	-0.498830
C187	C	0.175841	-0.051860	-0.551010
C188	C	0.138303	-0.074446	-0.609367
C189	C	0.130816	-0.133880	-0.615546
C190	C	0.160869	-0.170724	-0.563365
H191	H	0.233684	-0.071980	-0.455628
H192	H	0.181384	-0.007863	-0.546436
H193	H	0.116055	-0.047173	-0.647994
H194	H	0.103026	-0.150603	-0.658748
H195	H	0.155326	-0.214720	-0.567940
C196	C	0.685426	-0.443684	-0.258123
C197	C	0.648667	-0.473711	-0.205867
C198	C	0.611902	-0.443678	-0.153617
C199	C	0.611895	-0.383616	-0.153623
C200	C	0.648655	-0.353585	-0.205881
C201	C	0.685420	-0.383619	-0.258131
H202	H	0.648671	-0.518176	-0.205861
H203	H	0.584691	-0.465909	-0.114932
H204	H	0.584680	-0.361383	-0.114944
H205	H	0.648651	-0.309121	-0.205887
H206	H	0.712632	-0.361387	-0.296816
C207	C	0.680672	-0.326665	-0.803631
C208	C	0.622512	-0.320697	-0.823217
C209	C	0.582548	-0.360508	-0.793953
C210	C	0.600744	-0.406287	-0.745105
C211	C	0.658907	-0.412256	-0.725516
C212	C	0.698870	-0.372445	-0.754780
H213	H	0.609040	-0.286808	-0.859380
H214	H	0.539493	-0.356089	-0.808454
H215	H	0.571161	-0.435757	-0.723442
H216	H	0.672379	-0.446146	-0.689353
H217	H	0.741926	-0.376865	-0.740279
H218	H	0.305270	-0.157692	-0.491439
C219	C	0.857719	-0.279439	-0.803375
C220	C	0.881687	-0.332794	-0.822764
C221	C	0.936139	-0.347468	-0.793342
C222	C	0.966622	-0.308786	-0.744532
C223	C	0.942654	-0.255427	-0.725140
C224	C	0.888203	-0.240753	-0.754561
H225	H	0.859122	-0.361432	-0.858899
H226	H	0.953881	-0.386969	-0.807698
H227	H	1.006930	-0.319649	-0.722752
H228	H	0.965220	-0.226789	-0.689005
H229	H	0.870460	-0.201253	-0.740206
C230	C	0.685425	-0.558341	-0.258091
C231	C	0.625986	-0.550807	-0.264129
C232	C	0.589226	-0.580823	-0.211855
C233	C	0.611906	-0.618372	-0.153543
C234	C	0.671349	-0.625908	-0.147503
C235	C	0.708109	-0.595892	-0.199777
H236	H	0.609194	-0.523009	-0.307297
H237	H	0.545222	-0.575244	-0.216326
H238	H	0.584694	-0.640592	-0.114847
H239	H	0.688141	-0.653706	-0.104335
H240	H	0.752112	-0.601471	-0.195306
H241	H	-0.044927	-0.191195	-0.444038
C242	C	0.782909	-0.354171	-0.911474
C243	C	0.748700	-0.401584	-0.892001
C244	C	0.763266	-0.456091	-0.921258
C245	C	0.812040	-0.463184	-0.969989
C246	C	0.846253	-0.415769	-0.989464
C247	C	0.831687	-0.361263	-0.960207
H248	H	0.712591	-0.396335	-0.855926
H249	H	0.737939	-0.491190	-0.906841
H250	H	0.822823	-0.503533	-0.991647
H251	H	0.882362	-0.421018	-1.025540
H252	H	0.857014	-0.326163	-0.974625
H253	H	0.054212	-0.312735	-0.271925
H254	H	0.206362	-0.346218	-0.224475
C255	C	0.825816	-0.946061	-0.457516
C256	C	0.885255	-0.953594	-0.451461
C257	C	0.922022	-0.923578	-0.503727
C258	C	0.899349	-0.886031	-0.562047
C259	C	0.839906	-0.878496	-0.568103
C260	C	0.803140	-0.908512	-0.515838
H261	H	0.902042	-0.981390	-0.408288
H262	H	0.966025	-0.929156	-0.499243
H263	H	0.926565	-0.863812	-0.600737
H264	H	0.823120	-0.850700	-0.611277
H265	H	0.759137	-0.902934	-0.520321
H266	H	0.556574	-0.312695	-0.271846
H267	H	0.849654	-0.702683	-0.491528
H268	H	0.054140	-0.191186	-0.444027
H269	H	0.849662	-0.801732	-0.491506
