data_functionalizedCrystal
_audit_creation_method	'MofGen! by Chris Wilmer'
_symmetry_space_group_name_H-M	'P1'
_symmetry_Int_Tables_number	1
_symmetry_cell_setting	triclinic
loop_
_symmetry_equiv_pos_as_xyz
  x,y,z
_cell_length_a	14.044191
_cell_length_b	14.853567
_cell_length_c	13.330367
_cell_angle_alpha	89.999156
_cell_angle_beta	89.994894
_cell_angle_gamma	88.413353
loop_
_atom_site_label
_atom_site_type_symbol
_atom_site_fract_x
_atom_site_fract_y
_atom_site_fract_z
O1	O	1.257999	0.217402	-0.083359
O2	O	0.982019	0.209552	-0.083372
O3	O	1.127381	0.082832	-0.083368
O4	O	1.112637	0.344123	-0.083363
O5	O	1.127360	0.082827	0.083479
O6	O	0.981998	0.209547	0.083475
O7	O	1.257978	0.217398	0.083488
Cu8	Cu	1.119986	0.213472	0.098716
Cu9	Cu	1.120011	0.213478	-0.098600
O10	O	1.112616	0.344118	0.083484
C11	C	0.946689	0.206115	0.000050
C12	C	0.841450	0.195871	0.000044
C13	C	1.126702	0.049188	0.000052
C14	C	1.124700	-0.051055	0.000044
C15	C	1.029890	-0.471103	0.000058
C16	C	1.202583	-0.478697	0.000066
C17	C	1.204465	-0.384514	0.000061
C18	C	1.119059	-0.333621	0.000055
C19	C	1.031770	-0.376911	0.000055
C20	C	1.291753	-0.341218	0.000071
C21	C	1.293639	-0.247029	0.000066
C22	C	1.208231	-0.196134	0.000053
C23	C	1.120938	-0.239429	0.000052
C24	C	1.035532	-0.188536	0.000047
C25	C	0.948238	-0.231830	0.000039
C26	C	0.946362	-0.326016	0.000043
C27	C	1.210107	-0.101948	0.000049
C28	C	1.037411	-0.094344	0.000044
C29	C	0.591235	0.249797	0.000055
C30	C	0.648768	0.177157	0.000052
C31	C	0.755986	0.187572	0.000048
C32	C	0.484006	0.239383	0.000060
C33	C	1.293307	0.220834	0.000064
C34	C	1.398547	0.231079	0.000063
C35	C	1.113295	0.377762	0.000062
C36	C	1.115296	0.478004	0.000064
N37	N	1.119975	0.213468	0.237498
N38	N	1.120029	0.213475	-0.237381
C39	C	1.055642	0.269565	0.710119
C40	C	1.184405	0.157385	0.710090
C41	C	1.184395	0.157381	0.605072
C42	C	1.120008	0.213471	0.552572
C43	C	1.055631	0.269565	0.605091
C44	C	1.248776	0.101296	0.552546
C45	C	1.248769	0.101290	0.447521
C46	C	1.184377	0.157376	0.395019
C47	C	1.119997	0.213472	0.447544
C48	C	1.055610	0.269561	0.395044
C49	C	0.991224	0.325653	0.447567
C50	C	0.991239	0.325651	0.552589
C51	C	1.184362	0.157378	0.289997
C52	C	1.055599	0.269562	0.290016
H53	H	0.878700	-0.190380	0.000041
H54	H	0.967862	-0.052913	0.000035
N55	N	1.383869	-0.396098	0.000070
H56	H	1.421937	-0.381371	0.061924
H57	H	1.369360	-0.462316	0.000026
H58	H	1.272117	-0.520140	0.000079
H59	H	0.617500	0.107145	-0.000020
H60	H	1.301203	0.055633	0.595294
N61	N	1.304248	-0.055254	0.000070
H62	H	1.308894	-0.016344	-0.061779
H63	H	1.308797	-0.016396	0.061963
H64	H	0.958817	-0.506356	0.000048
N65	N	1.253777	0.096865	0.233350
H66	H	1.243993	0.105367	0.158853
H67	H	1.321045	0.112715	0.251679
N68	N	1.387789	-0.200345	0.000071
H69	H	1.425216	-0.218403	-0.061777
H70	H	1.375948	-0.132968	0.000104
N71	N	0.632642	0.342531	0.000051
H72	H	0.704476	0.336919	0.000045
H73	H	0.610531	0.376349	-0.061804
N74	N	0.986144	0.330052	0.233394
H75	H	0.945361	0.365580	0.282605
H76	H	1.022476	0.372856	0.189812
H77	H	0.875292	-0.361274	0.000037
H78	H	0.938804	0.371326	0.404810
N79	N	0.921800	0.386144	0.609237
H80	H	0.931581	0.377635	0.683733
H81	H	0.932827	0.450995	0.590875
N82	N	0.986195	0.330056	0.766759
H83	H	0.995965	0.321546	0.841257
H84	H	0.997222	0.394907	0.748400
H85	H	1.236832	0.111723	0.752839
N86	N	1.318207	0.040795	0.390874
H87	H	1.358997	0.005264	0.440070
H88	H	1.281859	-0.002007	0.347313
