data_functionalizedCrystal
_audit_creation_method	'MofGen! by Chris Wilmer'
_symmetry_space_group_name_H-M	'P1'
_symmetry_Int_Tables_number	1
_symmetry_cell_setting	triclinic
loop_
_symmetry_equiv_pos_as_xyz
  x,y,z
_cell_length_a	21.395362
_cell_length_b	18.050589
_cell_length_c	21.395355
_cell_angle_alpha	89.987098
_cell_angle_beta	89.956060
_cell_angle_gamma	90.044101
loop_
_atom_site_label
_atom_site_type_symbol
_atom_site_fract_x
_atom_site_fract_y
_atom_site_fract_z
Zn1	Zn	0.957870	-0.295431	-0.354610
Zn2	Zn	1.457870	0.204569	0.145390
Zn3	Zn	0.957777	-0.419603	-0.249843
Zn4	Zn	1.457777	0.080397	0.250157
Zn5	Zn	0.853085	-0.295465	-0.249811
Zn6	Zn	1.353085	0.204535	0.250189
Zn7	Zn	0.853059	-0.419618	-0.354548
Zn8	Zn	1.353059	0.080382	0.145452
O9	O	0.905448	-0.357529	-0.302203
O10	O	1.405448	0.142471	0.197797
O11	O	1.045536	-0.311882	-0.340752
O12	O	1.545536	0.188118	0.159248
O13	O	0.943862	-0.403144	-0.162161
O14	O	1.443862	0.096856	0.337839
O15	O	0.867035	-0.191536	-0.263726
O16	O	1.367035	0.308464	0.236274
O17	O	1.045468	-0.403110	-0.263780
O18	O	1.545468	0.096890	0.236220
O19	O	0.944020	-0.191511	-0.340721
O20	O	1.444020	0.308489	0.159279
O21	O	0.866945	-0.311940	-0.162138
O22	O	1.366945	0.188060	0.337862
O23	O	0.765404	-0.311955	-0.263665
O24	O	1.265404	0.188045	0.236335
O25	O	0.866990	-0.403136	-0.442234
O26	O	1.366990	0.096864	0.057766
O27	O	0.765385	-0.403170	-0.340615
O28	O	1.265385	0.096830	0.159385
O29	O	0.943995	-0.311896	-0.442280
O30	O	1.443995	0.188104	0.057720
O31	O	0.943836	-0.523529	-0.263719
O32	O	1.443836	-0.023529	0.236281
O33	O	0.866900	-0.523540	-0.340645
O34	O	1.366900	-0.023540	0.159355
C35	C	0.742660	-0.357568	-0.302130
C36	C	1.242660	0.142432	0.197870
C37	C	0.673019	-0.357603	-0.302114
C38	C	1.173019	0.142397	0.197886
C39	C	0.905372	-0.550481	-0.302192
C40	C	1.405372	-0.050481	0.197808
C41	C	0.905397	-0.633027	-0.302209
C42	C	1.405397	-0.133027	0.197791
C43	C	0.640312	-0.405161	-0.342121
C44	C	1.140312	0.094839	0.157879
C45	C	0.574877	-0.405143	-0.342149
C46	C	1.074877	0.094857	0.157851
C47	C	0.542151	-0.357574	-0.302159
C48	C	1.042151	0.142426	0.197841
C49	C	0.574865	-0.310007	-0.262148
C50	C	1.074865	0.189993	0.237852
C51	C	0.640300	-0.310021	-0.262126
C52	C	1.140300	0.189979	0.237874
C53	C	0.438426	-0.351592	-0.245753
C54	C	0.938426	0.148408	0.254247
C55	C	0.372993	-0.351583	-0.245774
C56	C	0.872993	0.148417	0.254226
C57	C	0.340330	-0.357526	-0.302228
C58	C	0.840330	0.142474	0.197772
C59	C	0.373108	-0.363494	-0.358662
C60	C	0.873108	0.136506	0.141338
C61	C	0.438542	-0.363508	-0.358640
C62	C	0.938542	0.136492	0.141360
C63	C	0.471198	-0.357553	-0.302179
C64	C	0.971198	0.142447	0.197821
C65	C	0.236671	-0.405067	-0.342269
C66	C	0.736671	0.094933	0.157731
C67	C	0.171234	-0.405044	-0.342298
C68	C	0.671234	0.094956	0.157702
C69	C	0.171224	-0.309911	-0.262291
C70	C	0.671224	0.190089	0.237709
C71	C	0.236659	-0.309931	-0.262268
C72	C	0.736659	0.190069	0.237732
C73	C	0.269379	-0.357513	-0.302256
C74	C	0.769379	0.142487	0.197744
C75	C	0.863601	-0.832511	-0.344027
C76	C	1.363601	-0.332511	0.155973
C77	C	0.848322	-0.881943	-0.286848
C78	C	1.348322	-0.381943	0.213152
C79	C	0.905459	-0.784157	-0.302217
C80	C	1.405459	-0.284157	0.197783
C81	C	0.920768	-0.881806	-0.359402
C82	C	1.420768	-0.381806	0.140598
C83	C	0.905517	-0.930142	-0.302230
C84	C	1.405517	-0.430142	0.197770
C85	C	0.890151	-0.832503	-0.245009
C86	C	1.390151	-0.332503	0.254991
C87	C	0.962623	-0.832361	-0.317601
C88	C	1.462623	-0.332361	0.182399
C89	C	0.947366	-0.881772	-0.260383
C90	C	1.447366	-0.381772	0.239617
C91	C	0.905424	-0.700059	-0.302211
C92	C	1.405424	-0.200059	0.197789
C93	C	0.905552	-1.014239	-0.302230
C94	C	1.405552	-0.514239	0.197770
C95	C	1.068871	-0.357490	-0.302276
C96	C	1.568871	0.142510	0.197724
C97	C	1.138513	-0.357474	-0.302307
C98	C	1.638513	0.142526	0.197693
C99	C	0.905500	-0.357514	-0.465626
C100	C	1.405500	0.142486	0.034374
C101	C	0.905522	-0.357508	-0.535268
C102	C	1.405522	0.142492	-0.035268
C103	C	0.905541	-0.163823	-0.302227
C104	C	1.405541	0.336177	0.197773
C105	C	0.905581	-0.081278	-0.302237
C106	C	1.405581	0.418722	0.197763
C107	C	0.945617	-0.309997	-0.568006
C108	C	1.445617	0.190003	-0.068006
C109	C	0.945616	-0.309965	-0.633441
C110	C	1.445616	0.190035	-0.133441
C111	C	0.905527	-0.357457	-0.666136
C112	C	1.405527	0.142543	-0.166136
C113	C	0.865425	-0.404971	-0.633390
C114	C	1.365425	0.095029	-0.133390
C115	C	0.865422	-0.404996	-0.567956
C116	C	1.365422	0.095004	-0.067956
C117	C	0.900554	-0.424328	-0.769805
C118	C	1.400554	0.075672	-0.269805
C119	C	0.900560	-0.424304	-0.835238
C120	C	1.400560	0.075696	-0.335238
C121	C	0.905531	-0.357379	-0.867957
C122	C	1.405531	0.142621	-0.367957
C123	C	0.910508	-0.290475	-0.835234
C124	C	1.410508	0.209525	-0.335234
C125	C	0.910505	-0.290501	-0.769800
C126	C	1.410505	0.209499	-0.269800
C127	C	0.905525	-0.357435	-0.737088
C128	C	1.405525	0.142565	-0.237088
C129	C	0.945627	-0.309829	-0.971647
C130	C	1.445627	0.190171	-0.471647
C131	C	0.945621	-0.309796	-1.037084
C132	C	1.445621	0.190204	-0.537084
C133	C	0.865434	-0.404809	-1.037032
C134	C	1.365434	0.095191	-0.537032
C135	C	0.865436	-0.404835	-0.971596
C136	C	1.365436	0.095165	-0.471596
C137	C	0.905535	-0.357347	-0.938908
C138	C	1.405535	0.142653	-0.438908
C139	C	0.905432	-0.357490	-0.139415
C140	C	1.405432	0.142510	0.360585
C141	C	0.905531	-0.357288	-0.069774
C142	C	1.405531	0.142712	0.430226
H143	H	0.666948	-0.443905	-0.374684
H144	H	1.166948	0.056095	0.125316
H145	H	0.548216	-0.271275	-0.229589
H146	H	1.048216	0.228725	0.270411
N147	N	0.991797	-0.908757	-0.215986
N148	N	1.491797	-0.408757	0.284014
N149	N	0.999323	-0.976933	-0.209080
N150	N	1.499323	-0.476933	0.290920
H151	H	1.030699	-0.995994	-0.177723
H152	H	1.530699	-0.495994	0.322277
H153	H	0.832786	-0.443470	-1.063651
H154	H	1.332786	0.056530	-0.563651
N155	N	0.270063	-0.261348	-0.221395
N156	N	0.770063	0.238652	0.278605
N157	N	0.240838	-0.218876	-0.185693
N158	N	0.740838	0.281124	0.314307
H159	H	0.264429	-0.184560	-0.156825
H160	H	0.764429	0.315440	0.343175
N161	N	0.873858	-0.805442	-0.184335
N162	N	1.373858	-0.305442	0.315665
N163	N	0.871176	-0.737251	-0.174545
N164	N	1.371176	-0.237251	0.325455
H165	H	0.859664	-0.718136	-0.131697
H166	H	1.359664	-0.218136	0.368303
H167	H	0.548242	-0.443870	-0.374731
H168	H	1.048242	0.056130	0.125269
H169	H	0.978268	-0.271327	-0.541395
H170	H	1.478268	0.228673	-0.041395
H171	H	1.010926	-0.810569	-0.330628
H172	H	1.510926	-0.310569	0.169372
H173	H	0.978264	-0.271272	-0.660102
H174	H	1.478264	0.228728	-0.160102
H175	H	0.896512	-0.478780	-0.861876
H176	H	1.396512	0.021220	-0.361876
H177	H	0.914556	-0.236026	-0.743160
H178	H	1.414556	0.263974	-0.243160
N179	N	0.270107	-0.453649	-0.383122
N180	N	0.770107	0.046351	0.116878
N181	N	0.328530	-0.453655	-0.383097
N182	N	0.828530	0.046345	0.116903
H183	H	0.352144	-0.487965	-0.411950
H184	H	0.852144	0.012035	0.088050
N185	N	0.936974	-0.908977	-0.420064
N186	N	1.436974	-0.408977	0.079936
N187	N	0.903694	-0.893189	-0.466167
N188	N	1.403694	-0.393189	0.033833
H189	H	0.915134	-0.912377	-0.509011
H190	H	1.415134	-0.412377	-0.009011
N191	N	0.824478	-0.453490	-0.666780
N192	N	1.324478	0.046510	-0.166780
N193	N	0.828593	-0.522020	-0.659480
N194	N	1.328593	-0.022020	-0.159480
H195	H	0.799670	-0.556286	-0.683060
H196	H	1.299670	-0.056286	-0.183060
H197	H	0.914556	-0.235979	-0.861872
H198	H	1.414556	0.264021	-0.361872
N199	N	0.986586	-0.261316	-0.938262
N200	N	1.486586	0.238684	-0.438262
N201	N	1.022378	-0.218891	-0.967504
N202	N	1.522378	0.281109	-0.467504
H203	H	1.051306	-0.184626	-0.943928
H204	H	1.551306	0.315374	-0.443928
H205	H	0.978270	-0.271103	-1.063738
H206	H	1.478270	0.228897	-0.563738
H207	H	0.896338	-0.478812	-0.743171
H208	H	1.396338	0.021188	-0.243171
N209	N	0.824476	-0.453373	-0.938161
N210	N	1.324476	0.046627	-0.438161
N211	N	0.788683	-0.495771	-0.967358
N212	N	1.288683	0.004229	-0.467358
H213	H	0.759752	-0.530052	-0.943745
H214	H	1.259752	-0.030052	-0.443745
H215	H	0.828150	-0.810879	-0.379334
H216	H	1.328150	-0.310879	0.120666
N217	N	0.673713	-0.261432	-0.221264
N218	N	1.173713	0.238568	0.278736
N219	N	0.666469	-0.192909	-0.225525
N220	N	1.166469	0.307091	0.274475
H221	H	0.690068	-0.158592	-0.196666
H222	H	1.190068	0.341408	0.303334
H223	H	0.800008	-0.903738	-0.273849
H224	H	1.300008	-0.403738	0.226151
N225	N	0.472015	-0.369605	-0.416286
N226	N	0.972015	0.130395	0.083714
N227	N	0.442851	-0.374914	-0.466689
N228	N	0.942851	0.125086	0.033311
H229	H	0.466491	-0.379218	-0.507404
H230	H	0.966491	0.120782	-0.007404
N231	N	0.824459	-0.453532	-0.534521
N232	N	1.324459	0.046468	-0.034521
N233	N	0.788663	-0.495928	-0.563716
N234	N	1.288663	0.004072	-0.063716
H235	H	0.759732	-0.530208	-0.540103
H236	H	1.259732	-0.030208	-0.040103
H237	H	0.346516	-0.368333	-0.404632
H238	H	0.846516	0.131667	0.095368
H239	H	0.144605	-0.443770	-0.374881
H240	H	0.644605	0.056230	0.125119
H241	H	0.144579	-0.271177	-0.229733
H242	H	0.644579	0.228823	0.270267
H243	H	0.465014	-0.346749	-0.199778
H244	H	0.965014	0.153251	0.300222
N245	N	0.339524	-0.345497	-0.188125
N246	N	0.839524	0.154503	0.311875
N247	N	0.368692	-0.340183	-0.137725
N248	N	0.868692	0.159817	0.362275
H249	H	0.345056	-0.335887	-0.097008
H250	H	0.845056	0.164113	0.402992
