data_functionalizedCrystal
_audit_creation_method	'MofGen! by Chris Wilmer'
_symmetry_space_group_name_H-M	'P1'
_symmetry_Int_Tables_number	1
_symmetry_cell_setting	triclinic
loop_
_symmetry_equiv_pos_as_xyz
  x,y,z
_cell_length_a	18.101398
_cell_length_b	18.050589
_cell_length_c	18.101389
_cell_angle_alpha	90.014016
_cell_angle_beta	90.024327
_cell_angle_gamma	90.023488
loop_
_atom_site_label
_atom_site_type_symbol
_atom_site_fract_x
_atom_site_fract_y
_atom_site_fract_z
Zn1	Zn	1.132136	-0.295831	0.418861
Zn2	Zn	1.632136	0.204169	0.918861
Zn3	Zn	1.132038	-0.420005	0.295029
Zn4	Zn	1.632038	0.079995	0.795029
Zn5	Zn	1.008295	-0.295823	0.295023
Zn6	Zn	1.508295	0.204177	0.795023
Zn7	Zn	1.008252	-0.419974	0.418818
Zn8	Zn	1.508252	0.080026	0.918818
O9	O	1.070180	-0.357908	0.356933
O10	O	1.570180	0.142092	0.856933
O11	O	1.235756	-0.312320	0.402456
O12	O	1.735756	0.187680	0.902456
O13	O	1.115600	-0.403542	0.191396
O14	O	1.615600	0.096458	0.691396
O15	O	1.024782	-0.191900	0.311465
O16	O	1.524782	0.308100	0.811465
O17	O	1.235684	-0.403550	0.311477
O18	O	1.735684	0.096450	0.811477
O19	O	1.115767	-0.191905	0.402449
O20	O	1.615767	0.308095	0.902449
O21	O	1.024687	-0.312306	0.191391
O22	O	1.524687	0.187694	0.691391
O23	O	0.904656	-0.312276	0.311423
O24	O	1.404656	0.187724	0.811423
O25	O	1.024708	-0.403496	0.522457
O26	O	1.524708	0.096504	1.022457
O27	O	0.904625	-0.403488	0.402375
O28	O	1.404625	0.096512	0.902375
O29	O	1.115725	-0.312289	0.522489
O30	O	1.615725	0.187711	1.022489
O31	O	1.115558	-0.523926	0.311435
O32	O	1.615558	-0.023926	0.811435
O33	O	1.024613	-0.523902	0.402382
O34	O	1.524613	-0.023902	0.902382
C35	C	0.877770	-0.357878	0.356894
C36	C	1.377770	0.142122	0.856894
C37	C	0.795455	-0.357883	0.356895
C38	C	1.295455	0.142117	0.856895
C39	C	0.496364	-0.357930	0.356957
C40	C	0.996364	0.142070	0.856957
C41	C	0.527685	-0.300254	0.300012
C42	C	1.027685	0.199746	0.800012
C43	C	0.613303	-0.300409	0.299769
C44	C	1.113303	0.199591	0.799769
C45	C	0.644747	-0.357906	0.356927
C46	C	1.144747	0.142094	0.856927
C47	C	0.613633	-0.436133	0.335608
C48	C	1.113633	0.063867	0.835608
C49	C	0.527988	-0.435813	0.335212
C50	C	1.027988	0.064187	0.835212
C51	C	0.527978	-0.338057	0.435355
C52	C	1.027978	0.161943	0.935355
C53	C	0.613629	-0.336315	0.434927
C54	C	1.113629	0.163685	0.934927
C55	C	0.728606	-0.357897	0.356910
C56	C	1.228606	0.142103	0.856910
C57	C	0.412505	-0.357943	0.356972
C58	C	0.912505	0.142057	0.856972
C59	C	1.070091	-0.550860	0.356921
C60	C	1.570091	-0.050860	0.856921
C61	C	1.070120	-0.633406	0.356940
C62	C	1.570120	-0.133406	0.856940
C63	C	1.020713	-0.832871	0.406380
C64	C	1.520713	-0.332871	0.906380
C65	C	1.002661	-0.882299	0.338801
C66	C	1.502661	-0.382299	0.838801
C67	C	1.070193	-0.784537	0.356950
C68	C	1.570193	-0.284537	0.856950
C69	C	1.088281	-0.882191	0.424536
C70	C	1.588281	-0.382191	0.924536
C71	C	1.070262	-0.930522	0.356965
C72	C	1.570262	-0.430522	0.856965
C73	C	1.052106	-0.832877	0.289335
C74	C	1.552106	-0.332877	0.789335
C75	C	1.137757	-0.832765	0.375116
C76	C	1.637757	-0.332765	0.875116
C77	C	1.119731	-0.882170	0.307491
C78	C	1.619731	-0.382170	0.807491
C79	C	1.070151	-0.700438	0.356942
C80	C	1.570151	-0.200438	0.856942
C81	C	1.070304	-1.014618	0.356965
C82	C	1.570304	-0.514618	0.856965
C83	C	1.263342	-0.357939	0.356972
C84	C	1.763342	0.142061	0.856972
C85	C	1.345656	-0.357952	0.356989
C86	C	1.845656	0.142048	0.856989
C87	C	1.070223	-0.357890	0.550095
C88	C	1.570223	0.142110	1.050095
C89	C	1.070241	-0.357882	0.632409
C90	C	1.570241	0.142118	1.132409
C91	C	1.070290	-0.164203	0.356961
C92	C	1.570290	0.335797	0.856961
C93	C	1.070337	-0.081657	0.356974
C94	C	1.570337	0.418343	0.856974
C95	C	1.070180	-0.357873	0.164522
C96	C	1.570180	0.142127	0.664522
C97	C	1.070305	-0.357672	0.082209
C98	C	1.570305	0.142328	0.582209
C99	C	1.070284	-0.357742	0.931500
C100	C	1.570284	0.142258	1.431500
C101	C	1.012822	-0.414945	0.900155
C102	C	1.512822	0.085055	1.400155
C103	C	1.012977	-0.415210	0.814536
C104	C	1.512977	0.084790	1.314536
C105	C	1.070262	-0.357811	0.783117
C106	C	1.570262	0.142189	1.283117
C107	C	1.148289	-0.379062	0.814225
C108	C	1.648289	0.120938	1.314225
C109	C	1.147969	-0.379437	0.899870
C110	C	1.647969	0.120563	1.399870
C111	C	1.050399	-0.279163	0.899918
C112	C	1.550399	0.220837	1.399918
C113	C	1.048663	-0.279616	0.814267
C114	C	1.548663	0.220384	1.314267
C115	C	1.070255	-0.357849	0.699258
C116	C	1.570255	0.142151	1.199258
C117	C	1.070297	-0.357706	1.015360
C118	C	1.570297	0.142294	1.515360
H119	H	0.506136	-0.313242	0.242258
H120	H	1.006136	0.186758	0.742258
H121	H	0.635036	-0.375263	0.479629
H122	H	1.135036	0.124737	0.979629
H123	H	0.635048	-0.453280	0.278915
H124	H	1.135048	0.046720	0.778915
C125	C	0.925518	-0.911697	0.318043
C126	C	1.425518	-0.411697	0.818043
H127	H	0.928920	-0.940659	0.274347
H128	H	1.428920	-0.440659	0.774347
H129	H	0.906952	-0.941398	0.357175
H130	H	1.406952	-0.441398	0.857175
H131	H	0.893093	-0.871162	0.309790
H132	H	1.393093	-0.371162	0.809790
H133	H	0.955117	-0.401912	0.793503
H134	H	1.455117	0.098088	1.293503
C135	C	1.171455	-0.455839	0.785274
C136	C	1.671455	0.044161	1.285274
H137	H	1.133688	-0.475047	0.754239
H138	H	1.633688	0.024953	1.254239
H139	H	1.216020	-0.451427	0.757930
H140	H	1.716020	0.048573	1.257930
H141	H	1.178935	-0.488419	0.825801
H142	H	1.678935	0.011581	1.325801
C143	C	1.170738	-0.457034	0.926880
C144	C	1.670738	0.042966	1.426880
H145	H	1.170748	-0.457946	0.979356
H146	H	1.670748	0.042054	1.479356
H147	H	1.136676	-0.492726	0.908747
H148	H	1.636676	0.007274	1.408747
H149	H	1.218851	-0.468297	0.909205
H150	H	1.718851	0.031703	1.409205
C151	C	1.031378	-0.803741	0.212110
C152	C	1.531378	-0.303741	0.712110
H153	H	1.031453	-0.751112	0.212583
H154	H	1.531453	-0.251112	0.712583
H155	H	1.066327	-0.821014	0.176973
H156	H	1.566327	-0.321014	0.676973
H157	H	0.983552	-0.821115	0.199139
H158	H	1.483552	-0.321115	0.699139
C159	C	0.499894	-0.221646	0.317854
C160	C	0.999894	0.278354	0.817854
H161	H	0.519421	-0.187671	0.282857
H162	H	1.019421	0.312329	0.782857
H163	H	0.447467	-0.220777	0.315679
H164	H	0.947467	0.279223	0.815679
H165	H	0.515658	-0.207989	0.366037
H166	H	1.015658	0.292011	0.866037
H167	H	1.161604	-0.903680	0.265648
H168	H	1.661604	-0.403680	0.765648
H169	H	1.103553	-0.903852	0.481687
H170	H	1.603553	-0.403852	0.981687
H171	H	1.192234	-0.339582	0.920607
H172	H	1.692234	0.160418	1.420607
H173	H	1.026106	-0.473456	0.794059
H174	H	1.526106	0.026544	1.294059
H175	H	1.087462	-0.234735	0.792880
H176	H	1.587462	0.265265	1.292880
C177	C	1.214895	-0.803374	0.395883
C178	C	1.714895	-0.303374	0.895883
H179	H	1.227655	-0.820237	0.443935
H180	H	1.727655	-0.320237	0.943935
H181	H	1.250173	-0.821006	0.361255
H182	H	1.750173	-0.321006	0.861255
H183	H	1.214445	-0.750750	0.395285
H184	H	1.714445	-0.250750	0.895285
H185	H	0.507724	-0.380066	0.477785
H186	H	1.007724	0.119934	0.977785
C187	C	0.934420	-0.397163	0.927954
C188	C	1.434420	0.102837	1.427954
H189	H	0.936026	-0.354698	0.958931
H190	H	1.436026	0.145302	1.458931
H191	H	0.903033	-0.387679	0.886966
H192	H	1.403033	0.112321	1.386966
H193	H	0.915836	-0.438143	0.955134
H194	H	1.415836	0.061857	1.455134
C195	C	1.106932	-0.221584	0.927303
C196	C	1.606932	0.278416	1.427303
H197	H	1.094630	-0.174215	0.908033
H198	H	1.594630	0.325785	1.408033
H199	H	1.106115	-0.219831	0.979746
H200	H	1.606115	0.280169	1.479746
H201	H	1.154932	-0.235184	0.911013
H202	H	1.654932	0.264816	1.411013
C203	C	1.207685	-0.324555	0.786732
C204	C	1.707685	0.175445	1.286732
H205	H	1.185371	-0.288269	0.755962
H206	H	1.685371	0.211731	1.255962
H207	H	1.230292	-0.300964	0.827856
H208	H	1.730292	0.199036	1.327856
H209	H	1.244029	-0.350807	0.759402
H210	H	1.744029	0.149193	1.259402
H211	H	1.025820	-0.472835	0.921685
H212	H	1.525820	0.027165	1.421685
H213	H	0.994491	-0.259803	0.921503
H214	H	1.494491	0.240197	1.421503
H215	H	0.978808	-0.811224	0.448122
H216	H	1.478808	-0.311224	0.948122
C217	C	0.500947	-0.458583	0.257793
C218	C	1.000947	0.041417	0.757793
H219	H	0.448470	-0.458594	0.256870
H220	H	0.948470	0.041406	0.756870
H221	H	0.519062	-0.424395	0.222255
H222	H	1.019062	0.075605	0.722255
H223	H	0.518619	-0.506821	0.246495
H224	H	1.018619	-0.006821	0.746495
H225	H	0.634341	-0.242399	0.313131
H226	H	1.134341	0.257601	0.813131
H227	H	0.991242	-0.263592	0.793934
H228	H	1.491242	0.236408	1.293934
H229	H	0.633757	-0.313545	0.241677
H230	H	1.133757	0.186455	0.741677
H231	H	0.633970	-0.278749	0.451002
H232	H	1.133970	0.221251	0.951002
C233	C	0.499993	-0.495767	0.388864
C234	C	0.999993	0.004233	0.888864
H235	H	0.540965	-0.520222	0.410793
H236	H	1.040965	-0.020222	0.910793
H237	H	0.470883	-0.473305	0.426331
H238	H	0.970883	0.026695	0.926331
H239	H	0.470870	-0.530755	0.362578
H240	H	0.970870	-0.030755	0.862578
H241	H	0.634000	-0.480257	0.375787
H242	H	1.134000	0.019743	0.875787
H243	H	0.506403	-0.282008	0.454739
H244	H	1.006403	0.217992	0.954739
