data_functionalizedCrystal
_audit_creation_method	'MofGen! by Chris Wilmer'
_symmetry_space_group_name_H-M	'P1'
_symmetry_Int_Tables_number	1
_symmetry_cell_setting	triclinic
loop_
_symmetry_equiv_pos_as_xyz
  x,y,z
_cell_length_a	26.210047
_cell_length_b	27.732048
_cell_length_c	27.732048
_cell_angle_alpha	97.357345
_cell_angle_beta	90.000479
_cell_angle_gamma	89.996535
loop_
_atom_site_label
_atom_site_type_symbol
_atom_site_fract_x
_atom_site_fract_y
_atom_site_fract_z
O1	O	0.042369	-0.640931	0.057510
O2	O	0.292369	-0.390931	0.307510
O3	O	0.542369	-0.140931	0.557510
O4	O	0.792369	0.109069	0.807510
O5	O	0.042385	-0.500138	0.066256
O6	O	0.292385	-0.250138	0.316256
O7	O	0.542385	-0.000138	0.566256
O8	O	0.792385	0.249862	0.816256
O9	O	0.042367	-0.574907	-0.008514
O10	O	0.292367	-0.324907	0.241486
O11	O	0.542367	-0.074907	0.491486
O12	O	0.792367	0.175093	0.741486
O13	O	0.042387	-0.566162	0.132279
O14	O	0.292387	-0.316162	0.382279
O15	O	0.542387	-0.066162	0.632279
O16	O	0.792387	0.183838	0.882279
O17	O	-0.042491	-0.574893	-0.008502
O18	O	0.207509	-0.324893	0.241498
O19	O	0.457509	-0.074893	0.491498
O20	O	0.707509	0.175107	0.741498
O21	O	-0.042473	-0.500123	0.066267
O22	O	0.207527	-0.250123	0.316267
O23	O	0.457527	-0.000123	0.566267
O24	O	0.707527	0.249877	0.816267
O25	O	-0.042489	-0.640917	0.057522
O26	O	0.207511	-0.390917	0.307522
O27	O	0.457511	-0.140917	0.557522
O28	O	0.707511	0.109083	0.807522
Cu29	Cu	-0.050229	-0.570519	0.061896
Cu30	Cu	0.199771	-0.320519	0.311896
Cu31	Cu	0.449771	-0.070519	0.561896
Cu32	Cu	0.699771	0.179481	0.811896
Cu33	Cu	0.050125	-0.570536	0.061882
Cu34	Cu	0.300125	-0.320536	0.311882
Cu35	Cu	0.550125	-0.070536	0.561882
Cu36	Cu	0.800125	0.179464	0.811882
O37	O	-0.042471	-0.566147	0.132291
O38	O	0.207529	-0.316147	0.382291
O39	O	0.457529	-0.066147	0.632291
O40	O	0.707529	0.183853	0.882291
C41	C	-0.000042	-0.482124	0.066078
C42	C	0.249958	-0.232124	0.316078
C43	C	0.499958	0.017876	0.566078
C44	C	0.749958	0.267876	0.816078
C45	C	-0.000036	-0.428469	0.065525
C46	C	0.249964	-0.178469	0.315525
C47	C	0.499964	0.071531	0.565525
C48	C	0.749964	0.321531	0.815525
N49	N	-0.120813	-0.570510	0.061905
N50	N	0.129187	-0.320510	0.311905
N51	N	0.379187	-0.070510	0.561905
N52	N	0.629187	0.179490	0.811905
C53	C	-0.000064	-0.574716	-0.026515
C54	C	0.249936	-0.324716	0.223485
C55	C	0.499936	-0.074716	0.473485
C56	C	0.749936	0.175284	0.723485
C57	C	-0.000068	-0.574164	-0.080170
C58	C	0.249932	-0.324164	0.169830
C59	C	0.499932	-0.074164	0.419830
C60	C	0.749932	0.175836	0.669830
C61	C	-0.473336	-0.603640	0.028781
C62	C	-0.223336	-0.353640	0.278781
C63	C	0.026664	-0.103640	0.528781
C64	C	0.276664	0.146360	0.778781
C65	C	-0.686994	-0.603651	0.028774
C66	C	-0.436994	-0.353651	0.278774
C67	C	-0.186994	-0.103651	0.528774
C68	C	0.063006	0.146349	0.778774
O69	O	-0.714623	-0.631801	0.000614
O70	O	-0.464623	-0.381801	0.250614
O71	O	-0.214623	-0.131801	0.500614
O72	O	0.035377	0.118199	0.750614
N73	N	-0.713707	-0.570538	0.061871
N74	N	-0.463707	-0.320538	0.311871
N75	N	-0.213707	-0.070538	0.561871
N76	N	0.036293	0.179462	0.811871
C77	C	-0.687003	-0.537419	0.094970
C78	C	-0.437003	-0.287419	0.344970
C79	C	-0.187003	-0.037419	0.594970
C80	C	0.062997	0.212581	0.844970
O81	O	-0.714626	-0.509251	0.123117
O82	O	-0.464626	-0.259251	0.373117
O83	O	-0.214626	-0.009251	0.623117
O84	O	0.035374	0.240749	0.873117
C85	C	-0.473345	-0.537406	0.094974
C86	C	-0.223345	-0.287406	0.344974
C87	C	0.026655	-0.037406	0.594974
C88	C	0.276655	0.212594	0.844974
C89	C	-0.446635	-0.570524	0.061878
C90	C	-0.196635	-0.320524	0.311878
C91	C	0.053365	-0.070524	0.561878
C92	C	0.303365	0.179476	0.811878
C93	C	-0.446625	-0.636755	-0.004312
C94	C	-0.196625	-0.386755	0.245688
C95	C	0.053375	-0.136755	0.495688
C96	C	0.303375	0.113245	0.745688
C97	C	-0.393214	-0.636754	-0.004308
C98	C	-0.143214	-0.386754	0.245692
C99	C	0.106786	-0.136754	0.495692
C100	C	0.356786	0.113246	0.745692
C101	C	-0.366513	-0.603638	0.028789
C102	C	-0.116513	-0.353638	0.278789
C103	C	0.133487	-0.103638	0.528789
C104	C	0.383487	0.146362	0.778789
C105	C	-0.393223	-0.570523	0.061882
C106	C	-0.143223	-0.320523	0.311882
C107	C	0.106777	-0.070523	0.561882
C108	C	0.356777	0.179477	0.811882
C109	C	-0.446641	-0.504284	0.128070
C110	C	-0.196641	-0.254284	0.378070
C111	C	0.053359	-0.004284	0.628070
C112	C	0.303359	0.245716	0.878070
C113	C	-0.393223	-0.504283	0.128067
C114	C	-0.143223	-0.254283	0.378067
C115	C	0.106777	-0.004283	0.628067
C116	C	0.356777	0.245717	0.878067
C117	C	-0.366513	-0.537401	0.094971
C118	C	-0.116513	-0.287401	0.344971
C119	C	0.133487	-0.037401	0.594971
C120	C	0.383487	0.212599	0.844971
C121	C	-0.313111	-0.537405	0.094983
C122	C	-0.063111	-0.287405	0.344983
C123	C	0.186889	-0.037405	0.594983
C124	C	0.436889	0.212595	0.844983
N125	N	-0.286397	-0.570518	0.061886
N126	N	-0.036397	-0.320518	0.311886
N127	N	0.213603	-0.070518	0.561886
N128	N	0.463603	0.179482	0.811886
C129	C	-0.313098	-0.603634	0.028789
C130	C	-0.063098	-0.353634	0.278789
C131	C	0.186902	-0.103634	0.528789
C132	C	0.436902	0.146366	0.778789
C133	C	-0.799176	-0.537428	0.094966
C134	C	-0.549176	-0.287428	0.344966
C135	C	-0.299176	-0.037428	0.594966
C136	C	-0.049176	0.212572	0.844966
C137	C	-0.852590	-0.537432	0.094965
C138	C	-0.602590	-0.287432	0.344965
C139	C	-0.352590	-0.037432	0.594965
C140	C	-0.102590	0.212568	0.844965
C141	C	-0.852578	-0.603664	0.028769
C142	C	-0.602578	-0.353664	0.278769
C143	C	-0.352578	-0.103664	0.528769
C144	C	-0.102578	0.146336	0.778769
C145	C	-0.799163	-0.603662	0.028773
C146	C	-0.549163	-0.353662	0.278773
C147	C	-0.299163	-0.103662	0.528773
C148	C	-0.049163	0.146338	0.778773
C149	C	-0.772463	-0.570541	0.061869
C150	C	-0.522463	-0.320541	0.311869
C151	C	-0.272463	-0.070541	0.561869
C152	C	-0.022463	0.179459	0.811869
C153	C	-0.200931	-0.603629	0.028800
C154	C	0.049069	-0.353629	0.278800
C155	C	0.299069	-0.103629	0.528800
C156	C	0.549069	0.146371	0.778800
C157	C	-0.147514	-0.603626	0.028808
C158	C	0.102486	-0.353626	0.278808
C159	C	0.352486	-0.103626	0.528808
C160	C	0.602486	0.146374	0.778808
C161	C	-0.147531	-0.537393	0.095002
C162	C	0.102469	-0.287393	0.345002
C163	C	0.352469	-0.037393	0.595002
C164	C	0.602469	0.212607	0.845002
C165	C	-0.200943	-0.537397	0.094996
C166	C	0.049057	-0.287397	0.344996
C167	C	0.299057	-0.037397	0.594996
C168	C	0.549057	0.212603	0.844996
C169	C	-0.227641	-0.570517	0.061891
C170	C	0.022359	-0.320517	0.311891
C171	C	0.272359	-0.070517	0.561891
C172	C	0.522359	0.179483	0.811891
O173	O	-0.285449	-0.509267	0.123125
O174	O	-0.035449	-0.259267	0.373125
O175	O	0.214551	-0.009267	0.623125
O176	O	0.464551	0.240733	0.873125
O177	O	-0.285466	-0.631790	0.000639
O178	O	-0.035466	-0.381790	0.250639
O179	O	0.214534	-0.131790	0.500639
O180	O	0.464534	0.118210	0.750639
C181	C	-0.526747	-0.603641	0.028777
C182	C	-0.276747	-0.353641	0.278777
C183	C	-0.026747	-0.103641	0.528777
C184	C	0.223253	0.146359	0.778777
C185	C	-0.553457	-0.570527	0.061871
C186	C	-0.303457	-0.320527	0.311871
C187	C	-0.053457	-0.070527	0.561871
C188	C	0.196543	0.179473	0.811871
C189	C	-0.526756	-0.537410	0.094968
C190	C	-0.276756	-0.287410	0.344968
C191	C	-0.026756	-0.037410	0.594968
C192	C	0.223244	0.212590	0.844968
C193	C	-0.606872	-0.570530	0.061870
C194	C	-0.356872	-0.320530	0.311870
C195	C	-0.106872	-0.070530	0.561870
C196	C	0.143128	0.179470	0.811870
C197	C	-0.633573	-0.603646	0.028773
C198	C	-0.383573	-0.353646	0.278773
C199	C	-0.133573	-0.103646	0.528773
C200	C	0.116427	0.146354	0.778773
C201	C	-0.606859	-0.636759	-0.004323
C202	C	-0.356859	-0.386759	0.245677
C203	C	-0.106859	-0.136759	0.495677
C204	C	0.143141	0.113241	0.745677
C205	C	-0.553448	-0.636758	-0.004320
C206	C	-0.303448	-0.386758	0.245680
C207	C	-0.053448	-0.136758	0.495680
C208	C	0.196552	0.113242	0.745680
C209	C	-0.553470	-0.504298	0.128064
C210	C	-0.303470	-0.254298	0.378064
C211	C	-0.053470	-0.004298	0.628064
C212	C	0.196530	0.245702	0.878064
C213	C	-0.606881	-0.504302	0.128058
C214	C	-0.356881	-0.254302	0.378058
C215	C	-0.106881	-0.004302	0.628058
C216	C	0.143119	0.245698	0.878058
C217	C	-0.633582	-0.537418	0.094961
C218	C	-0.383582	-0.287418	0.344961
C219	C	-0.133582	-0.037418	0.594961
C220	C	0.116418	0.212582	0.844961
N221	N	0.120709	-0.570548	0.061868
N222	N	0.370709	-0.320548	0.311868
N223	N	0.620709	-0.070548	0.561868
N224	N	0.870709	0.179452	0.811868
C225	C	-0.000061	-0.658931	0.057699
C226	C	0.249939	-0.408931	0.307699
C227	C	0.499939	-0.158931	0.557699
C228	C	0.749939	0.091069	0.807699
C229	C	-0.000064	-0.712586	0.058252
C230	C	0.249936	-0.462586	0.308252
C231	C	0.499936	-0.212586	0.558252
C232	C	0.749936	0.037414	0.808252
C233	C	-0.000053	-0.089654	0.106229
C234	C	0.249947	0.160346	0.356229
C235	C	0.499947	0.410346	0.606229
C236	C	0.749947	0.660346	0.856229
C237	C	-0.000057	0.112006	0.104178
C238	C	0.249943	0.362006	0.354178
C239	C	0.499943	0.612006	0.604178
C240	C	0.749943	0.862006	0.854178
O241	O	-0.000074	0.143262	0.141398
O242	O	0.249926	0.393262	0.391398
O243	O	0.499926	0.643262	0.641398
O244	O	0.749926	0.893262	0.891398
N245	N	-0.000063	0.131130	0.059843
N246	N	0.249937	0.381130	0.309843
N247	N	0.499937	0.631130	0.559843
N248	N	0.749937	0.881130	0.809843
C249	C	-0.000071	0.099835	0.016017
C250	C	0.249929	0.349835	0.266017
C251	C	0.499929	0.599835	0.516017
C252	C	0.749929	0.849835	0.766017
O253	O	-0.000081	0.120728	-0.021740
O254	O	0.249919	0.370728	0.228260
O255	O	0.499919	0.620728	0.478260
O256	O	0.749919	0.870728	0.728260
C257	C	-0.000069	-0.101824	0.018068
C258	C	0.249931	0.148176	0.268068
C259	C	0.499931	0.398176	0.518068
C260	C	0.749931	0.648176	0.768068
C261	C	-0.000059	-0.120944	0.062407
C262	C	0.249941	0.129056	0.312407
C263	C	0.499941	0.379056	0.562407
C264	C	0.749941	0.629056	0.812407
C265	C	-0.000043	-0.108775	0.150563
C266	C	0.249957	0.141225	0.400563
C267	C	0.499957	0.391225	0.650563
C268	C	0.749957	0.641225	0.900563
C269	C	-0.000039	-0.159187	0.151076
C270	C	0.249961	0.090813	0.401076
C271	C	0.499961	0.340813	0.651076
C272	C	0.749961	0.590813	0.901076
C273	C	-0.000045	-0.190477	0.107253
C274	C	0.249955	0.059523	0.357253
C275	C	0.499955	0.309523	0.607253
C276	C	0.749955	0.559523	0.857253
C277	C	-0.000055	-0.171356	0.062919
C278	C	0.249945	0.078644	0.312919
C279	C	0.499945	0.328644	0.562919
C280	C	0.749945	0.578644	0.812919
C281	C	-0.000081	-0.133117	-0.025757
C282	C	0.249919	0.116883	0.224243
C283	C	0.499919	0.366883	0.474243
C284	C	0.749919	0.616883	0.724243
C285	C	-0.000082	-0.183535	-0.025240
C286	C	0.249918	0.066465	0.224760
C287	C	0.499918	0.316465	0.474760
C288	C	0.749918	0.566465	0.724760
C289	C	-0.000071	-0.202655	0.019098
C290	C	0.249929	0.047345	0.269098
C291	C	0.499929	0.297345	0.519098
C292	C	0.749929	0.547345	0.769098
C293	C	-0.000057	-0.253059	0.019609
C294	C	0.249943	-0.003059	0.269609
C295	C	0.499943	0.246941	0.519609
C296	C	0.749943	0.496941	0.769609
N297	N	-0.000051	-0.272183	0.063944
N298	N	0.249949	-0.022183	0.313944
N299	N	0.499949	0.227817	0.563944
N300	N	0.749949	0.477817	0.813944
C301	C	-0.000045	-0.240892	0.107766
C302	C	0.249955	0.009108	0.357766
C303	C	0.499955	0.259108	0.607766
C304	C	0.749955	0.509108	0.857766
C305	C	-0.000070	0.205709	0.014943
C306	C	0.249930	0.455709	0.264943
C307	C	0.499930	0.705709	0.514943
C308	C	0.749930	0.955709	0.764943
C309	C	-0.000070	0.256124	0.014430
C310	C	0.249930	0.506124	0.264430
C311	C	0.499930	0.756124	0.514430
C312	C	0.749930	1.006124	0.764430
C313	C	-0.000057	0.268291	0.102591
C314	C	0.249943	0.518291	0.352591
C315	C	0.499943	0.768291	0.602591
C316	C	0.749943	1.018291	0.852591
C317	C	-0.000054	0.217876	0.103104
C318	C	0.249946	0.467876	0.353104
C319	C	0.499946	0.717876	0.603104
C320	C	0.749946	0.967876	0.853104
C321	C	-0.000065	0.186585	0.059278
C322	C	0.249935	0.436585	0.309278
C323	C	0.499935	0.686585	0.559278
C324	C	0.749935	0.936585	0.809278
C325	C	-0.000036	-0.346761	0.108839
C326	C	0.249964	-0.096761	0.358839
C327	C	0.499964	0.153239	0.608839
C328	C	0.749964	0.403239	0.858839
C329	C	-0.000030	-0.397178	0.109347
C330	C	0.249970	-0.147178	0.359347
C331	C	0.499970	0.102822	0.609347
C332	C	0.749970	0.352822	0.859347
C333	C	-0.000045	-0.409341	0.021186
C334	C	0.249955	-0.159341	0.271186
C335	C	0.499955	0.090659	0.521186
C336	C	0.749955	0.340659	0.771186
C337	C	-0.000049	-0.358929	0.020678
C338	C	0.249951	-0.108929	0.270678
C339	C	0.499951	0.141071	0.520678
C340	C	0.749951	0.391071	0.770678
C341	C	-0.000046	-0.327639	0.064508
C342	C	0.249954	-0.077639	0.314508
C343	C	0.499954	0.172361	0.564508
C344	C	0.749954	0.422361	0.814508
O345	O	-0.000046	-0.284343	-0.017592
O346	O	0.249954	-0.034343	0.232408
O347	O	0.499954	0.215657	0.482408
O348	O	0.749954	0.465657	0.732408
O349	O	-0.000047	-0.261794	0.145518
O350	O	0.249953	-0.011794	0.395518
O351	O	0.499953	0.238206	0.645518
O352	O	0.749953	0.488206	0.895518
C353	C	-0.000057	-0.039242	0.105716
C354	C	0.249943	0.210758	0.355716
C355	C	0.499943	0.460758	0.605716
C356	C	0.749943	0.710758	0.855716
C357	C	-0.000067	-0.020120	0.061382
C358	C	0.249933	0.229880	0.311382
C359	C	0.499933	0.479880	0.561382
C360	C	0.749933	0.729880	0.811382
C361	C	-0.000073	-0.051411	0.017560
C362	C	0.249927	0.198589	0.267560
C363	C	0.499927	0.448589	0.517560
C364	C	0.749927	0.698589	0.767560
C365	C	-0.000066	0.030294	0.060869
C366	C	0.249934	0.280294	0.310869
C367	C	0.499934	0.530294	0.560869
C368	C	0.749934	0.780294	0.810869
C369	C	-0.000060	0.061585	0.104691
C370	C	0.249940	0.311585	0.354691
C371	C	0.499940	0.561585	0.604691
C372	C	0.749940	0.811585	0.854691
C373	C	-0.000054	0.042461	0.149026
C374	C	0.249946	0.292461	0.399026
C375	C	0.499946	0.542461	0.649026
C376	C	0.749946	0.792461	0.899026
C377	C	-0.000050	-0.007951	0.149539
C378	C	0.249950	0.242049	0.399539
C379	C	0.499950	0.492049	0.649539
C380	C	0.749950	0.742049	0.899539
C381	C	-0.000078	-0.032287	-0.026775
C382	C	0.249922	0.217713	0.223225
C383	C	0.499922	0.467713	0.473225
C384	C	0.749922	0.717713	0.723225
C385	C	-0.000082	0.018125	-0.027284
C386	C	0.249918	0.268125	0.222716
C387	C	0.499918	0.518125	0.472716
C388	C	0.749918	0.768125	0.722716
C389	C	-0.000076	0.049416	0.016538
C390	C	0.249924	0.299416	0.266538
C391	C	0.499924	0.549416	0.516538
C392	C	0.749924	0.799416	0.766538
C393	C	-0.000046	-0.614867	-0.418985
C394	C	0.249954	-0.364867	-0.168985
C395	C	0.499954	-0.114867	0.081015
C396	C	0.749954	0.135133	0.331015
C397	C	-0.000039	-0.612816	-0.620645
C398	C	0.249961	-0.362816	-0.370645
C399	C	0.499961	-0.112816	-0.120645
C400	C	0.749961	0.137184	0.129355
O401	O	-0.000021	-0.650037	-0.651900
O402	O	0.249979	-0.400037	-0.401900
O403	O	0.499979	-0.150037	-0.151900
O404	O	0.749979	0.099963	0.098100
N405	N	-0.000034	-0.568481	-0.639768
N406	N	0.249966	-0.318481	-0.389768
N407	N	0.499966	-0.068481	-0.139768
N408	N	0.749966	0.181519	0.110232
C409	C	-0.000028	-0.524656	-0.608474
C410	C	0.249972	-0.274656	-0.358474
C411	C	0.499972	-0.024656	-0.108474
C412	C	0.749972	0.225344	0.141526
O413	O	-0.000019	-0.486899	-0.629367
O414	O	0.249981	-0.236899	-0.379367
O415	O	0.499981	0.013101	-0.129367
O416	O	0.749981	0.263101	0.120633
C417	C	-0.000032	-0.526707	-0.406815
C418	C	0.249968	-0.276707	-0.156815
C419	C	0.499968	-0.026707	0.093185
C420	C	0.749968	0.223293	0.343185
C421	C	-0.000042	-0.571045	-0.387694
C422	C	0.249958	-0.321045	-0.137694
C423	C	0.499958	-0.071045	0.112306
C424	C	0.749958	0.178955	0.362306
C425	C	-0.000056	-0.659202	-0.399864
C426	C	0.249944	-0.409202	-0.149864
C427	C	0.499944	-0.159202	0.100136
C428	C	0.749944	0.090798	0.350136
C429	C	-0.000060	-0.659714	-0.349452
C430	C	0.249940	-0.409714	-0.099452
C431	C	0.499940	-0.159714	0.150548
C432	C	0.749940	0.090286	0.400548
C433	C	-0.000056	-0.615892	-0.318161
C434	C	0.249944	-0.365892	-0.068161
C435	C	0.499944	-0.115892	0.181839
C436	C	0.749944	0.134108	0.431839
C437	C	-0.000046	-0.571557	-0.337282
C438	C	0.249954	-0.321557	-0.087282
C439	C	0.499954	-0.071557	0.162718
C440	C	0.749954	0.178443	0.412718
C441	C	-0.000022	-0.482882	-0.375521
C442	C	0.249978	-0.232882	-0.125521
C443	C	0.499978	0.017118	0.124479
C444	C	0.749978	0.267118	0.374479
C445	C	-0.000022	-0.483399	-0.325104
C446	C	0.249978	-0.233399	-0.075104
C447	C	0.499978	0.016601	0.174896
C448	C	0.749978	0.266601	0.424896
C449	C	-0.000032	-0.527737	-0.305983
C450	C	0.249968	-0.277737	-0.055983
C451	C	0.499968	-0.027737	0.194017
C452	C	0.749968	0.222263	0.444017
C453	C	-0.000046	-0.528247	-0.255580
C454	C	0.249954	-0.278247	-0.005580
C455	C	0.499954	-0.028247	0.244420
C456	C	0.749954	0.221753	0.494420
N457	N	-0.000051	-0.572583	-0.236456
N458	N	0.249949	-0.322583	0.013544
N459	N	0.499949	-0.072583	0.263544
N460	N	0.749949	0.177417	0.513544
C461	C	-0.000056	-0.616405	-0.267747
C462	C	0.249944	-0.366405	-0.017747
C463	C	0.499944	-0.116405	0.232253
C464	C	0.749944	0.133595	0.482253
C465	C	-0.000027	-0.523582	-0.714348
C466	C	0.249973	-0.273582	-0.464348
C467	C	0.499973	-0.023582	-0.214348
C468	C	0.749973	0.226418	0.035652
C469	C	-0.000027	-0.523069	-0.764762
C470	C	0.249973	-0.273069	-0.514762
C471	C	0.499973	-0.023069	-0.264762
C472	C	0.749973	0.226931	-0.014762
C473	C	-0.000037	-0.611230	-0.776930
C474	C	0.249963	-0.361230	-0.526930
C475	C	0.499963	-0.111230	-0.276930
C476	C	0.749963	0.138770	-0.026930
C477	C	-0.000041	-0.611742	-0.726514
C478	C	0.249959	-0.361742	-0.476514
C479	C	0.499959	-0.111742	-0.226514
C480	C	0.749959	0.138258	0.023486
C481	C	-0.000032	-0.567917	-0.695224
C482	C	0.249968	-0.317917	-0.445224
C483	C	0.499968	-0.067917	-0.195224
C484	C	0.749968	0.182083	0.054776
C485	C	-0.000066	-0.617477	-0.161878
C486	C	0.249934	-0.367477	0.088122
C487	C	0.499934	-0.117477	0.338122
C488	C	0.749934	0.132523	0.588122
C489	C	-0.000073	-0.617986	-0.111461
C490	C	0.249927	-0.367986	0.138539
C491	C	0.499927	-0.117986	0.388539
C492	C	0.749927	0.132014	0.638539
C493	C	-0.000060	-0.529825	-0.099298
C494	C	0.249940	-0.279825	0.150702
C495	C	0.499940	-0.029825	0.400702
C496	C	0.749940	0.220175	0.650702
C497	C	-0.000056	-0.529316	-0.149710
C498	C	0.249944	-0.279316	0.100290
C499	C	0.499944	-0.029316	0.350290
C500	C	0.749944	0.220684	0.600290
C501	C	-0.000057	-0.573147	-0.180999
C502	C	0.249943	-0.323147	0.069001
C503	C	0.499943	-0.073147	0.319001
C504	C	0.749943	0.176853	0.569001
O505	O	-0.000059	-0.491047	-0.224296
O506	O	0.249941	-0.241047	0.025704
O507	O	0.499941	0.008953	0.275704
O508	O	0.749941	0.258953	0.525704
O509	O	-0.000054	-0.654156	-0.246844
O510	O	0.249946	-0.404156	0.003156
O511	O	0.499946	-0.154156	0.253156
O512	O	0.749946	0.095844	0.503156
C513	C	-0.000042	-0.614355	-0.469397
C514	C	0.249958	-0.364355	-0.219397
C515	C	0.499958	-0.114355	0.030603
C516	C	0.749958	0.135645	0.280603
C517	C	-0.000033	-0.570021	-0.488518
C518	C	0.249967	-0.320021	-0.238518
C519	C	0.499967	-0.070021	0.011482
C520	C	0.749967	0.179979	0.261482
C521	C	-0.000028	-0.526198	-0.457228
C522	C	0.249972	-0.276198	-0.207228
C523	C	0.499972	-0.026198	0.042772
C524	C	0.749972	0.223802	0.292772
C525	C	-0.000033	-0.569508	-0.538933
C526	C	0.249967	-0.319508	-0.288933
C527	C	0.499967	-0.069508	-0.038933
C528	C	0.749967	0.180492	0.211067
C529	C	-0.000037	-0.613330	-0.570223
C530	C	0.249963	-0.363330	-0.320223
C531	C	0.499963	-0.113330	-0.070223
C532	C	0.749963	0.136670	0.179777
C533	C	-0.000042	-0.657665	-0.551100
C534	C	0.249958	-0.407665	-0.301100
C535	C	0.499958	-0.157665	-0.051100
C536	C	0.749958	0.092335	0.198900
C537	C	-0.000046	-0.658177	-0.500688
C538	C	0.249954	-0.408177	-0.250688
C539	C	0.499954	-0.158177	-0.000688
C540	C	0.749954	0.091823	0.249312
C541	C	-0.000023	-0.481863	-0.476351
C542	C	0.249977	-0.231863	-0.226351
C543	C	0.499977	0.018137	0.023649
C544	C	0.749977	0.268137	0.273649
C545	C	-0.000019	-0.481355	-0.526764
C546	C	0.249981	-0.231355	-0.276764
C547	C	0.499981	0.018645	-0.026764
C548	C	0.749981	0.268645	0.223236
C549	C	-0.000024	-0.525177	-0.558054
C550	C	0.249976	-0.275177	-0.308054
C551	C	0.499976	-0.025177	-0.058054
C552	C	0.749976	0.224823	0.191946
C553	C	-0.000040	-0.566338	0.150292
C554	C	0.249960	-0.316338	0.400292
C555	C	0.499960	-0.066338	0.650292
C556	C	0.749960	0.183662	0.900292
C557	C	-0.000032	-0.566891	0.203947
C558	C	0.249968	-0.316891	0.453947
C559	C	0.499968	-0.066891	0.703947
C560	C	0.749968	0.183109	0.953947
H561	H	-0.125768	-0.630597	0.001858
H562	H	0.124232	-0.380597	0.251858
H563	H	0.374232	-0.130597	0.501858
H564	H	0.624232	0.119403	0.751858
H565	H	-0.371469	-0.663720	-0.031259
H566	H	-0.121469	-0.413720	0.218741
H567	H	0.128531	-0.163720	0.468741
H568	H	0.378531	0.086280	0.718741
H569	H	-0.000028	-0.486964	-0.780325
H570	H	0.249972	-0.236964	-0.530325
H571	H	0.499972	0.013036	-0.280325
H572	H	0.749972	0.263036	-0.030325
H573	H	-0.000090	-0.117558	-0.061861
H574	H	0.249910	0.132442	0.188139
H575	H	0.499910	0.382442	0.438139
H576	H	0.749910	0.632442	0.688139
H577	H	-0.000016	-0.445246	-0.542327
H578	H	0.249984	-0.195246	-0.292327
H579	H	0.499984	0.054754	-0.042327
H580	H	0.749984	0.304754	0.207673
H581	H	-0.000070	0.271687	-0.021674
H582	H	0.249930	0.521687	0.228326
H583	H	0.499930	0.771687	0.478326
H584	H	0.749930	1.021687	0.728326
H585	H	-0.000054	-0.694282	-0.485125
H586	H	0.249946	-0.444282	-0.235125
H587	H	0.499946	-0.194282	0.014875
H588	H	0.749946	0.055718	0.264875
H589	H	-0.000042	-0.023514	0.185643
H590	H	0.249958	0.226486	0.435643
H591	H	0.499958	0.476486	0.685643
H592	H	0.749958	0.726486	0.935643
H593	H	-0.000036	-0.321291	0.144530
H594	H	0.249964	-0.071291	0.394530
H595	H	0.499964	0.178709	0.644530
H596	H	0.749964	0.428709	0.894530
H597	H	-0.222691	-0.510434	0.121950
H598	H	0.027309	-0.260434	0.371950
H599	H	0.277309	-0.010434	0.621950
H600	H	0.527309	0.239566	0.871950
H601	H	-0.000048	-0.693347	-0.576585
H602	H	0.249952	-0.443347	-0.326585
H603	H	0.499952	-0.193347	-0.076585
H604	H	0.749952	0.056653	0.173415
H605	H	-0.000091	-0.209009	-0.060929
H606	H	0.249909	0.040991	0.189071
H607	H	0.499909	0.290991	0.439071
H608	H	0.749909	0.540991	0.689071
H609	H	-0.222662	-0.630598	0.001842
H610	H	0.027338	-0.380598	0.251842
H611	H	0.277338	-0.130598	0.501842
H612	H	0.527338	0.119402	0.751842
H613	H	-0.125783	-0.510432	0.121951
H614	H	0.124217	-0.260432	0.371951
H615	H	0.374217	-0.010432	0.621951
H616	H	0.624217	0.239568	0.871951
H617	H	-0.371487	-0.477311	0.155018
H618	H	-0.121487	-0.227311	0.405018
H619	H	0.128513	0.022689	0.655018
H620	H	0.378513	0.272689	0.905018
H621	H	-0.000014	-0.447710	-0.299629
H622	H	0.249986	-0.197710	-0.049629
H623	H	0.499986	0.052290	0.200371
H624	H	0.749986	0.302290	0.450371
H625	H	-0.000041	-0.646911	-0.802415
H626	H	0.249959	-0.396911	-0.552415
H627	H	0.499959	-0.146911	-0.302415
H628	H	0.749959	0.103089	-0.052415
H629	H	-0.000020	-0.487892	-0.688875
H630	H	0.249980	-0.237892	-0.438875
H631	H	0.499980	0.012108	-0.188875
H632	H	0.749980	0.262108	0.061125
H633	H	-0.468360	-0.663722	-0.031266
H634	H	-0.218360	-0.413722	0.218734
H635	H	0.031640	-0.163722	0.468734
H636	H	0.281640	0.086278	0.718734
H637	H	-0.777418	-0.630629	0.001823
H638	H	-0.527418	-0.380629	0.251823
H639	H	-0.277418	-0.130629	0.501823
H640	H	-0.027418	0.119371	0.751823
H641	H	-0.000047	0.067947	0.184708
H642	H	0.249953	0.317947	0.434708
H643	H	0.499953	0.567947	0.684708
H644	H	0.749953	0.817947	0.934708
H645	H	-0.874327	-0.630629	0.001821
H646	H	-0.624327	-0.380629	0.251821
H647	H	-0.374327	-0.130629	0.501821
H648	H	-0.124327	0.119371	0.751821
H649	H	-0.777440	-0.510456	0.121918
H650	H	-0.527440	-0.260456	0.371918
H651	H	-0.277440	-0.010456	0.621918
H652	H	-0.027440	0.239544	0.871918
H653	H	-0.000030	-0.174750	0.187180
H654	H	0.249970	0.075250	0.437180
H655	H	0.499970	0.325250	0.687180
H656	H	0.749970	0.575250	0.937180
H657	H	-0.874334	-0.510469	0.121920
H658	H	-0.624334	-0.260469	0.371920
H659	H	-0.374334	-0.010469	0.621920
H660	H	-0.124334	0.239531	0.871920
H661	H	-0.000079	0.180236	-0.020747
H662	H	0.249921	0.430236	0.229253
H663	H	0.499921	0.680236	0.479253
H664	H	0.749921	0.930236	0.729253
H665	H	-0.000048	-0.434827	-0.014492
H666	H	0.249952	-0.184827	0.235508
H667	H	0.499952	0.065173	0.485508
H668	H	0.749952	0.315173	0.735508
H669	H	-0.000039	-0.083302	0.186251
H670	H	0.249961	0.166698	0.436251
H671	H	0.499961	0.416698	0.686251
H672	H	0.749961	0.666698	0.936251
H673	H	-0.468381	-0.477317	0.155019
H674	H	-0.218381	-0.227317	0.405019
H675	H	0.031619	0.022683	0.655019
H676	H	0.281619	0.272683	0.905019
H677	H	-0.000018	-0.446177	-0.450879
H678	H	0.249982	-0.196177	-0.200879
H679	H	0.499982	0.053823	0.049121
H680	H	0.749982	0.303823	0.299121
H681	H	-0.628608	-0.663725	-0.031271
H682	H	-0.378608	-0.413725	0.218729
H683	H	-0.128608	-0.163725	0.468729
H684	H	0.121392	0.086275	0.718729
H685	H	-0.000086	0.033688	-0.063392
H686	H	0.249914	0.283688	0.186608
H687	H	0.499914	0.533688	0.436608
H688	H	0.749914	0.783688	0.686608
H689	H	-0.000062	-0.493213	-0.165279
H690	H	0.249938	-0.243213	0.084721
H691	H	0.499938	0.006787	0.334721
H692	H	0.749938	0.256787	0.584721
H693	H	-0.531704	-0.663725	-0.031269
H694	H	-0.281704	-0.413725	0.218731
H695	H	-0.031704	-0.163725	0.468731
H696	H	0.218296	0.086275	0.718731
H697	H	-0.628625	-0.477334	0.155013
H698	H	-0.378625	-0.227334	0.405013
H699	H	-0.128625	0.022666	0.655013
H700	H	0.121375	0.272666	0.905013
H701	H	-0.000058	-0.694889	-0.425336
H702	H	0.249942	-0.444889	-0.175336
H703	H	0.499942	-0.194889	0.074664
H704	H	0.749942	0.055111	0.324664
H705	H	-0.000048	-0.647846	-0.710950
H706	H	0.249952	-0.397846	-0.460950
H707	H	0.499952	-0.147846	-0.210950
H708	H	0.749952	0.102154	0.039050
H709	H	-0.531734	-0.477330	0.155015
H710	H	-0.281734	-0.227330	0.405015
H711	H	-0.031734	0.022670	0.655015
H712	H	0.218266	0.272670	0.905015
H713	H	-0.000065	-0.653168	-0.187348
H714	H	0.249935	-0.403168	0.062652
H715	H	0.499935	-0.153168	0.312652
H716	H	0.749935	0.096832	0.562652
H717	H	-0.000021	-0.412743	0.145454
H718	H	0.249979	-0.162743	0.395454
H719	H	0.499979	0.087257	0.645454
H720	H	0.749979	0.337257	0.895454
H721	H	-0.000085	-0.057760	-0.062462
H722	H	0.249915	0.192240	0.187538
H723	H	0.499915	0.442240	0.437538
H724	H	0.749915	0.692240	0.687538
H725	H	-0.000049	0.202311	0.139207
H726	H	0.249951	0.452311	0.389207
H727	H	0.499951	0.702311	0.639207
H728	H	0.749951	0.952311	0.889207
H729	H	-0.000053	0.293777	0.138273
H730	H	0.249947	0.543777	0.388273
H731	H	0.499947	0.793777	0.638273
H732	H	0.749947	1.043777	0.888273
H733	H	-0.000050	-0.343360	-0.015426
H734	H	0.249950	-0.093360	0.234574
H735	H	0.499950	0.156640	0.484574
H736	H	0.749950	0.406640	0.734574
H737	H	-0.000011	-0.446777	-0.391080
H738	H	0.249989	-0.196777	-0.141080
H739	H	0.499989	0.053223	0.108920
H740	H	0.749989	0.303223	0.358920
H741	H	-0.000082	-0.654093	-0.095896
H742	H	0.249918	-0.404093	0.154104
H743	H	0.499918	-0.154093	0.404104
H744	H	0.749918	0.095907	0.654104
H745	H	-0.000066	-0.695819	-0.333889
H746	H	0.249934	-0.445819	-0.083889
H747	H	0.499934	-0.195819	0.166111
H748	H	0.749934	0.054181	0.416111
H749	H	-0.000058	-0.494146	-0.073812
H750	H	0.249942	-0.244146	0.176188
H751	H	0.499942	0.005854	0.426188
H752	H	0.749942	0.255854	0.676188
