data_functionalizedCrystal
_audit_creation_method	'MofGen! by Chris Wilmer'
_symmetry_space_group_name_H-M	'P1'
_symmetry_Int_Tables_number	1
_symmetry_cell_setting	triclinic
loop_
_symmetry_equiv_pos_as_xyz
  x,y,z
_cell_length_a	19.805407
_cell_length_b	21.295416
_cell_length_c	19.805399
_cell_angle_alpha	89.971630
_cell_angle_beta	90.020409
_cell_angle_gamma	89.967728
loop_
_atom_site_label
_atom_site_type_symbol
_atom_site_fract_x
_atom_site_fract_y
_atom_site_fract_z
Zn1	Zn	1.034717	0.250591	0.382731
Zn2	Zn	1.534717	0.750591	0.882731
Zn3	Zn	1.034624	0.355860	0.269541
Zn4	Zn	1.534624	0.855860	0.769541
Zn5	Zn	0.921532	0.250612	0.269554
Zn6	Zn	1.421532	0.750612	0.769554
Zn7	Zn	0.921488	0.355830	0.382686
Zn8	Zn	1.421488	0.855830	0.882686
O9	O	0.978090	0.303223	0.326128
O10	O	1.478090	0.803223	0.826128
O11	O	1.129421	0.264559	0.367730
O12	O	1.629421	0.764559	0.867730
O13	O	1.019602	0.341920	0.174826
O14	O	1.519602	0.841920	0.674826
O15	O	0.936604	0.162520	0.284591
O16	O	1.436604	0.662520	0.784591
O17	O	1.129353	0.341900	0.284569
O18	O	1.629353	0.841900	0.784569
O19	O	1.019760	0.162505	0.367742
O20	O	1.519760	0.662505	0.867742
O21	O	0.936513	0.264595	0.174836
O22	O	1.436513	0.764595	0.674836
O23	O	0.826809	0.264566	0.284548
O24	O	1.326809	0.764566	0.784548
O25	O	0.936528	0.341849	0.477409
O26	O	1.436528	0.841849	0.977409
O27	O	0.826777	0.341869	0.367666
O28	O	1.326777	0.841869	0.867666
O29	O	1.019717	0.264530	0.477442
O30	O	1.519717	0.764530	0.977442
O31	O	1.019559	0.443945	0.284526
O32	O	1.519559	0.943945	0.784526
O33	O	0.936438	0.443923	0.367653
O34	O	1.436438	0.943923	0.867653
C35	C	0.802234	0.303217	0.326104
C36	C	1.302234	0.803217	0.826104
C37	C	0.727002	0.303229	0.326109
C38	C	1.227002	0.803229	0.826109
C39	C	0.265250	0.263027	0.369522
C40	C	0.765250	0.763027	0.869522
C41	C	0.335939	0.263029	0.369517
C42	C	0.835939	0.763029	0.869517
C43	C	0.371241	0.303233	0.326150
C44	C	0.871241	0.803233	0.826150
C45	C	0.335850	0.343443	0.282790
C46	C	0.835850	0.843443	0.782790
C47	C	0.265163	0.343445	0.282799
C48	C	0.765163	0.843445	0.782799
C49	C	0.620924	0.343438	0.282754
C50	C	1.120924	0.843438	0.782754
C51	C	0.691616	0.343432	0.282747
C52	C	1.191616	0.843432	0.782747
C53	C	0.691699	0.263022	0.369473
C54	C	1.191699	0.763022	0.869473
C55	C	0.621012	0.263024	0.369481
C56	C	1.121012	0.763024	0.869481
C57	C	0.585628	0.303236	0.326124
C58	C	1.085628	0.803236	0.826124
C59	C	0.508980	0.303235	0.326131
C60	C	1.008980	0.803235	0.826131
C61	C	0.447888	0.303231	0.326139
C62	C	0.947888	0.803231	0.826139
C63	C	0.978002	0.466775	0.326098
C64	C	1.478002	0.966775	0.826098
C65	C	0.978026	0.536743	0.326108
C66	C	1.478026	1.036743	0.826108
C67	C	1.021346	0.569600	0.282870
C68	C	1.521346	1.069600	0.782870
C69	C	1.021378	0.635343	0.282888
C70	C	1.521378	1.135343	0.782888
C71	C	0.978078	0.668226	0.326138
C72	C	1.478078	1.168226	0.826138
C73	C	0.934755	0.635360	0.369384
C74	C	1.434755	1.135360	0.869384
C75	C	0.934729	0.569619	0.369370
C76	C	1.434729	1.069619	0.869370
N77	N	0.918868	0.771493	0.331294
N78	N	1.418868	1.271493	0.831294
N79	N	0.918895	0.833945	0.331304
N80	N	1.418895	1.333945	0.831304
C81	C	0.978155	0.866300	0.326186
C82	C	1.478155	1.366300	0.826186
N83	N	1.037388	0.833845	0.321043
N84	N	1.537388	1.333845	0.821043
N85	N	1.037361	0.771388	0.321030
N86	N	1.537361	1.271388	0.821030
C87	C	0.978102	0.739511	0.326159
C88	C	1.478102	1.239511	0.826159
C89	C	1.021513	0.970443	0.282965
C90	C	1.521513	1.470443	0.782965
C91	C	1.021546	1.036187	0.282988
C92	C	1.521546	1.536187	0.782988
C93	C	0.934917	1.036203	0.369481
C94	C	1.434917	1.536203	0.869481
C95	C	0.934890	0.970461	0.369461
C96	C	1.434890	1.470461	0.869461
C97	C	0.978187	0.937584	0.326199
C98	C	1.478187	1.437584	0.826199
C99	C	1.154633	0.303230	0.326153
C100	C	1.654633	0.803230	0.826153
C101	C	1.229865	0.303233	0.326164
C102	C	1.729865	0.803233	0.826164
C103	C	0.978128	0.303184	0.502671
C104	C	1.478128	0.803184	1.002671
C105	C	0.978144	0.303167	0.577903
C106	C	1.478144	0.803167	1.077903
C107	C	0.978198	1.139033	0.326185
C108	C	1.478198	1.639033	0.826185
C109	C	0.978246	1.069065	0.326238
C110	C	1.478246	1.569065	0.826238
C111	C	0.978091	0.303217	0.150272
C112	C	1.478091	0.803217	0.650272
C113	C	0.978206	0.303057	0.075041
C114	C	1.478206	0.803057	0.575041
C115	C	1.021462	0.262905	0.613265
C116	C	1.521462	0.762905	1.113265
C117	C	1.021469	0.262887	0.683954
C118	C	1.521469	0.762887	1.183954
C119	C	0.978161	0.303134	0.719279
C120	C	1.478161	0.803134	1.219279
C121	C	0.934839	0.343397	0.683911
C122	C	1.434839	0.843397	1.183911
C123	C	0.934829	0.343412	0.613224
C124	C	1.434829	0.843412	1.113224
C125	C	0.934877	0.343339	0.968985
C126	C	1.434877	0.843339	1.468985
C127	C	0.934892	0.343322	1.039677
C128	C	1.434892	0.843322	1.539677
C129	C	1.021517	0.262813	1.039714
C130	C	1.521517	0.762813	1.539714
C131	C	1.021507	0.262828	0.969027
C132	C	1.521507	0.762828	1.469027
C133	C	0.978183	0.303089	0.933666
C134	C	1.478183	0.803089	1.433666
C135	C	0.978175	0.303107	0.857018
C136	C	1.478175	0.803107	1.357018
C137	C	0.978172	0.303119	0.795926
C138	C	1.478172	0.803119	1.295926
H139	H	0.364746	0.230291	0.404826
H140	H	0.864746	0.730291	0.904826
H141	H	0.720517	0.230281	0.404778
H142	H	1.220517	0.730281	0.904778
C143	C	0.887769	0.671172	0.416267
C144	C	1.387769	1.171172	0.916267
C145	C	0.897049	0.735779	0.407013
C146	C	1.397049	1.235779	0.907013
C147	C	0.853771	0.768787	0.450187
C148	C	1.353771	1.268787	0.950187
H149	H	0.897601	0.660437	0.461779
H150	H	1.397601	1.160437	0.961779
H151	H	0.842278	0.660479	0.406310
H152	H	1.342278	1.160479	0.906310
H153	H	0.942529	0.746468	0.416975
H154	H	1.442529	1.246468	0.916975
H155	H	0.887212	0.746532	0.361510
H156	H	1.387212	1.246532	0.861510
H157	H	0.808281	0.758094	0.440230
H158	H	1.308281	1.258094	0.940230
H159	H	0.863607	0.758047	0.495696
H160	H	1.363607	1.258047	0.995696
H161	H	0.860057	0.812626	0.443909
H162	H	1.360057	1.312626	0.943909
C163	C	0.729823	0.387159	0.235639
C164	C	1.229823	0.887159	0.735639
C165	C	0.683707	0.422389	0.197684
C166	C	1.183707	0.922389	0.697684
C167	C	0.718879	0.462680	0.154290
C168	C	1.218879	0.962680	0.654290
H169	H	0.757400	0.363114	0.206129
H170	H	1.257400	0.863114	0.706129
H171	H	0.757381	0.414646	0.261464
H172	H	1.257381	0.914646	0.761464
H173	H	0.656160	0.394906	0.171860
H174	H	1.156160	0.894906	0.671860
H175	H	0.656128	0.446447	0.227176
H176	H	1.156128	0.946447	0.727176
H177	H	0.746436	0.490167	0.180116
H178	H	1.246436	0.990167	0.680116
H179	H	0.746454	0.438630	0.124784
H180	H	1.246454	0.938630	0.624784
H181	H	0.687594	0.486592	0.128537
H182	H	1.187594	0.986592	0.628537
H183	H	0.899622	0.376098	1.068436
H184	H	1.399622	0.876098	1.568436
C185	C	0.887617	0.534055	0.416340
C186	C	1.387617	1.034055	0.916340
C187	C	0.849693	0.576920	0.454213
C188	C	1.349693	1.076920	0.954213
C189	C	0.806279	0.544180	0.497482
C190	C	1.306279	1.044180	0.997482
H191	H	0.913406	0.508363	0.445908
H192	H	1.413406	1.008363	0.945908
H193	H	0.858094	0.508468	0.390428
H194	H	1.358094	1.008468	0.890428
H195	H	0.879212	0.602497	0.480123
H196	H	1.379212	1.102497	0.980123
H197	H	0.823890	0.602613	0.424663
H198	H	1.323890	1.102613	0.924663
H199	H	0.776755	0.518593	0.471570
H200	H	1.276755	1.018593	0.971570
H201	H	0.832073	0.518490	0.527045
H202	H	1.332073	1.018490	1.027045
H203	H	0.780537	0.573259	0.523179
H204	H	1.280537	1.073259	1.023179
C205	C	0.582563	0.219399	0.416495
C206	C	1.082563	0.719399	0.916495
C207	C	0.513084	0.227996	0.407211
C208	C	1.013084	0.727996	0.907211
C209	C	0.477645	0.187816	0.450505
C210	C	0.977645	0.687816	0.950505
H211	H	0.594083	0.228629	0.461980
H212	H	1.094083	0.728629	0.961980
H213	H	0.594126	0.177077	0.406666
H214	H	1.094126	0.677077	0.906666
H215	H	0.501526	0.270308	0.417044
H216	H	1.001526	0.770308	0.917044
H217	H	0.501544	0.218761	0.361735
H218	H	1.001544	0.718761	0.861735
H219	H	0.489208	0.145493	0.440676
H220	H	0.989208	0.645493	0.940676
H221	H	0.489171	0.197049	0.495987
H222	H	0.989171	0.697049	0.995987
H223	H	0.430501	0.193639	0.444207
H224	H	0.930501	0.693639	0.944207
C225	C	1.068283	0.533794	0.235931
C226	C	1.568283	1.033794	0.735931
C227	C	1.058979	0.469186	0.245158
C228	C	1.558979	0.969186	0.745158
C229	C	1.102200	0.436180	0.201925
C230	C	1.602200	0.936180	0.701925
H231	H	1.113786	0.544447	0.245838
H232	H	1.613786	1.044447	0.745838
H233	H	1.058399	0.544570	0.190433
H234	H	1.558399	1.044570	0.690433
H235	H	1.068868	0.458414	0.290646
H236	H	1.568868	0.958414	0.790646
H237	H	1.013485	0.458514	0.235247
H238	H	1.513485	0.958514	0.735247
H239	H	1.092316	0.446957	0.156426
H240	H	1.592316	0.946957	0.656426
H241	H	1.147700	0.446839	0.211835
H242	H	1.647700	0.946839	0.711835
H243	H	1.095888	0.392341	0.208175
H244	H	1.595888	0.892341	0.708175
H245	H	1.056770	0.943674	0.247740
H246	H	1.556770	1.443674	0.747740
H247	H	1.056730	0.230133	0.584509
H248	H	1.556730	0.730133	1.084509
H249	H	0.236353	0.376186	0.247493
H250	H	0.736353	0.876186	0.747493
H251	H	1.056744	0.230103	0.712743
H252	H	1.556744	0.730103	1.212743
H253	H	1.056792	0.230029	1.068514
H254	H	1.556792	0.730029	1.568514
H255	H	1.056826	1.062938	0.247779
H256	H	1.556826	1.562938	0.747779
C257	C	0.887872	0.386986	0.930477
C258	C	1.387872	0.886986	1.430477
C259	C	0.897114	0.378377	0.861010
C260	C	1.397114	0.878377	1.361010
C261	C	0.853818	0.418571	0.825513
C262	C	1.353818	0.918571	1.325513
H263	H	0.897711	0.429304	0.941971
H264	H	1.397711	0.929304	1.441971
H265	H	0.842388	0.377764	0.942018
H266	H	1.342388	0.877764	1.442018
H267	H	0.942588	0.387603	0.849474
H268	H	1.442588	0.887603	1.349474
H269	H	0.887270	0.336067	0.849496
H270	H	1.387270	0.836067	1.349496
H271	H	0.808333	0.409349	0.837054
H272	H	1.308333	0.909349	1.337054
H273	H	0.863661	0.460887	0.837012
H274	H	1.363661	0.960887	1.337012
H275	H	0.860078	0.412731	0.778377
H276	H	1.360078	0.912731	1.278377
C277	C	0.227048	0.219353	0.416683
C278	C	0.727048	0.719353	0.916683
C279	C	0.273170	0.184156	0.454667
C280	C	0.773170	0.684156	0.954667
C281	C	0.238006	0.143924	0.498128
C282	C	0.738006	0.643924	0.998128
H283	H	0.199473	0.191837	0.390926
H284	H	0.699473	0.691837	0.890926
H285	H	0.199488	0.243457	0.446167
H286	H	0.699488	0.743457	0.946167
H287	H	0.300718	0.160054	0.425187
H288	H	0.800718	0.660054	0.925187
H289	H	0.300747	0.211655	0.480438
H290	H	0.800747	0.711655	0.980438
H291	H	0.210446	0.168028	0.527612
H292	H	0.710446	0.668028	1.027612
H293	H	0.210432	0.116412	0.472366
H294	H	0.710432	0.616412	0.972366
H295	H	0.269294	0.120042	0.523910
H296	H	0.769294	0.620042	1.023910
H297	H	1.056656	0.662100	0.247678
H298	H	1.556656	1.162100	0.747678
C299	C	0.887933	1.072010	0.416368
C300	C	1.387933	1.572010	0.916368
C301	C	0.897218	1.136617	0.407118
C302	C	1.397218	1.636617	0.907118
C303	C	0.853944	1.169624	0.450297
C304	C	1.353944	1.669624	0.950297
H305	H	0.897766	1.061271	0.461879
H306	H	1.397766	1.561271	0.961879
H307	H	0.842442	1.061320	0.406411
H308	H	1.342442	1.561320	0.906411
H309	H	0.942698	1.147302	0.417080
H310	H	1.442698	1.647302	0.917080
H311	H	0.887379	1.147374	0.361617
H312	H	1.387379	1.647374	0.861617
H313	H	0.808452	1.158934	0.440341
H314	H	1.308452	1.658934	0.940341
H315	H	0.863780	1.158880	0.495805
H316	H	1.363780	1.658880	0.995805
H317	H	0.860232	1.213463	0.444023
H318	H	1.360232	1.713463	0.944023
H319	H	0.899612	0.943707	0.404667
H320	H	1.399612	1.443707	0.904667
H321	H	1.056775	0.230057	0.940269
H322	H	1.556775	0.730057	1.440269
H323	H	0.899574	0.376165	0.712678
H324	H	1.399574	0.876165	1.212678
H325	H	0.899548	0.376191	0.584433
H326	H	1.399548	0.876191	1.084433
H327	H	0.592122	0.376180	0.247448
H328	H	1.092122	0.876180	0.747448
H329	H	0.364599	0.376181	0.247482
H330	H	0.864599	0.876181	0.747482
