data_functionalizedCrystal
_audit_creation_method	'MofGen! by Chris Wilmer'
_symmetry_space_group_name_H-M	'P1'
_symmetry_Int_Tables_number	1
_symmetry_cell_setting	triclinic
loop_
_symmetry_equiv_pos_as_xyz
  x,y,z
_cell_length_a	12.827892
_cell_length_b	18.215407
_cell_length_c	18.215399
_cell_angle_alpha	90.017777
_cell_angle_beta	89.976162
_cell_angle_gamma	89.988988
loop_
_atom_site_label
_atom_site_type_symbol
_atom_site_fract_x
_atom_site_fract_y
_atom_site_fract_z
Zn1	Zn	-0.416166	-1.125120	-0.416097
Zn2	Zn	-0.590925	-1.125049	-0.293039
Zn3	Zn	-0.416185	-1.002053	-0.293048
Zn4	Zn	-0.590852	-1.002039	-0.416068
O5	O	-0.503532	-1.063566	-0.354563
O6	O	-0.439370	-1.228095	-0.399781
O7	O	-0.567784	-1.108710	-0.190056
O8	O	-0.269947	-1.018414	-0.309387
O9	O	-0.567765	-1.228043	-0.309371
O10	O	-0.269932	-1.108831	-0.399790
O11	O	-0.439404	-1.018345	-0.190063
O12	O	-0.439333	-0.899067	-0.309359
O13	O	-0.567641	-1.018390	-0.519056
O14	O	-0.567660	-0.899057	-0.399742
O15	O	-0.439300	-1.108818	-0.519077
O16	O	-0.737151	-1.108696	-0.309344
O17	O	-0.737098	-1.018321	-0.399733
C18	C	-0.503491	-0.872359	-0.354549
C19	C	-0.503499	-0.790560	-0.354560
C20	C	-0.436773	-0.602393	-0.401710
C21	C	-0.436779	-0.525534	-0.401711
C22	C	-0.570275	-0.525490	-0.307422
C23	C	-0.570264	-0.602348	-0.307417
C24	C	-0.503514	-0.640797	-0.354565
C25	C	-0.503531	-0.487081	-0.354572
C26	C	-0.503538	-0.403747	-0.354574
C27	C	-0.503506	-0.724136	-0.354563
C28	C	-0.775042	-1.063519	-0.354550
C29	C	-0.891195	-1.063567	-0.354569
C30	C	-0.942972	-1.108341	-0.309891
C31	C	-1.063022	-1.108391	-0.309910
C32	C	-0.230962	-1.063632	-0.354592
C33	C	-0.114809	-1.063660	-0.354605
C34	C	-0.503460	-1.063610	-0.546516
C35	C	-0.503429	-1.063629	-0.628315
C36	C	-0.503562	-0.255518	-0.354576
C37	C	-0.503546	-0.337317	-0.354577
C38	C	-0.436540	-1.110732	-0.816521
C39	C	-0.436509	-1.110741	-0.893380
C40	C	-0.570158	-1.016579	-0.893347
C41	C	-0.570182	-1.016567	-0.816490
C42	C	-0.503375	-1.063648	-0.778079
C43	C	-0.503320	-1.063668	-0.931795
C44	C	-0.503287	-1.063678	-1.015128
C45	C	-0.503405	-1.063638	-0.694740
C46	C	-0.503529	-1.063563	-0.163357
C47	C	-0.503265	-1.063687	-0.081558
H48	H	-0.624614	-0.633617	-0.269023
C49	C	-0.363361	-0.483293	-0.453576
N50	N	-0.308059	-0.451477	-0.492644
H51	H	-0.624622	-0.494176	-0.269037
C52	C	-0.882793	-1.160077	-0.258196
N53	N	-0.837468	-1.199045	-0.219256
C54	C	-1.123173	-1.160176	-0.258232
N55	N	-1.168481	-1.199183	-0.219307
H56	H	-1.070290	-1.025323	-0.392854
C57	C	-0.951374	-1.011829	-0.406263
N58	N	-0.996699	-0.972858	-0.445199
C59	C	-0.363040	-1.162515	-0.774272
N60	N	-0.307675	-1.201517	-0.742451
C61	C	-0.362988	-1.162539	-0.935663
N62	N	-0.307608	-1.201555	-0.967510
C63	C	-0.643640	-0.964792	-0.935606
N64	N	-0.698988	-0.925784	-0.967435
H65	H	-0.382418	-0.633696	-0.440098
H66	H	-0.624606	-0.978220	-0.785189
