data_functionalizedCrystal
_audit_creation_method	'MofGen! by Chris Wilmer'
_symmetry_space_group_name_H-M	'P1'
_symmetry_Int_Tables_number	1
_symmetry_cell_setting	triclinic
loop_
_symmetry_equiv_pos_as_xyz
  x,y,z
_cell_length_a	6.817900
_cell_length_b	11.102244
_cell_length_c	14.125286
_cell_angle_alpha	94.649566
_cell_angle_beta	100.396688
_cell_angle_gamma	108.604870
loop_
_atom_site_label
_atom_site_type_symbol
_atom_site_fract_x
_atom_site_fract_y
_atom_site_fract_z
V1	V	-4.017300	-0.174857	-0.299988
O2	O	-3.978132	0.009412	-0.294280
O3	O	-3.994716	-0.347683	-0.297934
O4	O	-3.952986	-0.171724	-0.430824
O5	O	-4.020150	-0.167765	-0.160470
V6	V	-4.499645	-0.152869	-0.283301
O7	O	-4.281143	-0.223090	-0.336593
O8	O	-4.685999	-0.104635	-0.246696
O9	O	-4.299022	0.019958	-0.285355
O10	O	-4.656209	-0.337138	-0.289009
O11	O	-4.614191	-0.159961	-0.422819
O12	O	-4.340752	-0.156001	-0.152465
C13	C	-3.846512	-0.389829	-0.293201
C14	C	-3.909227	-0.531114	-0.292393
C15	C	-3.906194	-0.579638	-0.203908
C16	C	-3.965133	-0.712392	-0.203160
C17	C	-4.030130	-0.748088	-0.379392
C18	C	-3.971205	-0.615336	-0.380139
C19	C	-3.868660	-0.559030	-0.102161
C20	C	-3.927599	-0.691785	-0.101414
C21	C	-3.793280	-0.165374	-0.462714
C22	C	-3.822151	-0.163956	-0.569674
C23	C	-4.061305	-0.166532	-0.817796
C24	C	-3.875020	-0.161192	-0.765481
C25	C	-3.845604	-0.162730	-0.656524
C26	C	-4.090728	-0.164994	-0.926763
C27	C	-4.110569	0.062096	-0.290085
C28	C	-4.027091	0.203380	-0.290899
C29	C	-4.163801	-0.162356	-0.120569
C30	C	-4.114168	-0.163768	-0.013609
H31	H	-3.789068	-0.714944	-0.058467
C32	C	-4.114820	-0.492869	-0.487734
C33	C	-3.974588	-0.562007	-0.477409
H34	H	-4.116924	-0.459957	-0.547792
H35	H	-4.069460	-0.423710	-0.435597
H36	H	-4.253192	-0.548063	-0.486833
H37	H	-3.836212	-0.506811	-0.478303
H38	H	-4.019938	-0.631175	-0.529560
H39	H	-3.978370	-0.520050	-0.066980
C40	C	-3.538531	-0.576571	-0.022804
C41	C	-3.633122	-0.487891	-0.054721
H42	H	-3.393122	-0.532649	0.006487
H43	H	-3.549961	-0.637291	-0.076710
H44	H	-3.608342	-0.619900	0.023472
H45	H	-3.563320	-0.444569	-0.101003
H46	H	-3.621676	-0.427149	-0.000808
C47	C	-4.205630	-0.645627	-0.039530
C48	C	-4.131698	-0.745650	-0.063602
H49	H	-4.331624	-0.678886	-0.016184
H50	H	-4.234782	-0.607193	-0.095654
H51	H	-4.100629	-0.582979	0.009587
H52	H	-4.236693	-0.808295	-0.112724
H53	H	-4.102555	-0.784105	-0.007471
C54	C	-4.275801	-0.825480	-0.533892
C55	C	-4.098254	-0.840672	-0.475837
H56	H	-4.317861	-0.882643	-0.593431
H57	H	-4.241122	-0.739483	-0.546999
H58	H	-4.388842	-0.844032	-0.500622
H59	H	-3.985207	-0.822110	-0.509105
H60	H	-4.132924	-0.926689	-0.462732
C61	C	-3.755037	-0.153432	-0.915306
C62	C	-3.689542	-0.153474	-0.815480
H63	H	-3.640540	-0.148679	-0.946175
H64	H	-3.798725	-0.081374	-0.924900
H65	H	-3.870245	-0.230230	-0.942546
H66	H	-3.574343	-0.076671	-0.788239
H67	H	-3.645824	-0.225539	-0.805880
C68	C	-4.181276	-0.174334	-0.667977
C69	C	-4.246782	-0.174278	-0.767800
H70	H	-4.295785	-0.179129	-0.637107
H71	H	-4.066109	-0.097537	-0.640732
H72	H	-4.137542	-0.246390	-0.658395
H73	H	-4.290501	-0.102216	-0.777382
H74	H	-4.361986	-0.251084	-0.795053
