data_functionalizedCrystal
_audit_creation_method	'MofGen! by Chris Wilmer'
_symmetry_space_group_name_H-M	'P1'
_symmetry_Int_Tables_number	1
_symmetry_cell_setting	triclinic
loop_
_symmetry_equiv_pos_as_xyz
  x,y,z
_cell_length_a	15.297475
_cell_length_b	29.839131
_cell_length_c	15.298259
_cell_angle_alpha	80.280107
_cell_angle_beta	88.370891
_cell_angle_gamma	80.343089
loop_
_atom_site_label
_atom_site_type_symbol
_atom_site_fract_x
_atom_site_fract_y
_atom_site_fract_z
Zn1	Zn	1.253365	-0.224385	-0.726610
Zn2	Zn	1.753365	0.275615	-0.226610
Zn3	Zn	1.278551	-0.314322	-0.580088
Zn4	Zn	1.778551	0.185678	-0.080088
Zn5	Zn	1.132216	-0.228754	-0.554833
Zn6	Zn	1.632216	0.271246	-0.054833
Zn7	Zn	1.106810	-0.289027	-0.701235
Zn8	Zn	1.606810	0.210973	-0.201235
O9	O	1.192735	-0.264122	-0.640691
O10	O	1.692735	0.235878	-0.140691
O11	O	1.379282	-0.245072	-0.728363
O12	O	1.879282	0.254928	-0.228363
O13	O	1.280311	-0.315386	-0.454148
O14	O	1.780311	0.184614	0.045852
O15	O	1.148379	-0.165311	-0.577670
O16	O	1.648379	0.334689	-0.077670
O17	O	1.397785	-0.311149	-0.620713
O18	O	1.897785	0.188851	-0.120713
O19	O	1.237387	-0.162101	-0.703874
O20	O	1.737387	0.337899	-0.203874
O21	O	1.172800	-0.252519	-0.435593
O22	O	1.672800	0.247481	0.064407
O23	O	1.006270	-0.227992	-0.553065
O24	O	1.506270	0.272008	-0.053065
O25	O	1.105079	-0.268037	-0.827191
O26	O	1.605079	0.231963	-0.327191
O27	O	0.987605	-0.272274	-0.660625
O28	O	1.487605	0.227726	-0.160625
O29	O	1.212752	-0.220545	-0.845834
O30	O	1.712752	0.279455	-0.345834
O31	O	1.255677	-0.373830	-0.596107
O32	O	1.755677	0.126170	-0.096107
O33	O	1.129500	-0.355246	-0.685114
O34	O	1.629500	0.144754	-0.185114
C35	C	0.965155	-0.247862	-0.601351
C36	C	1.465155	0.252138	-0.101351
C37	C	0.867791	-0.240915	-0.584542
C38	C	1.367791	0.259085	-0.084542
C39	C	1.192585	-0.380838	-0.640621
C40	C	1.692585	0.119162	-0.140621
C41	C	1.192595	-0.430772	-0.640634
C42	C	1.692595	0.069228	-0.140634
C43	C	0.554625	-0.313777	-0.760831
C44	C	1.054625	0.186223	-0.260831
C45	C	0.646103	-0.320308	-0.776621
C46	C	1.146103	0.179692	-0.276621
C47	C	0.701530	-0.300460	-0.728603
C48	C	1.201530	0.199540	-0.228603
C49	C	0.665469	-0.274081	-0.664791
C50	C	1.165469	0.225919	-0.164791
C51	C	0.573982	-0.267552	-0.648994
C52	C	1.073982	0.232448	-0.148994
C53	C	0.720887	-0.254236	-0.616767
C54	C	1.220887	0.245764	-0.116767
C55	C	0.684826	-0.227856	-0.552955
C56	C	1.184826	0.272144	-0.052955
C57	C	0.593348	-0.221329	-0.537162
C58	C	1.093348	0.278671	-0.037162
C59	C	0.537922	-0.241176	-0.585179
C60	C	1.037922	0.258824	-0.085179
C61	C	0.812374	-0.260764	-0.632564
C62	C	1.312374	0.239236	-0.132564
C63	C	0.831731	-0.214539	-0.520728
C64	C	1.331731	0.285461	-0.020728
C65	C	0.740253	-0.208009	-0.504937
C66	C	1.240253	0.291991	-0.004937
C67	C	1.258524	-0.750085	-0.594445
C68	C	1.758524	-0.250085	-0.094445
C69	C	1.258626	-0.937763	-0.594498
C70	C	1.758626	-0.437763	-0.094498
O71	O	1.314560	-0.970244	-0.555172
O72	O	1.814560	-0.470244	-0.055172
N73	N	1.192906	-0.951570	-0.640789
N74	N	1.692906	-0.451570	-0.140789
C75	C	1.127159	-0.918455	-0.687075
C76	C	1.627159	-0.418455	-0.187075
O77	O	1.071267	-0.934505	-0.726457
O78	O	1.571267	-0.434505	-0.226457
C79	C	1.127061	-0.730778	-0.687027
C80	C	1.627061	-0.230778	-0.187027
C81	C	1.192780	-0.716974	-0.640725
C82	C	1.692780	-0.216974	-0.140725
C83	C	1.324238	-0.736280	-0.548149
C84	C	1.824238	-0.236280	-0.048149
C85	C	1.324209	-0.689364	-0.548132
C86	C	1.824209	-0.189364	-0.048132
C87	C	1.258466	-0.656252	-0.594412
C88	C	1.758466	-0.156252	-0.094412
C89	C	1.192751	-0.670057	-0.640709
C90	C	1.692751	-0.170057	-0.140709
C91	C	1.061318	-0.697663	-0.733317
C92	C	1.561318	-0.197663	-0.233317
C93	C	1.061301	-0.650742	-0.733303
C94	C	1.561301	-0.150742	-0.233303
C95	C	1.127020	-0.636938	-0.687002
C96	C	1.627020	-0.136938	-0.187002
C97	C	1.126979	-0.590029	-0.686972
C98	C	1.626979	-0.090029	-0.186972
N99	N	1.192699	-0.576222	-0.640681
N100	N	1.692699	-0.076222	-0.140681
C101	C	1.258442	-0.609333	-0.594401
C102	C	1.758442	-0.109333	-0.094401
C103	C	1.127214	-1.016988	-0.687095
C104	C	1.627214	-0.516988	-0.187095
C105	C	1.127237	-1.063907	-0.687106
C106	C	1.627237	-0.563907	-0.187106
C107	C	1.258705	-1.083212	-0.594531
C108	C	1.758705	-0.583212	-0.094531
C109	C	1.258678	-1.036292	-0.594515
C110	C	1.758678	-0.536292	-0.094515
C111	C	1.192934	-1.003181	-0.640804
C112	C	1.692934	-0.503181	-0.140804
C113	C	1.258376	-0.510805	-0.594369
C114	C	1.758376	-0.010805	-0.094369
C115	C	1.258339	-0.463883	-0.594354
C116	C	1.758339	0.036117	-0.094354
C117	C	1.126874	-0.444582	-0.686933
C118	C	1.626874	0.055418	-0.186933
C119	C	1.126908	-0.491500	-0.686945
C120	C	1.626908	0.008500	-0.186945
C121	C	1.192666	-0.524611	-0.640661
C122	C	1.692666	-0.024611	-0.140661
O123	O	1.071079	-0.557523	-0.726286
O124	O	1.571079	-0.057523	-0.226286
O125	O	1.314336	-0.593273	-0.555041
O126	O	1.814336	-0.093273	-0.055041
C127	C	1.258553	-0.797002	-0.594462
C128	C	1.758553	-0.297002	-0.094462
C129	C	1.192838	-0.810807	-0.640759
C130	C	1.692838	-0.310807	-0.140759
C131	C	1.127095	-0.777696	-0.687039
C132	C	1.627095	-0.277696	-0.187039
C133	C	1.192861	-0.857726	-0.640770
C134	C	1.692861	-0.357726	-0.140770
C135	C	1.258605	-0.890837	-0.594490
C136	C	1.758605	-0.390837	-0.094490
C137	C	1.324325	-0.877030	-0.548199
C138	C	1.824325	-0.377030	-0.048199
C139	C	1.324296	-0.830113	-0.548182
C140	C	1.824296	-0.330113	-0.048182
C141	C	1.061375	-0.791503	-0.733330
C142	C	1.561375	-0.291503	-0.233330
C143	C	1.061408	-0.838420	-0.733342
C144	C	1.561408	-0.338420	-0.233342
C145	C	1.127152	-0.871532	-0.687062
C146	C	1.627152	-0.371532	-0.187062
C147	C	1.421205	-0.280445	-0.680186
C148	C	1.921205	0.219555	-0.180186
C149	C	1.518565	-0.287401	-0.697016
C150	C	2.018565	0.212599	-0.197016
C151	C	1.153272	-0.240982	-0.869188
C152	C	1.653272	0.259018	-0.369188
C153	C	1.136455	-0.231121	-0.966559
C154	C	1.636455	0.268879	-0.466559
C155	C	1.192907	-0.146950	-0.640786
C156	C	1.692907	0.353050	-0.140786
C157	C	1.192981	-0.097019	-0.640826
C158	C	1.692981	0.402981	-0.140826
C159	C	1.312957	-0.334255	-1.279667
C160	C	1.812957	0.165745	-0.779667
C161	C	1.328753	-0.343522	-1.188181
C162	C	1.828753	0.156478	-0.688181
C163	C	1.280680	-0.315422	-1.132771
C164	C	1.780680	0.184578	-0.632771
C165	C	1.216808	-0.278054	-1.168856
C166	C	1.716808	0.221946	-0.668856
C167	C	1.201006	-0.268788	-1.260350
C168	C	1.701006	0.231212	-0.760350
C169	C	1.168729	-0.249956	-1.113454
C170	C	1.668729	0.250044	-0.613454
C171	C	1.104857	-0.212588	-1.149539
C172	C	1.604857	0.287412	-0.649539
C173	C	1.089058	-0.203323	-1.241025
C174	C	1.589058	0.296677	-0.741025
C175	C	1.137131	-0.231423	-1.296435
C176	C	1.637131	0.268577	-0.796435
C177	C	1.184531	-0.259222	-1.021960
C178	C	1.684531	0.240778	-0.521960
C179	C	1.072580	-0.193756	-1.002643
C180	C	1.572580	0.306244	-0.502643
C181	C	1.056784	-0.184488	-1.094129
C182	C	1.556784	0.315512	-0.594129
C183	C	1.232096	-0.287143	-0.413093
C184	C	1.732096	0.212857	0.086907
C185	C	1.249082	-0.296889	-0.315752
C186	C	1.749082	0.203111	0.184248
H187	H	0.841725	-0.282242	-0.684520
H188	H	1.341725	0.217758	-0.184520
O189	O	1.388233	-0.909140	-0.503165
O190	O	1.888233	-0.409140	-0.003165
C191	C	1.446254	-0.886900	-0.462316
C192	C	1.946254	-0.386900	0.037684
H193	H	1.410897	-0.851223	-0.453030
H194	H	1.910897	-0.351223	0.046970
H195	H	1.467583	-0.908130	-0.394936
H196	H	1.967583	-0.408130	0.105064
H197	H	1.507199	-0.883363	-0.505948
H198	H	2.007199	-0.383363	-0.005948
O199	O	1.062908	-0.412436	-0.731781
O200	O	1.562908	0.087564	-0.231781
C201	C	0.978936	-0.419663	-0.697513
C202	C	1.478936	0.080337	-0.197513
H203	H	0.986645	-0.439350	-0.626771
H204	H	1.486645	0.060650	-0.126771
H205	H	0.934347	-0.384974	-0.697547
H206	H	1.434347	0.115026	-0.197547
H207	H	0.947912	-0.440507	-0.740511
H208	H	1.447912	0.059493	-0.240511
H209	H	0.563993	-0.199854	-0.485193
H210	H	1.063993	0.300146	0.014807
H211	H	1.311924	-0.537759	-0.556683
H212	H	1.811924	-0.037759	-0.056683
O213	O	0.449031	-0.234827	-0.569994
O214	O	0.949031	0.265173	-0.069994
C215	C	0.403978	-0.212665	-0.648713
C216	C	0.903978	0.287335	-0.148713
H217	H	0.447990	-0.219025	-0.708252
H218	H	0.947990	0.280975	-0.208252
H219	H	0.340093	-0.227015	-0.653641
H220	H	0.840093	0.272985	-0.153641
H221	H	0.387420	-0.174035	-0.647901
H222	H	0.887420	0.325965	-0.147901
O223	O	1.063436	-1.077394	-0.732000
O224	O	1.563436	-0.577394	-0.232000
C225	C	1.077558	-1.125905	-0.722113
C226	C	1.577558	-0.625905	-0.222113
H227	H	1.117971	-1.141212	-0.659499
H228	H	1.617971	-0.641212	-0.159499
H229	H	1.010931	-1.138484	-0.716671
H230	H	1.510931	-0.638484	-0.216671
H231	H	1.115189	-1.137247	-0.782173
H232	H	1.615189	-0.637247	-0.282173
O233	O	0.997350	-0.618639	-0.778286
O234	O	1.497350	-0.118639	-0.278286
C235	C	0.939372	-0.640888	-0.819172
C236	C	1.439372	-0.140888	-0.319172
H237	H	0.942583	-0.677761	-0.782774
H238	H	1.442583	-0.177761	-0.282774
H239	H	0.868737	-0.621498	-0.816537
H240	H	1.368737	-0.121498	-0.316537
H241	H	0.959912	-0.641398	-0.891265
H242	H	1.459912	-0.141398	-0.391265
O243	O	1.322205	-0.450416	-0.549505
O244	O	1.822205	0.049584	-0.049505
C245	C	1.370117	-0.422226	-0.609191
C246	C	1.870117	0.077774	-0.109191
H247	H	1.327705	-0.406268	-0.670202
H248	H	1.827705	0.093732	-0.170202
H249	H	1.388030	-0.393689	-0.575537
H250	H	1.888030	0.106311	-0.075537
H251	H	1.433360	-0.443927	-0.630097
H252	H	1.933360	0.056073	-0.130097
H253	H	0.876860	-0.198379	-0.481626
H254	H	1.376860	0.301621	0.018374
O255	O	0.705197	-0.182459	-0.442847
O256	O	1.205197	0.317541	0.057153
C257	C	0.662007	-0.209949	-0.377045
C258	C	1.162007	0.290051	0.122955
H259	H	0.690493	-0.247852	-0.376258
H260	H	1.190493	0.252148	0.123742
H261	H	0.672603	-0.200394	-0.309506
H262	H	1.172603	0.299606	0.190494
H263	H	0.588002	-0.203829	-0.392159
H264	H	1.088002	0.296171	0.107841
H265	H	1.377725	-0.678128	-0.510433
H266	H	1.877725	-0.178128	-0.010433
H267	H	1.124276	-0.223879	-1.370931
H268	H	1.624276	0.276121	-0.870931
H269	H	1.377779	-0.763236	-0.510462
H270	H	1.877779	-0.263236	-0.010462
H271	H	0.776015	-0.305779	-0.741464
H272	H	1.276015	0.194221	-0.241464
H273	H	1.312192	-1.025056	-0.556813
H274	H	1.812192	-0.525056	-0.056813
O275	O	0.500845	-0.333129	-0.807389
O276	O	1.000845	0.166871	-0.307389
C277	C	0.526488	-0.381435	-0.791957
C278	C	1.026488	0.118565	-0.291957
H279	H	0.563706	-0.392532	-0.726303
H280	H	1.063706	0.107468	-0.226303
H281	H	0.465011	-0.398584	-0.789038
H282	H	0.965011	0.101416	-0.289038
H283	H	0.571482	-0.392251	-0.848051
H284	H	1.071482	0.107749	-0.348051
O285	O	0.681279	-0.345929	-0.838551
O286	O	1.181279	0.154071	-0.338551
C287	C	0.773904	-0.347425	-0.842214
C288	C	1.273904	0.152575	-0.342214
H289	H	0.798071	-0.340394	-0.776816
H290	H	1.298071	0.159606	-0.276816
H291	H	0.807629	-0.382968	-0.854038
H292	H	1.307629	0.117032	-0.354038
H293	H	0.790911	-0.320125	-0.898747
H294	H	1.290911	0.179875	-0.398747
O295	O	1.322571	-1.115438	-0.549713
O296	O	1.822571	-0.615438	-0.049713
C297	C	1.308500	-1.159807	-0.559671
C298	C	1.808500	-0.659807	-0.059671
H299	H	1.268014	-1.157304	-0.622245
H300	H	1.768014	-0.657304	-0.122245
H301	H	1.375144	-1.182869	-0.565234
H302	H	1.875144	-0.682869	-0.065234
H303	H	1.270965	-1.175127	-0.499588
H304	H	1.770965	-0.675127	0.000412
O305	O	0.994837	-0.148139	-1.129163
O306	O	1.494837	0.351861	-0.629163
C307	C	1.017894	-0.106998	-1.110136
C308	C	1.517894	0.393002	-0.610136
H309	H	1.092216	-0.112276	-1.097079
H310	H	1.592216	0.387724	-0.597079
H311	H	0.999994	-0.078173	-1.169020
H312	H	1.499994	0.421827	-0.669020
H313	H	0.980117	-0.097276	-1.048926
H314	H	1.480117	0.402724	-0.548926
O315	O	1.025983	-0.166491	-0.948707
O316	O	1.525983	0.333509	-0.448707
C317	C	1.053612	-0.182688	-0.860216
C318	C	1.553612	0.317312	-0.360216
H319	H	1.123347	-0.203495	-0.859397
H320	H	1.623347	0.296505	-0.359397
H321	H	1.053726	-0.152136	-0.824444
H322	H	1.553726	0.347864	-0.324444
H323	H	1.006106	-0.205528	-0.825253
H324	H	1.506106	0.294472	-0.325253
O325	O	1.063253	-0.984887	-0.732069
O326	O	1.563253	-0.484887	-0.232069
C327	C	1.005270	-1.007142	-0.772938
C328	C	1.505270	-0.507142	-0.272938
H329	H	1.008497	-1.044015	-0.736538
H330	H	1.508497	-0.544015	-0.236538
H331	H	0.934633	-0.987756	-0.770286
H332	H	1.434633	-0.487756	-0.270286
H333	H	1.025793	-1.007649	-0.845036
H334	H	1.525793	-0.507649	-0.345036
H335	H	1.007884	-0.849654	-0.771044
H336	H	1.507884	-0.349654	-0.271044
H337	H	1.007799	-0.708894	-0.771016
H338	H	1.507799	-0.208894	-0.271016
H339	H	1.073396	-0.502739	-0.724650
H340	H	1.573396	-0.002739	-0.224650
H341	H	1.380749	-0.373951	-1.158806
H342	H	1.880749	0.126049	-0.658806
O343	O	1.246514	-0.295567	-0.987001
O344	O	1.746514	0.204433	-0.487001
C345	C	1.223427	-0.336708	-1.005995
C346	C	1.723427	0.163292	-0.505995
H347	H	1.178279	-0.328504	-1.066599
H348	H	1.678279	0.171496	-0.566599
H349	H	1.286071	-0.361052	-1.020039
H350	H	1.786071	0.138948	-0.520039
H351	H	1.187264	-0.353835	-0.946706
H352	H	1.687264	0.146165	-0.446706
H353	H	1.377811	-0.818878	-0.510479
H354	H	1.877811	-0.318878	-0.010479
H355	H	1.007839	-0.764546	-0.771018
H356	H	1.507839	-0.264546	-0.271018
O357	O	1.296164	-0.324474	-1.043927
O358	O	1.796164	0.175526	-0.543927
C359	C	1.362832	-0.363487	-1.023956
C360	C	1.862832	0.136513	-0.523956
H361	H	1.404890	-0.368098	-1.085521
H362	H	1.904890	0.131902	-0.585521
H363	H	1.406665	-0.358506	-0.968508
H364	H	1.906665	0.141494	-0.468508
H365	H	1.330850	-0.395404	-1.001688
H366	H	1.830850	0.104596	-0.501688
O367	O	1.026902	-0.167050	-1.275955
O368	O	1.526902	0.332950	-0.775955
C369	C	0.943446	-0.172902	-1.238510
C370	C	1.443446	0.327098	-0.738510
H371	H	0.953083	-0.196770	-1.171757
H372	H	1.453083	0.303230	-0.671757
H373	H	0.904759	-0.137992	-1.228610
H374	H	1.404759	0.362008	-0.728610
H375	H	0.905013	-0.188674	-1.284881
H376	H	1.405013	0.311326	-0.784881
H377	H	1.352085	-0.357132	-1.324788
H378	H	1.852085	0.142868	-0.824788
