data_functionalizedCrystal
_audit_creation_method	'MofGen! by Chris Wilmer'
_symmetry_space_group_name_H-M	'P1'
_symmetry_Int_Tables_number	1
_symmetry_cell_setting	triclinic
loop_
_symmetry_equiv_pos_as_xyz
  x,y,z
_cell_length_a	13.930277
_cell_length_b	14.853567
_cell_length_c	14.853559
_cell_angle_alpha	83.633192
_cell_angle_beta	89.993167
_cell_angle_gamma	90.004247
loop_
_atom_site_label
_atom_site_type_symbol
_atom_site_fract_x
_atom_site_fract_y
_atom_site_fract_z
O1	O	0.079773	1.196365	0.117692
O2	O	0.079786	0.933905	0.131713
O3	O	0.079779	1.072150	-0.006528
O4	O	0.079781	1.058121	0.255933
O5	O	-0.079883	1.072130	-0.006506
O6	O	-0.079875	0.933885	0.131735
O7	O	-0.079888	1.196345	0.117713
Zn8	Zn	-0.105232	1.065112	0.124727
Zn9	Zn	0.105130	1.065139	0.124699
O10	O	-0.079881	1.058100	0.255954
C11	C	-0.000043	0.900307	0.131089
C12	C	-0.000038	0.800223	0.129185
N13	N	-0.248798	1.065100	0.124746
C14	C	-0.000051	1.071506	-0.040106
C15	C	-0.000045	1.069605	-0.140190
C16	C	-0.701059	1.119893	0.179462
C17	C	-0.701044	1.010412	0.069899
C18	C	-0.600549	1.010399	0.069914
C19	C	-0.550304	1.065134	0.124703
C20	C	-0.600554	1.119883	0.179477
C21	C	-0.550290	0.955658	0.015134
C22	C	-0.449788	0.955642	0.015145
C23	C	-0.399542	1.010373	0.069940
C24	C	-0.449798	1.065124	0.124717
C25	C	-0.399553	1.119859	0.179506
C26	C	-0.449808	1.174605	0.234288
C27	C	-0.550307	1.174614	0.234271
C28	C	-0.299043	1.010365	0.069957
C29	C	-0.299048	1.119849	0.179520
N30	N	0.248696	1.065157	0.124674
C31	C	-0.000057	1.229944	0.118338
C32	C	-0.000056	1.330027	0.120242
C33	C	-0.000038	1.742559	0.210408
C34	C	-0.000040	1.763845	0.046174
C35	C	-0.000045	1.669811	0.044384
C36	C	-0.000046	1.612147	0.125607
C37	C	-0.000040	1.648516	0.208620
C38	C	-0.000041	1.633434	-0.038627
C39	C	-0.000045	1.539395	-0.040421
C40	C	-0.000052	1.481729	0.040803
C41	C	-0.000048	1.518104	0.123819
C42	C	-0.000048	1.460440	0.205042
C43	C	-0.000051	1.496812	0.288060
C44	C	-0.000047	1.590850	0.289844
C45	C	-0.000056	1.387692	0.039019
C46	C	-0.000051	1.366397	0.203255
C47	C	0.086987	1.061552	-0.563377
C48	C	-0.087082	1.061530	-0.563348
C49	C	-0.087083	1.063323	-0.469315
C50	C	-0.000048	1.064230	-0.422308
C51	C	0.086989	1.063343	-0.469334
C52	C	-0.174118	1.064201	-0.422280
C53	C	-0.174123	1.065994	-0.328241
C54	C	-0.087086	1.066907	-0.281233
C55	C	-0.000046	1.066021	-0.328266
C56	C	0.086990	1.066927	-0.281259
C57	C	0.174031	1.066048	-0.328290
C58	C	0.174026	1.064256	-0.422326
C59	C	-0.087081	1.068698	-0.187197
C60	C	0.086992	1.068718	-0.187216
C61	C	-0.000049	1.058745	0.289532
C62	C	-0.000048	1.060646	0.389616
H63	H	-0.258146	1.164417	0.224141
C64	C	-0.605565	0.895451	-0.045127
N65	N	-0.647204	0.850098	-0.090515
H66	H	-0.591234	1.219187	0.278870
H67	H	-0.000044	1.772178	0.277998
C68	C	0.269767	1.067047	-0.276571
N69	N	0.341873	1.067803	-0.237612
C70	C	-0.394517	0.895414	-0.045109
N71	N	-0.352886	0.850045	-0.090489
C72	C	0.269762	1.063279	-0.474066
N73	N	0.341870	1.062538	-0.513040
H74	H	-0.157948	1.069394	-0.148906
C75	C	-0.269869	1.066967	-0.276516
N76	N	-0.341986	1.067704	-0.237557
C77	C	-0.000059	1.499394	-0.131741
N78	N	-0.000077	1.469264	-0.200524
C79	C	-0.182816	1.060522	-0.615058
N80	N	-0.254926	1.059763	-0.654009
H81	H	-0.000057	1.319452	0.269397
C82	C	-0.394526	1.234818	0.294548
N83	N	-0.352883	1.280170	0.339933
C84	C	-0.756317	0.950206	0.009636
N85	N	-0.797953	0.904853	-0.035753
C86	C	0.182728	1.060583	-0.615111
N87	N	0.254841	1.059851	-0.654078
C88	C	-0.269851	1.063189	-0.473991
N89	N	-0.341960	1.062424	-0.512944
H90	H	-0.258130	0.965794	0.025351
C91	C	-0.756340	1.180112	0.239719
N92	N	-0.797978	1.225471	0.285104
H93	H	-0.000036	1.680391	-0.104754
C94	C	-0.000051	1.433370	0.377402
N95	N	-0.000052	1.385581	0.444692
H96	H	-0.000047	1.358081	-0.028573
H97	H	-0.000048	1.620473	0.357432
C98	C	-0.000046	1.827278	-0.043166
N99	N	-0.000055	1.875060	-0.110460
H100	H	0.157867	1.069460	-0.148950
