data_functionalizedCrystal
_audit_creation_method	'MofGen! by Chris Wilmer'
_symmetry_space_group_name_H-M	'P1'
_symmetry_Int_Tables_number	1
_symmetry_cell_setting	triclinic
loop_
_symmetry_equiv_pos_as_xyz
  x,y,z
_cell_length_a	14.908520
_cell_length_b	10.686220
_cell_length_c	10.686551
_cell_angle_alpha	90.308082
_cell_angle_beta	90.862058
_cell_angle_gamma	82.567553
loop_
_atom_site_label
_atom_site_type_symbol
_atom_site_fract_x
_atom_site_fract_y
_atom_site_fract_z
Zn1	Zn	-0.219797	-1.955964	0.581353
Zn2	Zn	-0.382976	-1.927616	0.385676
Zn3	Zn	-0.242859	-1.728370	0.389661
Zn4	Zn	-0.381149	-1.734182	0.611296
O5	O	-0.306695	-1.836533	0.491996
O6	O	-0.232556	-2.128406	0.541197
O7	O	-0.374806	-1.886890	0.211558
O8	O	-0.113634	-1.767992	0.404226
O9	O	-0.352443	-2.107578	0.397434
O10	O	-0.096690	-1.935205	0.545061
O11	O	-0.271863	-1.740504	0.214485
O12	O	-0.270091	-1.552939	0.433260
O13	O	-0.349329	-1.777898	0.781970
O14	O	-0.371692	-1.557209	0.596094
O15	O	-0.230784	-1.940840	0.759972
O16	O	-0.508900	-1.892525	0.426468
O17	O	-0.507558	-1.750410	0.592230
C18	C	-0.323196	-1.509387	0.518359
C19	C	-0.330276	-1.369433	0.529669
C20	C	-0.540939	-1.819059	0.512190
C21	C	-0.641141	-1.811702	0.520862
C22	C	-0.287280	-1.863180	0.817521
C23	C	-0.279006	-1.874535	0.956240
C24	C	-0.830752	-1.946038	0.364664
C25	C	-0.924900	-1.939129	0.372807
C26	C	-0.923588	-1.790984	0.545297
C27	C	-0.829439	-1.797892	0.537153
C28	C	-0.783025	-1.875420	0.446833
C29	C	-0.688875	-1.882321	0.438684
C30	C	-0.687563	-1.734183	0.611179
C31	C	-0.781712	-1.727275	0.619322
C32	C	-0.071534	-1.854112	0.471748
C33	C	0.028678	-1.861603	0.463119
C34	C	-0.290130	-2.164957	0.465531
C35	C	-0.283071	-2.304911	0.454253
C36	C	-0.325966	-1.810067	0.167726
C37	C	-0.333974	-1.798975	0.028966
H38	H	-0.651085	-1.945445	0.365138
O39	O	-0.973657	-1.707353	0.642695
H40	H	-1.047143	-1.714408	0.634540
O41	O	-0.404695	-1.701766	0.970884
H42	H	-0.400308	-1.707792	0.867389
O43	O	-0.780680	-2.029650	0.267254
H44	H	-0.829686	-2.077600	0.211486
O45	O	-0.976383	-2.015285	0.284177
H46	H	-0.928288	-2.070345	0.220001
O47	O	-0.831776	-1.643639	0.716721
H48	H	-0.905263	-1.650686	0.708572
O49	O	-0.222371	-1.373559	0.357253
H50	H	-0.188917	-1.304284	0.303779
O51	O	-0.208264	-1.971724	1.014328
H52	H	-0.212634	-1.965680	1.117823
H53	H	-0.376113	-1.317597	0.602887
O54	O	-0.636089	-1.658013	0.699818
H55	H	-0.562822	-1.675844	0.678989
