data_functionalizedCrystal
_audit_creation_method	'MofGen! by Chris Wilmer'
_symmetry_space_group_name_H-M	'P1'
_symmetry_Int_Tables_number	1
_symmetry_cell_setting	triclinic
loop_
_symmetry_equiv_pos_as_xyz
  x,y,z
_cell_length_a	16.625546
_cell_length_b	17.077404
_cell_length_c	17.077404
_cell_angle_alpha	89.992822
_cell_angle_beta	90.015228
_cell_angle_gamma	89.984053
loop_
_atom_site_label
_atom_site_type_symbol
_atom_site_fract_x
_atom_site_fract_y
_atom_site_fract_z
Zn1	Zn	-0.321261	-1.199950	0.443863
Zn2	Zn	-0.456069	-1.199890	0.312593
Zn3	Zn	-0.321238	-1.068714	0.312608
Zn4	Zn	-0.456040	-1.068651	0.443813
O5	O	-0.388652	-1.134301	0.378219
O6	O	-0.339165	-1.309789	0.426465
O7	O	-0.438185	-1.182490	0.202748
O8	O	-0.208409	-1.086174	0.330046
O9	O	-0.438208	-1.309745	0.330021
O10	O	-0.208426	-1.182593	0.426479
O11	O	-0.339126	-1.086115	0.202759
O12	O	-0.339099	-0.958858	0.329998
O13	O	-0.438159	-1.086067	0.553667
O14	O	-0.438137	-0.958812	0.426394
O15	O	-0.339138	-1.182532	0.553703
O16	O	-0.568897	-1.182429	0.329973
O17	O	-0.568876	-1.086009	0.426380
C18	C	-0.388613	-0.930353	0.378193
C19	C	-0.388615	-0.843103	0.378200
C20	C	-0.440314	-0.467286	0.428343
C21	C	-0.440306	-0.549266	0.428333
C22	C	-0.388655	-0.590255	0.378221
C23	C	-0.337014	-0.549258	0.328111
C24	C	-0.337026	-0.467279	0.328117
C25	C	-0.336990	-0.720128	0.328101
C26	C	-0.336977	-0.802113	0.328095
C27	C	-0.440270	-0.802115	0.428316
C28	C	-0.440283	-0.720136	0.428323
C29	C	-0.388640	-0.679146	0.378214
C30	C	-0.598143	-1.134227	0.378187
C31	C	-0.687764	-1.134267	0.378199
C32	C	-1.015940	-1.134404	0.378281
C33	C	-0.924631	-1.134363	0.378260
C34	C	-0.851855	-1.134335	0.378239
C35	C	-0.760540	-1.134295	0.378219
C36	C	-0.178343	-1.134397	0.378270
C37	C	-0.088722	-1.134438	0.378291
C38	C	-0.388648	-1.134299	0.582964
C39	C	-0.388646	-1.134299	0.670213
C40	C	-0.388683	-0.339045	0.378242
C41	C	-0.388675	-0.426295	0.378238
C42	C	-0.440244	-1.184478	1.046025
C43	C	-0.440243	-1.184474	0.964044
C44	C	-0.388664	-1.134299	0.923062
C45	C	-0.337089	-1.084119	0.964065
C46	C	-0.337094	-1.084119	1.046044
C47	C	-0.337079	-1.084123	0.793195
C48	C	-0.337072	-1.084124	0.711211
C49	C	-0.440228	-1.184478	0.711195
C50	C	-0.440234	-1.184479	0.793174
C51	C	-0.388657	-1.134299	0.834171
C52	C	-0.388673	-1.134298	1.174272
C53	C	-0.388670	-1.134303	1.087022
H54	H	-0.294936	-0.686756	0.287298
Cl55	Cl	-0.272232	-1.021043	0.659691
Cl56	Cl	-0.505247	-0.415765	0.491348
Cl57	Cl	-0.272252	-1.021043	1.097584
Cl58	Cl	-0.272235	-1.021052	0.912545
H59	H	-0.482358	-0.582637	0.469131
Cl60	Cl	-0.505079	-1.247556	0.912508
Cl61	Cl	-0.505212	-0.668609	0.491326
H62	H	-0.294962	-0.582638	0.287305
Cl63	Cl	-0.272226	-1.021051	0.844733
H64	H	-0.294910	-0.835484	0.287297
H65	H	-0.482317	-0.835494	0.469119
H66	H	-0.294974	-0.433906	0.287319
Cl67	Cl	-0.505085	-1.247564	1.097537
Cl68	Cl	-0.505075	-1.247559	0.844693
H69	H	-0.482224	-1.225337	0.677811
