data_functionalizedCrystal
_audit_creation_method	'MofGen! by Chris Wilmer'
_symmetry_space_group_name_H-M	'P1'
_symmetry_Int_Tables_number	1
_symmetry_cell_setting	triclinic
loop_
_symmetry_equiv_pos_as_xyz
  x,y,z
_cell_length_a	18.215407
_cell_length_b	12.594516
_cell_length_c	18.215399
_cell_angle_alpha	89.977894
_cell_angle_beta	89.980167
_cell_angle_gamma	90.016501
loop_
_atom_site_label
_atom_site_type_symbol
_atom_site_fract_x
_atom_site_fract_y
_atom_site_fract_z
Zn1	Zn	1.125117	-0.423740	-0.416146
Zn2	Zn	1.458450	-0.090407	-0.082812
Zn3	Zn	1.791784	0.242926	0.250521
Zn4	Zn	1.125045	-0.601738	-0.293092
Zn5	Zn	1.458378	-0.268404	0.040241
Zn6	Zn	1.791711	0.064929	0.373575
Zn7	Zn	1.002050	-0.423775	-0.293093
Zn8	Zn	1.335383	-0.090442	0.040240
Zn9	Zn	1.668716	0.242892	0.373574
Zn10	Zn	1.002035	-0.601679	-0.416117
Zn11	Zn	1.335368	-0.268345	-0.082784
Zn12	Zn	1.668701	0.064988	0.250550
O13	O	1.063561	-0.512733	-0.354612
O14	O	1.396895	-0.179400	-0.021279
O15	O	1.730228	0.153934	0.312055
O16	O	1.228092	-0.447362	-0.399834
O17	O	1.561425	-0.114029	-0.066501
O18	O	1.894758	0.219304	0.266833
O19	O	1.108705	-0.578170	-0.190108
O20	O	1.442038	-0.244837	0.143225
O21	O	1.775372	0.088497	0.476559
O22	O	1.018412	-0.274825	-0.309429
O23	O	1.351745	0.058509	0.023904
O24	O	1.685078	0.391842	0.357238
O25	O	1.228038	-0.578136	-0.309427
O26	O	1.561372	-0.244803	0.023906
O27	O	1.894705	0.088530	0.357240
O28	O	1.108829	-0.274799	-0.399835
O29	O	1.442162	0.058534	-0.066502
O30	O	1.775495	0.391868	0.266832
O31	O	1.018341	-0.447422	-0.190109
O32	O	1.351675	-0.114088	0.143225
O33	O	1.685008	0.219245	0.476558
O34	O	0.899063	-0.447364	-0.309401
O35	O	1.232397	-0.114031	0.023932
O36	O	1.565730	0.219302	0.357266
O37	O	1.018386	-0.578035	-0.519105
O38	O	1.351719	-0.244702	-0.185772
O39	O	1.685052	0.088631	0.147562
O40	O	0.899052	-0.578069	-0.399786
O41	O	1.232386	-0.244736	-0.066453
O42	O	1.565719	0.088598	0.266881
O43	O	1.108814	-0.447305	-0.519126
O44	O	1.442147	-0.113971	-0.185793
O45	O	1.775481	0.219362	0.147540
O46	O	1.108690	-0.750676	-0.309399
O47	O	1.442024	-0.417342	0.023934
O48	O	1.775357	-0.084009	0.357268
O49	O	1.018315	-0.750632	-0.399785
O50	O	1.351649	-0.417299	-0.066452
O51	O	1.684982	-0.083966	0.266882
C52	C	0.872355	-0.512715	-0.354591
C53	C	1.205689	-0.179381	-0.021258
C54	C	1.539022	0.153952	0.312076
C55	C	0.790556	-0.512733	-0.354599
C56	C	1.123890	-0.179399	-0.021266
C57	C	1.457223	0.153934	0.312067
C58	C	0.602376	-0.580898	-0.401604
C59	C	0.935709	-0.247564	-0.068270
C60	C	1.269043	0.085769	0.265063
C61	C	0.525517	-0.580901	-0.401613
C62	C	0.858850	-0.247568	-0.068280
C63	C	1.192184	0.085766	0.265054
C64	C	0.525499	-0.444588	-0.307636
C65	C	0.858832	-0.111254	0.025697
C66	C	1.192166	0.222079	0.359030
C67	C	0.602356	-0.444580	-0.307631
C68	C	0.935690	-0.111246	0.025702
C69	C	1.269023	0.222087	0.359035
C70	C	0.640793	-0.512741	-0.354614
C71	C	0.974126	-0.179407	-0.021281
C72	C	1.307459	0.153926	0.312053
C73	C	0.487077	-0.512752	-0.354628
C74	C	0.820410	-0.179419	-0.021295
C75	C	1.153743	0.153915	0.312039
C76	C	0.403743	-0.512755	-0.354638
C77	C	0.737076	-0.179422	-0.021304
C78	C	1.070410	0.153912	0.312029
C79	C	0.724132	-0.512737	-0.354606
C80	C	1.057465	-0.179403	-0.021272
C81	C	1.390798	0.153930	0.312061
C82	C	1.063513	-0.789274	-0.354605
C83	C	1.396847	-0.455941	-0.021271
C84	C	1.730180	-0.122607	0.312062
C85	C	1.063560	-0.907579	-0.354626
C86	C	1.396893	-0.574246	-0.021293
C87	C	1.730227	-0.240913	0.312040
C88	C	1.014400	-0.976847	-0.403753
C89	C	1.347734	-0.643514	-0.070419
C90	C	1.681067	-0.310181	0.262914
C91	C	0.996471	-1.047706	-0.336600
C92	C	1.329804	-0.714373	-0.003266
C93	C	1.663138	-0.381039	0.330067
C94	C	1.081556	-1.047520	-0.421791
C95	C	1.414890	-0.714186	-0.088457
C96	C	1.748223	-0.380853	0.244876
C97	C	1.045595	-0.976880	-0.287438
C98	C	1.378928	-0.643546	0.045896
C99	C	1.712262	-0.310213	0.379229
C100	C	1.130712	-0.976687	-0.372674
C101	C	1.464045	-0.643354	-0.039341
C102	C	1.797378	-0.310020	0.293993
C103	C	1.112808	-1.047514	-0.305475
C104	C	1.446141	-0.714180	0.027858
C105	C	1.779475	-0.380847	0.361192
C106	C	1.255514	-0.512752	-0.354634
C107	C	1.588848	-0.179419	-0.021300
C108	C	1.922181	0.153915	0.312033
C109	C	1.337313	-0.512760	-0.354643
C110	C	1.670647	-0.179427	-0.021309
C111	C	2.003980	0.153907	0.312024
C112	C	1.063606	-0.512660	-0.546565
C113	C	1.396940	-0.179326	-0.213232
C114	C	1.730273	0.154007	0.120102
C115	C	1.063625	-0.512628	-0.628364
C116	C	1.396959	-0.179295	-0.295031
C117	C	1.730292	0.154038	0.038303
C118	C	1.063630	-0.235112	-0.354635
C119	C	1.396963	0.098221	-0.021302
C120	C	1.730297	0.431555	0.312031
C121	C	1.063659	-0.116807	-0.354645
C122	C	1.396992	0.216527	-0.021312
C123	C	1.730326	0.549860	0.312021
C124	C	1.110728	-0.444493	-0.816570
C125	C	1.444062	-0.111160	-0.483237
C126	C	1.777395	0.222173	-0.149903
C127	C	1.110737	-0.444462	-0.893429
C128	C	1.444070	-0.111129	-0.560096
C129	C	1.777404	0.222204	-0.226762
C130	C	1.016575	-0.580599	-0.893396
C131	C	1.349908	-0.247265	-0.560062
C132	C	1.683241	0.086068	-0.226729
C133	C	1.016563	-0.580624	-0.816538
C134	C	1.349896	-0.247290	-0.483205
C135	C	1.683229	0.086043	-0.149872
C136	C	1.063644	-0.512572	-0.778127
C137	C	1.396977	-0.179239	-0.444794
C138	C	1.730310	0.154094	-0.111461
C139	C	1.063664	-0.512517	-0.931844
C140	C	1.396998	-0.179183	-0.598510
C141	C	1.730331	0.154150	-0.265177
C142	C	1.063674	-0.512483	-1.015177
C143	C	1.397007	-0.179150	-0.681844
C144	C	1.730340	0.154183	-0.348511
C145	C	1.063634	-0.512604	-0.694788
C146	C	1.396967	-0.179271	-0.361455
C147	C	1.730300	0.154063	-0.028122
C148	C	1.063559	-0.512729	-0.163406
C149	C	1.396892	-0.179396	0.169928
C150	C	1.730226	0.153937	0.503261
C151	C	1.063683	-0.512461	-0.081607
C152	C	1.397016	-0.179127	0.251726
C153	C	1.730349	0.154206	0.585059
H154	H	0.494195	-0.389095	-0.269384
H155	H	0.827528	-0.055762	0.063950
H156	H	1.160861	0.277572	0.397283
O157	O	0.639681	-0.646985	-0.447352
O158	O	0.973014	-0.313651	-0.114018
O159	O	1.306348	0.019682	0.219315
C160	C	0.620919	-0.623869	-0.520725
C161	C	0.954252	-0.290535	-0.187391
C162	C	1.287585	0.042798	0.145942
H163	H	0.599806	-0.538846	-0.524534
H164	H	0.933139	-0.205513	-0.191201
H165	H	1.266472	0.127820	0.142133
H166	H	0.671476	-0.633095	-0.557071
H167	H	1.004809	-0.299762	-0.223737
H168	H	1.338142	0.033571	0.109596
H169	H	0.576305	-0.680971	-0.539901
H170	H	0.909638	-0.347637	-0.206568
H171	H	1.242971	-0.014304	0.126766
O172	O	1.162536	-1.084362	-0.255970
O173	O	1.495869	-0.751029	0.077363
O174	O	1.829202	-0.417696	0.410696
C175	C	1.215866	-1.145886	-0.292528
C176	C	1.549200	-0.812553	0.040805
C177	C	1.882533	-0.479219	0.374139
H178	H	1.218035	-1.121899	-0.352842
H179	H	1.551369	-0.788566	-0.019509
H180	H	1.884702	-0.455232	0.313824
H181	H	1.271838	-1.131974	-0.266249
H182	H	1.605172	-0.798641	0.067084
H183	H	1.938505	-0.465308	0.400417
H184	H	1.200851	-1.233532	-0.288053
H185	H	1.534185	-0.900199	0.045280
H186	H	1.867518	-0.566865	0.378613
O187	O	1.099802	-1.084486	-0.489521
O188	O	1.433135	-0.751153	-0.156187
O189	O	1.766469	-0.417819	0.177146
C190	C	1.170055	-1.046727	-0.508928
C191	C	1.503388	-0.713393	-0.175594
C192	C	1.836721	-0.380060	0.157739
H193	H	1.201955	-1.025757	-0.457088
H194	H	1.535289	-0.692424	-0.123754
H195	H	1.868622	-0.359090	0.209579
H196	H	1.200783	-1.110890	-0.540601
H197	H	1.534117	-0.777557	-0.207268
H198	H	1.867450	-0.444224	0.126066
H199	H	1.164235	-0.973002	-0.544787
H200	H	1.497568	-0.639669	-0.211453
H201	H	1.830901	-0.306335	0.121880
H202	H	0.978244	-0.636006	-0.924679
H203	H	1.311578	-0.302672	-0.591346
H204	H	1.644911	0.030661	-0.258012
O205	O	1.156531	-0.378534	-0.779223
O206	O	1.489865	-0.045201	-0.445890
O207	O	1.823198	0.288133	-0.112556
C208	C	1.204034	-0.439139	-0.734752
C209	C	1.537368	-0.105806	-0.401419
C210	C	1.870701	0.227527	-0.068085
H211	H	1.208572	-0.522962	-0.757904
H212	H	1.541906	-0.189629	-0.424570
H213	H	1.875239	0.143705	-0.091237
H214	H	1.260676	-0.400637	-0.733894
H215	H	1.594009	-0.067304	-0.400560
H216	H	1.927342	0.266030	-0.067227
H217	H	1.181269	-0.442825	-0.676499
H218	H	1.514602	-0.109492	-0.343166
H219	H	1.847936	0.223841	-0.009832
O220	O	0.970800	-0.646862	-0.779304
O221	O	1.304133	-0.313529	-0.445971
O222	O	1.637466	0.019804	-0.112637
C223	C	0.929239	-0.706909	-0.829685
C224	C	1.262572	-0.373576	-0.496352
C225	C	1.595906	-0.040242	-0.163018
H226	H	0.959388	-0.710582	-0.884478
H227	H	1.292721	-0.377249	-0.551145
H228	H	1.626055	-0.043916	-0.217811
H229	H	0.921367	-0.790775	-0.807464
H230	H	1.254701	-0.457442	-0.474131
H231	H	1.588034	-0.124109	-0.140798
H232	H	0.873356	-0.667927	-0.837852
H233	H	1.206689	-0.334594	-0.504519
H234	H	1.540023	-0.001260	-0.171185
O235	O	1.156546	-0.378299	-0.930658
O236	O	1.489880	-0.044965	-0.597325
O237	O	1.823213	0.288368	-0.263991
C238	C	1.198081	-0.318225	-0.880272
C239	C	1.531415	0.015109	-0.546938
C240	C	1.864748	0.348442	-0.213605
H241	H	1.200611	-0.361843	-0.825482
H242	H	1.533944	-0.028510	-0.492149
H243	H	1.867278	0.304824	-0.158815
H244	H	1.256071	-0.306867	-0.902491
H245	H	1.589404	0.026466	-0.569157
H246	H	1.922737	0.359799	-0.235824
H247	H	1.171150	-0.237388	-0.872098
H248	H	1.504484	0.095945	-0.538765
H249	H	1.837817	0.429279	-0.205432
H250	H	0.494241	-0.636400	-0.439878
H251	H	0.827575	-0.303066	-0.106544
H252	H	1.160908	0.030267	0.226789
O253	O	0.964822	-0.939771	-0.453327
O254	O	1.298155	-0.606437	-0.119994
O255	O	1.631488	-0.273104	0.213340
C256	C	1.001320	-0.878084	-0.506657
C257	C	1.334654	-0.544751	-0.173323
C258	C	1.667987	-0.211418	0.160010
H259	H	1.061609	-0.902115	-0.508984
H260	H	1.394942	-0.568782	-0.175651
H261	H	1.728276	-0.235449	0.157683
H262	H	0.974911	-0.891770	-0.562590
H263	H	1.308244	-0.558436	-0.229257
H264	H	1.641578	-0.225103	0.104076
H265	H	0.996955	-0.790490	-0.491520
H266	H	1.330288	-0.457156	-0.158187
H267	H	1.663622	-0.123823	0.175146
H268	H	0.633636	-0.389071	-0.269367
H269	H	0.966970	-0.055738	0.063967
H270	H	1.300303	0.277595	0.397300
O271	O	0.928731	-1.084876	-0.318512
O272	O	1.262064	-0.751542	0.014821
O273	O	1.595397	-0.418209	0.348155
C274	C	0.877011	-1.048857	-0.370421
C275	C	1.210344	-0.715524	-0.037088
C276	C	1.543677	-0.382190	0.296246
H277	H	0.906236	-1.028913	-0.424033
H278	H	1.239570	-0.695580	-0.090700
H279	H	1.572903	-0.362246	0.242633
H280	H	0.834552	-1.113680	-0.380704
H281	H	1.167886	-0.780347	-0.047371
H282	H	1.501219	-0.447013	0.285962
H283	H	0.848421	-0.974855	-0.348501
H284	H	1.181755	-0.641522	-0.015168
H285	H	1.515088	-0.308189	0.318166
O286	O	1.027382	-0.939846	-0.219717
O287	O	1.360716	-0.606513	0.113616
O288	O	1.694049	-0.273180	0.446950
C289	C	1.027537	-0.827904	-0.220528
C290	C	1.360870	-0.494570	0.112805
C291	C	1.694203	-0.161237	0.446139
H292	H	1.019305	-0.798570	-0.279163
H293	H	1.352638	-0.465237	0.054170
H294	H	1.685971	-0.131904	0.387504
H295	H	0.981119	-0.797085	-0.184359
H296	H	1.314453	-0.463752	0.148974
H297	H	1.647786	-0.130418	0.482308
H298	H	1.082309	-0.797536	-0.198718
H299	H	1.415643	-0.464203	0.134616
H300	H	1.748976	-0.130870	0.467949
H301	H	1.187442	-0.945472	-0.387956
H302	H	1.520775	-0.612138	-0.054622
H303	H	1.854108	-0.278805	0.278711
