data_functionalizedCrystal
_audit_creation_method	'MofGen! by Chris Wilmer'
_symmetry_space_group_name_H-M	'P1'
_symmetry_Int_Tables_number	1
_symmetry_cell_setting	triclinic
loop_
_symmetry_equiv_pos_as_xyz
  x,y,z
_cell_length_a	12.837943
_cell_length_b	14.853567
_cell_length_c	11.295483
_cell_angle_alpha	94.104625
_cell_angle_beta	85.461227
_cell_angle_gamma	89.231935
loop_
_atom_site_label
_atom_site_type_symbol
_atom_site_fract_x
_atom_site_fract_y
_atom_site_fract_z
O1	O	1.382763	0.228927	-0.098984
O2	O	1.080941	0.217348	-0.098992
O3	O	1.239915	0.092592	-0.098991
O4	O	1.223790	0.353684	-0.098985
O5	O	1.225952	0.103530	0.099059
O6	O	1.066978	0.228287	0.099059
O7	O	1.368800	0.239866	0.099067
Cu8	Cu	1.216614	0.235075	0.117146
Cu9	Cu	1.233127	0.222139	-0.117072
O10	O	1.209827	0.364623	0.099066
C11	C	1.035334	0.218906	0.000032
C12	C	0.920240	0.207240	0.000029
C13	C	1.232203	0.064410	0.000030
C14	C	1.230014	-0.035860	0.000020
C15	C	0.679482	0.347487	0.000049
C16	C	0.571341	0.336530	0.000047
C17	C	0.595813	0.174369	0.000030
C18	C	0.703954	0.185327	0.000032
C19	C	0.745785	0.271888	0.000040
C20	C	0.853929	0.282844	0.000034
C21	C	0.878399	0.120685	0.000026
C22	C	0.770257	0.109728	0.000023
C23	C	1.126324	-0.457187	0.000040
C24	C	1.315188	-0.462449	0.000045
C25	C	1.317247	-0.368241	0.000038
C26	C	1.223843	-0.318502	0.000034
C27	C	1.128380	-0.362970	0.000037
C28	C	1.412707	-0.323764	0.000047
C29	C	1.414770	-0.229551	0.000042
C30	C	1.321366	-0.179810	0.000029
C31	C	1.225899	-0.224285	0.000030
C32	C	1.132495	-0.174546	0.000026
C33	C	1.037028	-0.219019	0.000019
C34	C	1.034976	-0.313230	0.000024
C35	C	1.323418	-0.085599	0.000024
C36	C	1.134551	-0.080329	0.000023
C37	C	1.414408	0.238308	0.000040
C38	C	1.529502	0.249974	0.000036
C39	C	1.217539	0.392804	0.000042
C40	C	1.219728	0.493073	0.000044
N41	N	1.205008	0.244174	0.281883
N42	N	1.244742	0.213033	-0.281808
C43	C	1.328293	0.147484	0.531173
C44	C	1.319529	0.154367	0.655836
C45	C	1.178712	0.264819	0.655876
C46	C	1.187475	0.257935	0.531212
C47	C	1.262270	0.199267	0.468865
C48	C	1.271038	0.192389	0.344199
C49	C	1.130216	0.302836	0.344241
C50	C	1.121452	0.309719	0.468904
H51	H	0.887985	0.353327	0.000043
H52	H	1.389201	0.099720	0.480409
C53	C	1.519778	-0.180639	0.000033
H54	H	1.575110	-0.223757	0.000027
H55	H	1.519644	-0.140173	0.069090
H56	H	1.529371	-0.147821	-0.069048
C57	C	0.498412	0.419688	0.000047
H58	H	0.538817	0.472807	0.000042
H59	H	0.450844	0.422600	0.069107
H60	H	0.460591	0.414970	-0.069031
H61	H	1.060553	0.357483	0.519682
C62	C	1.392158	0.097408	0.724371
H63	H	1.437959	0.061488	0.669381
H64	H	1.351393	0.059340	0.773011
H65	H	1.431946	0.136261	0.772991
C66	C	0.725500	0.442697	0.000048
H67	H	0.670523	0.486154	0.000055
H68	H	0.772047	0.446525	-0.069016
H69	H	0.762307	0.454158	0.069122
C70	C	1.096444	0.329344	0.724471
H71	H	1.100687	0.326026	0.807639
H72	H	1.028676	0.312452	0.704055
H73	H	1.109232	0.389371	0.704050
H74	H	1.076458	0.345004	0.293496
C75	C	1.353311	0.127864	0.275613
H76	H	1.349085	0.131188	0.192443
H77	H	1.340535	0.067842	0.296038
H78	H	1.421079	0.144770	0.296034
H79	H	1.391232	-0.502951	0.000058
C80	C	0.929972	-0.362147	0.000018
H81	H	0.874637	-0.319035	0.000001
H82	H	0.920373	-0.394973	0.069083
H83	H	0.930121	-0.402607	-0.069055
H84	H	0.561728	0.103900	0.000122
H85	H	0.932395	0.059126	0.000010
H86	H	0.736183	0.039252	0.000031
C87	C	1.031805	-0.025622	0.000019
H88	H	0.974659	-0.065603	0.000024
H89	H	1.033550	0.007427	-0.069043
H90	H	1.023810	0.015052	0.069095
H91	H	0.960979	-0.178508	0.000024
H92	H	1.048597	-0.493402	0.000030
H93	H	1.488750	-0.364268	0.000062
H94	H	1.401145	-0.049393	0.000038
