data_functionalizedCrystal
_audit_creation_method	'MofGen! by Chris Wilmer'
_symmetry_space_group_name_H-M	'P1'
_symmetry_Int_Tables_number	1
_symmetry_cell_setting	triclinic
loop_
_symmetry_equiv_pos_as_xyz
  x,y,z
_cell_length_a	16.992694
_cell_length_b	14.853567
_cell_length_c	16.053802
_cell_angle_alpha	92.572962
_cell_angle_beta	87.249047
_cell_angle_gamma	87.151577
loop_
_atom_site_label
_atom_site_type_symbol
_atom_site_fract_x
_atom_site_fract_y
_atom_site_fract_z
O1	O	1.043898	0.187626	-0.069313
O2	O	0.815612	0.185528	-0.069338
O3	O	0.935853	0.055778	-0.069327
O4	O	0.923657	0.317376	-0.069323
O5	O	0.929234	0.062888	0.069531
O6	O	0.808993	0.192638	0.069521
O7	O	1.037280	0.194737	0.069545
Zn8	Zn	0.922086	0.194816	0.091580
Zn9	Zn	0.930806	0.185448	-0.091372
O10	O	0.917038	0.324487	0.069535
C11	C	0.783087	0.186385	0.000088
C12	C	0.696035	0.178334	0.000078
C13	C	0.931991	0.025705	0.000099
C14	C	0.930335	-0.074496	0.000092
C15	C	0.645879	0.256009	0.000080
C16	C	0.564083	0.248440	0.000092
C17	C	0.532446	0.163195	0.000095
C18	C	0.582608	0.085513	0.000096
C19	C	0.664401	0.093084	0.000091
C20	C	0.288813	0.131819	0.000117
C21	C	0.207013	0.124255	0.000120
C22	C	0.188494	0.287183	0.000117
C23	C	0.270290	0.294745	0.000107
C24	C	0.320445	0.217064	0.000112
N25	N	0.448838	0.155456	0.000104
N26	N	0.404051	0.224804	0.000109
C27	C	0.851909	-0.492567	0.000099
C28	C	0.994758	-0.503761	0.000115
C29	C	0.996315	-0.409617	0.000110
C30	C	0.925668	-0.356944	0.000101
C31	C	0.853464	-0.398414	0.000097
C32	C	1.068518	-0.368139	0.000123
C33	C	1.070078	-0.273990	0.000119
C34	C	0.999430	-0.221316	0.000104
C35	C	0.927223	-0.262792	0.000099
C36	C	0.856576	-0.210118	0.000090
C37	C	0.784368	-0.251593	0.000079
C38	C	0.782816	-0.345740	0.000082
C39	C	1.000983	-0.127169	0.000101
C40	C	0.858131	-0.115966	0.000088
C41	C	1.069804	0.193880	0.000118
C42	C	1.156857	0.201930	0.000122
C43	C	0.920900	0.354559	0.000106
C44	C	0.922556	0.454760	0.000108
N45	N	0.916140	0.201210	0.216440
N46	N	0.936757	0.179048	-0.216232
C47	C	0.967322	0.146023	0.260138
C48	C	0.963170	0.150505	0.347544
C49	C	0.907840	0.210178	0.391251
C50	C	0.856653	0.265367	0.347546
C51	C	0.860801	0.260880	0.260141
C52	C	0.889719	0.229750	0.652659
C53	C	0.885576	0.234235	0.740070
C54	C	0.992092	0.119371	0.740062
C55	C	0.996239	0.114894	0.652655
C56	C	0.945049	0.170079	0.608958
N57	N	0.903597	0.214762	0.480594
N58	N	0.949289	0.165490	0.519617
H59	H	0.523249	0.311692	0.000092
H60	H	0.671631	0.325425	0.000077
O61	O	1.137124	-0.419353	-0.000013
C62	C	1.221671	-0.535881	-0.071911
C63	C	1.143958	-0.477919	-0.071871
H64	H	1.227214	-0.583260	-0.129993
H65	H	1.273581	-0.490119	-0.071954
H66	H	1.221724	-0.577220	-0.013772
H67	H	1.143828	-0.436573	-0.130000
H68	H	1.092083	-0.523731	-0.071785
H69	H	0.296043	0.364160	0.000094
O70	O	0.712625	-0.385917	0.000188
C71	C	0.586645	-0.401506	0.072140
C72	C	0.666096	-0.355924	0.072113
H73	H	0.549012	-0.377289	0.130295
H74	H	0.554443	-0.383192	0.014063
H75	H	0.597690	-0.477842	0.072107
H76	H	0.655122	-0.279580	0.072176
H77	H	0.698274	-0.374310	0.130186
H78	H	0.147649	0.350426	0.000115
H79	H	0.840517	0.282831	0.775651
H80	H	0.329640	0.068566	0.000122
H81	H	0.726847	-0.208694	0.000078
O82	O	1.041777	0.065629	0.782420
C83	C	1.086241	-0.086439	0.809209
C84	C	1.029947	-0.025673	0.761171
H85	H	1.076685	-0.160268	0.792061
H86	H	1.149893	-0.071088	0.792002
H87	H	1.073781	-0.072938	0.879182
H88	H	1.042336	-0.039139	0.691187
H89	H	0.966313	-0.041035	0.778448
H90	H	0.556842	0.016105	0.000111
H91	H	0.793119	-0.526340	0.000087
H92	H	1.128874	-0.240230	0.000127
H93	H	0.181257	0.054834	0.000122
H94	H	0.811598	0.313950	0.383137
O95	O	0.839964	0.283452	0.610348
C96	C	0.733848	0.397818	0.619588
C97	C	0.790163	0.337064	0.667613
H98	H	0.693558	0.441166	0.665865
H99	H	0.769646	0.443283	0.578680
H100	H	0.696611	0.353928	0.578656
H101	H	0.827412	0.380884	0.708590
H102	H	0.754318	0.291594	0.708469
H103	H	1.052275	-0.546652	0.000129
H104	H	0.705238	0.029832	0.000089
H105	H	1.059773	-0.093404	0.000115
H106	H	0.800601	-0.073086	0.000077
O107	O	1.021094	0.087978	0.217815
C108	C	1.126332	-0.025442	0.227042
C109	C	1.065462	0.040242	0.275074
H110	H	1.162231	-0.064041	0.273315
H111	H	1.094413	-0.075105	0.186153
H112	H	1.167454	0.014245	0.186090
H113	H	1.024323	0.000630	0.316071
H114	H	1.097432	0.089905	0.315910
H115	H	1.041293	0.066303	0.617071
O116	O	1.012784	0.096804	0.390026
C117	C	1.024682	-0.020023	0.488744
C118	C	0.968402	0.040728	0.440675
H119	H	0.988822	-0.065362	0.529719
H120	H	1.064929	-0.063500	0.442525
H121	H	1.061967	0.023871	0.529619
H122	H	0.931067	-0.003097	0.399799
H123	H	0.928208	0.084210	0.486940
H124	H	0.819123	0.305817	0.224563
