data_functionalizedCrystal
_audit_creation_method	'MofGen! by Chris Wilmer'
_symmetry_space_group_name_H-M	'P1'
_symmetry_Int_Tables_number	1
_symmetry_cell_setting	triclinic
loop_
_symmetry_equiv_pos_as_xyz
  x,y,z
_cell_length_a	12.827893
_cell_length_b	18.101395
_cell_length_c	12.827885
_cell_angle_alpha	90.032375
_cell_angle_beta	90.019272
_cell_angle_gamma	90.031265
loop_
_atom_site_label
_atom_site_type_symbol
_atom_site_fract_x
_atom_site_fract_y
_atom_site_fract_z
Zn1	Zn	1.597556	-0.294791	0.590830
Zn2	Zn	1.597402	-0.418650	0.416082
Zn3	Zn	1.422797	-0.294827	0.416103
Zn4	Zn	1.422734	-0.418595	0.590782
O5	O	1.510122	-0.356716	0.503449
O6	O	1.743771	-0.311228	0.567660
O7	O	1.574202	-0.402263	0.269849
O8	O	1.446070	-0.191189	0.439310
O9	O	1.743658	-0.402227	0.439274
O10	O	1.574464	-0.191162	0.567681
O11	O	1.445920	-0.311291	0.269865
O12	O	1.276553	-0.311238	0.439264
O13	O	1.445963	-0.402134	0.737025
O14	O	1.276507	-0.402169	0.567600
O15	O	1.574403	-0.311175	0.737060
O16	O	1.574141	-0.522276	0.439228
O17	O	1.445814	-0.522235	0.567579
C18	C	1.238612	-0.356702	0.503430
C19	C	1.122459	-0.356714	0.503446
C20	C	1.070730	-0.311765	0.567074
C21	C	0.950680	-0.311776	0.567093
C22	C	1.509982	-0.549126	0.503419
C23	C	1.510018	-0.631440	0.503440
C24	C	1.510247	-0.930531	0.503497
C25	C	1.429695	-0.899212	0.584452
C26	C	1.429312	-0.813594	0.584199
C27	C	1.510134	-0.782149	0.503470
C28	C	1.480314	-0.813307	0.393335
C29	C	1.479795	-0.898952	0.393820
C30	C	1.620796	-0.898873	0.531706
C31	C	1.620146	-0.813222	0.534121
C32	C	1.510071	-0.698289	0.503448
C33	C	1.510307	-1.014391	0.503511
C34	C	1.782692	-0.356730	0.503470
C35	C	1.898845	-0.356736	0.503479
C36	C	1.510193	-0.356645	0.776020
C37	C	1.510224	-0.356614	0.892173
C38	C	1.510291	-0.163554	0.503503
C39	C	1.510363	-0.081240	0.503526
C40	C	1.510111	-0.356733	0.231940
C41	C	1.510284	-0.356555	0.115787
C42	C	1.573787	-0.311596	0.943975
C43	C	1.573820	-0.311564	1.064025
H44	H	0.943325	-0.395225	0.449007
H45	H	1.455866	-0.395101	1.071245
H46	H	1.077869	-0.395204	0.448982
C47	C	1.130952	-0.259764	0.640653
H48	H	1.082930	-0.231562	0.680571
H49	H	1.173538	-0.288154	0.686068
H50	H	1.173527	-0.227482	0.600707
C51	C	1.454478	-0.785127	0.694525
H52	H	1.465027	-0.825905	0.739904
H53	H	1.515893	-0.755823	0.692399
H54	H	1.398012	-0.756101	0.719350
H55	H	1.448166	-0.919754	0.666380
H56	H	1.455822	-0.395127	0.936700
H57	H	0.906194	-0.273296	0.621571
C58	C	1.319669	-0.928365	0.559527
H59	H	1.322610	-0.959538	0.499996
H60	H	1.293996	-0.955605	0.617360
H61	H	1.274524	-0.887930	0.545824
H62	H	1.347370	-0.793172	0.565514
H63	H	1.398984	-0.918997	0.369923
H64	H	1.535921	-0.919673	0.331445
H65	H	1.683338	-0.791813	0.479455
C66	C	1.372296	-0.784434	0.360477
H67	H	1.345227	-0.753400	0.413720
H68	H	1.378545	-0.757105	0.297591
H69	H	1.326466	-0.824993	0.349872
H70	H	1.647982	-0.920416	0.610647
C71	C	1.557069	-0.785792	0.309623
H72	H	1.608101	-0.754980	0.341172
H73	H	1.590292	-0.826904	0.277786
H74	H	1.520162	-0.758500	0.258274
H75	H	1.642633	-0.792854	0.615174
H76	H	1.680811	-0.919126	0.472743
C77	C	1.647274	-0.259561	0.883833
H78	H	1.637617	-0.266414	0.811035
H79	H	1.632050	-0.209786	0.901681
H80	H	1.717502	-0.270395	0.901670
C81	C	1.647342	-0.259498	1.124198
H82	H	1.637716	-0.266305	1.196991
H83	H	1.717556	-0.270334	1.106361
H84	H	1.632098	-0.209729	1.106378
