data_functionalizedCrystal
_audit_creation_method	'MofGen! by Chris Wilmer'
_symmetry_space_group_name_H-M	'P1'
_symmetry_Int_Tables_number	1
_symmetry_cell_setting	triclinic
loop_
_symmetry_equiv_pos_as_xyz
  x,y,z
_cell_length_a	15.944545
_cell_length_b	15.021413
_cell_length_c	14.044190
_cell_angle_alpha	90.004310
_cell_angle_beta	88.343975
_cell_angle_gamma	89.990408
loop_
_atom_site_label
_atom_site_type_symbol
_atom_site_fract_x
_atom_site_fract_y
_atom_site_fract_z
O1	O	1.123668	0.073984	0.122216
O2	O	1.457002	0.407318	0.455549
O3	O	1.790335	0.740651	0.788882
O4	O	0.880247	0.074000	0.137294
O5	O	1.213581	0.407333	0.470627
O6	O	1.546914	0.740667	0.803961
O7	O	0.998301	0.073975	-0.008230
O8	O	1.331634	0.407308	0.325103
O9	O	1.664968	0.740641	0.658436
O10	O	1.005615	0.074009	0.267740
O11	O	1.338948	0.407343	0.601073
O12	O	1.672281	0.740676	0.934406
O13	O	0.998317	-0.074089	-0.008221
O14	O	1.331650	0.259244	0.325112
O15	O	1.664983	0.592577	0.658446
O16	O	0.880263	-0.074064	0.137303
O17	O	1.213596	0.259269	0.470636
O18	O	1.546930	0.592602	0.803970
O19	O	1.123684	-0.074080	0.122225
O20	O	1.457017	0.259253	0.455558
O21	O	1.790351	0.592587	0.788891
Zn22	Zn	1.001976	-0.097581	0.129765
Zn23	Zn	1.335309	0.235753	0.463099
Zn24	Zn	1.668643	0.569086	0.796432
Zn25	Zn	1.001955	0.097500	0.129753
Zn26	Zn	1.335289	0.430834	0.463087
Zn27	Zn	1.668622	0.764167	0.796420
O28	O	1.005630	-0.074055	0.267749
O29	O	1.338964	0.259278	0.601082
O30	O	1.672297	0.592612	0.934415
C31	C	0.848914	-0.000030	0.136674
C32	C	1.182248	0.333303	0.470007
C33	C	1.515581	0.666636	0.803340
C34	C	0.755528	-0.000025	0.134800
C35	C	1.088861	0.333308	0.468133
C36	C	1.422194	0.666641	0.801467
C37	C	0.477719	-0.000047	0.038999
C38	C	0.811053	0.333287	0.372333
C39	C	1.144386	0.666620	0.705666
C40	C	0.531768	-0.073046	0.085191
C41	C	0.865102	0.260287	0.418524
C42	C	1.198435	0.593620	0.751858
C43	C	0.419383	-0.000041	0.128119
C44	C	0.752717	0.333292	0.461452
C45	C	1.086050	0.666625	0.794785
C46	C	0.531735	0.072933	0.085206
C47	C	0.865068	0.406267	0.418539
C48	C	1.198402	0.739600	0.751873
C49	C	0.584542	-0.000032	0.131397
C50	C	0.917876	0.333301	0.464730
C51	C	1.251209	0.666635	0.798063
C52	C	0.472202	-0.073101	0.174287
C53	C	0.805535	0.260232	0.507620
C54	C	1.138869	0.593565	0.840953
C55	C	0.472165	0.072944	0.174289
C56	C	0.805498	0.406277	0.507622
C57	C	1.138831	0.739611	0.840955
C58	C	0.526185	-0.000074	0.220546
C59	C	0.859519	0.333260	0.553879
C60	C	1.192852	0.666593	0.887213
C61	C	0.324240	-0.000048	0.126228
C62	C	0.657573	0.333286	0.459561
C63	C	0.990906	0.666619	0.792895
C64	C	0.679684	-0.000032	0.133294
C65	C	1.013017	0.333301	0.466628
C66	C	1.346350	0.666634	0.799961
N67	N	1.001996	-0.230718	0.129773
N68	N	1.335329	0.102615	0.463106
N69	N	1.668663	0.435949	0.796439
C70	C	1.056595	-0.470389	0.062467
C71	C	1.389928	-0.137056	0.395800
C72	C	1.723261	0.196277	0.729134
C73	C	0.979316	-0.529716	0.044055
C74	C	1.312649	-0.196383	0.377388
C75	C	1.645982	0.136951	0.710722
C76	C	1.001976	-0.412325	0.129761
C77	C	1.335309	-0.078992	0.463094
C78	C	1.668642	0.254342	0.796428
C79	C	1.079232	-0.529740	0.148117
C80	C	1.412565	-0.196407	0.481450
C81	C	1.745899	0.136927	0.814784
C82	C	1.001963	-0.587749	0.129747
C83	C	1.335296	-0.254416	0.463080
C84	C	1.668629	0.078918	0.796414
C85	C	0.924655	-0.470345	0.111307
C86	C	1.257989	-0.137012	0.444640
C87	C	1.591322	0.196321	0.777973
C88	C	1.024624	-0.470364	0.215406
C89	C	1.357957	-0.137031	0.548739
C90	C	1.691291	0.196303	0.882072
C91	C	0.947293	-0.529664	0.197030
C92	C	1.280626	-0.196331	0.530363
C93	C	1.613960	0.137002	0.863697
C94	C	1.001984	-0.311268	0.129766
C95	C	1.335318	0.022066	0.463100
C96	C	1.668651	0.355399	0.796433
C97	C	1.001945	-0.688804	0.129742
C98	C	1.335279	-0.355471	0.463076
C99	C	1.668612	-0.022138	0.796409
C100	C	1.155017	-0.000048	0.122845
C101	C	1.488350	0.333286	0.456178
C102	C	1.821684	0.666619	0.789512
C103	C	1.248404	-0.000047	0.124718
C104	C	1.581737	0.333286	0.458052
C105	C	1.915070	0.666620	0.791385
C106	C	0.995109	-0.000060	-0.043540
C107	C	1.328443	0.333274	0.289793
C108	C	1.661776	0.666607	0.623126
C109	C	0.985566	-0.000067	-0.148767
C110	C	1.318899	0.333266	0.184567
C111	C	1.652232	0.666600	0.517900
N112	N	1.001941	0.230638	0.129738
N113	N	1.335274	0.563971	0.463072
N114	N	1.668608	0.897305	0.796405
C115	C	1.035804	-0.000035	-0.399051
C116	C	1.369137	0.333298	-0.065718
C117	C	1.702470	0.666631	0.267616
C118	C	0.968131	-0.000037	-0.341425
C119	C	1.301465	0.333296	-0.008091
C120	C	1.634798	0.666630	0.325242
C121	C	0.977834	-0.000054	-0.234220
C122	C	1.311167	0.333280	0.099113
C123	C	1.644501	0.666613	0.432447
C124	C	1.026102	-0.000019	-0.506266
C125	C	1.359435	0.333315	-0.172933
C126	C	1.692769	0.666648	0.160401
C127	C	1.008822	-0.000018	0.303059
C128	C	1.342155	0.333315	0.636392
C129	C	1.675489	0.666648	0.969725
C130	C	1.018366	-0.000005	0.408285
C131	C	1.351699	0.333328	0.741618
C132	C	1.685032	0.666661	1.074952
H133	H	0.547430	-0.000107	0.297356
H134	H	0.880764	0.333227	0.630689
H135	H	1.214097	0.666560	0.964023
H136	H	0.902908	-0.000028	-0.372603
H137	H	1.236241	0.333306	-0.039269
H138	H	1.569575	0.666639	0.294064
H139	H	0.557826	0.134645	0.047550
H140	H	0.891159	0.467978	0.380883
H141	H	1.224492	0.801312	0.714216
H142	H	0.859294	-0.444366	0.095693
H143	H	1.192628	-0.111033	0.429026
H144	H	1.525961	0.222301	0.762359
N145	N	0.449366	-0.000143	-0.062662
N146	N	0.782700	0.333190	0.270671
N147	N	1.116033	0.666523	0.604005
H148	H	0.471096	-0.055346	-0.096213
H149	H	0.804430	0.277987	0.237120
H150	H	1.137763	0.611320	0.570454
H151	H	0.386040	0.000456	-0.063127
H152	H	0.719373	0.333789	0.270206
H153	H	1.052706	0.667123	0.603539
H154	H	1.102729	-0.444362	0.005527
H155	H	1.436062	-0.111028	0.338861
H156	H	1.769396	0.222305	0.672194
H157	H	1.101022	-0.000049	-0.367875
H158	H	1.434355	0.333285	-0.034542
H159	H	1.767688	0.666618	0.298792
N160	N	0.886038	-0.563929	0.272411
N161	N	1.219371	-0.230596	0.605745
N162	N	1.552705	0.102738	0.939078
H163	H	0.827724	-0.542205	0.258415
H164	H	1.161058	-0.208872	0.591749
H165	H	1.494391	0.124461	0.925082
H166	H	0.886792	-0.631159	0.272331
H167	H	1.220126	-0.297826	0.605665
H168	H	1.553459	0.035508	0.938998
N169	N	0.566349	-0.154822	0.035357
N170	N	0.899683	0.178511	0.368690
N171	N	1.233016	0.511845	0.702024
H172	H	0.548821	-0.154782	-0.033178
H173	H	0.882154	0.178552	0.300156
H174	H	1.215487	0.511885	0.633489
H175	H	0.629603	-0.154483	0.037593
H176	H	0.962936	0.178850	0.370926
H177	H	1.296270	0.512184	0.704260
H178	H	0.960149	-0.555787	-0.028378
H179	H	1.293482	-0.222454	0.304955
H180	H	1.626815	0.110880	0.638288
H181	H	1.043813	-0.444274	0.287816
H182	H	1.377147	-0.110941	0.621150
H183	H	1.710480	0.222393	0.954483
H184	H	0.446216	-0.134883	0.211900
H185	H	0.779549	0.198450	0.545233
H186	H	1.112883	0.531783	0.878567
H187	H	0.446028	0.134671	0.211889
H188	H	0.779362	0.468005	0.545223
H189	H	1.112695	0.801338	0.878556
N190	N	1.165777	-0.564306	0.168696
N191	N	1.499110	-0.230972	0.502029
N192	N	1.832444	0.102361	0.835362
H193	H	1.206988	-0.542744	0.117824
H194	H	1.540322	-0.209411	0.451157
H195	H	1.873655	0.123922	0.784491
H196	H	1.183242	-0.541783	0.232917
H197	H	1.516576	-0.208449	0.566251
H198	H	1.849909	0.124884	0.899584
