data_functionalizedCrystal
_audit_creation_method	'MofGen! by Chris Wilmer'
_symmetry_space_group_name_H-M	'P1'
_symmetry_Int_Tables_number	1
_symmetry_cell_setting	triclinic
loop_
_symmetry_equiv_pos_as_xyz
  x,y,z
_cell_length_a	21.395362
_cell_length_b	25.639239
_cell_length_c	25.639233
_cell_angle_alpha	89.981253
_cell_angle_beta	89.967207
_cell_angle_gamma	90.054564
loop_
_atom_site_label
_atom_site_type_symbol
_atom_site_fract_x
_atom_site_fract_y
_atom_site_fract_z
Zn1	Zn	0.957756	-0.207993	-0.295891
Zn2	Zn	1.457756	0.292007	0.204109
Zn3	Zn	0.957664	-0.295412	-0.208455
Zn4	Zn	1.457664	0.204588	0.291545
Zn5	Zn	0.852991	-0.208016	-0.208438
Zn6	Zn	1.352991	0.291984	0.291562
Zn7	Zn	0.852925	-0.295423	-0.295829
Zn8	Zn	1.352925	0.204577	0.204171
O9	O	0.905334	-0.251711	-0.252153
O10	O	1.405334	0.248289	0.247847
O11	O	1.045422	-0.219574	-0.284325
O12	O	1.545422	0.280426	0.215675
O13	O	0.943768	-0.283823	-0.135287
O14	O	1.443768	0.216177	0.364713
O15	O	0.866954	-0.134848	-0.220058
O16	O	1.366954	0.365152	0.279942
O17	O	1.045354	-0.283801	-0.220086
O18	O	1.545354	0.216199	0.279914
O19	O	0.943924	-0.134831	-0.284309
O20	O	1.443924	0.365169	0.215691
O21	O	0.866865	-0.219614	-0.135275
O22	O	1.366865	0.280386	0.364725
O23	O	0.765304	-0.219626	-0.219998
O24	O	1.265304	0.280374	0.280002
O25	O	0.866842	-0.283821	-0.369002
O26	O	1.366842	0.216179	0.130998
O27	O	0.765256	-0.283843	-0.284203
O28	O	1.265256	0.216157	0.215797
O29	O	0.943861	-0.219586	-0.369048
O30	O	1.443861	0.280414	0.130952
O31	O	0.943704	-0.368578	-0.220026
O32	O	1.443704	0.131422	0.279974
O33	O	0.866753	-0.368587	-0.284219
O34	O	1.366753	0.131413	0.215781
C35	C	0.742546	-0.251739	-0.252092
C36	C	1.242546	0.248261	0.247908
C37	C	0.672905	-0.251763	-0.252079
C38	C	1.172905	0.248237	0.247921
C39	C	0.640183	-0.285245	-0.285460
C40	C	1.140183	0.214755	0.214540
C41	C	0.574748	-0.285233	-0.285484
C42	C	1.074748	0.214767	0.214516
C43	C	0.542037	-0.251743	-0.252116
C44	C	1.042037	0.248257	0.247884
C45	C	0.574767	-0.218254	-0.218732
C46	C	1.074767	0.281746	0.281268
C47	C	0.640201	-0.218264	-0.218714
C48	C	1.140201	0.281736	0.281286
C49	C	0.438324	-0.247530	-0.205047
C50	C	0.938324	0.252470	0.294953
C51	C	0.372891	-0.247524	-0.205065
C52	C	0.872891	0.252476	0.294935
C53	C	0.340216	-0.251709	-0.252174
C54	C	0.840216	0.248291	0.247826
C55	C	0.372982	-0.255911	-0.299266
C56	C	0.872982	0.244089	0.200734
C57	C	0.438417	-0.255921	-0.299248
C58	C	0.938417	0.244079	0.200752
C59	C	0.471085	-0.251728	-0.252133
C60	C	0.971085	0.248272	0.247867
C61	C	0.236542	-0.285179	-0.285584
C62	C	0.736542	0.214821	0.214416
C63	C	0.171105	-0.285163	-0.285608
C64	C	0.671105	0.214837	0.214392
C65	C	0.171125	-0.218187	-0.218852
C66	C	0.671125	0.281813	0.281148
C67	C	0.236561	-0.218201	-0.218832
C68	C	0.736561	0.281799	0.281168
C69	C	0.269265	-0.251699	-0.252197
C70	C	0.769265	0.248301	0.247803
C71	C	0.905229	-0.387554	-0.252129
C72	C	1.405229	0.112446	0.247871
C73	C	0.905241	-0.445668	-0.252136
C74	C	1.405241	0.054332	0.247864
C75	C	0.945507	-0.806014	-0.218785
C76	C	1.445507	-0.306014	0.281215
C77	C	0.945531	-0.860618	-0.218792
C78	C	1.445531	-0.360618	0.281208
O79	O	0.979658	-0.888840	-0.190409
O80	O	1.479658	-0.388840	0.309591
N81	N	0.905444	-0.887950	-0.252188
N82	N	1.405444	-0.387950	0.247812
C83	C	0.865335	-0.860675	-0.285583
C84	C	1.365335	-0.360675	0.214417
O85	O	0.831240	-0.888937	-0.313990
O86	O	1.331240	-0.388937	0.186010
C87	C	0.865314	-0.806072	-0.285578
C88	C	1.365314	-0.306072	0.214422
C89	C	0.905399	-0.778742	-0.252176
C90	C	1.405399	-0.278742	0.247824
C91	C	0.985590	-0.778684	-0.185386
C92	C	1.485590	-0.278684	0.314614
C93	C	0.985564	-0.724084	-0.185378
C94	C	1.485564	-0.224084	0.314622
C95	C	0.945457	-0.696813	-0.218770
C96	C	1.445457	-0.196813	0.281230
C97	C	0.905374	-0.724142	-0.252168
C98	C	1.405374	-0.224142	0.247832
C99	C	0.825208	-0.778798	-0.318975
C100	C	1.325208	-0.278798	0.181025
C101	C	0.825191	-0.724191	-0.318968
C102	C	1.325191	-0.224191	0.181032
C103	C	0.865276	-0.696861	-0.285566
C104	C	1.365276	-0.196861	0.214434
C105	C	0.865241	-0.642270	-0.285552
C106	C	1.365241	-0.142270	0.214448
N107	N	0.905328	-0.614938	-0.252156
N108	N	1.405328	-0.114938	0.247844
C109	C	0.945436	-0.642209	-0.218765
C110	C	1.445436	-0.142209	0.281235
C111	C	0.865382	-0.975346	-0.285591
C112	C	1.365382	-0.475346	0.214409
C113	C	0.865399	-1.029948	-0.285593
C114	C	1.365399	-0.529948	0.214407
C115	C	0.945597	-1.029887	-0.218803
C116	C	1.445597	-0.529887	0.281197
C117	C	0.945576	-0.975284	-0.218798
C118	C	1.445576	-0.475284	0.281202
C119	C	0.905469	-0.948014	-0.252195
C120	C	1.405469	-0.448014	0.247805
C121	C	0.945379	-0.527544	-0.218751
C122	C	1.445379	-0.027544	0.281249
C123	C	0.945349	-0.472939	-0.218745
C124	C	1.445349	0.027061	0.281255
C125	C	0.865154	-0.473005	-0.285537
C126	C	1.365154	0.026995	0.214463
C127	C	0.865182	-0.527605	-0.285542
C128	C	1.365182	-0.027605	0.214458
C129	C	0.905300	-0.554874	-0.252147
C130	C	1.405300	-0.054874	0.247853
O131	O	0.831134	-0.614013	-0.313922
O132	O	1.331134	-0.114013	0.186078
O133	O	0.979531	-0.613941	-0.190368
O134	O	1.479531	-0.113941	0.309632
C135	C	1.068757	-0.251684	-0.252214
C136	C	1.568757	0.248316	0.247786
C137	C	1.138399	-0.251672	-0.252240
C138	C	1.638399	0.248328	0.247760
C139	C	0.905354	-0.251702	-0.388526
C140	C	1.405354	0.248298	0.111474
C141	C	0.905363	-0.251698	-0.446640
C142	C	1.405363	0.248302	0.053360
C143	C	0.905457	-0.115338	-0.252189
C144	C	1.405457	0.384662	0.247811
C145	C	0.905509	-0.057224	-0.252204
C146	C	1.405509	0.442776	0.247796
C147	C	0.945517	-0.218152	-0.807033
C148	C	1.445517	0.281848	-0.307033
C149	C	0.945525	-0.218137	-0.861637
C150	C	1.445525	0.281863	-0.361637
O151	O	0.979615	-0.189676	-0.889899
O152	O	1.479615	0.310324	-0.389899
N153	N	0.905432	-0.251575	-0.888923
N154	N	1.405432	0.248425	-0.388923
C155	C	0.865324	-0.285027	-0.861602
C156	C	1.365324	0.214973	-0.361602
O157	O	0.831222	-0.313467	-0.889824
O158	O	1.331222	0.186533	-0.389824
C159	C	0.865314	-0.285038	-0.806998
C160	C	1.365314	0.214962	-0.306998
C161	C	0.905414	-0.251601	-0.779715
C162	C	1.405414	0.248399	-0.279715
C163	C	0.985614	-0.184717	-0.779750
C164	C	1.485614	0.315283	-0.279750
C165	C	0.985607	-0.184732	-0.725149
C166	C	1.485607	0.315268	-0.225149
C167	C	0.945503	-0.218182	-0.697832
C168	C	1.445503	0.281818	-0.197832
C169	C	0.905407	-0.251617	-0.725115
C170	C	1.405407	0.248383	-0.225115
C171	C	0.825203	-0.318486	-0.779678
C172	C	1.325203	0.181514	-0.279678
C173	C	0.825196	-0.318494	-0.725071
C174	C	1.325196	0.181506	-0.225071
C175	C	0.865296	-0.285058	-0.697788
C176	C	1.365296	0.214942	-0.197788
C177	C	0.865296	-0.285082	-0.643197
C178	C	1.365296	0.214918	-0.143197
N179	N	0.905389	-0.251643	-0.615911
N180	N	1.405389	0.248357	-0.115911
C181	C	0.945493	-0.218194	-0.643228
C182	C	1.445493	0.281806	-0.143228
C183	C	0.865348	-0.284999	-0.976272
C184	C	1.365348	0.215001	-0.476272
C185	C	0.865361	-0.284991	-1.030875
C186	C	1.365361	0.215009	-0.530875
C187	C	0.945562	-0.218101	-1.030906
C188	C	1.445562	0.281899	-0.530906
C189	C	0.945551	-0.218112	-0.976303
C190	C	1.445551	0.281888	-0.476303
C191	C	0.905441	-0.251561	-0.948986
C192	C	1.405441	0.248439	-0.448986
C193	C	0.945475	-0.218228	-0.528563
C194	C	1.445475	0.281772	-0.028563
C195	C	0.945466	-0.218248	-0.473958
C196	C	1.445466	0.281752	0.026042
C197	C	0.865264	-0.285136	-0.473931
C198	C	1.365264	0.214864	0.026069
C199	C	0.865275	-0.285119	-0.528531
C200	C	1.365275	0.214881	-0.028531
C201	C	0.905383	-0.251661	-0.555846
C202	C	1.405383	0.248339	-0.055846
O203	O	0.831222	-0.313526	-0.614900
O204	O	1.331222	0.186474	-0.114900
O205	O	0.979583	-0.189753	-0.614999
O206	O	1.479583	0.310247	-0.114999
C207	C	0.905350	-0.251682	-0.116311
C208	C	1.405350	0.248318	0.383689
C209	C	0.905463	-0.251539	-0.058197
C210	C	1.405463	0.248461	0.441803
H211	H	0.977991	-0.450689	-0.191543
H212	H	1.477991	0.049311	0.308457
H213	H	0.792526	-0.345728	-0.702832
H214	H	1.292526	0.154272	-0.202832
O215	O	0.988805	-0.182013	-1.060380
O216	O	1.488805	0.317987	-0.560380
H217	H	1.020660	-0.205400	-1.085274
H218	H	1.520660	0.294600	-0.585274
O219	O	0.822113	-0.321056	-1.060300
O220	O	1.322113	0.178944	-0.560300
H221	H	0.794224	-0.344312	-1.032125
H222	H	1.294224	0.155688	-0.532125
H223	H	0.666843	-0.190997	-0.191530
H224	H	1.166843	0.309003	0.308470
O225	O	0.337753	-0.260421	-0.350083
O226	O	0.837753	0.239579	0.149917
H227	H	0.286748	-0.259700	-0.342188
H228	H	0.786748	0.240300	0.157812
H229	H	0.144493	-0.190916	-0.191685
H230	H	0.644493	0.309084	0.308315
H231	H	0.792563	-0.801040	-0.346172
H232	H	1.292563	-0.301040	0.153828
H233	H	0.832496	-0.450792	-0.312722
H234	H	1.332496	0.049208	0.187278
O235	O	0.675454	-0.321374	-0.321450
O236	O	1.175454	0.178626	0.178550
H237	H	0.726453	-0.315760	-0.315827
H238	H	1.226453	0.184240	0.184173
H239	H	0.832628	-0.312351	-0.550746
H240	H	1.332628	0.187649	-0.050746
H241	H	0.464922	-0.244120	-0.166683
H242	H	0.964922	0.255880	0.333317
O243	O	1.028859	-0.808090	-0.149371
O244	O	1.528859	-0.308090	0.350629
H245	H	1.022153	-0.850653	-0.154982
H246	H	1.522153	-0.350653	0.345018
O247	O	0.822006	-0.321210	-0.444463
O248	O	1.322006	0.178790	0.055537
H249	H	0.828735	-0.315594	-0.401911
H250	H	1.328735	0.184406	0.098089
H251	H	0.548100	-0.312498	-0.312669
H252	H	1.048100	0.187502	0.187331
H253	H	0.832685	-0.312240	-0.954034
H254	H	1.332685	0.187760	-0.454034
O255	O	0.822107	-0.945940	-0.321608
O256	O	1.322107	-0.445940	0.178392
H257	H	0.850109	-0.921024	-0.348245
H258	H	1.350109	-0.421024	0.151755
H259	H	0.978217	-0.953035	-0.191600
H260	H	1.478217	-0.453035	0.308400
H261	H	0.978049	-0.549740	-0.191559
H262	H	1.478049	-0.049740	0.308441
H263	H	0.465092	-0.259341	-0.337592
H264	H	0.965092	0.240659	0.162408
O265	O	0.781944	-0.354543	-0.809097
O266	O	1.281944	0.145457	-0.309097
H267	H	0.754052	-0.377795	-0.780919
H268	H	1.254052	0.122205	-0.280919
O269	O	0.988867	-1.059310	-0.182797
O270	O	1.488867	-0.559310	0.317203
H271	H	0.960861	-1.084237	-0.156174
H272	H	1.460861	-0.584237	0.343826
O273	O	0.271823	-0.321301	-0.321575
O274	O	0.771823	0.178699	0.178425
H275	H	0.238073	-0.344575	-0.344799
H276	H	0.738073	0.155425	0.155201
H277	H	0.832752	-1.052195	-0.312788
H278	H	1.332752	-0.552195	0.187212
O279	O	0.781932	-0.694777	-0.354989
O280	O	1.281932	-0.194777	0.145011
H281	H	0.750065	-0.669943	-0.331551
H282	H	1.250065	-0.169943	0.168449
H283	H	1.018207	-0.701835	-0.158181
H284	H	1.518207	-0.201835	0.341819
O285	O	0.988733	-0.182136	-0.558011
O286	O	1.488733	0.317864	-0.058011
H287	H	0.960719	-0.155525	-0.582872
H288	H	1.460719	0.344475	-0.082872
O289	O	0.821947	-0.557087	-0.321565
O290	O	1.321947	-0.057087	0.178435
H291	H	0.794056	-0.528948	-0.344784
H292	H	1.294056	-0.028948	0.155216
O293	O	0.988718	-0.182183	-0.444530
O294	O	1.488718	0.317817	0.055470
H295	H	1.016600	-0.158918	-0.472703
H296	H	1.516600	0.341082	0.027297
H297	H	1.018259	-0.157504	-0.702940
H298	H	1.518259	0.342496	-0.202940
H299	H	0.144464	-0.312427	-0.312794
H300	H	0.644464	0.187573	0.187206
H301	H	1.018271	-0.157475	-0.801986
H302	H	1.518271	0.342525	-0.301986
H303	H	0.263203	-0.190938	-0.191646
H304	H	0.763203	0.309062	0.308354
H305	H	0.978203	-0.190884	-0.954093
H306	H	1.478203	0.309116	-0.454093
H307	H	0.346218	-0.244106	-0.166719
H308	H	0.846218	0.255894	0.333281
H309	H	0.548129	-0.190986	-0.191565
H310	H	1.048129	0.309014	0.308435
