data_functionalizedCrystal
_audit_creation_method	'MofGen! by Chris Wilmer'
_symmetry_space_group_name_H-M	'P1'
_symmetry_Int_Tables_number	1
_symmetry_cell_setting	triclinic
loop_
_symmetry_equiv_pos_as_xyz
  x,y,z
_cell_length_a	27.731994
_cell_length_b	26.210047
_cell_length_c	17.699083
_cell_angle_alpha	90.003602
_cell_angle_beta	97.048226
_cell_angle_gamma	90.002872
loop_
_atom_site_label
_atom_site_type_symbol
_atom_site_fract_x
_atom_site_fract_y
_atom_site_fract_z
O1	O	0.641271	0.042357	-0.089851
O2	O	1.141271	0.542357	0.410149
O3	O	0.500524	0.042374	-0.103588
O4	O	1.000524	0.542374	0.396412
O5	O	0.574874	0.042361	0.013506
O6	O	1.074874	0.542361	0.513506
O7	O	0.566921	0.042371	-0.206945
O8	O	1.066921	0.542371	0.293055
O9	O	0.574860	-0.042497	0.013488
O10	O	1.074860	0.457503	0.513488
O11	O	0.500509	-0.042484	-0.103606
O12	O	1.000509	0.457516	0.396394
O13	O	0.641257	-0.042501	-0.089870
O14	O	1.141257	0.457499	0.410130
Cu15	Cu	0.570882	-0.050240	-0.096739
Cu16	Cu	1.070882	0.449760	0.403261
Cu17	Cu	0.570899	0.050114	-0.096718
Cu18	Cu	1.070899	0.550114	0.403282
O19	O	0.566907	-0.042487	-0.206963
O20	O	1.066907	0.457513	0.293037
C21	C	0.482508	-0.000052	-0.103315
C22	C	0.982508	0.499948	0.396685
C23	C	0.428849	-0.000046	-0.102466
C24	C	0.928849	0.499954	0.397534
C25	C	0.096103	-0.046322	-0.097127
C26	C	0.596103	0.453678	0.402873
C27	C	-0.105567	-0.046328	-0.093899
C28	C	0.394433	0.453672	0.406101
O29	O	-0.131647	-0.085667	-0.093458
O30	O	0.368353	0.414333	0.406542
N31	N	-0.130775	-0.000072	-0.093488
N32	N	0.369225	0.499928	0.406512
C33	C	-0.105563	0.046189	-0.093880
C34	C	0.394437	0.546189	0.406120
O35	O	-0.131631	0.085532	-0.093448
O36	O	0.368369	0.585532	0.406552
C37	C	0.096107	0.046194	-0.097102
C38	C	0.596107	0.546194	0.402898
C39	C	0.121312	-0.000065	-0.097521
C40	C	0.621312	0.499935	0.402479
C41	C	0.121308	-0.092577	-0.097545
C42	C	0.621308	0.407423	0.402455
C43	C	0.171723	-0.092575	-0.098356
C44	C	0.671723	0.407425	0.401644
C45	C	0.196931	-0.046318	-0.098750
C46	C	0.696931	0.453682	0.401250
C47	C	0.171726	-0.000063	-0.098332
C48	C	0.671726	0.499937	0.401668
C49	C	0.121319	0.092455	-0.097488
C50	C	0.621319	0.592455	0.402512
C51	C	0.171740	0.092452	-0.098292
C52	C	0.671740	0.592452	0.401708
C53	C	0.196945	0.046193	-0.098710
C54	C	0.696945	0.546193	0.401290
C55	C	0.247349	0.046196	-0.099536
C56	C	0.747349	0.546196	0.400464
N57	N	0.272557	-0.000060	-0.099947
N58	N	0.772557	0.499940	0.400053
C59	C	0.247349	-0.046317	-0.099554
C60	C	0.747349	0.453683	0.400446
C61	C	-0.211442	0.046183	-0.092189
C62	C	0.288558	0.546183	0.407811
C63	C	-0.261859	0.046182	-0.091385
C64	C	0.238141	0.546182	0.408615
C65	C	-0.261860	-0.046336	-0.091403
C66	C	0.238140	0.453664	0.408597
C67	C	-0.211442	-0.046334	-0.092213
C68	C	0.288558	0.453666	0.407787
C69	C	-0.186233	-0.000073	-0.092600
C70	C	0.313767	0.499927	0.407400
C71	C	0.353222	-0.046309	-0.101258
C72	C	0.853222	0.453691	0.398742
C73	C	0.403640	-0.046303	-0.102072
C74	C	0.903640	0.453697	0.397928
C75	C	0.403636	0.046213	-0.102050
C76	C	0.903636	0.546213	0.397950
C77	C	0.353222	0.046208	-0.101240
C78	C	0.853222	0.546208	0.398760
C79	C	0.328016	-0.000058	-0.100841
C80	C	0.828016	0.499942	0.399159
O81	O	0.273462	0.085515	-0.099970
O82	O	0.773462	0.585515	0.400030
O83	O	0.273427	-0.085655	-0.099968
O84	O	0.773427	0.414345	0.400032
C85	C	0.045689	-0.046324	-0.096316
C86	C	0.545689	0.453676	0.403684
C87	C	0.020484	-0.000069	-0.095899
C88	C	0.520484	0.499931	0.404101
C89	C	0.045693	0.046189	-0.096292
C90	C	0.545693	0.546189	0.403708
C91	C	-0.029933	-0.000070	-0.095094
C92	C	0.470067	0.499930	0.404906
C93	C	-0.055142	-0.046327	-0.094701
C94	C	0.444858	0.453673	0.405299
C95	C	-0.029934	-0.092583	-0.095112
C96	C	0.470066	0.407417	0.404888
C97	C	0.020480	-0.092581	-0.095923
C98	C	0.520480	0.407419	0.404077
C99	C	0.020484	0.092445	-0.095881
C100	C	0.520484	0.592445	0.404119
C101	C	-0.029930	0.092439	-0.095071
C102	C	0.470070	0.592439	0.404929
C103	C	-0.055139	0.046182	-0.094677
C104	C	0.444861	0.546182	0.405323
N105	N	0.570873	-0.120824	-0.096754
N106	N	1.070873	0.379176	0.403246
C107	C	0.603818	-0.473344	-0.044880
C108	C	1.103818	0.026656	0.455120
C109	C	0.603829	-0.687003	-0.044870
C110	C	1.103829	-0.187003	0.455130
O111	O	0.631820	-0.714630	-0.000768
O112	O	1.131820	-0.214630	0.499232
N113	N	0.570901	-0.713718	-0.096701
N114	N	1.070901	-0.213718	0.403299
C115	C	0.537967	-0.687016	-0.148536
C116	C	1.037967	-0.187016	0.351464
O117	O	0.509958	-0.714641	-0.192616
O118	O	1.009958	-0.214641	0.307384
C119	C	0.537955	-0.473358	-0.148542
C120	C	1.037955	0.026642	0.351458
C121	C	0.570887	-0.446645	-0.096712
C122	C	1.070887	0.053355	0.403288
C123	C	0.636747	-0.446632	0.006946
C124	C	1.136747	0.053368	0.506946
C125	C	0.636746	-0.393220	0.006940
C126	C	1.136746	0.106780	0.506940
C127	C	0.603815	-0.366521	-0.044892
C128	C	1.103815	0.133479	0.455108
C129	C	0.570886	-0.393234	-0.096718
C130	C	1.070886	0.106766	0.403282
C131	C	0.505019	-0.446656	-0.200372
C132	C	1.005019	0.053344	0.299628
C133	C	0.505018	-0.393238	-0.200368
C134	C	1.005018	0.106762	0.299632
C135	C	0.537950	-0.366526	-0.148538
C136	C	1.037950	0.133474	0.351462
C137	C	0.537954	-0.313124	-0.148556
C138	C	1.037954	0.186876	0.351444
N139	N	0.570881	-0.286408	-0.096725
N140	N	1.070881	0.213592	0.403275
C141	C	0.603812	-0.313107	-0.044893
C142	C	1.103812	0.186893	0.455107
C143	C	0.537977	-0.799189	-0.148530
C144	C	1.037977	-0.299189	0.351470
C145	C	0.537980	-0.852603	-0.148529
C146	C	1.037980	-0.352603	0.351471
C147	C	0.603841	-0.852587	-0.044862
C148	C	1.103841	-0.352587	0.455138
C149	C	0.603840	-0.799172	-0.044867
C150	C	1.103840	-0.299172	0.455133
C151	C	0.570904	-0.772474	-0.096698
C152	C	1.070904	-0.272474	0.403302
C153	C	0.603807	-0.200939	-0.044910
C154	C	1.103807	0.299061	0.455090
C155	C	0.603804	-0.147523	-0.044922
C156	C	1.103804	0.352477	0.455078
C157	C	0.537942	-0.147544	-0.148586
C158	C	1.037942	0.352456	0.351414
C159	C	0.537946	-0.200956	-0.148576
C160	C	1.037946	0.299044	0.351424
C161	C	0.570881	-0.227652	-0.096732
C162	C	1.070881	0.272348	0.403268
O163	O	0.509973	-0.285464	-0.192629
O164	O	1.009973	0.214536	0.307371
O165	O	0.631810	-0.285473	-0.000808
O166	O	1.131810	0.214527	0.499192
C167	C	0.603819	-0.526756	-0.044875
C168	C	1.103819	-0.026756	0.455125
C169	C	0.570890	-0.553468	-0.096700
C170	C	1.070890	-0.053468	0.403300
C171	C	0.537959	-0.526769	-0.148532
C172	C	1.037959	-0.026769	0.351468
C173	C	0.570893	-0.606882	-0.096700
C174	C	1.070893	-0.106882	0.403300
C175	C	0.603824	-0.633581	-0.044868
C176	C	1.103824	-0.133581	0.455132
C177	C	0.636751	-0.606866	0.006963
C178	C	1.136751	-0.106866	0.506963
C179	C	0.636750	-0.553455	0.006957
C180	C	1.136750	-0.053455	0.506957
C181	C	0.505032	-0.553485	-0.200364
C182	C	1.005032	-0.053485	0.299636
C183	C	0.505036	-0.606896	-0.200354
C184	C	1.005036	-0.106896	0.299646
C185	C	0.537967	-0.633595	-0.148522
C186	C	1.037967	-0.133595	0.351478
C187	C	0.659273	-0.000073	-0.090142
C188	C	1.159273	0.499927	0.409858
C189	C	0.712932	-0.000076	-0.090992
C190	C	1.212932	0.499924	0.409008
C191	C	0.574582	-0.000068	0.041691
C192	C	1.074582	0.499932	0.541691
C193	C	0.573727	-0.000068	0.125702
C194	C	1.073727	0.499932	0.625702
N195	N	0.570911	0.120698	-0.096697
N196	N	1.070911	0.620698	0.403303
C197	C	0.567199	-0.000057	-0.235148
C198	C	1.067199	0.499943	0.264852
C199	C	0.568054	-0.000054	-0.319159
C200	C	1.068054	0.499946	0.180841
C201	C	0.617369	-0.000074	0.174721
C202	C	1.117369	0.499926	0.674721
C203	C	0.616563	-0.000070	0.253657
C204	C	1.116563	0.499930	0.753657
C205	C	0.572114	-0.000063	0.283572
C206	C	1.072114	0.499937	0.783572
C207	C	0.528469	-0.000055	0.234547
C208	C	1.028469	0.499945	0.734547
C209	C	0.529275	-0.000056	0.155612
C210	C	1.029275	0.499944	0.655612
C211	C	0.525215	-0.000051	0.552880
C212	C	1.025215	0.499949	1.052880
C213	C	0.524411	-0.000051	0.631821
C214	C	1.024411	0.499949	1.131821
C215	C	0.612502	-0.000064	0.650924
C216	C	1.112502	0.499936	1.150924
C217	C	0.613309	-0.000065	0.571990
C218	C	1.113309	0.499935	1.071990
C219	C	0.569664	-0.000055	0.522972
C220	C	1.069664	0.499945	1.022972
C221	C	0.570538	-0.000059	0.437380
C222	C	1.070538	0.499941	0.937380
C223	C	0.571239	-0.000062	0.369162
C224	C	1.071239	0.499938	0.869162
H225	H	-0.050448	0.130111	-0.094736
H226	H	0.449552	0.630111	0.405264
H227	H	0.041004	0.130114	-0.096199
H228	H	0.541004	0.630114	0.403801
H229	H	0.192241	-0.130244	-0.098692
H230	H	0.692241	0.369756	0.401308
O231	O	0.486926	-0.000029	0.107885
O232	O	0.986926	0.499971	0.607885
C233	C	0.497169	-0.000043	0.031801
C234	C	0.997169	0.499957	0.531801
H235	H	0.535136	0.016016	0.029235
H236	H	1.035136	0.516016	0.529235
H237	H	0.495302	-0.040753	0.008943
H238	H	0.995302	0.459247	0.508943
C239	C	0.412958	0.013517	-0.013810
C240	C	0.912958	0.513517	0.486190
C241	C	0.459589	0.033245	-0.016964
C242	C	0.959589	0.533245	0.483036
H243	H	0.389777	0.034048	-0.043892
H244	H	0.889777	0.534048	0.456108
H245	H	0.406057	0.013524	0.037449
H246	H	0.906057	0.513524	0.537449
H247	H	0.411410	-0.020408	-0.032858
H248	H	0.911410	0.479592	0.467142
H249	H	0.461139	0.067167	0.002093
H250	H	0.961139	0.567167	0.502093
H251	H	0.466490	0.033244	-0.068221
H252	H	0.966490	0.533244	0.431779
O253	O	0.635779	-0.226812	0.005553
O254	O	1.135779	0.273188	0.505553
C255	C	0.628004	-0.213760	0.080389
C256	C	1.128004	0.286240	0.580389
H257	H	0.609367	-0.174981	0.080080
H258	H	1.109367	0.325019	0.580080
H259	H	0.603976	-0.243823	0.103537
H260	H	1.103976	0.256177	0.603537
C261	C	0.700032	-0.258906	0.131663
C262	C	1.200032	0.241094	0.631663
C263	C	0.677146	-0.211275	0.131285
C264	C	1.177146	0.288725	0.631285
H265	H	0.730345	-0.257375	0.163060
H266	H	1.230345	0.242625	0.663060
H267	H	0.705270	-0.267701	0.081246
H268	H	1.205270	0.232299	0.581246
H269	H	0.680004	-0.283953	0.150951
H270	H	1.180004	0.216047	0.650951
H271	H	0.697171	-0.186230	0.111988
H272	H	1.197171	0.313770	0.611988
H273	H	0.671913	-0.202475	0.181701
H274	H	1.171913	0.297525	0.681701
H275	H	0.663566	-0.628613	0.049165
H276	H	1.163566	-0.128613	0.549165
H277	H	0.492278	-0.000046	0.258910
H278	H	0.992278	0.499954	0.758910
O279	O	0.668787	-0.472483	0.057327
O280	O	1.168787	0.027517	0.557327
C281	C	0.697837	-0.437441	0.103075
C282	C	1.197837	0.062559	0.603075
H283	H	0.698333	-0.399369	0.072041
H284	H	1.198333	0.100631	0.572041
H285	H	0.682213	-0.431759	0.159130
H286	H	1.182213	0.068241	0.659130
C287	C	0.749395	-0.505029	0.157367
C288	C	1.249395	-0.005029	0.657367
C289	C	0.750008	-0.458270	0.119247
C290	C	1.250008	0.041730	0.619247
H291	H	0.781576	-0.517878	0.167346
H292	H	1.281576	-0.017878	0.667346
H293	H	0.729823	-0.528638	0.126547
H294	H	1.229823	-0.028638	0.626547
H295	H	0.736373	-0.500288	0.204074
H296	H	1.236373	-0.000288	0.704074
H297	H	0.763025	-0.463013	0.072536
H298	H	1.263025	0.036987	0.572536
H299	H	0.769584	-0.434662	0.150059
H300	H	1.269584	0.065338	0.650059
H301	H	0.663566	-0.531709	0.049162
H302	H	1.163566	-0.031709	0.549162
H303	H	0.630623	-0.125775	-0.002716
H304	H	1.130623	0.374225	0.497284
H305	H	-0.050468	-0.130248	-0.094795
H306	H	0.449532	0.369752	0.405205
H307	H	0.630655	-0.874334	-0.002659
H308	H	1.130655	-0.374334	0.497341
O309	O	-0.286264	0.091163	-0.090955
O310	O	0.213736	0.591163	0.409045
C311	C	-0.253198	0.131988	-0.091493
C312	C	0.246802	0.631988	0.408507
H313	H	-0.215230	0.118422	-0.068100
H314	H	0.284770	0.618422	0.431900
H315	H	-0.252980	0.146214	-0.152319
H316	H	0.247020	0.646214	0.347681
C317	C	-0.315294	0.192352	-0.070247
C318	C	0.184706	0.692352	0.429753
C319	C	-0.268662	0.175691	-0.041509
C320	C	0.231338	0.675691	0.458491
H321	H	-0.324833	0.219312	-0.039418
H322	H	0.175167	0.719312	0.460582
H323	H	-0.337572	0.164848	-0.069888
H324	H	0.162428	0.664848	0.430112
H325	H	-0.315106	0.204204	-0.120935
H326	H	0.184894	0.704204	0.379065
H327	H	-0.268852	0.163834	0.009174
H328	H	0.231148	0.663834	0.509174
H329	H	-0.246384	0.203194	-0.041859
H330	H	0.253616	0.703194	0.458141
O331	O	0.472980	-0.472517	-0.250748
O332	O	0.972980	0.027483	0.249252
C333	C	0.443925	-0.437488	-0.296498
C334	C	0.943925	0.062512	0.203502
H335	H	0.443423	-0.399413	-0.265466
H336	H	0.943423	0.100587	0.234534
H337	H	0.459548	-0.431807	-0.352553
H338	H	0.959548	0.068193	0.147447
C339	C	0.392376	-0.505095	-0.350786
C340	C	0.892376	-0.005095	0.149214
C341	C	0.391756	-0.458331	-0.312669
C342	C	0.891756	0.041669	0.187331
H343	H	0.360197	-0.517952	-0.360764
H344	H	0.860197	-0.017952	0.139236
H345	H	0.411952	-0.528695	-0.319966
H346	H	0.911952	-0.028695	0.180034
H347	H	0.405398	-0.500354	-0.397494
H348	H	0.905398	-0.000354	0.102506
H349	H	0.378741	-0.463074	-0.265958
H350	H	0.878741	0.036926	0.234042
H351	H	0.372177	-0.434732	-0.343482
H352	H	0.872177	0.065268	0.156518
H353	H	-0.282393	-0.084000	-0.091085
H354	H	0.217607	0.416000	0.408915
O355	O	-0.186915	0.091092	-0.092675
O356	O	0.313085	0.591092	0.407325
C357	C	-0.163318	0.093872	-0.158725
C358	C	0.336682	0.593872	0.341275
H359	H	-0.157610	0.053711	-0.180712
H360	H	0.342390	0.553711	0.319288
H361	H	-0.186642	0.116695	-0.204330
H362	H	0.313358	0.616695	0.295670
C363	C	-0.120753	0.169657	-0.112565
C364	C	0.379247	0.669657	0.387435
C365	C	-0.113740	0.120331	-0.139566
C366	C	0.386260	0.620331	0.360434
H367	H	-0.090172	0.185980	-0.100749
H368	H	0.409828	0.685980	0.399251
H369	H	-0.136653	0.167785	-0.068067
H370	H	0.363347	0.667785	0.431933
H371	H	-0.140192	0.188669	-0.150574
H372	H	0.359808	0.688669	0.349426
H373	H	-0.094307	0.101318	-0.101554
H374	H	0.405693	0.601318	0.398446
H375	H	-0.097836	0.122200	-0.184057
H376	H	0.402164	0.622200	0.315943
H377	H	0.653564	-0.000083	0.150370
H378	H	1.153564	0.499917	0.650370
O379	O	0.659002	-0.000102	0.301166
O380	O	1.159002	0.499898	0.801166
C381	C	0.698406	-0.000100	0.257836
C382	C	1.198406	0.499900	0.757836
H383	H	0.686063	-0.016163	0.198766
H384	H	1.186063	0.483837	0.698766
H385	H	0.712046	0.040607	0.252382
H386	H	1.212046	0.540607	0.752382
C387	C	0.754856	-0.013658	0.370214
C388	C	1.254856	0.486342	0.870214
C389	C	0.739697	-0.033392	0.297666
C390	C	1.239697	0.466608	0.797666
H391	H	0.780328	-0.034192	0.394784
H392	H	1.280328	0.465808	0.894784
H393	H	0.728310	-0.013657	0.399408
H394	H	1.228310	0.486343	0.899408
H395	H	0.766220	0.020264	0.365660
H396	H	1.266220	0.520264	0.865660
H397	H	0.728329	-0.067311	0.302222
H398	H	1.228329	0.432689	0.802222
H399	H	0.766243	-0.033399	0.268474
H400	H	1.266243	0.466601	0.768474
O401	O	0.472997	-0.632762	-0.250735
O402	O	0.972997	-0.132762	0.249265
C403	C	0.443941	-0.597737	-0.296492
C404	C	0.943941	-0.097737	0.203508
H405	H	0.443439	-0.559659	-0.265467
H406	H	0.943439	-0.059659	0.234533
H407	H	0.459564	-0.592061	-0.352548
H408	H	0.959564	-0.092061	0.147452
C409	C	0.392393	-0.665348	-0.350766
C410	C	0.892393	-0.165348	0.149234
C411	C	0.391773	-0.618581	-0.312657
C412	C	0.891773	-0.118581	0.187343
H413	H	0.360213	-0.678206	-0.360741
H414	H	0.860213	-0.178206	0.139259
H415	H	0.411969	-0.688946	-0.319941
H416	H	0.911969	-0.188946	0.180059
H417	H	0.405414	-0.660611	-0.397475
H418	H	0.905414	-0.160611	0.102525
H419	H	0.378757	-0.623319	-0.265945
H420	H	0.878757	-0.123319	0.234055
H421	H	0.372193	-0.594985	-0.343475
H422	H	0.872193	-0.094985	0.156525
O423	O	0.482852	-0.000112	0.505192
O424	O	0.982852	0.499888	1.005192
C425	C	0.480669	-0.044065	0.458966
C426	C	0.980669	0.455935	0.958966
H427	H	0.519029	-0.058723	0.455433
H428	H	1.019029	0.441277	0.955433
H429	H	0.458616	-0.074837	0.484667
H430	H	0.958616	0.425163	0.984667
C431	C	0.409140	-0.012707	0.382865
C432	C	0.909140	0.487293	0.882865
C433	C	0.456255	-0.030707	0.378521
C434	C	0.956255	0.469293	0.878521
H435	H	0.394078	-0.004469	0.333244
H436	H	0.894078	0.495531	0.833244
H437	H	0.410609	0.016904	0.414010
H438	H	0.910609	0.516904	0.914010
H439	H	0.390768	-0.038354	0.404286
H440	H	0.890768	0.461646	0.904286
H441	H	0.474627	-0.005059	0.357110
H442	H	0.974627	0.494941	0.857110
H443	H	0.454788	-0.060315	0.347371
H444	H	0.954788	0.439685	0.847371
O445	O	0.656529	-0.000049	0.543057
O446	O	1.156529	0.499951	1.043057
C447	C	0.694877	-0.000065	0.603250
C448	C	1.194877	0.499935	1.103250
H449	H	0.681392	0.016001	0.656719
H450	H	1.181392	0.516001	1.156719
H451	H	0.708329	-0.040777	0.614578
H452	H	1.208329	0.459223	1.114578
C453	C	0.753371	0.013476	0.515802
C454	C	1.253371	0.513476	1.015802
C455	C	0.736811	0.033213	0.581472
C456	C	1.236811	0.533213	1.081472
H457	H	0.779240	0.034001	0.502367
H458	H	1.279240	0.534001	1.002367
H459	H	0.727536	0.013485	0.475248
H460	H	1.227536	0.513485	0.975248
H461	H	0.764578	-0.020451	0.525250
H462	H	1.264578	0.479549	1.025250
H463	H	0.725599	0.067136	0.572020
H464	H	1.225599	0.567136	1.072020
H465	H	0.762645	0.033211	0.622024
H466	H	1.262645	0.533211	1.122024
H467	H	0.332698	0.083876	-0.100911
H468	H	0.832698	0.583876	0.399089
H469	H	0.100789	-0.130248	-0.097223
H470	H	0.600789	0.369752	0.402777
O471	O	0.654856	-0.000046	0.698650
O472	O	1.154856	0.499954	1.198650
C473	C	0.644617	-0.000054	0.774735
C474	C	1.144617	0.499946	1.274735
H475	H	0.606656	0.016019	0.777309
H476	H	1.106656	0.516019	1.277309
H477	H	0.646468	-0.040764	0.797586
H478	H	1.146468	0.459236	1.297586
C479	C	0.728834	0.013479	0.820342
C480	C	1.228834	0.513479	1.320342
C481	C	0.682211	0.033224	0.823503
C482	C	1.182211	0.533224	1.323503
H483	H	0.752024	0.034004	0.850426
H484	H	1.252024	0.534004	1.350426
H485	H	0.735733	0.013483	0.769082
H486	H	1.235733	0.513483	1.269082
H487	H	0.730369	-0.020445	0.839383
H488	H	1.230369	0.479555	1.339383
H489	H	0.680674	0.067145	0.804454
H490	H	1.180674	0.567145	1.304454
H491	H	0.675313	0.033227	0.874761
H492	H	1.175313	0.533227	1.374761
H493	H	0.478215	-0.531751	-0.242571
H494	H	0.978215	-0.031751	0.257429
O495	O	0.635846	-0.773304	0.005557
O496	O	1.135846	-0.273304	0.505557
C497	C	0.664919	-0.808330	0.051286
C498	C	1.164919	-0.308330	0.551286
H499	H	0.645103	-0.846407	0.051916
H500	H	1.145103	-0.346407	0.551916
H501	H	0.700796	-0.814007	0.027106
H502	H	1.200796	-0.314007	0.527106
C503	C	0.699318	-0.740719	0.132278
C504	C	1.199318	-0.240719	0.632278
C505	C	0.674979	-0.787484	0.133056
C506	C	1.174979	-0.287484	0.633056
H507	H	0.705526	-0.727860	0.182717
H508	H	1.205526	-0.227860	0.682717
H509	H	0.679733	-0.717120	0.101468
H510	H	1.179733	-0.217120	0.601468
H511	H	0.729213	-0.745456	0.112125
H512	H	1.229213	-0.245456	0.612125
H513	H	0.645082	-0.782746	0.153200
H514	H	1.145082	-0.282746	0.653200
H515	H	0.694559	-0.811081	0.163872
H516	H	1.194559	-0.311081	0.663872
O517	O	0.428097	0.091158	-0.102568
O518	O	0.928097	0.591158	0.397432
C519	C	0.410219	0.119313	-0.167927
C520	C	0.910219	0.619313	0.332073
H521	H	0.392470	0.092254	-0.213546
H522	H	0.892470	0.592254	0.286454
H523	H	0.382217	0.148160	-0.152623
H524	H	0.882217	0.648160	0.347377
C525	C	0.474293	0.180887	-0.142340
C526	C	0.974293	0.680887	0.357660
C527	C	0.452497	0.147652	-0.198372
C528	C	0.952497	0.647652	0.301628
H529	H	0.500371	0.198370	-0.161119
H530	H	1.000371	0.698370	0.338881
H531	H	0.486337	0.161920	-0.098305
H532	H	0.986337	0.661920	0.401695
H533	H	0.450953	0.204922	-0.129592
H534	H	0.950953	0.704922	0.370408
H535	H	0.475835	0.123615	-0.211112
H536	H	0.975835	0.623615	0.288888
H537	H	0.440457	0.166616	-0.242411
H538	H	0.940457	0.666616	0.257589
H539	H	0.488214	-0.000046	0.656174
H540	H	0.988214	0.499954	1.156174
H541	H	0.424160	-0.083975	-0.102415
H542	H	0.924160	0.416025	0.397585
H543	H	-0.190923	-0.084002	-0.092555
H544	H	0.309077	0.415998	0.407445
H545	H	0.192262	0.130124	-0.098607
H546	H	0.692262	0.630124	0.401393
O547	O	0.328813	-0.091297	-0.100909
O548	O	0.828813	0.408703	0.399091
C549	C	0.361881	-0.132117	-0.101434
C550	C	0.861881	0.367883	0.398566
H551	H	0.395787	-0.118546	-0.125976
H552	H	0.895787	0.381454	0.374024
H553	H	0.372391	-0.146345	-0.040781
H554	H	0.872391	0.353655	0.459219
C555	C	0.296358	-0.192488	-0.120642
C556	C	0.796358	0.307512	0.379358
C557	C	0.338001	-0.175821	-0.150792
C558	C	0.838001	0.324179	0.349208
H559	H	0.281628	-0.219448	-0.151086
H560	H	0.781628	0.280552	0.348914
H561	H	0.274079	-0.164987	-0.120286
H562	H	0.774079	0.335013	0.379714
H563	H	0.305123	-0.204341	-0.070099
H564	H	0.805123	0.295659	0.429901
H565	H	0.329234	-0.163962	-0.201330
H566	H	0.829234	0.336038	0.298670
H567	H	0.360277	-0.203321	-0.151158
H568	H	0.860277	0.296679	0.348842
H569	H	0.100805	0.130124	-0.097146
H570	H	0.600805	0.630124	0.402854
H571	H	0.040998	-0.130250	-0.096264
H572	H	0.540998	0.369750	0.403736
O573	O	0.473090	-0.367249	-0.250751
O574	O	0.973090	0.132751	0.249249
C575	C	0.498916	-0.336364	-0.297179
C576	C	0.998916	0.163636	0.202821
H577	H	0.536775	-0.328354	-0.266619
H578	H	1.036775	0.171646	0.233381
H579	H	0.502132	-0.356956	-0.353079
H580	H	1.002132	0.143044	0.146921
C581	C	0.425141	-0.295470	-0.351201
C582	C	0.925141	0.204530	0.148799
C583	C	0.471639	-0.285628	-0.313663
C584	C	0.971639	0.214372	0.186337
H585	H	0.408314	-0.264174	-0.361373
H586	H	0.908314	0.235826	0.138627
H587	H	0.407741	-0.316278	-0.319924
H588	H	0.907741	0.183722	0.180076
H589	H	0.427828	-0.312631	-0.397780
H590	H	0.927828	0.187369	0.102220
H591	H	0.468951	-0.268473	-0.267081
H592	H	0.968951	0.231527	0.232919
H593	H	0.489038	-0.264815	-0.344933
H594	H	0.989038	0.235185	0.155067
O595	O	0.506031	-0.773283	-0.198992
O596	O	1.006031	-0.273283	0.301008
C597	C	0.513797	-0.786355	-0.273824
C598	C	1.013797	-0.286355	0.226176
H599	H	0.552499	-0.801028	-0.273755
H600	H	1.052499	-0.301028	0.226245
H601	H	0.486987	-0.817370	-0.296346
H602	H	0.986987	-0.317370	0.203654
C603	C	0.458682	-0.720894	-0.325321
C604	C	0.958682	-0.220894	0.174679
C605	C	0.506218	-0.738912	-0.325237
C606	C	1.006218	-0.238912	0.174763
H607	H	0.454005	-0.691630	-0.357036
H608	H	0.954005	-0.191630	0.142964
H609	H	0.453449	-0.712088	-0.274905
H610	H	0.953449	-0.212088	0.225095
H611	H	0.436346	-0.746745	-0.344087
H612	H	0.936346	-0.246745	0.155913
H613	H	0.528554	-0.713064	-0.306462
H614	H	1.028554	-0.213064	0.193538
H615	H	0.511456	-0.747712	-0.375651
H616	H	1.011456	-0.247712	0.124349
O617	O	0.506020	-0.121547	-0.198961
O618	O	1.006020	0.378453	0.301039
C619	C	0.531845	-0.090657	-0.245383
C620	C	1.031845	0.409343	0.254617
H621	H	0.569707	-0.082656	-0.214826
H622	H	1.069707	0.417344	0.285174
H623	H	0.535055	-0.111241	-0.301292
H624	H	1.035055	0.388759	0.198708
C625	C	0.458072	-0.049747	-0.299379
C626	C	0.958072	0.450253	0.200621
C627	C	0.504574	-0.039916	-0.261845
C628	C	1.004574	0.460084	0.238155
H629	H	0.441249	-0.018448	-0.309536
H630	H	0.941249	0.481552	0.190464
H631	H	0.440672	-0.070559	-0.268106
H632	H	0.940672	0.429441	0.231894
H633	H	0.460754	-0.066902	-0.345965
H634	H	0.960754	0.433098	0.154035
H635	H	0.501892	-0.022768	-0.215256
H636	H	1.001892	0.477232	0.284744
H637	H	0.521973	-0.019100	-0.293111
H638	H	1.021973	0.480900	0.206889
H639	H	0.663561	-0.371474	0.049146
H640	H	1.163561	0.128526	0.549146
H641	H	0.511169	-0.874349	-0.190741
H642	H	1.011169	-0.374349	0.309259
H643	H	0.511134	-0.222705	-0.190788
H644	H	1.011134	0.277295	0.309212
