data_functionalizedCrystal
_audit_creation_method	'MofGen! by Chris Wilmer'
_symmetry_space_group_name_H-M	'P1'
_symmetry_Int_Tables_number	1
_symmetry_cell_setting	triclinic
loop_
_symmetry_equiv_pos_as_xyz
  x,y,z
_cell_length_a	17.699077
_cell_length_b	14.044220
_cell_length_c	16.776229
_cell_angle_alpha	89.992645
_cell_angle_beta	89.993415
_cell_angle_gamma	88.234727
loop_
_atom_site_label
_atom_site_type_symbol
_atom_site_fract_x
_atom_site_fract_y
_atom_site_fract_z
O1	O	1.012347	0.119823	-0.066280
O2	O	1.262347	0.369823	0.183720
O3	O	1.512347	0.619823	0.433720
O4	O	1.762347	0.869823	0.683720
O5	O	0.793044	0.135422	-0.066284
O6	O	1.043044	0.385422	0.183716
O7	O	1.293044	0.635422	0.433716
O8	O	1.543044	0.885422	0.683716
O9	O	0.899404	-0.010355	-0.066274
O10	O	1.149404	0.239645	0.183726
O11	O	1.399404	0.489645	0.433726
O12	O	1.649404	0.739645	0.683726
O13	O	0.905987	0.265599	-0.066290
O14	O	1.155987	0.515599	0.183710
O15	O	1.405987	0.765599	0.433710
O16	O	1.655987	1.015599	0.683710
O17	O	0.899388	-0.010364	0.066302
O18	O	1.149388	0.239636	0.316302
O19	O	1.399388	0.489636	0.566302
O20	O	1.649388	0.739636	0.816302
O21	O	0.793028	0.135413	0.066293
O22	O	1.043028	0.385413	0.316293
O23	O	1.293028	0.635413	0.566293
O24	O	1.543028	0.885413	0.816293
O25	O	1.012331	0.119814	0.066297
O26	O	1.262331	0.369814	0.316297
O27	O	1.512331	0.619814	0.566297
O28	O	1.762331	0.869814	0.816297
Zn29	Zn	0.902677	0.127612	0.087344
Zn30	Zn	1.152677	0.377612	0.337344
Zn31	Zn	1.402677	0.627612	0.587344
Zn32	Zn	1.652677	0.877612	0.837344
Zn33	Zn	0.902698	0.127624	-0.087331
Zn34	Zn	1.152698	0.377624	0.162669
Zn35	Zn	1.402698	0.627624	0.412669
Zn36	Zn	1.652698	0.877624	0.662669
O37	O	0.905971	0.265590	0.066287
O38	O	1.155971	0.515590	0.316287
O39	O	1.405971	0.765590	0.566287
O40	O	1.655971	1.015590	0.816287
C41	C	0.764800	0.134859	0.000004
C42	C	1.014800	0.384859	0.250004
C43	C	1.264800	0.634859	0.500004
C44	C	1.514800	0.884859	0.750004
C45	C	0.680667	0.133185	0.000002
C46	C	0.930667	0.383185	0.250002
C47	C	1.180667	0.633185	0.500002
C48	C	1.430667	0.883185	0.750002
C49	C	0.896514	-0.045667	0.000014
C50	C	1.146514	0.204333	0.250014
C51	C	1.396514	0.454333	0.500014
C52	C	1.646514	0.704333	0.750014
C53	C	0.887918	-0.150873	0.000015
C54	C	1.137918	0.099127	0.250015
C55	C	1.387918	0.349127	0.500015
C56	C	1.637918	0.599127	0.750015
C57	C	0.641136	0.132392	0.072271
C58	C	0.891136	0.382392	0.322271
C59	C	1.141136	0.632392	0.572271
C60	C	1.391136	0.882392	0.822271
C61	C	0.562084	0.130804	0.072272
C62	C	0.812084	0.380804	0.322272
C63	C	1.062084	0.630804	0.572272
C64	C	1.312084	0.880804	0.822272
C65	C	0.522564	0.130016	0.000004
C66	C	0.772564	0.380016	0.250004
C67	C	1.022564	0.630016	0.500004
C68	C	1.272564	0.880016	0.750004
C69	C	0.562100	0.130807	-0.072270
C70	C	0.812100	0.380807	0.177730
C71	C	1.062100	0.630807	0.427730
C72	C	1.312100	0.880807	0.677730
C73	C	0.641151	0.132388	-0.072271
C74	C	0.891151	0.382388	0.177729
C75	C	1.141151	0.632388	0.427729
C76	C	1.391151	0.882388	0.677729
C77	C	0.243297	0.124429	-0.072272
C78	C	0.493297	0.374429	0.177728
C79	C	0.743297	0.624429	0.427728
C80	C	0.993297	0.874429	0.677728
C81	C	0.164240	0.122851	-0.072266
C82	C	0.414240	0.372851	0.177734
C83	C	0.664240	0.622851	0.427734
C84	C	0.914240	0.872851	0.677734
C85	C	0.164230	0.122845	0.072271
C86	C	0.414230	0.372845	0.322271
C87	C	0.664230	0.622845	0.572271
C88	C	0.914230	0.872845	0.822271
C89	C	0.243281	0.124426	0.072271
C90	C	0.493281	0.374426	0.322271
C91	C	0.743281	0.624426	0.572271
C92	C	0.993281	0.874426	0.822271
C93	C	0.282810	0.125212	-0.000003
C94	C	0.532810	0.375212	0.249997
C95	C	0.782810	0.625212	0.499997
C96	C	1.032810	0.875212	0.749997
C97	C	0.368528	0.126932	-0.000003
C98	C	0.618528	0.376932	0.249997
C99	C	0.868528	0.626932	0.499997
C100	C	1.118528	0.876932	0.749997
C101	C	0.436848	0.128303	0.000003
C102	C	0.686848	0.378303	0.250003
C103	C	0.936848	0.628303	0.500003
C104	C	1.186848	0.878303	0.750003
C105	C	0.872203	-0.343497	0.000004
C106	C	1.122203	-0.093497	0.250004
C107	C	1.372203	0.156503	0.500004
C108	C	1.622203	0.406503	0.750004
C109	C	0.933169	-0.401273	0.000002
C110	C	1.183169	-0.151273	0.250002
C111	C	1.433169	0.098727	0.500002
C112	C	1.683169	0.348727	0.750002
C113	C	0.924425	-0.508456	-0.000004
C114	C	1.174425	-0.258456	0.249996
C115	C	1.424425	-0.008456	0.499996
C116	C	1.674425	0.241544	0.749996
C117	C	0.880946	-0.236304	0.000010
C118	C	1.130946	0.013696	0.250010
C119	C	1.380946	0.263696	0.500010
C120	C	1.630946	0.513696	0.750010
C121	C	1.040575	0.120376	0.000007
C122	C	1.290575	0.370376	0.250007
C123	C	1.540575	0.620376	0.500007
C124	C	1.790575	0.870376	0.750007
C125	C	1.124708	0.122050	0.000003
C126	C	1.374708	0.372050	0.250003
C127	C	1.624708	0.622050	0.500003
C128	C	1.874708	0.872050	0.750003
C129	C	0.908861	0.300903	-0.000003
C130	C	1.158861	0.550903	0.249997
C131	C	1.408861	0.800903	0.499997
C132	C	1.658861	1.050903	0.749997
C133	C	0.917457	0.406108	-0.000010
C134	C	1.167457	0.656108	0.249990
C135	C	1.417457	0.906108	0.499990
C136	C	1.667457	1.156108	0.749990
N137	N	0.902668	0.127603	0.206555
N138	N	1.152668	0.377603	0.456555
N139	N	1.402668	0.627603	0.706555
N140	N	1.652668	0.877603	0.956555
N141	N	0.902712	0.127625	-0.206542
N142	N	1.152712	0.377625	0.043458
N143	N	1.402712	0.627625	0.293458
N144	N	1.652712	0.877625	0.543458
C145	C	0.949782	0.063080	0.248277
C146	C	1.199782	0.313080	0.498277
C147	C	1.449782	0.563080	0.748277
C148	C	1.699782	0.813080	0.998277
C149	C	0.949786	0.063079	0.331729
C150	C	1.199786	0.313079	0.581729
C151	C	1.449786	0.563079	0.831729
C152	C	1.699786	0.813079	1.081729
C153	C	0.902680	0.127607	0.373458
C154	C	1.152680	0.377607	0.623458
C155	C	1.402680	0.627607	0.873458
C156	C	1.652680	0.877607	1.123458
C157	C	0.855561	0.192133	0.331731
C158	C	1.105561	0.442133	0.581731
C159	C	1.355561	0.692133	0.831731
C160	C	1.605561	0.942133	1.081731
C161	C	0.855553	0.192129	0.248280
C162	C	1.105553	0.442129	0.498280
C163	C	1.355553	0.692129	0.748280
C164	C	1.605553	0.942129	0.998280
C165	C	0.855589	0.192152	0.668278
C166	C	1.105589	0.442152	0.918278
C167	C	1.355589	0.692152	1.168278
C168	C	1.605589	0.942152	1.418278
C169	C	0.855602	0.192153	0.751735
C170	C	1.105602	0.442153	1.001735
C171	C	1.355602	0.692153	1.251735
C172	C	1.605602	0.942153	1.501735
C173	C	0.949822	0.063102	0.751727
C174	C	1.199822	0.313102	1.001727
C175	C	1.449822	0.563102	1.251727
C176	C	1.699822	0.813102	1.501727
C177	C	0.949814	0.063098	0.668276
C178	C	1.199814	0.313098	0.918276
C179	C	1.449814	0.563098	1.168276
C180	C	1.699814	0.813098	1.418276
C181	C	0.902693	0.127620	0.626556
C182	C	1.152693	0.377620	0.876556
C183	C	1.402693	0.627620	1.126556
C184	C	1.652693	0.877620	1.376556
C185	C	0.902688	0.127619	0.536068
C186	C	1.152688	0.377619	0.786068
C187	C	1.402688	0.627619	1.036068
C188	C	1.652688	0.877619	1.286068
C189	C	0.902688	0.127613	0.463945
C190	C	1.152688	0.377613	0.713945
C191	C	1.402688	0.627613	0.963945
C192	C	1.652688	0.877613	1.213945
H193	H	0.673308	0.133041	0.131120
H194	H	0.923308	0.383041	0.381120
H195	H	1.173308	0.633041	0.631120
H196	H	1.423308	0.883041	0.881120
Cl197	Cl	0.796378	0.273279	0.804193
Cl198	Cl	1.046378	0.523279	1.054193
Cl199	Cl	1.296378	0.773279	1.304193
Cl200	Cl	1.546378	1.023279	1.554193
H201	H	0.991931	-0.370238	-0.000050
H202	H	1.241931	-0.120238	0.249950
H203	H	1.491931	0.129762	0.499950
H204	H	1.741931	0.379762	0.749950
Cl205	Cl	0.781484	-0.391409	-0.000002
Cl206	Cl	1.031484	-0.141409	0.249998
Cl207	Cl	1.281484	0.108591	0.499998
Cl208	Cl	1.531484	0.358591	0.749998
H209	H	0.529902	0.130142	0.131120
H210	H	0.779902	0.380142	0.381120
H211	H	1.029902	0.630142	0.631120
H212	H	1.279902	0.880142	0.881120
H213	H	0.132065	0.122209	-0.131119
H214	H	0.382065	0.372209	0.118881
H215	H	0.632065	0.622209	0.368881
H216	H	0.882065	0.872209	0.618881
H217	H	0.988144	0.010538	0.214306
H218	H	1.238144	0.260538	0.464306
H219	H	1.488144	0.510538	0.714306
H220	H	1.738144	0.760538	0.964306
Cl221	Cl	0.796319	0.273245	0.195831
Cl222	Cl	1.046319	0.523245	0.445831
Cl223	Cl	1.296319	0.773245	0.695831
Cl224	Cl	1.546319	1.023245	0.945831
H225	H	0.817202	0.244670	0.365712
H226	H	1.067202	0.494670	0.615712
H227	H	1.317202	0.744670	0.865712
H228	H	1.567202	0.994670	1.115712
Cl229	Cl	1.009014	-0.018038	0.384180
Cl230	Cl	1.259014	0.231962	0.634180
Cl231	Cl	1.509014	0.481962	0.884180
Cl232	Cl	1.759014	0.731962	1.134180
H233	H	0.988175	0.010557	0.634303
H234	H	1.238175	0.260557	0.884303
H235	H	1.488175	0.510557	1.134303
H236	H	1.738175	0.760557	1.384303
Cl237	Cl	0.796356	0.273267	0.615835
Cl238	Cl	1.046356	0.523267	0.865835
Cl239	Cl	1.296356	0.773267	1.115835
Cl240	Cl	1.546356	1.023267	1.365835
H241	H	0.988188	0.010561	0.785704
H242	H	1.238188	0.260561	1.035704
H243	H	1.488188	0.510561	1.285704
H244	H	1.738188	0.760561	1.535704
H245	H	0.529916	0.130159	-0.131112
H246	H	0.779916	0.380159	0.118888
H247	H	1.029916	0.630159	0.368888
H248	H	1.279916	0.880159	0.618888
Cl249	Cl	0.292959	0.125421	0.163126
Cl250	Cl	0.542959	0.375421	0.413126
Cl251	Cl	0.792959	0.625421	0.663126
Cl252	Cl	1.042959	0.875421	0.913126
Cl253	Cl	0.292980	0.125419	-0.163130
Cl254	Cl	0.542980	0.375419	0.086870
Cl255	Cl	0.792980	0.625419	0.336870
Cl256	Cl	1.042980	0.875419	0.586870
Cl257	Cl	0.114531	0.121852	0.163131
Cl258	Cl	0.364531	0.371852	0.413131
Cl259	Cl	0.614531	0.621852	0.663131
Cl260	Cl	0.864531	0.871852	0.913131
H261	H	0.673335	0.133036	-0.131119
H262	H	0.923335	0.383036	0.118881
H263	H	1.173335	0.633036	0.368881
H264	H	1.423335	0.883036	0.618881
