data_functionalizedCrystal
_audit_creation_method	'MofGen! by Chris Wilmer'
_symmetry_space_group_name_H-M	'P1'
_symmetry_Int_Tables_number	1
_symmetry_cell_setting	triclinic
loop_
_symmetry_equiv_pos_as_xyz
  x,y,z
_cell_length_a	17.639617
_cell_length_b	16.120444
_cell_length_c	17.639306
_cell_angle_alpha	104.592119
_cell_angle_beta	65.670249
_cell_angle_gamma	104.620503
loop_
_atom_site_label
_atom_site_type_symbol
_atom_site_fract_x
_atom_site_fract_y
_atom_site_fract_z
Zn1	Zn	1.346190	-0.200768	-0.729156
Zn2	Zn	1.846190	0.299232	-0.229156
Zn3	Zn	1.313518	-0.318762	-0.596037
Zn4	Zn	1.813518	0.181238	-0.096037
Zn5	Zn	1.180514	-0.200736	-0.563448
Zn6	Zn	1.680514	0.299264	-0.063448
Zn7	Zn	1.201677	-0.366358	-0.707803
Zn8	Zn	1.701677	0.133642	-0.207803
O9	O	1.260475	-0.271656	-0.649111
O10	O	1.760475	0.228344	-0.149111
O11	O	1.457998	-0.196514	-0.734073
O12	O	1.957998	0.303486	-0.234073
O13	O	1.273345	-0.283173	-0.475590
O14	O	1.773345	0.216827	0.024410
O15	O	1.207308	-0.082045	-0.580727
O16	O	1.707308	0.417955	-0.080727
O17	O	1.433994	-0.283204	-0.636271
O18	O	1.933994	0.216796	-0.136271
O19	O	1.329029	-0.082069	-0.702472
O20	O	1.829029	0.417931	-0.202472
O21	O	1.175628	-0.196459	-0.451646
O22	O	1.675628	0.303541	0.048354
O23	O	1.067180	-0.242612	-0.560022
O24	O	1.567180	0.257388	-0.060022
O25	O	1.243377	-0.364325	-0.826760
O26	O	1.743377	0.135675	-0.326760
O27	O	1.082728	-0.364294	-0.666079
O28	O	1.582728	0.135706	-0.166079
O29	O	1.349550	-0.242666	-0.842448
O30	O	1.849550	0.257334	-0.342448
O31	O	1.293866	-0.443770	-0.615566
O32	O	1.793866	0.056230	-0.115566
O33	O	1.211697	-0.478739	-0.697680
O34	O	1.711697	0.021261	-0.197680
C35	C	1.044840	-0.308615	-0.607198
C36	C	1.544840	0.191385	-0.107198
C37	C	0.952593	-0.324450	-0.589287
C38	C	1.452593	0.175550	-0.089287
C39	C	0.711718	-0.151376	-0.785378
C40	C	1.211718	0.348624	-0.285378
C41	C	0.625034	-0.166274	-0.768533
C42	C	1.125034	0.333726	-0.268533
C43	C	0.600039	-0.256338	-0.666531
C44	C	1.100039	0.243662	-0.166531
C45	C	0.686723	-0.241451	-0.683371
C46	C	1.186723	0.258549	-0.183371
C47	C	0.742556	-0.188969	-0.742795
C48	C	1.242556	0.311031	-0.242795
C49	C	0.717561	-0.279044	-0.640788
C50	C	1.217561	0.220956	-0.140788
C51	C	0.804237	-0.264154	-0.657623
C52	C	1.304237	0.235846	-0.157623
C53	C	0.860075	-0.211672	-0.717042
C54	C	1.360075	0.288328	-0.217042
C55	C	0.829232	-0.174079	-0.759630
C56	C	1.329232	0.325921	-0.259630
C57	C	0.661725	-0.331521	-0.581360
C58	C	1.161725	0.168479	-0.081360
C59	C	0.692563	-0.369113	-0.538777
C60	C	1.192563	0.130887	-0.038777
C61	C	0.779241	-0.354229	-0.555616
C62	C	1.279241	0.145771	-0.055616
C63	C	0.835079	-0.301747	-0.615035
C64	C	1.335079	0.198253	-0.115035
C65	C	0.810084	-0.391822	-0.513028
C66	C	1.310084	0.108178	-0.013028
C67	C	0.896760	-0.376932	-0.529864
C68	C	1.396760	0.123068	-0.029864
C69	C	0.921755	-0.286857	-0.631871
C70	C	1.421755	0.213143	-0.131871
C71	C	1.251558	-0.492030	-0.657865
C72	C	1.751558	0.007970	-0.157865
C73	C	1.247825	-0.586299	-0.661652
C74	C	1.747825	-0.086299	-0.161652
C75	C	1.280079	-0.783555	-0.629682
C76	C	1.780079	-0.283555	-0.129682
C77	C	1.241026	-0.758880	-0.668578
C78	C	1.741026	-0.258880	-0.168578
C79	C	1.244810	-0.662847	-0.664723
C80	C	1.744810	-0.162847	-0.164723
C81	C	1.276296	-0.879597	-0.633536
C82	C	1.776296	-0.379597	-0.133536
C83	C	1.476952	-0.234553	-0.691189
C84	C	1.976952	0.265447	-0.191189
C85	C	1.569202	-0.218742	-0.709120
C86	C	2.069202	0.281258	-0.209120
C87	C	1.302469	-0.308808	-0.865556
C88	C	1.802469	0.191192	-0.365556
C89	C	1.320364	-0.324641	-0.957792
C90	C	1.820364	0.175359	-0.457792
C91	C	1.269452	-0.050420	-0.640346
C92	C	1.769452	0.449580	-0.140346
C93	C	1.273278	0.043857	-0.636611
C94	C	1.773278	0.543857	-0.136611
C95	C	1.124862	-0.151009	-1.198844
C96	C	1.624862	0.348991	-0.698844
C97	C	1.141696	-0.165900	-1.285518
C98	C	1.641696	0.334100	-0.785518
C99	C	1.243438	-0.256185	-1.310427
C100	C	1.743438	0.243815	-0.810427
C101	C	1.226617	-0.241298	-1.223754
C102	C	1.726617	0.258702	-0.723754
C103	C	1.167327	-0.188710	-1.167969
C104	C	1.667327	0.311290	-0.667969
C105	C	1.269081	-0.278999	-1.192879
C106	C	1.769081	0.221001	-0.692879
C107	C	1.252257	-0.264117	-1.106213
C108	C	1.752257	0.235883	-0.606213
C109	C	1.192969	-0.211533	-1.050422
C110	C	1.692969	0.288467	-0.550422
C111	C	1.150503	-0.173827	-1.081303
C112	C	1.650503	0.326173	-0.581303
C113	C	1.328366	-0.331592	-1.248666
C114	C	1.828366	0.168408	-0.748666
C115	C	1.370831	-0.369293	-1.217791
C116	C	1.870831	0.130707	-0.717791
C117	C	1.354012	-0.354406	-1.131124
C118	C	1.854012	0.145594	-0.631124
C119	C	1.294723	-0.301822	-1.075333
C120	C	1.794723	0.198178	-0.575333
C121	C	1.396477	-0.392112	-1.100243
C122	C	1.896477	0.107888	-0.600243
C123	C	1.379653	-0.377229	-1.013577
C124	C	1.879653	0.122771	-0.513577
C125	C	1.277899	-0.286940	-0.988667
C126	C	1.777899	0.213060	-0.488667
C127	C	1.218695	-0.234578	-0.433515
C128	C	1.718695	0.265422	0.066485
C129	C	1.200970	-0.218480	-0.341302
C130	C	1.700970	0.281520	0.158698
H131	H	0.554568	-0.299066	-0.618146
H132	H	1.054568	0.200934	-0.118146
Cl133	Cl	1.185014	-0.837615	-0.724457
Cl134	Cl	1.685014	-0.337615	-0.224457
Cl135	Cl	1.075975	-0.107705	-1.011167
Cl136	Cl	1.575975	0.392295	-0.511167
H137	H	0.591146	-0.343620	-0.567636
H138	H	1.091146	0.156380	-0.067636
H139	H	1.316352	-0.732561	-0.593489
H140	H	1.816352	-0.232561	-0.093489
Cl141	Cl	1.050335	-0.084886	-1.128708
Cl142	Cl	1.550335	0.415114	-0.628708
Cl143	Cl	0.622365	-0.435086	-0.464073
Cl144	Cl	1.122365	0.064914	0.035927
H145	H	0.930651	-0.199547	-0.730746
H146	H	1.430651	0.300453	-0.230746
H147	H	1.229629	-0.244107	-0.943243
H148	H	1.729629	0.255893	-0.443243
Cl149	Cl	1.088331	-0.118468	-1.324332
Cl150	Cl	1.588331	0.381532	-0.824332
Cl151	Cl	1.317968	-0.322297	-1.380564
Cl152	Cl	1.817968	0.177703	-0.880564
Cl153	Cl	1.171810	-0.192830	-0.941468
Cl154	Cl	1.671810	0.307170	-0.441468
Cl155	Cl	1.349519	-0.350299	-1.357619
Cl156	Cl	1.849519	0.149701	-0.857619
H157	H	1.419101	-0.412114	-1.263222
H158	H	1.919101	0.087886	-0.763222
Cl159	Cl	0.739883	-0.457785	-0.438318
Cl160	Cl	1.239883	0.042215	0.061682
Cl161	Cl	0.899430	-0.108108	-0.834343
Cl162	Cl	1.399430	0.391892	-0.334343
Cl163	Cl	0.781917	-0.085405	-0.860091
Cl164	Cl	1.281917	0.414595	-0.360091
H165	H	1.414244	-0.407916	-0.988441
H166	H	1.914244	0.092084	-0.488441
Cl167	Cl	0.991953	-0.220886	-0.706583
Cl168	Cl	1.491953	0.279114	-0.206583
Cl169	Cl	0.586270	-0.119003	-0.822069
Cl170	Cl	1.086270	0.380997	-0.322069
Cl171	Cl	1.470999	-0.458231	-1.170381
Cl172	Cl	1.970999	0.041769	-0.670381
Cl173	Cl	0.935532	-0.424201	-0.476338
Cl174	Cl	1.435532	0.075799	0.023662
