data_functionalizedCrystal
_audit_creation_method	'MofGen! by Chris Wilmer'
_symmetry_space_group_name_H-M	'P1'
_symmetry_Int_Tables_number	1
_symmetry_cell_setting	triclinic
loop_
_symmetry_equiv_pos_as_xyz
  x,y,z
_cell_length_a	10.723023
_cell_length_b	10.723024
_cell_length_c	16.053802
_cell_angle_alpha	92.591250
_cell_angle_beta	87.394443
_cell_angle_gamma	84.467709
loop_
_atom_site_label
_atom_site_type_symbol
_atom_site_fract_x
_atom_site_fract_y
_atom_site_fract_z
O1	O	1.662408	0.169814	-0.069425
O2	O	1.299256	0.186568	-0.069427
O3	O	1.489209	-0.003385	-0.069423
O4	O	1.472456	0.359767	-0.069429
O5	O	1.478753	0.007027	0.069436
O6	O	1.288800	0.196980	0.069432
O7	O	1.651952	0.180226	0.069434
Zn8	Zn	1.468716	0.190256	0.091480
Zn9	Zn	1.482492	0.176538	-0.091472
O10	O	1.462000	0.370179	0.069430
C11	C	1.247528	0.190555	0.000002
C12	C	1.108974	0.186908	0.000002
C13	C	1.052619	0.179888	-0.071932
C14	C	0.909416	0.176118	-0.071934
C15	C	1.482762	-0.044679	0.000006
C16	C	1.479114	-0.183233	0.000003
C17	C	1.585402	-0.258216	0.000002
C18	C	1.581634	-0.401420	-0.000001
C19	C	1.703680	0.176239	0.000003
C20	C	1.842235	0.179886	-0.000002
C21	C	1.468447	0.411473	-0.000000
C22	C	1.472095	0.550027	-0.000003
N23	N	1.459324	0.199618	0.216340
N24	N	1.491895	0.167166	-0.216333
C25	C	1.540179	0.118822	0.260036
C26	C	1.533620	0.125382	0.347442
C27	C	1.446211	0.212746	0.391152
C28	C	1.365348	0.293546	0.347450
C29	C	1.371901	0.286978	0.260045
C30	C	1.417585	0.241398	0.652561
C31	C	1.411040	0.247962	0.739972
C32	C	1.579311	0.079797	0.739958
C33	C	1.585862	0.073242	0.652551
C34	C	1.504994	0.154037	0.608857
N35	N	1.439508	0.219457	0.480495
N36	N	1.511692	0.147320	0.519515
H37	H	1.051204	0.190134	0.061584
O38	O	1.363577	-0.373083	-0.000151
C39	C	1.364291	-0.302313	-0.072054
H40	H	1.431433	-0.353272	-0.122320
H41	H	1.265719	-0.290222	-0.096196
H42	H	1.396296	-0.206220	-0.055791
H43	H	0.890712	0.185896	0.061586
O44	O	1.697364	-0.208478	0.000112
C45	C	1.760228	-0.243247	0.072037
H46	H	1.723766	-0.332074	0.096016
H47	H	1.865221	-0.261503	0.055860
H48	H	1.742534	-0.164284	0.122395
O49	O	1.624897	0.033847	0.217507
C50	C	1.561154	-0.047564	0.167009
H51	H	1.464941	0.000308	0.153904
H52	H	1.617678	-0.071529	0.105548
H53	H	1.549301	-0.137299	0.200738
H54	H	1.599458	0.059591	0.383019
H55	H	1.351741	0.307187	0.616992
H56	H	1.110388	0.176675	-0.133514
H57	H	1.672625	-0.465852	0.000002
O58	O	1.367137	-0.232958	0.000111
C59	C	1.293443	-0.187415	0.072038
H60	H	1.326292	-0.094994	0.096019
H61	H	1.190885	-0.171587	0.055862
H62	H	1.303560	-0.258834	0.122393
H63	H	0.860932	0.170098	-0.133519
O64	O	1.280548	0.378375	0.390036
C65	C	1.292081	0.366830	0.476552
H66	H	1.390000	0.321993	0.488480
H67	H	1.276513	0.463706	0.509762
H68	H	1.219059	0.305460	0.501375
O69	O	1.670411	-0.011728	0.609871
C70	C	1.751804	0.051527	0.559011
H71	H	1.753582	0.151838	0.585339
H72	H	1.850400	0.000850	0.557656
H73	H	1.717248	0.053044	0.492913
O74	O	1.293306	0.365596	0.217725
C75	C	1.214731	0.444095	0.275045
H76	H	1.261234	0.450657	0.337342
H77	H	1.198433	0.541683	0.249782
H78	H	1.120991	0.403425	0.284359
H79	H	1.645149	0.014016	0.775542
H80	H	1.339857	0.319109	0.775556
