data_functionalizedCrystal
_audit_creation_method	'MofGen! by Chris Wilmer'
_symmetry_space_group_name_H-M	'P1'
_symmetry_Int_Tables_number	1
_symmetry_cell_setting	triclinic
loop_
_symmetry_equiv_pos_as_xyz
  x,y,z
_cell_length_a	10.686220
_cell_length_b	14.908308
_cell_length_c	14.908183
_cell_angle_alpha	90.220848
_cell_angle_beta	82.067150
_cell_angle_gamma	97.378149
loop_
_atom_site_label
_atom_site_type_symbol
_atom_site_fract_x
_atom_site_fract_y
_atom_site_fract_z
Zn1	Zn	1.874981	-0.391284	0.278775
Zn2	Zn	1.876263	-0.232181	0.420410
Zn3	Zn	1.675045	-0.251226	0.281708
Zn4	Zn	1.650529	-0.394103	0.442094
O5	O	1.769205	-0.317198	0.355747
O6	O	2.053296	-0.361029	0.287260
O7	O	1.860368	-0.108328	0.394164
O8	O	1.711291	-0.276596	0.154922
O9	O	2.054238	-0.244136	0.391319
O10	O	1.858183	-0.379496	0.152767
O11	O	1.712534	-0.122320	0.292261
O12	O	1.493649	-0.279329	0.313286
O13	O	1.669506	-0.520109	0.428276
O14	O	1.475636	-0.384300	0.431121
O15	O	1.834410	-0.518038	0.308286
O16	O	1.836595	-0.246870	0.549684
O17	O	1.670749	-0.365833	0.565615
C18	C	1.438451	-0.334187	0.374876
C19	C	1.296950	-0.341476	0.383082
C20	C	1.749080	-0.552758	0.370373
C21	C	1.740504	-0.653140	0.376606
C22	C	1.896102	-0.839614	0.263351
C23	C	1.888048	-0.933931	0.269204
C24	C	1.716338	-0.936094	0.394159
C25	C	1.724392	-0.841777	0.388307
C26	C	1.814278	-0.793540	0.322901
C27	C	1.822337	-0.699220	0.317053
C28	C	1.650622	-0.701385	0.442004
C29	C	1.642568	-0.795703	0.447857
C30	C	2.101249	-0.300144	0.336544
C31	C	2.242747	-0.292876	0.328361
C32	C	1.751184	-0.304608	0.590422
C33	C	1.743588	-0.299247	0.690812
C34	C	1.789329	-0.082555	0.341108
C35	C	1.798171	0.017825	0.334607
C36	C	1.787329	-0.329856	0.120155
C37	C	1.795052	-0.335249	0.019760
C38	C	1.656476	-0.238064	0.833497
C39	C	1.663607	-0.243100	0.739172
C40	C	1.816440	-0.350362	0.736783
C41	C	1.809308	-0.345326	0.831108
C42	C	1.729325	-0.289174	0.879462
C43	C	1.722200	-0.284133	0.973788
C44	C	1.875025	-0.391400	0.971398
C45	C	1.882157	-0.396436	0.877073
H46	H	1.304594	-0.245691	0.275233
C47	C	1.543690	-0.848775	0.519793
N48	N	1.469212	-0.888748	0.573976
H49	H	1.235096	-0.388658	0.436219
H50	H	1.643157	-0.975385	0.447409
H51	H	1.895528	-0.659947	0.263798
C52	C	1.583463	-0.186878	0.688615
N53	N	1.523092	-0.144531	0.650535
C54	C	1.904411	-0.412127	0.683578
N55	N	1.970674	-0.458648	0.643503
H56	H	1.947275	-0.442157	0.837693
C57	C	1.994982	-0.786551	0.191410
N58	N	2.069459	-0.746585	0.137221
H59	H	1.954675	-0.971442	0.220710
C60	C	1.560610	-0.650696	0.507514
N61	N	1.492817	-0.612516	0.556856
C62	C	1.634214	-0.222368	1.026976
N63	N	1.567935	-0.175848	1.067035
C64	C	1.568500	-0.176293	0.886688
N65	N	1.502234	-0.129766	0.926750
C66	C	1.955164	-0.447626	1.021967
N67	N	2.015524	-0.489973	1.060056
