data_functionalizedCrystal
_audit_creation_method	'MofGen! by Chris Wilmer'
_symmetry_space_group_name_H-M	'P1'
_symmetry_Int_Tables_number	1
_symmetry_cell_setting	triclinic
loop_
_symmetry_equiv_pos_as_xyz
  x,y,z
_cell_length_a	6.817900
_cell_length_b	11.102188
_cell_length_c	9.582906
_cell_angle_alpha	90.974131
_cell_angle_beta	111.207526
_cell_angle_gamma	108.603875
loop_
_atom_site_label
_atom_site_type_symbol
_atom_site_fract_x
_atom_site_fract_y
_atom_site_fract_z
V1	V	-4.142616	-0.175309	-0.466603
O2	O	-4.101066	0.008969	-0.457721
O3	O	-4.119171	-0.348133	-0.463412
O4	O	-4.132958	-0.172373	-0.670104
O5	O	-4.087183	-0.168007	-0.249597
V6	V	-4.617990	-0.153295	-0.440647
O7	O	-4.421749	-0.223598	-0.523539
O8	O	-4.789054	-0.105007	-0.383711
O9	O	-4.418228	0.019528	-0.443838
O10	O	-4.776936	-0.337574	-0.449530
O11	O	-4.790819	-0.160598	-0.657653
O12	O	-4.404441	-0.156231	-0.237146
C13	C	-3.968989	-0.390271	-0.456051
C14	C	-4.031365	-0.531555	-0.454798
C15	C	-3.991368	-0.579937	-0.317164
C16	C	-4.050001	-0.712689	-0.315993
C17	C	-4.188621	-0.748668	-0.590103
C18	C	-4.130003	-0.615918	-0.591273
C19	C	-4.165436	-0.876650	-0.154539
C20	C	-4.125402	-0.925034	-0.016896
C21	C	-3.926577	-0.861915	0.108527
C22	C	-3.767733	-0.750411	0.096315
C23	C	-3.807753	-0.702034	-0.041329
C24	C	-4.006623	-0.765152	-0.166749
C25	C	-4.014545	-0.451953	-0.752716
C26	C	-4.054550	-0.403573	-0.890362
C27	C	-4.253368	-0.466691	-1.015797
C28	C	-4.412190	-0.578199	-1.003599
C29	C	-4.372185	-0.626580	-0.865953
C30	C	-4.173366	-0.563453	-0.740517
C31	C	-3.986575	-0.166071	-0.719706
C32	C	-4.060128	-0.164814	-0.886070
C33	C	-4.231752	0.061660	-0.451195
C34	C	-4.148617	0.202942	-0.452457
C35	C	-4.214165	-0.162538	-0.187536
C36	C	-4.119850	-0.163788	-0.021171
H37	H	-4.501517	-0.717380	-0.856030
H38	H	-3.893986	-0.901319	0.220599
N39	N	-4.626653	-0.646298	-1.138873
H40	H	-4.589476	-0.674204	-1.224189
H41	H	-4.712894	-0.585976	-1.172693
H42	H	-3.925203	-0.312783	-0.900292
H43	H	-4.285917	-0.427294	-1.127878
N44	N	-3.800139	-0.383877	-0.617386
H45	H	-3.667121	-0.381366	-0.642217
H46	H	-3.799177	-0.431507	-0.528419
N47	N	-3.884959	-0.488942	-0.169974
H48	H	-3.868515	-0.539741	-0.082606
H49	H	-3.983075	-0.437461	-0.169551
H50	H	-3.605825	-0.699035	0.198447
H51	H	-4.254751	-1.015823	-0.006963
N52	N	-4.379934	-0.944723	-0.289794
H53	H	-4.389426	-1.035406	-0.316285
H54	H	-4.381098	-0.897063	-0.378760
N55	N	-3.636455	-0.581786	-0.054521
H56	H	-3.504410	-0.549142	0.045819
H57	H	-3.707015	-0.513816	-0.083469
H58	H	-4.268934	-0.817372	-0.701215
