data_functionalizedCrystal
_audit_creation_method	'MofGen! by Chris Wilmer'
_symmetry_space_group_name_H-M	'P1'
_symmetry_Int_Tables_number	1
_symmetry_cell_setting	triclinic
loop_
_symmetry_equiv_pos_as_xyz
  x,y,z
_cell_length_a	16.974800
_cell_length_b	16.974813
_cell_length_c	18.366186
_cell_angle_alpha	86.339196
_cell_angle_beta	93.647767
_cell_angle_gamma	83.627081
loop_
_atom_site_label
_atom_site_type_symbol
_atom_site_fract_x
_atom_site_fract_y
_atom_site_fract_z
O1	O	1.049039	0.100721	-0.004644
O2	O	0.818820	0.113570	-0.018974
O3	O	0.940347	-0.007965	-0.004644
O4	O	0.927512	0.222257	-0.018973
O5	O	0.940326	-0.007971	0.116454
O6	O	0.818799	0.113564	0.102125
O7	O	1.049019	0.100715	0.116454
Zn8	Zn	0.933906	0.107139	0.128517
Zn9	Zn	0.933933	0.107147	-0.031036
O10	O	0.927492	0.222251	0.102125
C11	C	0.789352	0.113081	0.039868
C12	C	0.701577	0.111621	0.034779
C13	C	0.660334	0.110930	0.098401
C14	C	0.577862	0.109546	0.093622
C15	C	0.536634	0.108859	0.025221
C16	C	0.577883	0.109547	-0.038406
C17	C	0.660354	0.110926	-0.033626
C18	C	0.289982	0.104732	0.003848
C19	C	0.207505	0.103355	-0.000927
C20	C	0.207490	0.103353	0.131102
C21	C	0.289962	0.104736	0.135875
C22	C	0.331205	0.105420	0.072249
N23	N	0.452334	0.107447	0.020335
N24	N	0.415504	0.106827	0.077136
C25	C	0.939848	-0.037426	0.057611
C26	C	0.938383	-0.125201	0.062695
C27	C	0.937708	-0.166431	-0.000927
C28	C	0.936326	-0.248904	0.003852
C29	C	0.935626	-0.290148	0.072253
C30	C	0.936299	-0.248912	0.135880
C31	C	0.937674	-0.166439	0.131100
C32	C	0.931504	-0.536805	0.093626
C33	C	0.930131	-0.619284	0.098401
C34	C	0.930157	-0.619270	-0.033627
C35	C	0.931538	-0.536796	-0.038401
C36	C	0.932206	-0.495567	0.025225
N37	N	0.934216	-0.374449	0.077140
N38	N	0.933610	-0.411266	0.020338
C39	C	1.078487	0.101205	0.057612
C40	C	1.166262	0.102665	0.062695
C41	C	0.927991	0.251712	0.039868
C42	C	0.929455	0.339487	0.034779
N43	N	0.933893	0.107133	0.237407
N44	N	0.933952	0.107146	-0.139926
C45	C	0.987723	0.053344	0.281852
C46	C	0.987728	0.053340	0.358081
C47	C	0.933911	0.107140	0.389861
C48	C	0.880071	0.160933	0.345406
C49	C	0.880062	0.160930	0.269179
C50	C	0.923473	0.179164	0.505760
C51	C	0.923488	0.179168	0.581985
C52	C	0.933933	0.107150	0.624969
C53	C	0.944381	0.035123	0.591719
C54	C	0.944372	0.035120	0.515492
C55	C	0.933914	0.107149	0.472515
C56	C	0.987771	0.053352	0.752070
C57	C	0.987771	0.053347	0.828299
C58	C	0.880117	0.160947	0.815623
C59	C	0.880114	0.160945	0.739395
C60	C	0.933945	0.107148	0.707623
H61	H	0.693933	0.111490	-0.085434
O62	O	0.935594	-0.288845	-0.058014
C63	C	0.867498	-0.259673	-0.103925
H64	H	0.845652	-0.196790	-0.090142
H65	H	0.818797	-0.299779	-0.095315
C66	C	0.915241	-0.335811	-0.201251
C67	C	0.888413	-0.258574	-0.184328
H68	H	0.928140	-0.335136	-0.250848
H69	H	0.961117	-0.355467	-0.170320
H70	H	0.874652	-0.369224	-0.194071
H71	H	0.929005	-0.225165	-0.191499
H72	H	0.842544	-0.238912	-0.215262
H73	H	0.938283	-0.132857	-0.056627
O74	O	0.913476	0.249112	0.614326
C75	C	0.980575	0.255458	0.661998
H76	H	1.033849	0.216021	0.644481
H77	H	0.968078	0.235644	0.720204
C78	C	0.933356	0.390869	0.680623
C79	C	0.998790	0.342436	0.659105
H80	H	0.944591	0.444521	0.678842
H81	H	0.888148	0.386593	0.648508
H82	H	0.922949	0.374347	0.729126
H83	H	1.009190	0.358952	0.610600
H84	H	1.044000	0.346717	0.691212
O85	O	0.932030	-0.496807	-0.104905
C86	C	0.863241	-0.508025	-0.148397
H87	H	0.815055	-0.524353	-0.111592
H88	H	0.877911	-0.557990	-0.185698
C89	C	0.892556	-0.410675	-0.240444
C90	C	0.833371	-0.430722	-0.195238
H91	H	0.874132	-0.362993	-0.269340
H92	H	0.938902	-0.403119	-0.211144
H93	H	0.904776	-0.452319	-0.271521
H94	H	0.821159	-0.389084	-0.164156
H95	H	0.787021	-0.438270	-0.224534
H96	H	0.929611	-0.652847	-0.085428
O97	O	1.039790	0.000838	0.251022
C98	C	0.997300	-0.047914	0.207490
H99	H	0.935500	-0.016195	0.190462
H100	H	0.991742	-0.106182	0.240177
C101	C	1.117780	-0.104262	0.159700
C102	C	1.041878	-0.065301	0.138780
H103	H	1.145279	-0.114991	0.117318
H104	H	1.146407	-0.071420	0.189030
H105	H	1.113138	-0.152814	0.186940
H106	H	1.046521	-0.016746	0.111549
H107	H	1.013253	-0.098136	0.109443
H108	H	0.323525	0.105292	0.191575
O109	O	0.700262	0.111560	0.164908
C110	C	0.646168	0.110671	0.220035
H111	H	0.590685	0.084670	0.198943
H112	H	0.629026	0.173927	0.235595
C113	C	0.753329	0.091309	0.313632
C114	C	0.685186	0.059368	0.287728
H115	H	0.777398	0.059666	0.355390
H116	H	0.789774	0.091911	0.276492
H117	H	0.739034	0.144021	0.326593
H118	H	0.699484	0.006661	0.274759
H119	H	0.648745	0.058756	0.324868
H120	H	1.031564	0.009537	0.394274
O121	O	0.929413	-0.659222	0.164906
C122	C	0.930317	-0.605151	0.220042
H123	H	0.906279	-0.543058	0.195615
H124	H	0.993861	-0.604746	0.244067
C125	C	0.907461	-0.706776	0.310811
C126	C	0.877931	-0.630512	0.280811
H127	H	0.875151	-0.722421	0.348299
H128	H	0.906855	-0.743205	0.273666
H129	H	0.960414	-0.706428	0.330827
H130	H	0.824983	-0.630863	0.260789
H131	H	0.878527	-0.594083	0.317954
H132	H	0.932064	-0.503248	0.145436
H133	H	0.173901	0.102794	0.182903
O134	O	1.039976	0.001005	0.721210
C135	C	1.027254	-0.077279	0.743688
H136	H	0.963964	-0.077661	0.760963
H137	H	1.071129	-0.100544	0.791863
C138	C	1.117320	-0.130382	0.658614
C139	C	1.039583	-0.130851	0.679825
H140	H	1.124928	-0.163430	0.619222
H141	H	1.125893	-0.077641	0.643471
H142	H	1.153873	-0.149768	0.698765
H143	H	1.003032	-0.111457	0.639678
H144	H	1.031004	-0.183591	0.694960
O145	O	0.938218	-0.126455	0.192944
C146	C	0.869414	-0.137564	0.229686
H147	H	0.845608	-0.194438	0.212866
H148	H	0.822258	-0.084828	0.214635
C149	C	0.919353	-0.074259	0.333531
C150	C	0.890118	-0.144115	0.312877
H151	H	0.932122	-0.078296	0.384847
H152	H	0.965706	-0.066771	0.308777
H153	H	0.880051	-0.030318	0.320983
H154	H	0.929423	-0.188052	0.325417
H155	H	0.843771	-0.151611	0.337636
H156	H	0.173939	0.102798	-0.056630
H157	H	0.935723	-0.282499	0.191573
O158	O	0.954488	-0.034912	0.483308
C159	C	0.963731	-0.098481	0.537586
H160	H	0.935920	-0.078111	0.589090
H161	H	1.029685	-0.118748	0.550757
C162	C	0.956461	-0.193078	0.446252
C163	C	0.922297	-0.168061	0.509508
H164	H	0.930906	-0.236000	0.428932
H165	H	0.950237	-0.150251	0.409684
H166	H	1.011422	-0.209961	0.457237
H167	H	0.867340	-0.151169	0.498520
H168	H	0.928511	-0.210887	0.546074
O169	O	0.330107	0.105512	-0.057914
C170	C	0.368763	0.174765	-0.063681
H171	H	0.378107	0.197786	-0.007173
H172	H	0.330653	0.222167	-0.101292
C173	C	0.438368	0.127010	-0.164911
C174	C	0.449851	0.155281	-0.095506
H175	H	0.488386	0.114994	-0.184545
H176	H	0.412323	0.080354	-0.161028
H177	H	0.406607	0.166516	-0.196245
H178	H	0.481603	0.115772	-0.064172
H179	H	0.475904	0.201930	-0.099385
O180	O	1.039956	0.001014	0.871506
C181	C	0.997679	-0.047738	0.916006
H182	H	0.935325	-0.049045	0.889450
H183	H	0.993510	-0.022990	0.972071
C184	C	1.117942	-0.131051	0.957368
C185	C	1.041361	-0.132661	0.924749
H186	H	1.144888	-0.183435	0.962765
H187	H	1.146426	-0.098204	0.927390
H188	H	1.114457	-0.110424	1.004086
H189	H	1.044846	-0.153278	0.878029
H190	H	1.012878	-0.165513	0.954720
H191	H	0.952886	-0.023521	0.626715
O192	O	0.827913	0.213177	0.846604
C193	C	0.839446	0.201631	0.923415
H194	H	0.902341	0.172046	0.939267
H195	H	0.794742	0.161995	0.944760
C196	C	0.750220	0.318862	0.937602
C197	C	0.827472	0.282531	0.957072
H198	H	0.742831	0.368763	0.958365
H199	H	0.742448	0.326640	0.885853
H200	H	0.712976	0.285824	0.955391
H201	H	0.864714	0.315564	0.939276
H202	H	0.835250	0.274760	1.008819
O203	O	0.827800	0.213279	0.696324
C204	C	0.780285	0.260752	0.740716
H205	H	0.812705	0.261629	0.796905
H206	H	0.721580	0.235110	0.746890
C207	C	0.724070	0.344983	0.635954
C208	C	0.763892	0.346065	0.704964
H209	H	0.713955	0.397607	0.613900
H210	H	0.756079	0.312998	0.606045
H211	H	0.675154	0.323611	0.641109
H212	H	0.812812	0.367427	0.699808
H213	H	0.731891	0.378055	0.734871
O214	O	0.913360	0.249201	0.464119
C215	C	0.904135	0.312770	0.509809
H216	H	0.931953	0.292396	0.566984
H217	H	0.838184	0.333045	0.512841
C218	C	0.911401	0.407365	0.408163
C219	C	0.945574	0.382343	0.478385
H220	H	0.936959	0.450283	0.388779
H221	H	0.917613	0.364538	0.377380
H222	H	0.856443	0.424255	0.410699
H223	H	1.000529	0.365444	0.475847
H224	H	0.939372	0.425169	0.509167
O225	O	0.827761	0.213086	0.376359
C226	C	0.779027	0.170767	0.420079
H227	H	0.810591	0.108877	0.437005
H228	H	0.720594	0.165424	0.387589
C229	C	0.723320	0.291375	0.468069
C230	C	0.762091	0.215363	0.488864
H231	H	0.712870	0.318885	0.510497
H232	H	0.756151	0.319887	0.438612
H233	H	0.674631	0.286912	0.440994
H234	H	0.810784	0.219827	0.515930
H235	H	0.729268	0.186852	0.518327
H236	H	0.836226	0.204732	0.232991
H237	H	0.544287	0.108970	0.145431
H238	H	0.544309	0.108982	-0.094099
