data_functionalizedCrystal
_audit_creation_method	'MofGen! by Chris Wilmer'
_symmetry_space_group_name_H-M	'P1'
_symmetry_Int_Tables_number	1
_symmetry_cell_setting	triclinic
loop_
_symmetry_equiv_pos_as_xyz
  x,y,z
_cell_length_a	13.635800
_cell_length_b	11.102244
_cell_length_c	11.102300
_cell_angle_alpha	88.053517
_cell_angle_beta	108.605850
_cell_angle_gamma	71.395130
loop_
_atom_site_label
_atom_site_type_symbol
_atom_site_fract_x
_atom_site_fract_y
_atom_site_fract_z
V1	V	2.055762	-0.175838	0.396253
O2	O	2.035282	0.008450	0.388713
O3	O	2.044147	-0.348658	0.393540
O4	O	2.044153	-0.173133	0.569074
O5	O	2.035276	-0.168290	0.211964
V6	V	2.294314	-0.153795	0.374211
O7	O	2.193432	-0.224191	0.444604
O8	O	2.381742	-0.105442	0.325860
O9	O	2.194325	0.019024	0.376924
O10	O	2.373493	-0.338083	0.381751
O11	O	2.373498	-0.161344	0.558500
O12	O	2.194320	-0.156500	0.201390
V13	V	2.555762	-0.175838	0.396253
O14	O	2.535282	0.008450	0.388713
O15	O	2.544147	-0.348658	0.393540
O16	O	2.544153	-0.173133	0.569074
O17	O	2.535276	-0.168290	0.211964
V18	V	2.794314	-0.153795	0.374211
O19	O	2.693432	-0.224191	0.444604
O20	O	2.881742	-0.105442	0.325860
O21	O	2.694325	0.019024	0.376924
O22	O	2.873493	-0.338083	0.381751
O23	O	2.873498	-0.161344	0.558500
O24	O	2.694320	-0.156500	0.201390
C25	C	1.969302	-0.390787	0.387288
C26	C	2.000533	-0.532070	0.386221
C27	C	1.985120	-0.580305	0.269341
C28	C	2.014472	-0.713057	0.268354
C29	C	2.074647	-0.749329	0.501137
C30	C	2.045302	-0.616579	0.502124
C31	C	1.950374	-0.559364	0.134945
C32	C	1.979726	-0.692116	0.133957
C33	C	1.969308	-0.166887	0.611198
C34	C	2.000541	-0.165819	0.752480
C35	C	2.100842	0.061148	0.383173
C36	C	2.059230	0.202429	0.384248
C37	C	2.100835	-0.162751	0.159260
C38	C	2.059221	-0.163812	0.017976
C39	C	2.469308	-0.166887	0.611198
C40	C	2.500541	-0.165819	0.752480
C41	C	2.469302	-0.390787	0.387288
C42	C	2.500533	-0.532070	0.386221
C43	C	2.107220	-0.171664	0.825329
C44	C	2.136559	-0.170656	0.958077
C45	C	1.952532	-0.157962	0.945117
C46	C	1.923192	-0.158961	0.812370
C47	C	2.600842	0.061148	0.383173
C48	C	2.559230	0.202429	0.384248
C49	C	2.600835	-0.162751	0.159260
C50	C	2.559221	-0.163812	0.017976
C51	C	2.607220	-0.171664	0.825329
C52	C	2.636559	-0.170656	0.958077
C53	C	2.452532	-0.157962	0.945117
C54	C	2.423192	-0.158961	0.812370
C55	C	2.607209	-0.604918	0.392061
C56	C	2.636551	-0.737669	0.391069
C57	C	2.452528	-0.724710	0.378392
C58	C	2.423190	-0.591964	0.379393
H59	H	2.057863	-0.577314	0.597299
H60	H	2.170204	-0.177246	0.776571
C61	C	2.415800	-0.150811	1.142859
C62	C	2.367519	-0.150443	1.010956
H63	H	2.363316	-0.146180	1.183501
H64	H	2.439161	-0.078801	1.155664
H65	H	2.477659	-0.227715	1.178868
H66	H	2.305665	-0.073534	0.974944
H67	H	2.344142	-0.222460	0.998141
H68	H	1.857615	-0.506562	0.088529
C69	C	2.244224	-0.592475	0.366748
C70	C	2.305920	-0.511877	0.372969
H71	H	2.171830	-0.543030	0.362777
H72	H	2.278737	-0.656127	0.441072
H73	H	2.240251	-0.632913	0.292159
H74	H	2.309900	-0.471447	0.447563
H75	H	2.271399	-0.448202	0.298637
H76	H	2.050927	-0.731917	0.096966
C77	C	1.785534	-0.609283	0.011930
C78	C	1.877124	-0.723205	0.057380
H79	H	1.722195	-0.628480	-0.035336
H80	H	1.798899	-0.553079	-0.042303
H81	H	1.773384	-0.569040	0.082611
H82	H	1.889278	-0.763443	-0.013302
H83	H	1.863757	-0.779429	0.111615
C84	C	1.915800	-0.150811	1.142859
C85	C	1.867519	-0.150443	1.010956
H86	H	1.863316	-0.146180	1.183501
H87	H	1.939161	-0.078801	1.155664
H88	H	1.977659	-0.227715	1.178868
H89	H	1.805665	-0.073534	0.974944
H90	H	1.844142	-0.222460	0.998141
C91	C	2.311847	-0.262563	0.672740
C92	C	2.305929	-0.152594	0.732317
H93	H	2.239458	-0.258639	0.623324
H94	H	2.346393	-0.336864	0.736421
H95	H	2.353690	-0.266749	0.618052
H96	H	2.264093	-0.148412	0.787013
H97	H	2.271368	-0.078272	0.668628
C98	C	2.146353	-0.968932	0.602987
C99	C	2.123848	-0.842226	0.628532
H100	H	2.176720	-1.026277	0.681639
H101	H	2.197658	-0.987369	0.559068
H102	H	2.079935	-0.979083	0.550946
H103	H	2.190268	-0.832072	0.680566
H104	H	2.072540	-0.823783	0.672471
C105	C	2.792056	-0.631066	0.404496
C106	C	2.692225	-0.539083	0.399576
H107	H	2.844543	-0.590423	0.409144
H108	H	2.780424	-0.670962	0.329391
H109	H	2.818912	-0.694183	0.478304
H110	H	2.665364	-0.475970	0.325761
H111	H	2.703856	-0.499166	0.474688
C112	C	2.783414	-0.292543	0.812625
C113	C	2.692238	-0.179189	0.759497
H114	H	2.835904	-0.297179	0.771989
H115	H	2.760042	-0.364543	0.799806
H116	H	2.816142	-0.292768	0.902111
H117	H	2.659505	-0.178968	0.670012
H118	H	2.715611	-0.107169	0.772305
H119	H	1.999704	-0.520269	0.088473
H120	H	1.836315	-0.154191	0.753052
C121	C	2.747913	-0.877346	0.287522
C122	C	2.753808	-0.817738	0.397470
H123	H	2.820306	-0.926781	0.291479
H124	H	2.713392	-0.813681	0.213208
H125	H	2.706057	-0.932020	0.283329
H126	H	2.795658	-0.763057	0.401658
H127	H	2.788345	-0.881411	0.471804
H128	H	2.389562	-0.773492	0.372830
H129	H	2.223425	-0.175415	1.017385
H130	H	2.723425	-0.175415	1.017385
