data_functionalizedCrystal
_audit_creation_method	'MofGen! by Chris Wilmer'
_symmetry_space_group_name_H-M	'P1'
_symmetry_Int_Tables_number	1
_symmetry_cell_setting	triclinic
loop_
_symmetry_equiv_pos_as_xyz
  x,y,z
_cell_length_a	12.759401
_cell_length_b	12.759400
_cell_length_c	12.759387
_cell_angle_alpha	89.938240
_cell_angle_beta	89.959880
_cell_angle_gamma	90.016209
loop_
_atom_site_label
_atom_site_type_symbol
_atom_site_fract_x
_atom_site_fract_y
_atom_site_fract_z
Zn1	Zn	1.606465	-0.417848	-0.594021
Zn2	Zn	2.106465	0.082152	-0.094021
Zn3	Zn	1.606298	-0.593660	-0.418341
Zn4	Zn	2.106298	-0.093660	0.081659
Zn5	Zn	1.430705	-0.418000	-0.418356
Zn6	Zn	1.930705	0.082000	0.081644
Zn7	Zn	1.430756	-0.593491	-0.593978
Zn8	Zn	1.930756	-0.093491	-0.093978
O9	O	1.518556	-0.505750	-0.506174
O10	O	2.018556	-0.005750	-0.006174
O11	O	1.753464	-0.441178	-0.570728
O12	O	2.253464	0.058822	-0.070728
O13	O	1.582914	-0.570493	-0.271321
O14	O	2.082914	-0.070493	0.228679
O15	O	1.454069	-0.270959	-0.441682
O16	O	1.954069	0.229041	0.058318
O17	O	1.753341	-0.570345	-0.441657
O18	O	2.253341	-0.070345	0.058343
O19	O	1.583199	-0.270848	-0.570743
O20	O	2.083199	0.229152	-0.070743
O21	O	1.453907	-0.441436	-0.271333
O22	O	1.953907	0.058564	0.228667
O23	O	1.283691	-0.441272	-0.441641
O24	O	1.783691	0.058728	0.058359
O25	O	1.454156	-0.570057	-0.741005
O26	O	1.954156	-0.070057	-0.241005
O27	O	1.283728	-0.570204	-0.570670
O28	O	1.783728	-0.070204	-0.070670
O29	O	1.583249	-0.441013	-0.741036
O30	O	2.083249	0.058987	-0.241036
O31	O	1.582963	-0.740659	-0.441615
O32	O	2.082963	-0.240659	0.058385
O33	O	1.453993	-0.740534	-0.570655
O34	O	1.953993	-0.240534	-0.070655
C35	C	1.245589	-0.505737	-0.506153
C36	C	1.745589	-0.005737	-0.006153
C37	C	1.128812	-0.505757	-0.506169
C38	C	1.628812	-0.005757	-0.006169
C39	C	1.073997	-0.572994	-0.573249
C40	C	1.573997	-0.072994	-0.073249
C41	C	0.964273	-0.572998	-0.573270
C42	C	1.464273	-0.072998	-0.073270
C43	C	0.964189	-0.438525	-0.439122
C44	C	1.464189	0.061475	0.060878
C45	C	1.073911	-0.438516	-0.439107
C46	C	1.573911	0.061484	0.060893
C47	C	1.518494	-0.778717	-0.506152
C48	C	2.018494	-0.278717	-0.006152
C49	C	1.518563	-0.895494	-0.506178
C50	C	2.018563	-0.395494	-0.006178
C51	C	1.585792	-0.950386	-0.439061
C52	C	2.085792	-0.450386	0.060939
C53	C	1.585857	-1.060110	-0.439093
C54	C	2.085857	-0.560110	0.060907
C55	C	1.451454	-1.060040	-0.573362
C56	C	1.951454	-0.560040	-0.073362
C57	C	1.451396	-0.950318	-0.573334
C58	C	1.951396	-0.450318	-0.073334
C59	C	1.652960	-0.895561	-0.371904
C60	C	2.152960	-0.395561	0.128096
C61	C	1.720194	-0.950453	-0.304781
C62	C	2.220194	-0.450453	0.195219
C63	C	1.720258	-1.060177	-0.304813
C64	C	2.220258	-0.560177	0.195187
C65	C	1.653089	-1.115009	-0.371969
C66	C	2.153089	-0.615009	0.128031
C67	C	1.792589	-0.505763	-0.506195
C68	C	2.292589	-0.005763	-0.006195
C69	C	1.909366	-0.505769	-0.506205
C70	C	2.409366	-0.005769	-0.006205
C71	C	1.518727	-0.505499	-0.780208
C72	C	2.018727	-0.005499	-0.280208
C73	C	1.518799	-0.505393	-0.896984
C74	C	2.018799	-0.005393	-0.396984
C75	C	1.518647	-0.231716	-0.506219
C76	C	2.018647	0.268284	-0.006219
C77	C	1.518686	-0.114940	-0.506238
C78	C	2.018686	0.385060	-0.006238
C79	C	1.518447	-0.505923	-0.233206
C80	C	2.018447	-0.005923	0.266794
C81	C	1.518578	-0.505734	-0.116430
C82	C	2.018578	-0.005734	0.383570
C83	C	1.585466	-0.437807	0.047866
C84	C	2.085466	0.062193	0.547866
C85	C	1.585353	-0.437975	-0.061858
C86	C	2.085353	0.062025	0.438142
C87	C	1.451904	-0.573323	-0.061272
C88	C	1.951904	-0.073323	0.438728
C89	C	1.452012	-0.573149	0.048449
C90	C	1.952012	-0.073149	0.548449
H91	H	1.118542	-0.383757	-0.384483
H92	H	1.618542	0.116243	0.115517
Br93	Br	0.889673	-0.347274	-0.348114
Br94	Br	1.389673	0.152726	0.151886
Br95	Br	1.676102	-0.345851	0.121917
Br96	Br	2.176102	0.154149	0.621917
H97	H	1.775010	-1.104867	-0.250166
H98	H	2.275010	-0.604867	0.249834
Br99	Br	1.653200	-0.746651	-0.372180
Br100	Br	2.153200	-0.246651	0.127820
Br101	Br	1.360301	-1.134455	-0.664495
Br102	Br	1.860301	-0.634455	-0.164495
H103	H	0.919647	-0.627748	-0.627894
H104	H	1.419647	-0.127748	-0.127894
Br105	Br	1.652698	-1.263921	-0.371530
Br106	Br	2.152698	-0.763921	0.128470
Br107	Br	1.675841	-0.346255	-0.136701
Br108	Br	2.175841	0.153745	0.363299
Br109	Br	1.811360	-0.876042	-0.213660
Br110	Br	2.311360	-0.376042	0.286340
H111	H	1.396653	-0.905625	-0.627988
H112	H	1.896653	-0.405625	-0.127988
H113	H	1.397717	-0.628184	0.093354
H114	H	1.897717	-0.128184	0.593354
Br115	Br	1.361273	-0.665277	-0.135333
Br116	Br	1.861273	-0.165277	0.364667
H117	H	1.118695	-0.627743	-0.627857
H118	H	1.618695	-0.127743	-0.127857
