data_functionalizedCrystal
_audit_creation_method	'MofGen! by Chris Wilmer'
_symmetry_space_group_name_H-M	'P1'
_symmetry_Int_Tables_number	1
_symmetry_cell_setting	triclinic
loop_
_symmetry_equiv_pos_as_xyz
  x,y,z
_cell_length_a	21.295418
_cell_length_b	29.839131
_cell_length_c	21.295411
_cell_angle_alpha	90.028018
_cell_angle_beta	90.043738
_cell_angle_gamma	90.051038
loop_
_atom_site_label
_atom_site_type_symbol
_atom_site_fract_x
_atom_site_fract_y
_atom_site_fract_z
Zn1	Zn	0.962335	-0.178715	0.356206
Zn2	Zn	0.962229	-0.253830	0.250919
Zn3	Zn	0.857058	-0.178736	0.250916
Zn4	Zn	0.857019	-0.253839	0.356116
O5	O	0.909660	-0.216280	0.303539
O6	O	1.050410	-0.188667	0.342279
O7	O	0.948250	-0.243874	0.162829
O8	O	0.871084	-0.115866	0.264918
O9	O	1.050332	-0.243854	0.264925
O10	O	0.948431	-0.115851	0.342275
O11	O	0.870981	-0.188703	0.162827
O12	O	0.768964	-0.188711	0.264831
O13	O	0.871017	-0.243869	0.444217
O14	O	0.768935	-0.243889	0.342122
O15	O	0.948393	-0.188675	0.444283
O16	O	0.948212	-0.316699	0.264838
O17	O	0.870914	-0.316705	0.342125
C18	C	0.746109	-0.216304	0.303467
C19	C	0.676141	-0.216325	0.303451
C20	C	0.643275	-0.245094	0.343635
C21	C	0.577533	-0.245083	0.343664
C22	C	0.544658	-0.216307	0.303496
C23	C	0.577531	-0.187532	0.263308
C24	C	0.643272	-0.187541	0.263286
N25	N	0.441382	-0.212791	0.248439
N26	N	0.378931	-0.212785	0.248462
C27	C	0.346583	-0.216279	0.303563
N28	N	0.379046	-0.219787	0.358640
N29	N	0.441504	-0.219795	0.358616
C30	C	0.473373	-0.216294	0.303516
C31	C	0.242433	-0.245037	0.343782
C32	C	0.176689	-0.245023	0.343811
C33	C	0.176689	-0.187475	0.263450
C34	C	0.242431	-0.187487	0.263426
C35	C	0.275299	-0.216271	0.303591
C36	C	0.909564	-0.333003	0.303486
C37	C	0.909581	-0.382937	0.303484
C38	C	0.949926	-0.692538	0.343876
C39	C	0.949994	-0.880211	0.343914
O40	O	0.984203	-0.904439	0.378217
N41	N	0.909767	-0.903722	0.303609
C42	C	0.869517	-0.880313	0.263295
O43	O	0.835299	-0.904617	0.229019
C44	C	0.869446	-0.692640	0.263261
C45	C	0.909680	-0.669131	0.303564
C46	C	0.990156	-0.669028	0.384176
C47	C	0.990141	-0.622113	0.384164
C48	C	0.949896	-0.598707	0.343851
C49	C	0.909665	-0.622216	0.303551
C50	C	0.829194	-0.669232	0.222950
C51	C	0.829179	-0.622311	0.222946
C52	C	0.869413	-0.598802	0.263249
C53	C	0.869405	-0.551894	0.263227
N54	N	0.909632	-0.528383	0.303531
C55	C	0.949877	-0.551789	0.343844
C56	C	0.869558	-0.978843	0.263315
C57	C	0.869577	-1.025761	0.263322
C58	C	0.950053	-1.025656	0.343942
C59	C	0.950037	-0.978737	0.343931
C60	C	0.909785	-0.955332	0.303620
C61	C	0.949843	-0.453263	0.343814
C62	C	0.949826	-0.406343	0.343797
C63	C	0.869348	-0.406453	0.263180
C64	C	0.869367	-0.453368	0.263195
C65	C	0.909616	-0.476772	0.303517
O66	O	0.835209	-0.527637	0.228947
O67	O	0.984081	-0.527476	0.378125
C68	C	0.949941	-0.739453	0.343888
C69	C	0.909711	-0.762962	0.303588
C70	C	0.869465	-0.739556	0.263276
C71	C	0.909729	-0.809880	0.303596
C72	C	0.949974	-0.833286	0.343908
C73	C	0.990201	-0.809775	0.384213
C74	C	0.990186	-0.762859	0.384201
C75	C	0.829238	-0.763068	0.222971
C76	C	0.829257	-0.809983	0.222986
C77	C	0.869503	-0.833389	0.263298
C78	C	1.073851	-0.216257	0.303612
C79	C	1.143819	-0.216247	0.303643
C80	C	0.909713	-0.216271	0.467729
C81	C	0.909735	-0.216267	0.537698
C82	C	0.909774	-0.099102	0.303606
C83	C	0.909822	-0.049167	0.303635
C84	C	0.909645	-0.216257	0.139988
C85	C	0.909744	-0.216135	0.070020
C86	C	0.950022	-0.187526	0.570600
C87	C	0.950022	-0.187507	0.636342
C88	C	0.909740	-0.216236	0.669180
C89	C	0.869444	-0.244978	0.636270
C90	C	0.869442	-0.244994	0.570529
N91	N	0.904879	-0.255537	0.772388
N92	N	0.904885	-0.255521	0.834839
C93	C	0.909744	-0.216190	0.867255
N94	N	0.914609	-0.176875	0.834860
N95	N	0.914606	-0.176891	0.772403
C96	C	0.909738	-0.216222	0.740466
C97	C	0.950033	-0.187426	0.971443
C98	C	0.950027	-0.187406	1.037186
C99	C	0.869453	-0.244882	1.037113
C100	C	0.869455	-0.244898	0.971371
C101	C	0.909748	-0.216171	0.938539
H102	H	0.269190	-0.164062	0.230700
H103	H	0.982592	-0.387204	0.376616
H104	H	0.982614	-0.472313	0.376653
O105	O	0.830380	-0.476227	0.223972
C106	C	0.821963	-0.529264	0.139010
C107	C	0.866193	-0.503403	0.183376
H108	H	0.850900	-0.551250	0.106186
H109	H	0.793211	-0.504492	0.110148
H110	H	0.789024	-0.551220	0.167887
H111	H	0.899170	-0.481446	0.154548
H112	H	0.894901	-0.528199	0.212240
H113	H	0.836583	-0.387388	0.230356
O114	O	0.830258	-0.272756	0.939377
C115	C	0.745289	-0.278830	0.865057
C116	C	0.789634	-0.247230	0.901263
H117	H	0.712443	-0.258206	0.834223
H118	H	0.716451	-0.299354	0.899788
H119	H	0.774181	-0.302332	0.834323
H120	H	0.760791	-0.223701	0.931998
H121	H	0.818475	-0.226737	0.866498
O122	O	0.144860	-0.159479	0.224410
C123	C	0.151797	-0.102420	0.144677
C124	C	0.187925	-0.134097	0.188865
H125	H	0.186600	-0.081897	0.115917
H126	H	0.121105	-0.078925	0.173623
H127	H	0.120933	-0.123014	0.111743
H128	H	0.218824	-0.113540	0.221808
H129	H	0.218578	-0.157594	0.159880
O130	O	0.675270	-0.272987	0.382689
C131	C	0.749539	-0.279125	0.467670
C132	C	0.713356	-0.247489	0.423469
H133	H	0.780330	-0.258523	0.500661
H134	H	0.780295	-0.302584	0.438735
H135	H	0.714738	-0.299694	0.496368
H136	H	0.748112	-0.226891	0.394762
H137	H	0.682590	-0.224059	0.452441
H138	H	0.550769	-0.268510	0.376389
H139	H	0.982831	-0.164134	0.543872
O140	O	0.790137	-0.832865	0.183921
C141	C	0.705128	-0.885876	0.175372
C142	C	0.749406	-0.860001	0.219675
H143	H	0.672177	-0.907814	0.204262
H144	H	0.734006	-0.907868	0.142502
H145	H	0.676392	-0.861073	0.146550
H146	H	0.778152	-0.884772	0.248538
H147	H	0.720492	-0.838003	0.252503
H148	H	0.550760	-0.164102	0.230604
O149	O	1.029242	-0.599349	0.423377
C150	C	1.109089	-0.604214	0.503316
C151	C	1.064828	-0.630046	0.458945
H152	H	1.137881	-0.629021	0.532075
H153	H	1.080196	-0.582270	0.536235
H154	H	1.141988	-0.582222	0.474447
H155	H	1.031920	-0.652062	0.487763
H156	H	1.093760	-0.651961	0.426024
O157	O	0.790057	-0.740385	0.183837
C158	C	0.682990	-0.726119	0.153151
C159	C	0.727291	-0.751840	0.197507
H160	H	0.632234	-0.735365	0.164196
H161	H	0.694027	-0.735374	0.102402
H162	H	0.689915	-0.688549	0.160046
H163	H	0.720390	-0.789417	0.190668
H164	H	0.716243	-0.742549	0.248240
O165	O	0.989220	-0.159574	0.668215
C166	C	1.069120	-0.102556	0.661355
C167	C	1.024770	-0.134173	0.625184
H168	H	1.097865	-0.082005	0.626579
H169	H	1.102055	-0.123153	0.692134
H170	H	1.040236	-0.079081	0.692136
H171	H	1.053604	-0.157655	0.594368
H172	H	0.991834	-0.113549	0.594444
H173	H	0.982833	-0.163999	1.063974
O174	O	0.675173	-0.159644	0.224154
C175	C	0.695173	-0.137710	0.117131
C176	C	0.659016	-0.169337	0.161376
H177	H	0.682114	-0.145529	0.066366
H178	H	0.747813	-0.142663	0.123958
H179	H	0.682325	-0.101497	0.128322
H180	H	0.671811	-0.205562	0.150213
H181	H	0.606385	-0.164345	0.154541
H182	H	1.022929	-0.688081	0.417007
O183	O	0.830406	-0.272935	0.668194
C184	C	0.821882	-0.333558	0.742423
C185	C	0.866169	-0.301932	0.706300
H186	H	0.850778	-0.357003	0.773250
H187	H	0.793098	-0.354136	0.707639
H188	H	0.788977	-0.312921	0.773156
H189	H	0.899112	-0.322534	0.675565
H190	H	0.894909	-0.281352	0.741118
O191	O	0.989080	-0.159499	0.939475
C192	C	0.997608	-0.098849	0.865290
C193	C	0.953317	-0.130453	0.901442
H194	H	0.968711	-0.075351	0.834543
H195	H	1.030492	-0.119456	0.834493
H196	H	1.026416	-0.078320	0.900112
H197	H	0.924468	-0.150989	0.866666
H198	H	0.920474	-0.109821	0.932249
H199	H	0.982823	-1.044721	0.376766
O200	O	0.830387	-0.272779	1.069101
C201	C	0.794664	-0.298215	1.170347
C202	C	0.838948	-0.266605	1.134196
H203	H	0.801560	-0.293228	1.222982
H204	H	0.805691	-0.334450	1.157465
H205	H	0.743917	-0.290346	1.157350
H206	H	0.889710	-0.274433	1.147173
H207	H	0.827867	-0.230379	1.147080
H208	H	0.982799	-0.959599	0.376749
O209	O	0.274392	-0.273041	0.382711
C210	C	0.348557	-0.333698	0.390991
C211	C	0.312395	-0.302020	0.346832
H212	H	0.379301	-0.357130	0.362001
H213	H	0.313799	-0.354289	0.419711
H214	H	0.379378	-0.313102	0.423963
H215	H	0.281574	-0.322582	0.313822
H216	H	0.347187	-0.281429	0.318156
O217	O	0.144859	-0.273014	0.382868
C218	C	0.151800	-0.330084	0.462586
C219	C	0.187926	-0.298413	0.418377
H220	H	0.186604	-0.350620	0.491316
H221	H	0.120970	-0.353567	0.433657
H222	H	0.121074	-0.309484	0.495546
H223	H	0.218687	-0.318977	0.385408
H224	H	0.218717	-0.274929	0.447344
O225	O	0.830439	-1.048526	0.224147
C226	C	0.750641	-1.043665	0.144159
C227	C	0.794926	-1.017831	0.188502
H228	H	0.721926	-1.018860	0.115319
H229	H	0.717675	-1.065633	0.172991
H230	H	0.779573	-1.065634	0.111309
H231	H	0.766045	-0.995838	0.221361
H232	H	0.827894	-0.995892	0.159631
H233	H	0.796431	-0.688365	0.190131
H234	H	1.022973	-0.828840	0.417034
O235	O	0.830391	-0.956091	0.224239
C236	C	0.745401	-0.903183	0.215635
C237	C	0.789706	-0.928926	0.259962
H238	H	0.712506	-0.881207	0.244498
H239	H	0.716613	-0.928032	0.186844
H240	H	0.774322	-0.881228	0.182737
H241	H	0.760835	-0.950881	0.292898
H242	H	0.818496	-0.904053	0.288709
O243	O	0.790056	-0.599645	0.183728
C244	C	0.710200	-0.604705	0.103803
C245	C	0.754483	-0.630429	0.148174
H246	H	0.681419	-0.629583	0.075055
H247	H	0.739073	-0.582743	0.070872
H248	H	0.677291	-0.582741	0.132670
H249	H	0.787401	-0.652417	0.119357
H250	H	0.725571	-0.652362	0.181106
H251	H	0.836632	-0.268397	0.543740
O252	O	1.029287	-0.740095	0.423414
C253	C	1.109134	-0.744960	0.503352
C254	C	1.064874	-0.770792	0.458982
H255	H	1.137927	-0.769767	0.532111
H256	H	1.080242	-0.723016	0.536272
H257	H	1.142033	-0.722968	0.474483
H258	H	1.031966	-0.792808	0.487800
H259	H	1.093805	-0.792707	0.426060
