data_functionalizedCrystal
_audit_creation_method	'MofGen! by Chris Wilmer'
_symmetry_space_group_name_H-M	'P1'
_symmetry_Int_Tables_number	1
_symmetry_cell_setting	triclinic
loop_
_symmetry_equiv_pos_as_xyz
  x,y,z
_cell_length_a	9.065218
_cell_length_b	19.188924
_cell_length_c	8.140239
_cell_angle_alpha	89.994423
_cell_angle_beta	89.997198
_cell_angle_gamma	84.078925
loop_
_atom_site_label
_atom_site_type_symbol
_atom_site_fract_x
_atom_site_fract_y
_atom_site_fract_z
O1	O	1.956841	0.102370	-0.136627
O2	O	1.527265	0.110767	-0.136630
O3	O	1.754455	0.005009	-0.136609
O4	O	1.729651	0.208128	-0.136648
O5	O	1.754442	0.005007	0.136618
O6	O	1.527252	0.110765	0.136597
O7	O	1.956829	0.102368	0.136601
Zn8	Zn	1.742038	0.106567	0.179980
Zn9	Zn	1.742055	0.106568	-0.180009
O10	O	1.729638	0.208127	0.136580
C11	C	1.472300	0.109959	-0.000016
C12	C	1.308541	0.107546	-0.000017
C13	C	1.753647	-0.021009	0.000006
C14	C	1.751241	-0.098533	0.000011
C15	C	1.750125	-0.134940	-0.148926
C16	C	1.747843	-0.207780	-0.148938
C17	C	1.746707	-0.244213	-0.000006
C18	C	1.747815	-0.207796	0.148950
C19	C	1.750082	-0.134957	0.148959
N20	N	1.827093	-0.363252	0.110842
N21	N	1.824943	-0.432447	0.110824
C22	C	1.739874	-0.463675	-0.000022
N23	N	1.657055	-0.423095	-0.110873
N24	N	1.659212	-0.353894	-0.110860
C25	C	1.744248	-0.323195	0.000002
C26	C	1.736281	-0.579064	-0.148982
C27	C	1.733990	-0.651905	-0.148988
C28	C	1.733978	-0.651920	0.148905
C29	C	1.736254	-0.579080	0.148907
C30	C	1.737413	-0.542656	-0.000041
C31	C	2.011793	0.103176	-0.000016
C32	C	2.175552	0.105589	-0.000027
C33	C	1.730446	0.234144	-0.000039
C34	C	1.732852	0.311668	-0.000054
N35	N	1.742038	0.106565	0.425662
N36	N	1.742067	0.106564	-0.425691
H37	H	1.746925	-0.237428	-0.270224
N38	N	1.746599	-0.247087	0.309587
H39	H	1.745004	-0.298756	0.286984
H40	H	1.838427	-0.239437	0.374620
N41	N	1.732737	-0.691204	0.309544
H42	H	1.731126	-0.742872	0.286942
H43	H	1.824560	-0.683560	0.374591
N44	N	1.751400	-0.095666	-0.309583
H45	H	1.843785	-0.070538	-0.316198
H46	H	1.750303	-0.129837	-0.403823
H47	H	1.737175	-0.549438	0.270187
H48	H	1.750985	-0.105314	0.270244
H49	H	1.737216	-0.549405	-0.270264
H50	H	1.733074	-0.681546	-0.270275
