data_functionalizedCrystal
_audit_creation_method	'MofGen! by Chris Wilmer'
_symmetry_space_group_name_H-M	'P1'
_symmetry_Int_Tables_number	1
_symmetry_cell_setting	triclinic
loop_
_symmetry_equiv_pos_as_xyz
  x,y,z
_cell_length_a	13.339070
_cell_length_b	10.540510
_cell_length_c	12.376492
_cell_angle_alpha	101.392962
_cell_angle_beta	75.589292
_cell_angle_gamma	100.071303
loop_
_atom_site_label
_atom_site_type_symbol
_atom_site_fract_x
_atom_site_fract_y
_atom_site_fract_z
O1	O	1.366117	0.620432	-0.094023
O2	O	1.070991	0.536695	-0.094020
O3	O	1.225303	0.396155	-0.094021
O4	O	1.211806	0.760972	-0.094022
O5	O	1.186737	0.431229	0.093991
O6	O	1.032426	0.571769	0.093993
O7	O	1.327551	0.655507	0.093989
Zn8	Zn	1.173865	0.619207	0.123842
Zn9	Zn	1.224677	0.572995	-0.123872
O10	O	1.173240	0.796046	0.093991
C11	C	1.013918	0.540087	-0.000013
C12	C	0.901315	0.497924	-0.000012
C13	C	1.205015	0.366045	-0.000017
C14	C	1.202007	0.224068	-0.000024
C15	C	0.538867	0.825758	-0.000030
C16	C	0.644663	0.865375	-0.000035
C17	C	0.708831	0.773516	-0.000029
C18	C	0.667193	0.642032	-0.000019
C19	C	0.561388	0.602409	-0.000023
C20	C	0.731352	0.550167	-0.000021
C21	C	0.689714	0.418683	-0.000011
C22	C	0.583918	0.379067	-0.000015
C23	C	0.519751	0.470927	-0.000021
C24	C	0.837157	0.589790	-0.000017
C25	C	0.859678	0.366441	-0.000010
C26	C	0.753882	0.326824	-0.000005
C27	C	1.309118	0.043232	0.000405
C28	C	1.312416	0.190842	-0.000024
C29	C	1.167510	0.140016	-0.107385
C30	C	1.165100	-0.007588	-0.107469
C31	C	1.118943	0.031706	0.106336
C32	C	1.123891	0.180096	0.107749
C33	C	1.384625	0.652114	-0.000020
C34	C	1.497230	0.694276	-0.000028
C35	C	1.193528	0.826156	-0.000016
C36	C	1.196538	0.968131	-0.000016
N37	N	1.139195	0.650747	0.292901
C38	C	1.339828	0.468215	0.647884
C39	C	1.364088	0.446137	0.529544
C40	C	1.307867	0.497288	0.470377
C41	C	1.227381	0.570519	0.529562
C42	C	1.203124	0.592607	0.647914
C43	C	1.171162	0.621680	0.470407
C44	C	1.090677	0.694912	0.529592
C45	C	1.066423	0.716996	0.647932
C46	C	1.122645	0.665846	0.707099
C47	C	1.195420	0.599592	0.352056
C48	C	1.058716	0.723985	0.352086
C49	C	1.034455	0.746062	0.470426
N50	N	1.259349	0.541453	0.707069
H51	H	0.794975	0.805780	-0.000035
H52	H	1.429619	0.386514	0.481360
O53	O	0.689570	1.007183	-0.000020
H54	H	0.627176	1.064407	-0.000007
H55	H	1.102890	0.683816	0.803461
H56	H	0.911925	0.291640	-0.000010
H57	H	0.433601	0.438676	-0.000017
O58	O	1.015362	0.210334	0.116351
H59	H	0.986751	0.158007	0.040470
O60	O	1.350107	0.268712	0.101898
H61	H	1.366140	0.201036	0.151939
O62	O	0.708971	0.185010	-0.000000
H63	H	0.624624	0.172898	-0.000010
O64	O	1.334024	0.473473	0.342739
H65	H	1.264509	0.420561	0.311559
H66	H	0.486615	0.900534	-0.000045
H67	H	1.336339	0.030302	0.077400
H68	H	1.223150	0.169346	-0.187284
H69	H	1.083517	-0.059638	-0.112333
H70	H	1.148724	0.237542	0.187174
H71	H	1.385601	0.426583	0.696065
O72	O	0.539009	0.237254	0.000000
H73	H	0.580443	0.177005	-0.076620
O74	O	1.386579	-0.013984	-0.101008
H75	H	1.345244	-0.095675	-0.151713
H76	H	1.260951	0.539967	0.303878
O77	O	0.882062	0.731596	-0.000023
H78	H	0.914009	0.769283	0.076606
O79	O	0.979660	0.796050	0.711775
H80	H	0.944648	0.827923	0.650755
O81	O	0.947661	0.825070	0.534260
H82	H	0.886940	0.764180	0.588201
O83	O	1.008940	-0.034888	0.107318
H84	H	1.009470	-0.112887	0.032471
O85	O	1.392266	0.229514	-0.102152
H86	H	1.428666	0.142733	-0.151432
O87	O	1.238502	-0.063112	-0.213469
H88	H	1.275339	0.015491	-0.264218
H89	H	1.087047	0.158956	-0.111377
O90	O	1.143055	0.011373	0.214136
H91	H	1.210622	-0.044280	0.193110
O92	O	0.998053	0.779142	0.288288
H93	H	1.028430	0.751462	0.196053
