data_functionalizedCrystal
_audit_creation_method	'MofGen! by Chris Wilmer'
_symmetry_space_group_name_H-M	'P1'
_symmetry_Int_Tables_number	1
_symmetry_cell_setting	triclinic
loop_
_symmetry_equiv_pos_as_xyz
  x,y,z
_cell_length_a	18.050591
_cell_length_b	13.033615
_cell_length_c	13.032268
_cell_angle_alpha	89.080892
_cell_angle_beta	97.156847
_cell_angle_gamma	97.180064
loop_
_atom_site_label
_atom_site_type_symbol
_atom_site_fract_x
_atom_site_fract_y
_atom_site_fract_z
Zn1	Zn	1.043996	-0.483379	-0.529669
Zn2	Zn	1.543996	0.016621	-0.029669
Zn3	Zn	1.047885	-0.633546	-0.335872
Zn4	Zn	1.547885	-0.133546	0.164128
Zn5	Zn	0.937298	-0.461575	-0.357695
Zn6	Zn	1.437298	0.038425	0.142305
Zn7	Zn	0.906270	-0.655290	-0.507778
Zn8	Zn	1.406270	-0.155290	-0.007778
O9	O	0.983862	-0.558447	-0.432754
O10	O	1.483862	-0.058447	0.067246
O11	O	1.148432	-0.503324	-0.503990
O12	O	1.648432	-0.003324	-0.003990
O13	O	1.047827	-0.592508	-0.194852
O14	O	1.547827	-0.092508	0.305148
O15	O	0.962809	-0.320551	-0.398803
O16	O	1.462809	0.179449	0.101197
O17	O	1.151289	-0.613651	-0.361608
O18	O	1.651289	-0.113651	0.138392
O19	O	1.041200	-0.336570	-0.525151
O20	O	1.541200	0.163430	-0.025151
O21	O	0.966579	-0.466162	-0.210886
O22	O	1.466579	0.033838	0.289114
O23	O	0.829262	-0.487247	-0.377576
O24	O	1.329262	0.012753	0.122424
O25	O	0.909928	-0.650711	-0.654597
O26	O	1.409928	-0.150711	-0.154597
O27	O	0.806466	-0.629568	-0.487841
O28	O	1.306466	-0.129568	0.012159
O29	O	1.011115	-0.524408	-0.670680
O30	O	1.511115	-0.024408	-0.170680
O31	O	1.017741	-0.780346	-0.340381
O32	O	1.517741	-0.280346	0.159619
O33	O	0.913698	-0.796322	-0.466680
O34	O	1.413698	-0.296322	0.033320
C35	C	0.790919	-0.558402	-0.432702
C36	C	1.290919	-0.058402	0.067298
C37	C	0.708372	-0.558410	-0.432701
C38	C	1.208372	-0.058410	0.067299
C39	C	1.005032	-0.290202	-0.466853
C40	C	1.505032	0.209798	0.033147
C41	C	1.014054	-0.175891	-0.481385
C42	C	1.514054	0.324109	0.018615
C43	C	0.962793	-0.825653	-0.398809
C44	C	1.462793	-0.325653	0.101191
C45	C	0.953843	-0.939969	-0.384322
C46	C	1.453843	-0.439969	0.115678
C47	C	0.521287	-0.480956	-0.372907
C48	C	1.021287	0.019044	0.127093
C49	C	0.467073	-0.571551	-0.335696
C50	C	0.967073	-0.071551	0.164304
C51	C	0.557235	-0.558447	-0.432743
C52	C	1.057235	-0.058447	0.067257
C53	C	0.464364	-0.467885	-0.469948
C54	C	0.964364	0.032115	0.030052
C55	C	0.411244	-0.558475	-0.432783
C56	C	0.911244	-0.058475	0.067217
C57	C	0.504110	-0.649085	-0.395477
C58	C	1.004110	-0.149085	0.104523
C59	C	0.501406	-0.545362	-0.529780
C60	C	1.001406	-0.045362	-0.029780
C61	C	0.447206	-0.636026	-0.492597
C62	C	0.947206	-0.136026	0.007403
C63	C	0.641337	-0.558430	-0.432718
C64	C	1.141337	-0.058430	0.067282
C65	C	0.327143	-0.558503	-0.432808
C66	C	0.827143	-0.058503	0.067192
C67	C	1.177559	-0.558494	-0.432806
C68	C	1.677559	-0.058494	0.067194
C69	C	1.260101	-0.558514	-0.432829
C70	C	1.760101	-0.058514	0.067171
C71	C	0.956627	-0.592417	-0.700997
C72	C	1.456627	-0.092417	-0.200997
C73	C	0.945020	-0.606893	-0.815307
C74	C	1.445020	-0.106893	-0.315307
C75	C	0.979289	-0.117002	-0.425348
C76	C	1.479289	0.382998	0.074652
C77	C	0.988612	0.001144	-0.440366
C78	C	1.488612	0.501144	0.059634
C79	C	0.989911	-0.550855	-0.874227
C80	C	1.489911	-0.050855	-0.374227
C81	C	0.977917	-0.565816	-0.992372
C82	C	1.477917	-0.065816	-0.492372
C83	C	1.011041	-0.524535	-0.165563
C84	C	1.511041	-0.024535	0.334437
C85	C	1.022813	-0.509770	-0.051291
C86	C	1.522813	-0.009770	0.448709
H87	H	0.451742	-0.582639	-0.253649
H88	H	0.951742	-0.082639	0.246351
N89	N	1.085494	-0.431549	-1.002267
N90	N	1.585494	0.068451	-0.502267
H91	H	1.113804	-0.396209	-1.057821
H92	H	1.613804	0.103791	-0.557821
H93	H	1.063517	-0.378342	-0.963736
H94	H	1.563517	0.121658	-0.463736
H95	H	0.917170	0.022987	-0.325231
H96	H	1.417170	0.522987	0.174769
N97	N	0.930722	-0.166064	-0.347068
N98	N	1.430722	0.333936	0.152932
H99	H	0.930948	-0.243509	-0.347434
H100	H	1.430948	0.256491	0.152566
H101	H	0.951211	-0.138039	-0.275988
H102	H	1.451211	0.361961	0.224012
N103	N	1.037177	0.050201	-0.518656
N104	N	1.537177	0.550201	-0.018656
H105	H	1.036952	0.127646	-0.518290
H106	H	1.536952	0.627646	-0.018290
H107	H	1.090374	0.033495	-0.500305
H108	H	1.590374	0.533495	-0.000305
N109	N	1.062616	-0.126830	-0.559671
N110	N	1.562616	0.373170	-0.059671
H111	H	1.062390	-0.049385	-0.559305
H112	H	1.562390	0.450615	-0.059305
H113	H	1.115812	-0.143536	-0.541319
H114	H	1.615812	0.356464	-0.041319
N115	N	0.882337	-0.685102	-0.864335
N116	N	1.382337	-0.185102	-0.364335
H117	H	0.882650	-0.684698	-0.941785
H118	H	1.382650	-0.184698	-0.441785
H119	H	0.889978	-0.756206	-0.836284
H120	H	1.389978	-0.256206	-0.336284
N121	N	0.521742	-0.530644	-0.638436
N122	N	1.021742	-0.030644	-0.138436
H123	H	0.507462	-0.462166	-0.666471
H124	H	1.007462	0.037834	-0.166471
H125	H	0.577686	-0.531478	-0.637608
H126	H	1.077686	-0.031478	-0.137608
N127	N	0.441032	-0.366425	-0.511614
N128	N	0.941032	0.133575	-0.011614
H129	H	0.403318	-0.379597	-0.575493
H130	H	0.903318	0.120403	-0.075493
H131	H	0.417500	-0.331653	-0.457309
H132	H	0.917500	0.168347	0.042691
N133	N	1.052599	-0.472654	-0.825198
N134	N	1.552599	0.027346	-0.325198
H135	H	1.052290	-0.473064	-0.747748
H136	H	1.552290	0.026936	-0.247748
H137	H	1.102475	-0.491059	-0.841912
H138	H	1.602475	0.008941	-0.341912
N139	N	0.915230	-0.644029	-1.041395
N140	N	1.415230	-0.144029	-0.541395
H141	H	0.915543	-0.643624	-1.118846
H142	H	1.415543	-0.143624	-0.618846
H143	H	0.922871	-0.715132	-1.013345
H144	H	1.422871	-0.215132	-0.513345
H145	H	0.415213	-0.701636	-0.543207
H146	H	0.915213	-0.201636	-0.043207
N147	N	0.563845	-0.394225	-0.305795
N148	N	1.063845	0.105775	0.194205
H149	H	0.551551	-0.404262	-0.232509
H150	H	1.051551	0.095738	0.267491
H151	H	0.619672	-0.394471	-0.306862
H152	H	1.119672	0.105529	0.193138
H153	H	0.521641	-0.725696	-0.363936
H154	H	1.021641	-0.225696	0.136064
