data_functionalizedCrystal
_audit_creation_method	'MofGen! by Chris Wilmer'
_symmetry_space_group_name_H-M	'P1'
_symmetry_Int_Tables_number	1
_symmetry_cell_setting	triclinic
loop_
_symmetry_equiv_pos_as_xyz
  x,y,z
_cell_length_a	17.699083
_cell_length_b	17.699083
_cell_length_c	16.776229
_cell_angle_alpha	89.992455
_cell_angle_beta	89.998886
_cell_angle_gamma	83.283015
loop_
_atom_site_label
_atom_site_type_symbol
_atom_site_fract_x
_atom_site_fract_y
_atom_site_fract_z
O1	O	1.004078	0.095713	-0.066178
O2	O	1.504078	0.595713	0.433822
O3	O	0.783700	0.108165	-0.066204
O4	O	1.283700	0.608165	0.433796
O5	O	0.900116	-0.008250	-0.066183
O6	O	1.400116	0.491750	0.433817
O7	O	0.887663	0.212128	-0.066199
O8	O	1.387663	0.712128	0.433801
O9	O	0.900100	-0.008257	0.066393
O10	O	1.400100	0.491743	0.566393
O11	O	0.783685	0.108158	0.066372
O12	O	1.283685	0.608158	0.566372
O13	O	1.004063	0.095706	0.066398
O14	O	1.504063	0.595706	0.566398
Zn15	Zn	0.893871	0.101931	0.087435
Zn16	Zn	1.393871	0.601931	0.587435
Zn17	Zn	0.893892	0.101940	-0.087241
Zn18	Zn	1.393892	0.601940	0.412759
O19	O	0.887648	0.212121	0.066378
O20	O	1.387648	0.712121	0.566378
C21	C	0.755495	0.107716	0.000081
C22	C	1.255495	0.607716	0.500081
C23	C	0.671477	0.106377	0.000071
C24	C	1.171477	0.606377	0.500071
C25	C	0.899662	-0.036451	0.000105
C26	C	1.399662	0.463549	0.500105
C27	C	0.898323	-0.120469	0.000105
C28	C	1.398323	0.379531	0.500105
C29	C	0.622856	0.174710	0.000066
C30	C	1.122856	0.674710	0.500066
C31	C	0.543913	0.173448	0.000077
C32	C	1.043913	0.673448	0.500077
C33	C	0.513592	0.103852	0.000086
C34	C	1.013592	0.603852	0.500086
C35	C	0.562219	0.035513	0.000093
C36	C	1.062219	0.535513	0.500093
C37	C	0.641161	0.036776	0.000088
C38	C	1.141161	0.536776	0.500088
C39	C	0.243856	0.030418	0.000113
C40	C	0.743856	0.530418	0.500113
C41	C	0.164908	0.029160	0.000115
C42	C	0.664908	0.529160	0.500115
C43	C	0.146608	0.167090	0.000101
C44	C	0.646608	0.667090	0.500101
C45	C	0.225550	0.168353	0.000097
C46	C	0.725550	0.668353	0.500097
C47	C	0.274170	0.100015	0.000108
C48	C	0.774170	0.600015	0.500108
C49	C	0.359769	0.101384	0.000098
C50	C	0.859769	0.601384	0.500098
C51	C	0.427995	0.102481	0.000090
C52	C	0.927995	0.602481	0.500090
C53	C	0.966656	-0.169090	0.000114
C54	C	1.466656	0.330910	0.500114
C55	C	0.965394	-0.248033	0.000107
C56	C	1.465394	0.251967	0.500107
C57	C	0.895798	-0.278354	0.000096
C58	C	1.395798	0.221646	0.500096
C59	C	0.827459	-0.229727	0.000085
C60	C	1.327459	0.270273	0.500085
C61	C	0.828722	-0.150785	0.000086
C62	C	1.328722	0.349215	0.500086
C63	C	0.822364	-0.548090	0.000078
C64	C	1.322364	-0.048090	0.500078
C65	C	0.821106	-0.627038	0.000078
C66	C	1.321106	-0.127038	0.500078
C67	C	0.959036	-0.645338	0.000099
C68	C	1.459036	-0.145338	0.500099
C69	C	0.960299	-0.566396	0.000100
C70	C	1.460299	-0.066396	0.500100
C71	C	0.891961	-0.517776	0.000084
C72	C	1.391961	-0.017776	0.500084
C73	C	0.893330	-0.432177	0.000090
C74	C	1.393330	0.067823	0.500090
C75	C	0.894427	-0.363951	0.000096
C76	C	1.394427	0.136049	0.500096
C77	C	1.032268	0.096156	0.000112
C78	C	1.532268	0.596156	0.500112
C79	C	1.116286	0.097494	0.000116
C80	C	1.616286	0.597494	0.500116
C81	C	0.888102	0.240322	0.000087
C82	C	1.388102	0.740322	0.500087
C83	C	0.889440	0.324340	0.000082
C84	C	1.389440	0.824340	0.500082
N85	N	0.893863	0.101924	0.206646
N86	N	1.393863	0.601924	0.706646
N87	N	0.893906	0.101941	-0.206452
N88	N	1.393906	0.601941	0.293548
C89	C	0.945428	0.050396	0.248372
C90	C	1.445428	0.550396	0.748372
C91	C	0.945432	0.050396	0.331824
C92	C	1.445432	0.550396	0.831824
C93	C	0.893875	0.101927	0.373549
C94	C	1.393875	0.601927	0.873549
C95	C	0.842305	0.153457	0.331817
C96	C	1.342305	0.653457	0.831817
C97	C	0.842297	0.153454	0.248366
C98	C	1.342297	0.653454	0.748366
C99	C	0.842332	0.153472	0.668364
C100	C	1.342332	0.653472	1.168364
C101	C	0.842345	0.153473	0.751820
C102	C	1.342345	0.653473	1.251820
C103	C	0.945466	0.050414	0.751822
C104	C	1.445466	0.550414	1.251822
C105	C	0.945459	0.050411	0.668372
C106	C	1.445459	0.550411	1.168372
C107	C	0.893887	0.101938	0.626647
C108	C	1.393887	0.601938	1.126647
C109	C	0.893882	0.101937	0.536158
C110	C	1.393882	0.601937	1.036158
C111	C	0.893882	0.101932	0.464036
C112	C	1.393882	0.601932	0.964036
H113	H	0.504328	0.229092	0.000072
H114	H	1.004328	0.729092	0.500072
N115	N	0.746040	-0.659748	0.000057
N116	N	1.246040	-0.159748	0.500057
H117	H	0.742435	-0.692097	0.049203
H118	H	1.242435	-0.192097	0.549203
H119	H	0.702981	-0.616930	0.000014
H120	H	1.202981	-0.116930	0.500014
H121	H	0.537526	-0.021154	0.000112
H122	H	1.037526	0.478846	0.500112
H123	H	0.987419	0.008438	0.365798
H124	H	1.487419	0.508438	0.865798
H125	H	0.987444	0.008452	0.634402
H126	H	1.487444	0.508452	1.134402
N127	N	0.752393	-0.262425	0.000068
N128	N	1.252393	0.237575	0.500068
H129	H	0.761960	-0.319812	0.000071
H130	H	1.261960	0.180188	0.500071
H131	H	0.722491	-0.244634	0.049211
H132	H	1.222491	0.255366	0.549211
N133	N	0.258253	0.243417	0.000076
N134	N	0.758253	0.743417	0.500076
H135	H	0.215472	0.286516	0.000074
H136	H	0.715472	0.786516	0.500074
H137	H	0.290612	0.246945	0.049220
H138	H	0.790612	0.746945	0.549220
H139	H	0.800322	0.195412	0.365793
H140	H	1.300322	0.695412	0.865793
N141	N	1.001041	-0.005180	0.203372
N142	N	1.501041	0.494820	0.703372
H143	H	1.033706	-0.037823	0.242472
H144	H	1.533706	0.462177	0.742472
H145	H	0.972128	-0.038606	0.168757
H146	H	1.472128	0.461394	0.668757
H147	H	0.800308	0.195412	0.214393
H148	H	1.300308	0.695412	0.714393
H149	H	1.016971	-0.541714	0.000113
H150	H	1.516971	-0.041714	0.500113
H151	H	0.647537	0.231384	0.000058
H152	H	1.147537	0.731384	0.500058
N153	N	1.001092	-0.005165	0.796825
N154	N	1.501092	0.494835	1.296825
H155	H	0.993275	0.002652	0.856022
H156	H	1.493275	0.502652	1.356022
H157	H	0.992454	-0.058849	0.782247
H158	H	1.492454	0.441151	1.282247
N159	N	0.748658	-0.495658	0.000064
N160	N	1.248658	0.004342	0.500064
H161	H	0.760013	-0.441047	0.000060
H162	H	1.260013	0.058953	0.500060
H163	H	0.718333	-0.505462	-0.049090
H164	H	1.218333	-0.005462	0.450910
N165	N	1.041724	-0.136393	0.000131
N166	N	1.541724	0.363607	0.500131
H167	H	1.045331	-0.104039	-0.049011
H168	H	1.545331	0.395961	0.450989
H169	H	1.045269	-0.104095	0.049313
H170	H	1.545269	0.395905	0.549313
H171	H	0.107012	0.222734	0.000097
H172	H	0.607012	0.722734	0.500097
H173	H	0.140225	-0.027517	0.000124
H174	H	0.640225	0.472483	0.500124
H175	H	0.800358	0.195437	0.785791
H176	H	1.300358	0.695437	1.285791
H177	H	0.283434	-0.025228	0.000123
H178	H	0.783434	0.474772	0.500123
N179	N	0.755020	-0.098340	0.000071
N180	N	1.255020	0.401660	0.500071
H181	H	0.710739	-0.129525	0.000065
H182	H	1.210739	0.370475	0.500065
H183	H	0.752532	-0.065191	0.049218
H184	H	1.252532	0.434809	0.549218
N185	N	0.786707	0.209041	0.623366
N186	N	1.286707	0.709041	1.123366
H187	H	0.754049	0.241685	0.662464
H188	H	1.254049	0.741685	1.162464
H189	H	0.815606	0.242467	0.588727
H190	H	1.315606	0.742467	1.088727
H191	H	1.021038	-0.287618	0.000116
H192	H	1.521038	0.212382	0.500116
N193	N	0.693601	-0.036929	0.000097
N194	N	1.193601	0.463071	0.500097
H195	H	0.683866	-0.067300	-0.049045
H196	H	1.183866	0.432700	0.450955
H197	H	0.748190	-0.025508	0.000127
H198	H	1.248190	0.474492	0.500127
N199	N	1.032747	-0.697778	0.000116
N200	N	1.532747	-0.197778	0.500116
H201	H	1.021391	-0.752389	0.000111
H202	H	1.521391	-0.252389	0.500111
H203	H	1.063094	-0.687969	-0.049025
H204	H	1.563094	-0.187969	0.450975
