data_functionalizedCrystal
_audit_creation_method	'MofGen! by Chris Wilmer'
_symmetry_space_group_name_H-M	'P1'
_symmetry_Int_Tables_number	1
_symmetry_cell_setting	triclinic
loop_
_symmetry_equiv_pos_as_xyz
  x,y,z
_cell_length_a	21.395361
_cell_length_b	17.077404
_cell_length_c	17.077396
_cell_angle_alpha	89.980301
_cell_angle_beta	90.033251
_cell_angle_gamma	89.972224
loop_
_atom_site_label
_atom_site_type_symbol
_atom_site_fract_x
_atom_site_fract_y
_atom_site_fract_z
Zn1	Zn	-0.249488	-1.200012	0.443821
Zn2	Zn	0.083846	-0.866679	0.777154
Zn3	Zn	0.417179	-0.533345	1.110487
Zn4	Zn	-0.354269	-1.199901	0.312544
Zn5	Zn	-0.020935	-0.866568	0.645877
Zn6	Zn	0.312398	-0.533234	0.979211
Zn7	Zn	-0.249504	-1.068744	0.312568
Zn8	Zn	0.083830	-0.735410	0.645902
Zn9	Zn	0.417163	-0.402077	0.979235
Zn10	Zn	-0.354226	-1.068694	0.443767
Zn11	Zn	-0.020893	-0.735360	0.777100
Zn12	Zn	0.312441	-0.402027	1.110434
O13	O	-0.301872	-1.134338	0.378175
O14	O	0.031462	-0.801004	0.711508
O15	O	0.364795	-0.467671	1.044842
O16	O	-0.263398	-1.309844	0.426419
O17	O	0.069935	-0.976511	0.759752
O18	O	0.403268	-0.643177	1.093086
O19	O	-0.340396	-1.182477	0.202700
O20	O	-0.007063	-0.849144	0.536033
O21	O	0.326270	-0.515811	0.869367
O22	O	-0.161824	-1.086224	0.330012
O23	O	0.171510	-0.752891	0.663345
O24	O	0.504843	-0.419557	0.996679
O25	O	-0.340381	-1.309763	0.329970
O26	O	-0.007047	-0.976429	0.663304
O27	O	0.326286	-0.643096	0.996637
O28	O	-0.161812	-1.182666	0.426443
O29	O	0.171522	-0.849333	0.759776
O30	O	0.504855	-0.516000	1.093109
O31	O	-0.263426	-1.086117	0.202718
O32	O	0.069907	-0.752783	0.536051
O33	O	0.403241	-0.419450	0.869385
O34	O	-0.263384	-0.958890	0.329960
O35	O	0.069949	-0.625557	0.663293
O36	O	0.403282	-0.292224	0.996626
O37	O	-0.340307	-1.086139	0.553621
O38	O	-0.006974	-0.752806	0.886954
O39	O	0.326359	-0.419472	1.220288
O40	O	-0.340323	-0.958854	0.426351
O41	O	-0.006990	-0.625520	0.759684
O42	O	0.326344	-0.292187	1.093018
O43	O	-0.263357	-1.182618	0.553661
O44	O	0.069977	-0.849284	0.886994
O45	O	0.403310	-0.515951	1.220327
O46	O	-0.441941	-1.182429	0.329918
O47	O	-0.108608	-0.849096	0.663251
O48	O	0.224726	-0.515762	0.996585
O49	O	-0.441909	-1.086031	0.426327
O50	O	-0.108576	-0.752698	0.759661
O51	O	0.224757	-0.419365	1.092994
C52	C	-0.301851	-0.930390	0.378153
C53	C	0.031482	-0.597056	0.711486
C54	C	0.364815	-0.263723	1.044819
C55	C	-0.301858	-0.843140	0.378162
C56	C	0.031476	-0.509807	0.711495
C57	C	0.364809	-0.176473	1.044828
C58	C	-0.261844	-0.802193	0.428458
C59	C	0.071490	-0.468860	0.761791
C60	C	0.404823	-0.135526	1.095125
C61	C	-0.261847	-0.720213	0.428460
C62	C	0.071487	-0.386879	0.761793
C63	C	0.404820	-0.053546	1.095127
C64	C	-0.301867	-0.679181	0.378168
C65	C	0.031466	-0.345847	0.711502
C66	C	0.364799	-0.012514	1.044835
C67	C	-0.341883	-0.720133	0.327866
C68	C	-0.008550	-0.386800	0.661200
C69	C	0.324784	-0.053467	0.994533
C70	C	-0.341876	-0.802112	0.327861
C71	C	-0.008543	-0.468779	0.661195
C72	C	0.324790	-0.135446	0.994528
C73	C	-0.341895	-0.549263	0.327882
C74	C	-0.008562	-0.215930	0.661215
C75	C	0.324772	0.117403	0.994549
C76	C	-0.341903	-0.467279	0.327888
C77	C	-0.008569	-0.133945	0.661221
C78	C	0.324764	0.199388	0.994555
C79	C	-0.261865	-0.467364	0.428480
C80	C	0.071468	-0.134030	0.761814
C81	C	0.404801	0.199303	1.095147
C82	C	-0.261859	-0.549342	0.428475
C83	C	0.071475	-0.216009	0.761809
C84	C	0.404808	0.117324	1.095142
C85	C	-0.301875	-0.590290	0.378174
C86	C	0.031458	-0.256956	0.711507
C87	C	0.364791	0.076377	1.044841
C88	C	-0.464659	-1.134234	0.378131
C89	C	-0.131326	-0.800901	0.711465
C90	C	0.202008	-0.467567	1.044798
C91	C	-0.534300	-1.134261	0.378139
C92	C	-0.200967	-0.800928	0.711472
C93	C	0.132366	-0.467595	1.044806
C94	C	-0.567009	-1.184500	0.327990
C95	C	-0.233676	-0.851167	0.661323
C96	C	0.099658	-0.517833	0.994657
C97	C	-0.632445	-1.184537	0.328008
C98	C	-0.299111	-0.851203	0.661341
C99	C	0.034222	-0.517870	0.994674
C100	C	-0.665169	-1.134320	0.378166
C101	C	-0.331835	-0.800987	0.711499
C102	C	0.001498	-0.467654	1.044832
C103	C	-0.632452	-1.084078	0.428324
C104	C	-0.299119	-0.750745	0.761658
C105	C	0.034215	-0.417412	1.094991
C106	C	-0.567018	-1.084049	0.428311
C107	C	-0.233685	-0.750716	0.761644
C108	C	0.099649	-0.417382	1.094978
C109	C	-0.768880	-1.063641	0.384317
C110	C	-0.435547	-0.730308	0.717650
C111	C	-0.102213	-0.396974	1.050984
C112	C	-0.834313	-1.063669	0.384325
C113	C	-0.500980	-0.730336	0.717658
C114	C	-0.167646	-0.397003	1.050992
C115	C	-0.866989	-1.134412	0.378212
C116	C	-0.533656	-0.801079	0.711545
C117	C	-0.200323	-0.467745	1.044878
C118	C	-0.834225	-1.205129	0.372074
C119	C	-0.500892	-0.871795	0.705408
C120	C	-0.167558	-0.538462	1.038741
C121	C	-0.768791	-1.205099	0.372061
C122	C	-0.435457	-0.871766	0.705394
C123	C	-0.102124	-0.538432	1.038727
C124	C	-0.736121	-1.134347	0.378186
C125	C	-0.402788	-0.801014	0.711520
C126	C	-0.069454	-0.467681	1.044853
C127	C	-0.970651	-1.184694	0.328079
C128	C	-0.637317	-0.851361	0.661413
C129	C	-0.303984	-0.518028	0.994746
C130	C	-1.036087	-1.184732	0.328102
C131	C	-0.702754	-0.851399	0.661436
C132	C	-0.369421	-0.518066	0.994769
C133	C	-1.036094	-1.084267	0.428415
C134	C	-0.702760	-0.750934	0.761748
C135	C	-0.369427	-0.417600	1.095082
C136	C	-0.970658	-1.084236	0.428396
C137	C	-0.637325	-0.750903	0.761729
C138	C	-0.303992	-0.417569	1.095063
C139	C	-0.937941	-1.134449	0.378224
C140	C	-0.604607	-0.801115	0.711557
C141	C	-0.271274	-0.467782	1.044891
C142	C	-0.138448	-1.134463	0.378236
C143	C	0.194885	-0.801130	0.711569
C144	C	0.528218	-0.467796	1.044903
C145	C	-0.068807	-1.134516	0.378262
C146	C	0.264526	-0.801183	0.711595
C147	C	0.597860	-0.467850	1.044929
C148	C	-0.301825	-1.134385	0.582919
C149	C	0.031508	-0.801052	0.916253
C150	C	0.364841	-0.467718	1.249586
C151	C	-0.301806	-1.134405	0.670169
C152	C	0.031528	-0.801072	1.003503
C153	C	0.364861	-0.467739	1.336836
C154	C	-0.301889	-0.339082	0.378192
C155	C	0.031444	-0.005749	0.711525
C156	C	0.364777	0.327585	1.044859
C157	C	-0.301889	-0.426332	0.378184
C158	C	0.031445	-0.092998	0.711518
C159	C	0.364778	0.240335	1.044851
C160	C	-0.301872	-1.134335	0.174227
C161	C	0.031461	-0.801002	0.507560
C162	C	0.364794	-0.467669	0.840894
C163	C	-0.301715	-1.134467	0.086978
C164	C	0.031618	-0.801134	0.420311
C165	C	0.364951	-0.467801	0.753644
C166	C	-0.261734	-1.184644	0.711181
C167	C	0.071599	-0.851310	1.044515
C168	C	0.404933	-0.517977	1.377848
C169	C	-0.261713	-1.184653	0.793162
C170	C	0.071620	-0.851320	1.126495
C171	C	0.404953	-0.517987	1.459828
C172	C	-0.301768	-1.134428	0.834129
C173	C	0.031566	-0.801094	1.167462
C174	C	0.364899	-0.467761	1.500795
C175	C	-0.341841	-1.084184	0.793111
C176	C	-0.008508	-0.750850	1.126444
C177	C	0.324826	-0.417517	1.459778
C178	C	-0.341858	-1.084171	0.711132
C179	C	-0.008525	-0.750838	1.044465
C180	C	0.324808	-0.417504	1.377799
C181	C	-0.341803	-1.084215	0.963981
C182	C	-0.008470	-0.750882	1.297314
C183	C	0.324863	-0.417549	1.630648
C184	C	-0.341787	-1.084229	1.045966
C185	C	-0.008454	-0.750896	1.379299
C186	C	0.324880	-0.417562	1.712632
C187	C	-0.261658	-1.184698	1.046011
C188	C	0.071675	-0.851364	1.379344
C189	C	0.405008	-0.518031	1.712678
C190	C	-0.261676	-1.184685	0.964032
C191	C	0.071658	-0.851351	1.297365
C192	C	0.404991	-0.518018	1.630699
C193	C	-0.301750	-1.134442	0.923020
C194	C	0.031583	-0.801108	1.256353
C195	C	0.364917	-0.467775	1.589686
H196	H	-0.374459	-0.835450	0.286904
H197	H	-0.041126	-0.502117	0.620238
H198	H	0.292207	-0.168784	0.953571
O199	O	-0.531719	-1.238666	0.273890
O200	O	-0.198386	-0.905333	0.607223
O201	O	0.134947	-0.571999	0.940556
H202	H	-0.565462	-1.273613	0.239027
H203	H	-0.232128	-0.940280	0.572360
H204	H	0.101205	-0.606946	0.905694
O205	O	-0.869646	-0.987398	0.390945
O206	O	-0.536313	-0.654065	0.724278
O207	O	-0.202979	-0.320732	1.057611
H208	H	-0.899488	-0.979422	0.338354
H209	H	-0.566155	-0.646088	0.671688
H210	H	-0.232822	-0.312755	1.005021
H211	H	-0.742281	-1.006029	0.389298
H212	H	-0.408948	-0.672696	0.722632
H213	H	-0.075615	-0.339363	1.055965
O214	O	-0.667744	-1.238721	0.273923
O215	O	-0.334411	-0.905388	0.607256
O216	O	-0.001078	-0.572054	0.940589
H217	H	-0.655243	-1.225283	0.212297
H218	H	-0.321910	-0.891950	0.545631
H219	H	0.011424	-0.558616	0.878964
H220	H	-0.229027	-1.225606	1.079407
H221	H	0.104306	-0.892273	1.412740
H222	H	0.437639	-0.558939	1.746074
H223	H	-0.374479	-0.582600	0.286919
H224	H	-0.041146	-0.249267	0.620253
H225	H	0.292187	0.084067	0.953586
O226	O	-0.385042	-1.030010	0.837295
O227	O	-0.051709	-0.696676	1.170628
O228	O	0.281625	-0.363343	1.503962
H229	H	-0.374286	-0.968409	0.821557
H230	H	-0.040953	-0.635075	1.154891
H231	H	0.292380	-0.301742	1.488224
O232	O	-0.733449	-1.281365	0.365453
O233	O	-0.400116	-0.948032	0.698786
O234	O	-0.066782	-0.614698	1.032119
H235	H	-0.767159	-1.330566	0.361209
H236	H	-0.433825	-0.997233	0.694543
H237	H	-0.100492	-0.663899	1.027876
H238	H	-0.374482	-1.043254	0.677741
H239	H	-0.041149	-0.709920	1.011074
H240	H	0.292184	-0.376587	1.344408
O241	O	-0.869454	-1.281440	0.365466
O242	O	-0.536120	-0.948107	0.698799
O243	O	-0.202787	-0.614773	1.032132
H244	H	-0.856832	-1.319956	0.415402
H245	H	-0.523498	-0.986623	0.748735
H246	H	-0.190165	-0.653289	1.082069
O247	O	-0.218672	-0.846444	0.482697
O248	O	0.114661	-0.513111	0.816030
O249	O	0.447994	-0.179778	1.149364
H250	H	-0.229474	-0.830725	0.544282
H251	H	0.103859	-0.497392	0.877615
H252	H	0.437192	-0.164058	1.210948
O253	O	-0.218689	-0.676045	0.482707
O254	O	0.114645	-0.342712	0.816040
O255	O	0.447978	-0.009378	1.149374
H256	H	-0.190864	-0.718350	0.517683
H257	H	0.142469	-0.385016	0.851016
H258	H	0.475803	-0.051683	1.184349
O259	O	-0.935352	-1.238871	0.273994
O260	O	-0.602019	-0.905537	0.607328
O261	O	-0.268686	-0.572204	0.940661
H262	H	-0.905587	-1.203759	0.234009
H263	H	-0.572253	-0.870426	0.567342
H264	H	-0.238920	-0.537093	0.900676
O265	O	-0.218691	-0.593604	0.482710
O266	O	0.114643	-0.260270	0.816044
O267	O	0.447976	0.073063	1.149377
H268	H	-0.190859	-0.551360	0.517681
H269	H	0.142474	-0.218026	0.851015
H270	H	0.475807	0.115307	1.184348
H271	H	-1.062718	-1.225647	0.287267
H272	H	-0.729384	-0.892314	0.620600
H273	H	-0.396051	-0.558981	0.953933
O274	O	-0.218697	-0.423207	0.482730
O275	O	0.114636	-0.089873	0.816064
O276	O	0.447969	0.243460	1.149397
H277	H	-0.225417	-0.359308	0.474279
H278	H	0.107916	-0.025975	0.807612
H279	H	0.441249	0.307358	1.140946
H280	H	-0.374491	-0.433873	0.286937
H281	H	-0.041158	-0.100539	0.620270
H282	H	0.292175	0.232794	0.953603
O283	O	-0.385046	-0.675882	0.273616
O284	O	-0.051712	-0.342549	0.606950
O285	O	0.281621	-0.009216	0.940283
H286	H	-0.416967	-0.638537	0.308675
H287	H	-0.083634	-0.305203	0.642009
H288	H	0.249699	0.028130	0.975342
O289	O	-1.071378	-1.030099	0.482513
O290	O	-0.738045	-0.696766	0.815847
O291	O	-0.404711	-0.363432	1.149180
H292	H	-1.122374	-1.038555	0.474095
H293	H	-0.789041	-0.705221	0.807428
H294	H	-0.455708	-0.371888	1.140762
H295	H	-0.374402	-1.043329	1.079319
H296	H	-0.041068	-0.709996	1.412652
H297	H	0.292265	-0.376663	1.745986
H298	H	-0.659100	-1.043193	0.469165
H299	H	-0.325767	-0.709860	0.802498
H300	H	0.007566	-0.376527	1.135831
O301	O	-0.385021	-1.030018	0.919745
O302	O	-0.051688	-0.696685	1.253079
O303	O	0.281646	-0.363351	1.586412
H304	H	-0.434195	-1.043446	0.935456
H305	H	-0.100861	-0.710113	1.268789
H306	H	0.232472	-0.376779	1.602122
O307	O	-0.935373	-1.030030	0.482465
O308	O	-0.602039	-0.696697	0.815798
O309	O	-0.268706	-0.363363	1.149132
H310	H	-0.969119	-0.995107	0.517338
H311	H	-0.635786	-0.661774	0.850672
H312	H	-0.302452	-0.328441	1.184005
O313	O	-0.531733	-1.029847	0.482387
O314	O	-0.198399	-0.696513	0.815720
O315	O	0.134934	-0.363180	1.149054
H316	H	-0.565478	-0.994927	0.517264
H317	H	-0.232145	-0.661593	0.850598
H318	H	0.101189	-0.328260	1.183931
H319	H	-0.229119	-1.225546	0.677832
H320	H	0.104214	-0.892212	1.011165
H321	H	0.437548	-0.558879	1.344498
H322	H	-0.229063	-1.225587	0.930679
H323	H	0.104270	-0.892254	1.264012
H324	H	0.437603	-0.558921	1.597345
O325	O	-0.218497	-1.238843	0.837399
O326	O	0.114836	-0.905510	1.170733
O327	O	0.448169	-0.572176	1.504066
H328	H	-0.190655	-1.273774	0.795140
H329	H	0.142678	-0.940440	1.128473
H330	H	0.476012	-0.607107	1.461806
