data_functionalizedCrystal
_audit_creation_method	'MofGen! by Chris Wilmer'
_symmetry_space_group_name_H-M	'P1'
_symmetry_Int_Tables_number	1
_symmetry_cell_setting	triclinic
loop_
_symmetry_equiv_pos_as_xyz
  x,y,z
_cell_length_a	14.971486
_cell_length_b	7.540329
_cell_length_c	14.971486
_cell_angle_alpha	89.996600
_cell_angle_beta	96.385871
_cell_angle_gamma	89.996650
loop_
_atom_site_label
_atom_site_type_symbol
_atom_site_fract_x
_atom_site_fract_y
_atom_site_fract_z
O1	O	1.186941	0.147279	-0.116561
O2	O	1.686941	0.647279	0.383439
O3	O	0.926541	0.147328	-0.130520
O4	O	1.426541	0.647328	0.369480
O5	O	1.063720	0.147290	0.006660
O6	O	1.563720	0.647290	0.506660
O7	O	1.049762	0.147317	-0.253741
O8	O	1.549762	0.647317	0.246259
O9	O	1.063716	-0.147675	0.006661
O10	O	1.563716	0.352325	0.506661
O11	O	0.926536	-0.147637	-0.130519
O12	O	1.426536	0.352363	0.369481
O13	O	1.186936	-0.147686	-0.116560
O14	O	1.686936	0.352314	0.383440
Cu15	Cu	1.056736	-0.174594	-0.123539
Cu16	Cu	1.556736	0.325406	0.376461
Cu17	Cu	1.056741	0.174236	-0.123541
Cu18	Cu	1.556741	0.674236	0.376459
O19	O	1.049757	-0.147648	-0.253740
O20	O	1.549757	0.352352	0.246260
C21	C	0.893214	-0.000149	-0.129895
C22	C	1.393214	0.499851	0.370105
C23	C	0.793917	-0.000131	-0.128024
C24	C	1.293917	0.499869	0.371976
N25	N	1.056738	-0.419943	-0.123538
N26	N	1.556738	0.080057	0.376462
C27	C	0.736692	-0.000124	-0.208614
C28	C	1.236692	0.499876	0.291386
C29	C	0.643392	-0.000151	-0.206850
C30	C	1.143392	0.499849	0.293150
C31	C	0.607320	-0.000171	-0.124497
C32	C	1.107320	0.499829	0.375503
C33	C	0.664552	-0.000183	-0.043902
C34	C	1.164552	0.499817	0.456098
C35	C	0.757850	-0.000169	-0.045666
C36	C	1.257850	0.499831	0.454334
C37	C	0.470090	-0.000207	-0.040231
C38	C	0.970090	0.499793	0.459769
C39	C	0.376786	-0.000218	-0.038466
C40	C	0.876786	0.499782	0.461534
C41	C	0.355632	-0.000190	-0.201415
C42	C	0.855632	0.499810	0.298585
C43	C	0.448930	-0.000176	-0.203179
C44	C	0.948930	0.499824	0.296821
C45	C	0.506156	-0.000184	-0.122584
C46	C	1.006156	0.499816	0.377416
C47	C	1.220263	-0.000205	-0.117185
C48	C	1.720263	0.499795	0.382815
C49	C	1.319561	-0.000212	-0.119056
C50	C	1.819561	0.499788	0.380944
C51	C	1.063094	-0.000192	0.039985
C52	C	1.563094	0.499808	0.539985
C53	C	1.061223	-0.000190	0.139282
C54	C	1.561223	0.499810	0.639282
N55	N	1.056746	0.419585	-0.123535
N56	N	1.556746	0.919585	0.376465
C57	C	1.050384	-0.000162	-0.287065
C58	C	1.550384	0.499838	0.212935
C59	C	1.052254	-0.000152	-0.386362
C60	C	1.552254	0.499848	0.113638
C61	C	1.141812	-0.000207	0.196507
C62	C	1.641812	0.499793	0.696507
C63	C	1.140049	-0.000188	0.289807
C64	C	1.640049	0.499812	0.789807
C65	C	1.057696	-0.000167	0.325879
C66	C	1.557696	0.499833	0.825879
C67	C	0.977101	-0.000145	0.268646
C68	C	1.477101	0.499855	0.768646
C69	C	0.978865	-0.000151	0.175349
C70	C	1.478865	0.499849	0.675349
C71	C	0.973430	-0.000138	0.463109
C72	C	1.473430	0.499862	0.963109
C73	C	0.971665	-0.000136	0.556413
C74	C	1.471665	0.499864	1.056413
C75	C	1.134614	-0.000176	0.577567
C76	C	1.634614	0.499824	1.077567
C77	C	1.136378	-0.000181	0.484269
C78	C	1.636378	0.499819	0.984269
C79	C	1.055782	-0.000163	0.427043
C80	C	1.555782	0.499837	0.927043
H81	H	0.766054	-0.000107	-0.275675
H82	H	1.266054	0.499893	0.224325
N83	N	1.221543	-0.000182	0.639286
N84	N	1.721543	0.499818	1.139286
H85	H	1.273980	-0.000210	0.602277
H86	H	1.773980	0.499790	1.102277
H87	H	1.224353	-0.109527	0.678461
H88	H	1.724353	0.390473	1.178461
H89	H	0.516682	-0.000217	0.025399
H90	H	1.016682	0.499783	0.525399
H91	H	0.347419	-0.000237	0.028593
H92	H	0.847419	0.499763	0.528593
H93	H	0.635175	-0.000224	0.023152
H94	H	1.135175	0.499776	0.523152
N95	N	0.581669	-0.000345	-0.293771
N96	N	1.081669	0.499655	0.206229
H97	H	0.618678	-0.000384	-0.346209
H98	H	1.118678	0.499616	0.153791
H99	H	0.542440	0.108929	-0.296655
H100	H	1.042440	0.608929	0.203345
N101	N	0.487840	-0.000120	-0.292000
N102	N	0.987840	0.499880	0.208000
H103	H	0.437432	-0.000115	-0.342790
H104	H	0.937432	0.499885	0.157210
H105	H	0.526100	-0.109455	-0.296286
H106	H	1.026100	0.390545	0.203714
N107	N	1.226973	-0.000221	0.351525
N108	N	1.726973	0.499779	0.851525
H109	H	1.229864	-0.109561	0.390712
H110	H	1.729864	0.390439	0.890712
H111	H	1.229829	0.109199	0.390642
H112	H	1.729829	0.609199	0.890642
N113	N	0.293916	-0.000175	-0.288346
N114	N	0.793916	0.499825	0.211654
H115	H	0.229338	-0.000194	-0.274736
H116	H	0.729338	0.499806	0.225264
H117	H	0.305613	-0.109507	-0.324237
H118	H	0.805613	0.390493	0.175763
H119	H	0.804443	-0.000173	0.019958
H120	H	1.304443	0.499827	0.519958
N121	N	1.230637	-0.000247	0.157604
N122	N	1.730637	0.499753	0.657604
H123	H	1.281422	-0.000252	0.208017
H124	H	1.781422	0.499748	0.708017
H125	H	1.234922	0.109095	0.119349
H126	H	1.734922	0.609095	0.619349
N127	N	0.888277	-0.000138	0.307551
N128	N	1.388277	0.499862	0.807551
H129	H	0.837491	-0.000127	0.257139
H130	H	1.337491	0.499873	0.757139
H131	H	0.883995	0.109207	0.345798
H132	H	1.383995	0.609207	0.845798
N133	N	0.882844	-0.000098	0.595323
N134	N	1.382844	0.499902	1.095323
H135	H	0.832054	-0.000070	0.544916
H136	H	1.332054	0.499930	1.044916
H137	H	0.878579	0.109254	0.633569
H138	H	1.378579	0.609254	1.133569
N139	N	0.886503	-0.000107	0.401383
N140	N	1.386503	0.499893	0.901383
H141	H	0.834064	-0.000098	0.438390
H142	H	1.334064	0.499902	0.938390
H143	H	0.883685	-0.109456	0.362217
H144	H	1.383685	0.390544	0.862217
N145	N	0.891944	-0.000122	0.113622
N146	N	1.391944	0.499878	0.613622
H147	H	0.839505	-0.000110	0.150629
H148	H	1.339505	0.499890	0.650629
H149	H	0.889122	-0.109467	0.074453
H150	H	1.389122	0.390533	0.574453
H151	H	1.203437	-0.000212	0.454903
H152	H	1.703437	0.499788	0.954903
