data_functionalizedCrystal
_audit_creation_method	'MofGen! by Chris Wilmer'
_symmetry_space_group_name_H-M	'P1'
_symmetry_Int_Tables_number	1
_symmetry_cell_setting	triclinic
loop_
_symmetry_equiv_pos_as_xyz
  x,y,z
_cell_length_a	10.489741
_cell_length_b	10.540539
_cell_length_c	8.965430
_cell_angle_alpha	89.998886
_cell_angle_beta	90.007587
_cell_angle_gamma	95.467667
loop_
_atom_site_label
_atom_site_type_symbol
_atom_site_fract_x
_atom_site_fract_y
_atom_site_fract_z
O1	O	0.179771	-1.685906	0.123968
O2	O	0.196708	-1.316495	0.123986
O3	O	0.002641	-1.509606	0.123968
O4	O	0.373838	-1.492794	0.123987
O5	O	0.002622	-1.509595	-0.124111
O6	O	0.196690	-1.316484	-0.124092
O7	O	0.179752	-1.685895	-0.124111
Cu8	Cu	0.188219	-1.501188	-0.146753
Cu9	Cu	0.188241	-1.501201	0.146629
O10	O	0.373820	-1.492784	-0.124092
C11	C	0.195429	-1.269186	-0.000051
C12	C	0.191629	-1.128238	-0.000044
C13	C	-0.044900	-1.508331	-0.000070
C14	C	-0.186529	-1.504532	-0.000068
C15	C	0.181032	-1.733203	-0.000070
C16	C	0.184832	-1.874152	-0.000067
C17	C	-0.254654	-1.381661	-0.000051
C18	C	-0.346793	-1.439699	-0.122369
C19	C	-0.346749	-1.439739	0.122217
C20	C	-0.276802	-1.562620	-0.122487
C21	C	-0.276749	-1.562643	0.122209
C22	C	-0.368860	-1.620770	-0.000139
C23	C	0.421361	-1.494059	-0.000050
C24	C	0.562990	-1.497858	-0.000044
N25	N	0.188203	-1.501189	-0.353102
C26	C	0.046011	-0.944793	-0.000630
C27	C	0.049864	-1.091412	-0.000056
C28	C	0.259862	-1.066579	0.141619
C29	C	0.255024	-0.920034	0.141722
C30	C	0.257887	-0.919534	-0.140390
C31	C	0.259193	-1.066516	-0.142247
C32	C	0.097746	-1.589797	-0.549781
C33	C	0.212891	-1.616501	-0.450299
C34	C	0.073069	-1.474541	-0.450376
C35	C	0.303450	-1.527974	-0.549729
C36	C	0.163552	-1.385962	-0.549815
C37	C	0.278780	-1.412619	-0.450378
N38	N	0.188247	-1.501211	0.352978
H39	H	-0.204991	-1.280637	-0.000169
H40	H	0.212001	-0.887977	-0.247769
H41	H	0.356980	-0.872078	0.148157
Cl42	Cl	0.182104	-1.129583	-0.304053
H43	H	-0.418297	-1.721885	-0.000212
Cl44	Cl	-0.020251	-1.705546	-0.617175
H45	H	0.233769	-1.713955	-0.406588
H46	H	0.362548	-1.090754	-0.150795
Cl47	Cl	0.415977	-0.846640	-0.141862
H48	H	0.212478	-1.109167	0.247043
Cl49	Cl	0.397037	-1.296940	-0.383404
Cl50	Cl	-0.228811	-1.642851	0.281870
Cl51	Cl	0.453840	-1.562971	-0.616819
H52	H	-0.024318	-1.451992	-0.406731
H53	H	-0.377699	-1.387738	0.225638
H54	H	0.142638	-1.288538	-0.593559
H55	H	-0.004188	-1.133155	0.101665
Cl56	Cl	-0.394676	-1.359428	-0.282022
Cl57	Cl	-0.033031	-1.157194	-0.156839
H58	H	-0.245984	-1.614560	-0.226014
Cl59	Cl	-0.040471	-0.900635	-0.157486
H60	H	0.363971	-1.088945	0.146895
H61	H	0.204609	-0.891823	0.247612
Cl62	Cl	-0.040090	-0.898148	0.155332
