data_functionalizedCrystal
_audit_creation_method	'MofGen! by Chris Wilmer'
_symmetry_space_group_name_H-M	'P1'
_symmetry_Int_Tables_number	1
_symmetry_cell_setting	triclinic
loop_
_symmetry_equiv_pos_as_xyz
  x,y,z
_cell_length_a	10.654556
_cell_length_b	14.044190
_cell_length_c	9.130313
_cell_angle_alpha	89.993628
_cell_angle_beta	89.999332
_cell_angle_gamma	88.839593
loop_
_atom_site_label
_atom_site_type_symbol
_atom_site_fract_x
_atom_site_fract_y
_atom_site_fract_z
O1	O	1.681225	0.133255	-0.121833
O2	O	1.317023	0.145943	-0.121834
O3	O	1.493652	0.001578	-0.121805
O4	O	1.504595	0.277620	-0.121862
O5	O	1.493651	0.001582	0.121794
O6	O	1.317021	0.145947	0.121765
O7	O	1.681223	0.133259	0.121766
Cu8	Cu	1.499122	0.139603	0.144008
Cu9	Cu	1.499124	0.139599	-0.144076
O10	O	1.504593	0.277624	0.121737
C11	C	1.270130	0.145012	-0.000035
C12	C	1.130407	0.142221	-0.000034
C13	C	1.488864	-0.033766	-0.000001
C14	C	1.474585	-0.139086	0.000012
C15	C	0.933483	0.138292	-0.132831
C16	C	1.064768	0.140909	-0.132825
C17	C	1.064754	0.140907	0.132760
C18	C	0.933471	0.138284	0.132753
C19	C	0.933492	0.138297	-0.286164
C20	C	1.064777	0.140913	-0.286158
C21	C	1.549751	-0.388877	-0.000045
C22	C	1.448501	-0.331915	-0.000036
C23	C	1.463018	-0.224615	-0.000009
C24	C	1.535235	-0.496187	-0.000072
C25	C	1.728115	0.134190	-0.000037
C26	C	1.867839	0.136981	-0.000047
C27	C	1.509381	0.312968	-0.000070
C28	C	1.523660	0.418288	-0.000093
N29	N	1.499129	0.139606	0.346631
N30	N	1.499126	0.139589	-0.346699
C31	C	1.577365	0.075703	0.423296
C32	C	1.577360	0.075692	0.576632
C33	C	1.420881	0.203494	0.576626
C34	C	1.420880	0.203500	0.423292
C35	C	1.667711	0.001920	0.423301
C36	C	1.667706	0.001909	0.576638
H37	H	0.880030	0.137197	0.240878
H38	H	1.118208	0.141968	0.240881
H39	H	1.647329	-0.357060	-0.000030
H40	H	1.357163	0.255527	0.360872
H41	H	1.357172	0.255515	0.639060
Cl42	Cl	1.623289	-0.110643	0.359054
H43	H	1.630268	-0.066991	0.624199
Cl44	Cl	1.812068	0.037604	0.349854
H45	H	1.765852	0.018163	0.618250
Cl46	Cl	0.884761	0.034894	-0.377043
H47	H	1.109693	0.073354	-0.333724
Cl48	Cl	0.864138	0.242593	-0.359642
H49	H	1.096344	0.207894	-0.345030
H50	H	1.350915	-0.363734	-0.000044
