data_functionalizedCrystal
_audit_creation_method	'MofGen! by Chris Wilmer'
_symmetry_space_group_name_H-M	'P1'
_symmetry_Int_Tables_number	1
_symmetry_cell_setting	triclinic
loop_
_symmetry_equiv_pos_as_xyz
  x,y,z
_cell_length_a	16.109318
_cell_length_b	14.519709
_cell_length_c	14.586319
_cell_angle_alpha	90.014387
_cell_angle_beta	90.003038
_cell_angle_gamma	96.425645
loop_
_atom_site_label
_atom_site_type_symbol
_atom_site_fract_x
_atom_site_fract_y
_atom_site_fract_z
O1	O	1.103323	-0.118619	-0.076181
O2	O	1.603323	0.381381	0.423819
O3	O	0.861289	-0.133355	-0.076202
O4	O	1.361289	0.366645	0.423798
O5	O	0.988723	0.008265	-0.076166
O6	O	1.488723	0.508265	0.423834
O7	O	0.975889	-0.260239	-0.076218
O8	O	1.475889	0.239761	0.423782
O9	O	0.988722	0.008273	0.076315
O10	O	1.488722	0.508273	0.576315
O11	O	0.861288	-0.133346	0.076279
O12	O	1.361288	0.366654	0.576279
O13	O	1.103322	-0.118611	0.076299
O14	O	1.603322	0.381389	0.576299
Cu15	Cu	0.982305	-0.125977	0.090212
Cu16	Cu	1.482305	0.374023	0.590212
Cu17	Cu	0.982306	-0.125988	-0.090114
Cu18	Cu	1.482306	0.374012	0.409886
O19	O	0.975888	-0.260230	0.076263
O20	O	1.475888	0.239770	0.576263
C21	C	0.830313	-0.132751	0.000036
C22	C	1.330313	0.367249	0.500036
C23	C	0.738015	-0.130953	0.000029
C24	C	1.238015	0.369047	0.500029
C25	C	0.988124	0.042628	0.000079
C26	C	1.488124	0.542628	0.500079
C27	C	0.986332	0.145005	0.000093
C28	C	1.486332	0.645005	0.500093
C29	C	0.438932	-0.125151	-0.083071
C30	C	0.938932	0.374849	0.416929
C31	C	0.525656	-0.126834	-0.083077
C32	C	1.025656	0.373166	0.416923
C33	C	0.525673	-0.126812	0.083166
C34	C	1.025673	0.373188	0.583166
C35	C	0.438952	-0.125122	0.083171
C36	C	0.938952	0.374878	0.583171
C37	C	0.395582	-0.124296	0.000050
C38	C	0.895582	0.375704	0.500050
C39	C	0.569028	-0.127669	0.000039
C40	C	1.069028	0.372331	0.500039
C41	C	0.663059	-0.129494	0.000033
C42	C	1.163059	0.370506	0.500033
C43	C	0.301546	-0.122469	0.000056
C44	C	0.801546	0.377531	0.500056
C45	C	0.979734	0.519887	0.000117
C46	C	1.479734	1.019887	0.500117
C47	C	0.981566	0.415583	0.000111
C48	C	1.481566	0.915583	0.500111
C49	C	0.983033	0.332450	0.000106
C50	C	1.483033	0.832450	0.500106
C51	C	0.984865	0.228139	0.000098
C52	C	1.484865	0.728139	0.500098
C53	C	1.134298	-0.119215	0.000059
C54	C	1.634298	0.380785	0.500059
C55	C	1.226596	-0.121013	0.000060
C56	C	1.726596	0.378987	0.500060
C57	C	0.976486	0.705407	0.000048
C58	C	1.476486	1.205407	0.500048
C59	C	0.978279	0.603030	0.000126
C60	C	1.478279	1.103030	0.500126
N61	N	0.982307	-0.125989	-0.216946
N62	N	1.482307	0.374011	0.283054
C63	C	1.038845	-0.063401	-0.451937
C64	C	1.538845	0.436599	0.048063
C65	C	1.038847	-0.063399	-0.547918
C66	C	1.538847	0.436601	-0.047918
C67	C	0.925770	-0.188564	-0.547960
C68	C	1.425770	0.311436	-0.047960
C69	C	0.925772	-0.188569	-0.451980
C70	C	1.425772	0.311431	0.048020
C71	C	0.982309	-0.125983	-0.403971
C72	C	1.482309	0.374017	0.096029
C73	C	0.982309	-0.125975	-0.595932
C74	C	1.482309	0.374025	-0.095932
C75	C	0.982311	-0.125973	-0.699999
C76	C	1.482311	0.374027	-0.199999
C77	C	0.982308	-0.125986	-0.299897
C78	C	1.482308	0.374014	0.200103
N79	N	0.982310	-0.125969	0.217043
N80	N	1.482310	0.374031	0.717043
H81	H	0.403623	-0.124477	-0.150753
H82	H	0.903623	0.375523	0.349247
H83	H	0.560947	-0.127529	-0.150762
H84	H	1.060947	0.372471	0.349238
H85	H	0.560995	-0.127486	0.150841
H86	H	1.060995	0.372514	0.650841
H87	H	0.403656	-0.124425	0.150862
H88	H	0.903656	0.375575	0.650862
N89	N	1.096598	0.000534	-0.402910
N90	N	1.596598	0.500534	0.097090
N91	N	1.147072	0.056405	-0.445753
N92	N	1.647072	0.556405	0.054247
H93	H	1.187863	0.101561	-0.411131
H94	H	1.687863	0.601561	0.088869
H95	H	1.084885	-0.012440	-0.586969
H96	H	1.584885	0.487560	-0.086969
H97	H	0.879738	-0.239519	-0.587058
H98	H	1.379738	0.260481	-0.087058
H99	H	0.879733	-0.239536	-0.412924
H100	H	1.379733	0.260464	0.087076
