data_functionalizedCrystal
_audit_creation_method	'MofGen! by Chris Wilmer'
_symmetry_space_group_name_H-M	'P1'
_symmetry_Int_Tables_number	1
_symmetry_cell_setting	triclinic
loop_
_symmetry_equiv_pos_as_xyz
  x,y,z
_cell_length_a	16.109301
_cell_length_b	13.339070
_cell_length_c	14.586319
_cell_angle_alpha	89.998714
_cell_angle_beta	89.999213
_cell_angle_gamma	99.545388
loop_
_atom_site_label
_atom_site_type_symbol
_atom_site_fract_x
_atom_site_fract_y
_atom_site_fract_z
O1	O	1.133153	0.130021	-0.076178
O2	O	0.894827	0.146201	-0.076192
O3	O	0.986638	-0.009144	-0.076184
O4	O	1.041342	0.285365	-0.076186
O5	O	0.986629	-0.009146	0.076297
O6	O	0.894818	0.146199	0.076289
O7	O	1.133144	0.130018	0.076303
Cu8	Cu	1.013980	0.138108	0.090219
Cu9	Cu	1.013991	0.138111	-0.090107
O10	O	1.041333	0.285363	0.076295
C11	C	0.863697	0.145545	0.000047
C12	C	0.770947	0.143580	0.000041
C13	C	0.568905	0.231189	0.000051
C14	C	0.481756	0.229335	0.000057
C15	C	0.459072	0.045023	0.000055
C16	C	0.546219	0.046879	0.000055
C17	C	0.601133	0.139965	0.000049
C18	C	0.426838	0.136255	0.000054
C19	C	0.332347	0.134244	0.000061
C20	C	0.695630	0.141976	0.000044
C21	C	0.977393	-0.046831	0.000055
C22	C	0.949849	-0.159124	0.000050
C23	C	1.164017	-0.523987	0.000063
C24	C	1.189898	-0.418483	0.000073
C25	C	1.129888	-0.353638	0.000067
C26	C	1.043992	-0.394307	0.000051
C27	C	1.018108	-0.499822	0.000048
C28	C	0.983979	-0.329473	0.000052
C29	C	0.898083	-0.370142	0.000037
C30	C	0.872203	-0.475647	0.000033
C31	C	0.932213	-0.540492	0.000039
C32	C	1.009863	-0.223958	0.000055
C33	C	0.863954	-0.199793	0.000041
C34	C	0.838073	-0.305297	0.000030
C35	C	1.164275	0.130675	0.000063
C36	C	1.257024	0.132640	0.000062
C37	C	1.050578	0.323050	0.000054
C38	C	1.078122	0.435343	0.000054
N39	N	1.013978	0.138106	0.217051
N40	N	1.013998	0.138106	-0.216939
C41	C	1.054656	0.069342	0.452061
C42	C	1.054658	0.069340	0.548042
C43	C	0.973315	0.206873	0.548044
C44	C	0.973308	0.206870	0.452065
C45	C	1.013984	0.138105	0.404075
C46	C	1.013992	0.138106	0.596036
C47	C	1.013994	0.138104	0.700103
C48	C	1.013981	0.138106	0.300002
H49	H	0.613614	0.306986	0.000053
C50	C	0.398665	-0.057362	0.000050
H51	H	0.342146	-0.045404	0.000040
H52	H	0.408282	-0.094930	0.053221
H53	H	0.408291	-0.094915	-0.053133
C54	C	1.099396	-0.006292	0.399271
H55	H	1.093577	0.003560	0.335236
H56	H	1.074799	-0.073808	0.415002
H57	H	1.157423	0.004725	0.415000
C58	C	0.581674	-0.053473	0.000049
H59	H	0.536489	-0.109177	0.000039
H60	H	0.615198	-0.056583	0.053222
H61	H	0.615199	-0.056573	-0.053132
H62	H	1.212868	-0.576792	0.000075
H63	H	1.079800	-0.190856	0.000068
C64	C	1.099401	-0.006296	0.600822
H65	H	1.123628	-0.047241	0.558492
H66	H	1.059785	-0.048417	0.638268
H67	H	1.142410	0.030114	0.638258
H68	H	1.150966	-0.267732	0.000075
C69	C	1.284375	-0.373753	0.000080
H70	H	1.316408	-0.427480	0.000073
H71	H	1.297504	-0.333097	0.053253
H72	H	1.297505	-0.333096	-0.053100
H73	H	0.911145	-0.626403	0.000027
H74	H	0.802261	-0.508756	0.000027
C75	C	0.743592	-0.350042	0.000022
H76	H	0.736776	-0.422165	0.000028
H77	H	0.717860	-0.327785	-0.053152
H78	H	0.717855	-0.327792	0.053202
H79	H	0.815089	-0.146996	0.000040
H80	H	0.940199	0.262860	0.587127
H81	H	0.940184	0.262865	0.412992
H82	H	0.455520	0.303619	0.000061
