data_functionalizedCrystal
_audit_creation_method	'MofGen! by Chris Wilmer'
_symmetry_space_group_name_H-M	'P1'
_symmetry_Int_Tables_number	1
_symmetry_cell_setting	triclinic
loop_
_symmetry_equiv_pos_as_xyz
  x,y,z
_cell_length_a	17.699104
_cell_length_b	17.699083
_cell_length_c	12.376457
_cell_angle_alpha	78.736074
_cell_angle_beta	101.253092
_cell_angle_gamma	83.287266
loop_
_atom_site_label
_atom_site_type_symbol
_atom_site_fract_x
_atom_site_fract_y
_atom_site_fract_z
O1	O	0.081201	1.018599	-0.093846
O2	O	0.093648	0.798227	-0.093884
O3	O	-0.022762	0.914629	-0.093854
O4	O	0.197611	0.902197	-0.093876
O5	O	0.006301	0.885539	0.094151
O6	O	0.122711	0.769137	0.094121
O7	O	0.110264	0.989509	0.094159
Zn8	Zn	0.121102	0.874704	0.123990
Zn9	Zn	0.082810	0.913032	-0.123715
O10	O	0.226674	0.873107	0.094129
C11	C	0.107732	0.755486	0.000114
C12	C	0.106392	0.671470	0.000100
C13	C	-0.036427	0.899636	0.000149
C14	C	-0.120444	0.898291	0.000149
C15	C	0.174723	0.622855	0.000094
C16	C	0.173463	0.543909	0.000108
C17	C	0.103870	0.513581	0.000122
C18	C	0.035533	0.562202	0.000132
C19	C	0.036795	0.641145	0.000125
C20	C	0.030442	0.243834	0.000160
C21	C	0.029185	0.164885	0.000163
C22	C	0.167110	0.146599	0.000144
C23	C	0.168372	0.225541	0.000137
C24	C	0.100037	0.274154	0.000153
C25	C	0.101405	0.359755	0.000139
C26	C	0.102500	0.427983	0.000127
C27	C	-0.645319	0.959038	0.000127
C28	C	-0.566373	0.960296	0.000137
C29	C	-0.517757	0.891962	0.000128
C30	C	-0.548088	0.822364	0.000121
C31	C	-0.627031	0.821106	0.000118
C32	C	-0.229721	0.827436	0.000131
C33	C	-0.150774	0.828700	0.000130
C34	C	-0.169063	0.966625	0.000150
C35	C	-0.248006	0.965367	0.000148
C36	C	-0.278329	0.895769	0.000146
C37	C	-0.363930	0.894406	0.000137
C38	C	-0.432159	0.893325	0.000129
C39	C	0.240339	0.888100	0.000124
C40	C	0.324355	0.889446	0.000116
C41	C	0.096179	1.032250	0.000158
C42	C	0.097519	1.116268	0.000165
N43	N	0.147234	0.848552	0.293041
N44	N	0.056672	0.939190	-0.292766
C45	C	-0.004005	0.999897	0.648065
C46	C	-0.022295	1.018196	0.529730
C47	C	0.020085	0.975787	0.470552
C48	C	0.080760	0.915075	0.529721
C49	C	0.099056	0.896777	0.648067
C50	C	0.123146	0.872667	0.470554
C51	C	0.183820	0.811955	0.529723
C52	C	0.202113	0.793661	0.648058
C53	C	0.159733	0.836070	0.707236
C54	C	0.104850	0.890965	0.352208
C55	C	0.207911	0.787845	0.352210
C56	C	0.226201	0.769546	0.470545
H57	H	0.231394	0.647541	0.000082
O58	O	0.267573	0.728191	0.711854
H59	H	0.244115	0.683119	0.765793
O60	O	0.039398	0.956432	0.288410
H61	H	-0.005677	0.932966	0.234509
H62	H	0.005191	0.990689	0.374198
H63	H	0.242423	0.753313	0.304028
H64	H	0.275604	0.720113	0.518735
H65	H	-0.254402	0.770767	0.000116
O66	O	-0.045879	0.132170	0.000199
H67	H	-0.090563	0.163558	-0.076412
H68	H	-0.025200	0.283405	0.000174
H69	H	-0.508498	0.766725	0.000120
O70	O	0.240824	0.094164	0.000151
H71	H	0.228262	0.034171	0.000175
H72	H	0.229106	0.504330	0.000102
O73	O	-0.659743	0.746045	0.000116
H74	H	-0.707121	0.754026	-0.076505
H75	H	-0.111191	0.773050	0.000125
O76	O	-0.533665	1.035359	0.000124
H77	H	-0.580736	1.082667	0.000107
H78	H	0.174622	0.821169	0.803595
H79	H	0.225042	0.250230	0.000121
O80	O	-0.039531	0.529496	0.000150
H81	H	-0.028932	0.466436	0.000143
H82	H	-0.684899	1.014685	0.000125
O83	O	-0.036905	0.693586	0.000129
H84	H	-0.085512	0.659238	0.000129
H85	H	-0.287587	1.021013	0.000149
H86	H	-0.144367	1.023298	0.000137
O87	O	-0.087738	1.083667	0.465911
H88	H	-0.114141	1.110077	0.526939
H89	H	-0.038502	1.034425	0.696255
