data_functionalizedCrystal
_audit_creation_method	'MofGen! by Chris Wilmer'
_symmetry_space_group_name_H-M	'P1'
_symmetry_Int_Tables_number	1
_symmetry_cell_setting	triclinic
loop_
_symmetry_equiv_pos_as_xyz
  x,y,z
_cell_length_a	10.967926
_cell_length_b	14.853559
_cell_length_c	9.482900
_cell_angle_alpha	99.349447
_cell_angle_beta	92.549900
_cell_angle_gamma	84.182888
loop_
_atom_site_label
_atom_site_type_symbol
_atom_site_fract_x
_atom_site_fract_y
_atom_site_fract_z
O1	O	1.610465	0.159152	0.282588
O2	O	1.261255	0.161129	0.195097
O3	O	1.445193	0.029232	0.241183
O4	O	1.426527	0.291048	0.236503
O5	O	1.407831	0.056136	0.473614
O6	O	1.223893	0.188033	0.427529
O7	O	1.573103	0.186056	0.515020
Cu8	Cu	1.395087	0.189501	0.492497
Cu9	Cu	1.439271	0.157684	0.217620
O10	O	1.389165	0.317952	0.468935
C11	C	1.197883	0.172404	0.300116
C12	C	1.064719	0.165907	0.266753
C13	C	0.985996	0.176948	0.372285
C14	C	0.848363	0.170233	0.337805
C15	C	1.425668	0.009066	0.357184
C16	C	1.423141	-0.091106	0.356543
C17	C	1.432778	-0.529317	0.227156
C18	C	1.392044	-0.499980	0.480562
C19	C	1.394430	-0.405864	0.481161
C20	C	1.415988	-0.373471	0.354755
C21	C	1.435161	-0.435193	0.227750
C22	C	1.375246	-0.344134	0.608160
C23	C	1.377630	-0.250012	0.608764
C24	C	1.399197	-0.217618	0.482359
C25	C	1.418372	-0.279346	0.355350
C26	C	1.439930	-0.246953	0.228944
C27	C	1.459113	-0.308680	0.101935
C28	C	1.456728	-0.402798	0.101345
C29	C	1.401582	-0.123500	0.482949
C30	C	1.442313	-0.152829	0.229538
C31	C	1.636475	0.174780	0.409998
C32	C	1.769641	0.181276	0.443352
C33	C	1.408690	0.338118	0.352930
C34	C	1.411219	0.438290	0.353562
N35	N	1.364018	0.211879	0.685833
N36	N	1.470349	0.135299	0.024286
C37	C	1.430099	0.164279	0.774589
C38	C	1.404259	0.182906	0.935532
H39	H	1.020492	0.191366	0.488161
C40	C	1.463971	-0.021573	0.117901
C41	C	1.465956	-0.117221	0.090573
H42	H	1.478558	0.000408	0.032106
H43	H	1.386112	0.004257	0.152580
H44	H	1.525913	-0.004519	0.187537
H45	H	1.404008	-0.134275	0.020945
H46	H	1.543826	-0.143060	0.055874
C47	C	0.830960	0.220326	0.108807
C48	C	0.801819	0.150763	0.181361
H49	H	0.802230	0.208302	0.012226
H50	H	0.793073	0.277566	0.153504
H51	H	0.917347	0.222276	0.111466
H52	H	0.715431	0.148817	0.178710
H53	H	0.839702	0.093508	0.136651
H54	H	1.448401	-0.579580	0.123750
C55	C	1.507016	0.005384	0.746603
C56	C	1.532306	0.090663	0.716297
H57	H	1.570115	-0.040059	0.710599
H58	H	1.503088	0.008224	0.847105
H59	H	1.430699	-0.009855	0.702636
H60	H	1.608619	0.105905	0.760274
H61	H	1.536247	0.087824	0.615776
H62	H	1.476657	-0.282293	-0.000987
H63	H	1.546055	0.080750	0.981130
C64	C	1.287134	0.370772	0.713733
C65	C	1.261812	0.285510	0.744080
H66	H	1.224028	0.416226	0.749682
H67	H	1.363432	0.386013	0.757715
H68	H	1.291093	0.367903	0.613216
H69	H	1.257862	0.288377	0.844599
H70	H	1.185493	0.270266	0.700103
C71	C	1.353583	-0.475393	0.719770
C72	C	1.351592	-0.379745	0.747109
H73	H	1.339000	-0.497379	0.805562
H74	H	1.291653	-0.492446	0.650138
H75	H	1.431455	-0.501221	0.685091
H76	H	1.273716	-0.353916	0.781779
H77	H	1.413525	-0.362683	0.816765
H78	H	1.472345	-0.453064	-0.002059
H79	H	0.804129	0.195697	0.559237
H80	H	1.374484	-0.526360	0.583474
H81	H	1.385937	-0.073244	0.586351
C82	C	1.047310	0.216001	0.037762
C83	C	1.018169	0.146438	0.110317
H84	H	1.018580	0.203976	-0.058819
H85	H	1.009423	0.273240	0.082459
H86	H	1.133697	0.217951	0.040422
H87	H	0.931781	0.144492	0.107666
H88	H	1.056052	0.089183	0.065607
C89	C	1.337147	-0.230479	0.859197
C90	C	1.356567	-0.182168	0.748374
H91	H	1.324157	-0.188592	0.945387
H92	H	1.267167	-0.263388	0.836192
H93	H	1.406961	-0.272210	0.871183
H94	H	1.286749	-0.140441	0.736380
H95	H	1.426555	-0.149243	0.771383
C96	C	1.189574	0.234049	0.928947
C97	C	1.302048	0.256537	0.993781
H98	H	1.126476	0.279503	0.964917
H99	H	1.193538	0.231200	0.828447
H100	H	1.172423	0.176198	0.949530
H101	H	1.319204	0.314386	0.973189
H102	H	1.298086	0.259397	1.094304
