data_functionalizedCrystal
_audit_creation_method	'MofGen! by Chris Wilmer'
_symmetry_space_group_name_H-M	'P1'
_symmetry_Int_Tables_number	1
_symmetry_cell_setting	triclinic
loop_
_symmetry_equiv_pos_as_xyz
  x,y,z
_cell_length_a	10.489716
_cell_length_b	23.532407
_cell_length_c	9.565339
_cell_angle_alpha	89.991753
_cell_angle_beta	89.996780
_cell_angle_gamma	83.688941
loop_
_atom_site_label
_atom_site_type_symbol
_atom_site_fract_x
_atom_site_fract_y
_atom_site_fract_z
O1	O	1.691402	0.080274	-0.116278
O2	O	1.319952	0.087830	-0.116286
O3	O	1.516878	0.001194	-0.116243
O4	O	1.494476	0.166909	-0.116321
O5	O	1.516862	0.001199	0.116278
O6	O	1.319936	0.087835	0.116234
O7	O	1.691387	0.080279	0.116242
Zn8	Zn	1.505659	0.084058	0.153156
Zn9	Zn	1.505680	0.084051	-0.153200
O10	O	1.494460	0.166915	0.116199
C11	C	1.272431	0.087265	-0.000026
C12	C	1.130856	0.085566	-0.000028
C13	C	1.031416	0.138694	-0.000056
C14	C	0.954996	0.110623	0.114608
C15	C	0.955018	0.110605	-0.114638
C16	C	1.056300	0.057517	0.114731
C17	C	1.056328	0.057507	-0.114618
C18	C	0.979958	0.029397	0.000074
C19	C	1.516300	-0.020023	0.000025
C20	C	1.514585	-0.083252	0.000046
C21	C	1.390974	-0.350233	-0.000044
C22	C	1.392568	-0.290823	-0.000033
O23	O	1.294509	-0.254724	-0.000080
N24	N	1.509641	-0.267425	-0.000015
C25	C	1.625128	-0.303442	-0.000021
O26	O	1.724853	-0.278085	-0.000006
C27	C	1.623533	-0.362852	-0.000042
C28	C	1.506453	-0.386246	-0.000046
C29	C	1.273904	-0.373628	-0.000050
C30	C	1.272311	-0.433035	-0.000058
C31	C	1.387789	-0.469047	-0.000060
C32	C	1.504860	-0.445652	-0.000054
C33	C	1.739019	-0.398867	-0.000058
C34	C	1.737414	-0.458280	-0.000080
C35	C	1.620333	-0.481674	-0.000085
C36	C	1.618745	-0.541071	-0.000065
N37	N	1.501673	-0.564468	-0.000083
C38	C	1.386194	-0.528456	-0.000081
C39	C	1.628467	-0.178677	0.000020
C40	C	1.630063	-0.119269	0.000051
C41	C	1.397503	-0.106654	0.000036
C42	C	1.395908	-0.166063	0.000015
C43	C	1.511395	-0.202075	0.000001
C44	C	1.382858	-0.653215	-0.000097
C45	C	1.381276	-0.712628	-0.000100
C46	C	1.613835	-0.725238	-0.000092
C47	C	1.615419	-0.665830	-0.000082
C48	C	1.499920	-0.629820	-0.000090
O49	O	1.716752	-0.577205	-0.000024
O50	O	1.286485	-0.553821	-0.000115
C51	C	1.738908	0.080844	-0.000021
C52	C	1.880483	0.082543	-0.000029
C53	C	1.495039	0.188132	-0.000072
C54	C	1.496754	0.251360	-0.000102
N55	N	1.505654	0.084062	0.362235
N56	N	1.505694	0.084042	-0.362279
C57	C	1.414555	0.124115	0.453418
C58	C	1.529671	0.135633	0.546593
C59	C	1.390589	0.072549	0.546615
C60	C	1.620827	0.095606	0.453358
C61	C	1.481670	0.032499	0.453373
C62	C	1.596869	0.043996	0.546505
H63	H	1.054549	0.184907	0.000029
H64	H	1.293263	0.062820	0.587583
O65	O	1.322888	0.164589	0.404472
C66	C	1.276713	0.249954	0.266129
C67	C	1.380642	0.204147	0.321441
H68	H	1.323371	0.281954	0.199011
H69	H	1.204687	0.228664	0.200466
H70	H	1.225141	0.273178	0.358058
H71	H	1.432310	0.180907	0.229597
H72	H	1.452583	0.225470	0.387145
H73	H	1.300571	-0.185106	0.000017
O74	O	1.726088	-0.760168	-0.000287
C75	C	1.924319	-0.789155	-0.120820
C76	C	1.797256	-0.749552	-0.120741
H77	H	1.981882	-0.780595	-0.218211
H78	H	1.982071	-0.780595	-0.023579
H79	H	1.903022	-0.835629	-0.120767
H80	H	1.818436	-0.703065	-0.120842
H81	H	1.739541	-0.758162	-0.217973
O82	O	1.108642	0.030742	0.230547
C83	C	1.070446	-0.019880	0.442819
C84	C	1.011004	0.010411	0.311703
H85	H	0.991531	-0.036316	0.508485
H86	H	1.142466	-0.057338	0.410038
H87	H	1.121352	0.011629	0.507053
H88	H	0.960032	-0.021054	0.247411
H89	H	0.939051	0.047877	0.344581
H90	H	0.957065	-0.016850	0.000162
H91	H	1.722516	-0.207995	0.000019
H92	H	1.100575	0.035094	-0.211540
O93	O	1.852718	-0.376123	0.000180
C94	C	1.989488	-0.316364	0.120583
C95	C	1.860685	-0.342094	0.120511
H96	H	1.995960	-0.288836	0.217845
H97	H	2.071790	-0.352292	0.120657
H98	H	1.996031	-0.288883	0.023231
H99	H	1.854017	-0.369568	0.217846
H100	H	1.778444	-0.306138	0.120365
H101	H	0.910795	0.133041	-0.211563
H102	H	1.831459	-0.487599	-0.000099
H103	H	0.910761	0.133053	0.211524
O104	O	1.267426	-0.735257	-0.000171
C105	C	1.036928	-0.716464	-0.000103
C106	C	1.165765	-0.690763	-0.000051
H107	H	0.954702	-0.680502	0.000024
H108	H	1.030285	-0.743934	-0.097439
H109	H	1.030424	-0.743989	0.097179
H110	H	1.172356	-0.663211	-0.097267
H111	H	1.172353	-0.663326	0.097350
H112	H	1.718174	0.105388	0.412567
H113	H	1.176972	-0.452076	-0.000074
O114	O	1.270699	-0.618216	-0.000345
C115	C	1.137539	-0.543791	-0.120742
C116	C	1.264590	-0.583403	-0.120665
H117	H	1.132571	-0.515626	-0.217996
H118	H	1.053552	-0.570697	-0.120835
H119	H	1.132477	-0.515697	-0.023382
H120	H	1.269777	-0.611504	-0.218009
H121	H	1.348517	-0.556463	-0.120499
H122	H	1.179862	-0.344312	-0.000053
H123	H	1.303475	-0.077322	0.000039
H124	H	1.725402	-0.100227	0.000076
O125	O	1.729065	-0.643032	-0.000254
C126	C	1.865867	-0.583302	-0.120763
C127	C	1.737106	-0.609067	-0.120708
H128	H	1.872422	-0.555845	-0.218154
H129	H	1.872440	-0.555769	-0.023522
H130	H	1.948110	-0.619256	-0.120691
H131	H	1.654789	-0.573150	-0.120828
H132	H	1.730645	-0.636614	-0.217940
O133	O	1.553726	0.187641	0.595624
C134	C	1.477323	0.269933	0.734106
C135	C	1.449947	0.211036	0.678709
H136	H	1.393423	0.288871	0.801267
H137	H	1.568580	0.264922	0.799744
H138	H	1.490202	0.299628	0.642220
H139	H	1.437005	0.181309	0.770510
H140	H	1.358717	0.216091	0.613029
H141	H	1.674009	0.010114	0.587121
O142	O	1.457171	-0.019472	0.404537
C143	C	1.308152	-0.090374	0.396632
C144	C	1.335740	-0.031503	0.452008
H145	H	1.209988	-0.100125	0.435014
H146	H	1.309225	-0.089995	0.277458
H147	H	1.384879	-0.124608	0.436510
H148	H	1.259044	0.002763	0.412234
H149	H	1.334714	-0.031932	0.571180
