data_functionalizedCrystal
_audit_creation_method	'MofGen! by Chris Wilmer'
_symmetry_space_group_name_H-M	'P1'
_symmetry_Int_Tables_number	1
_symmetry_cell_setting	triclinic
loop_
_symmetry_equiv_pos_as_xyz
  x,y,z
_cell_length_a	10.723024
_cell_length_b	11.792254
_cell_length_c	9.198806
_cell_angle_alpha	89.996642
_cell_angle_beta	89.996352
_cell_angle_gamma	84.333234
loop_
_atom_site_label
_atom_site_type_symbol
_atom_site_fract_x
_atom_site_fract_y
_atom_site_fract_z
O1	O	1.656774	0.159191	-0.120884
O2	O	2.156774	0.659191	0.379116
O3	O	1.293583	0.174429	-0.120889
O4	O	1.793583	0.674429	0.379111
O5	O	1.483984	0.001660	-0.120876
O6	O	1.983984	0.501660	0.379124
O7	O	1.466373	0.331960	-0.120897
O8	O	1.966373	0.831960	0.379103
O9	O	1.483969	0.001659	0.120909
O10	O	1.983969	0.501659	0.620909
O11	O	1.293567	0.174429	0.120896
O12	O	1.793567	0.674429	0.620896
O13	O	1.656759	0.159191	0.120901
O14	O	2.156759	0.659191	0.620901
Cu15	Cu	1.475162	0.166810	0.142976
Cu16	Cu	1.975162	0.666810	0.642976
Cu17	Cu	1.475180	0.166810	-0.142963
Cu18	Cu	1.975180	0.666810	0.357037
O19	O	1.466358	0.331960	0.120888
O20	O	1.966358	0.831960	0.620888
C21	C	1.247078	0.173320	0.000003
C22	C	1.747078	0.673320	0.500003
C23	C	1.108533	0.170002	0.000001
C24	C	1.608533	0.670002	0.500001
C25	C	1.482867	-0.040634	0.000016
C26	C	1.982867	0.459366	0.500016
C27	C	1.479546	-0.166654	0.000015
C28	C	1.979546	0.333346	0.500015
C29	C	1.033299	0.266675	-0.000006
C30	C	1.533299	0.766675	0.499994
C31	C	0.890105	0.263248	-0.000007
C32	C	1.390105	0.763248	0.499993
C33	C	1.476849	-0.268996	0.000010
C34	C	1.976849	0.231004	0.500010
C35	C	1.473475	-0.397390	-0.000004
C36	C	1.973475	0.102610	0.499996
C37	C	1.703264	0.160300	0.000006
C38	C	2.203264	0.660300	0.500006
C39	C	1.841809	0.163618	-0.000002
C40	C	2.341809	0.663618	0.499998
C41	C	1.467475	0.374253	-0.000007
C42	C	1.967475	0.874253	0.499993
C43	C	1.470795	0.500274	-0.000015
C44	C	1.970795	1.000274	0.499985
N45	N	1.475158	0.166809	0.344090
N46	N	1.975158	0.666809	0.844090
N47	N	1.475193	0.166802	-0.344077
N48	N	1.975193	0.666802	0.155923
C49	C	1.555103	0.093948	0.416292
C50	C	2.055103	0.593948	0.916292
C51	C	1.555123	0.093944	0.583704
C52	C	2.055123	0.593944	1.083704
H53	H	0.825457	0.346007	-0.000019
H54	H	1.325457	0.846007	0.499981
H55	H	1.074900	0.351977	-0.000003
H56	H	1.574900	0.851977	0.499997
H57	H	0.906449	0.080854	-0.000005
H58	H	1.406449	0.580854	0.499995
H59	H	1.066932	0.084700	-0.000030
H60	H	1.566932	0.584700	0.499970
O61	O	1.384517	0.249455	0.426350
O62	O	1.884517	0.749455	0.926350
H63	H	1.323441	0.201303	0.495727
H64	H	1.823441	0.701303	0.995727
H65	H	1.623572	0.031569	0.645795
H66	H	2.123572	0.531569	1.145795
O67	O	1.384510	0.249421	0.573687
O68	O	1.884510	0.749421	1.073687
H69	H	1.437634	0.304819	0.504307
H70	H	1.937634	0.804819	1.004307
H71	H	1.623529	0.031567	0.354171
H72	H	2.123529	0.531567	0.854171
