data_functionalizedCrystal
_audit_creation_method	'MofGen! by Chris Wilmer'
_symmetry_space_group_name_H-M	'P1'
_symmetry_Int_Tables_number	1
_symmetry_cell_setting	triclinic
loop_
_symmetry_equiv_pos_as_xyz
  x,y,z
_cell_length_a	19.188930
_cell_length_b	19.188930
_cell_length_c	17.666332
_cell_angle_alpha	89.988397
_cell_angle_beta	89.976766
_cell_angle_gamma	83.144779
loop_
_atom_site_label
_atom_site_type_symbol
_atom_site_fract_x
_atom_site_fract_y
_atom_site_fract_z
O1	O	0.926150	0.087169	-0.063200
O2	O	0.722838	0.098903	-0.063149
O3	O	0.830361	-0.008620	-0.063161
O4	O	0.818627	0.194692	-0.063188
O5	O	0.830342	-0.008625	0.062735
O6	O	0.722820	0.098897	0.062747
O7	O	0.926131	0.087163	0.062697
Cu8	Cu	0.824473	0.093030	0.074217
Cu9	Cu	0.824496	0.093036	-0.074670
O10	O	0.818608	0.194686	0.062709
C11	C	0.696818	0.098520	-0.000194
C12	C	0.619313	0.097380	-0.000174
C13	C	0.574389	0.160470	-0.000194
C14	C	0.501566	0.159399	-0.000203
C15	C	0.473669	0.095233	-0.000206
C16	C	0.518603	0.032133	-0.000181
C17	C	0.591425	0.033207	-0.000166
N18	N	0.365695	0.046188	-0.043078
N19	N	0.296517	0.045172	-0.043095
C20	C	0.254260	0.091994	-0.000252
N21	N	0.283795	0.139881	0.042599
N22	N	0.352979	0.140899	0.042612
C23	C	0.394707	0.094062	-0.000222
C24	C	0.130372	0.153928	-0.000280
C25	C	0.057547	0.152853	-0.000283
C26	C	0.074586	0.025586	-0.000270
C27	C	0.147409	0.026662	-0.000258
C28	C	0.175298	0.090835	-0.000267
C29	C	0.829972	-0.034634	-0.000211
C30	C	0.828831	-0.112138	-0.000204
C31	C	0.891922	-0.157062	-0.000216
C32	C	0.890850	-0.229886	-0.000228
C33	C	0.826684	-0.257782	-0.000212
C34	C	0.763585	-0.212849	-0.000205
C35	C	0.764658	-0.140026	-0.000200
N36	N	0.777630	-0.365789	0.042645
N37	N	0.776615	-0.434968	0.042642
C38	C	0.823446	-0.477191	-0.000227
N39	N	0.871341	-0.447624	-0.043084
N40	N	0.872359	-0.378439	-0.043079
C41	C	0.825513	-0.336745	-0.000218
C42	C	0.885379	-0.601079	-0.000253
C43	C	0.884305	-0.673904	-0.000270
C44	C	0.757038	-0.656865	-0.000239
C45	C	0.758114	-0.584042	-0.000230
C46	C	0.822287	-0.556154	-0.000233
C47	C	0.952151	0.087546	-0.000260
C48	C	1.029656	0.088687	-0.000285
C49	C	0.818997	0.220700	-0.000244
C50	C	0.820138	0.298204	-0.000255
N51	N	0.824463	0.093025	0.178937
N52	N	0.824512	0.093036	-0.179390
C53	C	0.872089	0.045437	0.218541
C54	C	0.872093	0.045433	0.297789
C55	C	0.824478	0.093030	0.337429
C56	C	0.776842	0.140621	0.297815
C57	C	0.776835	0.140619	0.218569
N58	N	0.815401	0.154837	0.461841
N59	N	0.815413	0.154837	0.537121
C60	C	0.824496	0.093040	0.576193
N61	N	0.833582	0.031239	0.537140
N62	N	0.833574	0.031240	0.461853
C63	C	0.824480	0.093038	0.423358
C64	C	0.872130	0.045444	0.701727
C65	C	0.872129	0.045440	0.780976
C66	C	0.776881	0.140634	0.781000
C67	C	0.776878	0.140632	0.701753
C68	C	0.824506	0.093038	0.662121
H69	H	0.628003	-0.018171	-0.000150
O70	O	0.047613	-0.036807	-0.000238
C71	C	0.102885	-0.092264	-0.000242
H72	H	0.152285	-0.072845	0.023600
H73	H	0.087783	-0.137079	0.036312
H74	H	0.113280	-0.111713	-0.060637
O75	O	0.701193	-0.239828	-0.000223
C76	C	0.645735	-0.184556	-0.000191
H77	H	0.665158	-0.135138	-0.024028
H78	H	0.600928	-0.199632	-0.036735
H79	H	0.626272	-0.174204	0.060212
O80	O	0.954318	-0.130089	-0.000258
C81	C	1.009774	-0.185362	-0.000251
H82	H	0.990358	-0.234769	-0.024086
H83	H	1.054596	-0.170273	-0.036809
H84	H	1.029213	-0.195739	0.060144
H85	H	0.910910	0.006684	0.813222
O86	O	0.157352	0.216323	-0.000247
C87	C	0.102081	0.271781	-0.000277
H88	H	0.052656	0.252360	0.023552
H89	H	0.117146	0.316592	0.036273
H90	H	0.091746	0.291236	-0.060679
O91	O	0.694767	-0.684071	-0.000194
C92	C	0.707347	-0.757980	-0.000224
H93	H	0.761881	-0.775254	0.023600
H94	H	0.666293	-0.780226	0.036330
H95	H	0.704038	-0.778225	-0.060626
H96	H	0.738051	0.179371	0.186322
O97	O	0.730655	0.186965	0.819415
C98	C	0.741798	0.256055	0.800042
H99	H	0.768706	0.255902	0.742490
H100	H	0.689212	0.290568	0.797351
H101	H	0.776486	0.277561	0.844620
H102	H	0.738099	0.179386	0.669505
O103	O	0.703433	-0.096284	-0.000218
C104	C	0.718141	-0.026029	-0.000194
H105	H	0.772978	-0.023398	-0.024039
H106	H	0.677918	0.007099	-0.036733
H107	H	0.715419	-0.004976	0.060209
O108	O	0.601363	0.222867	-0.000161
C109	C	0.546090	0.278323	-0.000199
H110	H	0.496663	0.258901	0.023625
H111	H	0.561149	0.323135	0.036353
H112	H	0.535761	0.297777	-0.060602
H113	H	0.706738	-0.547464	-0.000216
H114	H	0.910909	0.006688	0.669457
O115	O	0.191122	-0.034580	-0.000351
C116	C	0.233777	-0.037769	-0.065555
H117	H	0.237303	0.017640	-0.087295
H118	H	0.288583	-0.063947	-0.050879
H119	H	0.209939	-0.069580	-0.111216
H120	H	0.937632	-0.578372	-0.000259
O121	O	0.952120	-0.273565	-0.000368
C122	C	0.955314	-0.316200	-0.065562
H123	H	0.919545	-0.289411	-0.111133
H124	H	1.011587	-0.324562	-0.087452
H125	H	0.937396	-0.369102	-0.050819
H126	H	0.738072	0.179374	0.330094
O127	O	0.457845	0.220641	-0.000328
C128	C	0.415264	0.223827	-0.065553
H129	H	0.411769	0.168417	-0.087279
H130	H	0.360439	0.249999	-0.050909
H131	H	0.439150	0.255641	-0.111211
O132	O	0.491474	-0.030180	-0.000321
C133	C	0.449885	-0.034598	-0.065525
H134	H	0.467024	0.001836	-0.111097
H135	H	0.456605	-0.090888	-0.087404
H136	H	0.392397	-0.018317	-0.050800
O137	O	0.945577	-0.717573	-0.000419
C138	C	0.948772	-0.760200	-0.065619
H139	H	0.912995	-0.733408	-0.111183
H140	H	1.005043	-0.768551	-0.087515
H141	H	0.930862	-0.813107	-0.050883
H142	H	0.910869	0.006681	0.186275
O143	O	0.013875	0.214124	-0.000171
C144	C	-0.028805	0.217308	0.065014
H145	H	-0.002049	0.181527	0.110602
H146	H	-0.037179	0.273576	0.086885
H147	H	-0.081698	0.199395	0.050267
H148	H	0.910878	0.006680	0.330041
