data_functionalizedCrystal
_audit_creation_method	'MofGen! by Chris Wilmer'
_symmetry_space_group_name_H-M	'P1'
_symmetry_Int_Tables_number	1
_symmetry_cell_setting	triclinic
loop_
_symmetry_equiv_pos_as_xyz
  x,y,z
_cell_length_a	14.853566
_cell_length_b	13.262508
_cell_length_c	12.376457
_cell_angle_alpha	116.815184
_cell_angle_beta	78.693687
_cell_angle_gamma	84.049659
loop_
_atom_site_label
_atom_site_type_symbol
_atom_site_fract_x
_atom_site_fract_y
_atom_site_fract_z
O1	O	1.206882	0.125176	-0.055440
O2	O	0.943486	0.142645	-0.050088
O3	O	1.090994	-0.029613	-0.103036
O4	O	1.059374	0.297433	-0.002492
O5	O	1.054133	0.013393	0.098195
O6	O	0.906624	0.185651	0.151143
O7	O	1.170021	0.168181	0.145791
Zn8	Zn	1.032470	0.183744	0.180417
Zn9	Zn	1.081037	0.127082	-0.084714
O10	O	1.022513	0.340439	0.198739
C11	C	1.074181	-0.049965	-0.015290
C12	C	1.078989	-0.174679	-0.053639
C13	C	0.891510	0.163356	0.050282
C14	C	0.791555	0.160982	0.049545
C15	C	1.012163	-0.432469	0.277041
C16	C	1.007638	-0.315292	0.313073
C17	C	1.025476	-0.280133	0.221398
C18	C	1.047839	-0.362162	0.093685
C19	C	1.052357	-0.479350	0.057650
C20	C	1.065670	-0.327014	0.002007
C21	C	1.088033	-0.409043	-0.125706
C22	C	1.092551	-0.526218	-0.161735
C23	C	1.074713	-0.561377	-0.070060
C24	C	1.061151	-0.209827	0.038042
C25	C	1.101345	-0.256707	-0.181349
C26	C	1.105871	-0.373884	-0.217381
C27	C	0.388999	0.127513	-0.063209
C28	C	0.348832	0.174400	0.156182
C29	C	0.442747	0.176626	0.156863
C30	C	0.509793	0.154297	0.047507
C31	C	0.482923	0.129742	-0.062530
C32	C	0.469623	0.201193	0.266901
C33	C	0.563542	0.203422	0.267587
C34	C	0.630591	0.181084	0.158227
C35	C	0.603716	0.156527	0.048186
C36	C	0.670761	0.134198	-0.061170
C37	C	0.643890	0.109632	-0.171216
C38	C	0.549971	0.107405	-0.171889
C39	C	0.724510	0.183311	0.158901
C40	C	0.764685	0.136427	-0.060491
C41	C	1.221998	0.147470	0.045418
C42	C	1.321954	0.149842	0.046147
C43	C	1.039327	0.360791	0.110991
C44	C	1.034519	0.485503	0.149331
N45	N	0.999331	0.222414	0.361361
N46	N	1.114183	0.088404	-0.265661
C47	C	1.191111	-0.001383	0.647556
C48	C	1.214299	-0.028448	0.520897
C49	C	1.160559	0.034265	0.481007
C50	C	1.083626	0.124048	0.567788
C51	C	1.060439	0.151122	0.694462
C52	C	1.029888	0.186769	0.527912
C53	C	0.952955	0.276552	0.614694
C54	C	0.929772	0.303621	0.741354
C55	C	0.983512	0.240908	0.781244
C56	C	1.053075	0.159696	0.401239
C57	C	0.922404	0.312200	0.448144
C58	C	0.899215	0.339265	0.574803
H59	H	1.021789	-0.184721	0.250743
H60	H	1.078401	-0.656791	-0.099391
O61	O	0.994939	-0.466499	0.366195
C62	C	1.060318	-0.436235	0.437848
H63	H	1.088990	-0.362020	0.431533
H64	H	1.024079	-0.407952	0.540299
H65	H	1.120749	-0.514259	0.399655
H66	H	0.989440	-0.248513	0.417056
H67	H	0.415028	0.219379	0.355935
H68	H	0.867135	0.376736	0.812016
H69	H	0.746383	0.203324	0.248502
O70	O	0.589492	0.227245	0.374568
C71	C	0.510171	0.246506	0.470949
H72	H	0.454718	0.202513	0.427381
H73	H	0.531858	0.209045	0.531109
H74	H	0.479797	0.343531	0.532293
H75	H	1.179443	0.012224	0.377874
O76	O	1.127455	-0.453452	-0.341465
C77	C	1.059855	-0.426490	-0.395500
H78	H	1.024643	-0.330539	-0.336872
H79	H	1.095765	-0.446783	-0.495502
H80	H	1.004495	-0.480347	-0.397823
O81	O	0.824435	0.426357	0.659197
C82	C	0.758588	0.381712	0.713914
H83	H	0.795667	0.297938	0.705875
H84	H	0.725549	0.447599	0.817396
H85	H	0.701303	0.363499	0.662722
H86	H	0.367117	0.107507	-0.152806
O87	O	0.870269	0.372980	0.409190
C88	C	0.907244	0.329852	0.278788
H89	H	0.948818	0.236914	0.234052
H90	H	0.847133	0.331911	0.234452
H91	H	0.955677	0.385854	0.262414
H92	H	1.042935	-0.143047	0.142027
H93	H	0.819270	0.118240	-0.149545
O94	O	1.114169	-0.605770	-0.285829
C95	C	1.046594	-0.578821	-0.339903
H96	H	1.011351	-0.482880	-0.281261
H97	H	1.082536	-0.599075	-0.439881
H98	H	0.991255	-0.632714	-0.342295
H99	H	0.294238	0.192587	0.245216
O100	O	1.127669	0.072348	0.316821
C101	C	1.096407	-0.012726	0.222301
H102	H	1.027012	0.027853	0.217014
H103	H	1.151277	-0.049559	0.127770
H104	H	1.085652	-0.085262	0.245685
O105	O	1.118496	-0.222433	-0.270315
C106	C	1.038354	-0.143502	-0.252161
H107	H	0.994032	-0.101377	-0.150215
H108	H	1.061343	-0.073866	-0.274170
H109	H	0.994883	-0.191434	-0.317418
O110	O	0.709083	0.088114	-0.277315
C111	C	0.749241	0.185236	-0.253598
H112	H	0.740742	0.238339	-0.148288
H113	H	0.827240	0.155027	-0.306251
H114	H	0.712216	0.240875	-0.287075
H115	H	0.528083	0.087403	-0.261483
H116	H	1.276938	-0.101547	0.450245
O117	O	1.243424	-0.062384	0.686104
C118	C	1.316276	-0.147464	0.582344
H119	H	1.331400	-0.120704	0.506210
H120	H	1.382466	-0.156627	0.613718
H121	H	1.293876	-0.233859	0.543203
O122	O	0.960851	0.267108	0.904256
C123	C	0.868738	0.253153	0.939515
H124	H	0.849337	0.190886	0.852176
H125	H	0.865090	0.216631	1.007454
H126	H	0.817304	0.340653	0.987427
