data_functionalizedCrystal
_audit_creation_method	'MofGen! by Chris Wilmer'
_symmetry_space_group_name_H-M	'P1'
_symmetry_Int_Tables_number	1
_symmetry_cell_setting	triclinic
loop_
_symmetry_equiv_pos_as_xyz
  x,y,z
_cell_length_a	19.805407
_cell_length_b	18.050589
_cell_length_c	19.805399
_cell_angle_alpha	89.977706
_cell_angle_beta	89.980427
_cell_angle_gamma	90.028221
loop_
_atom_site_label
_atom_site_type_symbol
_atom_site_fract_x
_atom_site_fract_y
_atom_site_fract_z
Zn1	Zn	1.034727	-0.295677	-0.382745
Zn2	Zn	1.534727	0.204323	0.117255
Zn3	Zn	1.034638	-0.419869	-0.269567
Zn4	Zn	1.534638	0.080131	0.230433
Zn5	Zn	0.921542	-0.295697	-0.269569
Zn6	Zn	1.421542	0.204303	0.230431
Zn7	Zn	0.921502	-0.419829	-0.382713
Zn8	Zn	1.421502	0.080171	0.117287
O9	O	0.978102	-0.357768	-0.326148
O10	O	1.478102	0.142232	0.173852
O11	O	1.129432	-0.312159	-0.367743
O12	O	1.629432	0.187841	0.132257
O13	O	1.019616	-0.403422	-0.174850
O14	O	1.519616	0.096578	0.325150
O15	O	0.936610	-0.191770	-0.284596
O16	O	1.436610	0.308230	0.215404
O17	O	1.129367	-0.403402	-0.284592
O18	O	1.629367	0.096598	0.215408
O19	O	1.019767	-0.191755	-0.367746
O20	O	1.519767	0.308245	0.132254
O21	O	0.936524	-0.312194	-0.174852
O22	O	1.436524	0.187806	0.325148
O23	O	0.826820	-0.312156	-0.284566
O24	O	1.326820	0.187844	0.215434
O25	O	0.936542	-0.403335	-0.477434
O26	O	1.436542	0.096665	0.022566
O27	O	0.826791	-0.403355	-0.367693
O28	O	1.326791	0.096645	0.132307
O29	O	1.019728	-0.312121	-0.477457
O30	O	1.519728	0.187879	0.022543
O31	O	1.019577	-0.523788	-0.284562
O32	O	1.519577	-0.023788	0.215438
O33	O	0.936456	-0.523759	-0.367690
O34	O	1.436456	-0.023759	0.132310
C35	C	0.802246	-0.357754	-0.326127
C36	C	1.302246	0.142246	0.173873
C37	C	0.727014	-0.357766	-0.326133
C38	C	1.227014	0.142234	0.173867
C39	C	0.691673	-0.405325	-0.369347
C40	C	1.191673	0.094675	0.130653
C41	C	0.620984	-0.405326	-0.369357
C42	C	1.120984	0.094674	0.130643
C43	C	0.585639	-0.357771	-0.326148
C44	C	1.085639	0.142229	0.173852
C45	C	0.620985	-0.310207	-0.282933
C46	C	1.120985	0.189793	0.217067
C47	C	0.691673	-0.310203	-0.282927
C48	C	1.191673	0.189797	0.217073
C49	C	0.335912	-0.310224	-0.282955
C50	C	0.835912	0.189776	0.217045
C51	C	0.265220	-0.310233	-0.282962
C52	C	0.765220	0.189767	0.217038
C53	C	0.265224	-0.405347	-0.369385
C54	C	0.765224	0.094653	0.130615
C55	C	0.335911	-0.405342	-0.369379
C56	C	0.835911	0.094658	0.130621
C57	C	0.371251	-0.357776	-0.326166
C58	C	0.871251	0.142224	0.173834
C59	C	0.447900	-0.357774	-0.326157
C60	C	0.947900	0.142226	0.173843
C61	C	0.508992	-0.357776	-0.326153
C62	C	1.008992	0.142224	0.173847
C63	C	0.978021	-0.550720	-0.326137
C64	C	1.478021	-0.050720	0.173863
C65	C	0.978048	-0.633266	-0.326155
C66	C	1.478048	-0.133266	0.173845
C67	C	0.932891	-0.832728	-0.371344
C68	C	1.432891	-0.332728	0.128656
C69	C	0.916392	-0.882167	-0.309581
C70	C	1.416392	-0.382167	0.190419
C71	C	0.978114	-0.784396	-0.326164
C72	C	1.478114	-0.284396	0.173836
C73	C	0.994646	-0.882039	-0.387934
C74	C	1.494646	-0.382039	0.112066
C75	C	0.978177	-0.930381	-0.326178
C76	C	1.478177	-0.430381	0.173822
C77	C	0.961583	-0.832748	-0.264368
C78	C	1.461583	-0.332748	0.235632
C79	C	1.039865	-0.832616	-0.342762
C80	C	1.539865	-0.332616	0.157238
C81	C	1.023390	-0.882033	-0.280957
C82	C	1.523390	-0.382033	0.219043
C83	C	0.978076	-0.700298	-0.326157
C84	C	1.478076	-0.200298	0.173843
C85	C	0.978215	-1.014478	-0.326178
C86	C	1.478215	-0.514478	0.173822
C87	C	1.154645	-0.357783	-0.326171
C88	C	1.654645	0.142217	0.173829
C89	C	1.229877	-0.357789	-0.326180
C90	C	1.729877	0.142211	0.173820
C91	C	0.978140	-0.357721	-0.502691
C92	C	1.478140	0.142279	-0.002691
C93	C	0.978156	-0.357701	-0.577923
C94	C	1.478156	0.142299	-0.077923
C95	C	0.978203	-0.164062	-0.326175
C96	C	1.478203	0.335938	0.173825
C97	C	0.978246	-0.081517	-0.326186
C98	C	1.478246	0.418483	0.173814
C99	C	1.021472	-0.310204	-0.613280
C100	C	1.521472	0.189796	-0.113280
C101	C	1.021479	-0.310182	-0.683969
C102	C	1.521479	0.189818	-0.183969
C103	C	0.978173	-0.357662	-0.719299
C104	C	1.478173	0.142338	-0.219299
C105	C	0.934852	-0.405162	-0.683937
C106	C	1.434852	0.094838	-0.183937
C107	C	0.934843	-0.405180	-0.613250
C108	C	1.434843	0.094820	-0.113250
C109	C	0.934891	-0.405093	-0.969010
C110	C	1.434891	0.094907	-0.469010
C111	C	0.934905	-0.405074	-1.039702
C112	C	1.434905	0.094926	-0.539702
C113	C	1.021527	-0.310096	-1.039729
C114	C	1.521527	0.189904	-0.539729
C115	C	1.021518	-0.310113	-0.969042
C116	C	1.521518	0.189887	-0.469042
C117	C	0.978195	-0.357609	-0.933686
C118	C	1.478195	0.142391	-0.433686
C119	C	0.978187	-0.357631	-0.857038
C120	C	1.478187	0.142369	-0.357038
C121	C	0.978184	-0.357645	-0.795946
C122	C	1.478184	0.142355	-0.295946
C123	C	0.978103	-0.357761	-0.150292
C124	C	1.478103	0.142239	0.349708
C125	C	0.978218	-0.357572	-0.075061
C126	C	1.478218	0.142428	0.424939
H127	H	0.364686	-0.444069	-0.404562
H128	H	0.864686	0.055931	0.095438
H129	H	0.899624	-0.443779	-0.940232
H130	H	1.399624	0.056221	-0.440232
Cl131	Cl	0.880384	-0.464891	-0.568800
Cl132	Cl	1.380384	0.035109	-0.068800
Cl133	Cl	1.082479	-0.915249	-0.221911
Cl134	Cl	1.582479	-0.415249	0.278089
H135	H	0.236441	-0.444075	-0.404574
H136	H	0.736441	0.055925	0.095426
H137	H	0.720446	-0.444052	-0.404530
H138	H	1.220446	0.055948	0.095470
Cl139	Cl	1.016194	-0.915471	-0.468576
Cl140	Cl	1.516194	-0.415471	0.031424
Cl141	Cl	0.220787	-0.250444	-0.228640
Cl142	Cl	0.720787	0.249556	0.271360
Cl143	Cl	1.075921	-0.250514	-0.568872
Cl144	Cl	1.575921	0.249486	-0.068872
H145	H	1.056753	-0.271506	-0.712754
H146	H	1.556753	0.228494	-0.212754
Cl147	Cl	0.380331	-0.250423	-0.228632
Cl148	Cl	0.880331	0.249577	0.271368
H149	H	0.592212	-0.444054	-0.404545
H150	H	1.092212	0.055946	0.095455
Cl151	Cl	0.576551	-0.250419	-0.228617
Cl152	Cl	1.076551	0.249581	0.271383
Cl153	Cl	0.736102	-0.250410	-0.228600
Cl154	Cl	1.236102	0.249590	0.271400
Cl155	Cl	0.880408	-0.464850	-0.728352
Cl156	Cl	1.380408	0.035150	-0.228352
H157	H	0.894591	-0.811078	-0.409498
H158	H	1.394591	-0.311078	0.090502
H159	H	0.864201	-0.903948	-0.295555
H160	H	1.364201	-0.403948	0.204445
Cl161	Cl	1.120427	-0.798987	-0.364464
Cl162	Cl	1.620427	-0.298987	0.135536
H163	H	0.947565	-0.811186	-0.212121
H164	H	1.447565	-0.311186	0.287879
H165	H	1.056784	-0.271452	-0.940280
H166	H	1.556784	0.228548	-0.440280
Cl167	Cl	1.075989	-0.250381	-1.084181
Cl168	Cl	1.575989	0.249619	-0.584181
Cl169	Cl	0.880458	-0.464767	-1.084117
Cl170	Cl	1.380458	0.035233	-0.584117
