data_functionalizedCrystal
_audit_creation_method	'MofGen! by Chris Wilmer'
_symmetry_space_group_name_H-M	'P1'
_symmetry_Int_Tables_number	1
_symmetry_cell_setting	triclinic
loop_
_symmetry_equiv_pos_as_xyz
  x,y,z
_cell_length_a	18.215407
_cell_length_b	25.639239
_cell_length_c	18.215399
_cell_angle_alpha	89.969965
_cell_angle_beta	89.980167
_cell_angle_gamma	90.039134
loop_
_atom_site_label
_atom_site_type_symbol
_atom_site_fract_x
_atom_site_fract_y
_atom_site_fract_z
Zn1	Zn	1.125001	-0.208150	-0.416105
Zn2	Zn	1.625001	0.291850	0.083895
Zn3	Zn	1.124880	-0.295586	-0.293034
Zn4	Zn	1.624880	0.204414	0.206966
Zn5	Zn	1.001934	-0.208167	-0.293053
Zn6	Zn	1.501934	0.291833	0.206947
Zn7	Zn	1.001870	-0.295557	-0.416059
Zn8	Zn	1.501870	0.204443	0.083941
O9	O	1.063421	-0.251865	-0.354563
O10	O	1.563421	0.248135	0.145437
O11	O	1.227970	-0.219754	-0.399791
O12	O	1.727970	0.280246	0.100209
O13	O	1.108547	-0.284009	-0.190052
O14	O	1.608547	0.215991	0.309948
O15	O	1.018337	-0.135000	-0.309403
O16	O	1.518337	0.365000	0.190597
O17	O	1.227880	-0.283992	-0.309372
O18	O	1.727880	0.216008	0.190628
O19	O	1.108754	-0.134987	-0.399809
O20	O	1.608754	0.365013	0.100191
O21	O	1.018219	-0.219783	-0.190066
O22	O	1.518219	0.280217	0.309934
O23	O	0.898941	-0.219754	-0.309358
O24	O	1.398941	0.280246	0.190642
O25	O	1.018228	-0.283943	-0.519050
O26	O	1.518228	0.216057	-0.019050
O27	O	0.898894	-0.283959	-0.399731
O28	O	1.398894	0.216041	0.100269
O29	O	1.108692	-0.219725	-0.519083
O30	O	1.608692	0.280275	-0.019083
O31	O	1.108485	-0.368747	-0.309327
O32	O	1.608485	0.131253	0.190673
O33	O	1.018110	-0.368726	-0.399713
O34	O	1.518110	0.131274	0.100287
C35	C	0.872215	-0.251856	-0.354542
C36	C	1.372215	0.248144	0.145458
C37	C	0.790416	-0.251865	-0.354550
C38	C	1.290416	0.248135	0.145450
C39	C	0.602217	-0.285349	-0.401548
C40	C	1.102217	0.214651	0.098452
C41	C	0.525358	-0.285350	-0.401557
C42	C	1.025358	0.214650	0.098443
C43	C	0.525378	-0.218391	-0.307594
C44	C	1.025378	0.281609	0.192406
C45	C	0.602235	-0.218387	-0.307589
C46	C	1.102235	0.281613	0.192411
C47	C	0.640653	-0.251869	-0.354565
C48	C	1.140653	0.248131	0.145435
C49	C	0.486937	-0.251874	-0.354579
C50	C	0.986937	0.248126	0.145421
C51	C	0.403603	-0.251876	-0.354589
C52	C	0.903603	0.248124	0.145411
C53	C	0.723992	-0.251867	-0.354556
C54	C	1.223992	0.248133	0.145444
C55	C	1.063298	-0.387708	-0.354529
C56	C	1.563298	0.112292	0.145471
C57	C	1.063312	-0.445822	-0.354539
C58	C	1.563312	0.054178	0.145461
C59	C	1.110602	-0.806183	-0.307579
C60	C	1.610602	-0.306183	0.192421
C61	C	1.110631	-0.860787	-0.307589
C62	C	1.610631	-0.360787	0.192411
O63	O	1.150711	-0.889023	-0.267625
O64	O	1.650711	-0.389023	0.232375
N65	N	1.063551	-0.888104	-0.354612
N66	N	1.563551	-0.388104	0.145388
C67	C	1.016444	-0.860813	-0.401633
C68	C	1.516444	-0.360813	0.098367
O69	O	0.976402	-0.889062	-0.441631
O70	O	1.476402	-0.389062	0.058369
C71	C	1.016420	-0.806210	-0.401626
C72	C	1.516420	-0.306210	0.098374
C73	C	1.063498	-0.778896	-0.354595
C74	C	1.563498	-0.278896	0.145405
C75	C	1.157677	-0.778869	-0.260553
C76	C	1.657677	-0.278869	0.239447
C77	C	1.157647	-0.724269	-0.260542
C78	C	1.657647	-0.224269	0.239458
C79	C	1.110543	-0.696982	-0.307558
C80	C	1.610543	-0.196982	0.192442
C81	C	1.063468	-0.724296	-0.354584
C82	C	1.563468	-0.224296	0.145416
C83	C	0.969318	-0.778920	-0.448650
C84	C	1.469318	-0.278920	0.051350
C85	C	0.969298	-0.724313	-0.448640
C86	C	1.469298	-0.224313	0.051360
C87	C	1.016376	-0.697000	-0.401609
C88	C	1.516376	-0.197000	0.098391
C89	C	1.016334	-0.642408	-0.401590
C90	C	1.516334	-0.142408	0.098410
N91	N	1.063414	-0.615092	-0.354567
N92	N	1.563414	-0.115092	0.145433
C93	C	1.110519	-0.642379	-0.307551
C94	C	1.610519	-0.142379	0.192449
C95	C	1.016500	-0.975484	-0.401644
C96	C	1.516500	-0.475484	0.098356
C97	C	1.016520	-1.030086	-0.401648
C98	C	1.516520	-0.530086	0.098352
C99	C	1.110708	-1.030057	-0.307605
C100	C	1.610708	-0.530057	0.192395
C101	C	1.110683	-0.975453	-0.307598
C102	C	1.610683	-0.475453	0.192402
C103	C	1.063580	-0.948167	-0.354621
C104	C	1.563580	-0.448167	0.145379
C105	C	1.110452	-0.527714	-0.307532
C106	C	1.610452	-0.027714	0.192468
C107	C	1.110416	-0.473108	-0.307523
C108	C	1.610416	0.026892	0.192477
C109	C	1.016232	-0.473143	-0.401569
C110	C	1.516232	0.026857	0.098431
C111	C	1.016265	-0.527743	-0.401575
C112	C	1.516265	-0.027743	0.098425
C113	C	1.063381	-0.555027	-0.354554
C114	C	1.563381	-0.055027	0.145446
O115	O	0.976277	-0.614138	-0.441536
O116	O	1.476277	-0.114138	0.058464
O117	O	1.150561	-0.614123	-0.267567
O118	O	1.650561	-0.114123	0.232433
C119	C	1.255374	-0.251874	-0.354584
C120	C	1.755374	0.248126	0.145416
C121	C	1.337173	-0.251878	-0.354594
C122	C	1.837173	0.248122	0.145406
C123	C	1.063466	-0.251829	-0.546516
C124	C	1.563466	0.248171	-0.046516
C125	C	1.063485	-0.251814	-0.628315
C126	C	1.563485	0.248186	-0.128315
C127	C	1.063566	-0.115492	-0.354613
C128	C	1.563566	0.384508	0.145387
C129	C	1.063627	-0.057378	-0.354634
C130	C	1.563627	0.442622	0.145366
C131	C	1.110607	-0.218344	-0.816528
C132	C	1.610607	0.281656	-0.316528
C133	C	1.110616	-0.218329	-0.893386
C134	C	1.610616	0.281671	-0.393386
C135	C	1.016416	-0.285202	-0.893340
C136	C	1.516416	0.214798	-0.393340
C137	C	1.016404	-0.285214	-0.816483
C138	C	1.516404	0.214786	-0.316483
C139	C	1.063504	-0.251786	-0.778078
C140	C	1.563504	0.248214	-0.278078
C141	C	1.063524	-0.251759	-0.931795
C142	C	1.563524	0.248241	-0.431795
C143	C	1.063534	-0.251742	-1.015128
C144	C	1.563534	0.248258	-0.515128
C145	C	1.063494	-0.251801	-0.694739
C146	C	1.563494	0.248199	-0.194739
C147	C	1.063419	-0.251863	-0.163357
C148	C	1.563419	0.248137	0.336643
C149	C	1.063543	-0.251731	-0.081558
C150	C	1.563543	0.248269	0.418442
H151	H	0.633530	-0.191120	-0.269329
H152	H	1.133530	0.308880	0.230671
H153	H	0.930941	-0.702100	-0.486935
H154	H	1.430941	-0.202100	0.013065
O155	O	0.970376	-0.446657	-0.447167
O156	O	1.470376	0.053343	0.052833
C157	C	0.845177	-0.430040	-0.482832
C158	C	1.345177	0.069960	0.017168
C159	C	0.897017	-0.460059	-0.431126
C160	C	1.397017	0.039941	0.068874
H161	H	0.785856	-0.440872	-0.469892
H162	H	1.285856	0.059128	0.030108
H163	H	0.853185	-0.386316	-0.474746
H164	H	1.353185	0.113684	0.025254
H165	H	0.858122	-0.440735	-0.542179
H166	H	1.358122	0.059265	-0.042179
H167	H	0.884104	-0.449407	-0.371760
H168	H	1.384104	0.050593	0.128240
H169	H	0.888999	-0.503775	-0.439276
H170	H	1.388999	-0.003775	0.060724
H171	H	0.978042	-0.312446	-0.785176
H172	H	1.478042	0.187554	-0.285176
H173	H	0.633495	-0.312611	-0.439801
H174	H	1.133495	0.187389	0.060199
O175	O	0.970565	-0.317620	-0.930614
O176	O	1.470565	0.182380	-0.430614
C177	C	0.845364	-0.343019	-0.954061
C178	C	1.345364	0.156981	-0.454061
C179	C	0.897204	-0.306262	-0.911819
C180	C	1.397204	0.193738	-0.411819
H181	H	0.786041	-0.333856	-0.938869
H182	H	1.286041	0.166144	-0.438869
H183	H	0.853399	-0.337266	-1.015607
H184	H	1.353399	0.162734	-0.515607
H185	H	0.858282	-0.385176	-0.938939
H186	H	1.358282	0.114824	-0.438939
H187	H	0.884317	-0.264090	-0.926879
H188	H	1.384317	0.235910	-0.426879
H189	H	0.889159	-0.312059	-0.850283
H190	H	1.389159	0.187941	-0.350283
H191	H	1.148753	-0.450871	-0.269223
H192	H	1.648753	0.049129	0.230777
H193	H	1.148821	-0.549922	-0.269245
H194	H	1.648821	-0.049922	0.230755
O195	O	1.156381	-0.948980	-0.261814
O196	O	1.656381	-0.448980	0.238186
C197	C	1.192140	-0.932285	-0.136657
C198	C	1.692140	-0.432285	0.363343
C199	C	1.140350	-0.962304	-0.188426
C200	C	1.640350	-0.462304	0.311574
H201	H	1.179187	-0.943037	-0.077312
H202	H	1.679187	-0.443037	0.422688
H203	H	1.251490	-0.942987	-0.149576
H204	H	1.751490	-0.442987	0.350424
H205	H	1.184051	-0.888573	-0.144763
H206	H	1.684051	-0.388573	0.355237
H207	H	1.148374	-1.006023	-0.180350
H208	H	1.648374	-0.506023	0.319650
H209	H	1.081020	-0.951558	-0.175495
H210	H	1.581020	-0.451558	0.324505
H211	H	1.148956	-0.191123	-0.785261
H212	H	1.648956	0.308877	-0.285261
O213	O	0.487941	-0.317900	-0.447093
O214	O	0.987941	0.182100	0.052907
C215	C	0.401144	-0.388523	-0.456822
C216	C	0.901144	0.111477	0.043178
C217	C	0.443459	-0.351685	-0.405167
C218	C	0.943459	0.148315	0.094833
H219	H	0.365181	-0.415856	-0.422945
H220	H	0.865181	0.084144	0.077055
H221	H	0.365150	-0.364584	-0.495356
H222	H	0.865150	0.135416	0.004644
H223	H	0.441821	-0.412427	-0.490411
H224	H	0.941821	0.087573	0.009589
H225	H	0.402835	-0.327774	-0.371531
H226	H	0.902835	0.172226	0.128469
H227	H	0.479463	-0.375655	-0.366681
H228	H	0.979463	0.124345	0.133319
H229	H	0.494089	-0.191131	-0.269346
H230	H	0.994089	0.308869	0.230654
H231	H	1.148971	-0.191096	-0.924688
H232	H	1.648971	0.308904	-0.424688
H233	H	0.977932	-0.549983	-0.439874
H234	H	1.477932	-0.049983	0.060126
H235	H	1.196039	-0.801080	-0.222266
H236	H	1.696039	-0.301080	0.277734
O237	O	1.203457	-0.697821	-0.214840
O238	O	1.703457	-0.197821	0.285160
C239	C	1.296859	-0.703575	-0.121544
C240	C	1.796859	-0.203575	0.378456
C241	C	1.245023	-0.733587	-0.173275
C242	C	1.745023	-0.233587	0.326725
H243	H	1.330468	-0.732479	-0.087914
H244	H	1.830468	-0.232479	0.412086
H245	H	1.335359	-0.677985	-0.155330
H246	H	1.835359	-0.177985	0.344670
H247	H	1.263081	-0.678037	-0.083052
H248	H	1.763081	-0.178037	0.416948
H249	H	1.278742	-0.759154	-0.211777
H250	H	1.778742	-0.259154	0.288223
H251	H	1.206521	-0.759144	-0.139442
H252	H	1.706521	-0.259144	0.360558
O253	O	1.156597	-1.056573	-0.262068
O254	O	1.656597	-0.556573	0.237932
C255	C	1.256038	-1.118124	-0.252374
C256	C	1.756038	-0.618124	0.247626
C257	C	1.204100	-1.088128	-0.304007
C258	C	1.704100	-0.588128	0.195993
H259	H	1.294448	-1.143652	-0.286260
H260	H	1.794448	-0.643652	0.213740
H261	H	1.289739	-1.089228	-0.218806
H262	H	1.789739	-0.589228	0.281194
H263	H	1.222337	-1.143727	-0.213819
H264	H	1.722337	-0.643727	0.286181
H265	H	1.237745	-1.062525	-0.342606
H266	H	1.737745	-0.562525	0.157394
H267	H	1.170398	-1.117052	-0.337522
H268	H	1.670398	-0.617052	0.162478
O269	O	0.970759	-1.056535	-0.447397
O270	O	1.470759	-0.556535	0.052603
C271	C	0.877305	-1.050786	-0.540642
C272	C	1.377305	-0.550786	-0.040642
C273	C	0.929101	-1.020771	-0.488875
C274	C	1.429101	-0.520771	0.011125
H275	H	0.843600	-1.021884	-0.574180
H276	H	1.343600	-0.521884	-0.074180
H277	H	0.911045	-1.076292	-0.579212
H278	H	1.411045	-0.576292	-0.079212
H279	H	0.838886	-1.076409	-0.506815
H280	H	1.338886	-0.576409	-0.006815
H281	H	0.967530	-0.995120	-0.522643
H282	H	1.467530	-0.495120	-0.022643
H283	H	0.895315	-0.995299	-0.450303
H284	H	1.395315	-0.495299	0.049697
H285	H	0.978136	-0.953270	-0.439934
H286	H	1.478136	-0.453270	0.060066
H287	H	0.930978	-0.801150	-0.486945
H288	H	1.430978	-0.301150	0.013055
