data_functionalizedCrystal
_audit_creation_method	'MofGen! by Chris Wilmer'
_symmetry_space_group_name_H-M	'P1'
_symmetry_Int_Tables_number	1
_symmetry_cell_setting	triclinic
loop_
_symmetry_equiv_pos_as_xyz
  x,y,z
_cell_length_a	27.732064
_cell_length_b	27.732048
_cell_length_c	14.185569
_cell_angle_alpha	76.951782
_cell_angle_beta	103.051318
_cell_angle_gamma	82.646040
loop_
_atom_site_label
_atom_site_type_symbol
_atom_site_fract_x
_atom_site_fract_y
_atom_site_fract_z
O1	O	0.629896	0.068574	-0.083255
O2	O	0.489099	0.077317	-0.083298
O3	O	0.563873	0.002547	-0.083256
O4	O	0.555122	0.143345	-0.083297
O5	O	0.585962	-0.019539	0.083591
O6	O	0.511187	0.055232	0.083549
O7	O	0.651985	0.046489	0.083592
Cu8	Cu	0.583603	0.048844	0.098805
Cu9	Cu	0.557481	0.074962	-0.098511
O10	O	0.577211	0.121260	0.083550
C11	C	0.482136	0.066091	0.000120
C12	C	0.428479	0.065537	0.000105
C13	C	0.051416	0.017560	0.000176
C14	C	0.253072	0.019610	0.000149
O15	O	0.284331	-0.017618	0.000198
N16	N	0.272198	0.063946	0.000132
C17	C	0.240906	0.107773	0.000128
O18	O	0.261802	0.145529	0.000123
C19	C	0.039251	0.105722	0.000162
C20	C	0.020128	0.061383	0.000169
C21	C	0.032292	-0.026775	0.000184
C22	C	-0.018120	-0.027286	0.000185
C23	C	-0.049408	0.016538	0.000178
C24	C	-0.030284	0.060872	0.000170
C25	C	0.007961	0.149546	0.000165
C26	C	-0.042455	0.149029	0.000176
C27	C	-0.061578	0.104691	0.000183
C28	C	-0.111984	0.104184	0.000164
N29	N	-0.131109	0.059848	0.000182
C30	C	-0.099821	0.016024	0.000189
C31	C	0.346778	0.108847	0.000108
C32	C	0.397191	0.109360	0.000098
C33	C	0.409354	0.021197	0.000121
C34	C	0.358939	0.020685	0.000124
C35	C	0.327653	0.064510	0.000125
C36	C	-0.205691	0.014954	0.000190
C37	C	-0.256108	0.014447	0.000187
C38	C	-0.268266	0.102610	0.000169
C39	C	-0.217854	0.103118	0.000167
C40	C	-0.186566	0.059285	0.000181
O41	O	-0.143270	0.141390	0.000127
O42	O	-0.120724	-0.021730	0.000216
C43	C	0.101828	0.018071	0.000175
C44	C	0.120952	0.062406	0.000166
C45	C	0.089664	0.106229	0.000159
C46	C	0.171365	0.062919	0.000156
C47	C	0.202653	0.019096	0.000163
C48	C	0.183528	-0.025241	0.000181
C49	C	0.133116	-0.025752	0.000182
C50	C	0.108789	0.150566	0.000142
C51	C	0.159201	0.151074	0.000140
C52	C	0.190489	0.107250	0.000147
C53	C	0.574734	-0.026503	0.000170
C54	C	0.574182	-0.080159	0.000178
C55	C	0.614881	-0.418967	0.000139
C56	C	0.612828	-0.620625	0.000124
O57	O	0.650044	-0.651874	0.000092
N58	N	0.568491	-0.639749	0.000112
C59	C	0.524664	-0.608455	0.000096
O60	O	0.486905	-0.629348	0.000075
C61	C	0.526717	-0.406797	0.000104
C62	C	0.571057	-0.387677	0.000127
C63	C	0.659218	-0.399846	0.000161
C64	C	0.659731	-0.349435	0.000170
C65	C	0.615908	-0.318145	0.000157
C66	C	0.571571	-0.337266	0.000136
C67	C	0.482889	-0.375503	0.000081
C68	C	0.483406	-0.325086	0.000081
C69	C	0.527746	-0.305966	0.000103
C70	C	0.528261	-0.255566	0.000132
N71	N	0.572597	-0.236441	0.000145
C72	C	0.616421	-0.267731	0.000157
C73	C	0.523590	-0.714329	0.000095
C74	C	0.523077	-0.764744	0.000094
C75	C	0.611241	-0.776909	0.000121
C76	C	0.611754	-0.726495	0.000128
C77	C	0.567926	-0.695204	0.000107
C78	C	0.617496	-0.161864	0.000177
C79	C	0.618006	-0.111449	0.000191
C80	C	0.529842	-0.099287	0.000159
C81	C	0.529332	-0.149699	0.000151
C82	C	0.573163	-0.180986	0.000157
O83	O	0.491063	-0.224287	0.000154
O84	O	0.654172	-0.246826	0.000156
C85	C	0.614367	-0.469378	0.000130
C86	C	0.570030	-0.488499	0.000108
C87	C	0.526207	-0.457209	0.000096
C88	C	0.569517	-0.538913	0.000108
C89	C	0.613341	-0.570203	0.000121
C90	C	0.657677	-0.551078	0.000133
C91	C	0.658191	-0.500667	0.000142
C92	C	0.481870	-0.476334	0.000083
C93	C	0.481361	-0.526745	0.000075
C94	C	0.525184	-0.558035	0.000088
C95	C	0.658948	0.057716	0.000171
C96	C	0.712604	0.058271	0.000180
C97	C	0.566349	0.150310	0.000122
C98	C	0.566900	0.203967	0.000107
N99	N	0.601980	0.030473	0.237586
N100	N	0.539108	0.093329	-0.237292
C101	C	0.485116	0.147282	0.605171
C102	C	0.499040	0.133369	0.710200
C103	C	0.565266	0.067184	0.710198
C104	C	0.551346	0.081090	0.605167
C105	C	0.511272	0.121139	0.552661
C106	C	0.577501	0.054947	0.552657
C107	C	0.563584	0.068853	0.447635
C108	C	0.523512	0.108902	0.395122
C109	C	0.497355	0.135045	0.447639
C110	C	0.617578	0.014900	0.605164
C111	C	0.643733	-0.011243	0.552655
C112	C	0.629814	0.002661	0.447631
C113	C	0.589742	0.042710	0.395118
C114	C	0.655972	-0.023482	0.395114
C115	C	0.642055	-0.009576	0.290092
C116	C	0.575825	0.056616	0.290096
H117	H	-0.180222	-0.020738	0.000201
H118	H	0.597896	0.034577	0.752960
H119	H	-0.202283	0.139221	0.000160
Cl120	Cl	0.427142	-0.399527	0.000046
H121	H	0.321308	0.144537	0.000108
Cl122	Cl	-0.081783	0.204127	0.000181
Cl123	Cl	0.674938	-0.042441	0.224078
Cl124	Cl	-0.042154	-0.083027	0.000186
Cl125	Cl	0.672598	-0.201190	0.000186
Cl126	Cl	0.069461	0.205665	0.000128
Cl127	Cl	0.706355	-0.073824	0.461131
Cl128	Cl	0.031990	0.205289	0.000156
Cl129	Cl	0.448697	-0.033895	0.000130
H130	H	0.117550	-0.061857	0.000188
H131	H	0.464718	0.167654	0.404887
Cl132	Cl	0.715473	-0.325402	0.000170
H133	H	0.654115	-0.095885	0.000212
H134	H	0.412755	0.145466	0.000078
Cl135	Cl	0.222870	-0.080332	0.000186
Cl136	Cl	-0.280146	-0.041295	0.000190
H137	H	0.694297	-0.485105	0.000161
Cl138	Cl	0.473591	-0.173739	0.000142
H139	H	0.628909	0.003581	0.690680
Cl140	Cl	0.666332	-0.816253	0.000131
H141	H	0.174765	0.187183	0.000127
H142	H	0.057763	-0.062463	0.000193
Cl143	Cl	0.694112	-0.061588	0.618669
Cl144	Cl	0.714318	-0.439174	0.000178
Cl145	Cl	0.428304	-0.285752	0.000053
Cl146	Cl	0.468486	-0.674999	0.000070
H147	H	0.343373	-0.015419	0.000131
H148	H	-0.293751	0.138290	0.000159
H149	H	0.477738	0.154662	0.752948
H150	H	0.647860	-0.710931	0.000145
Cl151	Cl	0.467334	-0.788777	0.000085
H152	H	0.693360	-0.576564	0.000148
Cl153	Cl	0.425613	-0.550776	0.000052
H154	H	0.494162	-0.073803	0.000153
Cl155	Cl	0.426772	-0.437005	0.000066
Cl156	Cl	0.525439	0.106960	0.224085
Cl157	Cl	0.506018	0.126386	0.263092
Cl158	Cl	0.434730	0.197626	0.539160
