data_functionalizedCrystal
_audit_creation_method	'MofGen! by Chris Wilmer'
_symmetry_space_group_name_H-M	'P1'
_symmetry_Int_Tables_number	1
_symmetry_cell_setting	triclinic
loop_
_symmetry_equiv_pos_as_xyz
  x,y,z
_cell_length_a	14.044220
_cell_length_b	14.044220
_cell_length_c	13.101039
_cell_angle_alpha	93.659868
_cell_angle_beta	93.667477
_cell_angle_gamma	86.811122
loop_
_atom_site_label
_atom_site_type_symbol
_atom_site_fract_x
_atom_site_fract_y
_atom_site_fract_z
O1	O	0.225348	-1.281968	-0.085109
O2	O	0.217041	-1.005298	-0.085135
O3	O	0.082860	-1.139480	-0.085112
O4	O	0.359530	-1.147787	-0.085132
O5	O	0.092504	-1.129854	0.085316
O6	O	0.226686	-0.995673	0.085293
O7	O	0.234993	-1.272343	0.085319
Zn8	Zn	0.232371	-1.132479	0.112365
Zn9	Zn	0.219663	-1.145162	-0.112181
O10	O	0.369175	-1.138161	0.085296
C11	C	0.052060	-1.131031	0.000102
C12	C	-0.054083	-1.120187	0.000102
C13	C	0.218228	-0.964864	0.000076
C14	C	0.207383	-0.858722	0.000066
C15	C	0.233806	-1.312777	0.000106
C16	C	0.244651	-1.418920	0.000109
C17	C	-0.248421	-1.100362	0.000086
C18	C	-0.299551	-1.177276	0.000090
C19	C	-0.407688	-1.166245	0.000080
C20	C	-0.140275	-1.111391	0.000095
C21	C	0.399974	-1.146610	0.000080
C22	C	0.506116	-1.157455	0.000073
N23	N	0.241043	-1.123831	0.265612
C24	C	0.187558	-0.664383	0.000088
C25	C	0.264472	-0.613253	0.000087
C26	C	0.253441	-0.505116	0.000099
C27	C	0.198587	-0.772529	0.000076
N28	N	0.210984	-1.153817	-0.265428
C29	C	0.252851	-1.112065	0.474653
C30	C	0.199179	-1.165580	0.525538
C31	C	0.205749	-1.159034	0.641855
C32	C	0.246282	-1.118610	0.358325
H33	H	-0.285859	-1.026235	0.000076
H34	H	0.148295	-1.216314	0.481744
C35	C	0.320681	-1.044520	0.533223
C36	C	0.313819	-1.051405	0.638619
C37	C	0.376301	-0.989212	0.692618
H38	H	0.304100	-0.980829	0.515834
H39	H	0.384310	-1.061367	0.515757
H40	H	0.250205	-1.034553	0.656077
H41	H	0.330409	-1.115082	0.656038
H42	H	0.439930	-1.006058	0.675152
H43	H	0.359715	-0.925525	0.675221
H44	H	0.371660	-0.993881	0.764134
C45	C	0.363407	-0.662987	0.000115
C46	C	0.432203	-0.594558	0.000136
C47	C	0.523348	-0.640341	0.000171
H48	H	0.367662	-0.705075	-0.059308
H49	H	0.374319	-0.698365	0.059564
H50	H	0.421294	-0.559196	-0.059307
H51	H	0.427979	-0.552467	0.059555
H52	H	0.534260	-0.675719	0.059620
H53	H	0.527593	-0.682428	-0.059253
H54	H	0.570037	-0.593919	0.000195
C55	C	0.088725	-0.614429	-0.000120
C56	C	0.072982	-0.562356	-0.087812
C57	C	-0.018054	-0.516325	-0.088051
H58	H	0.084492	-0.572263	0.059244
H59	H	0.041878	-0.660700	-0.000181
H60	H	0.119816	-0.516090	-0.087742
H61	H	0.077196	-0.604500	-0.147191
H62	H	-0.064901	-0.562596	-0.088111
H63	H	-0.022279	-0.474164	-0.028682
H64	H	-0.028751	-0.480996	-0.147552
C65	C	-0.249457	-1.276042	0.000163
C66	C	-0.150603	-1.267491	0.000198
C67	C	-0.104421	-1.358448	0.000283
H68	H	-0.270642	-1.313188	-0.059247
H69	H	-0.263991	-1.306391	0.059625
H70	H	-0.136076	-1.237155	-0.059258
H71	H	-0.129391	-1.230362	0.059604
H72	H	-0.118955	-1.388798	0.059744
H73	H	-0.125614	-1.395587	-0.059129
H74	H	-0.037344	-1.352659	0.000316
