data_functionalizedCrystal
_audit_creation_method	'MofGen! by Chris Wilmer'
_symmetry_space_group_name_H-M	'P1'
_symmetry_Int_Tables_number	1
_symmetry_cell_setting	triclinic
loop_
_symmetry_equiv_pos_as_xyz
  x,y,z
_cell_length_a	6.817900
_cell_length_b	11.102288
_cell_length_c	14.858572
_cell_angle_alpha	93.467296
_cell_angle_beta	104.524003
_cell_angle_gamma	108.605689
loop_
_atom_site_label
_atom_site_type_symbol
_atom_site_fract_x
_atom_site_fract_y
_atom_site_fract_z
V1	V	-4.064547	-0.176639	-0.289960
O2	O	-4.024474	0.007665	-0.284441
O3	O	-4.041646	-0.349454	-0.287977
O4	O	-4.020838	-0.174283	-0.416422
O5	O	-4.045427	-0.168718	-0.155107
V6	V	-4.544264	-0.154551	-0.273831
O7	O	-4.334156	-0.225090	-0.325342
O8	O	-4.724852	-0.106100	-0.238449
O9	O	-4.343959	0.018263	-0.275814
O10	O	-4.701734	-0.338855	-0.279350
O11	O	-4.680781	-0.162472	-0.408684
O12	O	-4.364767	-0.156907	-0.147369
C13	C	-3.892698	-0.391571	-0.283403
C14	C	-3.955291	-0.532852	-0.282625
C15	C	-4.167954	-0.605712	-0.286899
C16	C	-4.226759	-0.738461	-0.286175
C17	C	-3.860216	-0.725477	-0.276898
C18	C	-3.801417	-0.592732	-0.277629
C19	C	-3.866154	-0.168122	-0.447246
C20	C	-3.911868	-0.167339	-0.550629
C21	C	-4.079186	-0.164478	-0.929197
C22	C	-4.032624	-0.165274	-0.823868
C23	C	-3.995529	-0.165910	-0.739916
C24	C	-3.948964	-0.166703	-0.634580
C25	C	-4.156249	0.060374	-0.280385
C26	C	-4.072895	0.201653	-0.281170
C27	C	-4.182793	-0.163073	-0.116540
C28	C	-4.116316	-0.163849	-0.013156
H29	H	-4.399925	-0.797779	-0.289657
O30	O	-3.594702	-0.521967	-0.273307
C31	C	-3.219340	-0.452837	-0.184687
C32	C	-3.453330	-0.533002	-0.189447
H33	H	-3.104972	-0.461752	-0.116902
H34	H	-3.203590	-0.347643	-0.186007
H35	H	-3.176222	-0.489843	-0.247673
H36	H	-3.496602	-0.496108	-0.126475
H37	H	-3.468956	-0.638183	-0.188172
O38	O	-4.317303	-0.547430	-0.291881
C39	C	-4.507829	-0.422637	-0.379064
C40	C	-4.338600	-0.488551	-0.373522
H41	H	-4.525135	-0.375040	-0.445075
H42	H	-4.453887	-0.346627	-0.314298
H43	H	-4.669876	-0.497536	-0.381949
H44	H	-4.176497	-0.413746	-0.370667
H45	H	-4.392724	-0.564585	-0.438287
H46	H	-3.734944	-0.774248	-0.272829
