data_functionalizedCrystal
_audit_creation_method	'MofGen! by Chris Wilmer'
_symmetry_space_group_name_H-M	'P1'
_symmetry_Int_Tables_number	1
_symmetry_cell_setting	triclinic
loop_
_symmetry_equiv_pos_as_xyz
  x,y,z
_cell_length_a	17.699097
_cell_length_b	16.956984
_cell_length_c	16.176319
_cell_angle_alpha	89.992579
_cell_angle_beta	89.988988
_cell_angle_gamma	79.670925
loop_
_atom_site_label
_atom_site_type_symbol
_atom_site_fract_x
_atom_site_fract_y
_atom_site_fract_z
O1	O	0.997935	0.100901	-0.068815
O2	O	0.776761	0.114011	-0.068802
O3	O	0.900636	-0.008648	-0.068803
O4	O	0.874060	0.223560	-0.068813
O5	O	0.900621	-0.008655	0.068690
O6	O	0.776746	0.114004	0.068691
O7	O	0.997920	0.100894	0.068678
Cu8	Cu	0.887331	0.107448	0.081239
Cu9	Cu	0.887350	0.107457	-0.081363
O10	O	0.874045	0.223553	0.068680
C11	C	0.748585	0.113536	-0.000053
C12	C	0.664654	0.112121	-0.000048
C13	C	0.149471	0.103454	-0.075029
C14	C	0.228335	0.104778	-0.075025
C15	C	0.267752	0.105437	-0.000074
C16	C	0.228303	0.104764	0.074878
C17	C	0.149442	0.103434	0.074873
C18	C	0.546341	0.110124	0.074900
C19	C	0.625207	0.111456	0.074899
C20	C	0.625234	0.111468	-0.074998
C21	C	0.546373	0.110139	-0.075003
C22	C	0.506932	0.109461	-0.000052
C23	C	0.421419	0.108024	-0.000057
C24	C	0.353262	0.106880	-0.000068
C25	C	0.901989	-0.038362	-0.000057
C26	C	0.906035	-0.126890	-0.000058
C27	C	0.838388	-0.158847	-0.000058
C28	C	0.842194	-0.242029	-0.000056
C29	C	0.913648	-0.293254	-0.000060
C30	C	0.981300	-0.261292	-0.000058
C31	C	0.977493	-0.178111	-0.000054
C32	C	0.932491	-0.543062	-0.000067
C33	C	0.936293	-0.626248	-0.000073
C34	C	0.797186	-0.606980	-0.000069
C35	C	0.793386	-0.523798	-0.000070
C36	C	0.861038	-0.491843	-0.000064
N37	N	0.917540	-0.378280	-0.000061
N38	N	0.857145	-0.406819	-0.000057
C39	C	1.026096	0.101369	-0.000072
C40	C	1.110027	0.102784	-0.000083
C41	C	0.872692	0.253267	-0.000068
C42	C	0.868646	0.341795	-0.000073
N43	N	0.887324	0.107441	0.195604
N44	N	0.887363	0.107458	-0.195728
C45	C	0.942190	0.053150	0.238868
C46	C	0.942194	0.053149	0.325415
C47	C	0.887335	0.107444	0.368697
C48	C	0.832463	0.161737	0.325427
C49	C	0.832456	0.161734	0.238882
C50	C	0.832488	0.161752	0.674456
C51	C	0.832500	0.161753	0.761007
C52	C	0.942225	0.053167	0.760988
C53	C	0.942219	0.053164	0.674443
C54	C	0.887345	0.107454	0.631181
C55	C	0.887341	0.107454	0.537337
C56	C	0.887342	0.107449	0.462539
H57	H	0.514240	0.109561	0.135929
H58	H	0.514283	0.109606	-0.136036
C59	C	1.002540	-0.006580	0.191265
N60	N	1.047996	-0.051573	0.155414
H61	H	0.260404	0.105295	0.135904
H62	H	0.987578	-0.517055	-0.000064
C63	C	1.002534	-0.006595	0.373001
N64	N	1.047978	-0.051604	0.408842
C65	C	1.059901	-0.317642	-0.000061
N66	N	1.119104	-0.360084	-0.000066
C67	C	1.051911	-0.142960	-0.000057
N68	N	1.107964	-0.116486	-0.000057
C69	C	1.002567	-0.006566	0.626837
N70	N	1.048020	-0.051559	0.590982
C71	C	0.714781	-0.467456	-0.000077
N72	N	0.655574	-0.425020	-0.000089
H73	H	0.117326	0.102897	0.135902
H74	H	0.986905	0.008958	0.796222
C75	C	0.772143	0.221480	0.808616
N76	N	0.726684	0.266462	0.844474
C77	C	0.759782	-0.102507	-0.000054
N78	N	0.700574	-0.060073	-0.000048
H79	H	0.787109	-0.268044	-0.000062
C80	C	0.772217	0.221577	0.626879
N81	N	0.726851	0.266677	0.591041
C82	C	0.722774	-0.642137	-0.000062
N83	N	0.666724	-0.668617	-0.000051
H84	H	0.787792	0.205943	0.360673
C85	C	1.014901	-0.682594	-0.000078
N86	N	1.074106	-0.725034	-0.000083
H87	H	0.787778	0.205942	0.203657
H88	H	0.117382	0.102923	-0.136063
H89	H	0.657357	0.112016	-0.136027
H90	H	0.260447	0.105319	-0.136053
H91	H	0.657299	0.111993	0.135936
