data_functionalizedCrystal
_audit_creation_method	'MofGen! by Chris Wilmer'
_symmetry_space_group_name_H-M	'P1'
_symmetry_Int_Tables_number	1
_symmetry_cell_setting	triclinic
loop_
_symmetry_equiv_pos_as_xyz
  x,y,z
_cell_length_a	11.792241
_cell_length_b	17.038278
_cell_length_c	10.868271
_cell_angle_alpha	89.987716
_cell_angle_beta	89.999461
_cell_angle_gamma	92.348041
loop_
_atom_site_label
_atom_site_type_symbol
_atom_site_fract_x
_atom_site_fract_y
_atom_site_fract_z
O1	O	-1.516301	0.107207	-0.102205
O2	O	-1.182968	0.440540	0.231128
O3	O	-0.849634	0.773874	0.564461
O4	O	-1.186928	0.118256	-0.102240
O5	O	-0.853595	0.451589	0.231093
O6	O	-0.520261	0.784922	0.564427
O7	O	-1.349659	-0.001093	-0.102192
O8	O	-1.016325	0.332241	0.231142
O9	O	-0.682992	0.665574	0.564475
O10	O	-1.353571	0.226555	-0.102254
O11	O	-1.020237	0.559889	0.231080
O12	O	-0.686904	0.893222	0.564413
O13	O	-1.349644	-0.001097	0.102453
O14	O	-1.016310	0.332236	0.435786
O15	O	-0.682977	0.665569	0.769120
O16	O	-1.186913	0.118251	0.102405
O17	O	-0.853580	0.451584	0.435738
O18	O	-0.520247	0.784918	0.769071
O19	O	-1.516286	0.107202	0.102439
O20	O	-1.182953	0.440536	0.435773
O21	O	-0.849620	0.773869	0.769106
Zn22	Zn	-1.351598	0.112726	0.134914
Zn23	Zn	-1.018264	0.446059	0.468247
Zn24	Zn	-0.684931	0.779393	0.801580
Zn25	Zn	-1.351617	0.112732	-0.134714
Zn26	Zn	-1.018284	0.446065	0.198619
Zn27	Zn	-0.684950	0.779399	0.531952
O28	O	-1.353556	0.226551	0.102391
O29	O	-1.020223	0.559884	0.435724
O30	O	-0.686889	0.893217	0.769058
C31	C	-1.144569	0.117559	0.000078
C32	C	-0.811236	0.450893	0.333412
C33	C	-0.477902	0.784226	0.666745
C34	C	-1.018373	0.115482	0.000066
C35	C	-0.685040	0.448815	0.333400
C36	C	-0.351707	0.782149	0.666733
C37	C	-0.787326	0.111662	0.000100
C38	C	-0.453993	0.444996	0.333433
C39	C	-0.120660	0.778329	0.666767
C40	C	-0.915898	0.113785	0.000082
C41	C	-0.582564	0.447118	0.333415
C42	C	-0.249231	0.780451	0.666748
C43	C	-1.346091	-0.030239	0.000136
C44	C	-1.012757	0.303094	0.333469
C45	C	-0.679424	0.636428	0.666802
C46	C	-1.335468	-0.117079	0.000151
C47	C	-1.002135	0.216254	0.333484
C48	C	-0.668801	0.549588	0.666817
C49	C	-1.270207	-0.607779	0.000031
C50	C	-0.936874	-0.274446	0.333365
C51	C	-0.603541	0.058888	0.666698
C52	C	-1.280197	-0.526184	0.000045
C53	C	-0.946864	-0.192851	0.333378
C54	C	-0.613531	0.140482	0.666711
C55	C	-1.387727	-0.494276	0.000073
C56	C	-1.054394	-0.160942	0.333406
C57	C	-0.721061	0.172391	0.666739
C58	C	-1.485274	-0.543966	0.000075
C59	C	-1.151941	-0.210633	0.333409
C60	C	-0.818607	0.122700	0.666742
C61	C	-1.475283	-0.625559	0.000053
C62	C	-1.141950	-0.292226	0.333387
C63	C	-0.808616	0.041107	0.666720
C64	C	-1.423023	-0.248362	0.000132
C65	C	-1.089690	0.084971	0.333465
C66	C	-0.756357	0.418304	0.666798
C67	C	-1.433007	-0.166763	0.000157
C68	C	-1.099674	0.166570	0.333490
C69	C	-0.766341	0.499904	0.666824
C70	C	-1.227929	-0.148987	0.000124
C71	C	-0.894596	0.184347	0.333457
C72	C	-0.561263	0.517680	0.666791
C73	C	-1.217948	-0.230582	0.000110
C74	C	-0.884614	0.102751	0.333443
C75	C	-0.551281	0.436085	0.666776
C76	C	-1.315494	-0.280266	0.000106
C77	C	-0.982161	0.053068	0.333439
C78	C	-0.648828	0.386401	0.666772
C79	C	-1.397941	-0.410873	0.000090
C80	C	-1.064608	-0.077540	0.333423
C81	C	-0.731275	0.255793	0.666757
C82	C	-1.305279	-0.363666	0.000080
C83	C	-0.971946	-0.030333	0.333413
C84	C	-0.638613	0.303000	0.666746
C85	C	-0.558646	0.107899	0.000115
C86	C	-0.225312	0.441232	0.333449
C87	C	0.108021	0.774565	0.666782
C88	C	-0.684841	0.109976	0.000110
C89	C	-0.351508	0.443309	0.333443
C90	C	-0.018175	0.776643	0.666777
C91	C	-1.357124	0.255697	0.000061
C92	C	-1.023790	0.589030	0.333394
C93	C	-0.690457	0.922364	0.666728
C94	C	-1.367747	0.342537	0.000038
C95	C	-1.034413	0.675870	0.333371
C96	C	-0.701080	1.009204	0.666704
N97	N	-1.351592	0.112721	0.318928
N98	N	-1.018259	0.446055	0.652261
N99	N	-0.684926	0.779388	0.985595
N100	N	-1.351630	0.112731	-0.318728
N101	N	-1.018297	0.446064	0.014605
N102	N	-0.684964	0.779397	0.347938
C103	C	-1.351611	0.112730	0.569934
C104	C	-1.018278	0.446064	0.903267
C105	C	-0.684944	0.779397	1.236601
C106	C	-1.351597	0.112728	0.430256
C107	C	-1.018264	0.446061	0.763590
C108	C	-0.684931	0.779394	1.096923
H109	H	-1.200770	-0.485734	0.000036
H110	H	-0.867437	-0.152401	0.333369
H111	H	-0.534103	0.180932	0.666702
H112	H	-1.572828	-0.517980	0.000100
H113	H	-1.239494	-0.184647	0.333434
H114	H	-0.906161	0.148687	0.666767
N115	N	-1.160376	-0.640384	0.000016
N116	N	-0.827042	-0.307050	0.333350
N117	N	-0.493709	0.026283	0.666683
N118	N	-1.131912	-0.683950	0.086264
N119	N	-0.798578	-0.350617	0.419597
N120	N	-0.465245	-0.017283	0.752931
H121	H	-1.054341	-0.706977	0.086252
H122	H	-0.721008	-0.373644	0.419585
H123	H	-0.387675	-0.040311	0.752918
H124	H	-1.130385	-0.256556	0.000073
H125	H	-0.797052	0.076778	0.333406
H126	H	-0.463719	0.410111	0.666739
H127	H	-1.148513	-0.108526	0.000126
H128	H	-0.815179	0.224807	0.333459
H129	H	-0.481846	0.558140	0.666792
H130	H	-1.554710	-0.666012	0.000053
H131	H	-1.221377	-0.332679	0.333387
H132	H	-0.888044	0.000655	0.666720
H133	H	-1.217729	-0.389650	0.000050
H134	H	-0.884395	-0.056317	0.333384
H135	H	-0.551062	0.277017	0.666717
H136	H	-1.485493	-0.384884	0.000154
H137	H	-1.152160	-0.051551	0.333487
H138	H	-0.818827	0.281783	0.666821
N139	N	-1.542856	-0.134172	0.000152
N140	N	-1.209522	0.199161	0.333485
N141	N	-0.876189	0.532495	0.666818
N142	N	-1.571313	-0.090605	-0.086098
N143	N	-1.237979	0.242728	0.247235
N144	N	-0.904646	0.576062	0.580569
H145	H	-1.648890	-0.067588	-0.086103
H146	H	-1.315556	0.265746	0.247231
H147	H	-0.982223	0.599079	0.580564
H148	H	-1.502454	-0.288805	0.000136
H149	H	-1.169120	0.044528	0.333469
H150	H	-0.835787	0.377861	0.666803
