data_functionalizedCrystal
_audit_creation_method	'MofGen! by Chris Wilmer'
_symmetry_space_group_name_H-M	'P1'
_symmetry_Int_Tables_number	1
_symmetry_cell_setting	triclinic
loop_
_symmetry_equiv_pos_as_xyz
  x,y,z
_cell_length_a	10.654550
_cell_length_b	23.532407
_cell_length_c	9.130313
_cell_angle_alpha	89.990840
_cell_angle_beta	89.999724
_cell_angle_gamma	83.666804
loop_
_atom_site_label
_atom_site_type_symbol
_atom_site_fract_x
_atom_site_fract_y
_atom_site_fract_z
O1	O	1.665305	0.079985	-0.121707
O2	O	1.299585	0.087605	-0.121735
O3	O	1.493474	0.000935	-0.121693
O4	O	1.471417	0.166655	-0.121749
O5	O	1.493460	0.000933	0.121905
O6	O	1.299572	0.087603	0.121863
O7	O	1.665292	0.079982	0.121892
Cu8	Cu	1.482431	0.083792	0.144120
Cu9	Cu	1.482447	0.083795	-0.143964
O10	O	1.471404	0.166652	0.121850
C11	C	1.252799	0.087044	0.000061
C12	C	1.113408	0.085370	0.000051
C13	C	1.032306	0.136400	0.000038
C14	C	0.901335	0.134824	0.000064
C15	C	0.932582	0.031183	0.000110
C16	C	1.063550	0.032760	0.000094
C17	C	1.492905	-0.020286	0.000110
C18	C	1.491217	-0.083514	0.000121
C19	C	1.595364	-0.481938	0.000049
C20	C	1.593795	-0.541349	0.000037
O21	O	1.690341	-0.577464	-0.000009
N22	N	1.478529	-0.564726	0.000030
C23	C	1.364824	-0.528689	0.000018
O24	O	1.266636	-0.554029	0.000009
C25	C	1.366394	-0.469280	0.000019
C26	C	1.481668	-0.445906	0.000041
C27	C	1.710629	-0.458564	0.000070
C28	C	1.712197	-0.399158	0.000084
C29	C	1.598500	-0.363126	0.000077
C30	C	1.483236	-0.386500	0.000055
C31	C	1.252690	-0.433244	-0.000003
C32	C	1.254270	-0.373831	-0.000004
C33	C	1.369544	-0.350458	0.000019
C34	C	1.371107	-0.291061	0.000062
N35	N	1.486374	-0.267684	0.000070
C36	C	1.600070	-0.303716	0.000077
C37	C	1.361535	-0.653453	0.000014
C38	C	1.359964	-0.712861	0.000023
C39	C	1.588936	-0.725517	0.000040
C40	C	1.590506	-0.666108	0.000041
C41	C	1.476802	-0.630076	0.000022
C42	C	1.603355	-0.178958	0.000108
C43	C	1.604913	-0.119546	0.000128
C44	C	1.375942	-0.106896	0.000104
C45	C	1.374383	-0.166303	0.000091
C46	C	1.488100	-0.202333	0.000088
O47	O	1.274613	-0.254911	0.000103
O48	O	1.698241	-0.278369	0.000067
C49	C	1.712079	0.080543	0.000093
C50	C	1.851469	0.082217	0.000093
C51	C	1.471972	0.187873	0.000044
C52	C	1.473661	0.251101	0.000023
N53	N	1.482429	0.083790	0.346743
N54	N	1.482458	0.083793	-0.346586
C55	C	1.568311	0.045429	0.423413
C56	C	1.568323	0.045429	0.576750
C57	C	1.396567	0.122156	0.576733
C58	C	1.396550	0.122153	0.423399
H59	H	1.698787	-0.100519	0.000150
C60	C	1.302112	0.164359	0.661055
C61	C	1.302195	0.164401	0.829716
C62	C	1.207740	0.206606	0.914033
C63	C	1.113202	0.248770	0.829688
C64	C	1.113115	0.248730	0.661017
C65	C	1.207570	0.206524	0.576701
H66	H	1.372181	0.133187	0.892161
H67	H	1.207805	0.206635	1.038894
H68	H	1.043281	0.280013	0.892104
H69	H	1.043129	0.279944	0.598572
H70	H	1.207505	0.206495	0.451839
H71	H	0.891971	-0.011650	0.000154
C72	C	1.662766	0.003226	0.339091
C73	C	1.757229	-0.038973	0.423436
C74	C	1.851684	-0.081178	0.339119
C75	C	1.851676	-0.081185	0.170458
C76	C	1.757210	-0.038985	0.086104
C77	C	1.662755	0.003221	0.170420
H78	H	1.757238	-0.038969	0.548298
H79	H	1.921614	-0.112418	0.401565
H80	H	1.921597	-0.112428	0.108042
H81	H	1.757201	-0.038988	-0.038758
H82	H	1.592825	0.034460	0.107975
H83	H	1.129588	-0.008797	0.000109
C84	C	1.129190	-0.334197	-0.000019
C85	C	1.098786	-0.291604	-0.126510
C86	C	0.973708	-0.251971	-0.126521
C87	C	0.879034	-0.254930	-0.000040
C88	C	0.909436	-0.297525	0.126461
C89	C	1.034514	-0.337158	0.126472
H90	H	1.168871	-0.289411	-0.220147
H91	H	0.951203	-0.220439	-0.220166
H92	H	0.786444	-0.225591	-0.000047
H93	H	0.839351	-0.299718	0.220099
H94	H	1.057018	-0.368690	0.220117
H95	H	1.072896	0.179239	0.000014
C96	C	1.835709	-0.498193	0.000086
C97	C	1.930350	-0.495241	0.126600
C98	C	2.055441	-0.534865	0.126629
C99	C	2.085891	-0.577441	0.000145
C100	C	1.991247	-0.580394	-0.126379
C101	C	1.866156	-0.540770	-0.126409
H102	H	1.907812	-0.463723	0.220240
H103	H	2.125502	-0.532679	0.220291
H104	H	2.178490	-0.606773	0.000167
H105	H	2.013786	-0.611913	-0.220019
H106	H	1.796095	-0.542957	-0.220070
H107	H	0.835306	0.176378	0.000057
H108	H	1.695954	-0.208288	0.000100
H109	H	1.268937	-0.624119	0.000011
H110	H	1.806065	-0.380133	0.000096
H111	H	1.684372	-0.647081	0.000058
H112	H	1.681514	-0.754865	0.000040
H113	H	1.638255	0.014191	0.639171
H114	H	1.266096	-0.731886	0.000030
H115	H	1.158822	-0.452264	-0.000031
H116	H	1.326609	0.153392	0.360969
H117	H	1.280517	-0.185334	0.000113
H118	H	1.283373	-0.077548	0.000103
