data_functionalizedCrystal
_audit_creation_method	'MofGen! by Chris Wilmer'
_symmetry_space_group_name_H-M	'P1'
_symmetry_Int_Tables_number	1
_symmetry_cell_setting	triclinic
loop_
_symmetry_equiv_pos_as_xyz
  x,y,z
_cell_length_a	15.944551
_cell_length_b	15.944551
_cell_length_c	14.421503
_cell_angle_alpha	89.996660
_cell_angle_beta	89.996859
_cell_angle_gamma	96.501262
loop_
_atom_site_label
_atom_site_type_symbol
_atom_site_fract_x
_atom_site_fract_y
_atom_site_fract_z
O1	O	1.114529	-0.108320	-0.077017
O2	O	0.869980	-0.121677	-0.077040
O3	O	0.998933	0.007276	-0.077020
O4	O	0.985576	-0.237273	-0.077038
O5	O	0.998911	0.007257	0.077204
O6	O	0.869958	-0.121696	0.077183
O7	O	1.114508	-0.108340	0.077206
Cu8	Cu	0.992231	-0.115020	0.091277
Cu9	Cu	0.992256	-0.114997	-0.091110
O10	O	0.985555	-0.237293	0.077186
C11	C	0.838675	-0.121132	0.000069
C12	C	0.745429	-0.119470	0.000060
C13	C	0.530572	-0.035565	0.000084
C14	C	0.469563	-0.074518	-0.075959
C15	C	0.574703	-0.116462	0.000071
C16	C	0.469564	-0.074556	0.076093
C17	C	0.409790	-0.113551	0.000086
C18	C	0.514922	-0.155437	-0.076035
C19	C	0.514929	-0.155464	0.076086
C20	C	0.453937	-0.194476	0.000024
C21	C	0.669705	-0.118137	0.000062
C22	C	0.314789	-0.111883	0.000089
C23	C	0.998367	0.038561	0.000092
C24	C	0.996705	0.131807	0.000093
C25	C	1.145813	-0.108885	0.000096
C26	C	1.239059	-0.110547	0.000098
C27	C	0.986120	-0.268577	0.000072
C28	C	0.987782	-0.361823	0.000066
N29	N	0.992219	-0.115035	0.219558
C30	C	0.912801	0.346663	0.000072
C31	C	0.951753	0.407671	0.076117
C32	C	0.993698	0.302533	0.000085
C33	C	0.951793	0.407674	-0.075935
C34	C	0.990787	0.467445	0.000074
C35	C	1.032672	0.362312	0.076193
C36	C	1.032701	0.362308	-0.075927
C37	C	1.071711	0.423298	0.000136
C38	C	0.995372	0.207530	0.000092
C39	C	0.989119	0.562446	0.000073
N40	N	0.992275	-0.114975	-0.219392
C41	C	0.932581	-0.174636	0.469202
C42	C	1.008481	-0.190943	0.531011
C43	C	0.992240	-0.115015	0.408719
C44	C	0.916359	-0.098727	0.531005
C45	C	0.992253	-0.114997	0.591441
C46	C	1.068178	-0.131360	0.469167
C47	C	0.976007	-0.039111	0.469156
C48	C	1.051961	-0.055386	0.530936
C49	C	0.992231	-0.115027	0.303458
C50	C	0.992270	-0.114985	0.696700
H51	H	0.534918	-0.189620	-0.140394
C52	C	0.386907	-0.083509	-0.215512
C53	C	0.442428	-0.028326	-0.162747
H54	H	0.370167	-0.054989	-0.269093
H55	H	0.338534	-0.102242	-0.179463
H56	H	0.414376	-0.130715	-0.233778
H57	H	0.414957	0.018877	-0.144475
H58	H	0.490810	-0.009580	-0.198803
H59	H	0.563905	0.031573	-0.000005
C60	C	0.501858	-0.284367	0.163654
C61	C	0.542104	-0.201626	0.162869
H62	H	0.518633	-0.312856	0.217240
H63	H	0.517213	-0.313167	0.109681
H64	H	0.442431	-0.283188	0.164589
H65	H	0.601531	-0.202805	0.161928
H66	H	0.526754	-0.172818	0.216856
C67	C	0.358091	-0.297544	-0.078944
C68	C	0.409163	-0.285198	-0.000036
H69	H	0.330446	-0.353550	-0.078979
H70	H	0.392039	-0.288802	-0.132962
H71	H	0.317143	-0.258661	-0.078394
H72	H	0.450116	-0.324078	-0.000589
H73	H	0.375213	-0.293949	0.053997
C74	C	0.864741	-0.241556	0.335510
C75	C	0.864544	-0.242748	0.432595
H76	H	0.822737	-0.283603	0.312912
H77	H	0.918535	-0.252595	0.313437
H78	H	0.853070	-0.187664	0.314341
H79	H	0.876221	-0.296639	0.453765
H80	H	0.810738	-0.231715	0.454677
C81	C	0.809362	0.251699	-0.079518
C82	C	0.822154	0.301698	0.000154
H83	H	0.753400	0.223945	-0.079466
H84	H	0.848336	0.210848	-0.080100
H85	H	0.817661	0.286400	-0.133023
H86	H	0.813861	0.266996	0.053659
H87	H	0.783168	0.342554	0.000745
C88	C	0.905166	0.522589	0.162382
C89	C	0.905554	0.434815	0.162896
H90	H	0.876646	0.539342	0.215956
H91	H	0.876979	0.538870	0.108388
H92	H	0.961615	0.549079	0.162469
H93	H	0.849106	0.408325	0.162802
H94	H	0.933740	0.418525	0.216904
C95	C	1.036718	0.358757	0.242565
C96	C	1.078811	0.335326	0.163083
H97	H	1.065204	0.342099	0.296205
H98	H	0.980448	0.331823	0.242338
H99	H	1.035968	0.418244	0.243060
H100	H	1.079555	0.275838	0.162583
H101	H	1.135096	0.362257	0.163309
C102	C	0.877881	0.064423	0.463596
C103	C	0.957424	0.047503	0.432437
H104	H	0.866401	0.117893	0.440920
H105	H	0.877239	0.064909	0.529451
H106	H	0.836055	0.021949	0.441534
H107	H	0.999250	0.089975	0.454504
H108	H	0.958072	0.047025	0.366568
C109	C	0.481514	0.054832	0.162728
C110	C	0.442436	-0.028363	0.162881
H111	H	0.464770	0.083351	0.216306
H112	H	0.465217	0.083018	0.108738
H113	H	0.541058	0.054546	0.163051
H114	H	0.382891	-0.028076	0.162551
H115	H	0.458727	-0.056556	0.216885
H116	H	0.852183	-0.084959	0.558170
C117	C	1.204569	0.445190	0.079887
C118	C	1.162434	0.468072	0.000201
H119	H	1.260574	0.472838	0.079931
H120	H	1.206108	0.385815	0.080391
H121	H	1.175605	0.461412	0.133383
H122	H	1.191394	0.451844	-0.053296
H123	H	1.160899	0.527460	-0.000312
C124	C	1.036388	0.357764	-0.242269
C125	C	1.078863	0.335132	-0.162710
H126	H	1.064880	0.340978	-0.295848
H127	H	1.035227	0.417185	-0.243201
H128	H	0.980255	0.330463	-0.241718
H129	H	1.134995	0.362438	-0.163257
H130	H	1.080033	0.275699	-0.161778
H131	H	0.917575	0.427758	-0.140230
C132	C	0.964478	-0.339936	0.536545
C133	C	1.027033	-0.277583	0.567699
H134	H	0.975926	-0.393423	0.559198
H135	H	0.964101	-0.340725	0.470690
H136	H	0.910983	-0.327953	0.558633
H137	H	1.080528	-0.289563	0.545605
H138	H	1.027419	-0.276797	0.633568
C139	C	1.153997	-0.150031	0.335572
C140	C	1.154812	-0.150124	0.432661
H141	H	1.207471	-0.161642	0.313036
H142	H	1.142419	-0.096288	0.313866
H143	H	1.111555	-0.192111	0.313970
H144	H	1.197249	-0.108039	0.454263
H145	H	1.166400	-0.203874	0.454376
H146	H	1.102474	-0.004956	0.557872
