data_functionalizedCrystal
_audit_creation_method	'MofGen! by Chris Wilmer'
_symmetry_space_group_name_H-M	'P1'
_symmetry_Int_Tables_number	1
_symmetry_cell_setting	triclinic
loop_
_symmetry_equiv_pos_as_xyz
  x,y,z
_cell_length_a	11.792254
_cell_length_b	13.596369
_cell_length_c	11.792241
_cell_angle_alpha	89.999002
_cell_angle_beta	95.803993
_cell_angle_gamma	90.005263
loop_
_atom_site_label
_atom_site_type_symbol
_atom_site_fract_x
_atom_site_fract_y
_atom_site_fract_z
O1	O	1.506901	0.081779	-0.155638
O2	O	1.756901	0.331779	0.094362
O3	O	2.006901	0.581779	0.344362
O4	O	2.256901	0.831779	0.594362
O5	O	1.176562	0.081780	-0.171656
O6	O	1.426562	0.331780	0.078344
O7	O	1.676562	0.581780	0.328344
O8	O	1.926562	0.831780	0.578344
O9	O	1.349748	0.081785	0.001523
O10	O	1.599748	0.331785	0.251523
O11	O	1.849748	0.581785	0.501523
O12	O	2.099748	0.831785	0.751523
O13	O	1.333715	0.081774	-0.328817
O14	O	1.583715	0.331774	-0.078817
O15	O	1.833715	0.581774	0.171183
O16	O	2.083715	0.831774	0.421183
O17	O	1.349731	-0.081798	0.001532
O18	O	1.599731	0.168202	0.251532
O19	O	1.849731	0.418202	0.501532
O20	O	2.099731	0.668202	0.751532
O21	O	1.176545	-0.081803	-0.171647
O22	O	1.426545	0.168197	0.078353
O23	O	1.676545	0.418197	0.328353
O24	O	1.926545	0.668197	0.578353
O25	O	1.506884	-0.081804	-0.155629
O26	O	1.756884	0.168196	0.094371
O27	O	2.006884	0.418196	0.344371
O28	O	2.256884	0.668196	0.594371
Zn29	Zn	1.341712	-0.107776	-0.163636
Zn30	Zn	1.591712	0.142224	0.086364
Zn31	Zn	1.841712	0.392224	0.336364
Zn32	Zn	2.091712	0.642224	0.586364
Zn33	Zn	1.341735	0.107752	-0.163649
Zn34	Zn	1.591735	0.357752	0.086351
Zn35	Zn	1.841735	0.607752	0.336351
Zn36	Zn	2.091735	0.857752	0.586351
O37	O	1.333698	-0.081809	-0.328808
O38	O	1.583698	0.168191	-0.078808
O39	O	1.833698	0.418191	0.171192
O40	O	2.083698	0.668191	0.421192
C41	C	1.134263	-0.000011	-0.170642
C42	C	1.384263	0.249989	0.079358
C43	C	1.634263	0.499989	0.329358
C44	C	1.884263	0.749989	0.579358
C45	C	1.008250	-0.000010	-0.167622
C46	C	1.258250	0.249990	0.082378
C47	C	1.508250	0.499990	0.332378
C48	C	1.758250	0.749990	0.582378
C49	C	0.905913	-0.000006	-0.165168
C50	C	1.155913	0.249994	0.084832
C51	C	1.405913	0.499994	0.334832
C52	C	1.655913	0.749994	0.584832
C53	C	0.777527	-0.000005	-0.162100
C54	C	1.027527	0.249995	0.087900
C55	C	1.277527	0.499995	0.337900
C56	C	1.527527	0.749995	0.587900
N57	N	1.341704	-0.254868	-0.163627
N58	N	1.591704	-0.004868	0.086373
N59	N	1.841704	0.245132	0.336373
N60	N	2.091704	0.495132	0.586373
C61	C	1.341733	-0.656159	-0.163650
C62	C	1.591733	-0.406159	0.086350
C63	C	1.841733	-0.156159	0.336350
C64	C	2.091733	0.093841	0.586350
C65	C	1.341722	-0.544507	-0.163647
C66	C	1.591722	-0.294507	0.086353
C67	C	1.841722	-0.044507	0.336353
C68	C	2.091722	0.205493	0.586353
C69	C	1.341719	-0.455517	-0.163639
C70	C	1.591719	-0.205517	0.086361
C71	C	1.841719	0.044483	0.336361
C72	C	2.091719	0.294483	0.586361
C73	C	1.341707	-0.343858	-0.163635
C74	C	1.591707	-0.093858	0.086365
C75	C	1.841707	0.156142	0.336365
C76	C	2.091707	0.406142	0.586365
C77	C	1.549183	-0.000011	-0.156643
C78	C	1.799183	0.249989	0.093357
C79	C	2.049183	0.499989	0.343357
C80	C	2.299183	0.749989	0.593357
C81	C	1.675196	-0.000005	-0.159663
C82	C	1.925196	0.249995	0.090337
C83	C	2.175196	0.499995	0.340337
C84	C	2.425196	0.749995	0.590337
C85	C	1.334714	-0.000019	-0.371104
C86	C	1.584714	0.249981	-0.121104
C87	C	1.834714	0.499981	0.128896
C88	C	2.084714	0.749981	0.378896
C89	C	1.337728	-0.000024	-0.497118
C90	C	1.587728	0.249976	-0.247118
C91	C	1.837728	0.499976	0.002882
C92	C	2.087728	0.749976	0.252882
N93	N	1.341751	0.254844	-0.163649
N94	N	1.591751	0.504844	0.086351
N95	N	1.841751	0.754844	0.336351
N96	N	2.091751	1.004844	0.586351
C97	C	1.343271	0.000001	-0.727830
C98	C	1.593271	0.250001	-0.477830
C99	C	1.843271	0.500001	-0.227830
C100	C	2.093271	0.750001	0.022170
C101	C	1.340191	-0.000013	-0.599445
C102	C	1.590191	0.249987	-0.349445
C103	C	1.840191	0.499987	-0.099445
C104	C	2.090191	0.749987	0.150555
C105	C	1.348732	-0.000003	0.043819
C106	C	1.598732	0.249997	0.293819
C107	C	1.848732	0.499997	0.543819
C108	C	2.098732	0.749997	0.793819
C109	C	1.345718	0.000008	0.169832
C110	C	1.595718	0.250008	0.419832
C111	C	1.845718	0.500008	0.669832
C112	C	2.095718	0.750008	0.919832
