data_functionalizedCrystal
_audit_creation_method	'MofGen! by Chris Wilmer'
_symmetry_space_group_name_H-M	'P1'
_symmetry_Int_Tables_number	1
_symmetry_cell_setting	triclinic
loop_
_symmetry_equiv_pos_as_xyz
  x,y,z
_cell_length_a	10.723024
_cell_length_b	19.188930
_cell_length_c	9.198806
_cell_angle_alpha	89.991701
_cell_angle_beta	89.996352
_cell_angle_gamma	83.806325
loop_
_atom_site_label
_atom_site_type_symbol
_atom_site_fract_x
_atom_site_fract_y
_atom_site_fract_z
O1	O	1.655155	0.097922	-0.120901
O2	O	1.291808	0.107295	-0.120908
O3	O	1.483967	0.001021	-0.120876
O4	O	1.462996	0.204196	-0.120933
O5	O	1.483952	0.001021	0.120909
O6	O	1.291793	0.107295	0.120877
O7	O	1.655140	0.097922	0.120884
Cu8	Cu	1.473465	0.102608	0.142957
Cu9	Cu	1.473483	0.102609	-0.142982
O10	O	1.462981	0.204196	0.120852
C11	C	1.245315	0.106613	-0.000016
C12	C	1.106803	0.104572	-0.000017
C13	C	1.030586	0.164037	-0.000035
C14	C	0.887427	0.161930	-0.000036
C15	C	1.483280	-0.024995	0.000021
C16	C	1.481242	-0.102512	0.000033
C17	C	1.593994	-0.146704	0.000042
C18	C	1.592079	-0.219540	0.000019
C19	C	1.477405	-0.248182	0.000016
C20	C	1.364638	-0.203981	-0.000002
C21	C	1.366556	-0.131146	0.000007
N22	N	1.389745	-0.356756	0.082298
N23	N	1.387930	-0.425947	0.082293
C24	C	1.471618	-0.467628	-0.000014
N25	N	1.557208	-0.437506	-0.082297
N26	N	1.559026	-0.368310	-0.082285
C27	C	1.475312	-0.327158	0.000005
C28	C	1.582302	-0.590797	-0.000032
C29	C	1.580382	-0.663634	-0.000065
C30	C	1.352937	-0.648073	-0.000070
C31	C	1.354860	-0.575238	-0.000053
C32	C	1.469546	-0.546604	-0.000027
C33	C	1.701633	0.098604	-0.000012
C34	C	1.840145	0.100645	-0.000020
C35	C	1.463668	0.230211	-0.000048
C36	C	1.465706	0.307729	-0.000070
N37	N	1.473462	0.102608	0.344071
N38	N	1.473496	0.102604	-0.344096
C39	C	1.554148	0.057789	0.416282
C40	C	1.554167	0.057787	0.583694
H41	H	1.066070	0.052101	-0.000040
N42	N	1.717685	-0.115820	0.000067
H43	H	1.788824	-0.154872	0.000069
H44	H	1.723447	-0.085932	-0.089562
H45	H	1.071319	0.216508	-0.000041
N46	N	1.713694	-0.267216	0.000025
H47	H	1.786637	-0.238024	0.000041
H48	H	1.717834	-0.297780	0.089657
H49	H	1.404419	0.140979	0.593816
H50	H	1.404393	0.140974	0.406188
H51	H	1.271269	-0.227305	-0.000007
N52	N	1.233252	-0.527565	-0.000045
H53	H	1.183205	-0.536830	-0.089676
H54	H	1.183296	-0.536869	0.089643
N55	N	1.645684	0.006962	0.665935
H56	H	1.632728	0.014166	0.773870
H57	H	1.631312	-0.042617	0.639426
H58	H	1.274736	-0.095165	0.000000
H59	H	0.821937	0.212836	-0.000057
N60	N	0.926865	0.033202	-0.000000
H61	H	0.981544	0.031202	-0.089628
H62	H	0.981450	0.031243	0.089690
H63	H	1.675686	-0.567482	-0.000018
N64	N	1.645606	0.006945	0.334019
H65	H	1.632615	0.014146	0.226085
H66	H	1.734181	0.015294	0.360505
N67	N	1.701999	-0.711302	-0.000061
H68	H	1.774937	-0.682107	-0.000038
H69	H	1.706140	-0.741870	0.089567
H70	H	1.259567	-0.671393	-0.000080
