data_functionalizedCrystal
_audit_creation_method	'MofGen! by Chris Wilmer'
_symmetry_space_group_name_H-M	'P1'
_symmetry_Int_Tables_number	1
_symmetry_cell_setting	triclinic
loop_
_symmetry_equiv_pos_as_xyz
  x,y,z
_cell_length_a	12.594517
_cell_length_b	18.050589
_cell_length_c	12.594509
_cell_angle_alpha	90.031661
_cell_angle_beta	90.022508
_cell_angle_gamma	90.019966
loop_
_atom_site_label
_atom_site_type_symbol
_atom_site_fract_x
_atom_site_fract_y
_atom_site_fract_z
Zn1	Zn	1.627237	-0.295660	0.601848
Zn2	Zn	1.627113	-0.419860	0.423854
Zn3	Zn	1.449240	-0.295687	0.423874
Zn4	Zn	1.449209	-0.419811	0.601782
O5	O	1.538200	-0.357755	0.512840
O6	O	1.776166	-0.312144	0.578257
O7	O	1.603479	-0.403420	0.274911
O8	O	1.472916	-0.191759	0.447519
O9	O	1.776075	-0.403394	0.447485
O10	O	1.603690	-0.191739	0.578276
O11	O	1.472796	-0.312191	0.274926
O12	O	1.300290	-0.312144	0.447455
O13	O	1.472864	-0.403310	0.750736
O14	O	1.300267	-0.403337	0.578162
O15	O	1.603660	-0.312097	0.750785
O16	O	1.603449	-0.523778	0.447420
O17	O	1.472744	-0.523742	0.578143
C18	C	1.261659	-0.357738	0.512804
C19	C	1.143353	-0.357749	0.512814
C20	C	1.003318	-0.308095	0.441885
C21	C	1.074179	-0.290002	0.539013
C22	C	1.074064	-0.375809	0.415696
C23	C	1.003429	-0.339651	0.610072
C24	C	1.003307	-0.425489	0.486689
C25	C	1.074136	-0.407422	0.583885
C26	C	1.538108	-0.550707	0.512795
C27	C	1.538167	-0.633252	0.512812
C28	C	1.609429	-0.882071	0.441843
C29	C	1.512316	-0.832740	0.415698
C30	C	1.538300	-0.930373	0.512894
C31	C	1.635342	-0.832622	0.538948
C32	C	1.538240	-0.784388	0.512851
C33	C	1.441136	-0.882129	0.486699
C34	C	1.564228	-0.882016	0.609994
C35	C	1.467047	-0.832707	0.583886
C36	C	1.538337	-1.014471	0.512916
C37	C	1.538192	-0.700291	0.512829
C38	C	1.815820	-0.357771	0.512876
C39	C	1.934126	-0.357778	0.512892
C40	C	1.538272	-0.357695	0.790461
C41	C	1.538303	-0.357669	0.908766
C42	C	1.538320	-0.164049	0.512907
C43	C	1.538372	-0.081503	0.512936
C44	C	1.538189	-0.357761	0.236299
C45	C	1.538364	-0.357577	0.117994
C46	C	1.467208	-0.407218	1.048756
C47	C	1.441193	-0.339492	0.977963
C48	C	1.564271	-0.425388	0.977988
C49	C	1.512299	-0.289815	1.048758
C50	C	1.635422	-0.375756	1.048790
C51	C	1.609443	-0.307983	0.978028
H52	H	0.972530	-0.324322	0.692260
C53	C	1.116247	-0.212634	0.568921
C54	C	1.086835	-0.178046	0.676763
C55	C	1.128900	-0.100677	0.706663
C56	C	1.200377	-0.057896	0.628721
C57	C	1.229793	-0.092484	0.520872
C58	C	1.187728	-0.169853	0.490972
H59	H	1.033920	-0.209715	0.734467
H60	H	1.107124	-0.075073	0.786501
H61	H	1.231516	-0.000623	0.650855
H62	H	1.282708	-0.060814	0.463168
H63	H	1.209504	-0.195456	0.411134
C64	C	1.593935	-0.911290	0.720917
C65	C	1.598446	-0.995321	0.741468
C66	C	1.628168	-1.024597	0.852391
C67	C	1.653380	-0.969843	0.942763
C68	C	1.648869	-0.885807	0.922215
C69	C	1.619147	-0.856531	0.811292
H70	H	1.579783	-1.035858	0.674566
H71	H	1.631507	-1.086806	0.867601
H72	H	1.675382	-0.991515	1.024875
H73	H	1.667533	-0.845270	0.989116
H74	H	1.615809	-0.794322	0.796082
H75	H	0.972154	-0.482746	0.464525
C76	C	1.115990	-0.396430	0.304702
C77	C	1.088007	-0.347804	0.208248
C78	C	1.129934	-0.368417	0.097253
C79	C	1.199843	-0.437655	0.082712
C80	C	1.227830	-0.486285	0.179170
C81	C	1.185903	-0.465673	0.290165
H82	H	1.036253	-0.296546	0.219009
H83	H	1.109216	-0.332417	0.025849
H84	H	1.230880	-0.452913	0.000547
H85	H	1.279584	-0.537543	0.168409
H86	H	1.206621	-0.501672	0.361569
H87	H	1.105033	-0.449426	0.643969
C88	C	1.690621	-0.911361	0.360641
C89	C	1.756203	-0.856620	0.293647
C90	C	1.837387	-0.885912	0.212442
C91	C	1.852990	-0.969945	0.198232
C92	C	1.787407	-1.024691	0.265228
C93	C	1.706223	-0.995399	0.346432
H94	H	1.744654	-0.794410	0.304164
H95	H	1.885936	-0.845385	0.162848
H96	H	1.913088	-0.991629	0.138120
H97	H	1.798956	-1.086902	0.254711
H98	H	1.657674	-1.035926	0.396027
H99	H	1.490353	-0.811093	0.333564
H100	H	1.359020	-0.903783	0.464552
C101	C	1.385663	-0.803593	0.665023
C102	C	1.267310	-0.823326	0.652915
C103	C	1.185922	-0.794205	0.734042
C104	C	1.222886	-0.745350	0.827276
C105	C	1.341245	-0.725614	0.839388
C106	C	1.422633	-0.754735	0.758261
H107	H	1.239942	-0.859494	0.583894
H108	H	1.098305	-0.808815	0.725075
H109	H	1.162638	-0.723792	0.887330
H110	H	1.368613	-0.689446	0.908408
H111	H	1.510250	-0.740125	0.767228
H112	H	1.717504	-0.391117	1.079924
C113	C	1.482526	-0.212371	1.090566
C114	C	1.374382	-0.178067	1.061673
C115	C	1.344606	-0.100626	1.103482
C116	C	1.422974	-0.057490	1.174184
C117	C	1.531125	-0.091794	1.203081
C118	C	1.560901	-0.169234	1.161272
H119	H	1.316363	-0.210000	1.009332
H120	H	1.264545	-0.075233	1.082090
H121	H	1.400932	-0.000163	1.205134
H122	H	1.589144	-0.059861	1.255422
H123	H	1.640962	-0.194628	1.182663
H124	H	1.717434	-0.810876	0.561002
C125	C	1.593917	-0.502806	0.935993
C126	C	1.524310	-0.570184	0.963919
C127	C	1.553945	-0.647603	0.921926
C128	C	1.653187	-0.657644	0.852008
C129	C	1.722800	-0.590263	0.824078
C130	C	1.693165	-0.512845	0.866070
H131	H	1.450839	-0.562753	1.015680
H132	H	1.502413	-0.697482	0.942602
H133	H	1.675125	-0.714954	0.820923
H134	H	1.796271	-0.597694	0.772317
H135	H	1.744698	-0.462965	0.845395
H136	H	1.407014	-0.449106	1.079813
C137	C	1.690701	-0.251264	0.936329
C138	C	1.678769	-0.168664	0.964529
C139	C	1.760022	-0.111943	0.922828
C140	C	1.853207	-0.137823	0.852928
C141	C	1.865143	-0.220428	0.824725
C142	C	1.783891	-0.277148	0.866425
H143	H	1.609785	-0.149502	1.016276
H144	H	1.751186	-0.050793	0.943706
H145	H	1.913356	-0.095835	0.822058
H146	H	1.934128	-0.239590	0.772977
H147	H	1.792727	-0.338298	0.845547
C148	C	0.961298	-0.251313	0.360912
C149	C	0.989292	-0.168695	0.373153
C150	C	0.947269	-0.111912	0.292187
C151	C	0.877252	-0.137747	0.198981
C152	C	0.849255	-0.220369	0.186736
C153	C	0.891278	-0.277152	0.267702
H154	H	1.041126	-0.149567	0.442153
H155	H	0.967995	-0.050750	0.301252
H156	H	0.846145	-0.095713	0.139046
H157	H	0.797421	-0.239498	0.117736
H158	H	0.870552	-0.338315	0.258637
C159	C	1.330278	-0.318771	0.935920
C160	C	1.310193	-0.314370	0.815471
C161	C	1.199276	-0.293657	0.773431
C162	C	1.108443	-0.277344	0.851839
C163	C	1.128525	-0.281744	0.972295
C164	C	1.239443	-0.302458	1.014335
H165	H	1.377435	-0.326446	0.757423
H166	H	1.184410	-0.290400	0.684261
H167	H	1.026336	-0.262011	0.820718
H168	H	1.061284	-0.269668	1.030343
H169	H	1.254308	-0.305715	1.103505
