data_functionalizedCrystal
_audit_creation_method	'MofGen! by Chris Wilmer'
_symmetry_space_group_name_H-M	'P1'
_symmetry_Int_Tables_number	1
_symmetry_cell_setting	triclinic
loop_
_symmetry_equiv_pos_as_xyz
  x,y,z
_cell_length_a	12.759401
_cell_length_b	12.645330
_cell_length_c	12.759393
_cell_angle_alpha	90.032183
_cell_angle_beta	90.018496
_cell_angle_gamma	90.012807
loop_
_atom_site_label
_atom_site_type_symbol
_atom_site_fract_x
_atom_site_fract_y
_atom_site_fract_z
Zn1	Zn	1.606270	-0.421972	0.593977
Zn2	Zn	2.106270	0.078028	1.093977
Zn3	Zn	1.606171	-0.599276	0.418295
Zn4	Zn	2.106171	-0.099276	0.918295
Zn5	Zn	1.430572	-0.422028	0.418316
Zn6	Zn	1.930572	0.077972	0.918316
Zn7	Zn	1.430567	-0.599195	0.593937
Zn8	Zn	1.930567	-0.099195	1.093937
O9	O	1.518395	-0.510618	0.506131
O10	O	2.018395	-0.010618	1.006131
O11	O	1.753278	-0.445503	0.570680
O12	O	2.253278	0.054497	1.070680
O13	O	1.582838	-0.575821	0.271277
O14	O	2.082838	-0.075821	0.771277
O15	O	1.453923	-0.273673	0.441644
O16	O	1.953923	0.226327	0.941644
O17	O	1.753205	-0.575767	0.441608
O18	O	2.253205	-0.075767	0.941608
O19	O	1.583007	-0.273632	0.570701
O20	O	2.083007	0.226368	1.070701
O21	O	1.453826	-0.445598	0.271292
O22	O	1.953826	0.054402	0.771292
O23	O	1.283551	-0.445518	0.441605
O24	O	1.783551	0.054482	0.941605
O25	O	1.453914	-0.575628	0.740963
O26	O	1.953914	-0.075628	1.240963
O27	O	1.283547	-0.575682	0.570632
O28	O	1.783547	-0.075682	1.070632
O29	O	1.583002	-0.445424	0.740993
O30	O	2.083002	0.054576	1.240993
O31	O	1.582833	-0.747613	0.441569
O32	O	2.082833	-0.247613	0.941569
O33	O	1.453818	-0.747553	0.570612
O34	O	1.953818	-0.247553	1.070612
C35	C	1.245428	-0.510598	0.506117
C36	C	1.745428	-0.010598	1.006117
C37	C	1.128651	-0.510615	0.506136
C38	C	1.628651	-0.010615	1.006136
C39	C	1.073815	-0.578500	0.573209
C40	C	1.573815	-0.078500	1.073209
C41	C	0.964091	-0.578514	0.573221
C42	C	1.464091	-0.078514	1.073221
C43	C	0.964049	-0.442755	0.439076
C44	C	1.464049	0.057245	0.939076
C45	C	1.073771	-0.442737	0.439071
C46	C	1.573771	0.057263	0.939071
C47	C	1.128695	-0.646379	0.640274
C48	C	1.628695	-0.146379	1.140274
C49	C	1.073858	-0.714270	0.707352
C50	C	1.573858	-0.214270	1.207352
C51	C	0.964134	-0.714284	0.707364
C52	C	1.464134	-0.214284	1.207364
C53	C	0.909247	-0.646406	0.640297
C54	C	1.409247	-0.146406	1.140297
C55	C	1.518343	-0.786047	0.506106
C56	C	2.018343	-0.286047	1.006106
C57	C	1.518416	-0.903877	0.506131
C58	C	2.018416	-0.403877	1.006131
C59	C	1.599449	-1.071435	0.424785
C60	C	2.099449	-0.571435	0.924785
C61	C	1.599713	-0.948875	0.424984
C62	C	2.099713	-0.448875	0.924984
C63	C	1.548444	-0.948249	0.616875
C64	C	2.048444	-0.448249	1.116875
C65	C	1.549087	-1.070848	0.616443
C66	C	2.049087	-0.570848	1.116443
C67	C	1.407324	-1.071208	0.477824
C68	C	1.907324	-0.571208	0.977824
C69	C	1.407856	-0.948604	0.475340
C70	C	1.907856	-0.448604	0.975340
C71	C	1.792428	-0.510638	0.506146
C72	C	2.292428	-0.010638	1.006146
C73	C	1.909205	-0.510647	0.506152
C74	C	2.409205	-0.010647	1.006152
C75	C	1.518469	-0.510511	0.780165
C76	C	2.018469	-0.010511	1.280165
C77	C	1.518500	-0.510465	0.896941
C78	C	2.018500	-0.010465	1.396941
C79	C	1.518477	-0.234112	0.506179
C80	C	2.018477	0.265888	1.006179
C81	C	1.518511	-0.116282	0.506200
C82	C	2.018511	0.383718	1.006200
C83	C	1.518382	-0.510648	0.233164
C84	C	2.018382	-0.010648	0.733164
C85	C	1.518555	-0.510395	0.116388
C86	C	2.018555	-0.010395	0.616388
C87	C	1.585726	-0.442661	0.951821
C88	C	2.085726	0.057339	1.451821
C89	C	1.585751	-0.442623	1.061545
C90	C	2.085751	0.057377	1.561545
C91	C	1.451322	-0.578202	1.061501
C92	C	1.951322	-0.078202	1.561501
C93	C	1.451292	-0.578234	0.951779
C94	C	1.951292	-0.078234	1.451779
C95	C	1.652934	-0.374893	0.896983
C96	C	2.152934	0.125107	1.396983
C97	C	1.720166	-0.307084	0.951862
C98	C	2.220166	0.192916	1.451862
C99	C	1.720191	-0.307046	1.061587
C100	C	2.220191	0.192954	1.561587
C101	C	1.652984	-0.374816	1.116432
C102	C	2.152984	0.125184	1.616432
H103	H	0.919489	-0.769556	0.761989
H104	H	1.419489	-0.269556	1.261989
C105	C	1.377401	-0.652745	1.121835
C106	C	1.877401	-0.152745	1.621835
N107	N	1.321724	-0.708894	1.167278
N108	N	1.821724	-0.208894	1.667278
C109	C	1.794084	-0.232536	0.891531
C110	C	2.294084	0.267464	1.391531
N111	N	1.849761	-0.176385	0.846091
N112	N	2.349761	0.323615	1.346091
H113	H	1.396535	-0.633429	0.907095
H114	H	1.896535	-0.133429	1.407095
C115	C	1.325852	-1.110394	0.557928
C116	C	1.825852	-0.610394	1.057928
N117	N	1.264496	-1.139915	0.618265
N118	N	1.764496	-0.639915	1.118265
C119	C	1.134095	-0.368063	0.365283
C120	C	1.634095	0.131937	0.865283
N121	N	1.179531	-0.311816	0.309705
N122	N	1.679531	0.188184	0.809705
C123	C	0.903669	-0.368101	0.365302
C124	C	1.403669	0.131899	0.865302
N125	N	0.858190	-0.311873	0.309730
N126	N	1.358190	0.188127	0.809730
C127	C	1.794142	-0.232452	1.121951
C128	C	2.294142	0.267548	1.621951
N129	N	1.849849	-0.176270	1.167415
N130	N	2.349849	0.323730	1.667415
H131	H	1.218038	-0.646378	0.640271
H132	H	1.718038	-0.146378	1.140271
H133	H	1.681361	-1.102163	0.443343
H134	H	2.181361	-0.602163	0.943343
H135	H	0.819902	-0.646413	0.640321
H136	H	1.319902	-0.146413	1.140321
H137	H	1.652923	-0.374918	0.807640
H138	H	2.152923	0.125082	1.307640
H139	H	1.118555	-0.769527	0.761962
H140	H	1.618555	-0.269527	1.261962
C141	C	1.574294	-0.908349	0.314059
C142	C	2.074294	-0.408349	0.814059
N143	N	1.555138	-0.877831	0.230507
N144	N	2.055138	-0.377831	0.730507
H145	H	1.652997	-0.374767	1.205776
H146	H	2.152997	0.125233	1.705776
H147	H	1.385215	-0.919614	0.393842
H148	H	1.885215	-0.419614	0.893842
H149	H	1.580897	-1.100995	0.342430
H150	H	2.080897	-0.600995	0.842430
H151	H	1.682066	-0.919465	0.443752
H152	H	2.182066	-0.419465	0.943752
H153	H	1.630360	-1.099358	0.640480
H154	H	2.130360	-0.599358	1.140480
C155	C	1.472916	-1.110922	0.701196
C156	C	1.972916	-0.610922	1.201196
N157	N	1.415553	-1.141102	0.765038
N158	N	1.915553	-0.641102	1.265038
H159	H	1.491287	-0.919098	0.679160
H160	H	1.991287	-0.419098	1.179160
H161	H	1.628799	-0.917459	0.641312
H162	H	2.128799	-0.417459	1.141312
H163	H	1.380017	-1.102224	0.398476
H164	H	1.880017	-0.602224	0.898476
H165	H	1.344298	-0.917984	0.530291
H166	H	1.844298	-0.417984	1.030291
