data_functionalizedCrystal
_audit_creation_method	'MofGen! by Chris Wilmer'
_symmetry_space_group_name_H-M	'P1'
_symmetry_Int_Tables_number	1
_symmetry_cell_setting	triclinic
loop_
_symmetry_equiv_pos_as_xyz
  x,y,z
_cell_length_a	16.959455
_cell_length_b	12.645330
_cell_length_c	16.959447
_cell_angle_alpha	89.973930
_cell_angle_beta	89.985678
_cell_angle_gamma	90.014639
loop_
_atom_site_label
_atom_site_type_symbol
_atom_site_fract_x
_atom_site_fract_y
_atom_site_fract_z
Zn1	Zn	1.208397	-0.422105	-0.446932
Zn2	Zn	1.208325	-0.599396	-0.314763
Zn3	Zn	1.076225	-0.422138	-0.314770
Zn4	Zn	1.076195	-0.599317	-0.446902
O5	O	1.142286	-0.510739	-0.380842
O6	O	1.318998	-0.445642	-0.429410
O7	O	1.190784	-0.575930	-0.204153
O8	O	1.093801	-0.273786	-0.332316
O9	O	1.318945	-0.575898	-0.332306
O10	O	1.190907	-0.273762	-0.429416
O11	O	1.093731	-0.445699	-0.204158
O12	O	0.965610	-0.445622	-0.332287
O13	O	1.093750	-0.575763	-0.557517
O14	O	0.965589	-0.575795	-0.429364
O15	O	1.190878	-0.445565	-0.557539
O16	O	1.190755	-0.747733	-0.332277
O17	O	1.093680	-0.747675	-0.429358
C18	C	0.936919	-0.510704	-0.380824
C19	C	0.849063	-0.510715	-0.380835
C20	C	0.477574	-0.442903	-0.330399
C21	C	0.477600	-0.578663	-0.431329
C22	C	0.560146	-0.578648	-0.431325
C23	C	0.601410	-0.510760	-0.380855
C24	C	0.560128	-0.442888	-0.330391
C25	C	0.601434	-0.646526	-0.481782
C26	C	0.683985	-0.646515	-0.481779
C27	C	0.725251	-0.578621	-0.431313
C28	C	0.683963	-0.510745	-0.380847
C29	C	0.725227	-0.442857	-0.330378
C30	C	0.683941	-0.374975	-0.279916
C31	C	0.601393	-0.374994	-0.279925
C32	C	0.807799	-0.578602	-0.431304
C33	C	0.807781	-0.442842	-0.330370
C34	C	1.142228	-0.786169	-0.380831
C35	C	1.142276	-0.903999	-0.380852
C36	C	1.081458	-1.071570	-0.442115
C37	C	1.081147	-0.949011	-0.441918
C38	C	1.119734	-0.948594	-0.297551
C39	C	1.119363	-1.071192	-0.297922
C40	C	1.226007	-1.071094	-0.402216
C41	C	1.225494	-0.948487	-0.404038
C42	C	1.348454	-0.510775	-0.380860
C43	C	1.436310	-0.510790	-0.380868
C44	C	1.142319	-0.510651	-0.587010
C45	C	1.142333	-0.510614	-0.674867
C46	C	1.142365	-0.234234	-0.380870
C47	C	1.142399	-0.116404	-0.380882
C48	C	1.091857	-0.578290	-1.046333
C49	C	1.192997	-0.442715	-1.046352
C50	C	1.192976	-0.442737	-0.963806
C51	C	1.142395	-0.510538	-0.922520
C52	C	1.091836	-0.578317	-0.963780
C53	C	1.243540	-0.374967	-0.922539
C54	C	1.243522	-0.374988	-0.839988
C55	C	1.192937	-0.442784	-0.798701
C56	C	1.142375	-0.510565	-0.839966
C57	C	1.091794	-0.578366	-0.798680
C58	C	1.041227	-0.646142	-0.839944
C59	C	1.041251	-0.646113	-0.922492
C60	C	1.192913	-0.442813	-0.716153
C61	C	1.091773	-0.578393	-0.716127
C62	C	1.142298	-0.510750	-0.175475
C63	C	1.142437	-0.510489	-0.087619
H64	H	0.841410	-0.633874	-0.472387
C65	C	1.298407	-0.301192	-0.967267
C66	C	1.281241	-0.196306	-0.947191
C67	C	1.331776	-0.128314	-0.988376
H68	H	1.291221	-0.310742	-1.022350
H69	H	1.351523	-0.316660	-0.953725
H70	H	1.228139	-0.180844	-0.960738
H71	H	1.288432	-0.186723	-0.892115
H72	H	1.384892	-0.143782	-0.974835
H73	H	1.324586	-0.137873	-1.043458
H74	H	1.320141	-0.057142	-0.974756
H75	H	1.095249	-0.918856	-0.503685
C76	C	0.556663	-0.301367	-0.225013
C77	C	0.576725	-0.324295	-0.146775
C78	C	0.535538	-0.256487	-0.096170
H79	H	0.501580	-0.311042	-0.232142
H80	H	0.570212	-0.230136	-0.236622
H81	H	0.563170	-0.395509	-0.135170
H82	H	0.631801	-0.314614	-0.139621
H83	H	0.549087	-0.185255	-0.107778
H84	H	0.480457	-0.266167	-0.103305
H85	H	0.549149	-0.272027	-0.043080
H86	H	1.000085	-0.701296	-0.956097
C87	C	1.037045	-0.651833	-1.091271
C88	C	1.047895	-0.637319	-1.172401
C89	C	0.997423	-0.705059	-1.213822
H90	H	0.983906	-0.636380	-1.077836
H91	H	1.048597	-0.723090	-1.077777
H92	H	1.036337	-0.566078	-1.185889
H93	H	1.101024	-0.652780	-1.185859
H94	H	1.008976	-0.776316	-1.200329
H95	H	0.944288	-0.689601	-1.200381
H96	H	1.004784	-0.695228	-1.268873
H97	H	1.000048	-0.701350	-0.806318
H98	H	0.443956	-0.387632	-0.289316
H99	H	1.234182	-0.387520	-1.079971
C100	C	1.298278	-0.301316	-0.795099
C101	C	1.253515	-0.233394	-0.747719
C102	C	1.303923	-0.165510	-0.706352
H103	H	1.328414	-0.260833	-0.831428
H104	H	1.332693	-0.341830	-0.762835
H105	H	1.219113	-0.192883	-0.779981
H106	H	1.223380	-0.273847	-0.711376
H107	H	1.338339	-0.206025	-0.674087
H108	H	1.334057	-0.125035	-0.742686
H109	H	1.273560	-0.119424	-0.674194
H110	H	1.019163	-0.919772	-0.427784
H111	H	1.234086	-0.387634	-0.682559
H112	H	0.443998	-0.633940	-0.472414
H113	H	0.841372	-0.387553	-0.289276
C114	C	0.999259	-1.112549	-0.423537
C115	C	0.949073	-1.027056	-0.408322
C116	C	0.873345	-1.064766	-0.391215
H117	H	1.001375	-1.157153	-0.378506
H118	H	0.979810	-1.151506	-0.467296
H119	H	0.968518	-0.988116	-0.364567
H120	H	0.946934	-0.982444	-0.453343
H121	H	0.853896	-1.103723	-0.434974
H122	H	0.875469	-1.109370	-0.346186
H123	H	0.839283	-1.006765	-0.380897
C124	C	1.037808	-1.109243	-0.273853
C125	C	0.989334	-1.021848	-0.259107
C126	C	0.914196	-1.056853	-0.236944
H127	H	1.041756	-1.151093	-0.227496
H128	H	1.015766	-1.150413	-0.315190
H129	H	1.011371	-0.980696	-0.217773
H130	H	0.985363	-0.979989	-0.305453
H131	H	0.892154	-1.098022	-0.278281
H132	H	0.918152	-1.098703	-0.190589
H133	H	0.881295	-0.997562	-0.226944
C134	C	0.728644	-0.301102	-0.225163
C135	C	0.708576	-0.196243	-0.242492
C136	C	0.749735	-0.128168	-0.192063
H137	H	0.783731	-0.310679	-0.232334
H138	H	0.715076	-0.316468	-0.172024
H139	H	0.722150	-0.180883	-0.295619
H140	H	0.653496	-0.186634	-0.235317
H141	H	0.736166	-0.143534	-0.138924
H142	H	0.804820	-0.137754	-0.199238
H143	H	0.736119	-0.057015	-0.203809
H144	H	0.567831	-0.701804	-0.522866
H145	H	1.242493	-0.919336	-0.465343
C146	C	0.728663	-0.720245	-0.536655
C147	C	0.674857	-0.779682	-0.580868
C148	C	0.715986	-0.847600	-0.631438
H149	H	0.760858	-0.766473	-0.506449
H150	H	0.760861	-0.679764	-0.571187
H151	H	0.642673	-0.820161	-0.546341
H152	H	0.642661	-0.733483	-0.611090
H153	H	0.748183	-0.807119	-0.665969
H154	H	0.748179	-0.893821	-0.601225
H155	H	0.679485	-0.887929	-0.661447
H156	H	1.162714	-0.919440	-0.250681
H157	H	1.095430	-1.100982	-0.504085
C158	C	1.175975	-1.110544	-0.234942
C159	C	1.210365	-1.023929	-0.196726
C160	C	1.262505	-1.060133	-0.138694
H161	H	1.216018	-1.152190	-0.258785
H162	H	1.147966	-1.152199	-0.197646
H163	H	1.238373	-0.982291	-0.234016
H164	H	1.170341	-0.982274	-0.172866
H165	H	1.234496	-1.101789	-0.101398
H166	H	1.302544	-1.101780	-0.162544
H167	H	1.285840	-1.001372	-0.112753
H168	H	1.059254	-0.917979	-0.279151
H169	H	1.246571	-1.101937	-0.461927
H170	H	1.273288	-0.917841	-0.362687
C171	C	1.286549	-1.109963	-0.342829
C172	C	1.289176	-1.220610	-0.344327
C173	C	1.344939	-1.256461	-0.289639
H174	H	1.272179	-1.086811	-0.291526
H175	H	1.336970	-1.082390	-0.356030
H176	H	1.238765	-1.248172	-0.331122
H177	H	1.303555	-1.243790	-0.395617
H178	H	1.395360	-1.228888	-0.302839
H179	H	1.330564	-1.233301	-0.238339
H180	H	1.346734	-1.331536	-0.290653
C181	C	1.036831	-0.652131	-0.671447
C182	C	0.992572	-0.711496	-0.725255
C183	C	0.941961	-0.779448	-0.684126
H184	H	1.002324	-0.611710	-0.639243
H185	H	1.067034	-0.698395	-0.639261
H186	H	0.962370	-0.665238	-0.757428
H187	H	1.027057	-0.751939	-0.757461
H188	H	0.972165	-0.825712	-0.651939
H189	H	0.907460	-0.739018	-0.651922
H190	H	0.911931	-0.819742	-0.720627
