data_functionalizedCrystal
_audit_creation_method	'MofGen! by Chris Wilmer'
_symmetry_space_group_name_H-M	'P1'
_symmetry_Int_Tables_number	1
_symmetry_cell_setting	triclinic
loop_
_symmetry_equiv_pos_as_xyz
  x,y,z
_cell_length_a	17.077403
_cell_length_b	16.120530
_cell_length_c	17.077396
_cell_angle_alpha	87.083390
_cell_angle_beta	89.982408
_cell_angle_gamma	87.096812
loop_
_atom_site_label
_atom_site_type_symbol
_atom_site_fract_x
_atom_site_fract_y
_atom_site_fract_z
Zn1	Zn	-0.373449	1.274703	-0.504701
Zn2	Zn	-0.040115	1.608037	-0.171367
Zn3	Zn	0.293218	1.941370	0.161966
Zn4	Zn	-0.504721	1.274658	-0.373458
Zn5	Zn	-0.171388	1.607992	-0.040124
Zn6	Zn	0.161945	1.941325	0.293209
Zn7	Zn	-0.366810	1.135284	-0.366799
Zn8	Zn	-0.033477	1.468617	-0.033466
Zn9	Zn	0.299856	1.801950	0.299868
Zn10	Zn	-0.498012	1.135304	-0.498034
Zn11	Zn	-0.164679	1.468637	-0.164701
Zn12	Zn	0.168655	1.801970	0.168632
O13	O	-0.435748	1.204987	-0.435748
O14	O	-0.102415	1.538321	-0.102415
O15	O	0.230919	1.871654	0.230919
O16	O	-0.396448	1.391365	-0.492868
O17	O	-0.063115	1.724699	-0.159534
O18	O	0.270218	2.058032	0.173799
O19	O	-0.486457	1.256143	-0.262726
O20	O	-0.153124	1.589476	0.070607
O21	O	0.180210	1.922810	0.403941
O22	O	-0.257845	1.153788	-0.385095
O23	O	0.075489	1.487122	-0.051762
O24	O	0.408822	1.820455	0.281572
O25	O	-0.492894	1.391333	-0.396444
O26	O	-0.159560	1.724666	-0.063111
O27	O	0.173773	2.057999	0.270223
O28	O	-0.262722	1.256219	-0.486411
O29	O	0.070612	1.589553	-0.153078
O30	O	0.403945	1.922886	0.180256
O31	O	-0.385134	1.153745	-0.257834
O32	O	-0.051801	1.487078	0.075499
O33	O	0.281532	1.820412	0.408833
O34	O	-0.378629	1.018618	-0.378631
O35	O	-0.045295	1.351952	-0.045298
O36	O	0.288038	1.685285	0.288036
O37	O	-0.481459	1.153822	-0.608767
O38	O	-0.148125	1.487156	-0.275434
O39	O	0.185208	1.820489	0.057900
O40	O	-0.475022	1.018633	-0.475049
O41	O	-0.141688	1.351966	-0.141716
O42	O	0.191645	1.685299	0.191617
O43	O	-0.389943	1.256239	-0.613665
O44	O	-0.056609	1.589572	-0.280331
O45	O	0.276724	1.922905	0.053002
O46	O	-0.613678	1.256162	-0.389980
O47	O	-0.280344	1.589496	-0.056646
O48	O	0.052989	1.922829	0.276687
O49	O	-0.608748	1.153779	-0.481506
O50	O	-0.275415	1.487112	-0.148173
O51	O	0.057918	1.820446	0.185161
C52	C	-0.425377	0.988375	-0.425395
C53	C	-0.092044	1.321708	-0.092061
C54	C	0.241289	1.655041	0.241272
C55	C	-0.420960	0.895707	-0.420984
C56	C	-0.087626	1.229040	-0.087651
C57	C	0.245707	1.562374	0.245683
C58	C	-0.231005	1.205007	-0.435754
C59	C	0.102329	1.538340	-0.102421
C60	C	0.435662	1.871673	0.230913
C61	C	-0.143755	1.205015	-0.435756
C62	C	0.189578	1.538348	-0.102423
C63	C	0.522911	1.871681	0.230910
C64	C	-0.435693	1.205038	-0.640495
C65	C	-0.102359	1.538371	-0.307161
C66	C	0.230974	1.871704	0.026172
C67	C	-0.435669	1.205059	-0.727746
C68	C	-0.102336	1.538392	-0.394412
C69	C	0.230998	1.871726	-0.061079
C70	C	-0.639696	1.204991	-0.435760
C71	C	-0.306363	1.538324	-0.102427
C72	C	0.026971	1.871657	0.230906
C73	C	-0.726950	1.205068	-0.435795
C74	C	-0.393616	1.538402	-0.102462
C75	C	-0.060283	1.871735	0.230871
C76	C	-0.100225	1.151692	-0.383010
C77	C	0.233108	1.485025	-0.049676
C78	C	0.566442	1.818358	0.283657
C79	C	-0.018245	1.151698	-0.383020
C80	C	0.315088	1.485031	-0.049687
C81	C	0.648422	1.818365	0.283647
C82	C	0.020203	1.205032	-0.435774
C83	C	0.353537	1.538366	-0.102440
C84	C	0.686870	1.871699	0.230893
C85	C	-0.023333	1.258358	-0.488526
C86	C	0.310000	1.591691	-0.155193
C87	C	0.643334	1.925025	0.178141
C88	C	-0.105311	1.258347	-0.488519
C89	C	0.228022	1.591680	-0.155186
C90	C	0.561355	1.925013	0.178148
C91	C	0.147536	1.258379	-0.488536
C92	C	0.480869	1.591712	-0.155202
C93	C	0.814203	1.925046	0.178131
C94	C	0.229520	1.258391	-0.488542
C95	C	0.562853	1.591725	-0.155209
C96	C	0.896187	1.925058	0.178125
C97	C	0.234603	1.151730	-0.383037
C98	C	0.567936	1.485064	-0.049703
C99	C	0.901269	1.818397	0.283630
C100	C	0.152624	1.151719	-0.383030
C101	C	0.485957	1.485052	-0.049696
C102	C	0.819291	1.818386	0.283637
C103	C	0.109094	1.205046	-0.435781
C104	C	0.442427	1.538379	-0.102448
C105	C	0.775760	1.871713	0.230885
C106	C	-0.412876	0.726042	-0.412938
C107	C	-0.079542	1.059375	-0.079605
C108	C	0.253791	1.392709	0.253728
C109	C	-0.458678	0.684773	-0.458615
C110	C	-0.125345	1.018106	-0.125282
C111	C	0.207988	1.351440	0.208052
C112	C	-0.454180	0.590366	-0.454138
C113	C	-0.120847	0.923699	-0.120805
C114	C	0.212486	1.257032	0.212528
C115	C	-0.417373	0.820458	-0.417414
C116	C	-0.084039	1.153791	-0.084081
C117	C	0.249294	1.487125	0.249253
C118	C	-0.446160	1.422446	-0.446142
C119	C	-0.112827	1.755779	-0.112809
C120	C	0.220507	2.089112	0.220525
C121	C	-0.450597	1.515113	-0.450572
C122	C	-0.117263	1.848447	-0.117238
C123	C	0.216070	2.181780	0.216095
C124	C	-0.388012	1.258389	-0.771287
C125	C	-0.054679	1.591723	-0.437954
C126	C	0.278654	1.925056	-0.104621
C127	C	-0.387987	1.258399	-0.853268
C128	C	-0.054654	1.591733	-0.519935
C129	C	0.278680	1.925066	-0.186602
C130	C	-0.435622	1.205083	-0.891706
C131	C	-0.102289	1.538416	-0.558373
C132	C	0.231044	1.871749	-0.225040
C133	C	-0.483281	1.151747	-0.848158
C134	C	-0.149948	1.485080	-0.514825
C135	C	0.183386	1.818413	-0.181492
C136	C	-0.483302	1.151733	-0.766179
C137	C	-0.149969	1.485066	-0.432845
C138	C	0.183365	1.818400	-0.099512
C139	C	-0.483235	1.151780	-1.019030
C140	C	-0.149902	1.485114	-0.685697
C141	C	0.183431	1.818447	-0.352364
C142	C	-0.483216	1.151795	-1.101016
C143	C	-0.149882	1.485128	-0.767682
C144	C	0.183451	1.818461	-0.434349
C145	C	-0.387920	1.258446	-1.106120
C146	C	-0.054587	1.591780	-0.772786
C147	C	0.278746	1.925113	-0.439453
C148	C	-0.387941	1.258433	-1.024140
C149	C	-0.054608	1.591766	-0.690807
C150	C	0.278725	1.925099	-0.357473
C151	C	-0.435601	1.205098	-0.980598
C152	C	-0.102268	1.538431	-0.647265
C153	C	0.231066	1.871764	-0.313931
C154	C	-0.435749	1.204985	-0.231800
C155	C	-0.102416	1.538318	0.101533
C156	C	0.230918	1.871652	0.434867
C157	C	-0.435559	1.205125	-0.144557
C158	C	-0.102226	1.538458	0.188776
C159	C	0.231108	1.871792	0.522109
H160	H	-0.131523	1.108263	-0.340049
H161	H	0.201810	1.441597	-0.006715
H162	H	0.535143	1.774930	0.326618
H163	H	-0.522003	1.108378	-1.132309
H164	H	-0.188670	1.441711	-0.798976
H165	H	0.144664	1.775045	-0.465643
Cl166	Cl	-0.328006	1.325497	-1.160858
Cl167	Cl	0.005327	1.658831	-0.827524
Cl168	Cl	0.338661	1.992164	-0.494191
H169	H	0.007976	1.301781	-0.531483
H170	H	0.341310	1.635114	-0.198150
H171	H	0.674643	1.968447	0.135183
H172	H	-0.501268	0.720344	-0.501083
H173	H	-0.167935	1.053677	-0.167750
H174	H	0.165398	1.387011	0.165584
H175	H	0.260820	1.301821	-0.531501
H176	H	0.594154	1.635154	-0.198167
H177	H	0.927487	1.968488	0.135166
Cl178	Cl	-0.543163	1.084717	-0.896480
Cl179	Cl	-0.209830	1.418050	-0.563147
Cl180	Cl	0.123503	1.751383	-0.229814
H181	H	-0.370288	0.690473	-0.370474
H182	H	-0.036955	1.023807	-0.037141
H183	H	0.296378	1.357140	0.296192
H184	H	-0.349225	1.301808	-0.739998
H185	H	-0.015891	1.635142	-0.406664
H186	H	0.317442	1.968475	-0.073331
Cl187	Cl	-0.160036	1.325383	-0.554833
Cl188	Cl	0.173298	1.658717	-0.221500
Cl189	Cl	0.506631	1.992050	0.111834
H190	H	0.112096	1.301793	-0.531501
H191	H	0.445430	1.635126	-0.198168
H192	H	0.778763	1.968460	0.135166
Cl193	Cl	-0.328109	1.325483	-0.908005
Cl194	Cl	0.005224	1.658816	-0.574672
Cl195	Cl	0.338557	1.992150	-0.241338
Cl196	Cl	0.289326	1.084693	-0.316718
Cl197	Cl	0.622659	1.418027	0.016615
Cl198	Cl	0.955993	1.751360	0.349948
H199	H	-0.522032	1.108336	-0.983580
H200	H	-0.188699	1.441669	-0.650247
H201	H	0.144635	1.775003	-0.316913
H202	H	0.017197	1.108278	-0.340070
H203	H	0.350531	1.441611	-0.006737
H204	H	0.683864	1.774944	0.326597
Cl205	Cl	0.104290	1.084673	-0.316706
Cl206	Cl	0.437623	1.418007	0.016628
Cl207	Cl	0.770957	1.751340	0.349961
Cl208	Cl	-0.328061	1.325465	-0.975819
Cl209	Cl	0.005273	1.658799	-0.642486
Cl210	Cl	0.338606	1.992132	-0.309153
Cl211	Cl	-0.543213	1.084684	-0.711440
Cl212	Cl	-0.209880	1.418017	-0.378107
Cl213	Cl	0.123454	1.751351	-0.044773
