data_functionalizedCrystal
_audit_creation_method	'MofGen! by Chris Wilmer'
_symmetry_space_group_name_H-M	'P1'
_symmetry_Int_Tables_number	1
_symmetry_cell_setting	triclinic
loop_
_symmetry_equiv_pos_as_xyz
  x,y,z
_cell_length_a	12.594517
_cell_length_b	16.120847
_cell_length_c	16.120297
_cell_angle_alpha	89.836070
_cell_angle_beta	87.122039
_cell_angle_gamma	87.100418
loop_
_atom_site_label
_atom_site_type_symbol
_atom_site_fract_x
_atom_site_fract_y
_atom_site_fract_z
Zn1	Zn	1.575039	0.354925	0.453441
Zn2	Zn	1.908372	0.688258	0.786774
Zn3	Zn	2.241706	1.021592	1.120108
Zn4	Zn	1.575886	0.486935	0.307354
Zn5	Zn	1.909219	0.820268	0.640687
Zn6	Zn	2.242553	1.153601	0.974020
Zn7	Zn	1.406500	0.347897	0.314399
Zn8	Zn	1.739833	0.681230	0.647733
Zn9	Zn	2.073166	1.014563	0.981066
Zn10	Zn	1.388528	0.493939	0.446364
Zn11	Zn	1.721861	0.827273	0.779697
Zn12	Zn	2.055195	1.160606	1.113031
O13	O	1.486488	0.420924	0.380389
O14	O	1.819821	0.754257	0.713723
O15	O	2.153155	1.087591	1.047056
O16	O	1.724096	0.372446	0.434075
O17	O	2.057429	0.705780	0.767408
O18	O	2.390762	1.039113	1.100742
O19	O	1.561292	0.462618	0.191922
O20	O	1.894626	0.795952	0.525256
O21	O	2.227959	1.129285	0.858589
O22	O	1.436023	0.232463	0.338754
O23	O	1.769357	0.565796	0.672087
O24	O	2.102690	0.899130	1.005421
O25	O	1.724718	0.469433	0.326745
O26	O	2.058051	0.802767	0.660079
O27	O	2.391385	1.136100	0.993412
O28	O	1.559849	0.237627	0.440907
O29	O	1.893182	0.570960	0.774240
O30	O	2.226515	0.904293	1.107574
O31	O	1.436845	0.360468	0.197099
O32	O	1.770178	0.693801	0.530432
O33	O	2.103511	1.027134	0.863766
O34	O	1.255171	0.367259	0.331892
O35	O	1.588505	0.700593	0.665225
O36	O	1.921838	1.033926	0.998558
O37	O	1.405393	0.481371	0.563669
O38	O	1.738727	0.814705	0.897002
O39	O	2.072060	1.148038	1.230335
O40	O	1.241968	0.474556	0.428846
O41	O	1.575301	0.807890	0.762179
O42	O	1.908634	1.141223	1.095512
O43	O	1.542422	0.379238	0.568868
O44	O	1.875756	0.712572	0.902201
O45	O	2.209089	1.045905	1.235535
O46	O	1.543866	0.604230	0.319883
O47	O	1.877199	0.937563	0.653217
O48	O	2.210533	1.270896	0.986550
O49	O	1.406215	0.609376	0.422014
O50	O	1.739548	0.942709	0.755347
O51	O	2.072881	1.276043	1.088680
C52	C	1.209950	0.420906	0.380366
C53	C	1.543283	0.754239	0.713699
C54	C	1.876617	1.087573	1.047032
C55	C	1.091643	0.420919	0.380374
C56	C	1.424976	0.754253	0.713708
C57	C	1.758310	1.087586	1.047041
C58	C	1.499846	0.204029	0.391406
C59	C	1.833179	0.537362	0.724739
C60	C	2.166513	0.870695	1.058072
C61	C	1.505539	0.111601	0.396100
C62	C	1.838872	0.444934	0.729434
C63	C	2.172205	0.778268	1.062767
C64	C	1.515950	-0.057626	0.404669
C65	C	1.849284	0.275707	0.738002
C66	C	2.182617	0.609041	1.071336
C67	C	1.457216	-0.101373	0.356209
C68	C	1.790549	0.231961	0.689542
C69	C	2.123883	0.565294	1.022876
C70	C	1.463009	-0.195536	0.360977
C71	C	1.796342	0.137797	0.694310
C72	C	2.129676	0.471130	1.027643
C73	C	1.510158	0.036546	0.399902
C74	C	1.843492	0.369880	0.733236
C75	C	2.176825	0.703213	1.066569
C76	C	1.029538	0.362490	0.327751
C77	C	1.362871	0.695823	0.661084
C78	C	1.696205	1.029157	0.994418
C79	C	0.955481	0.437303	0.303457
C80	C	1.288814	0.770637	0.636791
C81	C	1.622147	1.103970	0.970124
C82	C	0.954898	0.346144	0.404680
C83	C	1.288231	0.679477	0.738014
C84	C	1.621565	1.012811	1.071347
C85	C	1.019144	0.495771	0.356039
C86	C	1.352478	0.829104	0.689372
C87	C	1.685811	1.162437	1.022706
C88	C	1.018569	0.404562	0.457300
C89	C	1.351902	0.737895	0.790633
C90	C	1.685235	1.071228	1.123967
C91	C	0.944538	0.479429	0.433033
C92	C	1.277871	0.812762	0.766366
C93	C	1.611205	1.146095	1.099699
C94	C	1.764106	0.420942	0.380414
C95	C	2.097440	0.754276	0.713747
C96	C	2.430773	1.087609	1.047080
C97	C	1.882410	0.420950	0.380424
C98	C	2.215744	0.754284	0.713757
C99	C	2.549077	1.087617	1.047091
C100	C	1.473210	0.636976	0.369434
C101	C	1.806543	0.970310	0.702767
C102	C	2.139876	1.303643	1.036101
C103	C	1.467625	0.729406	0.364775
C104	C	1.800958	1.062739	0.698108
C105	C	2.134291	1.396072	1.031442
C106	C	1.471809	0.431870	0.597284
C107	C	1.805142	0.765204	0.930618
C108	C	2.138475	1.098537	1.263951
C109	C	1.465553	0.436535	0.689712
C110	C	1.798886	0.769868	1.023045
C111	C	2.132220	1.103202	1.356379
C112	C	1.501175	0.409960	0.164341
C113	C	1.834509	0.743293	0.497675
C114	C	2.167842	1.076627	0.831008
C115	C	1.507651	0.405061	0.071926
C116	C	1.840985	0.738395	0.405260
C117	C	2.174318	1.071728	0.738593
C118	C	1.454094	0.445033	0.858939
C119	C	1.787428	0.778366	1.192273
C120	C	2.120761	1.111700	1.525606
C121	C	1.519107	0.396566	0.902704
C122	C	1.852440	0.729899	1.236037
C123	C	2.185774	1.063232	1.569370
C124	C	1.512731	0.401294	0.996868
C125	C	1.846065	0.734627	1.330201
C126	C	2.179398	1.067961	1.663535
C127	C	1.460469	0.440306	0.764767
C128	C	1.793802	0.773639	1.098100
C129	C	2.127135	1.106972	1.431434
H130	H	1.570583	-0.090889	0.449734
H131	H	1.903916	0.242445	0.783067
H132	H	2.237249	0.575778	1.116400
C133	C	0.916635	0.260702	0.432431
C134	C	1.249968	0.594036	0.765764
C135	C	1.583301	0.927369	1.099098
H136	H	0.945935	0.219246	0.394965
H137	H	1.279268	0.552579	0.728299
H138	H	1.612601	0.885912	1.061632
H139	H	0.841148	0.261471	0.432742
H140	H	1.174482	0.594804	0.766076
H141	H	1.507815	0.928138	1.099409
H142	H	0.939240	0.248671	0.486702
H143	H	1.272573	0.582005	0.820035
H144	H	1.605906	0.915338	1.153368
C145	C	1.057227	0.581235	0.328189
C146	C	1.390560	0.914568	0.661523
C147	C	1.723894	1.247902	0.994856
H148	H	0.997434	0.616921	0.316612
H149	H	1.330767	0.950255	0.649945
H150	H	1.664101	1.283588	0.983278
H151	H	1.102731	0.574857	0.279583
H152	H	1.436064	0.908190	0.612916
H153	H	1.769398	1.241524	0.946250
H154	H	1.095000	0.604659	0.371203
H155	H	1.428333	0.937992	0.704537
H156	H	1.761666	1.271326	1.037870
C157	C	1.079652	0.295801	0.267556
C158	C	1.412985	0.629135	0.600890
C159	C	1.746318	0.962468	0.934223
H160	H	1.058137	0.307576	0.212934
H161	H	1.391470	0.640909	0.546268
H162	H	1.724804	0.974242	0.879601
H163	H	1.056727	0.242780	0.284269
H164	H	1.390060	0.576114	0.617602
H165	H	1.723393	0.909447	0.950935
H166	H	1.155018	0.295921	0.268319
H167	H	1.488351	0.629255	0.601652
H168	H	1.821685	0.962588	0.934986
H169	H	1.402579	-0.068106	0.311142
H170	H	1.735912	0.265228	0.644475
H171	H	2.069246	0.598561	0.977809
C172	C	1.600774	0.335719	0.857789
C173	C	1.934107	0.669052	1.191123
C174	C	2.267441	1.002386	1.524456
H175	H	1.594408	0.340489	0.799475
H176	H	1.927742	0.673822	1.132808
H177	H	2.261075	1.007155	1.466141
H178	H	1.587708	0.280542	0.874799
H179	H	1.921041	0.613875	1.208132
H180	H	2.254375	0.947208	1.541465
H181	H	1.670597	0.348605	0.871374
H182	H	2.003930	0.681938	1.204707
H183	H	2.337264	1.015271	1.538040
C184	C	0.917861	0.456020	0.215607
C185	C	1.251194	0.789353	0.548941
C186	C	1.584527	1.122686	0.882274
H187	H	0.947139	0.414444	0.178265
H188	H	1.280472	0.747777	0.511598
H189	H	1.613805	1.081111	0.844932
H190	H	0.940863	0.508748	0.197994
H191	H	1.274196	0.842082	0.531328
H192	H	1.607530	1.175415	0.864661
H193	H	0.842366	0.456393	0.216364
H194	H	1.175699	0.789727	0.549697
H195	H	1.509032	1.123060	0.883030
C196	C	0.894682	0.546266	0.493172
C197	C	1.228015	0.879599	0.826506
C198	C	1.561348	1.212933	1.159839
H199	H	0.916739	0.599339	0.475790
H200	H	1.250073	0.932672	0.809123
H201	H	1.583406	1.266006	1.142457
H202	H	0.917240	0.535087	0.547614
H203	H	1.250573	0.868420	0.880948
H204	H	1.583907	1.201754	1.214281
H205	H	0.819297	0.545616	0.493198
H206	H	1.152630	0.878949	0.826532
H207	H	1.485964	1.212283	1.159865
C208	C	1.056226	0.385813	0.545128
C209	C	1.389560	0.719146	0.878461
C210	C	1.722893	1.052480	1.211794
H211	H	1.034366	0.332623	0.562301
H212	H	1.367700	0.665956	0.895635
H213	H	1.701033	0.999289	1.228968
H214	H	1.025914	0.426785	0.582697
H215	H	1.359247	0.760119	0.916030
H216	H	1.692581	1.093452	1.249363
H217	H	1.131644	0.386442	0.544563
H218	H	1.464977	0.719775	0.877896
H219	H	1.798311	1.053108	1.211230
H220	H	1.393652	0.490075	0.892189
H221	H	1.726986	0.823409	1.225522
H222	H	2.060319	1.156742	1.558856
