data_functionalizedCrystal
_audit_creation_method	'MofGen! by Chris Wilmer'
_symmetry_space_group_name_H-M	'P1'
_symmetry_Int_Tables_number	1
_symmetry_cell_setting	triclinic
loop_
_symmetry_equiv_pos_as_xyz
  x,y,z
_cell_length_a	14.971486
_cell_length_b	17.699083
_cell_length_c	14.048226
_cell_angle_alpha	89.992674
_cell_angle_beta	89.998499
_cell_angle_gamma	83.448572
loop_
_atom_site_label
_atom_site_type_symbol
_atom_site_fract_x
_atom_site_fract_y
_atom_site_fract_z
O1	O	1.186608	0.098633	-0.079053
O2	O	1.686608	0.598633	0.420947
O3	O	0.926167	0.110445	-0.079079
O4	O	1.426167	0.610445	0.420921
O5	O	1.063746	-0.005632	-0.079057
O6	O	1.563746	0.494368	0.420943
O7	O	1.049030	0.214710	-0.079075
O8	O	1.549030	0.714710	0.420925
O9	O	1.063729	-0.005639	0.079264
O10	O	1.563729	0.494361	0.579264
O11	O	0.926151	0.110438	0.079242
O12	O	1.426151	0.610438	0.579242
O13	O	1.186591	0.098626	0.079268
O14	O	1.686591	0.598626	0.579268
Zn15	Zn	1.056368	0.104531	0.104392
Zn16	Zn	1.556368	0.604531	0.604392
Zn17	Zn	1.056390	0.104540	-0.104203
Zn18	Zn	1.556390	0.604540	0.395797
O19	O	1.049013	0.214703	0.079246
O20	O	1.549013	0.714703	0.579246
C21	C	0.892836	0.109913	0.000078
C22	C	1.392836	0.609913	0.500078
C23	C	0.793544	0.108330	0.000068
C24	C	1.293544	0.608330	0.500068
C25	C	0.736085	0.176522	0.000064
C26	C	1.236085	0.676522	0.500064
C27	C	0.642790	0.175030	0.000078
C28	C	1.142790	0.675030	0.500078
C29	C	0.606958	0.105346	0.000090
C30	C	1.106958	0.605346	0.500090
C31	C	0.664425	0.037148	0.000097
C32	C	1.164425	0.537148	0.500097
C33	C	0.757717	0.038641	0.000090
C34	C	1.257717	0.538641	0.500090
C35	C	0.469973	0.034042	0.000111
C36	C	0.969973	0.534042	0.500111
C37	C	0.376674	0.032549	0.000117
C38	C	0.876674	0.532549	0.500117
C39	C	0.355046	0.170431	0.000099
C40	C	0.855046	0.670431	0.500099
C41	C	0.448339	0.171924	0.000092
C42	C	0.948339	0.671924	0.500092
C43	C	0.505799	0.103726	0.000097
C44	C	1.005799	0.603726	0.500097
C45	C	1.063210	-0.033834	0.000104
C46	C	1.563210	0.466166	0.500104
C47	C	1.061628	-0.117856	0.000104
C48	C	1.561628	0.382144	0.500104
C49	C	1.142384	-0.166278	0.000113
C50	C	1.642384	0.333722	0.500113
C51	C	1.140892	-0.245225	0.000105
C52	C	1.640892	0.254775	0.500105
C53	C	1.058644	-0.275748	0.000094
C54	C	1.558644	0.224252	0.500094
C55	C	0.977882	-0.227320	0.000081
C56	C	1.477882	0.272680	0.500081
C57	C	0.979375	-0.148374	0.000083
C58	C	1.479375	0.351626	0.500083
C59	C	0.971860	-0.545698	0.000073
C60	C	1.471860	-0.045698	0.500073
C61	C	0.970374	-0.624649	0.000074
C62	C	1.470374	-0.124649	0.500074
C63	C	1.133378	-0.642548	0.000095
C64	C	1.633378	-0.142548	0.500095
C65	C	1.134871	-0.563603	0.000096
C66	C	1.634871	-0.063603	0.500096
C67	C	1.054109	-0.515181	0.000079
C68	C	1.554109	-0.015181	0.500079
C69	C	1.055728	-0.429578	0.000087
C70	C	1.555728	0.070422	0.500087
C71	C	1.057024	-0.361350	0.000093
C72	C	1.557024	0.138650	0.500093
C73	C	1.219923	0.099158	0.000109
C74	C	1.719923	0.599158	0.500109
C75	C	1.319214	0.100741	0.000112
C76	C	1.819214	0.600741	0.500112
C77	C	1.049549	0.242905	0.000083
C78	C	1.549549	0.742905	0.500083
C79	C	1.051131	0.326927	0.000077
C80	C	1.551131	0.826927	0.500077
N81	N	1.056360	0.104524	0.246753
N82	N	1.556360	0.604524	0.746753
N83	N	1.056406	0.104541	-0.246564
N84	N	1.556406	0.604541	0.253436
C85	C	1.117299	0.053147	0.296581
C86	C	1.617299	0.553147	0.796581
C87	C	1.117305	0.053146	0.396238
C88	C	1.617305	0.553146	0.896238
C89	C	1.056376	0.104528	0.446066
C90	C	1.556376	0.604528	0.946066
C91	C	0.995431	0.155908	0.396231
C92	C	1.495431	0.655908	0.896231
C93	C	0.995421	0.155904	0.296576
C94	C	1.495421	0.655904	0.796576
C95	C	0.995456	0.155913	0.603946
C96	C	1.495456	0.655913	1.103946
C97	C	0.995467	0.155918	0.703608
C98	C	1.495467	0.655918	1.203608
C99	C	1.117340	0.053156	0.703608
C100	C	1.617340	0.553156	1.203608
C101	C	1.117331	0.053152	0.603953
C102	C	1.617331	0.553152	1.103953
C103	C	1.056386	0.104533	0.554125
C104	C	1.556386	0.604533	1.054125
H105	H	0.477510	0.228667	0.000073
H106	H	0.977510	0.728667	0.500073
O107	O	0.293079	0.243991	0.000104
O108	O	0.793079	0.743991	0.500104
H109	H	0.222186	0.231249	0.000125
H110	H	0.722186	0.731249	0.500125
H111	H	0.945826	0.197751	0.563379
H112	H	1.445826	0.697751	1.063379
H113	H	0.516756	-0.021492	0.000117
H114	H	1.016756	0.478508	0.500117
O115	O	0.884759	-0.493475	0.000059
O116	O	1.384759	0.006525	0.500059
H117	H	0.881538	-0.457080	0.064584
H118	H	1.381538	0.042920	0.564584
H119	H	0.347502	-0.024194	0.000127
H120	H	0.847502	0.475806	0.500127
H121	H	1.166918	0.011309	0.256017
H122	H	1.666918	0.511309	0.756017
O123	O	0.625783	-0.038014	0.000118
O124	O	1.125783	0.461986	0.500118
H125	H	0.583800	-0.041997	-0.064411
H126	H	1.083800	0.458003	0.435589
H127	H	0.804501	-0.016888	0.000093
H128	H	1.304501	0.483112	0.500093
H129	H	0.765252	0.233267	0.000054
H130	H	1.265252	0.733267	0.500054
H131	H	1.209360	-0.141433	0.000128
H132	H	1.709360	0.358567	0.500128
O133	O	0.929721	0.211334	0.449971
O134	O	1.429721	0.711334	0.949971
H135	H	0.860014	0.201593	0.430868
H136	H	1.360014	0.701593	0.930868
O137	O	0.892273	-0.096145	0.000086
O138	O	1.392273	0.403855	0.500086
H139	H	0.852905	-0.107001	-0.064443
H140	H	1.352905	0.392999	0.435557
O141	O	0.929699	0.211321	0.242825
O142	O	1.429699	0.711321	0.742825
H143	H	0.887339	0.247057	0.294214
H144	H	1.387339	0.747057	0.794214
H145	H	0.910914	-0.252178	0.000066
H146	H	1.410914	0.247822	0.500066
H147	H	1.166948	0.011317	0.563383
H148	H	1.666948	0.511317	1.063383
H149	H	1.201846	-0.538756	0.000110
H150	H	1.701846	-0.038756	0.500110
O151	O	0.580812	0.248579	0.000074
O152	O	1.080812	0.748579	0.500074
H153	H	0.621403	0.297286	0.000053
H154	H	1.121403	0.797286	0.500053
O155	O	1.227992	-0.297455	0.000131
O156	O	1.727992	0.202545	0.500131
H157	H	1.285434	-0.262967	0.000156
H158	H	1.785434	0.237033	0.500156
H159	H	1.166925	0.011310	0.436808
H160	H	1.666925	0.511310	0.936808
O161	O	1.220490	-0.694774	0.000110
O162	O	1.720490	-0.194774	0.500110
H163	H	1.223730	-0.731159	-0.064423
H164	H	1.723730	-0.231159	0.435577
H165	H	0.903394	-0.649498	0.000067
H166	H	1.403394	-0.149498	0.500067
O167	O	1.183070	-0.002271	0.757342
O168	O	1.683070	0.497729	1.257342
H169	H	1.172835	0.006355	0.835010
H170	H	1.672835	0.506355	1.335010
O171	O	0.929735	0.211319	0.757358
O172	O	1.429735	0.711319	1.257358
H173	H	0.887340	0.247035	0.705969
H174	H	1.387340	0.747035	1.205969
