data_functionalizedCrystal
_audit_creation_method	'MofGen! by Chris Wilmer'
_symmetry_space_group_name_H-M	'P1'
_symmetry_Int_Tables_number	1
_symmetry_cell_setting	triclinic
loop_
_symmetry_equiv_pos_as_xyz
  x,y,z
_cell_length_a	12.759401
_cell_length_b	10.686285
_cell_length_c	12.759393
_cell_angle_alpha	94.397013
_cell_angle_beta	90.019676
_cell_angle_gamma	85.632238
loop_
_atom_site_label
_atom_site_type_symbol
_atom_site_fract_x
_atom_site_fract_y
_atom_site_fract_z
Zn1	Zn	1.638403	-0.502274	0.561967
Zn2	Zn	2.138403	-0.002274	1.061967
Zn3	Zn	1.651797	-0.713314	0.372834
Zn4	Zn	2.151797	-0.213314	0.872834
Zn5	Zn	1.462706	-0.502337	0.386302
Zn6	Zn	1.962706	-0.002337	0.886302
Zn7	Zn	1.476190	-0.713221	0.548481
Zn8	Zn	1.976190	-0.213221	1.048481
O9	O	1.557274	-0.607787	0.467396
O10	O	2.057274	-0.107787	0.967396
O11	O	1.787201	-0.530281	0.536886
O12	O	2.287201	-0.030281	1.036886
O13	O	1.626675	-0.685392	0.227596
O14	O	2.126675	-0.185392	0.727596
O15	O	1.474763	-0.325753	0.420885
O16	O	1.974763	0.174247	0.920885
O17	O	1.797042	-0.685331	0.397931
O18	O	2.297042	-0.185331	0.897931
O19	O	1.603847	-0.325706	0.549945
O20	O	2.103847	0.174294	1.049945
O21	O	1.487751	-0.530389	0.237490
O22	O	1.987751	-0.030389	0.737490
O23	O	1.317473	-0.530299	0.407808
O24	O	1.817473	-0.030299	0.907808
O25	O	1.497746	-0.685174	0.697296
O26	O	1.997746	-0.185174	1.197296
O27	O	1.327380	-0.685235	0.526960
O28	O	1.827380	-0.185235	1.026960
O29	O	1.616923	-0.530192	0.707203
O30	O	2.116923	-0.030192	1.207203
O31	O	1.639751	-0.889878	0.384854
O32	O	2.139751	-0.389878	0.884854
O33	O	1.510734	-0.889810	0.513901
O34	O	2.010734	-0.389810	1.013901
C35	C	1.284305	-0.607765	0.467383
C36	C	1.784305	-0.107765	0.967383
C37	C	1.167530	-0.607786	0.467400
C38	C	1.667530	-0.107786	0.967400
C39	C	1.107554	-0.527198	0.539848
C40	C	1.607554	-0.027198	1.039848
C41	C	0.997831	-0.527210	0.539854
C42	C	1.497831	-0.027210	1.039854
C43	C	1.008070	-0.688411	0.394961
C44	C	1.508070	-0.188411	0.894961
C45	C	1.117790	-0.688391	0.394950
C46	C	1.617790	-0.188391	0.894950
C47	C	1.578187	-0.935628	0.446476
C48	C	2.078187	-0.435628	0.946476
C49	C	1.587230	-1.075880	0.437561
C50	C	2.087230	-0.575880	0.937561
C51	C	1.831309	-0.607809	0.467410
C52	C	2.331309	-0.107809	0.967410
C53	C	1.948086	-0.607819	0.467416
C54	C	2.448086	-0.107819	0.967416
C55	C	1.557345	-0.607666	0.741437
C56	C	2.057345	-0.107666	1.241437
C57	C	1.557375	-0.607614	0.858217
C58	C	2.057375	-0.107614	1.358217
C59	C	1.536307	-0.278665	0.488421
C60	C	2.036307	0.221335	0.988421
C61	C	1.527373	-0.138413	0.497381
C62	C	2.027373	0.361587	0.997381
C63	C	1.557258	-0.607816	0.194427
C64	C	2.057258	-0.107816	0.694427
C65	C	1.557408	-0.607512	0.077670
C66	C	2.057408	-0.107512	0.577670
C67	C	1.619434	-0.526902	0.918241
C68	C	2.119434	-0.026902	1.418241
C69	C	1.619449	-0.526848	1.027969
C70	C	2.119449	-0.026848	1.527969
C71	C	1.495342	-0.688228	1.017639
C72	C	1.995342	-0.188228	1.517639
C73	C	1.495322	-0.688275	0.907914
C74	C	1.995322	-0.188275	1.407914
H75	H	0.949003	-0.461585	0.598847
H76	H	1.449003	0.038415	1.098847
H77	H	1.469208	-1.084654	0.555417
H78	H	1.969208	-0.584654	1.055417
H79	H	1.645391	-1.129647	0.379515
H80	H	2.145391	-0.629647	0.879515
C81	C	1.687722	-0.438061	1.093990
C82	C	2.187722	0.061939	1.593990
N83	N	1.739149	-0.371183	1.143716
N84	N	2.239149	0.128817	1.643716
C85	C	1.687684	-0.438161	0.863580
C86	C	2.187684	0.061839	1.363580
N87	N	1.739088	-0.371315	0.822413
N88	N	2.239088	0.128685	1.322413
C89	C	1.427086	-0.776948	1.072315
C90	C	1.927086	-0.276948	1.572315
N91	N	1.375673	-0.843774	1.113497
N92	N	1.875673	-0.343774	1.613497
H93	H	1.444779	-0.754000	0.859041
H94	H	1.944779	-0.254000	1.359041
H95	H	1.148048	-0.461560	0.598838
H96	H	1.648048	0.038440	1.098838
C97	C	0.953346	-0.777080	0.315276
C98	C	1.453346	-0.277080	0.815276
N99	N	0.912130	-0.843871	0.255259
N100	N	1.412130	-0.343871	0.755259
H101	H	1.166625	-0.754017	0.335949
H102	H	1.666625	-0.254017	0.835949
