data_functionalizedCrystal
_audit_creation_method	'MofGen! by Chris Wilmer'
_symmetry_space_group_name_H-M	'P1'
_symmetry_Int_Tables_number	1
_symmetry_cell_setting	triclinic
loop_
_symmetry_equiv_pos_as_xyz
  x,y,z
_cell_length_a	25.639242
_cell_length_b	29.839131
_cell_length_c	25.639234
_cell_angle_alpha	89.974256
_cell_angle_beta	89.970648
_cell_angle_gamma	90.036947
loop_
_atom_site_label
_atom_site_type_symbol
_atom_site_fract_x
_atom_site_fract_y
_atom_site_fract_z
Zn1	Zn	0.799252	-0.178934	-0.295739
Zn2	Zn	0.799161	-0.254057	-0.208302
Zn3	Zn	0.711818	-0.178936	-0.208303
Zn4	Zn	0.711769	-0.254032	-0.295692
O5	O	0.755500	-0.216490	-0.252009
O6	O	0.872405	-0.188909	-0.284160
O7	O	0.787556	-0.244103	-0.135137
O8	O	0.723474	-0.116068	-0.219922
O9	O	0.872338	-0.244101	-0.219920
O10	O	0.787712	-0.116067	-0.284161
O11	O	0.723386	-0.188912	-0.135138
O12	O	0.638646	-0.188888	-0.219876
O13	O	0.723392	-0.244059	-0.368864
O14	O	0.638611	-0.244061	-0.284081
O15	O	0.787666	-0.188885	-0.368898
O16	O	0.787509	-0.316921	-0.219875
O17	O	0.723304	-0.316903	-0.284080
C18	C	0.619657	-0.216472	-0.251974
C19	C	0.561543	-0.216475	-0.251971
C20	C	0.201171	-0.245266	-0.285409
C21	C	0.146566	-0.245269	-0.285417
O22	O	0.118322	-0.269726	-0.313817
N23	N	0.119261	-0.216502	-0.252043
C24	C	0.146562	-0.187727	-0.218663
O25	O	0.118323	-0.163259	-0.190277
C26	C	0.201166	-0.187723	-0.218658
C27	C	0.228469	-0.216495	-0.252030
C28	C	0.228474	-0.274036	-0.318778
C29	C	0.283074	-0.274033	-0.318769
C30	C	0.310372	-0.245262	-0.285391
C31	C	0.283069	-0.216492	-0.252021
C32	C	0.228466	-0.158946	-0.185281
C33	C	0.283073	-0.158943	-0.185279
C34	C	0.310376	-0.187716	-0.218651
C35	C	0.364967	-0.187719	-0.218633
N36	N	0.392273	-0.216485	-0.252007
C37	C	0.364975	-0.245257	-0.285385
C38	C	0.031892	-0.187739	-0.218677
C39	C	-0.022711	-0.187745	-0.218679
C40	C	-0.022703	-0.245287	-0.285434
C41	C	0.031901	-0.245282	-0.285429
C42	C	0.059197	-0.216506	-0.252051
C43	C	0.479640	-0.245250	-0.285363
C44	C	0.534246	-0.245247	-0.285350
C45	C	0.534233	-0.187704	-0.218597
C46	C	0.479632	-0.187709	-0.218609
C47	C	0.452337	-0.216484	-0.251996
O48	O	0.393247	-0.163273	-0.190249
O49	O	0.393221	-0.269717	-0.313771
C50	C	0.755406	-0.333212	-0.251983
C51	C	0.755413	-0.383147	-0.251990
C52	C	0.788993	-0.692787	-0.218627
C53	C	0.789057	-0.880460	-0.218647
O54	O	0.817533	-0.904722	-0.190260
N55	N	0.755608	-0.903932	-0.252049
C56	C	0.722143	-0.880482	-0.285450
O57	O	0.693698	-0.904753	-0.313865
C58	C	0.722082	-0.692810	-0.285432
C59	C	0.755529	-0.669341	-0.252024
C60	C	0.822438	-0.669318	-0.185222
C61	C	0.822419	-0.622402	-0.185215
C62	C	0.788956	-0.598956	-0.218613
C63	C	0.755511	-0.622425	-0.252018
C64	C	0.688620	-0.669362	-0.318836
C65	C	0.688608	-0.622441	-0.318829
C66	C	0.722056	-0.598971	-0.285422
C67	C	0.722029	-0.552064	-0.285409
N68	N	0.755478	-0.528592	-0.252007
C69	C	0.788941	-0.552038	-0.218609
C70	C	0.722177	-0.979013	-0.285457
C71	C	0.722192	-1.025931	-0.285461
C72	C	0.789107	-1.025905	-0.218658
C73	C	0.789089	-0.978986	-0.218652
C74	C	0.755626	-0.955541	-0.252055
C75	C	0.788899	-0.453512	-0.218597
C76	C	0.788877	-0.406593	-0.218592
C77	C	0.721964	-0.406623	-0.285396
C78	C	0.721985	-0.453538	-0.285400
C79	C	0.755457	-0.476982	-0.251999
O80	O	0.693572	-0.527773	-0.313785
O81	O	0.817390	-0.527760	-0.190207
C82	C	0.789011	-0.739702	-0.218633
C83	C	0.755566	-0.763172	-0.252038
C84	C	0.722103	-0.739726	-0.285436
C85	C	0.755581	-0.810090	-0.252042
C86	C	0.789044	-0.833536	-0.218644
C87	C	0.822493	-0.810064	-0.185242
C88	C	0.822475	-0.763148	-0.185235
C89	C	0.688654	-0.763198	-0.318838
C90	C	0.688675	-0.810113	-0.318841
C91	C	0.722138	-0.833559	-0.285443
C92	C	0.891873	-0.216508	-0.252045
C93	C	0.949987	-0.216516	-0.252060
C94	C	0.755534	-0.216469	-0.388382
C95	C	0.755548	-0.216461	-0.446496
C96	C	0.755609	-0.099311	-0.252047
C97	C	0.755655	-0.049377	-0.252063
C98	C	0.722150	-0.187669	-0.806865
C99	C	0.722152	-0.187661	-0.861470
O100	O	0.693729	-0.163231	-0.889712
N101	N	0.755566	-0.216390	-0.888779
C102	C	0.788975	-0.245132	-0.861481
O103	O	0.817396	-0.269568	-0.889724
C104	C	0.788969	-0.245143	-0.806878
C105	C	0.755557	-0.216408	-0.779571
C106	C	0.688740	-0.158937	-0.779559
C107	C	0.688738	-0.158945	-0.724958
C108	C	0.722146	-0.187684	-0.697664
C109	C	0.755555	-0.216416	-0.724971
C110	C	0.822375	-0.273887	-0.779581
C111	C	0.822366	-0.273895	-0.724974
C112	C	0.788954	-0.245160	-0.697667
C113	C	0.788961	-0.245163	-0.643076
N114	N	0.755547	-0.216434	-0.615767
C115	C	0.722140	-0.187694	-0.643061
C116	C	0.788984	-0.245110	-0.976152
C117	C	0.788993	-0.245098	-1.030754
C118	C	0.722169	-0.187627	-1.030739
C119	C	0.722164	-0.187637	-0.976136
C120	C	0.755571	-0.216381	-0.948843
C121	C	0.722138	-0.187712	-0.528396
C122	C	0.722141	-0.187721	-0.473790
C123	C	0.788962	-0.245194	-0.473810
C124	C	0.788962	-0.245184	-0.528411
C125	C	0.755546	-0.216441	-0.555702
O126	O	0.817368	-0.269582	-0.614800
O127	O	0.693719	-0.163267	-0.614812
C128	C	0.755496	-0.216478	-0.116167
C129	C	0.755583	-0.216360	-0.058053
H130	H	0.305299	-0.297462	-0.345945
H131	H	0.054114	-0.164306	-0.191493
Cl132	Cl	0.680133	-0.151575	-0.562697
H133	H	0.661528	-0.135548	-0.702730
Cl134	Cl	0.646575	-0.698855	-0.360843
H135	H	0.849691	-0.688402	-0.158025
H136	H	0.457401	-0.164282	-0.191433
Cl137	Cl	0.646730	-0.122808	-0.813862
Cl138	Cl	0.680157	-0.151513	-0.941813
H139	H	0.694967	-0.164226	-1.052972
H140	H	0.206246	-0.135518	-0.158104
H141	H	0.816325	-0.959880	-0.191448
Cl142	Cl	0.568560	-0.151536	-0.176638
H143	H	0.816206	-0.268491	-1.052982
H144	H	0.816194	-0.268514	-0.953933
H145	H	0.849582	-0.297286	-0.801804
Cl146	Cl	-0.057027	-0.151579	-0.176717
Cl147	Cl	0.830928	-0.377091	-0.176590
H148	H	0.849574	-0.297299	-0.702754
Cl149	Cl	0.830978	-0.482977	-0.176605
H150	H	-0.044938	-0.268713	-0.312615
H151	H	0.694927	-0.959927	-0.312658
Cl152	Cl	0.317386	-0.122765	-0.143315
Cl153	Cl	0.864478	-0.592905	-0.143222
Cl154	Cl	0.646621	-0.839612	-0.360844
H155	H	0.816354	-1.045003	-0.191464
Cl156	Cl	0.646539	-0.592970	-0.360826
H157	H	0.694933	-0.164320	-0.451560
Cl158	Cl	0.830975	-0.281299	-0.562740
Cl159	Cl	0.680136	-1.055429	-0.327454
H160	H	0.816163	-0.268591	-0.451578
Cl161	Cl	0.679926	-0.483043	-0.327388
H162	H	0.849711	-0.744043	-0.158032
Cl163	Cl	0.568566	-0.281421	-0.327305
Cl164	Cl	0.194166	-0.310211	-0.360746
Cl165	Cl	0.066218	-0.281453	-0.327385
Cl166	Cl	0.679901	-0.377139	-0.327383
H167	H	0.457423	-0.268680	-0.312552
H168	H	0.849739	-0.829162	-0.158047
Cl169	Cl	0.646581	-0.733730	-0.360828
