data_functionalizedCrystal
_audit_creation_method	'MofGen! by Chris Wilmer'
_symmetry_space_group_name_H-M	'P1'
_symmetry_Int_Tables_number	1
_symmetry_cell_setting	triclinic
loop_
_symmetry_equiv_pos_as_xyz
  x,y,z
_cell_length_a	12.759401
_cell_length_b	19.121063
_cell_length_c	12.759393
_cell_angle_alpha	92.402917
_cell_angle_beta	89.981433
_cell_angle_gamma	92.467904
loop_
_atom_site_label
_atom_site_type_symbol
_atom_site_fract_x
_atom_site_fract_y
_atom_site_fract_z
Zn1	Zn	1.588320	-0.279589	-0.611775
Zn2	Zn	2.088320	0.220411	-0.111775
Zn3	Zn	1.580679	-0.397058	-0.443570
Zn4	Zn	2.080679	0.102942	0.056430
Zn5	Zn	1.412620	-0.279623	-0.436116
Zn6	Zn	1.912620	0.220377	0.063884
Zn7	Zn	1.405079	-0.397001	-0.619207
Zn8	Zn	1.905079	0.102999	-0.119207
O9	O	1.496674	-0.338318	-0.527667
O10	O	1.996674	0.161682	-0.027667
O11	O	1.734327	-0.295181	-0.589471
O12	O	2.234327	0.204819	-0.089471
O13	O	1.558343	-0.381518	-0.295562
O14	O	2.058343	0.118482	0.204438
O15	O	1.442281	-0.181335	-0.453187
O16	O	1.942281	0.318665	0.046813
O17	O	1.728713	-0.381484	-0.465891
O18	O	2.228713	0.118516	0.034109
O19	O	1.571367	-0.181309	-0.582243
O20	O	2.071367	0.318691	-0.082243
O21	O	1.434871	-0.295239	-0.290086
O22	O	1.934871	0.204761	0.209914
O23	O	1.264599	-0.295185	-0.460395
O24	O	1.764599	0.204815	0.039605
O25	O	1.429428	-0.381388	-0.765240
O26	O	1.929428	0.118612	-0.265240
O27	O	1.259059	-0.381422	-0.594911
O28	O	1.759059	0.118578	-0.094911
O29	O	1.564055	-0.295126	-0.759779
O30	O	2.064055	0.204874	-0.259779
O31	O	1.551031	-0.495334	-0.473099
O32	O	2.051031	0.004666	0.026901
O33	O	1.422019	-0.495293	-0.602139
O34	O	1.922019	0.004707	-0.102139
C35	C	1.223708	-0.338301	-0.527651
C36	C	1.723708	0.161699	-0.027651
C37	C	1.106931	-0.338311	-0.527671
C38	C	1.606931	0.161689	-0.027671
C39	C	1.054979	-0.293458	-0.592128
C40	C	1.554979	0.206542	-0.092128
C41	C	0.945255	-0.293471	-0.592135
C42	C	1.445255	0.206529	-0.092135
C43	C	0.939441	-0.383198	-0.463226
C44	C	1.439441	0.116802	0.036774
C45	C	1.049165	-0.383180	-0.463213
C46	C	1.549165	0.116820	0.036787
C47	C	1.058335	-0.241657	-0.666556
C48	C	1.558335	0.258343	-0.166556
C49	C	0.948610	-0.241670	-0.666564
C50	C	1.448610	0.258330	-0.166564
C51	C	1.484906	-0.520797	-0.539257
C52	C	1.984906	-0.020797	-0.039257
C53	C	1.479967	-0.598863	-0.544250
C54	C	1.979967	-0.098863	-0.044250
C55	C	1.544870	-0.635537	-0.479468
C56	C	2.044870	-0.135537	0.020532
C57	C	1.540231	-0.708887	-0.484170
C58	C	2.040231	-0.208887	0.015830
C59	C	1.470685	-0.745563	-0.553651
C60	C	1.970685	-0.245563	-0.053651
C61	C	1.405780	-0.708885	-0.618440
C62	C	1.905780	-0.208885	-0.118440
C63	C	1.410424	-0.635535	-0.613743
C64	C	1.910424	-0.135535	-0.113743
C65	C	1.453304	-0.967032	-0.571198
C66	C	1.953304	-0.467032	-0.071198
C67	C	1.448662	-1.040386	-0.575889
C68	C	1.948662	-0.540386	-0.075889
C69	C	1.583115	-1.040384	-0.441619
C70	C	2.083115	-0.540384	0.058381
C71	C	1.587749	-0.967033	-0.436923
C72	C	2.087749	-0.467033	0.063077
C73	C	1.522848	-0.930361	-0.501717
C74	C	2.022848	-0.430361	-0.001717
C75	C	1.465940	-0.820540	-0.558457
C76	C	1.965940	-0.320540	-0.058457
C77	C	1.527599	-0.855386	-0.496916
C78	C	2.027599	-0.355386	0.003084
C79	C	1.770706	-0.338335	-0.527683
C80	C	2.270706	0.161665	-0.027683
C81	C	1.887483	-0.338342	-0.527690
C82	C	2.387483	0.161658	-0.027690
C83	C	1.496752	-0.338247	-0.801696
C84	C	1.996752	0.161753	-0.301696
C85	C	1.496786	-0.338217	-0.918471
C86	C	1.996786	0.161783	-0.418471
C87	C	1.508517	-0.155126	-0.516055
C88	C	2.008517	0.344874	-0.016055
C89	C	1.513564	-0.077060	-0.511106
C90	C	2.013564	0.422940	-0.011106
C91	C	1.566895	-0.293296	-0.970491
C92	C	2.066895	0.206704	-0.470491
C93	C	1.566922	-0.293270	-1.080213
C94	C	2.066922	0.206730	-0.580213
C95	C	1.426726	-0.383093	-1.085886
C96	C	1.926726	0.116907	-0.585886
C97	C	1.426695	-0.383114	-0.976166
C98	C	1.926695	0.116886	-0.476166
C99	C	1.647839	-0.241439	-0.967216
C100	C	2.147839	0.258561	-0.467216
C101	C	1.647866	-0.241414	-1.076939
C102	C	2.147866	0.258586	-0.576939
C103	C	1.496660	-0.338338	-0.254701
C104	C	1.996660	0.161662	0.245299
C105	C	1.496843	-0.338170	-0.137914
C106	C	1.996843	0.161830	0.362086
H107	H	1.091146	-0.261199	-0.745038
H108	H	1.591146	0.238801	-0.245038
Br109	Br	0.897457	-0.266066	-0.803675
Br110	Br	1.397457	0.233934	-0.303675
H111	H	1.644379	-0.937173	-0.380347
H112	H	2.144379	-0.437173	0.119653
Br113	Br	1.671195	-1.090157	-0.353695
Br114	Br	2.171195	-0.590157	0.146305
H115	H	1.409313	-0.850410	-0.615026
H116	H	1.909313	-0.350410	-0.115026
H117	H	0.892395	-0.419729	-0.410747
H118	H	1.392395	0.080271	0.089253
H119	H	0.917884	-0.189976	-0.634275
H120	H	1.417884	0.310024	-0.134275
H121	H	1.091592	-0.187239	-0.641440
H122	H	1.591592	0.312761	-0.141440
H123	H	1.728302	-0.255983	-1.107644
H124	H	2.228302	0.244017	-0.607644
Br125	Br	1.639249	-0.585769	-0.385158
Br126	Br	2.139249	-0.085769	0.114842
Br127	Br	1.119669	-0.444031	-0.375694
Br128	Br	1.619669	0.055969	0.124306
H129	H	1.629560	-0.187047	-0.933999
H130	H	2.129560	0.312953	-0.433999
Br131	Br	1.365224	-0.917271	-0.659134
Br132	Br	1.865224	-0.417271	-0.159134
Br133	Br	1.628323	-0.758656	-0.396253
Br134	Br	2.128323	-0.258656	0.103747
H135	H	1.622068	-0.189732	-1.107698
H136	H	2.122068	0.310268	-0.607698
H137	H	1.392041	-1.070246	-0.632487
H138	H	1.892041	-0.570246	-0.132487
Br139	Br	1.331522	-0.444067	-0.905568
Br140	Br	1.831522	0.055933	-0.405568
Br141	Br	1.311403	-0.758658	-0.712746
Br142	Br	1.811403	-0.258658	-0.212746
Br143	Br	1.322346	-0.585763	-0.701672
Br144	Br	1.822346	-0.085763	-0.201672
Br145	Br	1.774543	-0.273939	-0.912545
Br146	Br	2.274543	0.226061	-0.412545
Br147	Br	1.331606	-0.444021	-1.164193
Br148	Br	1.831606	0.055979	-0.664193
H149	H	1.584228	-0.825522	-0.440348
H150	H	2.084228	-0.325522	0.059652
