data_functionalizedCrystal
_audit_creation_method	'MofGen! by Chris Wilmer'
_symmetry_space_group_name_H-M	'P1'
_symmetry_Int_Tables_number	1
_symmetry_cell_setting	triclinic
loop_
_symmetry_equiv_pos_as_xyz
  x,y,z
_cell_length_a	14.853567
_cell_length_b	13.330367
_cell_length_c	14.853568
_cell_angle_alpha	90.002187
_cell_angle_beta	83.635059
_cell_angle_gamma	89.995281
loop_
_atom_site_label
_atom_site_type_symbol
_atom_site_fract_x
_atom_site_fract_y
_atom_site_fract_z
O1	O	-1.196370	0.083344	-0.117701
O2	O	-0.933910	0.083360	-0.131722
O3	O	-1.072150	0.083356	0.006518
O4	O	-1.058129	0.083347	-0.255941
O5	O	-1.072129	-0.083491	0.006516
O6	O	-0.933889	-0.083487	-0.131725
O7	O	-1.196348	-0.083503	-0.117703
Cu8	Cu	-1.065117	-0.098730	-0.124714
Cu9	Cu	-1.065142	0.098586	-0.124711
O10	O	-1.058108	-0.083500	-0.255944
C11	C	-0.900311	-0.000062	-0.131088
C12	C	-0.800227	-0.000055	-0.129184
N13	N	-1.065106	-0.237511	-0.124716
C14	C	-1.071504	-0.000064	0.040106
C15	C	-1.069600	-0.000053	0.140189
C16	C	-1.229948	-0.000080	-0.118337
C17	C	-1.330031	-0.000080	-0.120241
C18	C	-0.387693	-0.000074	-0.039019
C19	C	-0.366413	-0.000079	-0.203251
C20	C	-0.460446	-0.000076	-0.205041
C21	C	-0.518108	-0.000070	-0.123819
C22	C	-0.481736	-0.000068	-0.040806
C23	C	-0.496826	-0.000068	-0.288053
C24	C	-0.590865	-0.000064	-0.289846
C25	C	-0.648528	-0.000065	-0.208623
C26	C	-0.612151	-0.000064	-0.125607
C27	C	-0.669812	-0.000059	-0.044384
C28	C	-0.633437	-0.000065	0.038633
C29	C	-0.539399	-0.000070	0.040417
C30	C	-0.742565	-0.000060	-0.210407
C31	C	-0.763855	-0.000053	-0.046172
C32	C	-1.010365	-0.290031	-0.069937
C33	C	-1.119857	-0.290020	-0.179491
C34	C	-1.119868	-0.395038	-0.179491
C35	C	-1.065127	-0.447558	-0.124711
C36	C	-1.010376	-0.395059	-0.069932
C37	C	-1.174625	-0.447545	-0.234262
C38	C	-1.174639	-0.552570	-0.234263
C39	C	-1.119892	-0.605091	-0.179487
C40	C	-1.065138	-0.552586	-0.124707
C41	C	-1.010398	-0.605105	-0.069927
C42	C	-0.955638	-0.552602	-0.015151
C43	C	-0.955630	-0.447580	-0.015157
C44	C	-1.119900	-0.710113	-0.179482
C45	C	-1.010409	-0.710133	-0.069923
N46	N	-1.065160	0.237368	-0.124702
C47	C	-0.979434	-0.000061	0.552723
C48	C	-1.143666	-0.000070	0.574004
C49	C	-1.145457	-0.000066	0.479970
C50	C	-1.064234	-0.000060	0.422309
C51	C	-0.981221	-0.000059	0.458680
C52	C	-1.228468	-0.000077	0.443591
C53	C	-1.230262	-0.000074	0.349552
C54	C	-1.149038	-0.000061	0.291889
C55	C	-1.066022	-0.000059	0.328266
C56	C	-0.984800	-0.000053	0.270604
C57	C	-0.901783	-0.000044	0.306979
C58	C	-0.899998	-0.000046	0.401017
C59	C	-1.150823	-0.000059	0.197851
C60	C	-0.986588	-0.000052	0.176561
C61	C	-1.058754	-0.000074	0.710469
C62	C	-1.060656	-0.000066	0.610385
H63	H	-0.810798	-0.000052	0.019971
N64	N	-1.319793	-0.000067	0.310317
H65	H	-1.324191	-0.061914	0.271767
H66	H	-1.370924	-0.000032	0.361162
H67	H	-1.164430	-0.247252	-0.224085
N68	N	-0.951371	-0.766779	-0.010835
H69	H	-0.885799	-0.748521	-0.028500
H70	H	-0.969149	-0.748463	0.054705
N71	N	-0.896606	-0.609257	0.043936
H72	H	-0.852541	-0.652850	0.004765
H73	H	-0.861974	-0.560005	0.078628
H74	H	-0.319459	-0.000075	-0.269379
N75	N	-0.348456	-0.000078	0.050512
H76	H	-0.369473	0.061775	0.086104
H77	H	-0.369485	-0.061967	0.086027
H78	H	-1.218414	-0.000073	0.168238
N79	N	-1.233674	-0.390903	-0.293331
H80	H	-1.225355	-0.316405	-0.285023
H81	H	-1.215955	-0.409267	-0.358870
H82	H	-1.219226	-0.595309	-0.278865
H83	H	-1.294595	-0.000091	0.490546
H84	H	-0.911049	-0.404823	0.029440
H85	H	-0.620473	-0.000059	-0.357443
H86	H	-0.449871	-0.000062	-0.354179
N87	N	-1.178963	-0.766742	-0.238544
H88	H	-1.213643	-0.717535	-0.273242
H89	H	-1.139722	-0.810329	-0.282550
H90	H	-0.920445	-0.000043	0.129618
N91	N	-0.695632	-0.000051	0.126236
H92	H	-0.760722	-0.000042	0.112500
H93	H	-0.683849	-0.061906	0.162406
H94	H	-0.509773	-0.000098	0.108005
H95	H	-0.772178	-0.000057	-0.277998
H96	H	-0.965779	-0.247278	-0.025342
N97	N	-0.814180	-0.000064	0.244784
H98	H	-0.827916	-0.000075	0.179694
H99	H	-0.778005	0.061787	0.256561
N100	N	-0.810465	-0.000040	0.440249
H101	H	-0.821659	-0.000048	0.508571
H102	H	-0.774913	-0.061891	0.419158
N103	N	-0.889897	-0.000045	0.591948
H104	H	-0.901084	-0.000044	0.660270
H105	H	-0.854343	-0.061896	0.570861
H106	H	-1.209794	-0.000083	0.620957
