data_functionalizedCrystal
_audit_creation_method	'MofGen! by Chris Wilmer'
_symmetry_space_group_name_H-M	'P1'
_symmetry_Int_Tables_number	1
_symmetry_cell_setting	triclinic
loop_
_symmetry_equiv_pos_as_xyz
  x,y,z
_cell_length_a	13.339070
_cell_length_b	23.532357
_cell_length_c	12.376457
_cell_angle_alpha	101.196651
_cell_angle_beta	75.589755
_cell_angle_gamma	99.228793
loop_
_atom_site_label
_atom_site_type_symbol
_atom_site_fract_x
_atom_site_fract_y
_atom_site_fract_z
O1	O	1.358829	0.277201	-0.094100
O2	O	1.858829	0.777201	0.405900
O3	O	1.064687	0.239788	-0.094086
O4	O	1.564687	0.739788	0.405914
O5	O	1.220649	0.176997	-0.094070
O6	O	1.720649	0.676997	0.405930
O7	O	1.202867	0.339992	-0.094115
O8	O	1.702867	0.839992	0.405885
O9	O	1.181673	0.192667	0.093938
O10	O	1.681673	0.692667	0.593938
O11	O	1.025710	0.255459	0.093923
O12	O	1.525710	0.755459	0.593923
O13	O	1.319852	0.292871	0.093909
O14	O	1.819852	0.792871	0.593909
Zn15	Zn	1.166593	0.276653	0.123766
Zn16	Zn	1.666593	0.776653	0.623766
Zn17	Zn	1.217946	0.256007	-0.123943
Zn18	Zn	1.717946	0.756007	0.376057
O19	O	1.163890	0.355663	0.093893
O20	O	1.663890	0.855663	0.593893
C21	C	1.007574	0.241304	-0.000079
C22	C	1.507574	0.741304	0.499921
C23	C	0.895467	0.222466	-0.000073
C24	C	1.395467	0.722466	0.499927
C25	C	1.200715	0.163544	-0.000062
C26	C	1.700715	0.663544	0.499938
C27	C	1.199375	0.100111	-0.000051
C28	C	1.699375	0.600111	0.499949
C29	C	0.529167	0.368938	-0.000132
C30	C	1.029167	0.868938	0.499868
C31	C	0.634499	0.386638	-0.000141
C32	C	1.134499	0.886638	0.499859
C33	C	0.699745	0.345597	-0.000124
C34	C	1.199745	0.845597	0.499876
C35	C	0.659651	0.286852	-0.000098
C36	C	1.159651	0.786852	0.499902
C37	C	0.554312	0.269148	-0.000097
C38	C	1.054312	0.769148	0.499903
C39	C	0.724890	0.245807	-0.000089
C40	C	1.224890	0.745807	0.499911
C41	C	0.684796	0.187062	-0.000063
C42	C	1.184796	0.687062	0.499937
C43	C	0.579466	0.169362	-0.000061
C44	C	1.079466	0.669362	0.499939
C45	C	0.514219	0.210404	-0.000079
C46	C	1.014219	0.710404	0.499921
C47	C	0.830230	0.263510	-0.000090
C48	C	1.330230	0.763510	0.499910
C49	C	0.855374	0.163721	-0.000055
C50	C	1.355374	0.663721	0.499945
C51	C	0.750043	0.146021	-0.000045
C52	C	1.250043	0.646021	0.499955
C53	C	1.212234	-0.301802	-0.102595
C54	C	1.712234	0.198198	0.397405
C55	C	1.210963	-0.361407	-0.102602
C56	C	1.710963	0.138593	0.397398
O57	O	1.228340	-0.399499	-0.189760
O58	O	1.728340	0.100501	0.310240
N59	N	1.189086	-0.382678	-0.000120
N60	N	1.689086	0.117322	0.499880
C61	C	1.168469	-0.344341	0.102375
C62	C	1.668469	0.155659	0.602375
O63	O	1.149744	-0.367907	0.189543
O64	O	1.649744	0.132093	0.689543
C65	C	1.169732	-0.284738	0.102380
C66	C	1.669732	0.215262	0.602380
C67	C	1.191621	-0.263469	-0.000108
C68	C	1.691621	0.236531	0.499892
C69	C	1.234119	-0.280533	-0.205076
C70	C	1.734119	0.219467	0.294924
C71	C	1.235391	-0.220931	-0.205069
C72	C	1.735391	0.279069	0.294931
C73	C	1.214778	-0.182599	-0.102582
C74	C	1.714778	0.317401	0.397418
C75	C	1.192893	-0.203868	-0.000101
C76	C	1.692893	0.296132	0.499899
C77	C	1.149108	-0.246403	0.204874
C78	C	1.649108	0.253597	0.704874
C79	C	1.150373	-0.186796	0.204870
C80	C	1.650373	0.313204	0.704870
C81	C	1.172261	-0.165528	0.102382
C82	C	1.672261	0.334472	0.602382
C83	C	1.173552	-0.105935	0.102392
C84	C	1.673552	0.394065	0.602392
N85	N	1.195429	-0.084664	-0.000089
N86	N	1.695429	0.415336	0.499911
C87	C	1.216042	-0.122996	-0.102576
C88	C	1.716042	0.377004	0.397424
C89	C	1.165815	-0.469513	0.102356
C90	C	1.665815	0.030487	0.602356
C91	C	1.164559	-0.529114	0.102352
C92	C	1.664559	-0.029114	0.602352
C93	C	1.207051	-0.546176	-0.102625
C94	C	1.707051	-0.046176	0.397375
C95	C	1.208315	-0.486572	-0.102620
C96	C	1.708315	0.013428	0.397380
C97	C	1.187692	-0.448241	-0.000126
C98	C	1.687692	0.051759	0.499874
C99	C	1.218713	0.002171	-0.102554
C100	C	1.718713	0.502171	0.397446
C101	C	1.219988	0.061779	-0.102538
C102	C	1.719988	0.561779	0.397462
C103	C	1.177490	0.078835	0.102438
C104	C	1.677490	0.578835	0.602438
C105	C	1.176221	0.019233	0.102423
C106	C	1.676221	0.519233	0.602423
C107	C	1.196831	-0.019098	-0.000083
C108	C	1.696831	0.480902	0.499917
O109	O	1.156181	-0.067809	0.189506
O110	O	1.656181	0.432191	0.689506
O111	O	1.234751	-0.099423	-0.189730
O112	O	1.734751	0.400577	0.310270
C113	C	1.376965	0.291356	-0.000100
C114	C	1.876965	0.791356	0.499900
C115	C	1.489075	0.310193	-0.000114
C116	C	1.989075	0.810193	0.499886
C117	C	1.183825	0.369115	-0.000117
C118	C	1.683825	0.869115	0.499883
C119	C	1.185166	0.432548	-0.000135
C120	C	1.685166	0.932548	0.499865
N121	N	1.131553	0.290744	0.292821
N122	N	1.631553	0.790744	0.792821
N123	N	1.252994	0.241912	-0.292998
N124	N	1.752994	0.741912	0.207002
C125	C	1.334333	0.209191	0.647826
C126	C	1.834333	0.709191	1.147826
C127	C	1.358852	0.199327	0.529489
C128	C	1.858852	0.699327	1.029489
C129	C	1.302029	0.222180	0.470316
C130	C	1.802029	0.722180	0.970316
C131	C	1.220684	0.254899	0.529492
C132	C	1.720684	0.754899	1.029492
C133	C	1.196168	0.264768	0.647841
C134	C	1.696168	0.764768	1.147841
C135	C	1.163864	0.277757	0.470331
C136	C	1.663864	0.777757	0.970331
C137	C	1.082518	0.310476	0.529507
C138	C	1.582518	0.810476	1.029507
C139	C	1.058006	0.320343	0.647844
C140	C	1.558006	0.820343	1.147844
C141	C	1.114829	0.297489	0.707017
C142	C	1.614829	0.797489	1.207017
C143	C	1.188380	0.267889	0.351982
C144	C	1.688380	0.767889	0.851982
C145	C	1.050214	0.323466	0.351997
C146	C	1.550214	0.823466	0.851997
C147	C	1.025696	0.333330	0.470334
C148	C	1.525696	0.833330	0.970334
H149	H	0.862862	0.311341	-0.000107
H150	H	1.362862	0.811341	0.499893
Br151	Br	1.265091	-0.192078	-0.344168
Br152	Br	1.765091	0.307922	0.155832
H153	H	1.237815	0.079092	-0.186001
H154	H	1.737815	0.579092	0.313999
Br155	Br	1.119397	-0.275252	0.343975
Br156	Br	1.619397	0.224748	0.843975
Br157	Br	1.298774	0.223487	0.271686
Br158	Br	1.798774	0.723487	0.771686
H159	H	0.908500	0.130301	-0.000046
H160	H	1.408500	0.630301	0.499954
H161	H	1.094864	0.305518	0.803377
H162	H	1.594864	0.805518	1.303377
H163	H	1.158407	0.001916	0.185877
H164	H	1.658407	0.501916	0.685877
Br165	Br	0.688908	0.466359	-0.000186
Br166	Br	1.188908	0.966359	0.499814
Br167	Br	1.246683	-0.049841	-0.241670
Br168	Br	1.746683	0.450159	0.258330
H169	H	1.250902	-0.311738	-0.288537
H170	H	1.750902	0.188262	0.211463
Br171	Br	1.235020	-0.598210	-0.241716
Br172	Br	1.735020	-0.098210	0.258284
Br173	Br	1.469245	0.154927	0.449180
Br174	Br	1.969245	0.654927	0.949180
Br175	Br	1.238020	-0.457715	-0.241716
Br176	Br	1.738020	0.042285	0.258284
H177	H	0.476037	0.402347	-0.000156
H178	H	0.976037	0.902347	0.499844
H179	H	1.160712	0.110056	0.185880
H180	H	1.660712	0.610056	0.685880
H181	H	1.146750	-0.546424	0.185809
H182	H	1.646750	-0.046424	0.685809
Br183	Br	1.411454	0.178187	0.728132
Br184	Br	1.911454	0.678187	1.228132
Br185	Br	1.137831	-0.417496	0.241469
Br186	Br	1.637831	0.082504	0.741469
H187	H	1.133563	-0.155591	0.288336
H188	H	1.633563	0.344409	0.788336
Br189	Br	0.947625	0.364757	0.728158
Br190	Br	1.447625	0.864757	1.228158
H191	H	0.959463	0.359970	0.518530
H192	H	1.459463	0.859970	1.018530
H193	H	1.321996	0.214148	0.373960
H194	H	1.821996	0.714148	0.873960
Br195	Br	0.973100	0.354488	0.271699
Br196	Br	1.473100	0.854488	0.771699
Br197	Br	0.695616	0.066297	-0.000008
Br198	Br	1.195616	0.566297	0.499992
H199	H	0.428448	0.195995	-0.000071
H200	H	0.928448	0.695995	0.499929
Br201	Br	0.842697	0.369620	-0.000136
Br202	Br	1.342697	0.869620	0.499864
H203	H	0.546828	0.121527	-0.000053
H204	H	1.046828	0.621527	0.499947
