data_functionalizedCrystal
_audit_creation_method	'MofGen! by Chris Wilmer'
_symmetry_space_group_name_H-M	'P1'
_symmetry_Int_Tables_number	1
_symmetry_cell_setting	triclinic
loop_
_symmetry_equiv_pos_as_xyz
  x,y,z
_cell_length_a	12.759401
_cell_length_b	12.759400
_cell_length_c	12.759393
_cell_angle_alpha	89.968436
_cell_angle_beta	89.981504
_cell_angle_gamma	90.014845
loop_
_atom_site_label
_atom_site_type_symbol
_atom_site_fract_x
_atom_site_fract_y
_atom_site_fract_z
Zn1	Zn	1.606255	-0.418200	-0.593981
Zn2	Zn	1.606150	-0.593919	-0.418301
Zn3	Zn	1.430557	-0.418255	-0.418321
Zn4	Zn	1.430546	-0.593838	-0.593943
O5	O	1.518377	-0.506053	-0.506137
O6	O	1.753262	-0.441520	-0.570685
O7	O	1.582818	-0.570673	-0.271283
O8	O	1.453913	-0.271226	-0.441647
O9	O	1.753185	-0.570620	-0.441614
O10	O	1.582998	-0.271186	-0.570704
O11	O	1.453811	-0.441614	-0.271297
O12	O	1.283535	-0.441535	-0.441609
O13	O	1.453894	-0.570482	-0.740969
O14	O	1.283527	-0.570536	-0.570638
O15	O	1.582987	-0.441442	-0.740997
O16	O	1.582807	-0.740929	-0.441577
O17	O	1.453791	-0.740870	-0.570620
C18	C	1.245410	-0.506033	-0.506122
C19	C	1.128633	-0.506050	-0.506141
C20	C	1.073794	-0.573328	-0.573215
C21	C	0.964070	-0.573342	-0.573227
C22	C	0.964034	-0.438796	-0.439081
C23	C	1.073756	-0.438778	-0.439075
C24	C	1.073815	-0.651010	-0.650660
C25	C	0.964091	-0.651024	-0.650672
C26	C	1.518315	-0.779020	-0.506115
C27	C	1.518384	-0.895797	-0.506140
C28	C	1.585637	-0.950655	-0.439022
C29	C	1.585702	-1.060379	-0.439054
C30	C	1.451252	-1.060377	-0.573327
C31	C	1.451193	-0.950655	-0.573299
C32	C	1.663258	-0.950657	-0.361498
C33	C	1.663322	-1.060381	-0.361530
C34	C	1.792410	-0.506073	-0.506152
C35	C	1.909187	-0.506082	-0.506158
C36	C	1.518451	-0.505947	-0.780170
C37	C	1.518482	-0.505902	-0.896947
C38	C	1.518468	-0.232019	-0.506182
C39	C	1.518507	-0.115243	-0.506201
C40	C	1.585710	-0.438704	-0.951825
C41	C	1.585735	-0.438666	-1.061549
C42	C	1.451301	-0.573033	-1.061507
C43	C	1.451272	-0.573064	-0.951785
C44	C	1.663328	-0.361131	-0.951851
C45	C	1.663353	-0.361093	-1.061575
C46	C	1.518364	-0.506083	-0.233169
C47	C	1.518537	-0.505832	-0.116393
H48	H	1.103623	-0.629311	-0.732067
C49	C	1.773210	-0.390442	-1.211529
C50	C	1.773197	-0.390500	-1.101787
H51	H	1.841024	-0.408585	-1.236351
H52	H	1.723579	-0.440066	-1.236324
H53	H	1.755052	-0.322628	-1.236334
H54	H	1.791348	-0.458317	-1.076981
H55	H	1.822844	-0.340874	-1.076981
H56	H	1.740626	-1.094325	-0.390742
C57	C	1.400011	-1.094058	-0.751199
C58	C	1.377396	-1.120683	-0.647142
H59	H	1.354418	-1.131293	-0.796768
H60	H	1.390343	-1.020870	-0.760778
H61	H	1.470607	-1.111973	-0.766623
H62	H	1.306802	-1.102761	-0.631715
H63	H	1.387055	-1.193888	-0.637558
C64	C	1.839718	-0.995631	-0.408935
C65	C	1.773061	-0.910339	-0.391004
H66	H	1.907501	-0.970738	-0.427156
H67	H	1.844196	-1.037030	-0.347209
H68	H	1.812667	-1.036960	-0.464614
H69	H	1.800108	-0.869014	-0.335319
H70	H	1.768586	-0.868923	-0.452737
H71	H	1.107829	-0.728262	-0.621376
H72	H	1.634239	-0.283784	-1.095623
H73	H	1.396579	-0.627712	-1.106169
C74	C	0.999944	-0.586053	-0.823655
C75	C	0.918184	-0.611816	-0.755089
H76	H	0.971599	-0.561851	-0.888115
H77	H	1.041834	-0.532517	-0.793339
H78	H	1.041838	-0.646328	-0.836026
H79	H	0.876294	-0.551539	-0.742712
H80	H	0.876276	-0.665356	-0.785411
H81	H	1.118401	-0.383987	-0.384464
C82	C	0.862847	-0.754184	-0.530063
C83	C	0.923856	-0.760834	-0.621055
H84	H	0.838005	-0.821974	-0.511784
H85	H	0.904188	-0.727082	-0.474428
H86	H	0.804960	-0.708999	-0.542275
H87	H	0.981747	-0.806014	-0.608840
H88	H	0.882513	-0.787951	-0.676702
C89	C	1.534019	-1.064241	-0.224818
C90	C	1.633971	-1.100710	-0.251679
H91	H	1.515898	-1.089146	-0.157007
H92	H	1.533981	-0.989800	-0.224792
H93	H	1.484389	-1.089060	-0.274431
H94	H	1.683603	-1.075884	-0.202070
H95	H	1.634017	-1.175167	-0.251696
H96	H	1.641559	-0.279767	-0.922095
C97	C	1.762354	-0.398556	-0.796293
C98	C	1.767639	-0.400502	-0.905891
H99	H	1.826749	-0.422871	-0.767921
H100	H	1.749845	-0.328874	-0.773329
H101	H	1.706893	-0.442620	-0.773302
H102	H	1.823095	-0.356432	-0.928882
H103	H	1.780160	-0.470195	-0.928864
C104	C	0.795820	-0.379090	-0.379517
C105	C	0.903708	-0.364866	-0.365352
H106	H	0.758582	-0.333453	-0.333990
H107	H	0.777871	-0.363791	-0.450125
H108	H	0.777838	-0.449670	-0.364024
H109	H	0.921692	-0.294288	-0.380852
H110	H	0.921664	-0.380158	-0.294728
C111	C	1.436470	-0.827174	-0.714587
C112	C	1.377275	-0.890358	-0.647088
H113	H	1.390833	-0.789956	-0.760147
H114	H	1.476463	-0.778799	-0.674590
H115	H	1.482250	-0.869922	-0.754812
H116	H	1.331500	-0.847610	-0.606857
H117	H	1.337264	-0.938739	-0.687089
H118	H	1.634133	-0.916710	-0.284172
C119	C	1.318372	-0.705853	-0.962769
C120	C	1.377356	-0.646913	-0.891461
H121	H	1.272740	-0.751446	-0.925525
H122	H	1.278230	-0.660053	-1.005577
H123	H	1.364148	-0.746045	-1.005553
H124	H	1.331580	-0.606715	-0.848682
H125	H	1.417502	-0.692718	-0.848635
