data_functionalizedCrystal
_audit_creation_method	'MofGen! by Chris Wilmer'
_symmetry_space_group_name_H-M	'P1'
_symmetry_Int_Tables_number	1
_symmetry_cell_setting	triclinic
loop_
_symmetry_equiv_pos_as_xyz
  x,y,z
_cell_length_a	15.698487
_cell_length_b	20.016444
_cell_length_c	20.016444
_cell_angle_alpha	90.002879
_cell_angle_beta	60.001889
_cell_angle_gamma	60.003646
loop_
_atom_site_label
_atom_site_type_symbol
_atom_site_fract_x
_atom_site_fract_y
_atom_site_fract_z
Zr1	Zr	0.932432	-0.087655	0.643579
O2	O	1.110129	-0.194324	0.536906
O3	O	0.754725	-0.054957	0.676280
O4	O	0.932427	-0.194327	0.676279
O5	O	0.932434	0.054986	0.536907
O6	O	0.932434	-0.194327	0.786219
O7	O	0.932427	-0.054954	0.536907
O8	O	0.614557	0.054980	0.786220
O9	O	1.250311	-0.194321	0.536906
O10	O	0.827827	-0.041010	0.772273
O11	O	0.827827	0.041037	0.690227
O12	O	1.037048	-0.123053	0.690226
O13	O	1.037048	-0.041006	0.608179
Zr14	Zr	0.932453	0.087686	0.818921
Zr15	Zr	0.932442	-0.087655	0.818920
Zr16	Zr	0.932442	0.087687	0.643580
Zr17	Zr	1.156005	-0.087651	0.643579
Zr18	Zr	0.708880	0.087682	0.818921
O19	O	1.110160	0.054989	0.786220
O20	O	1.110145	-0.194324	0.786219
O21	O	1.110145	0.054989	0.536907
O22	O	0.754755	0.194355	0.925594
O23	O	0.754740	-0.054958	0.925593
O24	O	0.754740	0.194356	0.676281
O25	O	0.932451	-0.054954	0.925593
O26	O	0.932458	0.194359	0.786221
O27	O	0.932451	0.194359	0.676281
O28	O	0.932458	0.054985	0.925593
O29	O	1.250319	-0.194322	0.676279
O30	O	0.614566	0.194353	0.786221
O31	O	0.614574	0.194353	0.925594
O32	O	0.614566	0.054980	0.925593
O33	O	1.250319	-0.054948	0.536907
O34	O	1.250328	-0.054948	0.676280
O35	O	0.827837	0.123084	0.772274
O36	O	0.827837	0.041037	0.854321
O37	O	1.037058	-0.041006	0.772273
O38	O	1.037058	0.041041	0.690227
C39	C	0.652787	0.000011	0.731250
C40	C	0.557874	0.000009	0.731250
C41	C	0.932429	0.000016	0.511925
C42	C	0.932425	0.000016	0.437488
C43	C	0.932456	0.219341	0.731251
C44	C	0.932460	0.293778	0.731251
C45	C	0.384091	0.000023	0.731248
C46	C	0.480796	0.000018	0.731248
C47	C	1.212098	0.000021	0.731250
C48	C	1.307011	0.000022	0.731250
C49	C	0.932429	-0.219310	0.731249
C50	C	0.932425	-0.293747	0.731249
C51	C	1.041658	0.422220	0.688420
C52	C	1.041653	0.492165	0.688418
C53	C	0.823219	0.577810	0.774081
C54	C	0.823225	0.507866	0.774078
C55	C	0.932448	0.430071	0.731250
C56	C	0.932437	0.569960	0.731250
C57	C	0.932430	0.645798	0.731248
C58	C	0.932455	0.354228	0.731251
C59	C	0.823227	0.042844	0.309048
C60	C	0.823232	0.042846	0.239103
C61	C	1.041666	-0.042813	0.153453
C62	C	1.041660	-0.042810	0.223398
C63	C	0.932437	0.000016	0.301195
C64	C	0.932448	0.000015	0.161305
C65	C	0.932454	0.000017	0.085467
C66	C	0.932430	0.000016	0.377038
C67	C	0.932456	0.000015	0.950575
C68	C	0.932460	0.000015	1.025012
C69	C	0.652800	0.000010	0.950576
C70	C	0.557892	0.000009	1.025013
C71	C	0.652800	0.219336	0.731251
C72	C	0.557892	0.293771	0.731251
C73	C	0.652813	0.219336	0.950576
C74	C	0.557910	0.293771	1.025014
C75	C	1.212071	-0.219304	0.511924
C76	C	1.306975	-0.293740	0.437486
C77	C	1.212085	0.000021	0.511924
C78	C	1.306993	0.000023	0.437487
C79	C	1.212085	-0.219305	0.731249
C80	C	1.306993	-0.293740	0.731249
C81	C	0.513317	-0.042827	1.017141
C82	C	0.424153	-0.042845	1.087076
C83	C	0.379560	-0.000022	1.164882
C84	C	0.424144	0.042815	1.172751
C85	C	0.513312	0.042828	1.102817
C86	C	0.513327	0.371562	0.774079
C87	C	0.424164	0.441509	0.774077
C88	C	0.379560	0.433663	0.731250
C89	C	0.424134	0.355864	0.688417
C90	C	0.513302	0.285919	0.688416
C91	C	0.513342	0.285899	1.102805
C92	C	0.424183	0.355832	1.172754
C93	C	0.379586	0.433636	1.164909
C94	C	0.424163	0.441507	1.087110
C95	C	0.513327	0.371575	1.017163
C96	C	1.351553	-0.285867	0.359695
C97	C	1.440741	-0.355801	0.289746
C98	C	1.485342	-0.433605	0.297591
C99	C	1.440759	-0.441476	0.375390
C100	C	1.351580	-0.371543	0.445337
C101	C	1.351577	0.042851	0.445359
C102	C	1.440766	0.042850	0.375424
C103	C	1.485362	0.000025	0.297618
C104	C	1.440774	-0.042809	0.289749
C105	C	1.351593	-0.042812	0.359683
C106	C	1.351568	-0.285868	0.774083
C107	C	1.440732	-0.355801	0.774099
C108	C	1.485326	-0.433606	0.731275
C109	C	1.440742	-0.441476	0.688438
C110	C	1.351573	-0.371544	0.688428
H111	H	1.130594	0.358878	0.653544
O112	O	0.556563	0.379341	0.815686
C113	C	0.498083	0.463006	0.853491
H114	H	0.461326	0.500300	0.819901
H115	H	0.564994	0.472752	0.851169
H116	H	0.420642	0.483620	0.919972
O117	O	0.292823	0.501551	0.731288
C118	C	0.189633	0.501447	0.765367
H119	H	0.216545	0.436136	0.759537
H120	H	0.146460	0.527200	0.731380
H121	H	0.122452	0.540921	0.832740
O122	O	0.556420	-0.084371	0.941610
C123	C	0.461262	-0.052877	0.932637
H124	H	0.372055	-0.021517	0.995596
H125	H	0.474715	-0.105006	0.895850
H126	H	0.460067	-0.006645	0.899209
H127	H	1.557957	-0.490542	0.240629
O128	O	1.484134	-0.348291	0.815692
C129	C	1.572418	-0.426693	0.806512
H130	H	1.557775	-0.473061	0.790753
H131	H	1.565173	-0.425900	0.866127
H132	H	1.665693	-0.444514	0.755233
O133	O	0.556386	0.210373	0.646925
C134	C	0.461188	0.201441	0.678413
H135	H	0.385409	0.245729	0.743695
H136	H	0.495175	0.136022	0.678304
H137	H	0.426001	0.215349	0.638704
H138	H	0.549639	0.222553	1.109208
H139	H	1.315295	-0.077686	0.353262
H140	H	0.387898	0.349409	1.236095
H141	H	1.477064	-0.504834	0.653572
H142	H	0.306983	0.490573	1.221871
O143	O	1.308458	-0.379342	0.646736
C144	C	1.366928	-0.463013	0.608959
H145	H	1.457303	-0.500297	0.600499
H146	H	1.382320	-0.472776	0.546737
H147	H	1.308443	-0.483622	0.649093
H148	H	1.477098	-0.077676	0.226390
O149	O	0.380660	0.517150	1.079642
C150	C	0.292423	0.577176	1.158066
H151	H	0.253452	0.549899	1.204414
H152	H	0.217379	0.631111	1.157315
H153	H	0.335085	0.599058	1.175883
O154	O	0.556624	0.379332	0.941641
C155	C	0.608230	0.422466	0.932671
H156	H	0.567971	0.461051	0.995631
H157	H	0.588645	0.464056	0.895902
H158	H	0.709801	0.377170	0.899224
O159	O	0.380776	0.517137	0.815620
C160	C	0.292492	0.577198	0.806458
H161	H	0.307124	0.549957	0.748610
H162	H	0.299749	0.631126	0.801562
H163	H	0.199216	0.599078	0.861792
H164	H	1.315244	-0.222521	0.353292
O165	O	1.483889	0.084539	0.383225
C166	C	1.425406	0.122326	0.466896
H167	H	1.335022	0.130795	0.504178
H168	H	1.410028	0.184544	0.476651
H169	H	1.483874	0.082198	0.487516
O170	O	1.147847	0.484392	0.646802
C171	C	1.244244	0.400729	0.608985
H172	H	1.212230	0.363427	0.642578
H173	H	1.320630	0.390990	0.611289
H174	H	1.277822	0.380120	0.542510
O175	O	1.308079	0.084558	0.520952
C176	C	1.183122	0.144657	0.563982
H177	H	1.158707	0.160581	0.518603
H178	H	1.157495	0.201848	0.602657
H179	H	1.132119	0.120142	0.605481
O180	O	1.483859	-0.347999	0.214240
C181	C	1.425372	-0.264329	0.222324
H182	H	1.334991	-0.227049	0.284740
H183	H	1.409991	-0.254575	0.172168
H184	H	1.483840	-0.243705	0.216601
O185	O	0.380956	-0.084556	1.079464
C186	C	0.402726	-0.144668	1.117356
H187	H	0.480885	-0.160592	1.120586
H188	H	0.426341	-0.201855	1.080253
H189	H	0.318557	-0.120165	1.181867
H190	H	0.387804	0.349488	0.653549
H191	H	0.734293	0.641158	0.808952
O192	O	1.572034	-0.000086	0.229603
C193	C	1.601826	-0.047052	0.159236
H194	H	1.577254	-0.092343	0.175273
H195	H	1.702618	-0.081909	0.109856
H196	H	1.549698	-0.004883	0.135679
H197	H	0.734288	0.514265	0.808955
H198	H	0.306952	-0.000039	1.221820
O199	O	0.717025	0.084523	0.384558
C200	C	0.620636	0.122308	0.376487
H201	H	0.652666	0.130782	0.314071
H202	H	0.544257	0.184524	0.426644
H203	H	0.587042	0.082176	0.382219
O204	O	0.717176	0.084553	0.246691
C205	C	0.710659	0.144650	0.208783
H206	H	0.772638	0.160566	0.205560
H207	H	0.614065	0.201845	0.245869
H208	H	0.740000	0.120135	0.144268
O209	O	1.484179	-0.517118	0.382858
C210	C	1.572464	-0.577145	0.304434
H211	H	1.557811	-0.549870	0.258085
H212	H	1.565231	-0.631082	0.305184
H213	H	1.665738	-0.599022	0.286618
H214	H	1.315285	-0.377963	0.508677
H215	H	1.315274	-0.222522	0.808956
O216	O	1.571914	-0.501619	0.731229
C217	C	1.601749	-0.571985	0.684227
H218	H	1.523548	-0.555953	0.681003
H219	H	1.620283	-0.621371	0.713890
H220	H	1.685540	-0.595531	0.619784
H221	H	1.130592	-0.077682	0.090104
H222	H	1.130597	-0.077683	0.216997
O223	O	0.380645	0.084403	1.248395
C224	C	0.292403	0.075185	1.308423
H225	H	0.253427	0.059401	1.281148
H226	H	0.217362	0.134792	1.362360
H227	H	0.335061	0.023911	1.330303
H228	H	0.549594	0.077714	1.109238
