data_functionalizedCrystal
_audit_creation_method	'MofGen! by Chris Wilmer'
_symmetry_space_group_name_H-M	'P1'
_symmetry_Int_Tables_number	1
_symmetry_cell_setting	triclinic
loop_
_symmetry_equiv_pos_as_xyz
  x,y,z
_cell_length_a	14.908783
_cell_length_b	25.639239
_cell_length_c	14.908308
_cell_angle_alpha	86.738311
_cell_angle_beta	90.211273
_cell_angle_gamma	93.329934
loop_
_atom_site_label
_atom_site_type_symbol
_atom_site_fract_x
_atom_site_fract_y
_atom_site_fract_z
Zn1	Zn	1.345212	-0.182873	0.587804
Zn2	Zn	1.845212	0.317127	1.087804
Zn3	Zn	1.353747	-0.264999	0.437432
Zn4	Zn	1.853747	0.235001	0.937432
Zn5	Zn	1.203526	-0.182307	0.428775
Zn6	Zn	1.703526	0.317693	0.928775
Zn7	Zn	1.194767	-0.275011	0.579052
Zn8	Zn	1.694767	0.224989	1.079052
O9	O	1.274313	-0.226297	0.508266
O10	O	1.774313	0.273703	1.008266
O11	O	1.472174	-0.189814	0.575142
O12	O	1.972174	0.310186	1.075142
O13	O	1.341057	-0.249603	0.310461
O14	O	1.841057	0.250397	0.810461
O15	O	1.222415	-0.109215	0.449910
O16	O	1.722415	0.390785	0.949910
O17	O	1.478445	-0.250152	0.464665
O18	O	1.978445	0.249848	0.964665
O19	O	1.326511	-0.109631	0.566748
O20	O	1.826511	0.390369	1.066748
O21	O	1.230690	-0.188850	0.304101
O22	O	1.730690	0.311150	0.804101
O23	O	1.076534	-0.198558	0.441424
O24	O	1.576534	0.301442	0.941424
O25	O	1.207486	-0.267215	0.706036
O26	O	1.707486	0.232785	1.206036
O27	O	1.070099	-0.266667	0.551832
O28	O	1.570099	0.233333	1.051832
O29	O	1.318018	-0.199522	0.712465
O30	O	1.818018	0.300478	1.212465
O31	O	1.332564	-0.339494	0.456179
O32	O	1.832564	0.160506	0.956179
O33	O	1.215762	-0.346850	0.560227
O34	O	1.715762	0.153150	1.060227
C35	C	1.040690	-0.233638	0.494740
C36	C	1.540690	0.266362	0.994740
C37	C	0.940744	-0.236791	0.488975
C38	C	1.440744	0.263209	0.988975
C39	C	0.746393	-0.179985	0.593357
C40	C	1.246393	0.320015	1.093357
C41	C	0.652484	-0.182946	0.587943
C42	C	1.152484	0.317054	1.087943
C43	C	0.659017	-0.245672	0.472729
C44	C	1.159017	0.254328	0.972729
C45	C	0.752925	-0.242711	0.478143
C46	C	1.252925	0.257289	0.978143
C47	C	0.796610	-0.209867	0.538460
C48	C	1.296610	0.290133	1.038460
C49	C	0.890520	-0.206908	0.543878
C50	C	1.390520	0.293092	1.043878
C51	C	0.897051	-0.269631	0.428659
C52	C	1.397051	0.230369	0.928659
C53	C	0.803142	-0.272592	0.423245
C54	C	1.303142	0.227408	0.923245
C55	C	1.274162	-0.362143	0.508213
C56	C	1.774162	0.137857	1.008213
C57	C	1.274178	-0.420257	0.508226
C58	C	1.774178	0.079743	1.008226
C59	C	1.213484	-0.675290	0.562425
C60	C	1.713484	-0.175290	1.062425
C61	C	1.213452	-0.620686	0.562412
C62	C	1.713452	-0.120686	1.062412
O63	O	1.161702	-0.595717	0.608455
O64	O	1.661702	-0.095717	1.108455
N65	N	1.274288	-0.589529	0.508279
N66	N	1.774288	-0.089529	1.008279
C67	C	1.335167	-0.612979	0.454162
C68	C	1.835167	-0.112979	0.954162
O69	O	1.386911	-0.581463	0.408118
O70	O	1.886911	-0.081463	0.908118
C71	C	1.335203	-0.667581	0.454180
C72	C	1.835203	-0.167581	0.954180
C73	C	1.274357	-0.698736	0.508310
C74	C	1.774357	-0.198736	1.008310
C75	C	1.152643	-0.706444	0.616550
C76	C	1.652643	-0.206444	1.116550
C77	C	1.152675	-0.761044	0.616561
C78	C	1.652675	-0.261044	1.116561
C79	C	1.213548	-0.784489	0.562446
C80	C	1.713548	-0.284489	1.062446
C81	C	1.274389	-0.753335	0.508321
C82	C	1.774389	-0.253335	1.008321
C83	C	1.396086	-0.691030	0.400069
C84	C	1.896086	-0.191030	0.900069
C85	C	1.396118	-0.745636	0.400092
C86	C	1.896118	-0.245636	0.900092
C87	C	1.335271	-0.776791	0.454221
C88	C	1.835271	-0.276791	0.954221
C89	C	1.335293	-0.831381	0.454217
C90	C	1.835293	-0.331381	0.954217
N91	N	1.274457	-0.862538	0.508349
N92	N	1.774457	-0.362538	1.008349
C93	C	1.213584	-0.839092	0.562464
C94	C	1.713584	-0.339092	1.062464
C95	C	1.335087	-0.498310	0.454130
C96	C	1.835087	0.001690	0.954130
C97	C	1.335048	-0.443708	0.454107
C98	C	1.835048	0.056292	0.954107
C99	C	1.213333	-0.451419	0.562358
C100	C	1.713333	0.048581	1.062358
C101	C	1.213369	-0.506022	0.562376
C102	C	1.713369	-0.006022	1.062376
C103	C	1.274251	-0.529466	0.508263
C104	C	1.774251	-0.029466	1.008263
C105	C	1.213655	-0.953755	0.562482
C106	C	1.713655	-0.453755	1.062482
C107	C	1.213690	-1.008360	0.562486
C108	C	1.713690	-0.508360	1.062486
C109	C	1.335407	-1.000644	0.454238
C110	C	1.835407	-0.500644	0.954238
C111	C	1.335370	-0.946044	0.454231
C112	C	1.835370	-0.446044	0.954231
C113	C	1.274490	-0.922602	0.508360
C114	C	1.774490	-0.422602	1.008360
O115	O	1.387019	-0.856386	0.408200
O116	O	1.887019	-0.356386	0.908200
O117	O	1.161857	-0.870614	0.608510
O118	O	1.661857	-0.370614	1.108510
C119	C	1.508848	-0.218929	0.521845
C120	C	2.008848	0.281071	1.021845
C121	C	1.608793	-0.215789	0.527632
C122	C	2.108793	0.284211	1.027632
C123	C	1.260823	-0.234549	0.742787
C124	C	1.760823	0.265451	1.242787
C125	C	1.255074	-0.238065	0.842726
C126	C	1.755074	0.261935	1.342726
C127	C	1.274488	-0.089921	0.508339
C128	C	1.774488	0.410079	1.008339
C129	C	1.274563	-0.031806	0.508371
C130	C	1.774563	0.468194	1.008371
C131	C	1.287802	-0.218039	0.274660
C132	C	1.787802	0.281961	0.774660
C133	C	1.293725	-0.214370	0.174731
C134	C	1.793725	0.285630	0.674731
C135	C	1.359366	-0.174171	1.037219
C136	C	1.859366	0.325829	1.537219
C137	C	1.353968	-0.177473	1.131121
C138	C	1.853968	0.322527	1.631121
C139	C	1.238875	-0.247967	1.124433
C140	C	1.738875	0.252033	1.624433
C141	C	1.244273	-0.244666	1.030531
C142	C	1.744273	0.255334	1.530531
C143	C	1.304522	-0.207767	0.986928
C144	C	1.804522	0.292233	1.486928
C145	C	1.309924	-0.204468	0.893024
C146	C	1.809924	0.295532	1.393024
C147	C	1.194828	-0.274960	0.886338
C148	C	1.694828	0.225040	1.386338
C149	C	1.189429	-0.278261	0.980240
C150	C	1.689429	0.221739	1.480240
H151	H	0.767562	-0.299331	0.374134
H152	H	1.267562	0.200669	0.874134
H153	H	1.140375	-0.308303	1.015755
H154	H	1.640375	0.191697	1.515755
H155	H	1.150172	-0.302317	0.845381
H156	H	1.650172	0.197683	1.345381
C157	C	1.425633	-0.133584	0.989252
C158	C	1.925633	0.366416	1.489252
H159	H	1.457521	-0.114046	1.032653
H160	H	1.957521	0.385954	1.532653
H161	H	1.466892	-0.151063	0.954874
H162	H	1.966892	0.348937	1.454874
H163	H	1.393360	-0.110594	0.950645
H164	H	1.893360	0.389406	1.450645
C165	C	1.146376	-0.425624	0.621891
C166	C	1.646376	0.074376	1.121891
H167	H	1.110139	-0.451996	0.654131
H168	H	1.610139	0.048004	1.154131
H169	H	1.178478	-0.404591	0.663074
H170	H	1.678478	0.095409	1.163074
H171	H	1.109191	-0.404377	0.585185
H172	H	1.609191	0.095623	1.085185
H173	H	1.164083	-0.934675	0.606560
H174	H	1.664083	-0.434675	1.106560
H175	H	1.398625	-0.150114	1.172065
H176	H	1.898625	0.349886	1.672065
H177	H	0.926086	-0.180166	0.592992
H178	H	1.426086	0.319834	1.092992
C179	C	1.402365	-1.026439	0.394716
C180	C	1.902365	-0.526439	0.894716
H181	H	1.438595	-1.000067	0.362469
H182	H	1.938595	-0.500067	0.862469
H183	H	1.439541	-1.047688	0.431420
H184	H	1.939541	-0.547688	0.931420
H185	H	1.370262	-1.047471	0.353524
H186	H	1.870262	-0.547471	0.853524
C187	C	0.597248	-0.150080	0.648335
C188	C	1.097248	0.349920	1.148335
H189	H	0.636718	-0.130100	0.685036
H190	H	1.136718	0.369900	1.185036
H191	H	0.562600	-0.127216	0.611903
H192	H	1.062600	0.372784	1.111903
H193	H	0.558358	-0.172651	0.685342
H194	H	1.058358	0.327349	1.185342
H195	H	0.781961	-0.153244	0.642473
H196	H	1.281961	0.346756	1.142473
C197	C	0.610954	-0.281792	0.406381
C198	C	1.110954	0.218208	0.906381
H199	H	0.547833	-0.279274	0.411023
H200	H	1.047833	0.220726	0.911023
H201	H	0.629813	-0.271477	0.346880
H202	H	1.129813	0.228523	0.846880
H203	H	0.625552	-0.316912	0.420320
H204	H	1.125552	0.183088	0.920320
C205	C	1.146762	-1.042629	0.622033
C206	C	1.646762	-0.542629	1.122033
H207	H	1.155490	-1.078507	0.614288
H208	H	1.655490	-0.578507	1.114288
H209	H	1.156394	-1.035371	0.683212
H210	H	1.656394	-0.535371	1.183212
H211	H	1.087108	-1.035154	0.605321
H212	H	1.587108	-0.535154	1.105321
H213	H	1.384585	-0.418345	0.410019
H214	H	1.884585	0.081655	0.910019
C215	C	0.952291	-0.302502	0.368270
C216	C	1.452291	0.197498	0.868270
H217	H	1.014477	-0.296034	0.380129
H218	H	1.514477	0.203966	0.880129
H219	H	0.936115	-0.338588	0.380434
H220	H	1.436115	0.161412	0.880434
H221	H	0.940371	-0.293156	0.306989
H222	H	1.440371	0.206844	0.806989
H223	H	1.163827	-0.531385	0.606458
H224	H	1.663827	-0.031385	1.106458
C225	C	1.085753	-0.795307	0.676115
C226	C	1.585753	-0.295307	1.176115
H227	H	1.049506	-0.773516	0.708344
H228	H	1.549506	-0.273516	1.208344
H229	H	1.048588	-0.816663	0.639439
H230	H	1.548588	-0.316663	1.139439
H231	H	1.117883	-0.816872	0.717321
H232	H	1.617883	-0.316872	1.217321
H233	H	1.384663	-0.517394	0.410057
H234	H	1.884663	-0.017394	0.910057
H235	H	1.103074	-0.687360	0.660621
H236	H	1.603074	-0.187360	1.160621
C237	C	1.463026	-0.656772	0.340533
C238	C	1.963026	-0.156772	0.840533
H239	H	1.499287	-0.678563	0.308322
H240	H	1.999287	-0.178563	0.808322
H241	H	1.430919	-0.635200	0.299325
H242	H	1.930919	-0.135200	0.799325
H243	H	1.500187	-0.635422	0.377231
H244	H	2.000187	-0.135422	0.877231
H245	H	1.445699	-0.764722	0.356028
H246	H	1.945699	-0.264722	0.856028
H247	H	1.384908	-0.920677	0.410144
H248	H	1.884908	-0.420677	0.910144
H249	H	1.358983	-0.174423	0.857524
H250	H	1.858983	0.325577	1.357524
C251	C	1.172600	-0.288547	1.172407
C252	C	1.672600	0.211453	1.672407
H253	H	1.177243	-0.285700	1.235534
H254	H	1.677243	0.214300	1.735534
H255	H	1.113081	-0.282252	1.153522
H256	H	1.613081	0.217748	1.653522
H257	H	1.186602	-0.322727	1.157773
H258	H	1.686602	0.177273	1.657773
