data_functionalizedCrystal
_audit_creation_method	'MofGen! by Chris Wilmer'
_symmetry_space_group_name_H-M	'P1'
_symmetry_Int_Tables_number	1
_symmetry_cell_setting	triclinic
loop_
_symmetry_equiv_pos_as_xyz
  x,y,z
_cell_length_a	18.050591
_cell_length_b	29.839131
_cell_length_c	18.050583
_cell_angle_alpha	89.960819
_cell_angle_beta	89.977979
_cell_angle_gamma	90.037426
loop_
_atom_site_label
_atom_site_type_symbol
_atom_site_fract_x
_atom_site_fract_y
_atom_site_fract_z
Zn1	Zn	1.135232	-0.178869	-0.420016
Zn2	Zn	1.635232	0.321131	0.079984
Zn3	Zn	1.135112	-0.254009	-0.295820
Zn4	Zn	1.635112	0.245991	0.204180
Zn5	Zn	1.011049	-0.178889	-0.295828
Zn6	Zn	1.511049	0.321111	0.204172
Zn7	Zn	1.010971	-0.253967	-0.419956
Zn8	Zn	1.510971	0.246033	0.080044
O9	O	1.073091	-0.216434	-0.357905
O10	O	1.573091	0.283566	0.142095
O11	O	1.239141	-0.188846	-0.403564
O12	O	1.739141	0.311154	0.096436
O13	O	1.118637	-0.244070	-0.191896
O14	O	1.618637	0.255930	0.308104
O15	O	1.027606	-0.116019	-0.312330
O16	O	1.527606	0.383981	0.187670
O17	O	1.239053	-0.244051	-0.312317
O18	O	1.739053	0.255949	0.187683
O19	O	1.118842	-0.116004	-0.403571
O20	O	1.618842	0.383996	0.096429
O21	O	1.027489	-0.188879	-0.191902
O22	O	1.527489	0.311121	0.308098
O23	O	0.907114	-0.188839	-0.312271
O24	O	1.407114	0.311161	0.187729
O25	O	1.027472	-0.243980	-0.523888
O26	O	1.527472	0.256020	-0.023888
O27	O	0.907057	-0.243999	-0.403467
O28	O	1.407057	0.256001	0.096533
O29	O	1.118767	-0.188805	-0.523933
O30	O	1.618767	0.311195	-0.023933
O31	O	1.118562	-0.316871	-0.312258
O32	O	1.618562	0.183129	0.187742
O33	O	1.027356	-0.316840	-0.403460
O34	O	1.527356	0.183160	0.096540
C35	C	0.880139	-0.216417	-0.357864
C36	C	1.380139	0.283583	0.142136
C37	C	0.797593	-0.216421	-0.357864
C38	C	1.297593	0.283579	0.142136
C39	C	1.072957	-0.333156	-0.357868
C40	C	1.572957	0.166844	0.142132
C41	C	1.072968	-0.383091	-0.357877
C42	C	1.572968	0.116909	0.142123
C43	C	0.598152	-0.186390	-0.308386
C44	C	1.098152	0.313610	0.191614
C45	C	0.548717	-0.227368	-0.290106
C46	C	1.048717	0.272632	0.209894
C47	C	0.646463	-0.216434	-0.357897
C48	C	1.146463	0.283566	0.142103
C49	C	0.548817	-0.175470	-0.376175
C50	C	1.048817	0.324530	0.123825
C51	C	0.500478	-0.216444	-0.357928
C52	C	1.000478	0.283556	0.142072
C53	C	0.598115	-0.257434	-0.339583
C54	C	1.098115	0.242566	0.160417
C55	C	0.598219	-0.205509	-0.425683
C56	C	1.098219	0.294491	0.074317
C57	C	0.548806	-0.246515	-0.407429
C58	C	1.048806	0.253485	0.092571
C59	C	0.730561	-0.216428	-0.357878
C60	C	1.230561	0.283572	0.142122
C61	C	0.416381	-0.216454	-0.357948
C62	C	0.916381	0.283546	0.142052
C63	C	1.120669	-0.692737	-0.310486
C64	C	1.620669	-0.192737	0.189514
C65	C	1.120760	-0.880410	-0.310514
C66	C	1.620760	-0.380410	0.189486
O67	O	1.161211	-0.904678	-0.270192
O68	O	1.661211	-0.404678	0.229808
N69	N	1.073245	-0.903876	-0.357961
N70	N	1.573245	-0.403876	0.142039
C71	C	1.025707	-0.880420	-0.405407
C72	C	1.525707	-0.380420	0.094593
O73	O	0.985301	-0.904685	-0.445769
O74	O	1.485301	-0.404685	0.054231
C75	C	1.025620	-0.692748	-0.405381
C76	C	1.525620	-0.192748	0.094619
C77	C	1.073133	-0.669285	-0.357926
C78	C	1.573133	-0.169285	0.142074
C79	C	1.168178	-0.669274	-0.263035
C80	C	1.668178	-0.169274	0.236965
C81	C	1.168152	-0.622359	-0.263025
C82	C	1.668152	-0.122359	0.236975
C83	C	1.120616	-0.598906	-0.310466
C84	C	1.620616	-0.098906	0.189534
C85	C	1.073107	-0.622369	-0.357917
C86	C	1.573107	-0.122369	0.142083
C87	C	0.978087	-0.669293	-0.452831
C88	C	1.478087	-0.169293	0.047169
C89	C	0.978070	-0.622372	-0.452822
C90	C	1.478070	-0.122372	0.047178
C91	C	1.025583	-0.598909	-0.405367
C92	C	1.525583	-0.098909	0.094633
C93	C	1.025545	-0.552001	-0.405348
C94	C	1.525545	-0.052001	0.094652
N95	N	1.073060	-0.528536	-0.357902
N96	N	1.573060	-0.028536	0.142098
C97	C	1.120595	-0.551989	-0.310461
C98	C	1.620595	-0.051989	0.189539
C99	C	1.025756	-0.978950	-0.405416
C100	C	1.525756	-0.478950	0.094584
C101	C	1.025776	-1.025868	-0.405422
C102	C	1.525776	-0.525868	0.094578
C103	C	1.120830	-1.025855	-0.310530
C104	C	1.620830	-0.525855	0.189470
C105	C	1.120805	-0.978937	-0.310521
C106	C	1.620805	-0.478937	0.189479
C107	C	1.073271	-0.955485	-0.357970
C108	C	1.573271	-0.455485	0.142030
C109	C	1.120536	-0.453463	-0.310444
C110	C	1.620536	0.046537	0.189556
C111	C	1.120503	-0.406543	-0.310436
C112	C	1.620503	0.093457	0.189564
C113	C	1.025453	-0.406560	-0.405331
C114	C	1.525453	0.093440	0.094669
C115	C	1.025482	-0.453475	-0.405336
C116	C	1.525482	0.046525	0.094664
C117	C	1.073030	-0.476926	-0.357890
C118	C	1.573030	0.023074	0.142110
O119	O	0.985121	-0.527705	-0.445655
O120	O	1.485121	-0.027705	0.054345
O121	O	1.161008	-0.527715	-0.270116
O122	O	1.661008	-0.027715	0.229884
C123	C	1.120695	-0.739653	-0.310495
C124	C	1.620695	-0.239653	0.189505
C125	C	1.073185	-0.763116	-0.357946
C126	C	1.573185	-0.263116	0.142054
C127	C	1.025650	-0.739663	-0.405387
C128	C	1.525650	-0.239663	0.094613
C129	C	1.073206	-0.810033	-0.357951
C130	C	1.573206	-0.310033	0.142049
C131	C	1.120742	-0.833486	-0.310510
C132	C	1.620742	-0.333486	0.189490
C133	C	1.168257	-0.810021	-0.263064
C134	C	1.668257	-0.310021	0.236936
C135	C	1.168230	-0.763105	-0.263054
C136	C	1.668230	-0.263105	0.236946
C137	C	0.978135	-0.763128	-0.452833
C138	C	1.478135	-0.263128	0.047167
C139	C	0.978164	-0.810044	-0.452838
C140	C	1.478164	-0.310044	0.047162
C141	C	1.025700	-0.833496	-0.405397
C142	C	1.525700	-0.333496	0.094603
C143	C	1.266797	-0.216451	-0.357947
C144	C	1.766797	0.283549	0.142053
C145	C	1.349343	-0.216458	-0.357964
C146	C	1.849343	0.283542	0.142036
C147	C	1.073124	-0.216386	-0.551611
C148	C	1.573124	0.283614	-0.051611
C149	C	1.073138	-0.216365	-0.634156
C150	C	1.573138	0.283635	-0.134156
C151	C	1.073246	-0.099255	-0.357958
C152	C	1.573246	0.400745	0.142042
C153	C	1.073312	-0.049321	-0.357981
C154	C	1.573312	0.450679	0.142019
C155	C	1.122834	-0.186347	-0.833632
C156	C	1.622834	0.313653	-0.333632
C157	C	1.055104	-0.175349	-0.883020
C158	C	1.555104	0.324651	-0.383020
C159	C	1.073168	-0.216357	-0.785287
C160	C	1.573168	0.283643	-0.285287
C161	C	1.140925	-0.227327	-0.882980
C162	C	1.640925	0.272673	-0.382980
C163	C	1.073203	-0.216349	-0.931272
C164	C	1.573203	0.283651	-0.431272
C165	C	1.005403	-0.205338	-0.833588
C166	C	1.505403	0.294662	-0.333588
C167	C	1.091269	-0.257336	-0.833544
C168	C	1.591269	0.242664	-0.333544
C169	C	1.023492	-0.246353	-0.882910
C170	C	1.523492	0.253647	-0.382910
C171	C	1.073149	-0.216361	-0.701189
C172	C	1.573149	0.283639	-0.201189
C173	C	1.073214	-0.216346	-1.015369
C174	C	1.573214	0.283654	-0.515369
C175	C	1.073101	-0.216449	-0.164953
C176	C	1.573101	0.283551	0.335047
C177	C	1.073231	-0.216343	-0.082407
C178	C	1.573231	0.283657	0.417593
H179	H	0.619819	-0.161009	-0.266470
H180	H	1.119819	0.338991	0.233530
C181	C	0.476555	-0.278892	-0.217627
C182	C	0.976555	0.221108	0.282373
C183	C	0.519290	-0.239826	-0.212755
C184	C	1.019290	0.260174	0.287245
H185	H	0.458374	-0.286574	-0.169876
H186	H	0.958374	0.213426	0.330124
H187	H	0.436064	-0.273933	-0.250201
H188	H	0.936064	0.226067	0.249799
H189	H	0.506250	-0.302666	-0.236098
H190	H	1.006250	0.197334	0.263902
H191	H	0.489594	-0.216051	-0.194288
H192	H	0.989594	0.283949	0.305712
H193	H	0.559787	-0.244783	-0.180169
H194	H	1.059787	0.255217	0.319831
C195	C	0.442165	-0.280326	-0.463961
C196	C	0.942165	0.219674	0.036039
C197	C	0.519732	-0.280855	-0.463974
C198	C	1.019732	0.219145	0.036026
H199	H	0.424217	-0.301525	-0.498872
H200	H	0.924217	0.198475	0.001128
H201	H	0.424470	-0.287847	-0.415972
H202	H	0.924470	0.212153	0.084028
H203	H	0.425203	-0.251250	-0.477045
H204	H	0.925203	0.248750	0.022955
H205	H	0.536694	-0.309930	-0.450886
H206	H	1.036694	0.190070	0.049114
H207	H	0.537434	-0.273337	-0.511974
H208	H	1.037434	0.226663	-0.011974
H209	H	1.039805	-0.140691	-0.904753
H210	H	1.539805	0.359309	-0.404753
C211	C	1.131170	-0.926217	-0.210621
C212	C	1.631170	-0.426217	0.289379
C213	C	1.173035	-0.953149	-0.258361
C214	C	1.673035	-0.453149	0.241639
H215	H	1.163418	-0.910301	-0.178417
H216	H	1.663418	-0.410301	0.321583
H217	H	1.102869	-0.905533	-0.238874
H218	H	1.602869	-0.405533	0.261126
H219	H	1.098838	-0.944556	-0.182188
H220	H	1.598838	-0.444556	0.317812
H221	H	1.205363	-0.934810	-0.286798
H222	H	1.705363	-0.434810	0.213202
H223	H	1.201349	-0.973835	-0.230105
H224	H	1.701349	-0.473835	0.269895
H225	H	1.106588	-0.291984	-0.811797
H226	H	1.606588	0.208016	-0.311797
C227	C	0.602764	-0.150070	-0.522043
C228	C	1.102764	0.349930	-0.022043
C229	C	0.627603	-0.193008	-0.503027
C230	C	1.127603	0.306992	-0.003027
H231	H	0.620911	-0.142349	-0.569790
H232	H	1.120911	0.357651	-0.069790
H233	H	0.550150	-0.149714	-0.522510
H234	H	1.050150	0.350286	-0.022510
H235	H	0.620399	-0.129025	-0.486730
H236	H	1.120399	0.370975	0.013270
H237	H	0.609964	-0.214053	-0.538338
H238	H	1.109964	0.285947	-0.038338
H239	H	0.680228	-0.193367	-0.502566
H240	H	1.180228	0.306633	-0.002566
H241	H	0.948100	-0.196016	-0.811984
H242	H	1.448100	0.303984	-0.311984
H243	H	1.206891	-0.688364	-0.224403
H244	H	1.706891	-0.188364	0.275597
C245	C	1.163143	-1.097775	-0.268495
C246	C	1.663143	-0.597775	0.231505
C247	C	1.173139	-1.051640	-0.258438
C248	C	1.673139	-0.551640	0.241562
H249	H	1.195456	-1.113694	-0.236359
H250	H	1.695456	-0.613694	0.263641
H251	H	1.113279	-1.105510	-0.257519
H252	H	1.613279	-0.605510	0.242481
H253	H	1.173926	-1.105411	-0.318429
H254	H	1.673926	-0.605411	0.181571
H255	H	1.162351	-1.044005	-0.208505
H256	H	1.662351	-0.544005	0.291495
H257	H	1.223014	-1.043903	-0.269409
H258	H	1.723014	-0.543903	0.230591
H259	H	0.527123	-0.140828	-0.391596
H260	H	1.027123	0.359172	0.108404
C261	C	1.214467	-0.411250	-0.216640
C262	C	1.714467	0.088750	0.283360
C263	C	1.172736	-0.380753	-0.258273
C264	C	1.672736	0.119247	0.241727
H265	H	1.246716	-0.395329	-0.184443
H266	H	1.746716	0.104671	0.315557
H267	H	1.182138	-0.429582	-0.188205
H268	H	1.682138	0.070418	0.311795
H269	H	1.242860	-0.429518	-0.249041
H270	H	1.742860	0.070482	0.250959
H271	H	1.144340	-0.362488	-0.225873
H272	H	1.644340	0.137512	0.274127
H273	H	1.205070	-0.362414	-0.286710
H274	H	1.705070	0.137586	0.213290
C275	C	0.884175	-0.767863	-0.546617
C276	C	1.384175	-0.267863	-0.046617
C277	C	0.925872	-0.737354	-0.504978
C278	C	1.425872	-0.237354	-0.004978
H279	H	0.851902	-0.751951	-0.578805
H280	H	1.351902	-0.251951	-0.078805
H281	H	0.916524	-0.786126	-0.575063
H282	H	1.416524	-0.286126	-0.075063
H283	H	0.855810	-0.786198	-0.514221
H284	H	1.355810	-0.286198	-0.014221
H285	H	0.954241	-0.719021	-0.537374
H286	H	1.454241	-0.219021	-0.037374
H287	H	0.893518	-0.719083	-0.476530
H288	H	1.393518	-0.219083	0.023470
H289	H	1.206843	-0.603258	-0.224386
H290	H	1.706843	-0.103258	0.275614
C291	C	0.704789	-0.303785	-0.318778
C292	C	1.204789	0.196215	0.181222
C293	C	0.627219	-0.304219	-0.318635
C294	C	1.127219	0.195781	0.181365
H295	H	0.722757	-0.332667	-0.305840
H296	H	1.222757	0.167333	0.194160
H297	H	0.722145	-0.295974	-0.366764
H298	H	1.222145	0.204026	0.133236
H299	H	0.722073	-0.282422	-0.283814
H300	H	1.222073	0.217578	0.216186
H301	H	0.609936	-0.325579	-0.353603
H302	H	1.109936	0.174421	0.146397
H303	H	0.609857	-0.312035	-0.270642
H304	H	1.109857	0.187965	0.229358
C305	C	1.220499	-0.506151	-0.300238
C306	C	1.720499	-0.006151	0.199762
C307	C	1.172812	-0.479229	-0.258296
C308	C	1.672812	0.020771	0.241704
H309	H	1.252775	-0.522054	-0.268042
H310	H	1.752775	-0.022054	0.231958
H311	H	1.192212	-0.526847	-0.328480
H312	H	1.692212	-0.026847	0.171520
H313	H	1.248858	-0.487808	-0.332627
H314	H	1.748858	0.012192	0.167373
H315	H	1.144449	-0.497573	-0.225910
H316	H	1.644449	0.002427	0.274090
H317	H	1.201102	-0.458531	-0.230040
H318	H	1.701102	0.041469	0.269960
H319	H	0.987080	-1.044968	-0.444057
H320	H	1.487080	-0.544968	0.055943
H321	H	1.198211	-0.236608	-0.904678
H322	H	1.698211	0.263392	-0.404678
C323	C	0.967652	-0.280578	-0.989518
C324	C	1.467652	0.219422	-0.489518
C325	C	0.966750	-0.280606	-0.911950
C326	C	1.466750	0.219394	-0.411950
H327	H	0.932623	-0.301724	-1.007447
H328	H	1.432623	0.198276	-0.507447
H329	H	0.955218	-0.251555	-1.007199
H330	H	1.455218	0.248445	-0.507199
H331	H	1.015727	-0.288444	-1.006513
H332	H	1.515727	0.211556	-0.506513
H333	H	0.918677	-0.272737	-0.894955
H334	H	1.418677	0.227263	-0.394955
H335	H	0.979180	-0.309636	-0.894262
H336	H	1.479180	0.190364	-0.394262
H337	H	0.987045	-0.959859	-0.444056
H338	H	1.487045	-0.459859	0.055944
H339	H	0.939393	-0.688388	-0.491470
H340	H	1.439393	-0.188388	0.008530
C341	C	0.967812	-0.862758	-0.552744
C342	C	1.467812	-0.362758	-0.052744
C343	C	0.925935	-0.835832	-0.505007
C344	C	1.425935	-0.335832	-0.005007
H345	H	0.935570	-0.878679	-0.584949
H346	H	1.435570	-0.378679	-0.084949
H347	H	1.000137	-0.844420	-0.581170
H348	H	1.500137	-0.344420	-0.081170
H349	H	0.996118	-0.883442	-0.524484
H350	H	1.496118	-0.383442	-0.024484
H351	H	0.897632	-0.815145	-0.533266
H352	H	1.397632	-0.315145	-0.033266
H353	H	0.893596	-0.854172	-0.476578
H354	H	1.393596	-0.354172	0.023422
C355	C	1.294047	-0.824400	-0.227031
C356	C	1.794047	-0.324400	0.272969
C357	C	1.220521	-0.835798	-0.210916
C358	C	1.720521	-0.335798	0.289084
H359	H	1.326314	-0.840312	-0.194838
H360	H	1.826314	-0.340312	0.305162
H361	H	1.304875	-0.832060	-0.276937
H362	H	1.804875	-0.332060	0.223063
H363	H	1.300817	-0.793098	-0.220234
H364	H	1.800817	-0.293098	0.279766
H365	H	1.213749	-0.867099	-0.217719
H366	H	1.713749	-0.367099	0.282281
H367	H	1.209690	-0.828141	-0.160998
H368	H	1.709690	-0.328141	0.339002
H369	H	0.939363	-0.603279	-0.491462
H370	H	1.439363	-0.103279	0.008538
C371	C	0.931528	-0.448773	-0.499136
C372	C	1.431528	0.051227	0.000864
C373	C	0.973256	-0.479269	-0.457498
C374	C	1.473256	0.020731	0.042502
H375	H	0.899294	-0.464695	-0.531346
H376	H	1.399294	0.035305	-0.031346
H377	H	0.903127	-0.430511	-0.466745
H378	H	1.403127	0.069489	0.033255
H379	H	0.963865	-0.430435	-0.527564
H380	H	1.463865	0.069565	-0.027564
H381	H	0.940919	-0.497604	-0.429065
H382	H	1.440919	0.002396	0.070935
H383	H	1.001659	-0.497538	-0.489893
H384	H	1.501659	0.002462	0.010107
H385	H	0.986747	-0.387458	-0.443954
H386	H	1.486747	0.112542	0.056046
C387	C	1.178598	-0.710391	-0.163147
C388	C	1.678598	-0.210391	0.336853
C389	C	1.220462	-0.737320	-0.210892
C390	C	1.720462	-0.237320	0.289108
H391	H	1.210847	-0.694477	-0.130940
H392	H	1.710847	-0.194477	0.369060
H393	H	1.150296	-0.689705	-0.191395
H394	H	1.650296	-0.189705	0.308605
H395	H	1.146267	-0.728731	-0.134716
H396	H	1.646267	-0.228731	0.365284
H397	H	1.252789	-0.718979	-0.239327
H398	H	1.752789	-0.218979	0.260673
H399	H	1.248776	-0.758008	-0.182640
H400	H	1.748776	-0.258008	0.317360
C401	C	1.160317	-0.109172	-0.829388
C402	C	1.660317	0.390828	-0.329388
C403	C	1.179440	-0.152067	-0.804409
C404	C	1.679440	0.347933	-0.304409
H405	H	1.195259	-0.088009	-0.811341
H406	H	1.695259	0.411991	-0.311341
H407	H	1.160411	-0.108745	-0.882003
H408	H	1.660411	0.391255	-0.382003
H409	H	1.112317	-0.101667	-0.811747
H410	H	1.612317	0.398333	-0.311747
H411	H	1.227438	-0.159574	-0.822055
H412	H	1.727438	0.340426	-0.322055
H413	H	1.179354	-0.152495	-0.751783
H414	H	1.679354	0.347505	-0.251783
