data_functionalizedCrystal
_audit_creation_method	'MofGen! by Chris Wilmer'
_symmetry_space_group_name_H-M	'P1'
_symmetry_Int_Tables_number	1
_symmetry_cell_setting	triclinic
loop_
_symmetry_equiv_pos_as_xyz
  x,y,z
_cell_length_a	14.853567
_cell_length_b	17.038272
_cell_length_c	13.330367
_cell_angle_alpha	89.995338
_cell_angle_beta	89.995418
_cell_angle_gamma	87.373243
loop_
_atom_site_label
_atom_site_type_symbol
_atom_site_fract_x
_atom_site_fract_y
_atom_site_fract_z
O1	O	1.204051	0.102086	-0.083355
O2	O	1.704051	0.602086	0.416645
O3	O	0.942507	0.114247	-0.083372
O4	O	1.442507	0.614247	0.416628
O5	O	1.071724	-0.005651	-0.083356
O6	O	1.571724	0.494349	0.416644
O7	O	1.074833	0.221984	-0.083372
O8	O	1.574833	0.721984	0.416628
O9	O	1.071704	-0.005654	0.083491
O10	O	1.571704	0.494346	0.583491
O11	O	0.942486	0.114244	0.083475
O12	O	1.442486	0.614244	0.583475
O13	O	1.204031	0.102083	0.083492
O14	O	1.704031	0.602083	0.583492
Cu15	Cu	1.073257	0.108164	0.098718
Cu16	Cu	1.573257	0.608164	0.598718
Cu17	Cu	1.073281	0.108167	-0.098598
Cu18	Cu	1.573281	0.608167	0.401402
O19	O	1.074813	0.221981	0.083476
O20	O	1.574813	0.721981	0.583476
C21	C	0.908866	0.113695	0.000049
C22	C	1.408866	0.613695	0.500049
C23	C	0.808658	0.112043	0.000043
C24	C	1.308658	0.612043	0.500043
C25	C	0.390240	0.033841	0.000071
C26	C	0.890240	0.533841	0.500071
C27	C	0.379678	0.176283	0.000060
C28	C	0.879678	0.676283	0.500060
C29	C	0.473828	0.177835	0.000056
C30	C	0.973828	0.677835	0.500056
C31	C	0.526189	0.107390	0.000059
C32	C	1.026189	0.607390	0.500059
C33	C	0.484399	0.035392	0.000064
C34	C	0.984399	0.535392	0.500064
C35	C	0.515626	0.249832	0.000041
C36	C	1.015626	0.749832	0.500041
C37	C	0.609782	0.251388	0.000036
C38	C	1.109782	0.751388	0.500036
C39	C	0.662144	0.180941	0.000046
C40	C	1.162144	0.680941	0.500046
C41	C	0.620349	0.108940	0.000052
C42	C	1.120349	0.608940	0.500052
C43	C	0.672709	0.038495	0.000055
C44	C	1.172709	0.538495	0.500055
C45	C	0.630915	-0.033507	0.000068
C46	C	1.130915	0.466493	0.500068
C47	C	0.536762	-0.035055	0.000074
C48	C	1.036762	0.464945	0.500074
C49	C	0.756298	0.182489	0.000040
C50	C	1.256298	0.682489	0.500040
C51	C	0.766869	0.040045	0.000048
C52	C	1.266869	0.540045	0.500048
C53	C	1.068887	-0.034784	0.000067
C54	C	1.568887	0.465216	0.500067
C55	C	1.060451	-0.121588	0.000067
C56	C	1.560451	0.378412	0.500067
C57	C	1.137904	-0.171601	0.000073
C58	C	1.637904	0.328399	0.500073
C59	C	1.129972	-0.253162	0.000063
C60	C	1.629972	0.246838	0.500063
C61	C	1.044586	-0.284709	0.000054
C62	C	1.544586	0.215291	0.500054
C63	C	0.967127	-0.234690	0.000045
C64	C	1.467127	0.265310	0.500045
C65	C	0.975060	-0.153130	0.000047
C66	C	1.475060	0.346870	0.500047
C67	C	1.016561	-0.530503	0.000038
C68	C	1.516561	-0.030503	0.500038
C69	C	1.008634	-0.612069	0.000038
C70	C	1.508634	-0.112069	0.500038
C71	C	1.171480	-0.630535	0.000055
C72	C	1.671480	-0.130535	0.500055
C73	C	1.179405	-0.548974	0.000063
C74	C	1.679405	-0.048974	0.500063
C75	C	1.101946	-0.498962	0.000049
C76	C	1.601946	0.001038	0.500049
C77	C	1.036476	-0.368077	0.000047
C78	C	1.536476	0.131923	0.500047
C79	C	1.110056	-0.415595	0.000049
C80	C	1.610056	0.084405	0.500049
C81	C	1.237671	0.102636	0.000068
C82	C	1.737671	0.602636	0.500068
C83	C	1.337879	0.104287	0.000068
C84	C	1.837879	0.604287	0.500068
C85	C	1.077651	0.251114	0.000050
C86	C	1.577651	0.751114	0.500050
C87	C	1.086087	0.337918	0.000044
C88	C	1.586087	0.837918	0.500044
N89	N	1.073246	0.108161	0.237499
N90	N	1.573246	0.608161	0.737499
N91	N	1.073298	0.108163	-0.237380
N92	N	1.573298	0.608163	0.262620
C93	C	1.016059	0.161237	0.710115
C94	C	1.516059	0.661237	1.210115
C95	C	1.130526	0.055091	0.710098
C96	C	1.630526	0.555091	1.210098
C97	C	1.130516	0.055088	0.605079
C98	C	1.630516	0.555088	1.105079
C99	C	1.073277	0.108162	0.552574
C100	C	1.573277	0.608162	1.052574
C101	C	1.016049	0.161237	0.605087
C102	C	1.516049	0.661237	1.105087
C103	C	1.187750	0.002019	0.552558
C104	C	1.687750	0.502019	1.052558
C105	C	1.187743	0.002015	0.447534
C106	C	1.687743	0.502015	0.947534
C107	C	1.130499	0.055085	0.395026
C108	C	1.630499	0.555085	0.895026
C109	C	1.073267	0.108162	0.447546
C110	C	1.573267	0.608162	0.947546
C111	C	1.016028	0.161236	0.395041
C112	C	1.516028	0.661236	0.895041
C113	C	0.958791	0.214310	0.447558
C114	C	1.458791	0.714310	0.947558
C115	C	0.958805	0.214308	0.552580
C116	C	1.458805	0.714308	1.052580
C117	C	1.130485	0.055087	0.290005
C118	C	1.630485	0.555087	0.790005
C119	C	1.016018	0.161237	0.290012
C120	C	1.516018	0.661237	0.790012
H121	H	0.673560	-0.090863	0.000063
H122	H	1.173560	0.409137	0.500063
H123	H	0.969455	0.204447	0.752877
H124	H	1.469455	0.704447	1.252877
Cl125	Cl	0.313853	0.264838	0.000043
Cl126	Cl	0.813853	0.764838	0.500043
H127	H	0.939099	-0.637751	0.000047
H128	H	1.439099	-0.137751	0.500047
H129	H	0.897604	-0.260382	0.000031
H130	H	1.397604	0.239618	0.500031
Cl131	Cl	1.259711	-0.064694	0.618562
Cl132	Cl	1.759711	0.435306	1.118562
H133	H	1.193043	-0.293879	0.000070
H134	H	1.693043	0.206121	0.500070
H135	H	0.969403	0.204453	0.247269
H136	H	1.469403	0.704453	0.747269
Cl137	Cl	0.886859	0.281027	0.618604
Cl138	Cl	1.386859	0.781027	1.118604
H139	H	0.912191	0.257526	0.404796
H140	H	1.412191	0.757526	0.904796
H141	H	1.248935	-0.523295	0.000071
H142	H	1.748935	-0.023295	0.500071
H143	H	1.234347	-0.041201	0.404780
H144	H	1.734347	0.458799	0.904780
H145	H	0.911989	-0.112410	0.000042
H146	H	1.411989	0.387590	0.500042
Cl147	Cl	1.202440	-0.011625	0.223990
Cl148	Cl	1.702440	0.488375	0.723990
H149	H	0.356207	-0.024781	0.000086
H150	H	0.856207	0.475219	0.500086
H151	H	0.790322	0.241112	0.000031
H152	H	1.290322	0.741112	0.500031
H153	H	0.953488	-0.489793	0.000027
H154	H	1.453488	0.010207	0.500027
Cl155	Cl	1.217395	-0.375935	0.000055
Cl156	Cl	1.717395	0.124065	0.500055
H157	H	0.643802	0.310016	0.000025
H158	H	1.143802	0.810016	0.500025
Cl159	Cl	1.245252	-0.131950	0.000094
Cl160	Cl	1.745252	0.368050	0.500094
Cl161	Cl	0.929137	-0.407743	0.000030
Cl162	Cl	1.429137	0.092257	0.500030
Cl163	Cl	1.202487	-0.011622	0.776101
Cl164	Cl	1.702487	0.488378	1.276101
H165	H	0.502724	-0.093675	0.000109
H166	H	1.002724	0.406325	0.500109
Cl167	Cl	0.449798	0.338386	0.000021
Cl168	Cl	0.949798	0.838386	0.500021
Cl169	Cl	0.832686	-0.048521	0.000059
Cl170	Cl	1.332686	0.451479	0.500059
H171	H	1.234542	-0.671263	0.000064
H172	H	1.734542	-0.171263	0.500064
