data_functionalizedCrystal
_audit_creation_method	'MofGen! by Chris Wilmer'
_symmetry_space_group_name_H-M	'P1'
_symmetry_Int_Tables_number	1
_symmetry_cell_setting	triclinic
loop_
_symmetry_equiv_pos_as_xyz
  x,y,z
_cell_length_a	15.944551
_cell_length_b	19.188930
_cell_length_c	14.421503
_cell_angle_alpha	89.999163
_cell_angle_beta	89.996859
_cell_angle_gamma	83.321760
loop_
_atom_site_label
_atom_site_type_symbol
_atom_site_fract_x
_atom_site_fract_y
_atom_site_fract_z
O1	O	1.114192	0.090038	-0.077026
O2	O	1.614192	0.590038	0.422974
O3	O	0.869601	0.101140	-0.077050
O4	O	1.369601	0.601140	0.422950
O5	O	0.998955	-0.006048	-0.077019
O6	O	1.498955	0.493952	0.422981
O7	O	0.984838	0.197227	-0.077057
O8	O	1.484838	0.697227	0.422943
O9	O	0.998934	-0.006032	0.077204
O10	O	1.498934	0.493968	0.577204
O11	O	0.869580	0.101156	0.077173
O12	O	1.369580	0.601156	0.577173
O13	O	1.114171	0.090054	0.077198
O14	O	1.614171	0.590054	0.577198
Cu15	Cu	0.991873	0.095607	0.091267
Cu16	Cu	1.491873	0.595607	0.591267
Cu17	Cu	0.991899	0.095588	-0.091120
Cu18	Cu	1.491899	0.595588	0.408880
O19	O	0.984817	0.197243	0.077167
O20	O	1.484817	0.697243	0.577167
C21	C	0.838298	0.100687	0.000059
C22	C	1.338298	0.600687	0.500059
C23	C	0.745057	0.099306	0.000050
C24	C	1.245057	0.599306	0.500050
C25	C	0.998487	-0.032052	0.000095
C26	C	1.498487	0.467948	0.500095
C27	C	0.997115	-0.109560	0.000103
C28	C	1.497115	0.390440	0.500103
C29	C	0.530462	0.029563	0.000081
C30	C	1.030462	0.529563	0.500081
C31	C	0.469331	0.061941	-0.075965
C32	C	0.969331	0.561941	0.424035
C33	C	0.574341	0.096806	0.000062
C34	C	1.074341	0.596806	0.500062
C35	C	0.469332	0.061973	0.076087
C36	C	0.969332	0.561973	0.576087
C37	C	0.409437	0.094386	0.000077
C38	C	0.909437	0.594386	0.500077
C39	C	0.514438	0.129203	-0.076047
C40	C	1.014438	0.629203	0.423953
C41	C	0.514446	0.129225	0.076073
C42	C	1.014446	0.629225	0.576073
C43	C	0.453332	0.161652	0.000008
C44	C	0.953332	0.661652	0.500008
C45	C	0.669338	0.098198	0.000052
C46	C	1.169338	0.598198	0.500052
C47	C	0.314441	0.093000	0.000080
C48	C	0.814441	0.593000	0.500080
C49	C	1.073016	-0.154288	0.000115
C50	C	1.573016	0.345712	0.500115
C51	C	1.071726	-0.227115	0.000100
C52	C	1.571726	0.272885	0.500100
C53	C	0.994532	-0.255211	0.000092
C54	C	1.494532	0.244789	0.500092
C55	C	0.918622	-0.210474	0.000075
C56	C	1.418622	0.289526	0.500075
C57	C	0.919913	-0.137648	0.000080
C58	C	1.419913	0.362352	0.500080
N59	N	0.935519	-0.363364	0.052571
N60	N	1.435519	0.136636	0.552571
N61	N	0.934298	-0.432545	0.052568
N62	N	1.434298	0.067455	0.552568
C63	C	0.990637	-0.474630	0.000073
C64	C	1.490637	0.025370	0.500073
N65	N	1.048256	-0.444921	-0.052407
N66	N	1.548256	0.055079	0.447593
N67	N	1.049480	-0.375733	-0.052400
N68	N	1.549480	0.124267	0.447600
C69	C	0.993123	-0.334178	0.000085
C70	C	1.493123	0.165822	0.500085
C71	C	1.065145	-0.598326	0.000067
C72	C	1.565145	-0.098326	0.500067
C73	C	1.063852	-0.671154	0.000046
C74	C	1.563852	-0.171154	0.500046
C75	C	0.910745	-0.654511	0.000030
C76	C	1.410745	-0.154511	0.500030
C77	C	0.912040	-0.581685	0.000041
C78	C	1.412040	-0.081685	0.500041
C79	C	0.989242	-0.553597	0.000064
C80	C	1.489242	-0.053597	0.500064
C81	C	1.145474	0.090507	0.000087
C82	C	1.645474	0.590507	0.500087
C83	C	1.238715	0.091889	0.000089
C84	C	1.738715	0.591889	0.500089
C85	C	0.985285	0.223247	0.000050
C86	C	1.485285	0.723247	0.500050
C87	C	0.986657	0.300755	0.000036
C88	C	1.486657	0.800755	0.500036
N89	N	0.991862	0.095619	0.219549
N90	N	1.491862	0.595619	0.719549
N91	N	0.991917	0.095569	-0.219401
N92	N	1.491917	0.595569	0.280599
C93	C	0.932038	0.145161	0.469188
C94	C	1.432038	0.645161	0.969188
C95	C	1.007887	0.158716	0.530995
C96	C	1.507887	0.658716	1.030995
C97	C	0.991882	0.095603	0.408710
C98	C	1.491882	0.595603	0.908710
C99	C	0.916052	0.082064	0.530997
C100	C	1.416052	0.582064	1.030997
C101	C	0.991895	0.095588	0.591431
C102	C	1.491895	0.595588	1.091431
C103	C	1.067770	0.109189	0.469157
C104	C	1.567770	0.609189	0.969157
C105	C	0.975885	0.032510	0.469153
C106	C	1.475885	0.532510	0.969153
C107	C	1.051789	0.046038	0.530932
C108	C	1.551789	0.546038	1.030932
C109	C	0.991874	0.095613	0.303449
C110	C	1.491874	0.595613	0.803449
C111	C	0.991913	0.095578	0.696690
C112	C	1.491913	0.595578	1.196690
H113	H	0.564003	-0.026244	-0.000003
H114	H	1.064003	0.473756	0.499997
C115	C	0.541495	0.167622	0.162920
C116	C	1.041495	0.667622	0.662920
N117	N	0.561873	0.196537	0.228340
N118	N	1.061873	0.696537	0.728340
H119	H	1.021430	0.212066	0.558159
H120	H	1.521430	0.712066	1.058159
C121	C	0.442312	0.023508	-0.162802
C122	C	0.942312	0.523508	0.337198
N123	N	0.421963	-0.005444	-0.228204
N124	N	0.921963	0.494556	0.271796
C125	C	1.147354	-0.720356	0.000065
C126	C	1.647354	-0.220356	0.500065
N127	N	1.210249	-0.757415	0.000083
N128	N	1.710249	-0.257415	0.500083
C129	C	0.442330	0.023543	0.162940
C130	C	0.942330	0.523543	0.662940
N131	N	0.421995	-0.005406	0.228355
N132	N	0.921995	0.494594	0.728355
H133	H	1.131917	0.120698	0.442107
H134	H	1.631917	0.620698	0.942107
C135	C	0.829411	0.066599	0.567690
C136	C	1.329411	0.566599	1.067690
N137	N	0.764150	0.054955	0.595323
N138	N	1.264150	0.554955	1.095323
C139	C	1.120240	-0.010586	0.567343
C140	C	1.620240	0.489414	1.067343
N141	N	1.171800	-0.053230	0.594773
N142	N	1.671800	0.446770	1.094773
H143	H	0.534329	0.157616	-0.140409
H144	H	1.034329	0.657616	0.359591
H145	H	0.419965	0.217516	-0.000045
H146	H	0.919965	0.717516	0.499955
C147	C	0.957555	-0.039539	0.432419
C148	C	1.457555	0.460461	0.932419
N149	N	0.943739	-0.093807	0.404749
N150	N	1.443739	0.406193	0.904749
H151	H	1.135880	-0.131424	0.000131
H152	H	1.635880	0.368576	0.500131
C153	C	1.150068	-0.567427	0.000078
C154	C	1.650068	-0.067427	0.500078
N155	N	1.214032	-0.544156	0.000084
N156	N	1.714032	-0.044156	0.500084
C157	C	1.155226	-0.276325	0.000119
C158	C	1.655226	0.223675	0.500119
N159	N	1.218119	-0.313387	0.000136
N160	N	1.718119	0.186613	0.500136
H161	H	0.855769	-0.233354	0.000066
H162	H	1.355769	0.266646	0.500066
H163	H	0.858103	-0.101230	0.000071
H164	H	1.358103	0.398770	0.500071
H165	H	0.847892	-0.677386	0.000019
H166	H	1.347892	-0.177386	0.500019
C167	C	0.828542	-0.532482	0.000033
C168	C	1.328542	-0.032482	0.500033
N169	N	0.765647	-0.495422	0.000024
N170	N	1.265647	0.004578	0.500024
H171	H	0.881481	0.187105	0.442078
H172	H	1.381481	0.687105	0.942078
