data_functionalizedCrystal
_audit_creation_method	'MofGen! by Chris Wilmer'
_symmetry_space_group_name_H-M	'P1'
_symmetry_Int_Tables_number	1
_symmetry_cell_setting	triclinic
loop_
_symmetry_equiv_pos_as_xyz
  x,y,z
_cell_length_a	16.992695
_cell_length_b	14.971486
_cell_length_c	14.048226
_cell_angle_alpha	90.001501
_cell_angle_beta	89.993436
_cell_angle_gamma	92.858824
loop_
_atom_site_label
_atom_site_type_symbol
_atom_site_fract_x
_atom_site_fract_y
_atom_site_fract_z
O1	O	0.102190	-1.194127	-0.079052
O2	O	0.114427	-0.934587	-0.079078
O3	O	-0.005835	-1.063316	-0.079057
O4	O	0.222452	-1.065397	-0.079072
O5	O	-0.005842	-1.063299	0.079264
O6	O	0.114420	-0.934570	0.079244
O7	O	0.102183	-1.194110	0.079270
Zn8	Zn	0.108300	-1.064337	0.104394
Zn9	Zn	0.108310	-1.064359	-0.104201
O10	O	0.222445	-1.065380	0.079249
C11	C	0.113876	-0.901215	0.000080
C12	C	0.112236	-0.801803	0.000070
C13	C	-0.035054	-1.060631	0.000103
C14	C	-0.122105	-1.052644	0.000102
C15	C	0.102733	-1.227482	0.000110
C16	C	0.104373	-1.326894	0.000114
C17	C	-0.172274	-1.129708	0.000111
C18	C	-0.254067	-1.122198	0.000101
C19	C	-0.285691	-1.037623	0.000089
C20	C	-0.235517	-0.960553	0.000078
C21	C	-0.153724	-0.968064	0.000081
C22	C	-0.529318	-1.006493	0.000073
C23	C	-0.611117	-0.998988	0.000073
C24	C	-0.629662	-1.160634	0.000094
C25	C	-0.547867	-1.168138	0.000103
C26	C	-0.497700	-1.091068	0.000087
N27	N	-0.369297	-1.029945	0.000082
N28	N	-0.414095	-1.098747	0.000087
C29	C	0.251664	-1.068066	0.000087
C30	C	0.338715	-1.076053	0.000082
N31	N	0.108293	-1.064328	0.246754
C32	C	0.182887	-0.749541	0.000067
C33	C	0.181341	-0.656133	0.000081
C34	C	0.109144	-0.614988	0.000092
C35	C	0.038488	-0.667257	0.000098
C36	C	0.040034	-0.760663	0.000091
C37	C	0.035269	-0.472568	0.000111
C38	C	0.033723	-0.379155	0.000117
C39	C	0.176577	-0.368038	0.000102
C40	C	0.178123	-0.461445	0.000094
C41	C	0.107466	-0.513707	0.000099
N42	N	0.108310	-1.064375	-0.246562
C43	C	0.055063	-1.121350	0.296581
C44	C	0.055063	-1.121356	0.396239
C45	C	0.108297	-1.064344	0.446068
C46	C	0.161529	-1.007316	0.396234
C47	C	0.161526	-1.007306	0.296578
C48	C	0.161535	-1.007342	0.603948
C49	C	0.161540	-1.007353	0.703611
C50	C	0.055072	-1.121393	0.703609
C51	C	0.055068	-1.121383	0.603953
C52	C	0.108302	-1.064355	0.554126
H53	H	-0.294912	-1.184952	0.000110
O54	O	0.248238	-0.501449	-0.000100
C55	C	0.332864	-0.600478	-0.082139
C56	C	0.253438	-0.555220	-0.082043
H57	H	0.337087	-0.643977	-0.148373
H58	H	0.383124	-0.547113	-0.082206
H59	H	0.337158	-0.643901	-0.015862
H60	H	0.249067	-0.511802	-0.148309
H61	H	0.203215	-0.608630	-0.081926
H62	H	-0.522126	-1.237008	0.000113
H63	H	-0.670517	-1.223380	0.000106
O64	O	-0.641707	-0.916758	0.000009
C65	C	-0.614686	-0.757219	0.000023
C66	C	-0.579937	-0.850282	0.000074
H67	H	-0.564762	-0.703448	0.000095
H68	H	-0.652482	-0.749624	-0.066252
H69	H	-0.652548	-0.749696	0.066262
H70	H	-0.542039	-0.857869	-0.066121
H71	H	-0.542186	-0.857835	0.066392
O72	O	-0.480563	-0.931654	-0.000105
C73	C	-0.377424	-0.846342	-0.082110
C74	C	-0.432609	-0.931128	-0.082038
H75	H	-0.338627	-0.845898	-0.148335
H76	H	-0.414043	-0.784578	-0.082176
H77	H	-0.338707	-0.845812	-0.015824
H78	H	-0.471336	-0.931745	-0.148313
H79	H	-0.395942	-0.992854	-0.081922
O80	O	0.245236	-0.317317	-0.000065
C81	C	0.366882	-0.279273	-0.082072
C82	C	0.289150	-0.336755	-0.082006
H83	H	0.402416	-0.294981	-0.148303
H84	H	0.353428	-0.205430	-0.082120
H85	H	0.402375	-0.294897	-0.015792
H86	H	0.253620	-0.321209	-0.148274
H87	H	0.302660	-0.410581	-0.081908
O88	O	0.249949	-0.605325	0.000237
C89	C	0.331091	-0.493371	0.082215
C90	C	0.253370	-0.550874	0.082171
H91	H	0.333874	-0.449320	0.148441
H92	H	0.382991	-0.538777	0.082259
H93	H	0.333920	-0.449401	0.015930
H94	H	0.250463	-0.594852	0.148445
H95	H	0.201506	-0.505418	0.082078
O96	O	0.003334	-1.176843	0.444493
C97	C	-0.102279	-1.289939	0.433975
C98	C	-0.043728	-1.227154	0.379210
H99	H	-0.140355	-1.330619	0.381217
H100	H	-0.068385	-1.337100	0.480588
H101	H	-0.141480	-1.248526	0.480675
H102	H	-0.004512	-1.268495	0.332458
H103	H	-0.077670	-1.179991	0.332657
O104	O	0.003251	-1.176746	0.751898
C105	C	-0.133021	-1.219412	0.782443
C106	C	-0.074428	-1.156678	0.727677
H107	H	-0.195837	-1.203197	0.762896
H108	H	-0.122756	-1.291796	0.762815
H109	H	-0.123841	-1.209644	0.862224
H110	H	-0.083574	-1.166366	0.647883
H111	H	-0.084708	-1.084317	0.747384
H112	H	-0.261271	-0.891690	0.000062
O113	O	-0.036477	-0.339329	0.000172
C114	C	-0.178005	-0.360207	0.000135
C115	C	-0.098560	-0.405425	0.000098
H116	H	-0.228221	-0.413625	0.000054
H117	H	-0.182351	-0.316781	0.066408
H118	H	-0.182255	-0.316727	-0.066106
H119	H	-0.094257	-0.448949	0.066294
H120	H	-0.094249	-0.448797	-0.066220
H121	H	-0.112878	-0.905310	0.000073
H122	H	0.204888	-0.960927	0.744176
H123	H	0.011725	-1.167811	0.563383
H124	H	0.204881	-0.960901	0.563382
O125	O	0.213347	-0.951974	0.444527
C126	C	0.349623	-0.909324	0.475034
C127	C	0.291024	-0.972042	0.420271
H128	H	0.412437	-0.925539	0.455459
H129	H	0.339360	-0.836935	0.455432
H130	H	0.340446	-0.919108	0.554816
H131	H	0.300165	-0.962338	0.340477
H132	H	0.301301	-1.044408	0.439953
O133	O	-0.033313	-0.523432	-0.000014
C134	C	-0.114484	-0.635304	-0.082075
C135	C	-0.036782	-0.577768	-0.082033
H136	H	-0.117322	-0.679235	-0.148390
H137	H	-0.117347	-0.679378	-0.015867
H138	H	-0.166341	-0.589838	-0.082024
H139	H	0.015118	-0.623166	-0.082118
H140	H	-0.033988	-0.533685	-0.148235
H141	H	-0.020297	-0.633749	0.000120
H142	H	-0.146533	-1.198578	0.000126
O143	O	-0.028617	-0.811395	-0.000080
C144	C	-0.150257	-0.849443	-0.082065
C145	C	-0.072530	-0.791952	-0.082006
H146	H	-0.185790	-0.833730	-0.148285
H147	H	-0.136796	-0.923283	-0.082131
H148	H	-0.185753	-0.833831	-0.015773
H149	H	-0.036996	-0.807485	-0.148286
H150	H	-0.086046	-0.718128	-0.081890
H151	H	0.204870	-0.960871	0.256010
H152	H	0.241679	-0.783034	0.000057
H153	H	0.011717	-1.167780	0.256017
