data_functionalizedCrystal
_audit_creation_method	'MofGen! by Chris Wilmer'
_symmetry_space_group_name_H-M	'P1'
_symmetry_Int_Tables_number	1
_symmetry_cell_setting	triclinic
loop_
_symmetry_equiv_pos_as_xyz
  x,y,z
_cell_length_a	15.944551
_cell_length_b	16.098538
_cell_length_c	15.944551
_cell_angle_alpha	92.722095
_cell_angle_beta	96.501262
_cell_angle_gamma	92.734390
loop_
_atom_site_label
_atom_site_type_symbol
_atom_site_fract_x
_atom_site_fract_y
_atom_site_fract_z
O1	O	1.118280	0.069171	-0.104583
O2	O	1.618280	0.569171	0.395417
O3	O	0.873732	0.069192	-0.117938
O4	O	1.373732	0.569192	0.382062
O5	O	1.002684	0.069173	0.011014
O6	O	1.502684	0.569173	0.511014
O7	O	0.989328	0.069189	-0.233535
O8	O	1.489328	0.569189	0.266465
O9	O	0.995151	-0.069339	0.003511
O10	O	1.495151	0.430661	0.503511
O11	O	0.866199	-0.069320	-0.125441
O12	O	1.366199	0.430680	0.374559
O13	O	1.110748	-0.069341	-0.112086
O14	O	1.610748	0.430659	0.387914
Zn15	Zn	0.987277	-0.091322	-0.119955
Zn16	Zn	1.487277	0.408678	0.380045
Zn17	Zn	0.997202	0.091173	-0.110069
Zn18	Zn	1.497202	0.591173	0.389931
O19	O	0.981796	-0.069322	-0.241038
O20	O	1.481796	0.430678	0.258962
C21	C	0.838672	-0.000062	-0.121135
C22	C	1.338672	0.499938	0.378865
C23	C	0.745426	-0.000054	-0.119472
C24	C	1.245426	0.499946	0.380528
N25	N	0.980510	-0.215871	-0.126701
N26	N	1.480510	0.284129	0.373299
C27	C	0.530568	-0.000075	-0.035569
C28	C	1.030568	0.499925	0.464431
C29	C	0.473262	0.068221	-0.070832
C30	C	0.973262	0.568221	0.429168
C31	C	0.574700	-0.000064	-0.116466
C32	C	1.074700	0.499936	0.383534
C33	C	0.465858	-0.068341	-0.078249
C34	C	0.965858	0.431659	0.421751
C35	C	0.409786	-0.000077	-0.113556
C36	C	0.909786	0.499923	0.386444
C37	C	0.518625	0.068289	-0.151748
C38	C	1.018625	0.568289	0.348252
C39	C	0.511223	-0.068334	-0.159156
C40	C	1.011223	0.431666	0.340844
C41	C	0.453936	-0.000021	-0.194477
C42	C	0.953936	0.499979	0.305523
C43	C	0.669702	-0.000055	-0.118140
C44	C	1.169702	0.499945	0.381860
C45	C	0.314785	-0.000080	-0.111888
C46	C	0.814785	0.499920	0.388112
C47	C	1.035262	-0.259463	-0.071988
C48	C	1.535262	0.240537	0.428012
C49	C	1.030536	-0.346652	-0.076716
C50	C	1.530536	0.153348	0.423284
C51	C	0.971061	-0.390245	-0.136161
C52	C	1.471061	0.109755	0.363839
C53	C	0.916303	-0.346646	-0.190876
C54	C	1.416303	0.153354	0.309124
C55	C	0.921026	-0.259460	-0.186144
C56	C	1.421026	0.240540	0.313856
C57	C	0.953941	-0.653493	-0.153300
C58	C	1.453941	-0.153493	0.346700
C59	C	0.949224	-0.740686	-0.158029
C60	C	1.449224	-0.240686	0.341971
C61	C	1.063456	-0.740685	-0.043867
C62	C	1.563456	-0.240685	0.456133
C63	C	1.068177	-0.653497	-0.039144
C64	C	1.568177	-0.153497	0.460856
C65	C	1.013416	-0.609905	-0.093857
C66	C	1.513416	-0.109905	0.406143
C67	C	0.966231	-0.479366	-0.140996
C68	C	1.466231	0.020634	0.359004
C69	C	1.018243	-0.520786	-0.089017
C70	C	1.518243	-0.020786	0.410983
C71	C	1.145808	-0.000086	-0.108889
C72	C	1.645808	0.499914	0.391111
C73	C	1.239054	-0.000088	-0.110552
C74	C	1.739054	0.499912	0.389448
C75	C	0.998363	-0.000083	0.038556
C76	C	1.498363	0.499917	0.538556
C77	C	0.996701	-0.000083	0.131802
C78	C	1.496701	0.499917	0.631802
N79	N	1.003976	0.215721	-0.103316
N80	N	1.503976	0.715721	0.396684
C81	C	0.986117	-0.000065	-0.268580
C82	C	1.486117	0.499935	0.231420
C83	C	0.987779	-0.000059	-0.361826
C84	C	1.487779	0.499941	0.138174
C85	C	0.912797	-0.000064	0.346660
C86	C	1.412797	0.499936	0.846660
C87	C	0.948045	-0.068363	0.403977
C88	C	1.448045	0.431637	0.903977
C89	C	0.993694	-0.000076	0.302528
C90	C	1.493694	0.499924	0.802528
C91	C	0.955491	0.068199	0.411358
C92	C	1.455491	0.568199	0.911358
C93	C	0.990783	-0.000066	0.467442
C94	C	1.490783	0.499934	0.967442
C95	C	1.028961	-0.068431	0.358615
C96	C	1.528961	0.431569	0.858615
C97	C	1.036399	0.068192	0.365993
C98	C	1.536399	0.568192	0.865993
C99	C	1.071705	-0.000122	0.423292
C100	C	1.571705	0.499878	0.923292
C101	C	0.995368	-0.000083	0.207526
C102	C	1.495368	0.499917	0.707526
C103	C	0.989115	-0.000066	0.562443
C104	C	1.489115	0.499934	1.062443
H105	H	0.563905	0.000005	0.031573
H106	H	1.063905	0.500005	0.531573
H107	H	0.541756	0.126091	-0.182807
H108	H	1.041756	0.626091	0.317193
H109	H	1.060005	-0.126235	0.335493
H110	H	1.560005	0.373765	0.835493
Cl111	Cl	0.402740	0.000041	-0.298234
Cl112	Cl	0.902740	0.500041	0.201766
Cl113	Cl	1.099368	-0.401456	-0.007932
Cl114	Cl	1.599368	0.098544	0.492068
Cl115	Cl	0.430000	-0.157485	-0.030231
Cl116	Cl	0.930000	0.342515	0.469769
Cl117	Cl	1.142948	-0.598693	0.035586
Cl118	Cl	1.642948	-0.098693	0.535586
H119	H	0.456292	0.125956	-0.033488
H120	H	0.956292	0.625956	0.466512
H121	H	0.917806	-0.514867	-0.189399
H122	H	1.417806	-0.014867	0.310601
Cl123	Cl	0.537461	-0.157478	-0.216769
Cl124	Cl	1.037461	0.342522	0.283231
Cl125	Cl	1.132292	-0.795489	0.024913
Cl126	Cl	1.632292	-0.295489	0.524913
Cl127	Cl	1.110039	-0.204669	0.002743
Cl128	Cl	1.610039	0.295331	0.502743
H129	H	1.138910	-0.000167	0.456448
H130	H	1.638910	0.499833	0.956448
H131	H	0.910689	-0.126097	0.420958
H132	H	1.410689	0.373903	0.920958
H133	H	1.073726	0.125930	0.348990
H134	H	1.573726	0.625930	0.848990
Cl135	Cl	0.874449	-0.795484	-0.232769
Cl136	Cl	1.374449	-0.295484	0.267231
Cl137	Cl	0.852188	-0.204658	-0.254927
Cl138	Cl	1.352188	0.295342	0.245073
Cl139	Cl	0.809122	-0.000155	0.295230
Cl140	Cl	1.309122	0.499845	0.795230
Cl141	Cl	0.907490	0.157340	0.447206
Cl142	Cl	1.407490	0.657340	0.947206
H143	H	0.909353	-0.618008	-0.197850
H144	H	1.409353	-0.118008	0.302150
Cl145	Cl	0.841529	-0.401448	-0.265604
Cl146	Cl	1.341529	0.098552	0.234396
H147	H	1.066665	-0.485290	-0.040614
H148	H	1.566665	0.014710	0.459386
