data_functionalizedCrystal
_audit_creation_method	'MofGen! by Chris Wilmer'
_symmetry_space_group_name_H-M	'P1'
_symmetry_Int_Tables_number	1
_symmetry_cell_setting	triclinic
loop_
_symmetry_equiv_pos_as_xyz
  x,y,z
_cell_length_a	19.077105
_cell_length_b	29.839125
_cell_length_c	19.077068
_cell_angle_alpha	92.281020
_cell_angle_beta	90.115316
_cell_angle_gamma	87.691159
loop_
_atom_site_label
_atom_site_type_symbol
_atom_site_fract_x
_atom_site_fract_y
_atom_site_fract_z
Zn1	Zn	1.062930	-0.289515	-0.323086
Zn2	Zn	1.058132	-0.217274	-0.440568
Zn3	Zn	0.945438	-0.211267	-0.318352
Zn4	Zn	0.940665	-0.289245	-0.435827
O5	O	1.001791	-0.251825	-0.379458
O6	O	1.160624	-0.282559	-0.342635
O7	O	1.043172	-0.153610	-0.424359
O8	O	0.965030	-0.219246	-0.220649
O9	O	1.157099	-0.229484	-0.428949
O10	O	1.051350	-0.276734	-0.224127
O11	O	0.960377	-0.149196	-0.334567
O12	O	0.846474	-0.218984	-0.329970
O13	O	0.956894	-0.352148	-0.420869
O14	O	0.842967	-0.276274	-0.416279
O15	O	1.046721	-0.352347	-0.338038
O16	O	1.038544	-0.229222	-0.538270
O17	O	0.952241	-0.282099	-0.534787
C18	C	0.819225	-0.246948	-0.372097
C19	C	0.741121	-0.244873	-0.368964
C20	C	1.001810	-0.369004	-0.379453
C21	C	1.001819	-0.418939	-0.379450
C22	C	0.702618	-0.273682	-0.412496
C23	C	0.629232	-0.271734	-0.409544
C24	C	0.594350	-0.240974	-0.363062
C25	C	0.632859	-0.212163	-0.319525
C26	C	0.706244	-0.214114	-0.322474
C27	C	0.375067	-0.231948	-0.349411
C28	C	0.301677	-0.229999	-0.346467
C29	C	0.298055	-0.289571	-0.436485
C30	C	0.371441	-0.291517	-0.439434
C31	C	0.409943	-0.262708	-0.395894
N32	N	0.519338	-0.238981	-0.360044
N33	N	0.484955	-0.264703	-0.398908
C34	C	1.048644	-0.728687	-0.336205
C35	C	1.048681	-0.916359	-0.336146
O36	O	1.088439	-0.940713	-0.299442
N37	N	1.001919	-0.939722	-0.379266
C38	C	0.955142	-0.916163	-0.422400
O39	O	0.915364	-0.940340	-0.459069
C40	C	0.955102	-0.728491	-0.422454
C41	C	1.001871	-0.705131	-0.379337
C42	C	1.095409	-0.705327	-0.293090
C43	C	1.095402	-0.658412	-0.293108
C44	C	1.048629	-0.634856	-0.336240
C45	C	1.001864	-0.658216	-0.379355
C46	C	0.908321	-0.704933	-0.465584
C47	C	0.908314	-0.658012	-0.465593
C48	C	0.955084	-0.634652	-0.422475
C49	C	0.955084	-0.587746	-0.422505
N50	N	1.001846	-0.564383	-0.379385
C51	C	1.048619	-0.587939	-0.336253
C52	C	0.955167	-1.014694	-0.422370
C53	C	0.955178	-1.061611	-0.422357
C54	C	1.048716	-1.061804	-0.336102
C55	C	1.048709	-1.014886	-0.336119
C56	C	1.001929	-0.991331	-0.379250
C57	C	1.048600	-0.489413	-0.336294
C58	C	1.048591	-0.442494	-0.336318
C59	C	0.955050	-0.442305	-0.422570
C60	C	0.955062	-0.489220	-0.422549
C61	C	1.001840	-0.512773	-0.379406
O62	O	0.915342	-0.563362	-0.459185
O63	O	1.088380	-0.563753	-0.299578
C64	C	1.048651	-0.775602	-0.336187
C65	C	1.001886	-0.798962	-0.379301
C66	C	0.955113	-0.775406	-0.422434
C67	C	1.001896	-0.845880	-0.379289
C68	C	1.048669	-0.869435	-0.336156
C69	C	1.095431	-0.846073	-0.293037
C70	C	1.095423	-0.799157	-0.293055
C71	C	0.908352	-0.798769	-0.465553
C72	C	0.908363	-0.845684	-0.465533
C73	C	0.955136	-0.869239	-0.422400
C74	C	1.185071	-0.256722	-0.386849
C75	C	1.263173	-0.258808	-0.389999
C76	C	0.994373	-0.256294	-0.562025
C77	C	0.991264	-0.258222	-0.640131
C78	C	1.001814	-0.135102	-0.379415
C79	C	1.001950	-0.085167	-0.379225
C80	C	1.034771	-0.231622	-0.678617
C81	C	1.031851	-0.233439	-0.752005
C82	C	0.985419	-0.261853	-0.786907
C83	C	0.941910	-0.288455	-0.748416
C84	C	0.944834	-0.286641	-0.675029
C85	C	0.971854	-0.270231	-1.006198
C86	C	0.968932	-0.272042	-1.079591
C87	C	1.058874	-0.217026	-1.083175
C88	C	1.061791	-0.215212	-1.009787
C89	C	1.018285	-0.241817	-0.971302
N90	N	0.982431	-0.263709	-0.861921
N91	N	1.021276	-0.239962	-0.896289
C92	C	1.009257	-0.247350	-0.196179
C93	C	1.012439	-0.245443	-0.118076
H94	H	0.731013	-0.298729	-0.450349
Cl95	Cl	1.120174	-0.179497	-0.965917
Cl96	Cl	0.849501	-0.628403	-0.519817
H97	H	1.067278	-0.211778	-0.783337
Cl98	Cl	1.113568	-0.183586	-1.131560
H99	H	0.266698	-0.313026	-0.471932
H100	H	0.273279	-0.204953	-0.308607
H101	H	1.086679	-0.423477	-0.301206
H102	H	0.931130	-0.295188	-1.108005
Cl103	Cl	0.890140	-0.320083	-0.626646
H104	H	0.870264	-0.779595	-0.500679
Cl105	Cl	0.917159	-0.303675	-0.957827
H106	H	1.086689	-0.508584	-0.301160
Cl107	Cl	0.883543	-0.324178	-0.792292
H108	H	0.597885	-0.295193	-0.444993
H109	H	0.399836	-0.316564	-0.477286
Cl110	Cl	0.589008	-0.173496	-0.261085
Cl111	Cl	0.423461	-0.195732	-0.294673
H112	H	1.072577	-0.208483	-0.650205
H113	H	0.737593	-0.190656	-0.287022
H114	H	1.086801	-1.080991	-0.300982
H115	H	1.133485	-0.639396	-0.257996
Cl116	Cl	1.154226	-0.734931	-0.238868
H117	H	1.086791	-0.995869	-0.301007
Cl118	Cl	0.896390	-1.090973	-0.476575
H119	H	0.917074	-0.995520	-0.457497
H120	H	0.870236	-0.723944	-0.500695
H121	H	0.916985	-0.508241	-0.457666
H122	H	0.916971	-0.423118	-0.457690
Cl123	Cl	1.154222	-0.769798	-0.238845
Cl124	Cl	1.154232	-0.875694	-0.238816
Cl125	Cl	0.849565	-0.875045	-0.519748
