data_functionalizedCrystal
_audit_creation_method	'MofGen! by Chris Wilmer'
_symmetry_space_group_name_H-M	'P1'
_symmetry_Int_Tables_number	1
_symmetry_cell_setting	triclinic
loop_
_symmetry_equiv_pos_as_xyz
  x,y,z
_cell_length_a	23.096457
_cell_length_b	23.096457
_cell_length_c	23.096457
_cell_angle_alpha	59.998858
_cell_angle_beta	59.999659
_cell_angle_gamma	90.000060
loop_
_atom_site_label
_atom_site_type_symbol
_atom_site_fract_x
_atom_site_fract_y
_atom_site_fract_z
Zr1	Zr	0.557761	-0.075970	0.633754
O2	O	0.586106	-0.168418	0.633752
O3	O	0.465310	-0.047634	0.633756
O4	O	0.465312	-0.168425	0.754547
O5	O	0.681384	0.047660	0.417678
O6	O	0.465310	-0.168427	0.849831
O7	O	0.586104	-0.047626	0.512962
O8	O	0.465306	0.047647	0.633758
O9	O	0.681388	-0.168413	0.633751
O10	O	0.527078	-0.035546	0.704865
O11	O	0.598186	0.035567	0.562647
O12	O	0.598189	-0.106649	0.704862
O13	O	0.669297	-0.035537	0.562644
Zr14	Zr	0.709719	0.075997	0.633754
Zr15	Zr	0.557757	-0.075973	0.785720
Zr16	Zr	0.709723	0.076001	0.481788
Zr17	Zr	0.709725	-0.075964	0.633752
Zr18	Zr	0.557755	0.075991	0.633757
O19	O	0.802170	0.047661	0.633752
O20	O	0.586101	-0.168422	0.849828
O21	O	0.802175	0.047665	0.417676
O22	O	0.681374	0.168445	0.633756
O23	O	0.465305	-0.047638	0.849833
O24	O	0.681379	0.168449	0.417680
O25	O	0.586096	-0.047633	0.849831
O26	O	0.802168	0.168452	0.512962
O27	O	0.802170	0.168454	0.417678
O28	O	0.681376	0.047653	0.754547
O29	O	0.681385	-0.168416	0.754543
O30	O	0.586095	0.168443	0.512965
O31	O	0.586092	0.168441	0.633758
O32	O	0.465303	0.047644	0.754551
O33	O	0.802177	-0.047617	0.512958
O34	O	0.802174	-0.047619	0.633751
O35	O	0.669291	0.106677	0.562647
O36	O	0.598183	0.035564	0.704865
O37	O	0.669294	-0.035540	0.704862
O38	O	0.740402	0.035573	0.562644
C39	C	0.443656	0.000006	0.633758
C40	C	0.379144	0.000003	0.633759
C41	C	0.633732	0.190094	0.633758
C42	C	0.633730	0.254605	0.633759
C43	C	0.633748	-0.190067	0.633751
C44	C	0.633750	-0.254578	0.633750
C45	C	0.311722	-0.037120	0.707993
C46	C	0.251106	-0.037114	0.707994
C47	C	0.257915	0.000005	0.633757
C48	C	0.325349	0.037136	0.559513
C49	C	0.385963	0.037135	0.559514
N50	N	0.190374	-0.005141	0.578498
N51	N	0.132791	-0.005144	0.578502
C52	C	0.075290	0.000011	0.633750
N53	N	0.077542	0.005156	0.689005
N54	N	0.135129	0.005155	0.689004
C55	C	0.192193	0.000010	0.633748
C56	C	-0.057862	-0.037107	0.707990
C57	C	-0.118478	-0.037096	0.707988
C58	C	-0.044233	0.037149	0.559505
C59	C	0.016381	0.037143	0.559509
C60	C	0.009562	0.000011	0.633754
C61	C	0.823824	0.000022	0.633751
C62	C	0.888336	0.000024	0.633750
C63	C	0.633745	0.000018	0.443668
C64	C	0.633746	0.000019	0.379155
C65	C	0.596609	0.247791	0.707993
C66	C	0.596615	0.308407	0.707994
C67	C	0.633731	0.375836	0.633757
C68	C	0.670860	0.382648	0.559513
C69	C	0.670859	0.322033	0.559514
N70	N	0.628583	0.498637	0.578499
N71	N	0.628580	0.556216	0.578503
C72	C	0.633738	0.558469	0.633750
N73	N	0.638885	0.500960	0.689004
N74	N	0.638884	0.443374	0.689003
C75	C	0.633737	0.441567	0.633748
C76	C	0.596622	0.617378	0.707990
C77	C	0.596632	0.677996	0.707988
C78	C	0.670873	0.752237	0.559505
C79	C	0.670867	0.691619	0.559509
C80	C	0.633737	0.624192	0.633754
C81	C	0.686229	0.052498	-0.133837
C82	C	0.686230	0.052503	-0.073224
C83	C	0.633739	0.000009	0.009581
C84	C	0.581234	-0.052485	0.031772
C85	C	0.581231	-0.052485	-0.028841
N86	N	0.617848	-0.062241	0.143823
N87	N	0.617855	-0.062238	0.201400
C88	C	0.633744	0.000007	0.192209
N89	N	0.649638	0.062253	0.123257
N90	N	0.649635	0.062250	0.065673
C91	C	0.633736	0.000004	0.075312
C92	C	0.686243	0.052507	0.235737
C93	C	0.686238	0.052513	0.296353
C94	C	0.581245	-0.052481	0.401350
C95	C	0.581247	-0.052481	0.340733
C96	C	0.633749	0.000012	0.257929
C97	C	0.633735	0.000010	0.823841
C98	C	0.633734	0.000008	0.888354
C99	C	0.443660	-0.190079	0.823841
C100	C	0.379148	-0.254594	0.888354
C101	C	0.443652	0.000002	0.823844
C102	C	0.379137	-0.000002	0.888359
C103	C	0.633737	0.190098	0.443671
C104	C	0.633736	0.254611	0.379159
C105	C	0.823828	0.000026	0.443665
C106	C	0.888343	0.000030	0.379150
C107	C	0.823820	0.190106	0.443668
C108	C	0.888332	0.254621	0.379155
C109	C	0.633743	-0.190071	0.823838
C110	C	0.633744	-0.254584	0.888350
C111	C	0.385972	-0.322013	0.918656
C112	C	0.325362	-0.382638	0.979282
C113	C	0.257929	-0.375843	1.009601
C114	C	0.251107	-0.308417	0.979297
C115	C	0.311716	-0.247793	0.918676
C116	C	0.311719	-0.037129	0.918662
C117	C	0.251095	-0.037147	0.979288
C118	C	0.257891	-0.000034	1.009607
C119	C	0.325318	0.037094	0.979301
C120	C	0.385940	0.037107	0.918680
C121	C	0.670858	0.322032	0.348857
C122	C	0.670871	0.382654	0.288232
C123	C	0.633758	0.375854	0.257915
C124	C	0.596635	0.308426	0.288219
C125	C	0.596626	0.247805	0.348839
C126	C	0.955761	0.037150	0.348854
C127	C	1.016385	0.037151	0.288244
C128	C	1.009589	0.000036	0.257927
C129	C	0.942162	-0.037089	0.288230
C130	C	0.881540	-0.037094	0.348843
C131	C	0.955753	0.247803	0.348851
C132	C	1.016374	0.308417	0.288225
C133	C	1.009573	0.375848	0.257908
C134	C	0.942145	0.382664	0.288215
C135	C	0.881525	0.322052	0.348835
C136	C	0.670861	-0.247761	0.918652
C137	C	0.670860	-0.308372	0.979276
C138	C	0.633745	-0.375805	1.009593
C139	C	0.596624	-0.382626	0.979289
C140	C	0.596621	-0.322016	0.918670
H141	H	0.306166	-0.067353	0.768447
C142	C	0.555851	-0.456802	1.012591
H143	H	0.533752	-0.452192	0.985855
H144	H	0.587933	-0.481945	1.002624
H145	H	0.520717	-0.482028	1.069826
H146	H	0.306150	-0.192900	0.894006
H147	H	0.330931	-0.437533	1.003945
C148	C	0.555770	0.670502	0.789648
H149	H	0.561085	0.716259	0.779016
H150	H	0.506941	0.645323	0.820121
H151	H	0.574077	0.645310	0.820181
H152	H	0.701091	-0.302804	1.003939
C153	C	0.176931	-0.300947	1.012632
H154	H	0.181540	-0.252113	0.985906
H155	H	0.151761	-0.323061	1.002688
H156	H	0.151732	-0.323053	1.069865
C157	C	1.076277	0.000049	0.191251
H158	H	1.117401	0.027480	0.177549
H159	H	1.076290	-0.047238	0.211113
H160	H	1.076289	0.019931	0.143948
H161	H	-0.173378	-0.067323	0.768440
H162	H	0.566419	0.302900	0.263525
H163	H	0.071280	0.067369	0.499060
H164	H	-0.063415	-0.067339	0.768445
C165	C	0.555784	0.173646	0.382170
H166	H	0.533680	0.178285	0.355434
H167	H	0.587813	0.148448	0.372241
H168	H	0.520649	0.148458	0.439401
C169	C	0.711696	0.329525	0.382184
H170	H	0.733812	0.378365	0.355439
H171	H	0.679667	0.307426	0.439413
H172	H	0.746822	0.307421	0.372239
C173	C	0.711701	0.456815	0.254915
H174	H	0.733790	0.452177	0.281667
H175	H	0.746835	0.482013	0.197688
H176	H	0.679658	0.482003	0.264854
C177	C	0.176934	-0.077955	0.789654
H178	H	0.181554	-0.100073	0.833871
H179	H	0.151739	-0.045922	0.792746
H180	H	0.151753	-0.113080	0.792729
H181	H	0.701082	0.437553	0.499069
H182	H	0.961309	0.067379	0.373526
C183	C	0.633759	-0.442469	1.076267
H184	H	0.661188	-0.428742	1.089962
H185	H	0.586472	-0.469900	1.123569
H186	H	0.653643	-0.469887	1.056393
C187	C	0.711690	0.329525	0.477855
H188	H	0.706376	0.283768	0.488489
H189	H	0.693364	0.354713	0.447348
H190	H	0.760527	0.354707	0.447355
H191	H	0.701097	0.807139	0.499060
H192	H	0.728985	0.095260	0.278278
H193	H	0.826631	0.327613	0.373507
H194	H	1.071280	0.067386	0.263578
H195	H	0.538504	-0.095220	0.468770
H196	H	0.566391	0.562475	0.768445
C197	C	0.555773	0.173625	0.789656
H198	H	0.561083	0.138498	0.779028
H199	H	0.574098	0.168305	0.820163
H200	H	0.506937	0.168310	0.820154
C201	C	0.523508	-0.110227	0.365143
H202	H	0.492249	-0.141495	0.423139
H203	H	0.497578	-0.088667	0.343681
H204	H	0.545076	-0.136156	0.343679
C205	C	0.523498	-0.110229	0.122853
H206	H	0.531022	-0.102716	0.155775
H207	H	0.478182	-0.108053	0.134493
H208	H	0.525678	-0.155545	0.134487
C209	C	0.460140	-0.329502	0.885324
H210	H	0.455513	-0.378341	0.912069
H211	H	0.485337	-0.307403	0.828096
H212	H	0.485321	-0.307396	0.895267
H213	H	0.196200	-0.067381	1.003954
C214	C	1.076259	0.442515	0.191260
H215	H	1.117384	0.428791	0.177573
H216	H	1.076293	0.469964	0.143948
H217	H	1.076246	0.469913	0.211163
H218	H	0.538482	-0.095229	-0.010766
C219	C	0.934695	-0.077907	0.254871
H220	H	0.980459	-0.072576	0.214427
H221	H	0.909512	-0.126744	0.298376
H222	H	0.909518	-0.059567	0.231210
H223	H	0.728991	0.095253	0.168313
H224	H	0.566386	0.302857	0.768446
H225	H	0.728978	0.095242	-0.201258
H226	H	1.071271	0.302852	0.263559
C227	C	0.332841	0.077963	0.477855
H228	H	0.287085	0.072641	0.488485
H229	H	0.358025	0.126797	0.447350
H230	H	0.358027	0.059629	0.447353
C231	C	0.191266	-0.442533	1.076276
H232	H	0.204994	-0.483656	1.089970
H233	H	0.163837	-0.442549	1.123578
H234	H	0.163847	-0.442543	1.056403
H235	H	0.701091	0.697171	0.499060
H236	H	0.566398	-0.327581	0.894001
H237	H	0.728979	0.095248	-0.091296
H238	H	0.330841	0.067310	1.003996
C239	C	0.711687	-0.173593	0.885317
H240	H	0.733782	-0.178220	0.912060
H241	H	0.746816	-0.148398	0.828089
H242	H	0.679640	-0.148408	0.895258
H243	H	0.440863	0.067364	0.499062
H244	H	0.306171	-0.067360	0.893992
C245	C	0.191205	-0.000046	1.076283
H246	H	0.204904	0.027371	1.090007
H247	H	0.163786	0.019822	1.056409
H248	H	0.163788	-0.047343	1.123578
C249	C	-0.036735	0.077979	0.477845
H250	H	-0.082491	0.072661	0.488475
H251	H	-0.011548	0.126812	0.447341
H252	H	-0.011551	0.059645	0.447344
C253	C	0.807381	-0.077919	0.382157
H254	H	0.772245	-0.072614	0.422601
H255	H	0.802080	-0.059583	0.338630
H256	H	0.802066	-0.126755	0.405806
H257	H	0.440833	0.067345	0.894008
C258	C	0.633768	0.442541	0.191239
H259	H	0.661188	0.483666	0.177545
H260	H	0.653642	0.442556	0.143938
H261	H	0.586475	0.442549	0.211112
H262	H	0.961304	0.192903	0.373527
C263	C	0.934673	0.456840	0.254874
H264	H	0.980436	0.491957	0.214440
H265	H	0.909488	0.462177	0.231222
H266	H	0.909496	0.462153	0.298397
