data_functionalizedCrystal
_audit_creation_method	'MofGen! by Chris Wilmer'
_symmetry_space_group_name_H-M	'P1'
_symmetry_Int_Tables_number	1
_symmetry_cell_setting	triclinic
loop_
_symmetry_equiv_pos_as_xyz
  x,y,z
_cell_length_a	15.297475
_cell_length_b	19.121063
_cell_length_c	15.298013
_cell_angle_alpha	97.698875
_cell_angle_beta	91.613322
_cell_angle_gamma	83.156694
loop_
_atom_site_label
_atom_site_type_symbol
_atom_site_fract_x
_atom_site_fract_y
_atom_site_fract_z
Zn1	Zn	1.231708	-0.346017	0.741824
Zn2	Zn	1.731708	0.153983	1.241824
Zn3	Zn	1.248318	-0.484605	0.601412
Zn4	Zn	1.748318	0.015395	1.101412
Zn5	Zn	1.110181	-0.352712	0.570348
Zn6	Zn	1.610181	0.147288	1.070348
Zn7	Zn	1.078970	-0.445645	0.720838
Zn8	Zn	1.578970	0.054355	1.220838
O9	O	1.167294	-0.407245	0.658606
O10	O	1.667294	0.092755	1.158606
O11	O	1.355643	-0.377904	0.744981
O12	O	1.855643	0.122096	1.244981
O13	O	1.250007	-0.486216	0.475548
O14	O	1.750007	0.013784	0.975548
O15	O	1.132412	-0.254931	0.588877
O16	O	1.632412	0.245069	1.088877
O17	O	1.367847	-0.479724	0.641821
O18	O	1.867847	0.020276	1.141821
O19	O	1.221697	-0.250012	0.714860
O20	O	1.721697	0.249988	1.214860
O21	O	1.148519	-0.389314	0.452726
O22	O	1.648519	0.110686	0.952726
O23	O	0.984309	-0.351536	0.568528
O24	O	1.484309	0.148464	1.068528
O25	O	1.079217	-0.413323	0.845365
O26	O	1.579217	0.086677	1.345365
O27	O	0.961378	-0.419814	0.679092
O28	O	1.461378	0.080186	1.179092
O29	O	1.191433	-0.340126	0.860783
O30	O	1.691433	0.159874	1.360783
O31	O	1.219743	-0.576330	0.621472
O32	O	1.719743	-0.076330	1.121472
O33	O	1.095324	-0.547706	0.709214
O34	O	1.595324	-0.047706	1.209214
C35	C	0.941280	-0.382175	0.618163
C36	C	1.441280	0.117825	1.118163
C37	C	0.844585	-0.371463	0.600882
C38	C	1.344585	0.128537	1.100882
C39	C	0.524401	-0.483807	0.782112
C40	C	1.024401	0.016193	1.282112
C41	C	0.615250	-0.493877	0.798346
C42	C	1.115250	0.006123	1.298346
C43	C	0.672588	-0.463274	0.748982
C44	C	1.172588	0.036726	1.248982
C45	C	0.639068	-0.422600	0.683381
C46	C	1.139068	0.077400	1.183381
C47	C	0.548211	-0.412534	0.667141
C48	C	1.048211	0.087466	1.167141
C49	C	0.696398	-0.392001	0.634010
C50	C	1.196398	0.107999	1.134010
C51	C	0.662878	-0.351327	0.568409
C52	C	1.162878	0.148673	1.068409
C53	C	0.572029	-0.341263	0.552173
C54	C	1.072029	0.158737	1.052173
C55	C	0.514691	-0.371866	0.601537
C56	C	1.014691	0.128134	1.101537
C57	C	0.787256	-0.402067	0.650250
C58	C	1.287256	0.097933	1.150250
C59	C	0.811066	-0.330794	0.535279
C60	C	1.311066	0.169206	1.035279
C61	C	0.720216	-0.320725	0.519045
C62	C	1.220216	0.179275	1.019045
C63	C	1.155969	-0.587141	0.666459
C64	C	1.655969	-0.087141	1.166459
C65	C	1.151199	-0.664105	0.669863
C66	C	1.651199	-0.164105	1.169863
C67	C	1.213773	-0.715140	0.625833
C68	C	1.713773	-0.215140	1.125833
C69	C	1.209291	-0.787455	0.629040
C70	C	1.709291	-0.287455	1.129040
C71	C	1.142232	-0.808734	0.676272
C72	C	1.642232	-0.308734	1.176272
C73	C	1.079655	-0.757693	0.720307
C74	C	1.579655	-0.257693	1.220307
C75	C	1.084141	-0.685379	0.717105
C76	C	1.584141	-0.185379	1.217105
C77	C	1.125447	-1.026330	0.688227
C78	C	1.625447	-0.526330	1.188227
C79	C	1.120964	-1.098651	0.691424
C80	C	1.620964	-0.598651	1.191424
C81	C	1.250601	-1.128408	0.600158
C82	C	1.750601	-0.628408	1.100158
C83	C	1.255078	-1.056092	0.596956
C84	C	1.755078	-0.556092	1.096956
C85	C	1.192505	-1.005057	0.640995
C86	C	1.692505	-0.505057	1.140995
C87	C	1.137647	-0.882651	0.679548
C88	C	1.637647	-0.382651	1.179548
C89	C	1.197093	-0.931141	0.637723
C90	C	1.697093	-0.431141	1.137723
C91	C	1.394191	-0.432413	0.699207
C92	C	1.894191	0.067587	1.199207
C93	C	1.490881	-0.443138	0.716509
C94	C	1.990881	0.056862	1.216509
C95	C	1.129991	-0.371632	0.885524
C96	C	1.629991	0.128368	1.385524
C97	C	1.114094	-0.356456	0.982223
C98	C	1.614094	0.143544	1.482223
C99	C	1.178684	-0.226646	0.650744
C100	C	1.678684	0.273354	1.150744
C101	C	1.183537	-0.149686	0.647394
C102	C	1.683537	0.350314	1.147394
C103	C	1.280647	-0.515490	1.302324
C104	C	1.780647	-0.015490	1.802324
C105	C	1.295578	-0.529753	1.211470
C106	C	1.795578	-0.029753	1.711470
C107	C	1.250208	-0.486430	1.154154
C108	C	1.750208	0.013570	1.654154
C109	C	1.189905	-0.428842	1.187700
C110	C	1.689905	0.071158	1.687700
C111	C	1.174968	-0.414581	1.278563
C112	C	1.674968	0.085419	1.778563
C113	C	1.144530	-0.385521	1.130392
C114	C	1.644530	0.114479	1.630392
C115	C	1.084226	-0.327933	1.163939
C116	C	1.584226	0.172067	1.663939
C117	C	1.069292	-0.313675	1.254793
C118	C	1.569292	0.186325	1.754793
C119	C	1.114662	-0.356998	1.312109
C120	C	1.614662	0.143002	1.812109
C121	C	1.159467	-0.399781	1.039530
C122	C	1.659467	0.100219	1.539530
C123	C	1.053788	-0.298872	1.015769
C124	C	1.553788	0.201128	1.515769
C125	C	1.038857	-0.284610	1.106623
C126	C	1.538857	0.215390	1.606623
C127	C	1.204445	-0.442733	1.432569
C128	C	1.704445	0.057267	1.932569
C129	C	1.220341	-0.457907	1.335870
C130	C	1.720341	0.042093	1.835870
H131	H	1.268376	-0.697822	0.587367
H132	H	1.768376	-0.197822	1.087367
H133	H	0.440713	-0.363667	0.588325
H134	H	0.940713	0.136333	1.088325
N135	N	0.823400	-0.445927	0.721007
N136	N	1.323400	0.054073	1.221007
H137	H	0.889655	-0.447664	0.723807
H138	H	1.389655	0.052336	1.223807
H139	H	0.806652	-0.495742	0.706681
H140	H	1.306652	0.004258	1.206681
N141	N	0.973801	-0.222510	1.142807
N142	N	1.473801	0.277490	1.642807
H143	H	0.971221	-0.220057	1.209060
H144	H	1.471221	0.279943	1.709060
H145	H	0.913609	-0.228900	1.116273
H146	H	1.413609	0.271100	1.616273
N147	N	1.360622	-0.591853	1.175287
N148	N	1.860622	-0.091853	1.675287
H149	H	1.363195	-0.594310	1.109033
H150	H	1.863195	-0.094310	1.609033
H151	H	1.341355	-0.637311	1.190895
H152	H	1.841355	-0.137311	1.690895
H153	H	1.020181	-0.266788	1.282102
H154	H	1.520181	0.233212	1.782102
N155	N	0.535865	-0.297393	0.481424
N156	N	1.035865	0.202607	0.981424
H157	H	0.503033	-0.327638	0.435537
H158	H	1.003033	0.172362	0.935537
H159	H	0.586010	-0.279534	0.452683
H160	H	1.086010	0.220466	0.952683
H161	H	1.016844	-0.263596	0.969101
H162	H	1.516844	0.236404	1.469101
H163	H	1.033189	-0.643825	0.752960
H164	H	1.533189	-0.143825	1.252960
H165	H	1.074496	-0.984783	0.724084
H166	H	1.574496	-0.484783	1.224084
N167	N	0.770576	-0.474134	0.766485
N168	N	1.270576	0.025866	1.266485
H169	H	0.783111	-0.504543	0.815533
H170	H	1.283111	-0.004543	1.315533
H171	H	0.792738	-0.426528	0.784378
H172	H	1.292738	0.073472	1.284378
N173	N	0.684061	-0.276867	0.448281
N174	N	1.184061	0.223133	0.948281
H175	H	0.709415	-0.299056	0.389392
H176	H	1.209415	0.200944	0.889392
H177	H	0.700749	-0.227036	0.462636
H178	H	1.200749	0.272964	0.962636
N179	N	0.651404	-0.537746	0.869091
N180	N	1.151404	-0.037746	1.369091
H181	H	0.601297	-0.555605	0.897900
H182	H	1.101297	-0.055605	1.397900
H183	H	0.684249	-0.507464	0.914922
H184	H	1.184249	-0.007464	1.414922
N185	N	1.329560	-0.562214	1.364147
N186	N	1.829560	-0.062214	1.864147
H187	H	1.365448	-0.532634	1.407837
H188	H	1.865448	-0.032634	1.907837
H189	H	1.369982	-0.600854	1.329053
H190	H	1.869982	-0.100854	1.829053
N191	N	1.048635	-1.121600	0.742375
N192	N	1.548635	-0.621600	1.242375
H193	H	1.055287	-1.175155	0.737715
H194	H	1.555287	-0.675155	1.237715
H195	H	0.989533	-1.104249	0.717115
H196	H	1.489533	-0.604249	1.217115
N197	N	1.098553	-0.341619	1.410104
N198	N	1.598553	0.158381	1.910104
H199	H	1.053463	-0.298567	1.422661
H200	H	1.553463	0.201433	1.922661
H201	H	1.155474	-0.332112	1.442048
H202	H	1.655474	0.167888	1.942048
H203	H	0.477709	-0.508724	0.822292
H204	H	0.977709	-0.008724	1.322292
N205	N	1.269421	-0.908189	0.586787
N206	N	1.769421	-0.408189	1.086787
H207	H	1.242587	-0.880636	0.538800
H208	H	1.742587	-0.380636	1.038800
H209	H	1.308361	-0.951522	0.559433
H210	H	1.808361	-0.451522	1.059433
N211	N	0.872898	-0.297787	0.482026
N212	N	1.372898	0.202213	0.982026
H213	H	0.935538	-0.310334	0.502269
H214	H	1.435538	0.189666	1.002269
H215	H	0.857884	-0.244453	0.490670
H216	H	1.357884	0.255547	0.990670
H217	H	1.301546	-1.169968	0.564305
H218	H	1.801546	-0.669968	1.064305
H219	H	1.262368	-0.498046	1.080177
H220	H	1.762368	0.001954	1.580177
N221	N	1.276776	-0.842501	0.581545
N222	N	1.776776	-0.342501	1.081545
H223	H	1.309390	-0.871376	0.625467
H224	H	1.809390	-0.371376	1.125467
H225	H	1.319877	-0.817996	0.551134
H226	H	1.819877	-0.317996	1.051134
N227	N	1.327417	-1.033142	0.546028
N228	N	1.827417	-0.533142	1.046028
H229	H	1.366383	-1.076446	0.518627
H230	H	1.866383	-0.576446	1.018627
H231	H	1.363674	-1.001999	0.587356
H232	H	1.863674	-0.501999	1.087356
N233	N	1.007328	-0.780639	0.771254
N234	N	1.507328	-0.280639	1.271254
H235	H	1.013977	-0.834194	0.766600
H236	H	1.513977	-0.334194	1.266600
H237	H	0.948228	-0.763288	0.745989
H238	H	1.448228	-0.263288	1.245989
H239	H	1.083046	-0.899985	0.718003
H240	H	1.583046	-0.399985	1.218003
H241	H	1.208572	-0.446667	1.012227
H242	H	1.708572	0.053333	1.512227
