data_functionalizedCrystal
_audit_creation_method	'MofGen! by Chris Wilmer'
_symmetry_space_group_name_H-M	'P1'
_symmetry_Int_Tables_number	1
_symmetry_cell_setting	triclinic
loop_
_symmetry_equiv_pos_as_xyz
  x,y,z
_cell_length_a	19.288864
_cell_length_b	9.065218
_cell_length_c	17.766277
_cell_angle_alpha	89.995554
_cell_angle_beta	89.976791
_cell_angle_gamma	84.076066
loop_
_atom_site_label
_atom_site_type_symbol
_atom_site_fract_x
_atom_site_fract_y
_atom_site_fract_z
O1	O	0.922782	0.184032	-0.062833
O2	O	0.720714	0.208857	-0.062781
O3	O	0.825925	-0.018344	-0.062807
O4	O	0.817571	0.411233	-0.062808
O5	O	0.825906	-0.018356	0.062382
O6	O	0.720695	0.208846	0.062407
O7	O	0.922763	0.184020	0.062355
Cu8	Cu	0.821727	0.196432	0.073812
Cu9	Cu	0.821750	0.196445	-0.074238
O10	O	0.817552	0.411222	0.062381
C11	C	0.694822	0.208053	-0.000180
C12	C	0.617700	0.205655	-0.000161
C13	C	0.574039	0.338966	-0.000173
C14	C	0.501574	0.336713	-0.000181
C15	C	0.472774	0.201142	-0.000192
C16	C	0.516445	0.067812	-0.000176
C17	C	0.588908	0.070069	-0.000160
C18	C	0.363691	0.094571	-0.044077
C19	C	0.291229	0.092320	-0.044097
C20	C	0.249274	0.194176	-0.000238
C21	C	0.279789	0.298308	0.043632
C22	C	0.352252	0.300565	0.043648
C23	C	0.394201	0.198680	-0.000209
C24	C	0.127038	0.325054	-0.000258
C25	C	0.054572	0.322796	-0.000262
C26	C	0.069445	0.053891	-0.000264
C27	C	0.141909	0.056153	-0.000253
C28	C	0.170701	0.191739	-0.000253
C29	C	0.825112	-0.073309	-0.000213
C30	C	0.822712	-0.237067	-0.000216
C31	C	0.948655	0.184825	-0.000247
C32	C	1.025777	0.187223	-0.000272
C33	C	0.818365	0.466186	-0.000214
C34	C	0.820765	0.629945	-0.000216
N35	N	0.821717	0.196421	0.177942
N36	N	0.821766	0.196444	-0.178368
C37	C	0.868320	0.095866	0.217318
C38	C	0.868324	0.095859	0.296120
C39	C	0.821732	0.196433	0.335543
C40	C	0.775120	0.296996	0.296158
C41	C	0.775113	0.296991	0.217358
C42	C	0.813476	0.330849	0.460382
C43	C	0.813489	0.330856	0.539181
C44	C	0.821750	0.196451	0.578589
C45	C	0.830014	0.062032	0.539189
C46	C	0.830007	0.062026	0.460389
C47	C	0.821734	0.196450	0.420989
C48	C	0.868360	0.095879	0.703411
C49	C	0.868359	0.095871	0.782214
C50	C	0.775159	0.297021	0.782251
C51	C	0.775156	0.297017	0.703449
C52	C	0.821761	0.196448	0.664034
H53	H	0.045997	-0.056494	-0.000320
O54	O	0.261666	-0.008773	-0.086818
C55	C	0.244731	-0.103355	-0.211490
C56	C	0.278260	0.011193	-0.163195
H57	H	0.258123	-0.087232	-0.273251
H58	H	0.265462	-0.220077	-0.193036
H59	H	0.185738	-0.087492	-0.203934
H60	H	0.337255	-0.004533	-0.170727
H61	H	0.257474	0.127872	-0.181660
H62	H	0.737162	0.378876	0.185297
O63	O	0.155047	0.456715	-0.000379
C64	C	0.228301	0.615294	-0.065187
C65	C	0.196616	0.466154	-0.065156
H66	H	0.261929	0.622961	-0.117545
H67	H	0.184674	0.710256	-0.065237
H68	H	0.261798	0.623032	-0.012765
H69	H	0.163126	0.458272	-0.117569
H70	H	0.240277	0.371264	-0.065067
H71	H	0.737183	0.378883	0.328260
O72	O	0.404510	-0.004173	-0.086731
C73	C	0.488419	-0.039013	-0.187341
C74	C	0.442238	0.072969	-0.139082
H75	H	0.518923	0.023312	-0.229688
H76	H	0.526323	-0.109425	-0.149428
H77	H	0.454155	-0.113844	-0.218668
H78	H	0.476446	0.147897	-0.107747
H79	H	0.404329	0.143276	-0.177034
H80	H	0.906306	0.013985	0.671318
H81	H	0.737210	0.378905	0.671387
H82	H	0.597476	0.449370	-0.000175
H83	H	0.836734	-0.047423	0.428313
O84	O	0.488586	-0.064011	-0.000157
C85	C	0.510983	-0.330485	-0.000204
C86	C	0.542623	-0.181294	-0.000211
H87	H	0.554657	-0.425347	-0.000263
H88	H	0.477423	-0.338372	0.052190
H89	H	0.477438	-0.338176	-0.052592
H90	H	0.576201	-0.173503	0.052142
H91	H	0.576144	-0.173471	-0.052639
O92	O	0.631395	-0.059340	-0.000255
C93	C	0.721841	-0.212878	-0.065125
C94	C	0.673774	-0.066254	-0.065100
H95	H	0.756106	-0.218530	-0.117554
H96	H	0.756160	-0.218570	-0.012765
H97	H	0.688798	-0.310142	-0.065095
H98	H	0.706762	0.031093	-0.065156
H99	H	0.639451	-0.060692	-0.117455
O100	O	0.459179	0.466256	-0.000332
C101	C	0.424359	0.695413	-0.065190
C102	C	0.472397	0.548750	-0.065118
H103	H	0.435038	0.762165	-0.117556
H104	H	0.367609	0.670590	-0.065253
H105	H	0.434899	0.762109	-0.012776
H106	H	0.461918	0.481981	-0.117523
H107	H	0.529130	0.573677	-0.065017
O108	O	0.913629	-0.001623	0.334460
C109	C	1.008323	-0.033511	0.423339
C110	C	0.957045	0.077048	0.379985
H111	H	1.043448	0.030052	0.460145
H112	H	0.977922	-0.107033	0.460305
H113	H	1.041595	-0.105416	0.381613
H114	H	0.923760	0.149051	0.421657
H115	H	0.987488	0.150467	0.343008
H116	H	0.906266	0.013973	0.185229
O117	O	0.837916	-0.068517	0.577488
C118	C	0.787992	-0.228057	0.666514
C119	C	0.778942	-0.080184	0.623173
H120	H	0.740326	-0.237524	0.703472
H121	H	0.793855	-0.324175	0.624847
H122	H	0.836526	-0.231898	0.703348
H123	H	0.730407	-0.076198	0.586338
H124	H	0.773119	0.015866	0.664881
H125	H	0.906307	0.013978	0.814274
H126	H	0.737220	0.378905	0.814348
O127	O	0.805424	0.461554	0.577334
C128	C	0.789065	0.728193	0.569008
C129	C	0.798175	0.580281	0.525709
H130	H	0.783216	0.824222	0.527288
H131	H	0.740542	0.732148	0.605909
H132	H	0.836749	0.737704	0.605891
H133	H	0.750530	0.570672	0.488785
H134	H	0.846726	0.576390	0.488855
H135	H	0.177459	-0.052404	-0.000247
H136	H	0.377094	0.385348	0.079371
O137	O	0.239143	0.397404	0.086261
C138	C	0.235451	0.601890	0.173316
C139	C	0.281566	0.489775	0.125065
H140	H	0.269733	0.676581	0.204714
H141	H	0.197603	0.672426	0.135395
H142	H	0.204875	0.539583	0.215602
H143	H	0.312187	0.551963	0.082773
H144	H	0.319370	0.419242	0.163033
H145	H	0.806737	0.440305	0.428302
O146	O	0.012257	0.452438	-0.000305
C147	C	0.005157	0.719388	-0.000268
C148	C	0.053159	0.572677	-0.000237
H149	H	0.038206	0.816639	-0.000197
H150	H	-0.029101	0.725153	-0.052677
H151	H	-0.029181	0.724975	0.052106
H152	H	0.087540	0.566992	-0.052575
H153	H	0.087370	0.566973	0.052206
