data_functionalizedCrystal
_audit_creation_method	'MofGen! by Chris Wilmer'
_symmetry_space_group_name_H-M	'P1'
_symmetry_Int_Tables_number	1
_symmetry_cell_setting	triclinic
loop_
_symmetry_equiv_pos_as_xyz
  x,y,z
_cell_length_a	16.098538
_cell_length_b	16.109301
_cell_length_c	16.109301
_cell_angle_alpha	83.461481
_cell_angle_beta	92.731907
_cell_angle_gamma	87.262155
loop_
_atom_site_label
_atom_site_type_symbol
_atom_site_fract_x
_atom_site_fract_y
_atom_site_fract_z
O1	O	-0.069207	-1.099403	-0.110581
O2	O	0.264126	-0.766070	0.222753
O3	O	0.597460	-0.432737	0.556086
O4	O	-0.069220	-0.857341	-0.123881
O5	O	0.264113	-0.524007	0.209453
O6	O	0.597446	-0.190674	0.542786
O7	O	-0.069205	-0.985022	0.003801
O8	O	0.264129	-0.651689	0.337134
O9	O	0.597462	-0.318355	0.670467
O10	O	-0.069223	-0.971722	-0.238262
O11	O	0.264111	-0.638388	0.095071
O12	O	0.597444	-0.305055	0.428405
O13	O	0.069309	-0.992474	0.011237
O14	O	0.402642	-0.659140	0.344570
O15	O	0.735976	-0.325807	0.677904
O16	O	0.069293	-0.864792	-0.116444
O17	O	0.402627	-0.531459	0.216889
O18	O	0.735960	-0.198125	0.550222
O19	O	0.069307	-1.106855	-0.103144
O20	O	0.402640	-0.773521	0.230189
O21	O	0.735974	-0.440188	0.563522
Zn22	Zn	0.091292	-0.987007	-0.108614
Zn23	Zn	0.424626	-0.653673	0.224720
Zn24	Zn	0.757959	-0.320340	0.558053
Zn25	Zn	-0.091206	-0.977189	-0.118411
Zn26	Zn	0.242128	-0.643856	0.214922
Zn27	Zn	0.575461	-0.310522	0.548255
O28	O	0.069291	-0.979173	-0.230826
O29	O	0.402625	-0.645840	0.102508
O30	O	0.735958	-0.312507	0.435841
C31	C	0.000035	-0.830091	-0.119624
C32	C	0.333368	-0.496758	0.213709
C33	C	0.666702	-0.163425	0.547043
C34	C	0.000030	-0.737796	-0.118009
C35	C	0.333363	-0.404462	0.215324
C36	C	0.666697	-0.071129	0.548658
N37	N	-0.215756	-0.970489	-0.125092
N38	N	0.117578	-0.637156	0.208241
N39	N	0.450911	-0.303822	0.541575
C40	C	0.000052	-0.988209	0.038494
C41	C	0.333386	-0.654876	0.371827
C42	C	0.666719	-0.321543	0.705161
C43	C	0.000054	-0.986594	0.130789
C44	C	0.333387	-0.653261	0.464123
C45	C	0.666720	-0.319927	0.797456
C46	C	-0.259334	-1.024786	-0.071002
C47	C	0.073999	-0.691453	0.262331
C48	C	0.407333	-0.358120	0.595664
C49	C	-0.346524	-1.020098	-0.075674
C50	C	-0.013190	-0.686764	0.257659
C51	C	0.320143	-0.353431	0.590993
C52	C	-0.390133	-0.961107	-0.134432
C53	C	-0.056800	-0.627774	0.198901
C54	C	0.276533	-0.294441	0.532235
C55	C	-0.346549	-0.906808	-0.188527
C56	C	-0.013215	-0.573475	0.144806
C57	C	0.320118	-0.240141	0.478139
C58	C	-0.259361	-0.911501	-0.183859
C59	C	0.073973	-0.578168	0.149474
C60	C	0.407306	-0.244834	0.482808
C61	C	-0.653385	-0.944107	-0.151353
C62	C	-0.320052	-0.610773	0.181980
C63	C	0.013281	-0.277440	0.515313
C64	C	-0.740579	-0.939416	-0.156016
C65	C	-0.407246	-0.606082	0.177317
C66	C	-0.073913	-0.272749	0.510651
C67	C	-0.740548	-1.052707	-0.043163
C68	C	-0.407215	-0.719374	0.290170
C69	C	-0.073882	-0.386040	0.623503
C70	C	-0.653359	-1.057392	-0.038497
C71	C	-0.320025	-0.724058	0.294836
C72	C	0.013308	-0.390725	0.628170
C73	C	-0.609782	-1.003095	-0.092595
C74	C	-0.276448	-0.669762	0.240738
C75	C	0.056885	-0.336429	0.574072
C76	C	-0.479255	-0.956312	-0.139207
C77	C	-0.145922	-0.622978	0.194127
C78	C	0.187412	-0.289645	0.527460
C79	C	-0.520662	-1.007896	-0.087824
C80	C	-0.187328	-0.674562	0.245510
C81	C	0.146005	-0.341229	0.578843
N82	N	0.215842	-0.993713	-0.101926
N83	N	0.549176	-0.660380	0.231407
N84	N	0.882509	-0.327046	0.564740
C85	C	0.000050	-1.134104	-0.107401
C86	C	0.333383	-0.800771	0.225932
C87	C	0.666717	-0.467437	0.559265
C88	C	0.000049	-1.226399	-0.109016
C89	C	0.333383	-0.893066	0.224317
C90	C	0.666716	-0.559733	0.557650
C91	C	0.000034	-0.515524	-0.190016
C92	C	0.333368	-0.182190	0.143317
C93	C	0.666701	0.151143	0.476650
C94	C	0.000040	-0.428804	-0.188492
C95	C	0.333373	-0.095470	0.144841
C96	C	0.666706	0.237863	0.478175
C97	C	0.000047	-0.448678	-0.037003
C98	C	0.333381	-0.115345	0.296330
C99	C	0.666714	0.217988	0.629664
C100	C	0.000048	-0.535397	-0.038528
C101	C	0.333381	-0.202064	0.294805
C102	C	0.666715	0.131270	0.628139
C103	C	0.000037	-0.568817	-0.115037
C104	C	0.333370	-0.235484	0.218296
C105	C	0.666704	0.097850	0.551629
C106	C	0.000042	-0.395378	-0.111988
C107	C	0.333375	-0.062045	0.221345
C108	C	0.666709	0.271289	0.554679
C109	C	0.000048	-0.301352	-0.110335
C110	C	0.333381	0.031981	0.222999
C111	C	0.666715	0.365314	0.556332
C112	C	0.000033	-0.662849	-0.116691
C113	C	0.333366	-0.329515	0.216642
C114	C	0.666699	0.003818	0.549976
C115	C	0.000032	-0.975986	-0.265519
C116	C	0.333366	-0.642653	0.067814
C117	C	0.666699	-0.309319	0.401148
C118	C	0.000026	-0.977601	-0.357815
C119	C	0.333359	-0.644268	-0.024481
C120	C	0.666692	-0.310934	0.308852
C121	C	0.000044	-1.058601	0.353061
C122	C	0.333378	-0.725268	0.686394
C123	C	0.666711	-0.391935	1.019728
C124	C	0.000038	-1.057077	0.439781
C125	C	0.333371	-0.723744	0.773115
C126	C	0.666704	-0.390410	1.106448
C127	C	0.000032	-0.905588	0.419907
C128	C	0.333366	-0.572255	0.753240
C129	C	0.666699	-0.238921	1.086573
C130	C	0.000033	-0.907113	0.333188
C131	C	0.333367	-0.573779	0.666521
C132	C	0.666700	-0.240446	0.999855
C133	C	0.000044	-0.983622	0.299768
C134	C	0.333377	-0.650289	0.633101
C135	C	0.666710	-0.316956	0.966435
C136	C	0.000036	-0.980573	0.473207
C137	C	0.333369	-0.647239	0.806540
C138	C	0.666702	-0.313906	1.139873
C139	C	0.000028	-0.978919	0.567232
C140	C	0.333361	-0.645586	0.900566
C141	C	0.666695	-0.312253	1.233899
C142	C	0.000050	-0.985276	0.205736
C143	C	0.333383	-0.651943	0.539070
C144	C	0.666716	-0.318609	0.872403
H145	H	-0.223833	-1.072819	-0.023152
H146	H	0.109500	-0.739485	0.310181
H147	H	0.442834	-0.406152	0.643515
H148	H	-0.776037	-1.096914	0.000880
H149	H	-0.442703	-0.763580	0.334213
H150	H	-0.109370	-0.430247	0.667547
H151	H	0.000051	-1.120900	0.325854
H152	H	0.333384	-0.787567	0.659187
H153	H	0.666718	-0.454233	0.992520
Cl154	Cl	0.000020	-0.809410	0.461927
Cl155	Cl	0.333353	-0.476077	0.795260
Cl156	Cl	0.666686	-0.142743	1.128593
Cl157	Cl	0.000037	-0.361809	-0.282756
Cl158	Cl	0.333371	-0.028476	0.050577
Cl159	Cl	0.666704	0.304857	0.383910
H160	H	0.000036	-1.118132	0.483170
H161	H	0.333370	-0.784799	0.816503
H162	H	0.666703	-0.451466	1.149836
H163	H	-0.514769	-0.908279	-0.187047
H164	H	-0.181436	-0.574946	0.146286
H165	H	0.151898	-0.241612	0.479619
H166	H	0.000030	-0.846052	0.289794
H167	H	0.333363	-0.512719	0.623127
H168	H	0.666697	-0.179385	0.956460
H169	H	-0.776082	-0.891375	-0.203866
H170	H	-0.442749	-0.558042	0.129467
H171	H	-0.109416	-0.224709	0.462800
H172	H	-0.382005	-1.064311	-0.031631
H173	H	-0.048672	-0.730978	0.301703
H174	H	0.284662	-0.397644	0.635036
H175	H	-0.223880	-0.867288	-0.227906
H176	H	0.109453	-0.533954	0.105428
H177	H	0.442787	-0.200621	0.438761
H178	H	-0.617912	-0.899895	-0.195401
H179	H	-0.284578	-0.566561	0.137932
H180	H	0.048755	-0.233228	0.471266
Cl181	Cl	-0.598535	-1.131551	0.035372
Cl182	Cl	-0.265202	-0.798217	0.368705
Cl183	Cl	0.068132	-0.464884	0.702038
Cl184	Cl	0.000058	-0.602400	0.055740
Cl185	Cl	0.333391	-0.269067	0.389073
Cl186	Cl	0.666725	0.064267	0.722407
H187	H	-0.382061	-0.858779	-0.236373
H188	H	-0.048727	-0.525446	0.096960
H189	H	0.284606	-0.192113	0.430293
H190	H	-0.485152	-1.055929	-0.039986
H191	H	-0.151819	-0.722595	0.293348
H192	H	0.181514	-0.389262	0.626681
H193	H	0.000032	-0.542731	-0.252315
H194	H	0.333365	-0.209398	0.081018
H195	H	0.666698	0.123935	0.414352
H196	H	0.000061	-0.421457	0.025289
H197	H	0.333395	-0.088124	0.358622
H198	H	0.666728	0.245209	0.691955
