data_functionalizedCrystal
_audit_creation_method	'MofGen! by Chris Wilmer'
_symmetry_space_group_name_H-M	'P1'
_symmetry_Int_Tables_number	1
_symmetry_cell_setting	triclinic
loop_
_symmetry_equiv_pos_as_xyz
  x,y,z
_cell_length_a	11.026607
_cell_length_b	11.026607
_cell_length_c	10.065875
_cell_angle_alpha	100.714830
_cell_angle_beta	79.285340
_cell_angle_gamma	108.586017
loop_
_atom_site_label
_atom_site_type_symbol
_atom_site_fract_x
_atom_site_fract_y
_atom_site_fract_z
O1	O	1.741330	0.519010	-0.113490
O2	O	1.374751	0.458246	-0.113493
O3	O	1.527658	0.305339	-0.113487
O4	O	1.588423	0.671917	-0.113496
O5	O	1.498445	0.334557	0.113501
O6	O	1.345538	0.487465	0.113495
O7	O	1.712117	0.548229	0.113497
Zn8	Zn	1.524189	0.522486	0.149535
Zn9	Zn	1.562679	0.483989	-0.149531
O10	O	1.559210	0.701136	0.113491
C11	C	1.312485	0.461645	0.000001
C12	C	1.170471	0.428228	0.000000
C13	C	1.116822	0.520498	-0.000003
C14	C	0.970043	0.485962	-0.000004
C15	C	1.501842	0.272288	0.000005
C16	C	1.468426	0.130273	0.000000
C17	C	1.560695	0.076624	-0.000001
C18	C	1.526160	-0.070155	-0.000006
C19	C	1.774384	0.544829	0.000001
C20	C	1.916399	0.578244	-0.000007
C21	C	1.585026	0.734186	-0.000004
C22	C	1.618444	0.876199	-0.000008
N23	N	1.497930	0.548760	0.353640
N24	N	1.588946	0.457707	-0.353635
C25	C	1.533343	0.513346	0.578584
C26	C	1.553541	0.493113	0.421417
H27	H	0.979125	0.682816	-0.000001
F28	F	0.888055	0.349282	0.000008
F29	F	1.198812	0.657172	-0.000002
F30	F	1.088479	0.291556	0.000013
F31	F	1.697371	0.158614	-0.000008
F32	F	1.389481	-0.152144	-0.000020
F33	F	1.755127	-0.041817	-0.000013
H34	H	1.363864	0.067539	-0.000009
F35	F	1.670706	0.375856	0.570137
F36	F	1.451568	0.595182	0.654809
F37	F	1.635305	0.411258	0.345195
F38	F	1.416151	0.630600	0.429863
