data_functionalizedCrystal
_audit_creation_method	'MofGen! by Chris Wilmer'
_symmetry_space_group_name_H-M	'P1'
_symmetry_Int_Tables_number	1
_symmetry_cell_setting	triclinic
loop_
_symmetry_equiv_pos_as_xyz
  x,y,z
_cell_length_a	12.827892
_cell_length_b	11.169417
_cell_length_c	11.169409
_cell_angle_alpha	90.019824
_cell_angle_beta	89.966915
_cell_angle_gamma	89.983920
loop_
_atom_site_label
_atom_site_type_symbol
_atom_site_fract_x
_atom_site_fract_y
_atom_site_fract_z
Zn1	Zn	-0.415924	-1.834922	-0.678536
Zn2	Zn	-0.082591	-1.501588	-0.345203
Zn3	Zn	0.250743	-1.168255	-0.011870
Zn4	Zn	-0.590711	-1.834794	-0.477851
Zn5	Zn	-0.257378	-1.501461	-0.144517
Zn6	Zn	0.075955	-1.168127	0.188816
Zn7	Zn	-0.415988	-1.634208	-0.477871
Zn8	Zn	-0.082654	-1.300874	-0.144538
Zn9	Zn	0.250679	-0.967541	0.188796
Zn10	Zn	-0.590626	-1.634198	-0.678496
Zn11	Zn	-0.257293	-1.300865	-0.345162
Zn12	Zn	0.076040	-0.967531	-0.011829
O13	O	-0.503312	-1.734530	-0.578188
O14	O	-0.169979	-1.401197	-0.244855
O15	O	0.163354	-1.067864	0.088478
O16	O	-0.439119	-2.002855	-0.651924
O17	O	-0.105785	-1.669521	-0.318590
O18	O	0.227548	-1.336188	0.014743
O19	O	-0.567596	-1.808136	-0.309904
O20	O	-0.234263	-1.474803	0.023430
O21	O	0.099071	-1.141470	0.356763
O22	O	-0.269743	-1.660890	-0.504515
O23	O	0.063590	-1.327557	-0.171182
O24	O	0.396924	-0.994224	0.162152
O25	O	-0.567534	-2.002761	-0.504481
O26	O	-0.234201	-1.669427	-0.171148
O27	O	0.099132	-1.336094	0.162186
O28	O	-0.269696	-1.808354	-0.651943
O29	O	0.063637	-1.475021	-0.318610
O30	O	0.396970	-1.141687	0.014723
O31	O	-0.439227	-1.660766	-0.309918
O32	O	-0.105894	-1.327433	0.023415
O33	O	0.227439	-0.994100	0.356748
O34	O	-0.439145	-1.466257	-0.504475
O35	O	-0.105812	-1.132923	-0.171142
O36	O	0.227522	-0.799590	0.162191
O37	O	-0.567389	-1.660874	-0.846451
O38	O	-0.234056	-1.327541	-0.513118
O39	O	0.099277	-0.994207	-0.179784
O40	O	-0.567451	-1.466250	-0.651874
O41	O	-0.234118	-1.132916	-0.318540
O42	O	0.099216	-0.799583	0.014793
O43	O	-0.439036	-1.808345	-0.846481
O44	O	-0.105703	-1.475011	-0.513148
O45	O	0.227630	-1.141678	-0.179814
O46	O	-0.736936	-1.808127	-0.504441
O47	O	-0.403603	-1.474794	-0.171108
O48	O	-0.070269	-1.141461	0.162225
O49	O	-0.736874	-1.660750	-0.651854
O50	O	-0.403540	-1.327417	-0.318521
O51	O	-0.070207	-0.994084	0.014812
C52	C	-0.503296	-1.422706	-0.578173
C53	C	-0.169963	-1.089372	-0.244840
C54	C	0.163370	-0.756039	0.088494
C55	C	-0.503315	-1.289306	-0.578195
C56	C	-0.169982	-0.955972	-0.244862
C57	C	0.163352	-0.622639	0.088472
C58	C	-0.774822	-1.734456	-0.578167
C59	C	-0.441489	-1.401123	-0.244834
C60	C	-0.108156	-1.067790	0.088499
C61	C	-0.890975	-1.734535	-0.578198
C62	C	-0.557642	-1.401201	-0.244865
C63	C	-0.224309	-1.067868	0.088468
C64	C	-0.503196	-1.734623	-0.891231
C65	C	-0.169863	-1.401289	-0.557898
C66	C	0.163470	-1.067956	-0.224564
C67	C	-0.503147	-1.734662	-1.024631
C68	C	-0.169813	-1.401329	-0.691298
C69	C	0.163520	-1.067995	-0.357964
C70	C	-1.062698	-1.807551	-0.651246
C71	C	-0.729364	-1.474217	-0.317913
C72	C	-0.396031	-1.140884	0.015420
C73	C	-0.942648	-1.807472	-0.651216
C74	C	-0.609314	-1.474138	-0.317883
C75	C	-0.275981	-1.140805	0.015451
C76	C	-0.230742	-1.734637	-0.578236
C77	C	0.102591	-1.401304	-0.244903
C78	C	0.435925	-1.067971	0.088431
C79	C	-0.114589	-1.734683	-0.578256
C80	C	0.218744	-1.401350	-0.244923
C81	C	0.552078	-1.068016	0.088410
C82	C	-0.503329	-2.047573	-0.578205
C83	C	-0.169996	-1.714239	-0.244871
C84	C	0.163338	-1.380906	0.088462
C85	C	-0.503336	-2.180973	-0.578212
C86	C	-0.170003	-1.847639	-0.244878
C87	C	0.163331	-1.514306	0.088455
C88	C	-0.503352	-1.734508	-0.266364
C89	C	-0.170019	-1.401174	0.066970
C90	C	0.163314	-1.067841	0.400303
C91	C	-0.503108	-1.734701	-0.132964
C92	C	-0.169774	-1.401368	0.200369
C93	C	0.163559	-1.068034	0.533702
H94	H	-1.107149	-1.869999	-0.713754
H95	H	-0.773815	-1.536665	-0.380420
H96	H	-0.440482	-1.203332	-0.047087
H97	H	-1.070139	-1.672244	-0.515739
H98	H	-0.736806	-1.338911	-0.182406
H99	H	-0.403473	-1.005577	0.150928
H100	H	-0.898024	-1.869852	-0.713711
H101	H	-0.564690	-1.536519	-0.380377
H102	H	-0.231357	-1.203186	-0.047044
H103	H	-0.935593	-1.672141	-0.515711
H104	H	-0.602260	-1.338808	-0.182378
H105	H	-0.268927	-1.005474	0.150955
