data_functionalizedCrystal
_audit_creation_method	'MofGen! by Chris Wilmer'
_symmetry_space_group_name_H-M	'P1'
_symmetry_Int_Tables_number	1
_symmetry_cell_setting	triclinic
loop_
_symmetry_equiv_pos_as_xyz
  x,y,z
_cell_length_a	10.723024
_cell_length_b	12.837942
_cell_length_c	9.798715
_cell_angle_alpha	89.997407
_cell_angle_beta	89.996609
_cell_angle_gamma	89.648405
loop_
_atom_site_label
_atom_site_type_symbol
_atom_site_fract_x
_atom_site_fract_y
_atom_site_fract_z
O1	O	1.672991	0.145513	-0.113481
O2	O	1.311352	0.159441	-0.113486
O3	O	1.484153	0.001517	-0.113475
O4	O	1.500190	0.303437	-0.113492
O5	O	1.484138	0.001517	0.113507
O6	O	1.311337	0.159441	0.113496
O7	O	1.672977	0.145512	0.113501
Zn8	Zn	1.492155	0.152477	0.149537
Zn9	Zn	1.492174	0.152477	-0.149522
O10	O	1.500176	0.303436	0.113490
C11	C	1.264735	0.158427	0.000004
C12	C	1.125851	0.155395	0.000003
C13	C	1.060466	0.243761	-0.000003
C14	C	0.916922	0.240629	-0.000004
C15	C	1.478728	-0.037142	0.000015
C16	C	1.462569	-0.152334	0.000012
C17	C	1.656825	-0.391911	-0.000014
C18	C	1.641648	-0.500145	-0.000016
C19	C	1.417040	-0.477037	-0.000005
C20	C	1.432217	-0.368804	-0.000002
C21	C	1.552113	-0.326245	-0.000005
C22	C	1.567289	-0.218009	0.000008
C23	C	1.342681	-0.194904	0.000009
C24	C	1.327505	-0.303137	0.000007
C25	C	1.719594	0.146526	0.000007
C26	C	1.858478	0.149559	-0.000000
C27	C	1.505601	0.342096	-0.000003
C28	C	1.521760	0.457288	-0.000010
N29	N	1.492151	0.152476	0.353636
N30	N	1.492187	0.152470	-0.353622
C31	C	1.564674	0.085875	0.421418
C32	C	1.564693	0.085872	0.578581
H33	H	1.110757	0.321733	0.000001
H34	H	1.430099	0.209496	0.588098
Cl35	Cl	0.830135	0.357430	-0.000023
H36	H	1.626788	0.028856	0.636869
H37	H	1.726916	-0.553607	-0.000028
Cl38	Cl	0.945257	0.032753	-0.000003
Cl39	Cl	1.807547	-0.338404	0.000017
Cl40	Cl	1.048217	0.035005	0.000019
H41	H	1.664914	-0.183360	0.000011
H42	H	1.319426	-0.511708	-0.000018
H43	H	1.430071	0.209488	0.411957
Cl44	Cl	1.660208	-0.002392	0.331385
H45	H	1.257417	-0.141426	0.000027
H46	H	1.229888	-0.337804	0.000003
