data_functionalizedCrystal
_audit_creation_method	'MofGen! by Chris Wilmer'
_symmetry_space_group_name_H-M	'P1'
_symmetry_Int_Tables_number	1
_symmetry_cell_setting	triclinic
loop_
_symmetry_equiv_pos_as_xyz
  x,y,z
_cell_length_a	21.295417
_cell_length_b	16.120490
_cell_length_c	16.120297
_cell_angle_alpha	89.870317
_cell_angle_beta	87.132998
_cell_angle_gamma	87.122615
loop_
_atom_site_label
_atom_site_type_symbol
_atom_site_fract_x
_atom_site_fract_y
_atom_site_fract_z
Zn1	Zn	-0.318966	1.247397	0.534493
Zn2	Zn	-0.068966	1.497397	0.784493
Zn3	Zn	0.181034	1.747397	1.034493
Zn4	Zn	0.431034	1.997397	1.284493
Zn5	Zn	-0.419176	1.254333	0.395422
Zn6	Zn	-0.169176	1.504333	0.645422
Zn7	Zn	0.080824	1.754333	0.895422
Zn8	Zn	0.330824	2.004333	1.145422
Zn9	Zn	-0.308324	1.115389	0.388416
Zn10	Zn	-0.058324	1.365389	0.638416
Zn11	Zn	0.191676	1.615389	0.888416
Zn12	Zn	0.441676	1.865389	1.138416
Zn13	Zn	-0.418591	1.108288	0.527395
Zn14	Zn	-0.168591	1.358288	0.777395
Zn15	Zn	0.081409	1.608288	1.027395
Zn16	Zn	0.331409	1.858288	1.277395
O17	O	-0.366264	1.181352	0.461432
O18	O	-0.116264	1.431352	0.711432
O19	O	0.133736	1.681352	0.961432
O20	O	0.383736	1.931352	1.211432
O21	O	-0.336958	1.364683	0.521948
O22	O	-0.086958	1.614683	0.771948
O23	O	0.163042	1.864683	1.021948
O24	O	0.413042	2.114683	1.271948
O25	O	-0.400263	1.241775	0.278128
O26	O	-0.150263	1.491775	0.528128
O27	O	0.099737	1.741775	0.778128
O28	O	0.349737	1.991775	1.028128
O29	O	-0.221650	1.132969	0.407831
O30	O	0.028350	1.382969	0.657831
O31	O	0.278350	1.632969	0.907831
O32	O	0.528350	1.882969	1.157831
O33	O	-0.410582	1.369779	0.419773
O34	O	-0.160582	1.619779	0.669773
O35	O	0.089418	1.869779	0.919773
O36	O	0.339418	2.119779	1.169773
O37	O	-0.229469	1.229955	0.515154
O38	O	0.020531	1.479955	0.765154
O39	O	0.270531	1.729955	1.015154
O40	O	0.520531	1.979955	1.265154
O41	O	-0.318820	1.139694	0.272980
O42	O	-0.068820	1.389694	0.522980
O43	O	0.181180	1.639694	0.772980
O44	O	0.431180	1.889694	1.022980
O45	O	-0.318252	0.998081	0.400949
O46	O	-0.068252	1.248081	0.650949
O47	O	0.181748	1.498081	0.900949
O48	O	0.431748	1.748081	1.150949
O49	O	-0.409584	1.120867	0.644702
O50	O	-0.159584	1.370867	0.894702
O51	O	0.090416	1.620867	1.144702
O52	O	0.340416	1.870867	1.394702
O53	O	-0.399264	0.992864	0.503057
O54	O	-0.149264	1.242864	0.753057
O55	O	0.100736	1.492864	1.003057
O56	O	0.350736	1.742864	1.253057
O57	O	-0.336391	1.223070	0.649917
O58	O	-0.086391	1.473070	0.899917
O59	O	0.163609	1.723070	1.149917
O60	O	0.413609	1.973070	1.399917
O61	O	-0.507184	1.234890	0.412891
O62	O	-0.257184	1.484890	0.662891
O63	O	-0.007184	1.734890	0.912891
O64	O	0.242816	1.984890	1.162891
O65	O	-0.506754	1.127592	0.509851
O66	O	-0.256754	1.377592	0.759851
O67	O	-0.006754	1.627592	1.009851
O68	O	0.243246	1.877592	1.259851
C69	C	-0.357540	0.965300	0.450473
C70	C	-0.107540	1.215300	0.700473
C71	C	0.142460	1.465300	0.950473
C72	C	0.392460	1.715300	1.200473
C73	C	-0.353824	0.872871	0.445804
C74	C	-0.103824	1.122871	0.695804
C75	C	0.146176	1.372871	0.945804
C76	C	0.396176	1.622871	1.195804
C77	C	-0.385537	0.659904	0.485650
C78	C	-0.135537	0.909904	0.735650
C79	C	0.114463	1.159904	0.985650
C80	C	0.364463	1.409904	1.235650
C81	C	-0.347045	0.703647	0.437279
C82	C	-0.097045	0.953647	0.687279
C83	C	0.152955	1.203647	0.937279
C84	C	0.402955	1.453647	1.187279
C85	C	-0.350818	0.797812	0.442024
C86	C	-0.100818	1.047812	0.692024
C87	C	0.149182	1.297812	0.942024
C88	C	0.399182	1.547812	1.192024
C89	C	-0.381764	0.565731	0.480906
C90	C	-0.131764	0.815731	0.730906
C91	C	0.118236	1.065731	0.980906
C92	C	0.368236	1.315731	1.230906
C93	C	-0.529810	1.181245	0.461380
C94	C	-0.279810	1.431245	0.711380
C95	C	-0.029810	1.681245	0.961380
C96	C	0.220190	1.931245	1.211380
C97	C	-0.599779	1.181274	0.461390
C98	C	-0.349779	1.431274	0.711390
C99	C	-0.099779	1.681274	0.961390
C100	C	0.150221	1.931274	1.211390
C101	C	-0.632853	1.237189	0.410960
C102	C	-0.382853	1.487189	0.660960
C103	C	-0.132853	1.737189	0.910960
C104	C	0.117147	1.987189	1.160960
C105	C	-0.698598	1.237227	0.410980
C106	C	-0.448598	1.487227	0.660980
C107	C	-0.198598	1.737227	0.910980
C108	C	0.051402	1.987227	1.160980
C109	C	-0.731265	1.181336	0.461422
C110	C	-0.481265	1.431336	0.711422
C111	C	-0.231265	1.681336	0.961422
C112	C	0.018735	1.931336	1.211422
C113	C	-0.698184	1.125417	0.511862
C114	C	-0.448184	1.375417	0.761862
C115	C	-0.198184	1.625417	1.011862
C116	C	0.051816	1.875417	1.261862
C117	C	-0.632441	1.125386	0.511846
C118	C	-0.382441	1.375386	0.761846
C119	C	-0.132441	1.625386	1.011846
C120	C	0.117559	1.875386	1.261846
N121	N	-0.831828	1.108270	0.464071
N122	N	-0.581828	1.358270	0.714071
N123	N	-0.331828	1.608270	0.964071
N124	N	-0.081828	1.858270	1.214071
N125	N	-0.894281	1.108302	0.464081
N126	N	-0.644281	1.358302	0.714081
N127	N	-0.394281	1.608302	0.964081
N128	N	-0.144281	1.858302	1.214081
C129	C	-0.929346	1.181426	0.461474
C130	C	-0.679346	1.431426	0.711474
C131	C	-0.429346	1.681426	0.961474
C132	C	-0.179346	1.931426	1.211474
N133	N	-0.899597	1.254520	0.458840
N134	N	-0.649597	1.504520	0.708840
N135	N	-0.399597	1.754520	0.958840
N136	N	-0.149597	2.004520	1.208840
N137	N	-0.837138	1.254488	0.458825
N138	N	-0.587138	1.504488	0.708825
N139	N	-0.337138	1.754488	0.958825
N140	N	-0.087138	2.004488	1.208825
C141	C	-0.802553	1.181363	0.461445
C142	C	-0.552553	1.431363	0.711445
C143	C	-0.302553	1.681363	0.961445
C144	C	-0.052553	1.931363	1.211445
C145	C	-1.033707	1.237387	0.411064
C146	C	-0.783707	1.487387	0.661064
C147	C	-0.533707	1.737387	0.911064
C148	C	-0.283707	1.987387	1.161064
C149	C	-1.099454	1.237426	0.411090
C150	C	-0.849454	1.487426	0.661090
C151	C	-0.599454	1.737426	0.911090
C152	C	-0.349454	1.987426	1.161090
C153	C	-1.099038	1.125609	0.511967
C154	C	-0.849038	1.375609	0.761967
C155	C	-0.599038	1.625609	1.011967
C156	C	-0.349038	1.875609	1.261967
C157	C	-1.033294	1.125577	0.511945
C158	C	-0.783294	1.375577	0.761945
C159	C	-0.533294	1.625577	1.011945
C160	C	-0.283294	1.875577	1.261945
C161	C	-1.000632	1.181465	0.461489
C162	C	-0.750632	1.431465	0.711489
C163	C	-0.500632	1.681465	0.961489
C164	C	-0.250632	1.931465	1.211489
C165	C	-0.202082	1.181481	0.461503
C166	C	0.047918	1.431481	0.711503
C167	C	0.297918	1.681481	0.961503
C168	C	0.547918	1.931481	1.211503
C169	C	-0.132117	1.181535	0.461533
C170	C	0.117883	1.431535	0.711533
C171	C	0.367883	1.681535	0.961533
C172	C	0.617883	1.931535	1.211533
C173	C	-0.374109	1.170403	0.678325
C174	C	-0.124109	1.420403	0.928325
C175	C	0.125891	1.670403	1.178325
C176	C	0.375891	1.920403	1.428325
C177	C	-0.377452	1.165738	0.770752
C178	C	-0.127452	1.415738	1.020752
C179	C	0.122548	1.665738	1.270752
C180	C	0.372548	1.915738	1.520752
C181	C	-0.375023	1.398247	0.472434
C182	C	-0.125023	1.648247	0.722434
C183	C	0.124977	1.898247	0.972434
C184	C	0.374977	2.148247	1.222434
C185	C	-0.378755	1.490675	0.477122
C186	C	-0.128755	1.740675	0.727122
C187	C	0.121245	1.990675	0.977122
C188	C	0.371245	2.240675	1.227122
C189	C	-0.358406	1.192305	0.245385
C190	C	-0.108406	1.442305	0.495385
C191	C	0.141594	1.692305	0.745385
C192	C	0.391594	1.942305	0.995385
C193	C	-0.354893	1.197132	0.152966
C194	C	-0.104893	1.447132	0.402966
C195	C	0.145107	1.697132	0.652966
C196	C	0.395107	1.947132	0.902966
C197	C	-0.383540	1.157189	0.939976
C198	C	-0.133540	1.407189	1.189976
C199	C	0.116460	1.657189	1.439976
C200	C	0.366460	1.907189	1.689976
C201	C	-0.348806	1.205678	0.983747
C202	C	-0.098806	1.455678	1.233747
C203	C	0.151194	1.705678	1.483747
C204	C	0.401194	1.955678	1.733747
C205	C	-0.352194	1.200922	1.077909
C206	C	-0.102194	1.450922	1.327909
C207	C	0.147806	1.700922	1.577909
C208	C	0.397806	1.950922	1.827909
C209	C	-0.380154	1.161944	0.845806
C210	C	-0.130154	1.411944	1.095806
C211	C	0.119846	1.661944	1.345806
C212	C	0.369846	1.911944	1.595806
H213	H	-0.311257	0.670377	0.392305
H214	H	-0.061257	0.920377	0.642305
H215	H	0.188743	1.170377	0.892305
H216	H	0.438743	1.420377	1.142305
Br217	Br	-0.587552	1.049497	0.580294
Br218	Br	-0.337552	1.299497	0.830294
Br219	Br	-0.087552	1.549497	1.080294
Br220	Br	0.162448	1.799497	1.330294
Br221	Br	-1.144342	1.313325	0.342652
Br222	Br	-0.894342	1.563325	0.592652
Br223	Br	-0.644342	1.813325	0.842652
Br224	Br	-0.394342	2.063325	1.092652
Br225	Br	-0.437344	1.082050	0.995383
Br226	Br	-0.187344	1.332050	1.245383
Br227	Br	0.062656	1.582050	1.495383
Br228	Br	0.312656	1.832050	1.745383
H229	H	-0.725532	1.282762	0.369914
H230	H	-0.475532	1.532762	0.619914
H231	H	-0.225532	1.782762	0.869914
H232	H	0.024468	2.032762	1.119914
Br233	Br	-0.295016	1.280844	0.928344
Br234	Br	-0.045016	1.530844	1.178344
Br235	Br	0.204984	1.780844	1.428344
Br236	Br	0.454984	2.030844	1.678344
Br237	Br	-1.143366	1.049763	0.580434
Br238	Br	-0.893366	1.299763	0.830434
Br239	Br	-0.643366	1.549763	1.080434
Br240	Br	-0.393366	1.799763	1.330434
H241	H	-0.421322	0.693172	0.530620
H242	H	-0.171322	0.943172	0.780620
H243	H	0.078678	1.193172	1.030620
H244	H	0.328678	1.443172	1.280620
Br245	Br	-0.742517	1.049570	0.580326
Br246	Br	-0.492517	1.299570	0.830326
Br247	Br	-0.242517	1.549570	1.080326
Br248	Br	0.007483	1.799570	1.330326
Br249	Br	-0.989377	1.313230	0.342587
Br250	Br	-0.739377	1.563230	0.592587
Br251	Br	-0.489377	1.813230	0.842587
Br252	Br	-0.239377	2.063230	1.092587
Br253	Br	-0.988404	1.049687	0.580388
Br254	Br	-0.738404	1.299687	0.830388
Br255	Br	-0.488404	1.549687	1.080388
Br256	Br	-0.238404	1.799687	1.330388
Br257	Br	-0.588530	1.313047	0.342496
Br258	Br	-0.338530	1.563047	0.592496
Br259	Br	-0.088530	1.813047	0.842496
Br260	Br	0.161470	2.063047	1.092496
