data_functionalizedCrystal
_audit_creation_method	'MofGen! by Chris Wilmer'
_symmetry_space_group_name_H-M	'P1'
_symmetry_Int_Tables_number	1
_symmetry_cell_setting	triclinic
loop_
_symmetry_equiv_pos_as_xyz
  x,y,z
_cell_length_a	19.077115
_cell_length_b	13.897448
_cell_length_c	19.076919
_cell_angle_alpha	92.272955
_cell_angle_beta	90.076897
_cell_angle_gamma	87.714091
loop_
_atom_site_label
_atom_site_type_symbol
_atom_site_fract_x
_atom_site_fract_y
_atom_site_fract_z
Zn1	Zn	1.058310	-0.466652	-0.440412
Zn2	Zn	1.062963	-0.621745	-0.322908
Zn3	Zn	0.945526	-0.453730	-0.318207
Zn4	Zn	0.940785	-0.621163	-0.435662
O5	O	1.001896	-0.540822	-0.379297
O6	O	1.157259	-0.492876	-0.428781
O7	O	1.051317	-0.594293	-0.223953
O8	O	0.960525	-0.320466	-0.334438
O9	O	1.160678	-0.606823	-0.342451
O10	O	1.043386	-0.329959	-0.424222
O11	O	0.965037	-0.470853	-0.220499
O12	O	0.846565	-0.470289	-0.329832
O13	O	0.952443	-0.605831	-0.534623
O14	O	0.843081	-0.593302	-0.416126
O15	O	1.038788	-0.492312	-0.538114
O16	O	1.046719	-0.756646	-0.337844
O17	O	0.956955	-0.756219	-0.420684
C18	C	0.819327	-0.530331	-0.371954
C19	C	0.741222	-0.525867	-0.368829
C20	C	1.001845	-0.791433	-0.379275
C21	C	1.001887	-0.898650	-0.379291
C22	C	0.301769	-0.493806	-0.346423
C23	C	0.375156	-0.498007	-0.349363
C24	C	0.410055	-0.564250	-0.395688
C25	C	0.371563	-0.626291	-0.439082
C26	C	0.298176	-0.622086	-0.436145
C27	C	0.629344	-0.583702	-0.409285
C28	C	0.702735	-0.587905	-0.412217
C29	C	0.706324	-0.459618	-0.322499
C30	C	0.632936	-0.455423	-0.319563
C31	C	0.594450	-0.517460	-0.362959
N32	N	0.485069	-0.568547	-0.398693
N33	N	0.519437	-0.513158	-0.359958
C34	C	1.001959	-1.094952	-0.379338
C35	C	1.001917	-0.985715	-0.379314
C36	C	1.185178	-0.551356	-0.386670
C37	C	1.263282	-0.555844	-0.389812
C38	C	0.994567	-0.550448	-0.562578
C39	C	0.991444	-0.554550	-0.640681
C40	C	1.001965	-0.289235	-0.379336
C41	C	1.001995	-0.182024	-0.379352
C42	C	1.034930	-0.497377	-0.679192
C43	C	1.031987	-0.501227	-0.752578
C44	C	0.985561	-0.562256	-0.787451
C45	C	0.942071	-0.619432	-0.748935
C46	C	0.945011	-0.615576	-0.675550
C47	C	0.971945	-0.580121	-1.006733
C48	C	0.969010	-0.583974	-1.080123
C49	C	1.058926	-0.465768	-1.083761
C50	C	1.061864	-0.461922	-1.010375
C51	C	1.018371	-0.519093	-0.971865
N52	N	0.982554	-0.566195	-0.862464
N53	N	1.021376	-0.515149	-0.896854
C54	C	1.009236	-0.531167	-0.196731
C55	C	1.012496	-0.526801	-0.118634
H56	H	0.273360	-0.439864	-0.308699
O57	O	0.897033	-0.678693	-0.782920
C58	C	0.852624	-0.736979	-0.894357
C59	C	0.903673	-0.669838	-0.855961
H60	H	0.857964	-0.729828	-0.953416
H61	H	0.865517	-0.814732	-0.880464
H62	H	0.796556	-0.716031	-0.877606
H63	H	0.959758	-0.690698	-0.872690
H64	H	0.890719	-0.592102	-0.869854
H65	H	0.931202	-0.633674	-1.108515
O66	O	0.902751	-0.671223	-0.638246
C67	C	0.813244	-0.788856	-0.642377
C68	C	0.861075	-0.725900	-0.684709
H69	H	0.779527	-0.833064	-0.679924
H70	H	0.846842	-0.839400	-0.609335
H71	H	0.777919	-0.740651	-0.606524
H72	H	0.896409	-0.774030	-0.720600
H73	H	0.827435	-0.675348	-0.717705
H74	H	0.406490	-0.447493	-0.314028
O75	O	0.599147	-0.390983	-0.274547
C76	C	0.610455	-0.264222	-0.185841
C77	C	0.648809	-0.337134	-0.236803
H78	H	0.650590	-0.220679	-0.155301
H79	H	0.574842	-0.213522	-0.216762
H80	H	0.577532	-0.304541	-0.147695
H81	H	0.681769	-0.296896	-0.274960
H82	H	0.684379	-0.387832	-0.205837
H83	H	0.737667	-0.409110	-0.287169
O84	O	0.736748	-0.652229	-0.457160
C85	C	0.848215	-0.715522	-0.501463
C86	C	0.809784	-0.642648	-0.450529
H87	H	0.907270	-0.707787	-0.496130
H88	H	0.834316	-0.791817	-0.488447
H89	H	0.831499	-0.700866	-0.557561
H90	H	0.826479	-0.657215	-0.394414
H91	H	0.823684	-0.566376	-0.463606
H92	H	1.094334	-0.419220	-1.115124
H93	H	0.598017	-0.634220	-0.444619
O94	O	0.405572	-0.690613	-0.484021
C95	C	0.517033	-0.753913	-0.528334
C96	C	0.478609	-0.681035	-0.477398
H97	H	0.576090	-0.746181	-0.523007
H98	H	0.503134	-0.830207	-0.515315
H99	H	0.500313	-0.739259	-0.584431
H100	H	0.495309	-0.695601	-0.421284
H101	H	0.492509	-0.604765	-0.490478
H102	H	0.266841	-0.672601	-0.471478
H103	H	1.072737	-0.447683	-0.650804
H104	H	1.067400	-0.454673	-0.783931
H105	H	0.936540	-0.626689	-0.975387
H106	H	1.099671	-0.412228	-0.981986
