data_functionalizedCrystal
_audit_creation_method	'MofGen! by Chris Wilmer'
_symmetry_space_group_name_H-M	'P1'
_symmetry_Int_Tables_number	1
_symmetry_cell_setting	triclinic
loop_
_symmetry_equiv_pos_as_xyz
  x,y,z
_cell_length_a	14.971486
_cell_length_b	14.971486
_cell_length_c	13.448316
_cell_angle_alpha	89.997108
_cell_angle_beta	90.000041
_cell_angle_gamma	83.614129
loop_
_atom_site_label
_atom_site_type_symbol
_atom_site_fract_x
_atom_site_fract_y
_atom_site_fract_z
O1	O	-1.186946	-0.116560	0.082578
O2	O	-0.686946	0.383440	0.582578
O3	O	-0.926545	-0.130519	0.082605
O4	O	-0.426545	0.369481	0.582605
O5	O	-1.063725	0.006661	0.082584
O6	O	-0.563725	0.506661	0.582584
O7	O	-1.049766	-0.253739	0.082599
O8	O	-0.549766	0.246261	0.582599
O9	O	-1.063711	0.006659	-0.082800
O10	O	-0.563711	0.506659	0.417200
O11	O	-0.926532	-0.130520	-0.082779
O12	O	-0.426532	0.369480	0.417221
O13	O	-1.186932	-0.116561	-0.082806
O14	O	-0.686932	0.383439	0.417194
Cu15	Cu	-1.056731	-0.123541	-0.097893
Cu16	Cu	-0.556731	0.376459	0.402107
Cu17	Cu	-1.056747	-0.123539	0.097692
Cu18	Cu	-0.556747	0.376461	0.597692
O19	O	-1.049753	-0.253741	-0.082784
O20	O	-0.549753	0.246259	0.417216
C21	C	-0.893214	-0.129895	-0.000083
C22	C	-0.393214	0.370105	0.499917
C23	C	-0.793917	-0.128024	-0.000073
C24	C	-0.293917	0.371976	0.499927
C25	C	-1.063094	0.039985	-0.000108
C26	C	-0.563094	0.539985	0.499892
C27	C	-1.061223	0.139282	-0.000107
C28	C	-0.561223	0.639282	0.499893
N29	N	-1.056726	-0.123541	-0.235457
N30	N	-0.556726	0.376459	0.264543
C31	C	-1.220263	-0.117185	-0.000115
C32	C	-0.720263	0.382815	0.499885
C33	C	-1.319561	-0.119056	-0.000119
C34	C	-0.819561	0.380944	0.499881
C35	C	-0.736692	-0.208614	-0.000070
C36	C	-0.236692	0.291386	0.499930
C37	C	-0.643392	-0.206850	-0.000085
C38	C	-0.143392	0.293150	0.499915
C39	C	-0.607320	-0.124497	-0.000096
C40	C	-0.107320	0.375503	0.499904
C41	C	-0.664552	-0.043902	-0.000102
C42	C	-0.164552	0.456098	0.499898
C43	C	-0.757850	-0.045666	-0.000095
C44	C	-0.257850	0.454334	0.499905
C45	C	-0.470090	-0.040231	-0.000116
C46	C	0.029910	0.459769	0.499884
C47	C	-0.376786	-0.038466	-0.000122
C48	C	0.123214	0.461534	0.499878
C49	C	-0.355632	-0.201415	-0.000106
C50	C	0.144368	0.298585	0.499894
C51	C	-0.448930	-0.203179	-0.000099
C52	C	0.051070	0.296821	0.499901
C53	C	-0.506156	-0.122584	-0.000103
C54	C	-0.006156	0.377416	0.499897
C55	C	-1.050384	-0.287065	-0.000091
C56	C	-0.550384	0.212935	0.499909
C57	C	-1.052254	-0.386362	-0.000085
C58	C	-0.552254	0.113638	0.499915
C59	C	-1.141812	0.196507	-0.000116
C60	C	-0.641812	0.696507	0.499884
C61	C	-1.140049	0.289807	-0.000106
C62	C	-0.640049	0.789807	0.499894
C63	C	-1.057696	0.325879	-0.000093
C64	C	-0.557696	0.825879	0.499907
C65	C	-0.977101	0.268646	-0.000081
C66	C	-0.477101	0.768646	0.499919
C67	C	-0.978865	0.175349	-0.000084
C68	C	-0.478865	0.675349	0.499916
C69	C	-0.973430	0.463109	-0.000077
C70	C	-0.473430	0.963109	0.499923
C71	C	-0.971665	0.556413	-0.000076
C72	C	-0.471665	1.056413	0.499924
C73	C	-1.134614	0.577567	-0.000099
C74	C	-0.634614	1.077567	0.499901
C75	C	-1.136378	0.484269	-0.000102
C76	C	-0.636378	0.984269	0.499898
C77	C	-1.055782	0.427043	-0.000091
C78	C	-0.555782	0.927043	0.499909
C79	C	-1.002456	-0.069191	-0.712702
C80	C	-0.502456	0.430809	-0.212702
C81	C	-1.002453	-0.069188	-0.608599
C82	C	-0.502453	0.430812	-0.108599
C83	C	-1.056748	-0.123532	-0.556539
C84	C	-0.556748	0.376468	-0.056539
C85	C	-1.111057	-0.177874	-0.608587
C86	C	-0.611057	0.322126	-0.108587
C87	C	-1.111064	-0.177871	-0.712688
C88	C	-0.611064	0.322129	-0.212688
C89	C	-1.111036	-0.177878	-0.391607
C90	C	-0.611036	0.322122	0.108393
C91	C	-1.111028	-0.177882	-0.287498
C92	C	-0.611028	0.322118	0.212502
C93	C	-1.002426	-0.069194	-0.287518
C94	C	-0.502426	0.430806	0.212482
C95	C	-1.002433	-0.069192	-0.391619
C96	C	-0.502433	0.430808	0.108381
C97	C	-1.056740	-0.123536	-0.443660
C98	C	-0.556740	0.376464	0.056340
N99	N	-1.056759	-0.123532	0.235257
N100	N	-0.556759	0.376468	0.735257
H101	H	-0.766054	-0.275675	-0.000060
H102	H	-0.266054	0.224325	0.499940
O103	O	-0.813569	0.032536	-0.000138
O104	O	-0.313569	0.532536	0.499862
C105	C	-0.903651	0.013321	-0.000106
C106	C	-0.403651	0.513321	0.499894
H107	H	-0.907302	-0.056940	-0.031409
H108	H	-0.407302	0.443060	0.468591
H109	H	-0.945868	0.064681	-0.048124
H110	H	-0.445868	0.564681	0.451876
H111	H	-0.930625	0.016684	0.079238
H112	H	-0.430625	0.516684	0.579238
O113	O	-0.949724	-0.016280	-0.237071
O114	O	-0.449724	0.483720	0.262929
C115	C	-0.974420	0.074477	-0.262482
C116	C	-0.474420	0.574477	0.237518
H117	H	-1.009104	0.078272	-0.338068
H118	H	-0.509104	0.578272	0.161932
H119	H	-0.911757	0.111207	-0.266038
H120	H	-0.411757	0.611207	0.233962
H121	H	-1.022367	0.107339	-0.203891
H122	H	-0.522367	0.607339	0.296109
H123	H	-0.596802	-0.272474	-0.000081
H124	H	-0.096802	0.227526	0.499919
O125	O	-0.949618	-0.016381	-0.558201
O126	O	-0.449618	0.483619	-0.058201
C127	C	-0.901710	0.031596	-0.626474
C128	C	-0.401710	0.531596	-0.126474
H129	H	-0.896533	-0.005425	-0.700678
H130	H	-0.396533	0.494575	-0.200678
H131	H	-0.831371	0.037261	-0.596401
H132	H	-0.331371	0.537261	-0.096401
H133	H	-0.938485	0.101746	-0.637549
H134	H	-0.438485	0.601746	-0.137549
O135	O	-0.897046	0.303577	-0.000199
O136	O	-0.397046	0.803577	0.499801
C137	C	-0.847912	0.274363	-0.085858
C138	C	-0.347912	0.774363	0.414142
H139	H	-0.872358	0.209633	-0.114419
H140	H	-0.372358	0.709633	0.385581
H141	H	-0.773442	0.261489	-0.066582
H142	H	-0.273442	0.761489	0.433418
H143	H	-0.858204	0.328342	-0.145836
H144	H	-0.358204	0.828342	0.354164
H145	H	-0.913240	0.128756	-0.000077
H146	H	-0.413240	0.628756	0.499923
H147	H	-1.205673	0.336396	-0.000115
H148	H	-0.705673	0.836396	0.499885
H149	H	-1.155261	-0.222128	-0.433975
H150	H	-0.655261	0.277872	0.066025
H151	H	-1.155237	-0.222136	-0.245113
H152	H	-0.655237	0.277864	0.254887
H153	H	-0.309033	-0.267039	-0.000107
H154	H	0.190967	0.232961	0.499893
O155	O	-0.525645	0.038082	0.000060
O156	O	-0.025645	0.538082	0.500060
C157	C	-0.509260	0.088083	0.085699
C158	C	-0.009260	0.588083	0.585699
H159	H	-0.477414	0.040895	0.145562
H160	H	0.022586	0.540895	0.645562
H161	H	-0.575414	0.123875	0.114459
H162	H	-0.075414	0.623875	0.614459
H163	H	-0.461706	0.139911	0.066329
H164	H	0.038294	0.639911	0.566329
H165	H	-0.958238	-0.024943	-0.755083
H166	H	-0.458238	0.475057	-0.255083
O167	O	-0.949818	-0.016355	-0.442304
O168	O	-0.449818	0.483645	0.057696
C169	C	-1.004304	0.044599	-0.502500
C170	C	-0.504304	0.544599	-0.002500
H171	H	-1.070697	0.016650	-0.518081
H172	H	-0.570697	0.516650	-0.018081
H173	H	-0.968350	0.054620	-0.575712
H174	H	-0.468350	0.554620	-0.075712
H175	H	-1.017925	0.111815	-0.462387
H176	H	-0.517925	0.611815	0.037613
H177	H	-0.478296	-0.270239	-0.000080
H178	H	0.021704	0.229761	0.499920
H179	H	-1.155269	-0.222117	-0.566191
H180	H	-0.655269	0.277883	-0.066191
H181	H	-1.203437	0.454903	-0.000119
H182	H	-0.703437	0.954903	0.499881
H183	H	-1.155283	-0.222121	-0.755059
H184	H	-0.655283	0.277879	-0.255059
O185	O	-0.341595	0.041452	-0.000103
O186	O	0.158405	0.541452	0.499897
C187	C	-0.246977	0.025722	-0.000132
C188	C	0.253023	0.525722	0.499868
H189	H	-0.225146	-0.044051	0.031198
H190	H	0.274854	0.455949	0.531198
H191	H	-0.218268	0.078432	0.047863
H192	H	0.281732	0.578432	0.547863
H193	H	-0.221007	0.030066	-0.079480
H194	H	0.278993	0.530066	0.420520
O195	O	-0.629559	0.036120	-0.000287
O196	O	-0.129559	0.536120	0.499713
C197	C	-0.658815	0.085264	-0.085930
C198	C	-0.158815	0.585264	0.414070
H199	H	-0.678271	0.037109	-0.145795
H200	H	-0.178271	0.537109	0.354205
H201	H	-0.602259	0.123382	-0.114683
H202	H	-0.102259	0.623382	0.385317
H203	H	-0.719568	0.135039	-0.066565
H204	H	-0.219568	0.635039	0.433435
O205	O	-1.221890	0.161619	-0.000081
O206	O	-0.721890	0.661619	0.499919
C207	C	-1.292640	0.232139	-0.000108
C208	C	-0.792640	0.732139	0.499892
H209	H	-1.267498	0.295541	0.031204
H210	H	-0.767498	0.795541	0.531204
H211	H	-1.350134	0.212581	0.047904
H212	H	-0.850134	0.712581	0.547904
H213	H	-1.317501	0.245319	-0.079453
H214	H	-0.817501	0.745319	0.420547
H215	H	-1.200238	0.624165	-0.000104
H216	H	-0.700238	1.124165	0.499896
H217	H	-0.907800	0.416517	-0.000066
H218	H	-0.407800	0.916517	0.499934
O219	O	-0.891591	0.591307	-0.000005
O220	O	-0.391591	1.091307	0.499995
C221	C	-0.820833	0.520794	-0.000007
C222	C	-0.320833	1.020794	0.499993
H223	H	-0.845979	0.457385	0.031290
H224	H	-0.345979	0.957385	0.531290
H225	H	-0.763358	0.540353	0.048031
H226	H	-0.263358	1.040353	0.548031
H227	H	-0.795945	0.507626	-0.079342
H228	H	-0.295945	1.007626	0.420658
