data_functionalizedCrystal
_audit_creation_method	'MofGen! by Chris Wilmer'
_symmetry_space_group_name_H-M	'P1'
_symmetry_Int_Tables_number	1
_symmetry_cell_setting	triclinic
loop_
_symmetry_equiv_pos_as_xyz
  x,y,z
_cell_length_a	21.395364
_cell_length_b	19.076808
_cell_length_c	21.395355
_cell_angle_alpha	87.682564
_cell_angle_beta	89.975448
_cell_angle_gamma	92.338361
loop_
_atom_site_label
_atom_site_type_symbol
_atom_site_fract_x
_atom_site_fract_y
_atom_site_fract_z
Zn1	Zn	0.947867	-0.280018	-0.344242
Zn2	Zn	1.281200	0.053315	-0.010909
Zn3	Zn	1.614533	0.386648	0.322425
Zn4	Zn	0.943570	-0.397705	-0.235254
Zn5	Zn	1.276903	-0.064371	0.098080
Zn6	Zn	1.610236	0.268962	0.431413
Zn7	Zn	0.843081	-0.280049	-0.239478
Zn8	Zn	1.176414	0.053284	0.093856
Zn9	Zn	1.509747	0.386618	0.427189
Zn10	Zn	0.838851	-0.397717	-0.339993
Zn11	Zn	1.172184	-0.064384	-0.006660
Zn12	Zn	1.505517	0.268949	0.326673
O13	O	0.893342	-0.338872	-0.289742
O14	O	1.226675	-0.005539	0.043592
O15	O	1.560009	0.327794	0.376925
O16	O	1.034975	-0.295611	-0.329795
O17	O	1.368309	0.037722	0.003539
O18	O	1.701642	0.371055	0.336872
O19	O	0.930211	-0.382105	-0.148136
O20	O	1.263545	-0.048772	0.185198
O21	O	1.596878	0.284562	0.518531
O22	O	0.860549	-0.181548	-0.256921
O23	O	1.193883	0.151785	0.076413
O24	O	1.527216	0.485118	0.409746
O25	O	1.031818	-0.382075	-0.249721
O26	O	1.365151	-0.048742	0.083612
O27	O	1.698485	0.284591	0.416945
O28	O	0.937535	-0.181526	-0.333891
O29	O	1.270869	0.151808	-0.000557
O30	O	1.604202	0.485141	0.332776
O31	O	0.856382	-0.295664	-0.151239
O32	O	1.189716	0.037669	0.182094
O33	O	1.523049	0.371003	0.515428
O34	O	0.754841	-0.295676	-0.252801
O35	O	1.088174	0.037657	0.080532
O36	O	1.421508	0.370990	0.413866
O37	O	0.853340	-0.382097	-0.428235
O38	O	1.186673	-0.048763	-0.094902
O39	O	1.520007	0.284570	0.238432
O40	O	0.751733	-0.382127	-0.326649
O41	O	1.085067	-0.048793	0.006684
O42	O	1.418400	0.284540	0.340017
O43	O	0.933434	-0.295624	-0.431357
O44	O	1.266767	0.037710	-0.098023
O45	O	1.600100	0.371043	0.235310
O46	O	0.926110	-0.496203	-0.245602
O47	O	1.259443	-0.162870	0.087732
O48	O	1.592776	0.170463	0.421065
O49	O	0.849173	-0.496212	-0.322553
O50	O	1.182507	-0.162879	0.010780
O51	O	1.515840	0.170454	0.344113
C52	C	0.730553	-0.338907	-0.289723
C53	C	1.063886	-0.005573	0.043611
C54	C	1.397220	0.327760	0.376944
C55	C	0.660911	-0.338938	-0.289729
C56	C	0.994244	-0.005605	0.043604
C57	C	1.327577	0.327728	0.376938
C58	C	0.629861	-0.293990	-0.331482
C59	C	0.963194	0.039343	0.001851
C60	C	1.296528	0.372676	0.335184
C61	C	0.564426	-0.293972	-0.331486
C62	C	0.897760	0.039362	0.001848
C63	C	1.231093	0.372695	0.335181
C64	C	0.530043	-0.338913	-0.289741
C65	C	0.863377	-0.005580	0.043592
C66	C	1.196710	0.327753	0.376925
C67	C	0.561100	-0.383864	-0.247980
C68	C	0.894434	-0.050531	0.085354
C69	C	1.227767	0.282802	0.418687
C70	C	0.626534	-0.383877	-0.247974
C71	C	0.959868	-0.050544	0.085360
C72	C	1.293201	0.282790	0.418693
C73	C	0.424057	-0.402300	-0.282436
C74	C	0.757390	-0.068967	0.050898
C75	C	1.090724	0.264366	0.384231
C76	C	0.358624	-0.402289	-0.282446
C77	C	0.691958	-0.068956	0.050887
C78	C	1.025291	0.264377	0.384221
C79	C	0.328224	-0.338875	-0.289757
C80	C	0.661557	-0.005541	0.043577
C81	C	0.994891	0.327792	0.376910
C82	C	0.363264	-0.275469	-0.297070
C83	C	0.696597	0.057864	0.036264
C84	C	1.029931	0.391197	0.369597
C85	C	0.428698	-0.275482	-0.297064
C86	C	0.762031	0.057852	0.036270
C87	C	1.095364	0.391185	0.369603
C88	C	0.459091	-0.338905	-0.289743
C89	C	0.792424	-0.005571	0.043590
C90	C	1.125758	0.327762	0.376924
C91	C	0.226223	-0.293903	-0.331516
C92	C	0.559556	0.039431	0.001818
C93	C	0.892889	0.372764	0.335151
C94	C	0.160787	-0.293883	-0.331514
C95	C	0.494120	0.039451	0.001819
C96	C	0.827453	0.372784	0.335152
C97	C	0.157462	-0.383782	-0.248012
C98	C	0.490795	-0.050449	0.085322
C99	C	0.824129	0.282885	0.418655
C100	C	0.222897	-0.383796	-0.248010
C101	C	0.556230	-0.050462	0.085323
C102	C	0.889563	0.282871	0.418657
C103	C	0.257273	-0.338857	-0.289765
C104	C	0.590607	-0.005523	0.043568
C105	C	0.923940	0.327810	0.376901
C106	C	0.886733	-0.521747	-0.283172
C107	C	1.220067	-0.188414	0.050162
C108	C	1.553400	0.144920	0.383495
C109	C	0.883963	-0.599981	-0.280382
C110	C	1.217297	-0.266648	0.052951
C111	C	1.550630	0.066685	0.386285
C112	C	0.922714	-0.636664	-0.319178
C113	C	1.256048	-0.303331	0.014155
C114	C	1.589381	0.030003	0.347489
C115	C	0.920109	-0.710173	-0.316558
C116	C	1.253443	-0.376840	0.016775
C117	C	1.586776	-0.043507	0.350109
C118	C	0.878756	-0.746999	-0.275138
C119	C	1.212089	-0.413666	0.058195
C120	C	1.545422	-0.080333	0.391528
C121	C	0.840000	-0.710312	-0.236341
C122	C	1.173334	-0.376978	0.096993
C123	C	1.506667	-0.043645	0.430326
C124	C	0.842603	-0.636804	-0.238964
C125	C	1.175936	-0.303470	0.094369
C126	C	1.509269	0.029863	0.427702
C127	C	0.866675	-0.966853	-0.262993
C128	C	1.200008	-0.633520	0.070340
C129	C	1.533342	-0.300187	0.403673
C130	C	0.864077	-1.040367	-0.260371
C131	C	1.197410	-0.707033	0.072962
C132	C	1.530743	-0.373700	0.406295
C133	C	0.944185	-1.040223	-0.340590
C134	C	1.277518	-0.706890	-0.007256
C135	C	1.610852	-0.373557	0.326077
C136	C	0.946787	-0.966714	-0.343207
C137	C	1.280120	-0.633380	-0.009874
C138	C	1.613453	-0.300047	0.323460
C139	C	0.908029	-0.930033	-0.304412
C140	C	1.241362	-0.596699	0.028921
C141	C	1.574696	-0.263366	0.362255
N142	N	0.876093	-0.822138	-0.272458
N143	N	1.209427	-0.488805	0.060876
N144	N	1.542760	-0.155471	0.394209
N145	N	0.910689	-0.854895	-0.307096
N146	N	1.244022	-0.521562	0.026237
N147	N	1.577355	-0.188229	0.359571
C148	C	1.056766	-0.338839	-0.289761
C149	C	1.390100	-0.005505	0.043573
C150	C	1.723433	0.327828	0.376906
C151	C	1.126408	-0.338824	-0.289769
C152	C	1.459741	-0.005491	0.043564
C153	C	1.793075	0.327843	0.376898
C154	C	0.893394	-0.338858	-0.453165
C155	C	1.226728	-0.005525	-0.119832
C156	C	1.560061	0.327809	0.213501
C157	C	0.893417	-0.338852	-0.522807
C158	C	1.226750	-0.005519	-0.189474
C159	C	1.560083	0.327815	0.143860
C160	C	0.899993	-0.155284	-0.296351
C161	C	1.233327	0.178050	0.036982
C162	C	1.566660	0.511383	0.370316
C163	C	0.902828	-0.077049	-0.299167
C164	C	1.236161	0.256284	0.034166
C165	C	1.569495	0.589617	0.367499
C166	C	0.935120	-0.293824	-0.557147
C167	C	1.268453	0.039510	-0.223813
C168	C	1.601786	0.372843	0.109520
C169	C	0.935120	-0.293793	-0.622583
C170	C	1.268453	0.039540	-0.289250
C171	C	1.601787	0.372873	0.044084
C172	C	0.893423	-0.338804	-0.653677
C173	C	1.226757	-0.005471	-0.320344
C174	C	1.560090	0.327863	0.012990
C175	C	0.851712	-0.383836	-0.619329
C176	C	1.185046	-0.050502	-0.285996
C177	C	1.518379	0.282831	0.047337
C178	C	0.851709	-0.383860	-0.553894
C179	C	1.185042	-0.050526	-0.220561
C180	C	1.518376	0.282807	0.112772
C181	C	0.886186	-0.402182	-0.755075
C182	C	1.219519	-0.068849	-0.421741
C183	C	1.552852	0.264485	-0.088408
C184	C	0.886193	-0.402159	-0.820509
C185	C	1.219527	-0.068826	-0.487175
C186	C	1.552860	0.264507	-0.153842
C187	C	0.893430	-0.338730	-0.855501
C188	C	1.226763	-0.005396	-0.522167
C189	C	1.560097	0.327937	-0.188834
C190	C	0.900672	-0.275321	-0.825051
C191	C	1.234005	0.058012	-0.491717
C192	C	1.567339	0.391346	-0.158384
C193	C	0.900669	-0.275345	-0.759616
C194	C	1.234002	0.057988	-0.426282
C195	C	1.567335	0.391322	-0.092949
C196	C	0.893422	-0.338783	-0.724630
C197	C	1.226755	-0.005449	-0.391297
C198	C	1.560089	0.327884	-0.057964
C199	C	0.935135	-0.293665	-0.960794
C200	C	1.268469	0.039669	-0.627461
C201	C	1.601802	0.373002	-0.294127
C202	C	0.935131	-0.293633	-1.026232
C203	C	1.268465	0.039700	-0.692898
C204	C	1.601798	0.373033	-0.359565
C205	C	0.851727	-0.383682	-1.022977
C206	C	1.185060	-0.050348	-0.689643
C207	C	1.518393	0.282985	-0.356310
C208	C	0.851728	-0.383707	-0.957540
C209	C	1.185061	-0.050374	-0.624207
C210	C	1.518394	0.282960	-0.290874
C211	C	0.893435	-0.338699	-0.926453
C212	C	1.226769	-0.005366	-0.593120
C213	C	1.560102	0.327967	-0.259786
C214	C	0.893327	-0.338836	-0.126955
C215	C	1.226661	-0.005502	0.206378
C216	C	1.559994	0.327831	0.539711
C217	C	0.893434	-0.338644	-0.057321
C218	C	1.226767	-0.005310	0.276012
C219	C	1.560100	0.328023	0.609345
H220	H	0.254214	-0.257306	-0.365512
H221	H	0.587547	0.076027	-0.032178
H222	H	0.920880	0.409360	0.301155
H223	H	0.817761	-0.420481	-0.644650
H224	H	1.151094	-0.087148	-0.311317
H225	H	1.484427	0.246185	0.022016
C226	C	0.962740	-0.750524	-0.359227
C227	C	1.296073	-0.417191	-0.025894
C228	C	1.629406	-0.083858	0.307440
H229	H	0.955264	-0.799577	-0.351738
H230	H	1.288598	-0.466244	-0.018404
H231	H	1.621931	-0.132911	0.314929
H232	H	1.005268	-0.738428	-0.350523
H233	H	1.338602	-0.405095	-0.017189
H234	H	1.671935	-0.071762	0.316144
H235	H	0.953978	-0.738469	-0.401750
H236	H	1.287311	-0.405135	-0.068417
H237	H	1.620644	-0.071802	0.264917
H238	H	0.835118	-0.936993	-0.231404
H239	H	1.168451	-0.603660	0.101930
H240	H	1.501785	-0.270327	0.435263
C241	C	0.992286	-0.926210	-0.388759
C242	C	1.325619	-0.592877	-0.055425
C243	C	1.658952	-0.259544	0.277908
H244	H	1.014992	-0.958586	-0.411489
H245	H	1.348325	-0.625252	-0.078156
H246	H	1.681659	-0.291919	0.255177
H247	H	1.020608	-0.897519	-0.365829
H248	H	1.353941	-0.564185	-0.032495
H249	H	1.687274	-0.230852	0.300838
H250	H	0.969327	-0.897545	-0.417066
H251	H	1.302660	-0.564212	-0.083732
H252	H	1.635993	-0.230879	0.249601
H253	H	0.657847	-0.257397	-0.365482
H254	H	0.991180	0.075936	-0.032149
H255	H	1.324513	0.409270	0.301184
H256	H	0.539141	-0.257366	-0.365485
H257	H	0.872474	0.075967	-0.032152
H258	H	1.205808	0.409301	0.301181
C259	C	0.660690	-0.433328	-0.202048
C260	C	0.994023	-0.099995	0.131285
C261	C	1.327356	0.233339	0.464619
H262	H	0.630843	-0.460095	-0.177188
H263	H	0.964176	-0.126762	0.156145
H264	H	1.297510	0.206572	0.489478
H265	H	0.687191	-0.406366	-0.175756
H266	H	1.020525	-0.073033	0.157578
H267	H	1.353858	0.260300	0.490911
H268	H	0.685101	-0.464044	-0.224873
H269	H	1.018434	-0.130710	0.108460
H270	H	1.351767	0.202623	0.441794
C271	C	0.986809	-1.080574	-0.383266
C272	C	1.320142	-0.747240	-0.049933
C273	C	1.653476	-0.413907	0.283401
H274	H	0.979334	-1.129627	-0.375777
H275	H	1.312668	-0.796294	-0.042443
H276	H	1.646001	-0.462960	0.290890
H277	H	1.029340	-1.068479	-0.374570
H278	H	1.362673	-0.735145	-0.041237
H279	H	1.696006	-0.401812	0.292097
H280	H	0.978038	-1.068516	-0.425787
H281	H	1.311371	-0.735183	-0.092453
H282	H	1.644705	-0.401850	0.240880
H283	H	0.880126	-0.453821	-0.726590
H284	H	1.213459	-0.120488	-0.393257
H285	H	1.546792	0.212846	-0.059923
C286	C	0.805865	-0.433197	-1.057172
C287	C	1.139198	-0.099864	-0.723839
C288	C	1.472532	0.233469	-0.390505
H289	H	0.811842	-0.426739	-1.101061
H290	H	1.145176	-0.093406	-0.767728
H291	H	1.478509	0.239928	-0.434395
H292	H	0.764138	-0.422915	-1.046801
H293	H	1.097472	-0.089582	-0.713468
H294	H	1.430805	0.243751	-0.380134
H295	H	0.813330	-0.480493	-1.044758
H296	H	1.146663	-0.147159	-0.711425
H297	H	1.479996	0.186174	-0.378092
C298	C	0.805842	-0.433403	-0.516119
C299	C	1.139176	-0.100070	-0.182786
C300	C	1.472509	0.233264	0.150548
H301	H	0.781011	-0.460211	-0.544007
H302	H	1.114345	-0.126877	-0.210673
H303	H	1.447678	0.206456	0.122660
H304	H	0.779517	-0.406500	-0.491539
H305	H	1.112850	-0.073167	-0.158206
H306	H	1.446184	0.260167	0.175128
H307	H	0.828708	-0.464077	-0.489511
H308	H	1.162042	-0.130744	-0.156178
H309	H	1.495375	0.202589	0.177155
H310	H	0.457225	-0.223855	-0.303016
H311	H	0.790558	0.109478	0.030317
H312	H	1.123892	0.442812	0.363650
H313	H	0.338514	-0.223831	-0.303023
H314	H	0.671847	0.109502	0.030311
H315	H	1.005180	0.442836	0.363644
C316	C	0.805860	-0.433244	-0.919762
C317	C	1.139194	-0.099910	-0.586429
C318	C	1.472527	0.233423	-0.253095
H319	H	0.811827	-0.426808	-0.876339
H320	H	1.145160	-0.093475	-0.543005
H321	H	1.478494	0.239859	-0.209672
H322	H	0.813316	-0.480530	-0.928797
H323	H	1.146649	-0.147197	-0.595464
H324	H	1.479982	0.186137	-0.262131
H325	H	0.764134	-0.422942	-0.930837
H326	H	1.097467	-0.089609	-0.597504
H327	H	1.430801	0.243724	-0.264171
C328	C	0.523282	-0.433302	-0.202065
C329	C	0.856615	-0.099969	0.131268
C330	C	1.189948	0.233365	0.464602
H331	H	0.479864	-0.426863	-0.208053
H332	H	0.813197	-0.093530	0.125280
H333	H	1.146531	0.239804	0.458614
H334	H	0.534360	-0.422935	-0.160353
H335	H	0.867693	-0.089602	0.172980
H336	H	1.201027	0.243731	0.506314
H337	H	0.532283	-0.480613	-0.209470
H338	H	0.865617	-0.147280	0.123863
H339	H	1.198950	0.186053	0.457197
H340	H	0.806327	-0.740301	-0.202618
H341	H	1.139660	-0.406968	0.130715
H342	H	1.472994	-0.073635	0.464048
C343	C	0.878225	-0.471904	-0.853998
C344	C	1.211559	-0.138571	-0.520664
C345	C	1.544892	0.194762	-0.187331
H346	H	0.873903	-0.509683	-0.823788
H347	H	1.207236	-0.176350	-0.490454
H348	H	1.540569	0.156984	-0.157121
H349	H	0.913909	-0.478082	-0.879317
H350	H	1.247242	-0.144748	-0.545984
H351	H	1.580575	0.188585	-0.212650
H352	H	0.841937	-0.470981	-0.879541
H353	H	1.175270	-0.137647	-0.546208
H354	H	1.508603	0.195686	-0.212875
H355	H	0.135508	-0.257276	-0.365514
H356	H	0.468841	0.076057	-0.032181
H357	H	0.802174	0.409390	0.301152
H358	H	0.129468	-0.420374	-0.214023
H359	H	0.462801	-0.087041	0.119311
H360	H	0.796134	0.246292	0.452644
H361	H	0.956392	-0.606685	-0.352903
H362	H	1.289725	-0.273352	-0.019570
H363	H	1.623058	0.059982	0.313763
H364	H	0.248177	-0.420400	-0.214012
H365	H	0.581511	-0.087067	0.119321
H366	H	0.914844	0.246267	0.452655
C367	C	0.818581	-1.080874	-0.214813
C368	C	1.151914	-0.747541	0.118521
C369	C	1.485248	-0.414208	0.451854
H370	H	0.795866	-1.048501	-0.192088
H371	H	1.129199	-0.715168	0.141245
H372	H	1.462533	-0.381834	0.474579
H373	H	0.841545	-1.109533	-0.186511
H374	H	1.174878	-0.776200	0.146823
H375	H	1.508211	-0.442866	0.480156
H376	H	0.790256	-1.109572	-0.237740
H377	H	1.123589	-0.776239	0.095593
H378	H	1.456923	-0.442905	0.428927
H379	H	0.330099	-0.453918	-0.276494
H380	H	0.663433	-0.120584	0.056839
H381	H	0.996766	0.212749	0.390172
H382	H	0.448803	-0.453944	-0.276482
H383	H	0.782136	-0.120611	0.056852
H384	H	1.115470	0.212723	0.390185
H385	H	0.811047	-0.606937	-0.207373
H386	H	1.144380	-0.273604	0.125960
H387	H	1.477713	0.059729	0.459293
C388	C	0.981013	-0.244109	-1.064008
C389	C	1.314346	0.089225	-0.730675
C390	C	1.647680	0.422558	-0.397342
H391	H	0.975040	-0.250536	-1.107432
H392	H	1.308373	0.082797	-0.774099
H393	H	1.641707	0.416131	-0.440765
H394	H	1.022733	-0.254417	-1.052930
H395	H	1.356067	0.078916	-0.719597
H396	H	1.689400	0.412249	-0.386264
H397	H	0.973564	-0.196816	-1.054975
H398	H	1.306897	0.136517	-0.721642
H399	H	1.640231	0.469850	-0.388308
H400	H	0.969078	-0.257122	-0.650548
H401	H	1.302412	0.076211	-0.317215
H402	H	1.635745	0.409545	0.016119
C403	C	0.980991	-0.244312	-0.522954
C404	C	1.314325	0.089021	-0.189621
C405	C	1.647658	0.422355	0.143713
H406	H	1.005825	-0.217486	-0.552781
H407	H	1.339158	0.115847	-0.219448
H408	H	1.672492	0.449181	0.113885
H409	H	1.007314	-0.271239	-0.496473
H410	H	1.340647	0.062094	-0.163140
H411	H	1.673980	0.395428	0.170193
H412	H	0.958130	-0.213653	-0.498518
H413	H	1.291463	0.119680	-0.165185
H414	H	1.624797	0.453013	0.168149
C415	C	0.908624	-0.205601	-0.726123
C416	C	1.241958	0.127732	-0.392789
C417	C	1.575291	0.461066	-0.059456
H418	H	0.912930	-0.167818	-0.756330
H419	H	1.246263	0.165515	-0.422997
H420	H	1.579597	0.498849	-0.089663
H421	H	0.944907	-0.206514	-0.700575
H422	H	1.278240	0.126819	-0.367242
H423	H	1.611573	0.460152	-0.033909
H424	H	0.872932	-0.199438	-0.700807
H425	H	1.206265	0.133895	-0.367473
H426	H	1.539598	0.467229	-0.034140
H427	H	0.906566	-0.223670	-0.853540
H428	H	1.239899	0.109663	-0.520207
H429	H	1.573232	0.442996	-0.186873
C430	C	0.981001	-0.244148	-0.926596
C431	C	1.314334	0.089185	-0.593262
C432	C	1.647667	0.422519	-0.259929
H433	H	1.005831	-0.217316	-0.956422
H434	H	1.339164	0.116017	-0.623089
H435	H	1.672498	0.449351	-0.289755
H436	H	1.007327	-0.271071	-0.900116
H437	H	1.340660	0.062263	-0.566783
H438	H	1.673994	0.395596	-0.233449
H439	H	0.958134	-0.213495	-0.902159
H440	H	1.291468	0.119838	-0.568825
H441	H	1.624801	0.453172	-0.235492
