data_functionalizedCrystal
_audit_creation_method	'MofGen! by Chris Wilmer'
_symmetry_space_group_name_H-M	'P1'
_symmetry_Int_Tables_number	1
_symmetry_cell_setting	triclinic
loop_
_symmetry_equiv_pos_as_xyz
  x,y,z
_cell_length_a	13.635800
_cell_length_b	11.168121
_cell_length_c	11.168136
_cell_angle_alpha	87.979826
_cell_angle_beta	108.508683
_cell_angle_gamma	71.491504
loop_
_atom_site_label
_atom_site_type_symbol
_atom_site_fract_x
_atom_site_fract_y
_atom_site_fract_z
V1	V	2.054941	-0.174724	0.393710
O2	O	2.034733	0.008377	0.386204
O3	O	2.043085	-0.346429	0.391027
O4	O	2.043086	-0.172045	0.565415
O5	O	2.034732	-0.167215	0.210609
V6	V	2.293556	-0.152822	0.371808
O7	O	2.192473	-0.222767	0.441753
O8	O	2.381123	-0.104778	0.323765
O9	O	2.193809	0.018883	0.374490
O10	O	2.372462	-0.335922	0.379314
O11	O	2.372463	-0.160331	0.554909
O12	O	2.193807	-0.155501	0.200102
V13	V	2.554941	-0.174724	0.393710
O14	O	2.534733	0.008377	0.386204
O15	O	2.543085	-0.346429	0.391027
O16	O	2.543086	-0.172045	0.565415
O17	O	2.534732	-0.167215	0.210609
V18	V	2.793556	-0.152822	0.371808
O19	O	2.692473	-0.222767	0.441753
O20	O	2.881123	-0.104778	0.323765
O21	O	2.693809	0.018883	0.374490
O22	O	2.872462	-0.335922	0.379314
O23	O	2.872463	-0.160331	0.554909
O24	O	2.693807	-0.155501	0.200102
C25	C	1.968189	-0.388286	0.384819
C26	C	1.999220	-0.528658	0.383771
C27	C	2.100475	-0.597350	0.389292
C28	C	2.132550	-0.742432	0.388208
C29	C	1.968190	-0.165840	0.607267
C30	C	1.999221	-0.164786	0.747637
C31	C	2.100376	0.060735	0.380695
C32	C	2.058964	0.201105	0.381752
C33	C	2.100375	-0.161709	0.158244
C34	C	2.058962	-0.162757	0.017873
C35	C	2.468189	-0.388286	0.384819
C36	C	2.499220	-0.528658	0.383771
C37	C	2.468190	-0.165840	0.607267
C38	C	2.499221	-0.164786	0.747637
C39	C	2.100475	-0.170305	0.816329
C40	C	2.132549	-0.169216	0.961409
C41	C	2.600376	0.060735	0.380695
C42	C	2.558964	0.201105	0.381752
C43	C	2.600375	-0.161709	0.158244
C44	C	2.558962	-0.162757	0.017873
C45	C	2.600475	-0.597350	0.389292
C46	C	2.632550	-0.742432	0.388208
C47	C	2.600475	-0.170305	0.816329
C48	C	2.632549	-0.169216	0.961409
H49	H	2.219287	-0.801480	0.392921
H50	H	2.436276	-0.159246	0.796233
O51	O	1.955467	-0.728307	0.375947
C52	C	1.904762	-0.634514	0.266258
H53	H	1.970843	-0.614752	0.235249
H54	H	1.851791	-0.542845	0.288997
H55	H	1.850651	-0.670099	0.185833
O56	O	2.423984	-0.586451	0.376999
C57	C	2.332496	-0.533285	0.263518
H58	H	2.327906	-0.433589	0.229389
H59	H	2.253755	-0.526879	0.282492
H60	H	2.341848	-0.596392	0.186910
O61	O	2.675711	-0.177080	0.758534
C62	C	2.767199	-0.290560	0.811704
H63	H	2.771791	-0.324684	0.911401
H64	H	2.845940	-0.271586	0.818106
H65	H	2.757847	-0.367170	0.748600
O66	O	1.955443	-0.157169	0.947642
C67	C	1.893245	-0.150917	1.028316
H68	H	1.951291	-0.192213	1.130519
H69	H	1.836419	-0.208387	0.995223
H70	H	1.841729	-0.047100	1.024439
H71	H	1.936281	-0.577256	0.378248
O72	O	2.736042	-0.175018	1.032009
C73	C	2.786744	-0.284703	1.125806
H74	H	2.720660	-0.315711	1.145564
H75	H	2.839710	-0.261960	1.217476
H76	H	2.840859	-0.365130	1.090228
O77	O	2.455558	-0.157324	0.947355
C78	C	2.461684	-0.267424	0.887868
H79	H	2.546698	-0.309651	0.879518
H80	H	2.395930	-0.240780	0.788500
H81	H	2.447376	-0.340871	0.947481
H82	H	2.163418	-0.548754	0.394828
H83	H	2.163414	-0.175828	0.767731
H84	H	2.663418	-0.548754	0.394828
O85	O	2.735990	-0.812775	0.393621
C86	C	2.756488	-0.767385	0.287847
H87	H	2.674815	-0.715306	0.207643
H88	H	2.807784	-0.851342	0.253170
H89	H	2.803439	-0.698806	0.317195
O90	O	2.236042	-0.175018	1.032009
C91	C	2.286744	-0.284703	1.125806
H92	H	2.220660	-0.315711	1.145564
H93	H	2.339710	-0.261960	1.217476
H94	H	2.340859	-0.365130	1.090228
O95	O	1.924175	-0.158019	0.805717
C96	C	1.907195	-0.047188	0.864466
H97	H	1.981955	-0.015884	0.883963
H98	H	1.895262	-0.068538	0.958415
H99	H	1.830637	0.032476	0.798527
H100	H	2.472220	-0.739852	0.377021
