data_functionalizedCrystal
_audit_creation_method	'MofGen! by Chris Wilmer'
_symmetry_space_group_name_H-M	'P1'
_symmetry_Int_Tables_number	1
_symmetry_cell_setting	triclinic
loop_
_symmetry_equiv_pos_as_xyz
  x,y,z
_cell_length_a	33.359672
_cell_length_b	33.359674
_cell_length_c	33.359725
_cell_angle_alpha	90.002336
_cell_angle_beta	59.997790
_cell_angle_gamma	119.999824
loop_
_atom_site_label
_atom_site_type_symbol
_atom_site_fract_x
_atom_site_fract_y
_atom_site_fract_z
O1	O	0.353587	-0.274991	-0.011927
O2	O	0.271501	-0.216698	0.011867
O3	O	0.353584	-0.216698	-0.070218
O4	O	0.271504	-0.274991	0.070158
O5	O	0.286913	-0.283369	-0.070217
O6	O	0.204830	-0.283369	0.011868
O7	O	0.286915	-0.341662	-0.011926
Zn8	Zn	0.235287	-0.323101	-0.000029
Zn9	Zn	0.323130	-0.235259	-0.000030
O10	O	0.204833	-0.341662	0.070158
C11	C	0.117512	-0.073731	0.028809
C12	C	0.068931	-0.098077	0.029147
C13	C	0.117509	-0.146322	0.028814
C14	C	0.068928	-0.170558	0.029151
C15	C	0.044923	-0.146320	0.028809
C16	C	0.141407	-0.098079	0.029151
C17	C	0.196155	0.004722	0.022919
C18	C	0.222880	0.054297	0.019200
C19	C	0.199944	0.079161	0.017331
C20	C	0.228920	0.132913	0.013296
C21	C	0.150277	0.054455	0.019187
C22	C	0.123552	0.004883	0.022908
C23	C	0.146493	-0.019981	0.024772
C24	C	-0.027638	-0.146130	0.022914
C25	C	-0.073493	-0.168979	0.019194
C26	C	-0.096492	-0.216782	0.017330
C27	C	-0.146209	-0.241558	0.013295
C28	C	-0.073644	-0.241744	0.019190
C29	C	-0.027793	-0.218897	0.022912
C30	C	-0.004790	-0.171090	0.024771
C31	C	0.196149	-0.146136	0.022928
C32	C	0.222876	-0.168985	0.019206
C33	C	0.199936	-0.216787	0.017342
C34	C	0.228910	-0.241565	0.013312
C35	C	0.150274	-0.241745	0.019196
C36	C	0.123547	-0.218899	0.022915
C37	C	0.146487	-0.171094	0.024781
O38	O	-0.279069	-0.341655	-0.011947
O39	O	-0.162484	-0.283360	0.011844
O40	O	-0.162479	-0.283364	-0.070239
O41	O	-0.279074	-0.341650	0.070137
O42	O	-0.162476	-0.216692	-0.070243
O43	O	-0.162482	-0.216688	0.011840
O44	O	-0.279066	-0.274982	-0.011951
Zn45	Zn	-0.220774	-0.235249	-0.000056
Zn46	Zn	-0.220777	-0.323093	-0.000051
O47	O	-0.279072	-0.274978	0.070133
C48	C	0.440913	-0.146329	-0.367177
C49	C	0.489495	-0.098086	-0.391412
C50	C	0.440913	-0.146329	-0.294588
C51	C	0.489495	-0.098086	-0.318933
C52	C	0.513502	-0.073740	-0.367176
C53	C	0.417016	-0.170565	-0.318934
C54	C	0.362270	-0.219081	-0.366989
C55	C	0.335546	-0.242087	-0.389839
C56	C	0.358484	-0.217283	-0.437640
C57	C	0.329509	-0.242225	-0.462417
C58	C	0.408152	-0.169473	-0.462601
C59	C	0.434876	-0.146469	-0.439753
C60	C	0.411933	-0.171273	-0.391947
C61	C	0.586065	0.004714	-0.439927
C62	C	0.631921	0.054287	-0.462933
C63	C	0.654919	0.079151	-0.438129
C64	C	0.704637	0.132902	-0.463070
C65	C	0.632069	0.054444	-0.390319
C66	C	0.586218	0.004872	-0.367315
C67	C	0.563216	-0.019991	-0.392119
C68	C	0.362270	-0.219081	-0.216134
C69	C	0.335542	-0.242085	-0.166558
C70	C	0.358480	-0.217281	-0.141694
C71	C	0.329505	-0.242223	-0.087942
C72	C	0.408143	-0.169473	-0.166398
C73	C	0.434872	-0.146467	-0.215972
C74	C	0.411933	-0.171273	-0.240838
C75	C	0.513517	-0.412027	-0.028902
C76	C	0.489511	-0.460269	-0.029242
C77	C	0.440925	-0.412028	-0.028898
C78	C	0.417029	-0.460271	-0.029238
C79	C	0.440928	-0.484616	-0.028901
C80	C	0.489508	-0.387792	-0.029238
C81	C	0.586081	-0.339274	-0.023012
C82	C	0.631938	-0.316267	-0.019295
C83	C	0.654938	-0.341070	-0.017432
C84	C	0.704657	-0.316127	-0.013400
C85	C	0.632089	-0.388880	-0.019290
C86	C	0.586236	-0.411885	-0.023009
C87	C	0.563232	-0.387082	-0.024867
C88	C	0.435229	-0.563069	-0.023015
C89	C	0.408662	-0.612643	-0.019298
C90	C	0.358994	-0.637507	-0.017431
C91	C	0.330184	-0.691258	-0.013399
C92	C	0.335888	-0.612801	-0.019285
C93	C	0.362454	-0.563229	-0.023004
C94	C	0.412123	-0.538365	-0.024867
C95	C	0.435220	-0.339277	-0.023003
C96	C	0.408646	-0.316273	-0.019276
C97	C	0.358978	-0.341078	-0.017410
C98	C	0.330165	-0.316137	-0.013373
C99	C	0.335875	-0.388886	-0.019265
C100	C	0.362444	-0.411892	-0.022990
C101	C	0.412117	-0.387085	-0.024859
O102	O	0.286933	0.291016	-0.011949
O103	O	0.204848	0.150641	0.011842
O104	O	0.286934	0.232718	-0.070242
O105	O	0.204846	0.208939	0.070135
O106	O	0.353602	0.232716	-0.070238
O107	O	0.271516	0.150639	0.011846
O108	O	0.353601	0.291014	-0.011945
Zn109	Zn	0.323143	0.220826	-0.000049
Zn110	Zn	0.235305	0.220829	-0.000054
O111	O	0.271514	0.208937	0.070139
O112	O	0.837498	0.291002	-0.495832
O113	O	0.720911	0.150628	-0.437542
O114	O	0.720908	0.232707	-0.437536
O115	O	0.837501	0.208922	-0.495838
O116	O	0.720909	0.232709	-0.504208
O117	O	0.720912	0.150629	-0.504214
O118	O	0.837499	0.291004	-0.562504
Zn119	Zn	0.779206	0.220817	-0.543945
Zn120	Zn	0.779204	0.220814	-0.456101
O121	O	0.837502	0.208924	-0.562510
O122	O	0.271499	-0.274996	-0.562510
O123	O	0.353583	-0.216699	-0.504219
O124	O	0.271499	-0.216701	-0.504213
O125	O	0.353584	-0.274994	-0.562515
O126	O	0.204829	-0.283371	-0.437542
O127	O	0.286913	-0.283369	-0.437547
O128	O	0.204829	-0.341666	-0.495839
Zn129	Zn	0.235286	-0.323102	-0.456107
Zn130	Zn	0.323126	-0.235262	-0.543950
O131	O	0.286914	-0.341664	-0.495844
C132	C	0.044913	-0.484622	0.367117
C133	C	0.068919	-0.460277	0.391353
C134	C	0.117502	-0.412033	0.294528
C135	C	0.141398	-0.387798	0.318875
C136	C	0.117501	-0.412034	0.367118
C137	C	0.068920	-0.460276	0.318874
C138	C	-0.027650	-0.563076	0.366926
C139	C	-0.073506	-0.612649	0.389775
C140	C	-0.096504	-0.637513	0.437576
C141	C	-0.146222	-0.691265	0.462352
C142	C	-0.073655	-0.612807	0.462538
C143	C	-0.027803	-0.563235	0.439692
C144	C	-0.004801	-0.538372	0.391885
C145	C	0.123202	-0.412223	0.439871
C146	C	0.149770	-0.389374	0.462878
C147	C	0.199437	-0.341572	0.438075
C148	C	0.228247	-0.316796	0.463017
C149	C	0.222541	-0.316611	0.390264
C150	C	0.195974	-0.339458	0.367259
C151	C	0.146307	-0.387264	0.392063
C152	C	0.123205	-0.412221	0.216073
C153	C	0.149777	-0.389373	0.166497
C154	C	0.199444	-0.341571	0.141635
C155	C	0.228255	-0.316795	0.087883
C156	C	0.222548	-0.316613	0.166340
C157	C	0.195980	-0.339459	0.215914
C158	C	0.146308	-0.387263	0.240779
C159	C	0.117538	-0.073747	-0.367204
C160	C	0.141435	-0.098094	-0.391438
C161	C	0.044944	-0.146333	-0.294613
C162	C	0.068952	-0.170570	-0.318957
C163	C	0.117536	-0.146337	-0.367200
C164	C	0.068953	-0.098090	-0.318960
C165	C	0.123241	0.004709	-0.367018
C166	C	0.149810	0.054282	-0.389869
C167	C	0.199480	0.079143	-0.437671
C168	C	0.228292	0.132895	-0.462450
C169	C	0.222584	0.054435	-0.462631
C170	C	0.196015	0.004864	-0.439782
C171	C	0.146346	-0.019997	-0.391975
C172	C	0.196182	-0.146152	-0.439951
C173	C	0.222906	-0.169003	-0.462956
C174	C	0.199966	-0.216805	-0.438150
C175	C	0.228941	-0.241583	-0.463090
C176	C	0.150296	-0.241763	-0.390340
C177	C	0.123571	-0.218914	-0.367337
C178	C	0.146516	-0.171108	-0.392143
C179	C	-0.027622	-0.146140	-0.216160
C180	C	-0.073477	-0.168985	-0.166583
C181	C	-0.096477	-0.216787	-0.141718
C182	C	-0.146198	-0.241561	-0.087966
C183	C	-0.073627	-0.241747	-0.166421
C184	C	-0.027772	-0.218904	-0.215995
C185	C	-0.004772	-0.171100	-0.240863
C186	C	-0.559087	-0.412008	0.367094
C187	C	-0.582986	-0.460250	0.391332
C188	C	-0.486495	-0.412011	0.294506
C189	C	-0.510504	-0.460253	0.318854
C190	C	-0.559088	-0.484598	0.367097
C191	C	-0.510503	-0.387774	0.318851
C192	C	-0.564788	-0.339255	0.366903
C193	C	-0.591356	-0.316247	0.389752
C194	C	-0.641026	-0.341049	0.437554
C195	C	-0.669837	-0.316106	0.462329
C196	C	-0.664132	-0.388859	0.462516
C197	C	-0.637563	-0.411865	0.439670
C198	C	-0.587894	-0.387063	0.391863
C199	C	-0.637735	-0.563049	0.439851
C200	C	-0.664460	-0.612623	0.462858
C201	C	-0.641521	-0.637487	0.438055
C202	C	-0.670498	-0.691239	0.462998
C203	C	-0.591851	-0.612783	0.390245
C204	C	-0.565125	-0.563211	0.367239
C205	C	-0.588069	-0.538347	0.392042
C206	C	-0.413927	-0.339261	0.216051
C207	C	-0.368073	-0.316259	0.166474
C208	C	-0.345074	-0.341064	0.141612
C209	C	-0.295353	-0.316124	0.087860
C210	C	-0.367925	-0.388872	0.166317
C211	C	-0.413780	-0.411877	0.215892
C212	C	-0.436778	-0.387069	0.240756
C213	C	0.513514	0.249625	-0.367189
C214	C	0.489508	0.249961	-0.391427
C215	C	0.440928	0.249639	-0.294605
C216	C	0.417032	0.249974	-0.318952
C217	C	0.440927	0.249627	-0.367194
C218	C	0.489508	0.249973	-0.318948
C219	C	0.586074	0.243733	-0.366995
C220	C	0.631928	0.240010	-0.389841
C221	C	0.654924	0.238136	-0.437642
C222	C	0.704640	0.234097	-0.462414
C223	C	0.632075	0.239990	-0.462604
C224	C	0.586226	0.243715	-0.439760
C225	C	0.563225	0.245584	-0.391956
C226	C	0.435225	0.243725	-0.439945
C227	C	0.408657	0.240003	-0.462953
C228	C	0.358992	0.238143	-0.438152
C229	C	0.330182	0.234106	-0.463094
C230	C	0.335889	0.240008	-0.390343
C231	C	0.362457	0.243732	-0.367337
C232	C	0.412122	0.245588	-0.392139
C233	C	0.435227	0.243760	-0.216150
C234	C	0.408656	0.240045	-0.166575
C235	C	0.358990	0.238184	-0.141715
C236	C	0.330181	0.234160	-0.087964
C237	C	0.335887	0.240036	-0.166421
C238	C	0.362454	0.243749	-0.215994
C239	C	0.412123	0.245612	-0.240856
O240	O	0.353642	0.290996	-0.562541
O241	O	0.271549	0.150620	-0.504250
O242	O	0.353625	0.232694	-0.504240
O243	O	0.271565	0.208921	-0.562552
O244	O	0.286949	0.232697	-0.437571
O245	O	0.204872	0.150622	-0.437582
O246	O	0.286966	0.290998	-0.495873
Zn247	Zn	0.235333	0.220811	-0.456142
Zn248	Zn	0.323182	0.220807	-0.543981
O249	O	0.204889	0.208924	-0.495884
C250	C	0.117521	0.192028	0.367091
C251	C	0.068941	0.191695	0.391324
C252	C	0.117521	0.192017	0.294502
C253	C	0.068941	0.191683	0.318845
C254	C	0.044935	0.192031	0.367086
C255	C	0.141416	0.191681	0.318849
C256	C	0.196161	0.197916	0.366906
C257	C	0.222885	0.201637	0.389757
C258	C	0.199948	0.203511	0.437557
C259	C	0.228922	0.207547	0.462335
C260	C	0.150282	0.201659	0.462515
C261	C	0.123559	0.197936	0.439666
C262	C	0.146500	0.196067	0.391862
C263	C	-0.027624	0.197935	0.439833
C264	C	-0.073477	0.201659	0.462836
C265	C	-0.096474	0.203521	0.438030
C266	C	-0.146190	0.207561	0.462968
C267	C	-0.073626	0.201656	0.390221
C268	C	-0.027777	0.197931	0.367220
C269	C	-0.004776	0.196072	0.392026
C270	C	0.196160	0.197893	0.216052
C271	C	0.222888	0.201609	0.166476
C272	C	0.199950	0.203471	0.141611
C273	C	0.228924	0.207496	0.087861
C274	C	0.150289	0.201622	0.166313
C275	C	0.123561	0.197908	0.215886
C276	C	0.146499	0.196044	0.240753
H277	H	-0.008914	-0.107205	0.024432
H278	H	-0.092357	-0.280673	-0.146172
Br279	Br	-0.104500	-0.135104	0.016675
H280	H	-0.349468	-0.277331	0.146364
Br281	Br	-0.668914	-0.476744	0.473544
H282	H	0.343643	0.245246	-0.328410
Br283	Br	0.035444	-0.236620	0.030051
H284	H	-0.092379	-0.280672	0.017674
Br285	Br	0.227322	-0.081273	-0.473618
Br286	Br	0.522992	-0.065510	-0.457482
Br287	Br	-0.668873	-0.529305	0.473514
Br288	Br	0.227337	-0.305589	0.249442
H289	H	0.567351	0.245258	-0.328072
H290	H	0.214842	0.196391	0.327982
Br291	Br	0.003214	-0.252770	0.025436
Br292	Br	0.268484	0.237488	-0.356685
Br293	Br	0.523022	0.250906	-0.457505
Br294	Br	0.118409	-0.423248	0.527762
H295	H	0.343637	0.245252	-0.236107
Br296	Br	0.555207	0.246218	-0.473629
H297	H	0.377933	-0.479817	-0.029780
H298	H	-0.490409	-0.479799	0.299306
H299	H	0.475671	0.245279	-0.236392
Br300	Br	0.331139	-0.252748	-0.249880
Br301	Br	-0.104844	0.204180	0.356557
Br302	Br	0.035440	-0.065501	0.030058
Br303	Br	-0.444798	-0.476762	0.249420
Br304	Br	0.502628	0.246244	-0.473606
H305	H	0.262985	-0.277684	0.370072
Br306	Br	0.119147	0.088204	0.016653
Br307	Br	0.502276	-0.081586	-0.473622
H308	H	0.295109	-0.281013	-0.369513
Br309	Br	0.289961	-0.251735	0.132595
H310	H	-0.490437	-0.348148	0.299293
H311	H	0.343587	-0.239282	-0.328064
Br312	Br	-0.731862	-0.646145	0.527742
Br313	Br	0.056156	0.195418	0.473536
Br314	Br	0.227324	-0.305586	0.302379
Br315	Br	0.227384	-0.028662	-0.473641
Br316	Br	0.268475	0.237505	-0.132678
H317	H	0.427475	0.238487	-0.501880
Br318	Br	0.554850	-0.029028	-0.473593
Br319	Br	0.663310	-0.422541	-0.016764
H320	H	0.048852	-0.210211	-0.299410
H321	H	0.048852	0.191137	0.299295
H322	H	0.048864	-0.078540	-0.299417
H323	H	-0.573175	-0.633035	0.370052
H324	H	0.509600	0.250519	-0.299402
Br325	Br	0.331112	-0.529695	-0.025539
H326	H	0.180516	0.191143	0.299303
H327	H	0.567355	-0.319073	-0.024528
Br328	Br	0.351864	-0.236631	-0.286357
Br329	Br	0.290276	0.087820	0.016689
H330	H	-0.432649	-0.319058	0.236294
H331	H	0.426826	-0.149279	-0.501527
H332	H	0.214835	-0.015521	0.024441
Br333	Br	-0.497713	-0.529680	0.302361
Br334	Br	0.035442	-0.492858	0.457414
Br335	Br	0.662930	0.087812	-0.527817
Br336	Br	0.003590	0.195412	0.473500
Br337	Br	0.290308	-0.135132	-0.527840
H338	H	0.427482	-0.632752	-0.017790
Br339	Br	0.663288	0.088191	-0.356656
Br340	Br	0.290281	0.204147	0.355887
Br341	Br	0.502269	-0.081582	-0.249498
H342	H	0.214838	0.196372	0.236297
Br343	Br	0.003565	-0.529333	0.302047
Br344	Br	0.119160	-0.306643	-0.356675
Br345	Br	0.351874	0.250884	-0.286378
Br346	Br	0.056149	-0.028648	0.025429
H347	H	0.180497	-0.078532	0.029700
Br348	Br	-0.336712	-0.422541	0.132574
Br349	Br	0.118451	0.087809	-0.355999
Br350	Br	-0.104484	0.204185	0.527717
Br351	Br	0.056152	-0.252768	0.025424
H352	H	-0.009175	0.196412	0.328294
H353	H	0.048850	0.191152	0.430962
H354	H	-0.622080	-0.479793	0.430971
H355	H	-0.524342	-0.319055	0.327978
Br356	Br	0.440012	0.237533	-0.133049
Br357	Br	0.290284	0.204119	0.132956
Br358	Br	0.662936	0.237498	-0.355966
H359	H	0.048825	-0.479823	0.299329
Br360	Br	0.663291	0.237449	-0.527482
Br361	Br	-0.559997	-0.251366	0.355877
Br362	Br	0.268477	-0.646549	-0.016755
Br363	Br	0.227281	-0.081259	0.025463
Br364	Br	0.003242	-0.252777	-0.249520
H365	H	0.131609	0.203185	0.501440
Br366	Br	0.523006	-0.492845	-0.030165
H367	H	0.083125	0.196403	0.235997
H368	H	0.263311	-0.148659	0.017698
Br369	Br	0.119142	-0.306623	0.016659
Br370	Br	0.439270	-0.135803	-0.132649
Br371	Br	0.522955	-0.065491	-0.286342
Br372	Br	0.555211	-0.028660	-0.302435
Br373	Br	0.268139	-0.306964	-0.133032
Br374	Br	0.522989	-0.321728	-0.030141
Br375	Br	0.119158	0.204153	0.132565
H376	H	0.475673	-0.542826	-0.024534
Br377	Br	-0.731544	-0.422519	0.527396
H378	H	0.427462	-0.277347	-0.017767
Br379	Br	-0.104514	-0.646174	0.355900
Br380	Br	0.056158	-0.252787	-0.302459
Br381	Br	0.502635	-0.305608	-0.025543
H382	H	0.650536	-0.277341	-0.017781
H383	H	-0.092389	-0.633058	0.501465
Br384	Br	0.331088	-0.476776	-0.025505
Br385	Br	0.555234	-0.476763	-0.025540
H386	H	0.295426	-0.409085	-0.017742
H387	H	0.130961	-0.409699	0.146387
Br388	Br	0.206551	-0.321731	0.286302
H389	H	0.082759	-0.451145	0.236317
H390	H	-0.009205	-0.543119	0.460019
Br391	Br	0.055795	-0.477103	0.473535
H392	H	0.180534	-0.078545	-0.431075
Br393	Br	-0.104483	-0.135108	-0.133060
H394	H	-0.008899	-0.107217	-0.236405
H395	H	0.082795	-0.015532	-0.328093
H396	H	0.263033	0.074686	-0.501556
