data_functionalizedCrystal
_audit_creation_method	'MofGen! by Chris Wilmer'
_symmetry_space_group_name_H-M	'P1'
_symmetry_Int_Tables_number	1
_symmetry_cell_setting	triclinic
loop_
_symmetry_equiv_pos_as_xyz
  x,y,z
_cell_length_a	16.956984
_cell_length_b	15.455313
_cell_length_c	16.109301
_cell_angle_alpha	87.337130
_cell_angle_beta	79.757450
_cell_angle_gamma	92.481874
loop_
_atom_site_label
_atom_site_type_symbol
_atom_site_fract_x
_atom_site_fract_y
_atom_site_fract_z
O1	O	1.061527	0.072136	0.030571
O2	O	1.394860	0.405469	0.363904
O3	O	1.728193	0.738802	0.697237
O4	O	0.829362	0.072137	0.059761
O5	O	1.162695	0.405471	0.393094
O6	O	1.496028	0.738804	0.726428
O7	O	0.951822	0.072128	-0.076301
O8	O	1.285155	0.405461	0.257032
O9	O	1.618488	0.738794	0.590366
O10	O	0.939067	0.072145	0.166633
O11	O	1.272400	0.405479	0.499966
O12	O	1.605733	0.738812	0.833300
O13	O	0.944819	-0.072134	-0.068551
O14	O	1.278152	0.261199	0.264783
O15	O	1.611485	0.594533	0.598116
O16	O	0.822359	-0.072124	0.067512
O17	O	1.155692	0.261209	0.400845
O18	O	1.489025	0.594542	0.734178
O19	O	1.054524	-0.072126	0.038321
O20	O	1.387857	0.261207	0.371655
O21	O	1.721191	0.594541	0.704988
Cu22	Cu	0.937802	-0.085297	0.053624
Cu23	Cu	1.271135	0.248036	0.386958
Cu24	Cu	1.604469	0.581369	0.720291
Cu25	Cu	0.946084	0.085309	0.044458
Cu26	Cu	1.279417	0.418642	0.377792
Cu27	Cu	1.612750	0.751975	0.711125
O28	O	0.932064	-0.072116	0.174384
O29	O	1.265397	0.261217	0.507717
O30	O	1.598731	0.594550	0.841050
C31	C	0.796152	0.000007	0.065131
C32	C	1.129485	0.333340	0.398464
C33	C	1.462818	0.666673	0.731798
C34	C	0.707630	0.000007	0.069575
C35	C	1.040963	0.333340	0.402908
C36	C	1.374297	0.666674	0.736242
N37	N	0.931983	-0.205292	0.060070
N38	N	1.265316	0.128041	0.393403
N39	N	1.598650	0.461374	0.726737
C40	C	0.675565	-0.000000	-0.004727
C41	C	1.008898	0.333333	0.328606
C42	C	1.342231	0.666667	0.661939
C43	C	0.592389	0.000006	-0.000547
C44	C	0.925722	0.333340	0.332786
C45	C	1.259055	0.666673	0.666120
C46	C	0.541279	0.000014	0.077937
C47	C	0.874612	0.333347	0.411270
C48	C	1.207946	0.666680	0.744603
C49	C	0.573350	0.000023	0.152244
C50	C	0.906683	0.333357	0.485578
C51	C	1.240016	0.666690	0.818911
C52	C	0.656524	0.000023	0.148063
C53	C	0.989858	0.333356	0.481396
C54	C	1.323191	0.666690	0.814730
C55	C	0.291501	0.000021	0.098633
C56	C	0.624835	0.333355	0.431967
C57	C	0.958168	0.666688	0.765300
C58	C	0.208321	0.000019	0.102809
C59	C	0.541655	0.333352	0.436143
C60	C	0.874988	0.666686	0.769476
C61	C	0.227366	0.000004	-0.049983
C62	C	0.560700	0.333337	0.283350
C63	C	0.894033	0.666670	0.616684
C64	C	0.310542	-0.000002	-0.054157
C65	C	0.643875	0.333331	0.279176
C66	C	0.977208	0.666665	0.612510
C67	C	0.342605	0.000012	0.020150
C68	C	0.675938	0.333346	0.353484
C69	C	1.009272	0.666679	0.686817
N70	N	0.456259	0.000018	0.082211
N71	N	0.789593	0.333351	0.415545
N72	N	1.122926	0.666684	0.748878
N73	N	0.427624	0.000015	0.015874
N74	N	0.760957	0.333348	0.349208
N75	N	1.094290	0.666681	0.682541
C76	C	0.984026	-0.250691	0.002285
C77	C	1.317360	0.082643	0.335618
C78	C	1.650693	0.415976	0.668951
C79	C	0.979633	-0.341498	0.007167
C80	C	1.312966	-0.008165	0.340500
C81	C	1.646300	0.325168	0.673833
C82	C	0.923199	-0.386906	0.069838
C83	C	1.256533	-0.053573	0.403172
C84	C	1.589866	0.279761	0.736505
C85	C	0.871151	-0.341501	0.127626
C86	C	1.204484	-0.008168	0.460960
C87	C	1.537817	0.325165	0.794293
C88	C	0.875541	-0.250695	0.122740
C89	C	1.208874	0.082638	0.456073
C90	C	1.542207	0.415971	0.789407
C91	C	0.904250	-0.658486	0.090907
C92	C	1.237584	-0.325152	0.424240
C93	C	1.570917	0.008181	0.757574
C94	C	0.899866	-0.749298	0.095791
C95	C	1.233199	-0.415965	0.429124
C96	C	1.566532	-0.082631	0.762457
C97	C	1.008347	-0.749289	-0.024671
C98	C	1.341681	-0.415955	0.308663
C99	C	1.675014	-0.082622	0.641996
C100	C	1.012736	-0.658481	-0.029548
C101	C	1.346069	-0.325148	0.303785
C102	C	1.679402	0.008186	0.637118
C103	C	0.960684	-0.613084	0.028237
C104	C	1.294017	-0.279751	0.361570
C105	C	1.627351	0.053582	0.694904
N106	N	0.918709	-0.479726	0.074832
N107	N	1.252042	-0.146392	0.408165
N108	N	1.585376	0.186941	0.741498
N109	N	0.965171	-0.520266	0.023239
N110	N	1.298505	-0.186933	0.356573
N111	N	1.631838	0.146400	0.689906
C112	C	1.087734	0.000007	0.032951
C113	C	1.421067	0.333340	0.366285
C114	C	1.754401	0.666673	0.699618
C115	C	1.176256	0.000012	0.028507
C116	C	1.509589	0.333345	0.361840
C117	C	1.842923	0.666679	0.695174
N118	N	0.951909	0.205304	0.038005
N119	N	1.285242	0.538637	0.371339
N120	N	1.618576	0.871970	0.704672
C121	C	0.947803	-0.000004	-0.103365
C122	C	1.281137	0.333330	0.229968
C123	C	1.614470	0.666663	0.563301
C124	C	0.946254	-0.000005	-0.195555
C125	C	1.279588	0.333328	0.137779
C126	C	1.612921	0.666662	0.471112
C127	C	1.015319	0.000008	-0.422555
C128	C	1.348652	0.333342	-0.089222
C129	C	1.681985	0.666675	0.244112
C130	C	1.013857	0.000016	-0.509176
C131	C	1.347191	0.333349	-0.175842
C132	C	1.680524	0.666682	0.157491
C133	C	0.868562	0.000013	-0.479356
C134	C	1.201895	0.333346	-0.146023
C135	C	1.535229	0.666680	0.187311
C136	C	0.870024	0.000012	-0.392737
C137	C	1.203358	0.333346	-0.059404
C138	C	1.536691	0.666679	0.273929
C139	C	0.943405	0.000005	-0.364339
C140	C	1.276738	0.333339	-0.031006
C141	C	1.610072	0.666672	0.302327
C142	C	0.940481	0.000013	-0.537579
C143	C	1.273814	0.333347	-0.204245
C144	C	1.607148	0.666680	0.129088
C145	C	0.938896	0.000021	-0.631497
C146	C	1.272229	0.333355	-0.298163
C147	C	1.605563	0.666688	0.035170
C148	C	0.944990	-0.000001	-0.270416
C149	C	1.278324	0.333333	0.062918
C150	C	1.611657	0.666666	0.396251
C151	C	0.936082	0.000017	0.201448
C152	C	1.269416	0.333350	0.534781
C153	C	1.602749	0.666684	0.868114
C154	C	0.937632	0.000024	0.293637
C155	C	1.270965	0.333357	0.626970
C156	C	1.604298	0.666690	0.960303
H157	H	0.717173	-0.000010	-0.068637
H158	H	1.050506	0.333324	0.264696
H159	H	1.383840	0.666657	0.598029
F160	F	1.035022	-0.389815	-0.054336
F161	F	1.368356	-0.056481	0.278998
F162	F	1.701689	0.276852	0.612331
H163	H	0.531730	0.000035	0.216147
H164	H	0.865063	0.333368	0.549480
H165	H	1.198396	0.666702	0.882814
F166	F	0.558268	0.000019	-0.079631
F167	F	0.891601	0.333352	0.253702
F168	F	1.224934	0.666686	0.587035
H169	H	0.811460	0.000012	-0.345335
H170	H	1.144794	0.333346	-0.012002
H171	H	1.478127	0.666679	0.321332
H172	H	0.352150	-0.000012	-0.118067
H173	H	0.685484	0.333322	0.215267
H174	H	1.018817	0.666655	0.548600
H175	H	0.166708	0.000021	0.166724
H176	H	0.500042	0.333354	0.500057
H177	H	0.833375	0.666687	0.833390
F178	F	0.193236	-0.000008	-0.129061
F179	F	0.526569	0.333325	0.204273
F180	F	0.859902	0.666658	0.537606
H181	H	0.682630	0.000025	0.208568
H182	H	1.015963	0.333358	0.541901
H183	H	1.349296	0.666691	0.875235
F184	F	0.839798	-0.797619	0.162500
F185	F	1.173132	-0.464285	0.495833
F186	F	1.506465	-0.130952	0.829167
H187	H	0.825197	-0.378477	0.178653
H188	H	1.158531	-0.045144	0.511986
H189	H	1.491864	0.288189	0.845319
H190	H	1.058688	-0.621512	-0.080580
H191	H	1.392022	-0.288179	0.252753
H192	H	1.725355	0.045155	0.586086
H193	H	1.029984	-0.213726	-0.048746
H194	H	1.363317	0.119608	0.284588
H195	H	1.696650	0.452941	0.617921
F196	F	0.848856	-0.610178	0.152408
F197	F	1.182189	-0.276845	0.485741
F198	F	1.515522	0.056488	0.819075
H199	H	0.833161	-0.213733	0.169794
H200	H	1.166494	0.119600	0.503127
H201	H	1.499827	0.452934	0.836461
F202	F	1.093416	0.000002	-0.392335
F203	F	1.426750	0.333335	-0.059001
F204	F	1.760083	0.666669	0.274332
F205	F	1.063739	-0.797609	-0.086168
F206	F	1.397072	-0.464275	0.247166
F207	F	1.730406	-0.130942	0.580499
F208	F	1.090398	0.000020	-0.571130
F209	F	1.423731	0.333354	-0.237797
F210	F	1.757065	0.666687	0.095536
H211	H	0.808818	0.000017	-0.502489
H212	H	1.142151	0.333350	-0.169155
H213	H	1.475485	0.666684	0.164178
H214	H	0.317597	0.000039	0.159139
H215	H	0.650931	0.333372	0.492473
H216	H	0.984264	0.666705	0.825806
