data_functionalizedCrystal
_audit_creation_method	'MofGen! by Chris Wilmer'
_symmetry_space_group_name_H-M	'P1'
_symmetry_Int_Tables_number	1
_symmetry_cell_setting	triclinic
loop_
_symmetry_equiv_pos_as_xyz
  x,y,z
_cell_length_a	29.839134
_cell_length_b	29.839131
_cell_length_c	21.295412
_cell_angle_alpha	89.970612
_cell_angle_beta	89.964443
_cell_angle_gamma	90.034165
loop_
_atom_site_label
_atom_site_type_symbol
_atom_site_fract_x
_atom_site_fract_y
_atom_site_fract_z
Zn1	Zn	0.686769	-0.178951	-0.356119
Zn2	Zn	0.936769	0.071049	-0.106119
Zn3	Zn	1.186769	0.321049	0.143881
Zn4	Zn	1.436769	0.571049	0.393881
Zn5	Zn	0.686687	-0.254079	-0.250847
Zn6	Zn	0.936687	-0.004079	-0.000847
Zn7	Zn	1.186687	0.245921	0.249153
Zn8	Zn	1.436687	0.495921	0.499153
Zn9	Zn	0.611638	-0.178954	-0.250842
Zn10	Zn	0.861638	0.071046	-0.000842
Zn11	Zn	1.111638	0.321046	0.249158
Zn12	Zn	1.361638	0.571046	0.499158
Zn13	Zn	0.611600	-0.254046	-0.356057
Zn14	Zn	0.861600	-0.004046	-0.106057
Zn15	Zn	1.111600	0.245954	0.143943
Zn16	Zn	1.361600	0.495954	0.393943
O17	O	0.649173	-0.216507	-0.303466
O18	O	0.899173	0.033493	-0.053466
O19	O	1.149173	0.283493	0.196534
O20	O	1.399173	0.533493	0.446534
O21	O	0.749626	-0.188930	-0.342183
O22	O	0.999626	0.061070	-0.092183
O23	O	1.249626	0.311070	0.157817
O24	O	1.499626	0.561070	0.407817
O25	O	0.676713	-0.244128	-0.162757
O26	O	0.926713	0.005872	0.087243
O27	O	1.176713	0.255872	0.337243
O28	O	1.426713	0.505872	0.587243
O29	O	0.621654	-0.116087	-0.264832
O30	O	0.871654	0.133913	-0.014832
O31	O	1.121654	0.383913	0.235168
O32	O	1.371654	0.633913	0.485168
O33	O	0.749565	-0.244126	-0.264840
O34	O	0.999565	0.005874	-0.014840
O35	O	1.249565	0.255874	0.235160
O36	O	1.499565	0.505874	0.485160
O37	O	0.676853	-0.116085	-0.342178
O38	O	0.926853	0.133915	-0.092178
O39	O	1.176853	0.383915	0.157822
O40	O	1.426853	0.633915	0.407822
O41	O	0.621574	-0.188935	-0.162753
O42	O	0.871574	0.061065	0.087247
O43	O	1.121574	0.311065	0.337247
O44	O	1.371574	0.561065	0.587247
O45	O	0.548765	-0.188902	-0.264771
O46	O	0.798765	0.061098	-0.014771
O47	O	1.048765	0.311098	0.235229
O48	O	1.298765	0.561098	0.485229
O49	O	0.621590	-0.244069	-0.444154
O50	O	0.871590	0.005931	-0.194154
O51	O	1.121590	0.255931	0.055846
O52	O	1.371590	0.505931	0.305846
O53	O	0.548738	-0.244072	-0.342071
O54	O	0.798738	0.005928	-0.092071
O55	O	1.048738	0.255928	0.157929
O56	O	1.298738	0.505928	0.407929
O57	O	0.676817	-0.188898	-0.444200
O58	O	0.926817	0.061102	-0.194200
O59	O	1.176817	0.311102	0.055800
O60	O	1.426817	0.561102	0.305800
O61	O	0.676676	-0.316941	-0.264779
O62	O	0.926676	-0.066941	-0.014779
O63	O	1.176676	0.183059	0.235221
O64	O	1.426676	0.433059	0.485221
O65	O	0.621510	-0.316917	-0.342076
O66	O	0.871510	-0.066917	-0.092076
O67	O	1.121510	0.183083	0.157924
O68	O	1.371510	0.433083	0.407924
C69	C	0.532451	-0.216484	-0.303414
C70	C	0.782451	0.033516	-0.053414
C71	C	1.032451	0.283516	0.196586
C72	C	1.282451	0.533516	0.446586
C73	C	0.482517	-0.216485	-0.303407
C74	C	0.732517	0.033515	-0.053407
C75	C	0.982517	0.283515	0.196593
C76	C	1.232517	0.533515	0.446593
C77	C	0.125931	-0.187738	-0.263298
C78	C	0.375931	0.062262	-0.013298
C79	C	0.625931	0.312262	0.236702
C80	C	0.875931	0.562262	0.486702
C81	C	0.313604	-0.187726	-0.263260
C82	C	0.563604	0.062274	-0.013260
C83	C	0.813604	0.312274	0.236740
C84	C	1.063604	0.562274	0.486740
O85	O	0.337870	-0.163246	-0.229099
O86	O	0.587870	0.086754	0.020901
O87	O	0.837870	0.336754	0.270901
O88	O	1.087870	0.586754	0.520901
N89	N	0.337071	-0.216492	-0.303438
N90	N	0.587071	0.033508	-0.053438
N91	N	0.837071	0.283508	0.196562
N92	N	1.087071	0.533508	0.446562
C93	C	0.313617	-0.245262	-0.343632
C94	C	0.563617	0.004738	-0.093632
C95	C	0.813617	0.254738	0.156368
C96	C	1.063617	0.504738	0.406368
O97	O	0.337884	-0.269726	-0.377811
O98	O	0.587884	-0.019726	-0.127811
O99	O	0.837884	0.230274	0.122189
O100	O	1.087884	0.480274	0.372189
C101	C	0.125945	-0.245272	-0.343673
C102	C	0.375945	0.004728	-0.093673
C103	C	0.625945	0.254728	0.156327
C104	C	0.875945	0.504728	0.406327
C105	C	0.102480	-0.216507	-0.303488
C106	C	0.352480	0.033493	-0.053488
C107	C	0.602480	0.283493	0.196512
C108	C	0.852480	0.533493	0.446512
C109	C	0.102466	-0.158975	-0.223116
C110	C	0.352466	0.091025	0.026884
C111	C	0.602466	0.341025	0.276884
C112	C	0.852466	0.591025	0.526884
C113	C	0.055551	-0.158980	-0.223123
C114	C	0.305551	0.091020	0.026877
C115	C	0.555551	0.341020	0.276877
C116	C	0.805551	0.591020	0.526877
C117	C	0.032100	-0.187749	-0.263313
C118	C	0.282100	0.062251	-0.013313
C119	C	0.532100	0.312251	0.236687
C120	C	0.782100	0.562251	0.486687
C121	C	0.055565	-0.216512	-0.303495
C122	C	0.305565	0.033488	-0.053495
C123	C	0.555565	0.283488	0.196505
C124	C	0.805565	0.533488	0.446505
C125	C	0.102492	-0.274039	-0.383870
C126	C	0.352492	-0.024039	-0.133870
C127	C	0.602492	0.225961	0.116130
C128	C	0.852492	0.475961	0.366130
C129	C	0.055571	-0.274038	-0.383878
C130	C	0.305571	-0.024038	-0.133878
C131	C	0.555571	0.225962	0.116122
C132	C	0.805571	0.475962	0.366122
C133	C	0.032106	-0.245273	-0.343692
C134	C	0.282106	0.004727	-0.093692
C135	C	0.532106	0.254727	0.156308
C136	C	0.782106	0.504727	0.406308
C137	C	-0.014801	-0.245286	-0.343692
C138	C	0.235199	0.004714	-0.093692
C139	C	0.485199	0.254714	0.156308
C140	C	0.735199	0.504714	0.406308
N141	N	-0.038268	-0.216519	-0.303514
N142	N	0.211732	0.033481	-0.053514
N143	N	0.461732	0.283481	0.196486
N144	N	0.711732	0.533481	0.446486
C145	C	-0.014818	-0.187751	-0.263324
C146	C	0.235182	0.062249	-0.013324
C147	C	0.485182	0.312249	0.236676
C148	C	0.735182	0.562249	0.486676
C149	C	0.412148	-0.245255	-0.343607
C150	C	0.662148	0.004745	-0.093607
C151	C	0.912148	0.254745	0.156393
C152	C	1.162148	0.504745	0.406393
C153	C	0.459066	-0.245253	-0.343596
C154	C	0.709066	0.004747	-0.093596
C155	C	0.959066	0.254747	0.156404
C156	C	1.209066	0.504747	0.406404
C157	C	0.459049	-0.187716	-0.263224
C158	C	0.709049	0.062284	-0.013224
C159	C	0.959049	0.312284	0.236776
C160	C	1.209049	0.562284	0.486776
C161	C	0.412131	-0.187721	-0.263232
C162	C	0.662131	0.062279	-0.013232
C163	C	0.912131	0.312279	0.236768
C164	C	1.162131	0.562279	0.486768
C165	C	0.388681	-0.216489	-0.303429
C166	C	0.638681	0.033511	-0.053429
C167	C	0.888681	0.283511	0.196571
C168	C	1.138681	0.533511	0.446571
C169	C	-0.113343	-0.187764	-0.263342
C170	C	0.136657	0.062236	-0.013342
C171	C	0.386657	0.312236	0.236658
C172	C	0.636657	0.562236	0.486658
C173	C	-0.160263	-0.187773	-0.263352
C174	C	0.089737	0.062227	-0.013352
C175	C	0.339737	0.312227	0.236648
C176	C	0.589737	0.562227	0.486648
C177	C	-0.160243	-0.245308	-0.343726
C178	C	0.089757	0.004692	-0.093726
C179	C	0.339757	0.254692	0.156274
C180	C	0.589757	0.504692	0.406274
C181	C	-0.113327	-0.245301	-0.343714
C182	C	0.136673	0.004699	-0.093714
C183	C	0.386673	0.254699	0.156286
C184	C	0.636673	0.504699	0.406286
C185	C	-0.089879	-0.216525	-0.303521
C186	C	0.160121	0.033475	-0.053521
C187	C	0.410121	0.283475	0.196479
C188	C	0.660121	0.533475	0.446479
O189	O	-0.039096	-0.269749	-0.377840
O190	O	0.210904	-0.019749	-0.127840
O191	O	0.460904	0.230251	0.122160
O192	O	0.710904	0.480251	0.372160
O193	O	-0.039092	-0.163283	-0.229161
O194	O	0.210908	0.086717	0.020839
O195	O	0.460908	0.336717	0.270839
O196	O	0.710908	0.586717	0.520839
C197	C	0.172847	-0.187733	-0.263290
C198	C	0.422847	0.062267	-0.013290
C199	C	0.672847	0.312267	0.236710
C200	C	0.922847	0.562267	0.486710
C201	C	0.196311	-0.216496	-0.303472
C202	C	0.446311	0.033504	-0.053472
C203	C	0.696311	0.283504	0.196528
C204	C	0.946311	0.533504	0.446528
C205	C	0.172861	-0.245265	-0.343662
C206	C	0.422861	0.004735	-0.093662
C207	C	0.672861	0.254735	0.156338
C208	C	0.922861	0.504735	0.406338
C209	C	0.243229	-0.216495	-0.303462
C210	C	0.493229	0.033505	-0.053462
C211	C	0.743229	0.283505	0.196538
C212	C	0.993229	0.533505	0.446538
C213	C	0.266680	-0.187726	-0.263272
C214	C	0.516680	0.062274	-0.013272
C215	C	0.766680	0.312274	0.236728
C216	C	1.016680	0.562274	0.486728
C217	C	0.243213	-0.158959	-0.223093
C218	C	0.493213	0.091041	0.026907
C219	C	0.743213	0.341041	0.276907
C220	C	0.993213	0.591041	0.526907
C221	C	0.196297	-0.158965	-0.223101
C222	C	0.446297	0.091035	0.026899
C223	C	0.696297	0.341035	0.276899
C224	C	0.946297	0.591035	0.526899
C225	C	0.196328	-0.274031	-0.383841
C226	C	0.446328	-0.024031	-0.133841
C227	C	0.696328	0.225969	0.116159
C228	C	0.946328	0.475969	0.366159
C229	C	0.243243	-0.274024	-0.383829
C230	C	0.493243	-0.024024	-0.133829
C231	C	0.743243	0.225976	0.116171
C232	C	0.993243	0.475976	0.366171
C233	C	0.266694	-0.245256	-0.343640
C234	C	0.516694	0.004744	-0.093640
C235	C	0.766694	0.254744	0.156360
C236	C	1.016694	0.504744	0.406360
C237	C	0.649092	-0.333230	-0.303435
C238	C	0.899092	-0.083230	-0.053435
C239	C	1.149092	0.166770	0.196565
C240	C	1.399092	0.416770	0.446565
C241	C	0.649099	-0.383164	-0.303443
C242	C	0.899099	-0.133164	-0.053443
C243	C	1.149099	0.116836	0.196557
C244	C	1.399099	0.366836	0.446557
C245	C	0.677951	-0.692808	-0.263276
C246	C	0.927951	-0.442808	-0.013276
C247	C	1.177951	-0.192808	0.236724
C248	C	1.427951	0.057192	0.486724
C249	C	0.678006	-0.880481	-0.263301
C250	C	0.928006	-0.630481	-0.013301
C251	C	1.178006	-0.380481	0.236699
C252	C	1.428006	-0.130481	0.486699
O253	O	0.702473	-0.904746	-0.229126
O254	O	0.952473	-0.654746	0.020874
O255	O	1.202473	-0.404746	0.270874
O256	O	1.452473	-0.154746	0.520874
N257	N	0.649267	-0.903949	-0.303514
N258	N	0.899267	-0.653949	-0.053514
N259	N	1.149267	-0.403949	0.196486
N260	N	1.399267	-0.153949	0.446486
C261	C	0.620513	-0.880497	-0.343726
C262	C	0.870513	-0.630497	-0.093726
C263	C	1.120513	-0.380497	0.156274
C264	C	1.370513	-0.130497	0.406274
O265	O	0.596073	-0.904765	-0.377935
O266	O	0.846073	-0.654765	-0.127935
O267	O	1.096073	-0.404765	0.122065
O268	O	1.346073	-0.154765	0.372065
C269	C	0.620460	-0.692825	-0.343704
C270	C	0.870460	-0.442825	-0.093704
C271	C	1.120460	-0.192825	0.156296
C272	C	1.370460	0.057175	0.406296
C273	C	0.649199	-0.669359	-0.303484
C274	C	0.899199	-0.419359	-0.053484
C275	C	1.149199	-0.169359	0.196516
C276	C	1.399199	0.080641	0.446516
C277	C	0.706687	-0.669342	-0.223060
C278	C	0.956687	-0.419342	0.026940
C279	C	1.206687	-0.169342	0.276940
C280	C	1.456687	0.080658	0.526940
C281	C	0.706671	-0.622426	-0.223052
C282	C	0.956671	-0.372426	0.026948
C283	C	1.206671	-0.122426	0.276948
C284	C	1.456671	0.127574	0.526948
C285	C	0.677919	-0.598977	-0.263260
C286	C	0.927919	-0.348977	-0.013260
C287	C	1.177919	-0.098977	0.236740
C288	C	1.427919	0.151023	0.486740
C289	C	0.649183	-0.622443	-0.303476
C290	C	0.899183	-0.372443	-0.053476
C291	C	1.149183	-0.122443	0.196524
C292	C	1.399183	0.127557	0.446524
C293	C	0.591710	-0.669373	-0.383920
C294	C	0.841710	-0.419373	-0.133920
C295	C	1.091710	-0.169373	0.116080
C296	C	1.341710	0.080627	0.366080
C297	C	0.591700	-0.622452	-0.383912
C298	C	0.841700	-0.372452	-0.133912
C299	C	1.091700	-0.122452	0.116088
C300	C	1.341700	0.127548	0.366088
C301	C	0.620438	-0.598986	-0.343692
C302	C	0.870438	-0.348986	-0.093692
C303	C	1.120438	-0.098986	0.156308
C304	C	1.370438	0.151014	0.406308
C305	C	0.620415	-0.552078	-0.343676
C306	C	0.870415	-0.302078	-0.093676
C307	C	1.120415	-0.052078	0.156324
C308	C	1.370415	0.197922	0.406324
N309	N	0.649154	-0.528610	-0.303463
N310	N	0.899154	-0.278610	-0.053463
N311	N	1.149154	-0.028610	0.196537
N312	N	1.399154	0.221390	0.446537
C313	C	0.677906	-0.552059	-0.263255
C314	C	0.927906	-0.302059	-0.013255
C315	C	1.177906	-0.052059	0.236745
C316	C	1.427906	0.197941	0.486745
C317	C	0.620542	-0.979028	-0.343734
C318	C	0.870542	-0.729028	-0.093734
C319	C	1.120542	-0.479028	0.156266
C320	C	1.370542	-0.229028	0.406266
C321	C	0.620555	-1.025945	-0.343739
C322	C	0.870555	-0.775945	-0.093739
C323	C	1.120555	-0.525945	0.156261
C324	C	1.370555	-0.275945	0.406261
C325	C	0.678049	-1.025926	-0.263314
C326	C	0.928049	-0.775926	-0.013314
C327	C	1.178049	-0.525926	0.236686
C328	C	1.428049	-0.275926	0.486686
C329	C	0.678033	-0.979007	-0.263307
C330	C	0.928033	-0.729007	-0.013307
C331	C	1.178033	-0.479007	0.236693
C332	C	1.428033	-0.229007	0.486693
C333	C	0.649282	-0.955559	-0.303521
C334	C	0.899282	-0.705559	-0.053521
C335	C	1.149282	-0.455559	0.196479
C336	C	1.399282	-0.205559	0.446479
C337	C	0.677871	-0.453533	-0.263241
C338	C	0.927871	-0.203533	-0.013241
C339	C	1.177871	0.046467	0.236759
C340	C	1.427871	0.296467	0.486759
C341	C	0.677851	-0.406614	-0.263235
C342	C	0.927851	-0.156614	-0.013235
C343	C	1.177851	0.093386	0.236765
C344	C	1.427851	0.343386	0.486765
C345	C	0.620359	-0.406637	-0.343661
C346	C	0.870359	-0.156637	-0.093661
C347	C	1.120359	0.093363	0.156339
C348	C	1.370359	0.343363	0.406339
C349	C	0.620377	-0.453553	-0.343666
C350	C	0.870377	-0.203553	-0.093666
C351	C	1.120377	0.046447	0.156334
C352	C	1.370377	0.296447	0.406334
C353	C	0.649136	-0.477000	-0.303453
C354	C	0.899136	-0.227000	-0.053453
C355	C	1.149136	0.023000	0.196547
C356	C	1.399136	0.273000	0.446547
O357	O	0.595965	-0.527785	-0.377838
O358	O	0.845965	-0.277785	-0.127838
O359	O	1.095965	-0.027785	0.122162
O360	O	1.345965	0.222215	0.372162
O361	O	0.702350	-0.527783	-0.229062
O362	O	0.952350	-0.277783	0.020938
O363	O	1.202350	-0.027783	0.270938
O364	O	1.452350	0.222217	0.520938
C365	C	0.677967	-0.739723	-0.263285
C366	C	0.927967	-0.489723	-0.013285
C367	C	1.177967	-0.239723	0.236715
C368	C	1.427967	0.010277	0.486715
C369	C	0.649230	-0.763190	-0.303501
C370	C	0.899230	-0.513190	-0.053501
C371	C	1.149230	-0.263190	0.196499
C372	C	1.399230	-0.013190	0.446499
C373	C	0.620478	-0.739740	-0.343709
C374	C	0.870478	-0.489740	-0.093709
C375	C	1.120478	-0.239740	0.156291
C376	C	1.370478	0.010260	0.406291
C377	C	0.649243	-0.810107	-0.303505
C378	C	0.899243	-0.560107	-0.053505
C379	C	1.149243	-0.310107	0.196495
C380	C	1.399243	-0.060107	0.446495
C381	C	0.677995	-0.833557	-0.263297
C382	C	0.927995	-0.583557	-0.013297
C383	C	1.177995	-0.333557	0.236703
C384	C	1.427995	-0.083557	0.486703
C385	C	0.706734	-0.810088	-0.223085
C386	C	0.956734	-0.560088	0.026915
C387	C	1.206734	-0.310088	0.276915
C388	C	1.456734	-0.060088	0.526915
C389	C	0.706719	-0.763173	-0.223077
C390	C	0.956719	-0.513173	0.026923
C391	C	1.206719	-0.263173	0.276923
C392	C	1.456719	-0.013173	0.526923
C393	C	0.591739	-0.763209	-0.383922
C394	C	0.841739	-0.513209	-0.133922
C395	C	1.091739	-0.263209	0.116078
C396	C	1.341739	-0.013209	0.366078
C397	C	0.591757	-0.810124	-0.383926
C398	C	0.841757	-0.560124	-0.133926
C399	C	1.091757	-0.310124	0.116074
C400	C	1.341757	-0.060124	0.366074
C401	C	0.620509	-0.833574	-0.343718
C402	C	0.870509	-0.583574	-0.093718
C403	C	1.120509	-0.333574	0.156282
C404	C	1.370509	-0.083574	0.406282
C405	C	0.766352	-0.216531	-0.303519
C406	C	1.016352	0.033469	-0.053519
C407	C	1.266352	0.283469	0.196481
C408	C	1.516352	0.533469	0.446481
C409	C	0.816286	-0.216541	-0.303541
C410	C	1.066286	0.033459	-0.053541
C411	C	1.316286	0.283459	0.196459
C412	C	1.566286	0.533459	0.446459
C413	C	0.649209	-0.216480	-0.467657
C414	C	0.899209	0.033520	-0.217657
C415	C	1.149209	0.283520	0.032343
C416	C	1.399209	0.533520	0.282343
C417	C	0.649224	-0.216468	-0.537625
C418	C	0.899224	0.033532	-0.287625
C419	C	1.149224	0.283532	-0.037625
C420	C	1.399224	0.533532	0.212375
C421	C	0.649267	-0.099329	-0.303511
C422	C	0.899267	0.150671	-0.053511
C423	C	1.149267	0.400671	0.196489
C424	C	1.399267	0.650671	0.446489
C425	C	0.649307	-0.049395	-0.303531
C426	C	0.899307	0.200605	-0.053531
C427	C	1.149307	0.450605	0.196469
C428	C	1.399307	0.700605	0.446469
C429	C	0.620521	-0.187725	-0.570480
C430	C	0.870521	0.062275	-0.320480
C431	C	1.120521	0.312275	-0.070480
C432	C	1.370521	0.562275	0.179520
C433	C	0.620519	-0.187717	-0.636222
C434	C	0.870519	0.062283	-0.386222
C435	C	1.120519	0.312283	-0.136222
C436	C	1.370519	0.562283	0.113778
C437	C	0.649228	-0.216446	-0.669107
C438	C	0.899228	0.033554	-0.419107
C439	C	1.149228	0.283554	-0.169107
C440	C	1.399228	0.533554	0.080893
C441	C	0.677933	-0.245194	-0.636244
C442	C	0.927933	0.004806	-0.386244
C443	C	1.177933	0.254806	-0.136244
C444	C	1.427933	0.504806	0.113756
C445	C	0.677931	-0.245205	-0.570503
C446	C	0.927931	0.004795	-0.320503
C447	C	1.177931	0.254795	-0.070503
C448	C	1.427931	0.504795	0.179497
N449	N	0.688554	-0.219882	-0.772357
N450	N	0.938554	0.030118	-0.522357
N451	N	1.188554	0.280118	-0.272357
N452	N	1.438554	0.530118	-0.022357
N453	N	0.688555	-0.219869	-0.834809
N454	N	0.938555	0.030131	-0.584809
N455	N	1.188555	0.280131	-0.334809
N456	N	1.438555	0.530131	-0.084809
C457	C	0.649237	-0.216416	-0.867182
C458	C	0.899237	0.033584	-0.617182
C459	C	1.149237	0.283584	-0.367182
C460	C	1.399237	0.533584	-0.117182
N461	N	0.609916	-0.212968	-0.834745
N462	N	0.859916	0.037032	-0.584745
N463	N	1.109916	0.287032	-0.334745
N464	N	1.359916	0.537032	-0.084745
N465	N	0.609916	-0.212978	-0.772288
N466	N	0.859916	0.037022	-0.522288
N467	N	1.109916	0.287022	-0.272288
N468	N	1.359916	0.537022	-0.022288
C469	C	0.649234	-0.216438	-0.740393
C470	C	0.899234	0.033562	-0.490393
C471	C	1.149234	0.283562	-0.240393
C472	C	1.399234	0.533562	0.009607
C473	C	0.620530	-0.187663	-0.971323
C474	C	0.870530	0.062337	-0.721323
C475	C	1.120530	0.312337	-0.471323
C476	C	1.370530	0.562337	-0.221323
C477	C	0.620527	-0.187658	-1.037066
C478	C	0.870527	0.062342	-0.787066
C479	C	1.120527	0.312342	-0.537066
C480	C	1.370527	0.562342	-0.287066
C481	C	0.677946	-0.245133	-1.037087
C482	C	0.927946	0.004867	-0.787087
C483	C	1.177946	0.254867	-0.537087
C484	C	1.427946	0.504867	-0.287087
C485	C	0.677944	-0.245141	-0.971345
C486	C	0.927944	0.004859	-0.721345
C487	C	1.177944	0.254859	-0.471345
C488	C	1.427944	0.504859	-0.221345
C489	C	0.649237	-0.216403	-0.938466
C490	C	0.899237	0.033597	-0.688466
C491	C	1.149237	0.283597	-0.438466
C492	C	1.399237	0.533597	-0.188466
C493	C	0.649164	-0.216503	-0.139915
C494	C	0.899164	0.033497	0.110085
C495	C	1.149164	0.283497	0.360085
C496	C	1.399164	0.533497	0.610085
C497	C	0.649236	-0.216388	-0.069947
C498	C	0.899236	0.033612	0.180053
C499	C	1.149236	0.283612	0.430053
C500	C	1.399236	0.533612	0.680053
H501	H	0.036450	-0.135556	-0.190400
H502	H	0.286450	0.114444	0.059600
H503	H	0.536450	0.364444	0.309600
H504	H	0.786450	0.614444	0.559600
Cl505	Cl	0.584439	-0.151539	-0.929987
Cl506	Cl	0.834439	0.098461	-0.679987
Cl507	Cl	1.084439	0.348461	-0.429987
Cl508	Cl	1.334439	0.598461	-0.179987
Cl509	Cl	0.272736	-0.310192	-0.434351
Cl510	Cl	0.522736	-0.060192	-0.184351
Cl511	Cl	0.772736	0.189808	0.065649
Cl512	Cl	1.022736	0.439808	0.315649
H513	H	0.177197	-0.135541	-0.190378
H514	H	0.427197	0.114459	0.059622
H515	H	0.677197	0.364459	0.309622
H516	H	0.927197	0.614459	0.559622
H517	H	0.121555	-0.135546	-0.190389
H518	H	0.371555	0.114454	0.059611
H519	H	0.621555	0.364454	0.309611
H520	H	0.871555	0.614454	0.559611
H521	H	0.597129	-0.959939	-0.376482
H522	H	0.847129	-0.709939	-0.126482
H523	H	1.097129	-0.459939	0.123518
H524	H	1.347129	-0.209939	0.373518
Cl525	Cl	0.742879	-0.839576	-0.172537
Cl526	Cl	0.992879	-0.589576	0.077463
Cl527	Cl	1.242879	-0.339576	0.327463
Cl528	Cl	1.492879	-0.089576	0.577463
H529	H	0.701322	-0.268525	-1.063862
H530	H	0.951322	-0.018525	-0.813862
H531	H	1.201322	0.231475	-0.563862
H532	H	1.451322	0.481475	-0.313862
H533	H	0.701460	-1.045026	-0.230575
H534	H	0.951460	-0.795026	0.019425
H535	H	1.201460	-0.545026	0.269425
H536	H	1.451460	-0.295026	0.519425
H537	H	-0.179345	-0.268732	-0.376445
H538	H	0.070655	-0.018732	-0.126445
H539	H	0.320655	0.231268	0.123555
H540	H	0.570655	0.481268	0.373555
Cl541	Cl	0.742851	-0.733679	-0.172514
Cl542	Cl	0.992851	-0.483679	0.077486
Cl543	Cl	1.242851	-0.233679	0.327486
Cl544	Cl	1.492851	0.016321	0.577486
H545	H	0.568306	-0.688471	-0.416668
H546	H	0.818306	-0.438471	-0.166668
H547	H	1.068306	-0.188471	0.083332
H548	H	1.318306	0.061529	0.333332
Cl549	Cl	0.488558	-0.281423	-0.394109
Cl550	Cl	0.738558	-0.031423	-0.144109
Cl551	Cl	0.988558	0.218577	0.105891
Cl552	Cl	1.238558	0.468577	0.355891
Cl553	Cl	0.714025	-0.483002	-0.212687
Cl554	Cl	0.964025	-0.233002	0.037313
Cl555	Cl	1.214025	0.016998	0.287313
Cl556	Cl	1.464025	0.266998	0.537313
H557	H	-0.179366	-0.164348	-0.230626
H558	H	0.070634	0.085652	0.019374
H559	H	0.320634	0.335652	0.269374
H560	H	0.570634	0.585652	0.519374
H561	H	0.597151	-0.164253	-1.063816
H562	H	0.847151	0.085747	-0.813816
H563	H	1.097151	0.335747	-0.563816
H564	H	1.347151	0.585747	-0.313816
H565	H	0.701318	-0.268545	-0.944594
H566	H	0.951318	-0.018545	-0.694594
H567	H	1.201318	0.231455	-0.444594
H568	H	1.451318	0.481455	-0.194594
H569	H	0.596978	-0.472660	-0.376418
H570	H	0.846978	-0.222660	-0.126418
H571	H	1.096978	0.027340	0.123582
H572	H	1.346978	0.277340	0.373582
Cl573	Cl	-0.083828	-0.281468	-0.394228
Cl574	Cl	0.166172	-0.031468	-0.144228
Cl575	Cl	0.416172	0.218532	0.105772
Cl576	Cl	0.666172	0.468532	0.355772
Cl577	Cl	0.131979	-0.310203	-0.434394
Cl578	Cl	0.381979	-0.060203	-0.184394
Cl579	Cl	0.631979	0.189797	0.065606
Cl580	Cl	0.881979	0.439797	0.315606
Cl581	Cl	-0.083873	-0.151589	-0.212811
Cl582	Cl	0.166127	0.098411	0.037189
Cl583	Cl	0.416127	0.348411	0.287189
Cl584	Cl	0.666127	0.598411	0.537189
H585	H	0.568288	-0.603363	-0.416661
H586	H	0.818288	-0.353363	-0.166661
H587	H	1.068288	-0.103363	0.083339
H588	H	1.318288	0.146637	0.333339
Cl589	Cl	0.272703	-0.122795	-0.172568
Cl590	Cl	0.522703	0.127205	0.077432
Cl591	Cl	0.772703	0.377205	0.327432
Cl592	Cl	1.022703	0.627205	0.577432
Cl593	Cl	0.382675	-0.281426	-0.394142
Cl594	Cl	0.632675	-0.031426	-0.144142
Cl595	Cl	0.882675	0.218574	0.105858
Cl596	Cl	1.132675	0.468574	0.355858
H597	H	0.701306	-0.268610	-0.543753
H598	H	0.951306	-0.018610	-0.293753
H599	H	1.201306	0.231390	-0.043753
H600	H	1.451306	0.481390	0.206247
H601	H	0.568326	-0.744120	-0.416665
H602	H	0.818326	-0.494120	-0.166665
H603	H	1.068326	-0.244120	0.083335
H604	H	1.318326	0.005880	0.333335
Cl605	Cl	0.382637	-0.151557	-0.212713
Cl606	Cl	0.632637	0.098443	0.037287
Cl607	Cl	0.882637	0.348443	0.287287
Cl608	Cl	1.132637	0.598443	0.537287
Cl609	Cl	0.166854	-0.310202	-0.434369
Cl610	Cl	0.416854	-0.060202	-0.184369
Cl611	Cl	0.666854	0.189798	0.065631
Cl612	Cl	0.916854	0.439798	0.315631
H613	H	0.478151	-0.164292	-0.230500
H614	H	0.728151	0.085708	0.019500
H615	H	0.978151	0.335708	0.269500
H616	H	1.228151	0.585708	0.519500
H617	H	0.568351	-0.829226	-0.416677
H618	H	0.818351	-0.579226	-0.166677
H619	H	1.068351	-0.329226	0.083323
H620	H	1.318351	-0.079226	0.333323
Cl621	Cl	0.584429	-0.151600	-0.529150
Cl622	Cl	0.834429	0.098400	-0.279150
Cl623	Cl	1.084429	0.348400	-0.029150
Cl624	Cl	1.334429	0.598400	0.220850
Cl625	Cl	0.026094	-0.310205	-0.434415
Cl626	Cl	0.276094	-0.060205	-0.184415
Cl627	Cl	0.526094	0.189795	0.065585
Cl628	Cl	0.776094	0.439795	0.315585
H629	H	0.701253	-0.387509	-0.230481
H630	H	0.951253	-0.137509	0.019519
H631	H	1.201253	0.112491	0.269519
H632	H	1.451253	0.362491	0.519519
Cl633	Cl	0.742808	-0.592933	-0.172497
Cl634	Cl	0.992808	-0.342933	0.077503
Cl635	Cl	1.242808	-0.092933	0.327503
Cl636	Cl	1.492808	0.157067	0.577503
H637	H	0.730103	-0.688429	-0.190318
H638	H	0.980103	-0.438429	0.059682
H639	H	1.230103	-0.188429	0.309682
H640	H	1.480103	0.061571	0.559682
Cl641	Cl	0.714163	-0.949512	-0.212744
Cl642	Cl	0.964163	-0.699512	0.037256
Cl643	Cl	1.214163	-0.449512	0.287256
Cl644	Cl	1.464163	-0.199512	0.537256
Cl645	Cl	0.584443	-0.151570	-0.677534
Cl646	Cl	0.834443	0.098430	-0.427534
Cl647	Cl	1.084443	0.348430	-0.177534
Cl648	Cl	1.334443	0.598430	0.072466
H649	H	0.597149	-1.045048	-0.376484
H650	H	0.847149	-0.795048	-0.126484
H651	H	1.097149	-0.545048	0.123516
H652	H	1.347149	-0.295048	0.373516
H653	H	0.596948	-0.387537	-0.376396
H654	H	0.846948	-0.137537	-0.126396
H655	H	1.096948	0.112463	0.123604
H656	H	1.346948	0.362463	0.373604
H657	H	0.701309	-0.268586	-0.663024
H658	H	0.951309	-0.018586	-0.413024
H659	H	1.201309	0.231414	-0.163024
H660	H	1.451309	0.481414	0.086976
