data_functionalizedCrystal
_audit_creation_method	'MofGen! by Chris Wilmer'
_symmetry_space_group_name_H-M	'P1'
_symmetry_Int_Tables_number	1
_symmetry_cell_setting	triclinic
loop_
_symmetry_equiv_pos_as_xyz
  x,y,z
_cell_length_a	12.759401
_cell_length_b	19.120786
_cell_length_c	12.759393
_cell_angle_alpha	92.476000
_cell_angle_beta	90.020938
_cell_angle_gamma	92.466720
loop_
_atom_site_label
_atom_site_type_symbol
_atom_site_fract_x
_atom_site_fract_y
_atom_site_fract_z
Zn1	Zn	1.588347	-0.279569	0.576137
Zn2	Zn	1.580708	-0.397044	0.392943
Zn3	Zn	1.412643	-0.279607	0.400470
Zn4	Zn	1.405111	-0.396995	0.568583
O5	O	1.496702	-0.338304	0.484533
O6	O	1.734354	-0.295157	0.551847
O7	O	1.558370	-0.381502	0.246918
O8	O	1.442300	-0.181311	0.430084
O9	O	1.728742	-0.381465	0.417255
O10	O	1.571389	-0.181283	0.559146
O11	O	1.434893	-0.295221	0.252448
O12	O	1.264623	-0.295174	0.422759
O13	O	1.429462	-0.381382	0.716609
O14	O	1.259089	-0.381418	0.546271
O15	O	1.564085	-0.295110	0.722158
O16	O	1.551066	-0.495328	0.409930
O17	O	1.422055	-0.495292	0.538972
C18	C	1.223736	-0.338295	0.484513
C19	C	1.106958	-0.338308	0.484528
C20	C	1.484943	-0.520796	0.472838
C21	C	1.480008	-0.598867	0.467870
C22	C	1.049238	-0.383284	0.548731
C23	C	0.939513	-0.383287	0.548751
C24	C	0.945240	-0.293336	0.420358
C25	C	1.054962	-0.293330	0.420343
C26	C	1.544849	-0.635470	0.532786
C27	C	1.540208	-0.708826	0.528119
C28	C	1.470731	-0.745577	0.458531
C29	C	1.405883	-0.708969	0.393612
C30	C	1.410519	-0.635615	0.398284
C31	C	1.453367	-0.967065	0.441064
C32	C	1.448738	-1.040425	0.436394
C33	C	1.583063	-1.040276	0.570903
C34	C	1.587698	-0.966920	0.575565
C35	C	1.522846	-0.930318	0.510650
C36	C	1.465988	-0.820559	0.453757
C37	C	1.527584	-0.855338	0.515430
C38	C	1.770735	-0.338313	0.484554
C39	C	1.887511	-0.338317	0.484563
C40	C	1.496785	-0.338236	0.758571
C41	C	1.496821	-0.338207	0.875349
C42	C	1.508536	-0.155099	0.496297
C43	C	1.513579	-0.077028	0.501310
C44	C	1.496683	-0.338320	0.211565
C45	C	1.496864	-0.338151	0.094799
C46	C	1.566924	-0.293278	0.933103
C47	C	1.566944	-0.293248	1.042829
C48	C	1.426753	-0.383082	1.037038
C49	C	1.426729	-0.383108	0.927314
H50	H	0.892522	-0.419910	0.601033
H51	H	0.902891	-0.256717	0.368099
H52	H	1.349308	-0.738898	0.336956
N53	N	1.642523	-0.244855	0.877053
H54	H	1.601929	-0.212315	0.833603
H55	H	1.689333	-0.273472	0.829768
N56	N	1.117228	-0.244809	0.351107
H57	H	1.067641	-0.216318	0.310446
H58	H	1.160897	-0.273352	0.300579
N59	N	1.619792	-0.595833	0.607837
H60	H	1.660162	-0.630155	0.648254
H61	H	1.578924	-0.565400	0.658358
N62	N	1.105318	-0.431788	0.617966
H63	H	1.183586	-0.424963	0.608215
H64	H	1.082898	-0.481939	0.598278
N65	N	1.351120	-0.431576	0.865016
H66	H	1.361740	-0.424776	0.787622
H67	H	1.276796	-0.420636	0.884883
H68	H	1.400564	-0.937269	0.388206
N69	N	1.610091	-0.748306	0.598189
H70	H	1.654795	-0.713893	0.642994
H71	H	1.656825	-0.778755	0.553579
H72	H	1.357717	-0.605813	0.345424
H73	H	1.584149	-0.825413	0.572093
H74	H	1.392156	-1.070346	0.379726
N75	N	1.662630	-0.927282	0.650625
H76	H	1.703002	-0.961602	0.691045
H77	H	1.621756	-0.896851	0.701143
N78	N	1.653006	-1.079753	0.640917
H79	H	1.639529	-1.131800	0.627401
H80	H	1.637425	-1.066904	0.716754
H81	H	1.409422	-0.850490	0.397095
H82	H	1.624027	-0.256661	1.089848
H83	H	1.369690	-0.419640	1.079360
