data_functionalizedCrystal
_audit_creation_method	'MofGen! by Chris Wilmer'
_symmetry_space_group_name_H-M	'P1'
_symmetry_Int_Tables_number	1
_symmetry_cell_setting	triclinic
loop_
_symmetry_equiv_pos_as_xyz
  x,y,z
_cell_length_a	13.032831
_cell_length_b	19.805405
_cell_length_c	19.805399
_cell_angle_alpha	89.970699
_cell_angle_beta	82.810414
_cell_angle_gamma	82.830509
loop_
_atom_site_label
_atom_site_type_symbol
_atom_site_fract_x
_atom_site_fract_y
_atom_site_fract_z
Zn1	Zn	1.597580	-0.401093	-0.513861
Zn2	Zn	1.597448	-0.514271	-0.400659
Zn3	Zn	1.422827	-0.386715	-0.386340
Zn4	Zn	1.422771	-0.499844	-0.499466
O5	O	1.510157	-0.450481	-0.450082
O6	O	1.743800	-0.428162	-0.510862
O7	O	1.574253	-0.497371	-0.304040
O8	O	1.446087	-0.293913	-0.403288
O9	O	1.743703	-0.511313	-0.427692
O10	O	1.574477	-0.304476	-0.496977
O11	O	1.445960	-0.403656	-0.293520
O12	O	1.276582	-0.389667	-0.389329
O13	O	1.445991	-0.486725	-0.596095
O14	O	1.276541	-0.472783	-0.472442
O15	O	1.574423	-0.414173	-0.606671
O16	O	1.574198	-0.607067	-0.413734
O17	O	1.445864	-0.596468	-0.486327
C18	C	1.238644	-0.428100	-0.427770
C19	C	1.122489	-0.418541	-0.418242
C20	C	1.510039	-0.626327	-0.450039
C21	C	1.510084	-0.701563	-0.450051
C22	C	1.576973	-0.742409	-0.412303
C23	C	1.577018	-0.813101	-0.412321
C24	C	1.510167	-0.842945	-0.450085
C25	C	1.443275	-0.802094	-0.487838
C26	C	1.443237	-0.731404	-0.487823
C27	C	1.443429	-1.087180	-0.487901
C28	C	1.443471	-1.157876	-0.487912
C29	C	1.577210	-1.168877	-0.412400
C30	C	1.577172	-1.098187	-0.412384
C31	C	1.510284	-1.057342	-0.450140
C32	C	1.510238	-0.980690	-0.450120
C33	C	1.510207	-0.919596	-0.450101
C34	C	1.070711	-0.455470	-0.455055
C35	C	0.950660	-0.445592	-0.445207
C36	C	1.782730	-0.472950	-0.472480
C37	C	1.898884	-0.482525	-0.482025
C38	C	1.510215	-0.450443	-0.626629
C39	C	1.510240	-0.450427	-0.701863
C40	C	1.510303	-0.273950	-0.450141
C41	C	1.510366	-0.198724	-0.450167
C42	C	1.577116	-0.412647	-0.742716
C43	C	1.577127	-0.412629	-0.813405
C44	C	1.510266	-0.450394	-0.843241
C45	C	1.443383	-0.488175	-0.802383
C46	C	1.443368	-0.488190	-0.731695
C47	C	1.443442	-0.488117	-1.087461
C48	C	1.443465	-0.488101	-1.158155
C49	C	1.577201	-0.412556	-1.169172
C50	C	1.577186	-0.412570	-1.098483
C51	C	1.510299	-0.450348	-1.057631
C52	C	1.510287	-0.450367	-0.980982
C53	C	1.510283	-0.450379	-0.919890
C54	C	1.510158	-0.450475	-0.274226
C55	C	1.510336	-0.450317	-0.199009
H56	H	1.631484	-0.846355	-0.381582
C57	C	1.370632	-0.529091	-0.687296
C58	C	1.303651	-0.485257	-0.641232
C59	C	1.236619	-0.522910	-0.600330
H60	H	1.410454	-0.561885	-0.662932
H61	H	1.330759	-0.551563	-0.715166
H62	H	1.343520	-0.462796	-0.613365
H63	H	1.263807	-0.452462	-0.665578
H64	H	1.196745	-0.545382	-0.628200
H65	H	1.276449	-0.555703	-0.575970
H66	H	1.191158	-0.493174	-0.569075
H67	H	1.631406	-0.718115	-0.381548
H68	H	1.631565	-0.381897	-0.718429
C69	C	1.063052	-0.366745	-0.366398
C70	C	1.000368	-0.399898	-0.317830
C71	C	0.945617	-0.352208	-0.270052
H72	H	1.020415	-0.333786	-0.388784
H73	H	1.111078	-0.344871	-0.344537
H74	H	0.952349	-0.421761	-0.339689
H75	H	1.042980	-0.432853	-0.295427
H76	H	0.993643	-0.330334	-0.248191
H77	H	0.902986	-0.319252	-0.292445
H78	H	0.903087	-0.374696	-0.237090
H79	H	1.631677	-1.202142	-0.381660
C80	C	1.129965	-0.507477	-0.506753
C81	C	1.103430	-0.572258	-0.489744
C82	C	1.157980	-0.620184	-0.537360
H83	H	1.202776	-0.507311	-0.506540
H84	H	1.112139	-0.496215	-0.550807
H85	H	1.121264	-0.583518	-0.445702
H86	H	1.030629	-0.572447	-0.489962
H87	H	1.140154	-0.608921	-0.581414
H88	H	1.230788	-0.620012	-0.537144
H89	H	1.139977	-0.664142	-0.525830
C90	C	1.649869	-1.065917	-0.371368
C91	C	1.708479	-1.116821	-0.338327
C92	C	1.775473	-1.087122	-0.300546
H93	H	1.610024	-1.035097	-0.338517
H94	H	1.695417	-1.042068	-0.401010
H95	H	1.662937	-1.140659	-0.308688
H96	H	1.748345	-1.147645	-0.371162
H97	H	1.821021	-1.063273	-0.330188
H98	H	1.735620	-1.056303	-0.267699
H99	H	1.815255	-1.121656	-0.278129
H100	H	1.389034	-1.182172	-0.518669
H101	H	1.631586	-0.381866	-0.846665
C102	C	0.891226	-0.393792	-0.393361
C103	C	0.828543	-0.426945	-0.344793
C104	C	0.773791	-0.379255	-0.297015
H105	H	0.848589	-0.360834	-0.415747
H106	H	0.939252	-0.371919	-0.371500
H107	H	0.780523	-0.448808	-0.366652
H108	H	0.871154	-0.459900	-0.322390
H109	H	0.821817	-0.357382	-0.275154
H110	H	0.731160	-0.346299	-0.319407
H111	H	0.731261	-0.401743	-0.264053
H112	H	1.631659	-0.381792	-1.202442
H113	H	0.943427	-0.521453	-0.520839
C114	C	1.649816	-0.371496	-1.066216
C115	C	1.708367	-0.338390	-1.117122
C116	C	1.775272	-0.300535	-1.087423
H117	H	1.695414	-0.401076	-1.042379
H118	H	1.609878	-0.338683	-1.035381
H119	H	1.748301	-0.371198	-1.147945
H120	H	1.662796	-0.308798	-1.140963
H121	H	1.735335	-0.267723	-1.056588
H122	H	1.820863	-0.330120	-1.063587
H123	H	1.815000	-0.278063	-1.121957
H124	H	1.388966	-1.053930	-0.518642
H125	H	1.389014	-0.518855	-1.182445
H126	H	1.388849	-0.826399	-0.518590
H127	H	1.388994	-0.518889	-1.054209
H128	H	1.388771	-0.698147	-0.518563
C129	C	1.370902	-0.529161	-0.834905
C130	C	1.385248	-0.521078	-0.905557
C131	C	1.318506	-0.558833	-0.935538
H132	H	1.300651	-0.513508	-0.817630
H133	H	1.386164	-0.575913	-0.824601
H134	H	1.369978	-0.474335	-0.915856
H135	H	1.455485	-0.536734	-0.922852
H136	H	1.333769	-0.605586	-0.925233
H137	H	1.248259	-0.543177	-0.918257
H138	H	1.328238	-0.553359	-0.983478
