data_functionalizedCrystal
_audit_creation_method	'MofGen! by Chris Wilmer'
_symmetry_space_group_name_H-M	'P1'
_symmetry_Int_Tables_number	1
_symmetry_cell_setting	triclinic
loop_
_symmetry_equiv_pos_as_xyz
  x,y,z
_cell_length_a	18.215405
_cell_length_b	25.639243
_cell_length_c	18.215399
_cell_angle_alpha	90.022251
_cell_angle_beta	90.030551
_cell_angle_gamma	90.027609
loop_
_atom_site_label
_atom_site_type_symbol
_atom_site_fract_x
_atom_site_fract_y
_atom_site_fract_z
Zn1	Zn	-0.292938	0.799308	0.416150
Zn2	Zn	-0.416010	0.799243	0.293078
Zn3	Zn	-0.292967	0.711874	0.293092
Zn4	Zn	-0.415974	0.711850	0.416098
O5	O	-0.354472	0.755569	0.354605
O6	O	-0.309267	0.872464	0.399840
O7	O	-0.399715	0.787636	0.190096
O8	O	-0.189979	0.723510	0.309444
O9	O	-0.399687	0.872416	0.309420
O10	O	-0.189958	0.787747	0.399854
O11	O	-0.309316	0.723447	0.190106
O12	O	-0.309281	0.638706	0.309393
O13	O	-0.399625	0.723469	0.519089
O14	O	-0.399653	0.638688	0.399765
O15	O	-0.309232	0.787723	0.519127
O16	O	-0.518989	0.787612	0.309369
O17	O	-0.518963	0.723406	0.399751
C18	C	-0.354467	0.619726	0.354575
C19	C	-0.354483	0.561612	0.354580
C20	C	-0.545678	0.755514	0.354569
C21	C	-0.627477	0.755538	0.354579
C22	C	-0.307464	0.201268	0.401765
C23	C	-0.307464	0.146664	0.401770
O24	O	-0.267473	0.118444	0.441851
N25	N	-0.354470	0.119330	0.354625
C26	C	-0.401475	0.146602	0.307467
O27	O	-0.441456	0.118338	0.267367
C28	C	-0.401471	0.201206	0.307459
C29	C	-0.354467	0.228537	0.354613
C30	C	-0.260464	0.228600	0.448914
C31	C	-0.260466	0.283201	0.448910
C32	C	-0.307468	0.310469	0.401757
C33	C	-0.354469	0.283138	0.354609
C34	C	-0.448471	0.228477	0.260299
C35	C	-0.448463	0.283084	0.260295
C36	C	-0.401459	0.310416	0.307448
C37	C	-0.401473	0.365007	0.307453
N38	N	-0.354467	0.392342	0.354597
C39	C	-0.307464	0.365073	0.401750
C40	C	-0.401478	0.031932	0.307486
C41	C	-0.401486	-0.022671	0.307497
C42	C	-0.307474	-0.022605	0.401799
C43	C	-0.307470	0.031998	0.401791
C44	C	-0.354472	0.059266	0.354631
C45	C	-0.307472	0.479738	0.401739
C46	C	-0.307480	0.534343	0.401733
C47	C	-0.401489	0.534273	0.307429
C48	C	-0.401484	0.479672	0.307437
C49	C	-0.354470	0.452406	0.354594
O50	O	-0.441441	0.393262	0.267389
O51	O	-0.267482	0.393343	0.441836
C52	C	-0.815661	0.789049	0.307603
C53	C	-0.892519	0.789072	0.307621
C54	C	-0.892532	0.722156	0.401659
C55	C	-0.815674	0.722135	0.401644
C56	C	-0.777241	0.755581	0.354612
C57	C	-0.930957	0.755625	0.354645
C58	C	-1.014290	0.755650	0.354664
C59	C	-0.693902	0.755557	0.354593
C60	C	-0.162519	0.755638	0.354656
C61	C	-0.080720	0.755668	0.354678
C62	C	-0.354421	0.755601	0.546558
C63	C	-0.354400	0.755614	0.628357
C64	C	-0.354478	0.891942	0.354634
C65	C	-0.354480	0.950056	0.354647
C66	C	-0.354470	0.755567	0.163398
C67	C	-0.354284	0.755655	0.081600
C68	C	-0.307288	0.789084	0.816572
C69	C	-0.307266	0.789090	0.893431
C70	C	-0.401398	0.722182	0.893379
C71	C	-0.401415	0.722173	0.816522
C72	C	-0.354361	0.755627	0.778120
C73	C	-0.354323	0.755642	0.931836
C74	C	-0.354300	0.755648	1.015170
C75	C	-0.354383	0.755620	0.694781
H76	H	-0.269186	0.457544	0.440136
H77	H	-0.222189	0.305449	0.487306
O78	O	-0.778462	0.689573	0.447335
C79	C	-0.786579	0.623227	0.540642
C80	C	-0.828813	0.660063	0.488924
H81	H	-0.827268	0.599366	0.574291
H82	H	-0.750672	0.595859	0.506845
H83	H	-0.750520	0.647216	0.579117
H84	H	-0.864910	0.636116	0.450439
H85	H	-0.864673	0.687432	0.522767
O86	O	-0.447133	0.689641	0.930571
C87	C	-0.540536	0.623302	0.922407
C88	C	-0.488763	0.660118	0.880199
H89	H	-0.574219	0.599431	0.881700
H90	H	-0.506779	0.595943	0.958373
H91	H	-0.578977	0.647308	0.958403
H92	H	-0.450312	0.636154	0.844163
H93	H	-0.522566	0.687478	0.844279
O94	O	-0.929981	0.689681	0.447269
C95	C	-1.048389	0.660074	0.488995
C96	C	-1.006072	0.696872	0.437294
H97	H	-1.109916	0.665883	0.480960
H98	H	-1.033391	0.617906	0.476006
H99	H	-1.033181	0.669219	0.548339
H100	H	-1.021257	0.687774	0.377933
H101	H	-1.021074	0.739029	0.450346
H102	H	-0.923797	0.816326	0.269343
O103	O	-0.778212	0.821491	0.261947
C104	C	-0.659805	0.851142	0.220279
C105	C	-0.702121	0.814364	0.272009
H106	H	-0.598278	0.845400	0.228407
H107	H	-0.674917	0.841991	0.160911
H108	H	-0.674902	0.893293	0.233260
H109	H	-0.687047	0.772200	0.259094
H110	H	-0.687006	0.823559	0.331362
O111	O	-0.261508	0.821593	0.779381
C112	C	-0.168167	0.887976	0.787548
C113	C	-0.219967	0.851178	0.829754
H114	H	-0.134578	0.911913	0.828256
H115	H	-0.129646	0.864005	0.751589
H116	H	-0.201972	0.915278	0.751544
H117	H	-0.186221	0.823868	0.865798
H118	H	-0.258490	0.875181	0.865666
H119	H	-0.439767	0.457418	0.269050
O120	O	-0.261459	0.821515	0.930813
C121	C	-0.162100	0.828591	1.017642
C122	C	-0.213924	0.791810	0.975342
H123	H	-0.123665	0.804590	1.053666
H124	H	-0.128421	0.852487	0.977022
H125	H	-0.195890	0.855933	1.053595
H126	H	-0.180191	0.764436	0.939388
H127	H	-0.247606	0.767951	1.016003
O128	O	-0.214780	0.202197	0.494793
C129	C	-0.121513	0.208043	0.588304
C130	C	-0.173223	0.238004	0.536386
H131	H	-0.087890	0.236980	0.621934
H132	H	-0.155316	0.182499	0.626780
H133	H	-0.083015	0.182464	0.554589
H134	H	-0.211732	0.263612	0.570042
H135	H	-0.139374	0.263515	0.497908
H136	H	-0.439747	0.694925	0.785214
H137	H	-0.269194	0.054248	0.440186
O138	O	-0.447175	-0.049136	0.261629
C139	C	-0.540452	-0.043423	0.168127
C140	C	-0.488737	-0.013389	0.220028
H141	H	-0.574080	-0.014534	0.134489
H142	H	-0.506654	-0.068973	0.129656
H143	H	-0.578947	-0.069004	0.201856
H144	H	-0.450232	0.012221	0.186358
H145	H	-0.522581	0.012128	0.258500
H146	H	-0.439759	0.054130	0.269085
O147	O	-0.261853	0.560835	0.447640
C148	C	-0.226318	0.577612	0.572890
C149	C	-0.278023	0.547571	0.520986
H150	H	-0.239383	0.566907	0.632202
H151	H	-0.166948	0.566881	0.560135
H152	H	-0.234377	0.621320	0.564755
H153	H	-0.270030	0.503856	0.529093
H154	H	-0.337374	0.558345	0.533755
O155	O	-0.261912	-0.049157	0.447637
C156	C	-0.252144	-0.110752	0.547042
C157	C	-0.303820	-0.080724	0.495168
H158	H	-0.286007	-0.136273	0.585494
H159	H	-0.213636	-0.136349	0.513362
H160	H	-0.218528	-0.081831	0.580707
H161	H	-0.337484	-0.109607	0.461492
H162	H	-0.342279	-0.055119	0.528890
O163	O	-0.494150	0.202017	0.214419
C164	C	-0.587409	0.207739	0.120899
C165	C	-0.535702	0.237769	0.172814
H166	H	-0.621028	0.236631	0.087259
H167	H	-0.553605	0.182191	0.082432
H168	H	-0.625912	0.182157	0.154617
H169	H	-0.497189	0.263379	0.139155
H170	H	-0.569552	0.263284	0.211283
O171	O	-0.494160	0.309630	0.214586
C172	C	-0.593542	0.371213	0.204496
C173	C	-0.541824	0.341193	0.256339
H174	H	-0.632101	0.396731	0.238233
H175	H	-0.559746	0.396812	0.166087
H176	H	-0.627100	0.342285	0.170783
H177	H	-0.508255	0.370083	0.290100
H178	H	-0.575662	0.315586	0.294701
H179	H	-0.439759	0.556485	0.269040
