data_functionalizedCrystal
_audit_creation_method	'MofGen! by Chris Wilmer'
_symmetry_space_group_name_H-M	'P1'
_symmetry_Int_Tables_number	1
_symmetry_cell_setting	triclinic
loop_
_symmetry_equiv_pos_as_xyz
  x,y,z
_cell_length_a	14.971482
_cell_length_b	10.065918
_cell_length_c	14.971486
_cell_angle_alpha	99.807169
_cell_angle_beta	83.613368
_cell_angle_gamma	99.850635
loop_
_atom_site_label
_atom_site_type_symbol
_atom_site_fract_x
_atom_site_fract_y
_atom_site_fract_z
O1	O	1.198695	0.113478	0.128229
O2	O	0.938295	0.113484	0.142192
O3	O	1.075473	0.113471	0.005010
O4	O	1.061516	0.113491	0.265412
O5	O	1.051962	-0.113518	-0.018363
O6	O	0.914783	-0.113505	0.118820
O7	O	1.175183	-0.113512	0.104857
Zn8	Zn	1.041250	-0.149548	0.108127
Zn9	Zn	1.072228	0.149521	0.138922
O10	O	1.038005	-0.113499	0.242039
C11	C	0.893214	-0.000010	0.129882
C12	C	0.793917	-0.000007	0.128013
C13	C	0.734457	-0.123741	0.114392
C14	C	0.641158	-0.123742	0.112621
C15	C	0.607321	-0.000009	0.124478
C16	C	0.666790	0.123734	0.138097
C17	C	0.760088	0.123734	0.139861
C18	C	0.472327	0.123725	0.134421
C19	C	0.379023	0.123725	0.132658
C20	C	0.353397	-0.123752	0.107180
C21	C	0.446695	-0.123752	0.108945
C22	C	0.506157	-0.000008	0.122566
N23	N	1.020116	-0.353654	0.087110
C24	C	1.064868	-0.421432	0.131609
C25	C	1.048610	-0.578599	0.115426
C26	C	1.220264	-0.000015	0.117167
C27	C	1.319562	-0.000008	0.119037
C28	C	1.063093	-0.000023	-0.040001
C29	C	1.061223	-0.000022	-0.139298
N30	N	1.093370	0.353627	0.159931
C31	C	1.141812	-0.000025	-0.196525
C32	C	1.140050	-0.000011	-0.289823
C33	C	1.057697	-0.000004	-0.325894
C34	C	0.977103	0.000003	-0.268659
C35	C	0.978866	-0.000001	-0.175362
C36	C	0.973432	0.000008	-0.463121
C37	C	0.971668	0.000010	-0.556425
C38	C	1.134616	-0.000002	-0.577582
C39	C	1.136380	-0.000006	-0.484285
C40	C	1.055784	-0.000002	-0.427057
C41	C	1.050385	-0.000001	0.287051
C42	C	1.052257	0.000006	0.386348
H43	H	0.520740	0.224490	0.145513
C44	C	0.341805	0.259838	0.145697
N45	N	0.313774	0.362361	0.155518
H46	H	1.143726	-0.588051	0.210011
H47	H	0.761997	-0.224499	0.104744
H48	H	0.474241	-0.224506	0.099296
C49	C	1.226971	-0.000020	-0.444610
N50	N	1.295206	-0.000027	-0.414727
C51	C	1.232408	-0.000033	-0.156857
N52	N	1.300648	-0.000033	-0.126982
H53	H	0.639234	0.224480	0.147745
H54	H	1.200240	-0.000002	-0.624181
H55	H	0.304978	-0.224508	0.096090
H56	H	0.808501	0.224491	0.150955
H57	H	0.969767	-0.411984	0.037030
H58	H	0.998259	-0.636924	0.065342
C59	C	0.881078	0.000035	-0.596098
N60	N	0.812844	0.000058	-0.625980
H61	H	1.205674	-0.000017	-0.336414
H62	H	0.592750	-0.224499	0.101515
H63	H	1.115223	-0.363102	0.181684
C64	C	0.884771	0.000006	-0.400173
N65	N	0.817993	-0.000005	-0.352761
C66	C	0.890211	-0.000001	-0.112413
N67	N	0.823434	0.000003	-0.064999
H68	H	0.910050	0.000017	-0.298034
