data_functionalizedCrystal
_audit_creation_method	'MofGen! by Chris Wilmer'
_symmetry_space_group_name_H-M	'P1'
_symmetry_Int_Tables_number	1
_symmetry_cell_setting	triclinic
loop_
_symmetry_equiv_pos_as_xyz
  x,y,z
_cell_length_a	10.723024
_cell_length_b	19.188930
_cell_length_c	9.798715
_cell_angle_alpha	89.991738
_cell_angle_beta	89.996609
_cell_angle_gamma	83.806325
loop_
_atom_site_label
_atom_site_type_symbol
_atom_site_fract_x
_atom_site_fract_y
_atom_site_fract_z
O1	O	1.655155	0.097922	-0.113499
O2	O	1.291808	0.107295	-0.113506
O3	O	1.483967	0.001021	-0.113476
O4	O	1.462996	0.204196	-0.113529
O5	O	1.483952	0.001021	0.113507
O6	O	1.291793	0.107295	0.113477
O7	O	1.655140	0.097922	0.113483
Zn8	Zn	1.473465	0.102608	0.149518
Zn9	Zn	1.473483	0.102609	-0.149541
O10	O	1.462982	0.204196	0.113453
C11	C	1.245315	0.106613	-0.000015
C12	C	1.106803	0.104572	-0.000016
C13	C	1.030586	0.164037	-0.000033
C14	C	0.887427	0.161930	-0.000034
C15	C	1.483280	-0.024995	0.000019
C16	C	1.481242	-0.102512	0.000031
C17	C	1.593994	-0.146704	0.000040
C18	C	1.592079	-0.219540	0.000018
C19	C	1.477405	-0.248182	0.000015
C20	C	1.364638	-0.203981	-0.000001
C21	C	1.366556	-0.131146	0.000007
N22	N	1.389745	-0.356756	0.077260
N23	N	1.387931	-0.425947	0.077255
C24	C	1.471618	-0.467628	-0.000013
N25	N	1.557208	-0.437506	-0.077259
N26	N	1.559026	-0.368310	-0.077248
C27	C	1.475312	-0.327158	0.000005
C28	C	1.582302	-0.590797	-0.000030
C29	C	1.580382	-0.663634	-0.000061
C30	C	1.352937	-0.648073	-0.000066
C31	C	1.354860	-0.575238	-0.000049
C32	C	1.469546	-0.546604	-0.000025
C33	C	1.701633	0.098604	-0.000011
C34	C	1.840145	0.100645	-0.000019
C35	C	1.463668	0.230211	-0.000045
C36	C	1.465706	0.307729	-0.000066
N37	N	1.473461	0.102608	0.353618
N38	N	1.473497	0.102604	-0.353640
C39	C	1.554147	0.057789	0.421407
C40	C	1.554167	0.057787	0.578570
H41	H	0.821937	0.212836	-0.000054
H42	H	1.683899	-0.255527	0.000019
N43	N	1.081673	0.229865	-0.000020
N44	N	1.150933	0.245056	0.095663
H45	H	1.187011	0.291549	0.095675
N46	N	1.695576	-0.708766	-0.000040
N47	N	1.771916	-0.705847	0.095653
H48	H	1.853276	-0.737721	0.095669
H49	H	1.623208	0.019418	0.363095
H50	H	0.905627	0.049735	-0.000013
N51	N	1.699433	-0.561531	-0.000040
N52	N	1.701131	-0.496500	-0.000032
H53	H	1.783855	-0.475831	-0.000042
H54	H	1.623251	0.019419	0.636866
H55	H	1.066070	0.052101	-0.000037
N56	N	1.235787	-0.677310	-0.000086
N57	N	1.159868	-0.663953	-0.095768
H58	H	1.077127	-0.684603	-0.095788
N59	N	1.239695	-0.530084	-0.000054
N60	N	1.215401	-0.487695	-0.095729
H61	H	1.134062	-0.455803	-0.095737
N62	N	1.386848	0.150755	0.573249
N63	N	1.426490	0.194185	0.493476
H64	H	1.365296	0.228194	0.441832
N65	N	1.711150	-0.117468	0.000060
N66	N	1.811816	-0.156938	0.000064
H67	H	1.894559	-0.136290	0.000076
N68	N	1.247511	-0.233245	-0.000017
N69	N	1.245813	-0.298277	-0.000023
H70	H	1.163089	-0.318945	-0.000040
N71	N	1.251365	-0.086012	-0.000009
N72	N	1.148982	-0.111589	-0.000026
H73	H	1.067625	-0.079712	-0.000036
N74	N	1.386797	0.150733	0.426759
N75	N	1.309413	0.128269	0.506535
H76	H	1.248202	0.162258	0.558190
