data_functionalizedCrystal
_audit_creation_method	'MofGen! by Chris Wilmer'
_symmetry_space_group_name_H-M	'P1'
_symmetry_Int_Tables_number	1
_symmetry_cell_setting	triclinic
loop_
_symmetry_equiv_pos_as_xyz
  x,y,z
_cell_length_a	27.440280
_cell_length_b	15.698487
_cell_length_c	27.440280
_cell_angle_alpha	120.001688
_cell_angle_beta	89.991447
_cell_angle_gamma	59.999575
loop_
_atom_site_label
_atom_site_type_symbol
_atom_site_fract_x
_atom_site_fract_y
_atom_site_fract_z
Zr1	Zr	0.469506	0.932313	0.063898
O2	O	0.391678	1.110056	0.141726
O3	O	0.493362	0.754593	0.040039
O4	O	0.493350	0.932325	0.141714
O5	O	0.391702	0.932306	-0.040151
O6	O	0.573553	0.932308	0.141704
O7	O	0.391690	0.932324	0.040052
O8	O	0.573575	0.614378	-0.040174
O9	O	0.391680	1.250237	0.141726
O10	O	0.563394	0.827671	0.029856
O11	O	0.503548	0.827670	-0.029991
O12	O	0.503534	1.036927	0.089718
O13	O	0.443688	1.036926	0.029871
Zr14	Zr	0.597439	0.932259	-0.064033
Zr15	Zr	0.597420	0.932287	0.063882
Zr16	Zr	0.469524	0.932285	-0.064017
Zr17	Zr	0.469509	1.155885	0.063897
Zr18	Zr	0.597435	0.708687	-0.064033
O19	O	0.573582	1.109979	-0.040174
O20	O	0.573556	1.110018	0.141704
O21	O	0.391704	1.110017	-0.040152
O22	O	0.675266	0.754516	-0.141862
O23	O	0.675240	0.754555	0.040016
O24	O	0.493389	0.754553	-0.141839
O25	O	0.675243	0.932266	0.040016
O26	O	0.573594	0.932247	-0.141849
O27	O	0.493391	0.932264	-0.141839
O28	O	0.675254	0.932248	-0.040187
O29	O	0.493355	1.250216	0.141714
O30	O	0.573589	0.614356	-0.141849
O31	O	0.675264	0.614335	-0.141862
O32	O	0.675249	0.614357	-0.040187
O33	O	0.391695	1.250215	0.040051
O34	O	0.493370	1.250194	0.040039
O35	O	0.563411	0.827645	-0.089853
O36	O	0.623257	0.827646	-0.030006
O37	O	0.563397	1.036902	0.029856
O38	O	0.503551	1.036901	-0.029991
C39	C	0.533468	0.652631	-0.000067
C40	C	0.533467	0.557719	-0.000067
C41	C	0.373471	0.932319	-0.000048
C42	C	0.319168	0.932330	-0.000041
C43	C	0.533466	0.480637	-0.000069
C44	C	0.533471	0.383932	-0.000070
C45	C	0.013717	0.823037	-0.031331
C46	C	-0.037302	0.823030	-0.031337
O47	O	-0.037116	0.730134	-0.057930
N48	N	-0.094065	0.932258	-0.000089
C49	C	-0.099809	1.041500	0.031161
O50	O	-0.152775	1.134407	0.057739
C51	C	-0.048791	1.041506	0.031163
C52	C	0.007972	0.932270	-0.000082
C53	C	0.070477	0.713810	-0.062574
C54	C	0.121491	0.713817	-0.062568
C55	C	0.115746	0.823051	-0.031319
C56	C	0.058986	0.932277	-0.000076
C57	C	-0.054535	1.150746	0.062409
C58	C	-0.003511	1.150742	0.062408
C59	C	0.053251	1.041507	0.031163
C60	C	0.104256	1.041518	0.031180
N61	N	0.161019	0.932290	-0.000068
C62	C	0.166764	0.823056	-0.031317
C63	C	-0.206947	1.041481	0.031155
C64	C	-0.257965	1.041476	0.031158
C65	C	-0.195454	0.823006	-0.031342
C66	C	-0.144436	0.823011	-0.031340
C67	C	-0.150184	0.932252	-0.000093
C68	C	0.273897	0.823079	-0.031301
C69	C	0.324913	0.823096	-0.031290
C70	C	0.262398	1.041566	0.031206
C71	C	0.211386	1.041550	0.031198
C72	C	0.217139	0.932297	-0.000060
O73	O	0.104116	1.134366	0.057757
O74	O	0.219732	0.730165	-0.057897
C75	C	0.693473	0.932253	-0.000088
C76	C	0.747776	0.932242	-0.000095
C77	C	0.533449	0.932320	0.159934
C78	C	0.533441	0.932332	0.214237
C79	C	0.533476	1.211941	-0.000068
C80	C	0.533478	1.306853	-0.000068
C81	C	0.577668	0.932271	0.550933
C82	C	0.577673	0.932265	0.601951
O83	O	0.615263	0.932213	0.628321
N84	N	0.533487	0.932277	0.627475
C85	C	0.489298	0.932284	0.601974
O86	O	0.451716	0.932292	0.628368
C87	C	0.489296	0.932282	0.550954
C88	C	0.533481	0.932282	0.525436
C89	C	0.621849	0.932270	0.525415
C90	C	0.621844	0.932279	0.474400
C91	C	0.577657	0.932290	0.448904
C92	C	0.533475	0.932291	0.474422
C93	C	0.445110	0.932280	0.525451
C94	C	0.445112	0.932277	0.474427
C95	C	0.489297	0.932277	0.448910
C96	C	0.489283	0.932310	0.397911
N97	N	0.533468	0.932298	0.372388
C98	C	0.577655	0.932288	0.397884
C99	C	0.489306	0.932285	0.709118
C100	C	0.489305	0.932296	0.760140
C101	C	0.577680	0.932275	0.760113
C102	C	0.577678	0.932273	0.709093
C103	C	0.533491	0.932273	0.683595
C104	C	0.577639	0.932308	0.290751
C105	C	0.577628	0.932322	0.239733
C106	C	0.489255	0.932337	0.239763
C107	C	0.489264	0.932329	0.290777
C108	C	0.533461	0.932310	0.316269
O109	O	0.451713	0.932357	0.371507
O110	O	0.615235	0.932263	0.371479
C111	C	0.533493	0.932261	0.839934
C112	C	0.533494	0.932279	0.785639
C113	C	0.693469	0.652598	-0.000087
C114	C	0.747771	0.557675	-0.000094
C115	C	0.533491	0.652597	-0.160069
C116	C	0.533498	0.557673	-0.214372
C117	C	0.693492	0.652564	-0.160089
C118	C	0.747802	0.557629	-0.214399
C119	C	0.373452	1.212008	0.159954
C120	C	0.319143	1.306943	0.214264
C121	C	0.373475	1.211974	-0.000048
C122	C	0.319174	1.306897	-0.000041
C123	C	0.533453	1.211975	0.159934
C124	C	0.533447	1.306899	0.214237
C125	C	0.742023	0.513111	0.031155
C126	C	0.793041	0.423933	0.031161
C127	C	0.849805	0.379314	-0.000087
C128	C	0.855551	0.423886	-0.031337
C129	C	0.804534	0.513069	-0.031339
C130	C	0.564749	0.513082	-0.271126
C131	C	0.564752	0.423903	-0.322154
C132	C	0.533508	0.379311	-0.316427
C133	C	0.502254	0.423910	-0.259667
C134	C	0.502247	0.513093	-0.208640
C135	C	0.804550	0.513046	-0.208664
C136	C	0.855584	0.423857	-0.259689
C137	C	0.849869	0.379246	-0.316448
C138	C	0.793114	0.423837	-0.322182
C139	C	0.742081	0.513030	-0.271158
C140	C	0.262394	1.351536	0.208528
C141	C	0.211360	1.440753	0.259553
C142	C	0.217075	1.485369	0.316313
C143	C	0.273830	1.440773	0.322047
C144	C	0.324863	1.351563	0.271022
C145	C	0.324921	1.351470	-0.031285
C146	C	0.273904	1.440673	-0.031277
C147	C	0.217140	1.485295	-0.000027
C148	C	0.211394	1.440718	0.031221
C149	C	0.262410	1.351523	0.031215
C150	C	0.564697	1.351464	0.208491
C151	C	0.564702	1.440643	0.259509
C152	C	0.533454	1.485262	0.316273
C153	C	0.502203	1.440689	0.322018
C154	C	0.502201	1.351505	0.271000
H155	H	0.371132	0.734140	-0.056735
N156	N	0.468560	0.375801	-0.253495
H157	H	0.473314	0.312533	-0.294435
H158	H	0.484968	0.338856	-0.230941
N159	N	0.810738	0.561132	-0.065045
H160	H	0.790970	0.545609	-0.096488
H161	H	0.790967	0.650647	-0.036348
H162	H	0.175604	1.557924	-0.000028
H163	H	0.788470	0.387501	-0.368403
H164	H	0.278477	1.477111	0.368266
N165	N	-0.115750	1.268564	0.096103
H166	H	-0.120543	1.316338	0.139813
H167	H	-0.120477	1.316197	0.079660
N168	N	0.533450	1.581464	0.371301
H169	H	0.551228	1.550434	0.395858
H170	H	0.557978	1.602891	0.358999
H171	H	0.613609	0.932325	0.218960
H172	H	0.278594	1.476953	-0.056725
N173	N	0.468546	0.561210	-0.147418
H174	H	0.437107	0.650742	-0.124856
H175	H	0.448785	0.519362	-0.151567
N176	N	0.468486	1.303456	0.277199
H177	H	0.497133	1.213926	0.257423
H178	H	0.448691	1.345348	0.320912
N179	N	0.386140	1.303371	-0.064985
H180	H	0.417593	1.240102	-0.060252
H181	H	0.390873	1.266436	-0.108679
N182	N	0.904912	0.283025	-0.371482
H183	H	0.904948	0.314040	-0.396046
H184	H	0.941699	0.261583	-0.359187
H185	H	0.257722	1.315234	0.056657
N186	N	0.182709	0.595996	-0.096281
H187	H	0.214163	0.612557	-0.091543
H188	H	0.187433	0.548294	-0.079882
N189	N	0.076681	0.595984	-0.096283
H190	H	0.120383	0.526802	-0.116072
H191	H	0.056871	0.591225	-0.067595
N192	N	0.680875	0.561106	-0.277348
H193	H	0.685004	0.519301	-0.321048
H194	H	0.658344	0.545582	-0.257543
H195	H	0.533519	0.306692	-0.357982
N196	N	0.468497	1.488827	0.383244
H197	H	0.484879	1.420799	0.388032
H198	H	0.473252	1.552105	0.414649
H199	H	0.278590	0.734115	-0.056755
H200	H	0.891341	0.306694	-0.000081
H201	H	0.409131	0.932279	0.546220
H202	H	-0.098221	0.734062	-0.056788
N203	N	-0.189261	0.705185	-0.065047
H204	H	-0.230196	0.721766	-0.060306
H205	H	-0.166690	0.657478	-0.108743
N206	N	0.256221	1.303421	0.147313
H207	H	0.212524	1.345222	0.151432
H208	H	0.276037	1.318923	0.124778
H209	H	0.409130	0.932274	0.453668
N210	N	-0.319184	1.159294	0.064865
H211	H	-0.315075	1.228487	0.084661
H212	H	-0.341705	1.164049	0.036176
H213	H	0.165170	1.477063	0.056663
H214	H	-0.211636	1.130443	0.056603
H215	H	-0.008198	1.239702	0.087846
H216	H	0.165153	1.477049	0.254873
N217	N	0.162030	1.581587	0.371344
H218	H	0.125215	1.603057	0.359092
H219	H	0.162050	1.550492	0.395880
H220	H	0.590143	1.315148	0.162275
H221	H	0.657834	0.932258	0.546168
N222	N	0.916777	0.375736	-0.065048
H223	H	0.912684	0.417490	-0.084850
H224	H	0.939306	0.391252	-0.036364
N225	N	0.386070	1.303466	0.277212
H226	H	0.381941	1.345270	0.320913
H227	H	0.408598	1.213938	0.257409
H228	H	0.165167	1.130498	0.056648
N229	N	0.441601	0.932358	0.318312
H230	H	0.413606	0.932375	0.294419
H231	H	0.460925	0.858069	0.318223
N232	N	0.598412	1.488704	0.253305
H233	H	0.618201	1.446908	0.209603
H234	H	0.569727	1.578238	0.273118
N235	N	0.669505	0.932267	0.446881
H236	H	0.692725	0.857984	0.404460
H237	H	0.650186	1.006599	0.447008
N238	N	0.256208	1.159378	0.064913
H239	H	0.297143	1.142797	0.060171
H240	H	0.233653	1.207069	0.048507
N241	N	0.625341	0.932263	0.787618
H242	H	0.618635	0.932260	0.823809
H243	H	0.665886	0.857973	0.757442
N244	N	0.625304	0.932299	0.318244
H245	H	0.653287	0.932306	0.294333
H246	H	0.605978	1.006586	0.360665
H247	H	0.788350	0.387652	0.056609
N248	N	0.598451	0.561164	-0.277312
H249	H	0.618245	0.519377	-0.321012
H250	H	0.569761	0.650698	-0.257497
H251	H	0.613657	0.932272	0.688319
H252	H	0.453319	0.932295	0.688363
N253	N	0.441648	0.932301	0.787662
H254	H	0.401079	1.006586	0.800040
H255	H	0.443637	0.857971	0.757504
N256	N	0.441598	0.932348	0.212258
H257	H	0.448305	0.932346	0.176066
H258	H	0.443558	0.858060	0.199924
H259	H	0.901792	0.387560	-0.255009
N260	N	0.680804	0.561222	0.064860
H261	H	0.684913	0.519452	0.084656
H262	H	0.658270	0.650757	0.096270
N263	N	0.598468	0.375797	-0.383370
H264	H	0.582088	0.443844	-0.388144
H265	H	0.642168	0.338767	-0.388111
N266	N	0.810723	0.561142	-0.147449
H267	H	0.854421	0.519356	-0.151567
H268	H	0.790910	0.650674	-0.124912
