data_functionalizedCrystal
_audit_creation_method	'MofGen! by Chris Wilmer'
_symmetry_space_group_name_H-M	'P1'
_symmetry_Int_Tables_number	1
_symmetry_cell_setting	triclinic
loop_
_symmetry_equiv_pos_as_xyz
  x,y,z
_cell_length_a	19.077105
_cell_length_b	13.032721
_cell_length_c	19.076919
_cell_angle_alpha	99.138159
_cell_angle_beta	90.076224
_cell_angle_gamma	95.201395
loop_
_atom_site_label
_atom_site_type_symbol
_atom_site_fract_x
_atom_site_fract_y
_atom_site_fract_z
Zn1	Zn	1.013397	-0.505360	-0.481832
Zn2	Zn	1.513397	-0.005360	0.018168
Zn3	Zn	1.003124	-0.673317	-0.378090
Zn4	Zn	1.503124	-0.173317	0.121910
Zn5	Zn	0.901858	-0.491366	-0.358479
Zn6	Zn	1.401858	0.008634	0.141521
Zn7	Zn	0.881001	-0.672687	-0.490791
Zn8	Zn	1.381001	-0.172687	0.009209
O9	O	0.949845	-0.585683	-0.427298
O10	O	1.449845	-0.085683	0.072702
O11	O	1.109823	-0.533760	-0.472529
O12	O	1.609823	-0.033760	0.027471
O13	O	0.994119	-0.643588	-0.276699
O14	O	1.494119	-0.143588	0.223301
O15	O	0.929682	-0.347048	-0.362886
O16	O	1.429682	0.152952	0.137114
O17	O	1.102275	-0.657157	-0.396309
O18	O	1.602275	-0.157157	0.103691
O19	O	1.011630	-0.357329	-0.453513
O20	O	1.511630	0.142671	0.046487
O21	O	0.919720	-0.509909	-0.262291
O22	O	1.419720	-0.009909	0.237709
O23	O	0.801303	-0.509299	-0.371572
O24	O	1.301303	-0.009299	0.128428
O25	O	0.894135	-0.656084	-0.588392
O26	O	1.394135	-0.156084	-0.088392
O27	O	0.785980	-0.642515	-0.468781
O28	O	1.285980	-0.142515	0.031219
O29	O	0.991406	-0.533149	-0.581810
O30	O	1.491406	-0.033149	-0.081810
O31	O	0.973896	-0.819408	-0.404996
O32	O	1.473896	-0.319408	0.095004
O33	O	0.884173	-0.818945	-0.487797
O34	O	1.384173	-0.318945	0.012203
C35	C	0.768286	-0.574321	-0.419021
C36	C	1.268286	-0.074321	0.080979
C37	C	0.690611	-0.569486	-0.415499
C38	C	1.190611	-0.069486	0.084501
C39	C	0.925675	-0.857080	-0.449513
C40	C	1.425675	-0.357080	0.050487
C41	C	0.915397	-0.973191	-0.459043
C42	C	1.415397	-0.473191	0.040957
C43	C	0.646154	-0.636670	-0.464393
C44	C	1.146154	-0.136670	0.035607
C45	C	0.573171	-0.632114	-0.461086
C46	C	1.073171	-0.132114	0.038914
C47	C	0.544646	-0.560378	-0.408881
C48	C	1.044646	-0.060378	0.091119
C49	C	0.589109	-0.493187	-0.359985
C50	C	1.089109	0.006813	0.140015
C51	C	0.662091	-0.497739	-0.363296
C52	C	1.162091	0.002261	0.136704
C53	C	0.327230	-0.539312	-0.393562
C54	C	0.827230	-0.039312	0.106438
C55	C	0.254242	-0.534767	-0.390254
C56	C	0.754242	-0.034767	0.109746
C57	C	0.238309	-0.673693	-0.491357
C58	C	0.738309	-0.173693	0.008643
C59	C	0.311292	-0.678243	-0.494660
C60	C	0.811292	-0.178243	0.005340
C61	C	0.355749	-0.611048	-0.445766
C62	C	0.855749	-0.111048	0.054234
N63	N	0.470046	-0.555721	-0.405499
N64	N	0.970046	-0.055721	0.094501
N65	N	0.430348	-0.615700	-0.449153
N66	N	0.930348	-0.115700	0.050847
C67	C	0.955245	-1.025155	-0.422357
C68	C	1.455245	-0.525155	0.077643
C69	C	0.944623	-1.145161	-0.432206
C70	C	1.444623	-0.645161	0.067794
C71	C	1.132113	-0.597090	-0.435607
C72	C	1.632113	-0.097090	0.064393
C73	C	1.209785	-0.601951	-0.439148
C74	C	1.709785	-0.101951	0.060852
C75	C	0.941590	-0.596107	-0.611432
C76	C	1.441590	-0.096107	-0.111432
C77	C	0.938072	-0.600549	-0.689899
C78	C	1.438072	-0.100549	-0.189899
C79	C	0.974128	-0.313227	-0.405012
C80	C	1.474128	0.186773	0.094988
C81	C	0.984476	-0.197123	-0.395516
C82	C	1.484476	0.302877	0.104484
C83	C	0.987061	-0.538633	-0.723338
C84	C	1.487061	-0.038633	-0.223338
C85	C	0.983747	-0.542803	-0.797065
C86	C	1.483747	-0.042803	-0.297065
C87	C	0.931448	-0.608894	-0.837354
C88	C	1.431448	-0.108894	-0.337354
C89	C	0.882454	-0.670812	-0.803910
C90	C	1.382454	-0.170812	-0.303910
C91	C	0.885765	-0.666637	-0.730183
C92	C	1.385765	-0.166637	-0.230183
C93	C	0.916112	-0.628240	-1.058220
C94	C	1.416112	-0.128240	-0.558220
C95	C	0.912806	-0.632414	-1.131952
C96	C	1.412806	-0.132414	-0.631952
C97	C	1.014098	-0.504402	-1.125102
C98	C	1.514098	-0.004402	-0.625102
C99	C	1.017407	-0.500237	-1.051375
C100	C	1.517407	-0.000237	-0.551375
C101	C	0.968412	-0.562151	-1.017937
C102	C	1.468412	-0.062151	-0.517937
N103	N	0.928061	-0.613160	-0.912715
N104	N	1.428061	-0.113160	-0.412715
N105	N	0.971796	-0.557879	-0.942576
N106	N	1.471796	-0.057879	-0.442576
C107	C	0.958115	-0.575226	-0.243875
C108	C	1.458115	-0.075226	0.256125
C109	C	0.961794	-0.570498	-0.165391
C110	C	1.461794	-0.070498	0.334609
H111	H	0.669372	-0.695088	-0.506902
H112	H	1.169372	-0.195088	-0.006902
H113	H	0.873422	-1.017547	-0.497745
H114	H	1.373422	-0.517547	0.002255
C115	C	1.040408	-1.138123	-0.343803
C116	C	1.540408	-0.638123	0.156197
C117	C	1.026059	-1.159766	-0.275416
C118	C	1.526059	-0.659766	0.224584
C119	C	1.077572	-1.105447	-0.227764
C120	C	1.577572	-0.605447	0.272236
H121	H	1.040160	-1.065305	-0.343945
H122	H	1.540160	-0.565305	0.156055
H123	H	1.085338	-1.159431	-0.357722
H124	H	1.585338	-0.659431	0.142278
H125	H	0.981141	-1.138452	-0.261502
H126	H	1.481141	-0.638452	0.238498
H127	H	1.026313	-1.232573	-0.275252
H128	H	1.526313	-0.732573	0.224748
H129	H	1.122502	-1.126754	-0.241682
H130	H	1.622502	-0.626754	0.258318
H131	H	1.077320	-1.032632	-0.227912
H132	H	1.577320	-0.532632	0.272088
H133	H	1.067847	-1.120131	-0.181359
H134	H	1.567847	-0.620131	0.318641
H135	H	0.231022	-0.476339	-0.347746
H136	H	0.731022	0.023661	0.152254
C137	C	0.888632	-1.204103	-0.483874
C138	C	1.388632	-0.704103	0.016126
C139	C	0.853940	-1.132907	-0.515823
C140	C	1.353940	-0.632907	-0.015823
C141	C	0.802366	-1.187168	-0.563429
C142	C	1.302366	-0.687168	-0.063429
H143	H	0.855608	-1.243297	-0.459007
H144	H	1.355608	-0.743297	0.040993
H145	H	0.910210	-1.250003	-0.519373
H146	H	1.410210	-0.750003	-0.019373
H147	H	0.832363	-1.087026	-0.480330
H148	H	1.332363	-0.587026	0.019670
H149	H	0.886946	-1.093711	-0.540703
H150	H	1.386946	-0.593711	-0.040703
H151	H	0.823943	-1.233068	-0.598928
H152	H	1.323943	-0.733068	-0.098928
H153	H	0.769346	-1.226360	-0.538556
H154	H	1.269346	-0.726360	-0.038556
H155	H	0.778825	-1.138871	-0.585117
H156	H	1.278825	-0.638871	-0.085117
C157	C	0.524809	-0.705108	-0.514053
C158	C	1.024809	-0.205108	-0.014053
C159	C	0.478732	-0.767058	-0.477571
C160	C	0.978732	-0.267058	0.022429
C161	C	0.434163	-0.834304	-0.526341
C162	C	0.934163	-0.334304	-0.026341
H163	H	0.552156	-0.748586	-0.545638
H164	H	1.052156	-0.248586	-0.045638
H165	H	0.498474	-0.665215	-0.540292
H166	H	0.998474	-0.165215	-0.040292
H167	H	0.505064	-0.806947	-0.451344
H168	H	1.005064	-0.306947	0.048656
H169	H	0.451370	-0.723608	-0.445989
H170	H	0.951370	-0.223608	0.054011
H171	H	0.407828	-0.794411	-0.552580
H172	H	0.907828	-0.294411	-0.052580
H173	H	0.461516	-0.877774	-0.557923
H174	H	0.961516	-0.377774	-0.057923
H175	H	0.402890	-0.876338	-0.501594
H176	H	0.902890	-0.376338	-0.001594
C177	C	1.011170	-0.966145	-0.370647
C178	C	1.511170	-0.466145	0.129353
C179	C	0.996819	-0.987785	-0.302259
C180	C	1.496819	-0.487785	0.197741
C181	C	1.048327	-0.933456	-0.254605
C182	C	1.548327	-0.433456	0.245395
H183	H	1.010918	-0.893328	-0.370791
H184	H	1.510918	-0.393328	0.129209
H185	H	1.056102	-0.987447	-0.384561
H186	H	1.556102	-0.487447	0.115439
H187	H	0.951899	-0.966477	-0.288348
H188	H	1.451899	-0.466477	0.211652
H189	H	0.997077	-1.060591	-0.302092
H190	H	1.497077	-0.560591	0.197908
H191	H	1.093259	-0.954758	-0.268520
H192	H	1.593259	-0.454758	0.231480
H193	H	1.048071	-0.860642	-0.254756
H194	H	1.548071	-0.360642	0.245244
H195	H	1.038600	-0.948139	-0.208200
H196	H	1.538600	-0.448139	0.291800
H197	H	1.029650	-0.484818	-0.690541
H198	H	1.529650	0.015182	-0.190541
H199	H	1.059997	-0.446421	-1.018577
H200	H	1.559997	0.053579	-0.518577
C201	C	0.189927	-0.746512	-0.544402
C202	C	0.689927	-0.246512	-0.044402
C203	C	0.119908	-0.727158	-0.530344
C204	C	0.619908	-0.227158	-0.030344
C205	C	0.075320	-0.794210	-0.579205
C206	C	0.575320	-0.294210	-0.079205
H207	H	0.196015	-0.816870	-0.540325
H208	H	0.696015	-0.316870	-0.040325
H209	H	0.201084	-0.734751	-0.591164
H210	H	0.701084	-0.234751	-0.091164
H211	H	0.108755	-0.738928	-0.483594
H212	H	0.608755	-0.238928	0.016406
H213	H	0.113798	-0.656813	-0.534427
H214	H	0.613798	-0.156813	-0.034427
H215	H	0.086477	-0.782448	-0.625967
H216	H	0.586477	-0.282448	-0.125967
H217	H	0.081415	-0.864564	-0.575124
H218	H	0.581415	-0.364564	-0.075124
H219	H	0.027808	-0.781081	-0.569678
H220	H	0.527808	-0.281081	-0.069678
C221	C	1.036918	-0.475399	-0.833258
C222	C	1.536918	0.024601	-0.333258
C223	C	1.031733	-0.370084	-0.806154
C224	C	1.531733	0.129916	-0.306154
C225	C	1.080711	-0.307955	-0.839468
C226	C	1.580711	0.192045	-0.339468
H227	H	1.027517	-0.487200	-0.882938
H228	H	1.527517	0.012800	-0.382938
H229	H	1.083066	-0.492884	-0.824549
H230	H	1.583066	0.007116	-0.324549
H231	H	0.985595	-0.352605	-0.814870
H232	H	1.485595	0.147395	-0.314870
H233	H	1.041140	-0.358251	-0.756478
H234	H	1.541140	0.141749	-0.256478
H235	H	1.126860	-0.325440	-0.830758
H236	H	1.626860	0.174560	-0.330758
H237	H	1.071306	-0.319765	-0.889147
H238	H	1.571306	0.180235	-0.389147
H239	H	1.077204	-0.236493	-0.821078
H240	H	1.577204	0.263507	-0.321078
H241	H	0.334511	-0.736660	-0.537169
H242	H	0.834511	-0.236660	-0.037169
H243	H	1.053987	-0.453994	-1.152335
H244	H	1.553987	0.046006	-0.652335
H245	H	0.870215	-0.686236	-1.164753
H246	H	1.370215	-0.186236	-0.664753
C247	C	0.862867	-0.695564	-1.022056
C248	C	1.362867	-0.195564	-0.522056
C249	C	0.816367	-0.754348	-1.073123
C250	C	1.316367	-0.254348	-0.573123
C251	C	0.767306	-0.816382	-1.039833
C252	C	1.267306	-0.316382	-0.539833
H253	H	0.837204	-0.652166	-0.988649
H254	H	1.337204	-0.152166	-0.488649
H255	H	0.886796	-0.741185	-0.998249
H256	H	1.386796	-0.241185	-0.498249
H257	H	0.792439	-0.708733	-1.096919
H258	H	1.292439	-0.208733	-0.596919
H259	H	0.842009	-0.797767	-1.106533
H260	H	1.342009	-0.297767	-0.606533
H261	H	0.791236	-0.862003	-1.016025
H262	H	1.291236	-0.362003	-0.516025
H263	H	0.741649	-0.772976	-1.006426
H264	H	1.241649	-0.272976	-0.506426
H265	H	0.735754	-0.856282	-1.074477
H266	H	1.235754	-0.356282	-0.574477
H267	H	0.839869	-0.724621	-0.836718
H268	H	1.339869	-0.224621	-0.336718
H269	H	0.363418	-0.484604	-0.353745
H270	H	0.863418	0.015396	0.146255
C271	C	0.558092	-0.415465	-0.303233
C272	C	1.058092	0.084535	0.196767
C273	C	0.512973	-0.469325	-0.260838
C274	C	1.012973	0.030675	0.239162
C275	C	0.484395	-0.397763	-0.208544
C276	C	0.984395	0.102237	0.291456
H277	H	0.532409	-0.369744	-0.325193
H278	H	1.032409	0.130256	0.174807
H279	H	0.595000	-0.376114	-0.274547
H280	H	1.095000	0.123886	0.225453
H281	H	0.476070	-0.508658	-0.289520
H282	H	0.976070	-0.008658	0.210480
H283	H	0.538639	-0.515041	-0.238861
H284	H	1.038639	-0.015041	0.261139
H285	H	0.521303	-0.358412	-0.179858
H286	H	1.021303	0.141588	0.320142
H287	H	0.458716	-0.352046	-0.230511
H288	H	0.958716	0.147954	0.269489
H289	H	0.453783	-0.434297	-0.179769
H290	H	0.953783	0.065703	0.320231
C291	C	0.710242	-0.424750	-0.310120
C292	C	1.210242	0.075250	0.189880
C293	C	0.669642	-0.360974	-0.263678
C294	C	1.169642	0.139026	0.236322
C295	C	0.713973	-0.293730	-0.214677
C296	C	1.213973	0.206270	0.285323
H297	H	0.741568	-0.382508	-0.334658
H298	H	1.241568	0.117492	0.165342
H299	H	0.736523	-0.464647	-0.283833
H300	H	1.236523	0.035353	0.216167
H301	H	0.643373	-0.321080	-0.289962
H302	H	1.143373	0.178920	0.210038
H303	H	0.638318	-0.403187	-0.239123
H304	H	1.138318	0.096813	0.260877
H305	H	0.740254	-0.333627	-0.188390
H306	H	1.240254	0.166373	0.311610
H307	H	0.745296	-0.251495	-0.239222
H308	H	1.245296	0.248505	0.260778
H309	H	0.686432	-0.250457	-0.183157
H310	H	1.186432	0.249543	0.316843
C311	C	0.832544	-0.733996	-0.694013
C312	C	1.332544	-0.233996	-0.194013
C313	C	0.786048	-0.792798	-0.745077
C314	C	1.286048	-0.292798	-0.245077
C315	C	0.737017	-0.854876	-0.711785
C316	C	1.237017	-0.354876	-0.211785
H317	H	0.806873	-0.690627	-0.660594
H318	H	1.306873	-0.190627	-0.160594
H319	H	0.856497	-0.779606	-0.670218
H320	H	1.356497	-0.279606	-0.170218
H321	H	0.762097	-0.747194	-0.768860
H322	H	1.262097	-0.247194	-0.268860
H323	H	0.811698	-0.836188	-0.778497
H324	H	1.311698	-0.336188	-0.278497
H325	H	0.760970	-0.900486	-0.687991
H326	H	1.260970	-0.400486	-0.187991
H327	H	0.711352	-0.811499	-0.678368
H328	H	1.211352	-0.311499	-0.178368
H329	H	0.705468	-0.894788	-0.746427
H330	H	1.205468	-0.394788	-0.246427
