data_functionalizedCrystal
_audit_creation_method	'MofGen! by Chris Wilmer'
_symmetry_space_group_name_H-M	'P1'
_symmetry_Int_Tables_number	1
_symmetry_cell_setting	triclinic
loop_
_symmetry_equiv_pos_as_xyz
  x,y,z
_cell_length_a	10.654558
_cell_length_b	27.731996
_cell_length_c	9.730223
_cell_angle_alpha	89.992740
_cell_angle_beta	90.000400
_cell_angle_gamma	83.554852
loop_
_atom_site_label
_atom_site_type_symbol
_atom_site_fract_x
_atom_site_fract_y
_atom_site_fract_z
O1	O	1.664940	0.067904	-0.114291
O2	O	1.299188	0.074368	-0.114300
O3	O	1.493458	0.000809	-0.114265
O4	O	1.470671	0.141464	-0.114325
O5	O	1.493456	0.000811	0.114315
O6	O	1.299186	0.074370	0.114280
O7	O	1.664938	0.067906	0.114289
Zn8	Zn	1.482062	0.071138	0.150577
Zn9	Zn	1.482065	0.071136	-0.150587
O10	O	1.470669	0.141466	0.114255
C11	C	1.252410	0.073894	-0.000010
C12	C	1.113027	0.072471	-0.000012
C13	C	0.916575	0.070471	-0.124611
C14	C	1.047541	0.071803	-0.124613
C15	C	1.047543	0.071802	0.124598
C16	C	0.916580	0.070467	0.124598
C17	C	0.851094	0.069807	-0.249219
C18	C	0.916570	0.070475	-0.373830
C19	C	1.047536	0.071807	-0.373832
C20	C	1.113026	0.072472	-0.249223
C21	C	1.492989	-0.017201	0.000029
C22	C	1.491579	-0.070866	0.000043
C23	C	1.482709	-0.403638	-0.124623
C24	C	1.477355	-0.605330	-0.124647
O25	O	1.476610	-0.631406	-0.230615
N26	N	1.476689	-0.630550	-0.000050
C27	C	1.477353	-0.605344	0.124563
O28	O	1.476651	-0.631423	0.230541
C29	C	1.482698	-0.403653	0.124586
C30	C	1.483377	-0.378436	-0.000020
C31	C	1.483387	-0.378421	-0.249219
C32	C	1.484732	-0.328001	-0.249211
C33	C	1.485400	-0.302799	-0.124608
C34	C	1.484722	-0.328016	-0.000013
C35	C	1.483353	-0.378447	0.249197
C36	C	1.484686	-0.328021	0.249192
C37	C	1.485365	-0.302804	0.124586
C38	C	1.486736	-0.252394	0.124598
N39	N	1.487402	-0.227174	0.000000
C40	C	1.486734	-0.252376	-0.124603
C41	C	1.474549	-0.711235	0.124542
C42	C	1.473215	-0.761658	0.124537
C43	C	1.473215	-0.761640	-0.124674
C44	C	1.474558	-0.711217	-0.124667
C45	C	1.475216	-0.686015	-0.000055
C46	C	1.489560	-0.146492	-0.124578
C47	C	1.490911	-0.096068	-0.124560
C48	C	1.490904	-0.096090	0.124650
C49	C	1.489560	-0.146510	0.124633
C50	C	1.488884	-0.171709	0.000007
O51	O	1.487467	-0.226286	0.230510
O52	O	1.487409	-0.226288	-0.230565
C53	C	1.481364	-0.454058	-0.124630
C54	C	1.480686	-0.479275	-0.000035
C55	C	1.481354	-0.454073	0.124569
C56	C	1.479352	-0.529698	-0.000040
C57	C	1.478685	-0.554900	-0.124643
C58	C	1.479351	-0.529680	-0.249241
C59	C	1.480696	-0.479260	-0.249233
C60	C	1.480688	-0.479293	0.249166
C61	C	1.479344	-0.529713	0.249149
C62	C	1.478676	-0.554915	0.124546
C63	C	1.711717	0.068381	-0.000003
C64	C	1.851099	0.069803	-0.000010
C65	C	1.471138	0.159475	-0.000043
C66	C	1.472548	0.213140	-0.000066
N67	N	1.482069	0.071140	0.356113
N68	N	1.482068	0.071131	-0.356124
C69	C	1.568113	0.038579	0.428054
C70	C	1.568110	0.038573	0.571937
C71	C	1.396014	0.103693	0.571925
C72	C	1.396013	0.103696	0.428045
C73	C	1.654169	0.006022	0.356123
C74	C	1.740221	-0.026541	0.428064
C75	C	1.740218	-0.026547	0.571947
C76	C	1.654163	0.006011	0.643889
H77	H	1.219668	0.073554	-0.249234
H78	H	1.810276	-0.053064	0.630520
C79	C	1.488838	-0.174205	-0.261672
N80	N	1.488308	-0.195079	-0.364932
C81	C	1.654178	0.006025	0.197849
N82	N	1.654183	0.006027	0.078637
H83	H	1.100875	0.072344	0.226048
C84	C	1.654165	0.006002	0.802165
N85	N	1.654173	0.005998	0.921377
C86	C	1.301362	0.139504	0.651066
N87	N	1.230070	0.166479	0.710676
C88	C	1.301332	0.139505	0.348905
N89	N	1.230004	0.166471	0.289296
C90	C	0.844530	0.069741	-0.510892
N91	N	0.790270	0.069189	-0.614130
H92	H	0.863265	0.069932	0.226059
H93	H	1.810278	-0.053051	0.369482
H94	H	1.491467	-0.075539	-0.226033
H95	H	0.744454	0.068724	-0.249232
C96	C	1.485465	-0.300269	-0.386289
N97	N	1.486011	-0.279383	-0.489543
C98	C	1.491627	-0.068357	0.261707
N99	N	1.492157	-0.047466	0.364939
H100	H	1.475109	-0.690688	-0.226132
C101	C	1.482706	-0.406138	-0.386304
N102	N	1.482222	-0.427013	-0.489566
C103	C	1.472470	-0.789371	-0.261739
N104	N	1.471898	-0.810260	-0.364970
C105	C	1.119558	0.072537	-0.510904
N106	N	1.173802	0.073087	-0.614152
C107	C	1.472481	-0.789391	0.261613
N108	N	1.471919	-0.810278	0.364864
C109	C	1.475281	-0.683519	0.261634
N110	N	1.475838	-0.662647	0.364894
H111	H	1.482802	-0.398970	0.350665
H112	H	1.485203	-0.307503	0.350668
H113	H	1.489019	-0.167043	0.226097
C114	C	1.478595	-0.557445	0.386235
N115	N	1.478017	-0.578331	0.489486
H116	H	1.481248	-0.458733	-0.350700
H117	H	1.478813	-0.550209	-0.350697
H118	H	1.481234	-0.458778	0.350635
