data_functionalizedCrystal
_audit_creation_method	'MofGen! by Chris Wilmer'
_symmetry_space_group_name_H-M	'P1'
_symmetry_Int_Tables_number	1
_symmetry_cell_setting	triclinic
loop_
_symmetry_equiv_pos_as_xyz
  x,y,z
_cell_length_a	8.634740
_cell_length_b	14.044220
_cell_length_c	7.088929
_cell_angle_alpha	96.793068
_cell_angle_beta	82.825325
_cell_angle_gamma	96.879592
loop_
_atom_site_label
_atom_site_type_symbol
_atom_site_fract_x
_atom_site_fract_y
_atom_site_fract_z
O1	O	2.074435	0.321381	0.159014
O2	O	2.407768	0.654714	0.492347
O3	O	2.741102	0.988048	0.825680
O4	O	1.621873	0.295137	0.159014
O5	O	1.955207	0.628470	0.492347
O6	O	2.288540	0.961803	0.825681
O7	O	1.841363	0.169653	0.158995
O8	O	2.174696	0.502986	0.492328
O9	O	2.508030	0.836319	0.825662
O10	O	1.854945	0.446865	0.159033
O11	O	2.188279	0.780198	0.492366
O12	O	2.521612	1.113531	0.825699
O13	O	1.870689	0.152839	-0.158983
O14	O	2.204023	0.486172	0.174351
O15	O	2.537356	0.819505	0.507684
O16	O	1.651200	0.278322	-0.158964
O17	O	1.984533	0.611656	0.174370
O18	O	2.317866	0.944989	0.507703
O19	O	2.103762	0.304567	-0.158964
O20	O	2.437095	0.637900	0.174369
O21	O	2.770428	0.971233	0.507703
Cu22	Cu	1.880158	0.289909	-0.187998
Cu23	Cu	2.213492	0.623243	0.145336
Cu24	Cu	2.546825	0.956576	0.478669
Cu25	Cu	1.845476	0.309794	0.188048
Cu26	Cu	2.178810	0.643127	0.521381
Cu27	Cu	2.512143	0.976461	0.854714
O28	O	1.884272	0.430051	-0.158945
O29	O	2.217605	0.763384	0.174388
O30	O	2.550938	1.096717	0.507722
C31	C	1.578269	0.280784	0.000025
C32	C	1.911602	0.614118	0.333358
C33	C	2.244935	0.947451	0.666692
C34	C	1.404647	0.263058	0.000024
C35	C	1.737980	0.596391	0.333358
C36	C	2.071314	0.929724	0.666691
C37	C	1.850079	0.125388	0.000005
C38	C	2.183413	0.458721	0.333339
C39	C	2.516746	0.792055	0.666672
C40	C	1.832341	0.018542	0.000003
C41	C	2.165674	0.351875	0.333336
C42	C	2.499007	0.685209	0.666670
C43	C	1.799908	-0.177080	0.000030
C44	C	2.133241	0.156254	0.333364
C45	C	2.466574	0.489587	0.666697
C46	C	1.925719	-0.223222	0.000036
C47	C	2.259052	0.110111	0.333370
C48	C	2.592385	0.443444	0.666703
C49	C	1.907673	-0.332073	0.000052
C50	C	2.241006	0.001260	0.333385
C51	C	2.574339	0.334594	0.666718
C52	C	1.817951	-0.068219	0.000015
C53	C	2.151285	0.265114	0.333349
C54	C	2.484618	0.598447	0.666682
C55	C	2.147366	0.318919	0.000029
C56	C	2.480699	0.652253	0.333363
C57	C	2.814033	0.985586	0.666696
C58	C	2.320986	0.336647	0.000042
C59	C	2.654320	0.669980	0.333376
C60	C	2.987653	1.003313	0.666709
C61	C	1.875555	0.474316	0.000049
C62	C	2.208888	0.807649	0.333382
C63	C	2.542222	1.140982	0.666716
C64	C	1.893293	0.581162	0.000064
C65	C	2.226626	0.914496	0.333397
C66	C	2.559959	1.247829	0.666730
N67	N	1.904563	0.275924	-0.452488
N68	N	2.237896	0.609257	-0.119155
N69	N	2.571230	0.942591	0.214179
N70	N	1.821083	0.323773	0.452538
N71	N	2.154416	0.657106	0.785871
N72	N	2.487750	0.990440	1.119204
H73	H	1.382189	0.413210	0.000035
H74	H	1.715522	0.746543	0.333369
H75	H	2.048855	1.079876	0.666702
H76	H	1.991099	0.226344	-0.534151
H77	H	2.324433	0.559677	-0.200818
H78	H	2.657766	0.893011	0.132515
H79	H	1.343434	0.186491	0.000069
H80	H	1.676767	0.519825	0.333402
H81	H	2.010100	0.853158	0.666735
H82	H	2.046970	-0.180970	0.000164
H83	H	2.380303	0.152364	0.333498
H84	H	2.713636	0.485697	0.666831
H85	H	1.678654	-0.219323	0.000035
H86	H	2.011987	0.114011	0.333369
H87	H	2.345321	0.447344	0.666702
H88	H	1.734565	0.373358	-0.465808
H89	H	2.067898	0.706691	-0.132475
H90	H	2.401232	1.040024	0.200858
