data_functionalizedCrystal
_audit_creation_method	'MofGen! by Chris Wilmer'
_symmetry_space_group_name_H-M	'P1'
_symmetry_Int_Tables_number	1
_symmetry_cell_setting	triclinic
loop_
_symmetry_equiv_pos_as_xyz
  x,y,z
_cell_length_a	19.188930
_cell_length_b	23.532407
_cell_length_c	17.666332
_cell_angle_alpha	89.988854
_cell_angle_beta	89.976766
_cell_angle_gamma	82.996728
loop_
_atom_site_label
_atom_site_type_symbol
_atom_site_fract_x
_atom_site_fract_y
_atom_site_fract_z
O1	O	0.925923	0.071102	-0.063199
O2	O	1.425923	0.571102	0.436801
O3	O	0.722581	0.080673	-0.063148
O4	O	1.222581	0.580673	0.436852
O5	O	0.830384	-0.007031	-0.063161
O6	O	1.330384	0.492969	0.436839
O7	O	0.818120	0.158806	-0.063186
O8	O	1.318120	0.658806	0.436814
O9	O	0.830365	-0.007036	0.062735
O10	O	1.330365	0.492964	0.562735
O11	O	0.722562	0.080669	0.062748
O12	O	1.222562	0.580669	0.562748
O13	O	0.925904	0.071097	0.062697
O14	O	1.425904	0.571097	0.562697
Cu15	Cu	0.824231	0.075883	0.074218
Cu16	Cu	1.324231	0.575883	0.574218
Cu17	Cu	0.824253	0.075888	-0.074669
Cu18	Cu	1.324253	0.575888	0.425331
O19	O	0.818101	0.158802	0.062711
O20	O	1.318101	0.658802	0.562711
C21	C	0.696561	0.080361	-0.000193
C22	C	1.196561	0.580361	0.499807
C23	C	0.619060	0.079431	-0.000173
C24	C	1.119060	0.579431	0.499827
C25	C	0.573972	0.130893	-0.000193
C26	C	1.073972	0.630893	0.499807
C27	C	0.501151	0.130019	-0.000201
C28	C	1.001151	0.630019	0.499799
C29	C	0.473421	0.077680	-0.000205
C30	C	0.973421	0.577680	0.499795
C31	C	0.518519	0.026211	-0.000181
C32	C	1.018519	0.526211	0.499819
C33	C	0.591339	0.027086	-0.000165
C34	C	1.091339	0.527086	0.499835
N35	N	0.365575	0.037674	-0.043078
N36	N	0.865575	0.537674	0.456922
N37	N	0.296399	0.036846	-0.043094
N38	N	0.796399	0.536846	0.456906
C39	C	0.254021	0.075038	-0.000251
C40	C	0.754021	0.575038	0.499749
N41	N	0.283431	0.114099	0.042600
N42	N	0.783431	0.614099	0.542600
N43	N	0.352613	0.114929	0.042614
N44	N	0.852613	0.614929	0.542614
C45	C	0.394462	0.076724	-0.000222
C46	C	0.894462	0.576724	0.499778
C47	C	0.129971	0.125556	-0.000278
C48	C	0.629971	0.625556	0.499722
C49	C	0.057149	0.124680	-0.000282
C50	C	0.557149	0.624680	0.499718
C51	C	0.074520	0.020870	-0.000269
C52	C	0.574520	0.520870	0.499731
C53	C	0.147340	0.021748	-0.000258
C54	C	0.647340	0.521748	0.499742
C55	C	0.175061	0.074092	-0.000266
C56	C	0.675061	0.574092	0.499734
C57	C	0.830062	-0.028250	-0.000211
C58	C	1.330062	0.471750	0.499789
C59	C	0.829123	-0.091469	-0.000205
C60	C	1.329123	0.408531	0.499795
C61	C	0.887029	-0.490449	-0.000261
C62	C	1.387029	0.009551	0.499739
C63	C	0.886157	-0.549851	-0.000267
C64	C	1.386157	-0.049851	0.499733
O65	O	0.939837	-0.586482	-0.000308
O66	O	1.439837	-0.086482	0.499692
N67	N	0.822068	-0.572613	-0.000250
N68	N	1.322068	-0.072613	0.499750
C69	C	0.758848	-0.535970	-0.000236
C70	C	1.258848	-0.035970	0.499764
O71	O	0.704255	-0.560786	-0.000223
O72	O	1.204255	-0.060786	0.499777
C73	C	0.759721	-0.476569	-0.000235
C74	C	1.259721	0.023431	0.499765
C75	C	0.823814	-0.453810	-0.000244
C76	C	1.323814	0.046190	0.499756
C77	C	0.951117	-0.467690	-0.000271
C78	C	1.451117	0.032310	0.499729
C79	C	0.951989	-0.408292	-0.000264
C80	C	1.451989	0.091708	0.499736
C81	C	0.888773	-0.371653	-0.000247
C82	C	1.388773	0.128347	0.499753
C83	C	0.824685	-0.394412	-0.000237
C84	C	1.324685	0.105588	0.499763
C85	C	0.696501	-0.439927	-0.000226
C86	C	1.196501	0.060073	0.499774
C87	C	0.697379	-0.380523	-0.000227
C88	C	1.197379	0.119477	0.499773
C89	C	0.761472	-0.357764	-0.000236
C90	C	1.261472	0.142236	0.499764
C91	C	0.762342	-0.298376	-0.000214
C92	C	1.262342	0.201624	0.499786
N93	N	0.826430	-0.275614	-0.000230
N94	N	1.326430	0.224386	0.499770
C95	C	0.889646	-0.312252	-0.000247
C96	C	1.389646	0.187748	0.499753
C97	C	0.757019	-0.660717	-0.000237
C98	C	1.257019	-0.160717	0.499763
C99	C	0.756146	-0.720116	-0.000232
C100	C	1.256146	-0.220116	0.499768
C101	C	0.883455	-0.733993	-0.000264
C102	C	1.383455	-0.233993	0.499736
C103	C	0.884328	-0.674592	-0.000264
C104	C	1.384328	-0.174592	0.499736
C105	C	0.821108	-0.637954	-0.000254
C106	C	1.321108	-0.137954	0.499746
C107	C	0.891472	-0.187512	-0.000232
C108	C	1.391472	0.312488	0.499768
C109	C	0.892339	-0.128108	-0.000222
C110	C	1.392339	0.371892	0.499778
C111	C	0.765029	-0.114236	-0.000193
C112	C	1.265029	0.385764	0.499807
C113	C	0.764163	-0.173634	-0.000199
C114	C	1.264163	0.326366	0.499801
C115	C	0.827390	-0.210272	-0.000221
C116	C	1.327390	0.289728	0.499779
O117	O	0.708690	-0.261710	-0.000176
O118	O	1.208690	0.238290	0.499824
O119	O	0.944230	-0.287428	-0.000270
O120	O	1.444230	0.212572	0.499730
C121	C	0.951923	0.071410	-0.000259
C122	C	1.451923	0.571410	0.499741
C123	C	1.029425	0.072340	-0.000284
C124	C	1.529425	0.572340	0.499716
C125	C	0.818423	0.180021	-0.000241
C126	C	1.318423	0.680021	0.499759
C127	C	0.819362	0.243240	-0.000252
C128	C	1.319362	0.743240	0.499748
N129	N	0.824221	0.075878	0.178938
N130	N	1.324221	0.575878	0.678938
N131	N	0.824270	0.075888	-0.179389
N132	N	1.324270	0.575888	0.320611
C133	C	0.871971	0.037062	0.218542
C134	C	1.371971	0.537062	0.718542
C135	C	0.871975	0.037059	0.297789
C136	C	1.371975	0.537059	0.797789
C137	C	0.824236	0.075883	0.337430
C138	C	1.324236	0.575883	0.837430
C139	C	0.776476	0.114702	0.297816
C140	C	1.276476	0.614702	0.797816
C141	C	0.776469	0.114700	0.218570
C142	C	1.276469	0.614700	0.718570
N143	N	0.814998	0.126298	0.461842
N144	N	1.314998	0.626298	0.961842
N145	N	0.815010	0.126298	0.537123
N146	N	1.315010	0.626298	1.037123
C147	C	0.824254	0.075891	0.576194
C148	C	1.324254	0.575891	1.076194
N149	N	0.833500	0.025481	0.537141
N150	N	1.333500	0.525481	1.037141
N151	N	0.833493	0.025482	0.461853
N152	N	1.333493	0.525482	0.961853
C153	C	0.824238	0.075889	0.423359
C154	C	1.324238	0.575889	0.923359
C155	C	0.872011	0.037068	0.701727
C156	C	1.372011	0.537068	1.201727
C157	C	0.872010	0.037064	0.780976
C158	C	1.372010	0.537064	1.280976
C159	C	0.776515	0.114713	0.781002
C160	C	1.276515	0.614713	1.281002
C161	C	0.776512	0.114711	0.701754
C162	C	1.276512	0.614711	1.201754
C163	C	0.824264	0.075889	0.662122
C164	C	1.324264	0.575889	1.162122
H165	H	0.152543	0.168178	-0.000274
H166	H	0.652543	0.668178	0.499726
H167	H	0.713561	-0.084394	-0.000177
H168	H	1.213561	0.415606	0.499823
H169	H	0.910860	0.005449	0.330041
H170	H	1.410860	0.505449	0.830041
H171	H	0.020438	0.166588	-0.000293
H172	H	0.520438	0.666588	0.499707
C173	C	0.381807	0.174765	-0.000238
C174	C	0.881807	0.674765	0.499762
C175	C	0.451577	0.186589	-0.000225
C176	C	0.951577	0.686589	0.499775
H177	H	0.351206	0.209689	-0.000248
H178	H	0.851206	0.709689	0.499752
H179	H	0.373473	0.153297	-0.044135
H180	H	0.873473	0.653297	0.455865
H181	H	0.373425	0.153296	0.043671
H182	H	0.873425	0.653296	0.543671
H183	H	0.459961	0.208054	-0.044137
H184	H	0.959961	0.708054	0.455863
H185	H	0.459915	0.208066	0.043677
H186	H	0.959915	0.708066	0.543677
C187	C	0.956332	-0.808835	-0.065020
C188	C	1.456332	-0.308835	0.434980
C189	C	0.952947	-0.774273	-0.000294
C190	C	1.452947	-0.274273	0.499706
H191	H	0.999233	-0.833699	-0.065040
H192	H	1.499233	-0.333699	0.434960
H193	H	0.918040	-0.830886	-0.065004
H194	H	1.418040	-0.330886	0.434996
H195	H	0.954031	-0.785357	-0.108914
H196	H	1.454031	-0.285357	0.391086
H197	H	0.955243	-0.797750	0.043599
H198	H	1.455243	-0.297750	0.543599
H199	H	0.991249	-0.752219	-0.000304
H200	H	1.491249	-0.252219	0.499696
C201	C	0.414603	-0.021223	-0.000213
C202	C	0.914603	0.478777	0.499787
C203	C	0.488042	-0.031322	-0.000190
C204	C	0.988042	0.468678	0.499810
H205	H	0.395791	-0.056743	-0.000221
H206	H	0.895791	0.443257	0.499779
H207	H	0.399080	-0.000047	0.043681
H208	H	0.899080	0.499953	0.543681
H209	H	0.399135	-0.000038	-0.044125
H210	H	0.899135	0.499962	0.455875
H211	H	0.503510	-0.052503	0.043725
H212	H	1.003510	0.447497	0.543725
H213	H	0.503572	-0.052507	-0.044089
H214	H	1.003572	0.447493	0.455911
C215	C	0.682129	0.191465	0.709742
C216	C	1.182129	0.691465	1.209742
C217	C	0.724030	0.157386	0.658216
C218	C	1.224030	0.657386	1.158216
H219	H	0.649730	0.217813	0.682862
H220	H	1.149730	0.717813	1.182862
H221	H	0.657184	0.167810	0.740669
H222	H	1.157184	0.667810	1.240669
H223	H	0.711058	0.211891	0.740631
H224	H	1.211058	0.711891	1.240631
H225	H	0.695102	0.136957	0.627331
H226	H	1.195102	0.636957	1.127331
H227	H	0.748978	0.181044	0.627276
H228	H	1.248978	0.681044	1.127276
C229	C	0.581598	0.219646	-0.064925
C230	C	1.081598	0.719646	0.435075
C231	C	0.604432	0.188434	-0.000197
C232	C	1.104432	0.688434	0.499803
H233	H	0.600399	0.255171	-0.064923
H234	H	1.100399	0.755171	0.435077
H235	H	0.597134	0.198466	-0.108812
H236	H	1.097134	0.698466	0.391188
H237	H	0.531775	0.226476	-0.064929
H238	H	1.031775	0.726476	0.435071
H239	H	0.654255	0.181600	-0.000196
H240	H	1.154255	0.681600	0.499804
H241	H	0.588900	0.209618	0.043702
H242	H	1.088900	0.709618	0.543702
H243	H	0.703955	-0.738641	-0.000211
H244	H	1.203955	-0.238641	0.499789
H245	H	0.645897	-0.350694	-0.000220
H246	H	1.145897	0.149306	0.499780
H247	H	0.051943	-0.021745	-0.000319
H248	H	0.551943	0.478255	0.499681
C249	C	0.239271	-0.037492	0.064480
C250	C	0.739271	0.462508	0.564480
C251	C	0.196906	-0.034821	-0.000247
C252	C	0.696906	0.465179	0.499753
H253	H	0.269868	-0.072419	0.064489
H254	H	0.769868	0.427581	0.564489
H255	H	0.266202	-0.006199	0.064478
H256	H	0.766202	0.493801	0.564478
H257	H	0.210471	-0.035679	0.108372
H258	H	0.710471	0.464321	0.608372
H259	H	0.225706	-0.036630	-0.044140
H260	H	0.725706	0.463370	0.455860
H261	H	0.169973	-0.066123	-0.000252
H262	H	0.669973	0.433877	0.499748
H263	H	0.628050	-0.014822	-0.000150
H264	H	1.128050	0.485178	0.499850
C265	C	1.018094	-0.147801	-0.000260
C266	C	1.518094	0.352199	0.499740
C267	C	0.962794	-0.103093	-0.000238
C268	C	1.462794	0.396907	0.499762
H269	H	1.061588	-0.132357	-0.000276
H270	H	1.561588	0.367643	0.499724
H271	H	1.015100	-0.170687	0.043639
H272	H	1.515100	0.329313	0.543639
H273	H	1.015103	-0.170673	-0.044167
H274	H	1.515103	0.329327	0.455833
H275	H	0.965782	-0.080223	0.043672
H276	H	1.465782	0.419777	0.543672
H277	H	0.965790	-0.080197	-0.044142
H278	H	1.465790	0.419803	0.455858
C279	C	0.964381	-0.262343	-0.064975
C280	C	1.464381	0.237657	0.435025
C281	C	0.960972	-0.227777	-0.000253
C282	C	1.460972	0.272223	0.499747
H283	H	1.007289	-0.287197	-0.064985
H284	H	1.507289	0.212803	0.435015
H285	H	0.926098	-0.284404	-0.064965
H286	H	1.426098	0.215596	0.435035
H287	H	0.962079	-0.238867	-0.108871
H288	H	1.462079	0.261133	0.391129
H289	H	0.963269	-0.251252	0.043643
H290	H	1.463269	0.248748	0.543643
H291	H	0.999265	-0.205713	-0.000256
H292	H	1.499265	0.294287	0.499744
H293	H	1.004180	-0.389768	-0.000274
H294	H	1.504180	0.110232	0.499726
H295	H	1.002598	-0.497516	-0.000287
H296	H	1.502598	0.002484	0.499713
H297	H	0.936518	-0.656067	-0.000272
H298	H	1.436518	-0.156067	0.499728
C299	C	0.631091	-0.652976	-0.000193
C300	C	1.131091	-0.152976	0.499807
C301	C	0.687521	-0.620446	-0.000211
C302	C	1.187521	-0.120446	0.499789
H303	H	0.588187	-0.628115	-0.000172
H304	H	1.088187	-0.128115	0.499828
H305	H	0.633406	-0.676424	-0.044095
H306	H	1.133406	-0.176424	0.455905
H307	H	0.633404	-0.676442	0.043711
H308	H	1.133404	-0.176442	0.543711
H309	H	0.685210	-0.596982	-0.044118
H310	H	1.185210	-0.096982	0.455882
H311	H	0.685205	-0.596988	0.043696
H312	H	1.185205	-0.096988	0.543696
H313	H	0.644310	-0.458446	-0.000224
H314	H	1.144310	0.041554	0.499776
C315	C	0.638411	-0.153948	-0.000175
C316	C	1.138411	0.346052	0.499825
C317	C	0.693712	-0.198654	-0.000191
C318	C	1.193712	0.301346	0.499809
H319	H	0.594918	-0.169392	-0.000181
H320	H	1.094918	0.330608	0.499819
H321	H	0.641388	-0.131083	0.043732
H322	H	1.141388	0.368917	0.543732
H323	H	0.641416	-0.131055	-0.044074
H324	H	1.141416	0.368945	0.455926
H325	H	0.690709	-0.221545	0.043712
H326	H	1.190709	0.278455	0.543712
H327	H	0.690733	-0.221529	-0.044102
H328	H	1.190733	0.278471	0.455898
H329	H	0.910852	0.005450	0.186275
H330	H	1.410852	0.505450	0.686275
H331	H	0.737605	0.146312	0.330096
H332	H	1.237605	0.646312	0.830096
H333	H	0.737642	0.146321	0.813277
H334	H	1.237642	0.646321	1.313277
C335	C	0.682078	0.191452	0.226557
C336	C	1.182078	0.691452	0.726557
C337	C	0.723983	0.157375	0.175033
C338	C	1.223983	0.657375	0.675033
H339	H	0.649680	0.217800	0.199676
H340	H	1.149680	0.717800	0.699676
H341	H	0.657132	0.167796	0.257482
H342	H	1.157132	0.667796	0.757482
H343	H	0.711006	0.211878	0.257449
H344	H	1.211006	0.711878	0.757449
H345	H	0.695056	0.136945	0.144145
H346	H	1.195056	0.636945	0.644145
H347	H	0.748931	0.181033	0.144095
H348	H	1.248931	0.681033	0.644095
H349	H	0.910892	0.005452	0.813222
H350	H	1.410892	0.505452	1.313222
H351	H	0.910892	0.005455	0.669457
H352	H	1.410892	0.505455	1.169457
