data_functionalizedCrystal
_audit_creation_method	'MofGen! by Chris Wilmer'
_symmetry_space_group_name_H-M	'P1'
_symmetry_Int_Tables_number	1
_symmetry_cell_setting	triclinic
loop_
_symmetry_equiv_pos_as_xyz
  x,y,z
_cell_length_a	10.489741
_cell_length_b	19.188930
_cell_length_c	8.965430
_cell_angle_alpha	89.995304
_cell_angle_beta	89.998843
_cell_angle_gamma	83.841978
loop_
_atom_site_label
_atom_site_type_symbol
_atom_site_fract_x
_atom_site_fract_y
_atom_site_fract_z
O1	O	1.691851	0.098497	-0.123966
O2	O	1.320449	0.107743	-0.123991
O3	O	1.516868	0.001536	-0.123949
O4	O	1.495432	0.204704	-0.124008
O5	O	1.516851	0.001543	0.124130
O6	O	1.320432	0.107750	0.124088
O7	O	1.691834	0.098504	0.124113
Cu8	Cu	1.506132	0.103128	0.146752
Cu9	Cu	1.506151	0.103120	-0.146630
O10	O	1.495415	0.204711	0.124070
C11	C	1.272924	0.107048	0.000046
C12	C	1.131341	0.104959	0.000037
C13	C	1.064712	0.037383	0.000071
C14	C	0.971880	0.069302	-0.122251
C15	C	0.971897	0.069325	0.122336
C16	C	1.040374	0.136906	-0.122386
C17	C	1.040401	0.136919	0.122310
C18	C	0.947595	0.168887	-0.000041
C19	C	1.516165	-0.024476	0.000095
C20	C	1.514081	-0.101994	0.000108
C21	C	1.629334	-0.146146	0.000123
C22	C	1.627376	-0.218983	0.000099
C23	C	1.510159	-0.247665	0.000090
C24	C	1.394892	-0.203503	0.000066
C25	C	1.396853	-0.130668	0.000075
N26	N	1.420556	-0.356268	0.084510
N27	N	1.418701	-0.425459	0.084504
C28	C	1.504244	-0.467113	0.000059
N29	N	1.591732	-0.436964	-0.084362
N30	N	1.593591	-0.367767	-0.084350
C31	C	1.508020	-0.326642	0.000079
C32	C	1.617382	-0.590244	0.000046
C33	C	1.615419	-0.663081	0.000012
C34	C	1.382932	-0.647600	-0.000005
C35	C	1.384898	-0.574764	0.000013
C36	C	1.502126	-0.546090	0.000046
C37	C	1.739359	0.099199	0.000073
C38	C	1.880941	0.101288	0.000071
C39	C	1.496118	0.230723	0.000023
C40	C	1.498202	0.308242	0.000001
N41	N	1.506127	0.103133	0.353101
N42	N	1.506166	0.103109	-0.352979
C43	C	1.415262	0.152234	0.450387
C44	C	1.530443	0.166361	0.549804
C45	C	1.390995	0.089012	0.549812
C46	C	1.621366	0.117292	0.450329
C47	C	1.481842	0.039916	0.450328
C48	C	1.597106	0.054016	0.549700
H49	H	1.070801	0.165492	0.225715
C50	C	1.748110	-0.753951	-0.127525
C51	C	1.742118	-0.711615	0.000018
H52	H	1.826334	-0.783910	-0.127525
H53	H	1.678030	-0.781455	-0.127533
H54	H	1.744049	-0.725199	-0.214016
H55	H	1.746169	-0.740367	0.086509
H56	H	1.812217	-0.684109	0.000039
C57	C	1.223011	0.176208	0.305571
C58	C	1.311625	0.208335	0.391502
H59	H	1.159032	0.210843	0.269225
H60	H	1.265854	0.152464	0.223874
H61	H	1.184035	0.143535	0.365350
H62	H	1.350608	0.241004	0.331720
H63	H	1.268776	0.232090	0.473211
H64	H	1.718768	0.129289	0.406814
H65	H	1.712836	-0.566896	0.000065
C66	C	1.343216	-0.024399	0.303143
C67	C	1.454031	-0.032217	0.391274
H68	H	1.326043	-0.068930	0.266677
H69	H	1.272802	-0.004675	0.361454
H70	H	1.355660	0.005702	0.221512
H71	H	1.441584	-0.062314	0.472912
H72	H	1.524462	-0.051951	0.332960
C73	C	1.274833	0.011626	0.694714
C74	C	1.259539	0.072896	0.608805
H75	H	1.193675	0.001684	0.731137
H76	H	1.311044	-0.026301	0.634910
H77	H	1.330137	0.017947	0.776375
H78	H	1.204241	0.066573	0.527138
H79	H	1.223310	0.110832	0.668612
H80	H	1.070570	0.165474	-0.225917
C81	C	0.990663	-0.038136	0.261709
C82	C	0.930931	0.030718	0.261947
H83	H	0.965379	-0.061971	0.347898
H84	H	0.966044	-0.061686	0.174868
H85	H	1.081077	-0.037447	0.262225
H86	H	0.840516	0.030028	0.261420
H87	H	0.955542	0.054273	0.348811
C88	C	1.760009	-0.309884	0.127651
C89	C	1.754069	-0.267527	0.000126
H90	H	1.838221	-0.339854	0.127662
H91	H	1.755935	-0.281151	0.214145
H92	H	1.689908	-0.337382	0.127617
H93	H	1.824165	-0.240025	0.000166
H94	H	1.758156	-0.296264	-0.086390
C95	C	1.276697	-0.752373	-0.000028
C96	C	1.254083	-0.679119	-0.000019
H97	H	1.197147	-0.771832	-0.000033
H98	H	1.324136	-0.767478	-0.086530
H99	H	1.324129	-0.767490	0.086492
H100	H	1.206659	-0.664002	-0.086545
H101	H	1.206624	-0.664008	0.086492
H102	H	1.674048	0.012481	0.593031
C103	C	1.455373	0.267007	0.696967
C104	C	1.558205	0.238515	0.608809
H105	H	1.472511	0.311551	0.733396
H106	H	1.379330	0.272152	0.638686
H107	H	1.444555	0.236644	0.778623
H108	H	1.569018	0.268876	0.527147
H109	H	1.634269	0.233373	0.667093
H110	H	1.299453	-0.226861	0.000056
C111	C	1.099119	-0.072836	-0.128321
C112	C	1.133441	-0.037616	-0.000076
H113	H	1.141561	-0.119133	-0.128420
H114	H	1.009000	-0.074686	-0.129188
H115	H	1.123540	-0.048578	-0.214328
H116	H	1.109011	-0.061871	0.085932
H117	H	1.223580	-0.035770	0.000805
C118	C	0.967166	0.065433	-0.389861
C119	C	0.930889	0.030700	-0.261840
H120	H	0.941874	0.041595	-0.476033
H121	H	0.926650	0.112139	-0.390003
H122	H	1.057583	0.066110	-0.390378
H123	H	0.840470	0.030028	-0.261317
H124	H	0.971401	-0.016019	-0.261698
C125	C	1.858938	-0.168770	0.000145
C126	C	1.758190	-0.114629	0.000142
H127	H	1.938486	-0.149310	0.000147
H128	H	1.853328	-0.196859	0.086648
H129	H	1.853335	-0.196853	-0.086374
H130	H	1.763787	-0.086549	0.086667
H131	H	1.763802	-0.086528	-0.086370
H132	H	1.302998	-0.094719	0.000064
H133	H	1.291047	-0.538814	0.000010
H134	H	0.896927	0.224498	-0.000124
