data_functionalizedCrystal
_audit_creation_method	'MofGen! by Chris Wilmer'
_symmetry_space_group_name_H-M	'P1'
_symmetry_Int_Tables_number	1
_symmetry_cell_setting	triclinic
loop_
_symmetry_equiv_pos_as_xyz
  x,y,z
_cell_length_a	12.594516
_cell_length_b	16.625548
_cell_length_c	16.625548
_cell_angle_alpha	90.002903
_cell_angle_beta	90.007202
_cell_angle_gamma	90.024258
loop_
_atom_site_label
_atom_site_type_symbol
_atom_site_fract_x
_atom_site_fract_y
_atom_site_fract_z
Zn1	Zn	-0.423746	1.232606	0.455817
Zn2	Zn	-0.601694	1.232549	0.320994
Zn3	Zn	-0.423749	1.097797	0.321011
Zn4	Zn	-0.601702	1.097749	0.455797
O5	O	-0.512723	1.165175	0.388405
O6	O	-0.447347	1.345431	0.437935
O7	O	-0.578088	1.214670	0.208164
O8	O	-0.274803	1.115724	0.338908
O9	O	-0.578085	1.345389	0.338881
O10	O	-0.274801	1.214768	0.437950
O11	O	-0.447352	1.115668	0.208176
O12	O	-0.447359	0.984958	0.338888
O13	O	-0.578097	1.115642	0.568632
O14	O	-0.578100	0.984923	0.437915
O15	O	-0.447354	1.214721	0.568647
O16	O	-0.750641	1.214623	0.338861
O17	O	-0.750647	1.115586	0.437899
C18	C	-0.512732	0.955684	0.388402
C19	C	-0.512761	0.866063	0.388420
C20	C	-0.789264	1.165115	0.388394
C21	C	-0.907569	1.165163	0.388416
C22	C	-0.512726	1.165182	0.598714
C23	C	-0.512727	1.165185	0.688335
C24	C	-1.047628	1.111340	0.442256
C25	C	-0.976715	1.184844	0.462031
C26	C	-0.976910	1.091666	0.368676
C27	C	-1.047442	1.238836	0.408259
C28	C	-1.047644	1.145610	0.314870
C29	C	-0.976763	1.219164	0.334618
C30	C	-0.235102	1.165258	0.388434
C31	C	-0.116797	1.165293	0.388446
C32	C	-0.512715	1.375484	0.388408
C33	C	-0.512711	1.465105	0.388410
C34	C	-0.512761	1.793281	0.388415
C35	C	-0.512750	1.701972	0.388411
C36	C	-0.512735	1.629196	0.388412
C37	C	-0.512726	1.537882	0.388409
C38	C	-0.512737	1.165152	1.016510
C39	C	-0.512737	1.165159	0.925202
C40	C	-0.512733	1.165169	0.852425
C41	C	-0.512732	1.165175	0.761111
C42	C	-0.512741	1.165160	1.178914
C43	C	-0.512733	1.165152	1.089293
H44	H	-1.078738	1.065826	0.487809
F45	F	-0.935995	1.206540	0.543341
F46	F	-0.936348	1.278794	0.275122
F47	F	-1.088397	1.123887	0.233582
H48	H	-1.078298	1.301065	0.425040
F49	F	-0.936407	1.010354	0.346836
