data_functionalizedCrystal
_audit_creation_method	'MofGen! by Chris Wilmer'
_symmetry_space_group_name_H-M	'P1'
_symmetry_Int_Tables_number	1
_symmetry_cell_setting	triclinic
loop_
_symmetry_equiv_pos_as_xyz
  x,y,z
_cell_length_a	20.016444
_cell_length_b	14.560438
_cell_length_c	14.560438
_cell_angle_alpha	59.999698
_cell_angle_beta	90.001981
_cell_angle_gamma	60.004232
loop_
_atom_site_label
_atom_site_type_symbol
_atom_site_fract_x
_atom_site_fract_y
_atom_site_fract_z
Zr1	Zr	0.643676	1.005195	-0.120459
O2	O	0.537013	1.196791	-0.267109
O3	O	0.676365	0.813602	-0.075506
O4	O	0.676378	1.005193	-0.267104
O5	O	0.537000	1.005201	0.075628
O6	O	0.786323	1.005188	-0.267097
O7	O	0.537000	1.005200	-0.075511
O8	O	0.786299	0.662466	0.075637
O9	O	0.537023	1.347922	-0.267106
O10	O	0.772368	0.892402	-0.056325
O11	O	0.690318	0.892406	0.056463
O12	O	0.690333	1.117980	-0.169119
O13	O	0.608283	1.117984	-0.056331
Zr14	Zr	0.819025	1.005187	0.120603
Zr15	Zr	0.819025	1.005186	-0.120447
Zr16	Zr	0.643677	1.005195	0.120591
Zr17	Zr	0.643693	1.246231	-0.120454
Zr18	Zr	0.819009	0.764151	0.120597
O19	O	0.786336	1.196780	0.075649
O20	O	0.786336	1.196779	-0.267093
O21	O	0.537013	1.196792	0.075632
O22	O	0.925689	0.813591	0.267253
O23	O	0.925688	0.813590	-0.075489
O24	O	0.676366	0.813603	0.267236
O25	O	0.925702	1.005181	-0.075485
O26	O	0.786323	1.005189	0.267248
O27	O	0.676379	1.005194	0.267240
O28	O	0.925702	1.005182	0.075654
O29	O	0.676402	1.347915	-0.267097
O30	O	0.786300	0.662467	0.267240
O31	O	0.925678	0.662460	0.267249
O32	O	0.925678	0.662460	0.075647
O33	O	0.537023	1.347922	-0.075504
O34	O	0.676402	1.347916	-0.075494
O35	O	0.772368	0.892402	0.169262
O36	O	0.854418	0.892398	0.056474
O37	O	0.772384	1.117976	-0.056320
O38	O	0.690334	1.117980	0.056468
C39	C	0.731330	0.703692	0.000065
C40	C	0.731323	0.601366	0.000063
C41	C	0.791928	0.373862	0.083346
C42	C	0.791902	0.470037	0.083335
C43	C	0.670770	0.636520	-0.083211
C44	C	0.670800	0.540345	-0.083204
C45	C	0.861861	0.277745	0.179503
C46	C	0.861835	0.373920	0.179492
C47	C	0.512016	1.005202	0.000057
C48	C	0.437576	1.005205	0.000052
C49	C	0.266320	1.005190	-0.083196
C50	C	0.196380	1.005182	-0.083188
C51	C	0.196388	1.005188	0.083347
C52	C	0.266330	1.005187	0.083343
C53	C	0.301292	1.005195	0.000066
C54	C	0.161410	1.005187	0.000078
C55	C	0.085577	1.005178	0.000086
C56	C	0.377130	1.005201	0.000058
C57	C	0.950685	1.005180	0.000086
C58	C	1.025125	1.005177	0.000092
C59	C	0.731350	1.005190	-0.301445
C60	C	0.731350	1.005190	-0.403777
C61	C	0.731372	1.306690	0.000078
C62	C	0.731379	1.409016	0.000081
C63	C	0.670782	1.005188	-0.451852
C64	C	0.670781	1.005193	-0.548006
C65	C	0.791923	1.005198	-0.548000
C66	C	0.791920	1.005202	-0.451852
C67	C	0.600844	1.005179	-0.451853
C68	C	0.600842	1.005184	-0.548008
C69	C	0.731351	1.005192	0.301588
C70	C	0.731351	1.005192	0.403920
C71	C	0.950664	0.703681	0.000080
C72	C	1.025097	0.601351	0.000083
C73	C	0.731330	0.703692	0.301582
C74	C	0.731323	0.601366	0.403911
C75	C	0.950665	0.703682	0.301596
C76	C	1.025098	0.601352	0.403931
C77	C	0.512037	1.306700	-0.301453
C78	C	0.437604	1.409030	-0.403788
C79	C	0.512037	1.306701	0.000064
C80	C	0.437604	1.409030	0.000061
C81	C	0.731371	1.306690	-0.301438
C82	C	0.731378	1.409015	-0.403768
C83	C	1.017222	0.553298	-0.058806
C84	C	1.087153	0.457162	-0.058826
C85	C	1.164959	0.409074	0.000050
C86	C	1.172832	0.457137	0.058941
C87	C	1.102902	0.553278	0.058953
C88	C	1.102889	0.553295	0.393114
C89	C	1.172834	0.457159	0.489260
C90	C	1.164985	0.409075	0.596220
C91	C	1.087186	0.457142	0.607035
C92	C	1.017243	0.553283	0.510891
C93	C	0.359812	1.457099	-0.392971
C94	C	0.289868	1.553264	-0.489116
C95	C	0.297716	1.601353	-0.596077
C96	C	0.375516	1.553280	-0.606892
C97	C	0.445458	1.457123	-0.510747
C98	C	0.445479	1.457094	0.058940
C99	C	0.375548	1.553257	0.058933
C100	C	0.297743	1.601348	0.000053
C101	C	0.289870	1.553281	-0.058833
C102	C	0.359800	1.457126	-0.058832
C103	C	0.774151	0.553287	0.510866
C104	C	0.774138	0.457146	0.607012
C105	C	0.688469	0.457169	0.489234
C106	C	0.688478	0.553315	0.393091
C107	C	0.823614	0.553269	0.578865
C108	C	0.823601	0.457128	0.675011
H109	H	0.855791	0.363108	0.261603
H110	H	0.606865	0.914784	-0.528902
H111	H	0.294807	1.005187	0.151150
C112	C	0.931643	0.606184	-0.123587
N113	N	0.867186	0.646018	-0.172389
C114	C	1.241933	0.303308	0.701972
N115	N	1.299893	0.223638	0.781619
C116	C	0.220825	1.707115	0.000070
N117	N	0.162893	1.786776	0.000090
H118	H	0.849644	0.218074	0.255973
H119	H	0.226527	1.592389	-0.480289
C120	C	1.111578	0.606113	0.123752
N121	N	1.118119	0.645902	0.172564
H122	H	0.240758	1.679650	-0.674355
C123	C	0.304782	1.005182	-0.174795
N124	N	0.333751	1.005171	-0.243788
C125	C	0.157918	1.005165	-0.174777
N126	N	0.128951	1.005147	-0.243763
C127	C	0.204276	1.606177	-0.123578
N128	N	0.139804	1.646012	-0.172332
H129	H	0.353376	1.417996	-0.106775
H130	H	0.790975	0.493259	0.725932
C131	C	1.258405	0.404292	0.477338
N132	N	1.322856	0.364471	0.468356
C133	C	0.157938	1.005139	0.174968
N134	N	0.128983	1.005088	0.243986
H135	H	1.221894	0.330789	0.000031
C136	C	0.531059	1.404218	0.123710
N137	N	0.595515	1.364404	0.172493
H138	H	0.841233	1.005221	-0.412719
H139	H	0.841237	1.005209	-0.587154
C140	C	0.604137	0.780985	-0.174819
N141	N	0.553947	0.889798	-0.243820
C142	C	0.520154	1.127305	-0.477670
N143	N	0.459381	1.219291	-0.497115
C144	C	1.078474	0.404299	-0.123601
N145	N	1.071935	0.364483	-0.172387
C146	C	0.641358	0.606208	0.275440
N147	N	0.605865	0.646046	0.186822
H148	H	0.653585	0.418034	0.480438
C149	C	0.942563	0.192660	0.168306
N150	N	1.003344	0.128579	0.159866
C151	C	0.617345	0.879182	-0.348557
N152	N	0.629774	0.784279	-0.270754
C153	C	1.258426	0.404216	0.123709
N154	N	1.322897	0.364346	0.172500
C155	C	0.786468	0.674864	0.578890
N156	N	0.758493	0.766446	0.578910
C157	C	0.525682	1.131169	-0.651298
N158	N	0.469069	1.226053	-0.729094
H159	H	0.381975	1.592377	0.106889
H160	H	0.886935	0.517133	0.570140
H161	H	1.109295	0.592431	0.306030
H162	H	1.080808	0.417978	0.694135
C163	C	0.936977	0.373944	0.156805
N164	N	0.993572	0.373966	0.139716
H165	H	0.953904	0.592399	0.519714
H166	H	0.621500	0.568979	-0.151014
C167	C	0.351159	1.404227	-0.275323
N168	N	0.344634	1.364418	-0.186712
H169	H	0.381896	1.592447	-0.693990
C170	C	0.531028	1.404242	-0.522665
N171	N	0.595477	1.364415	-0.531650
C172	C	0.912063	0.335507	0.745531
N173	N	0.978690	0.243904	0.798644
