data_functionalizedCrystal
_audit_creation_method	'MofGen! by Chris Wilmer'
_symmetry_space_group_name_H-M	'P1'
_symmetry_Int_Tables_number	1
_symmetry_cell_setting	triclinic
loop_
_symmetry_equiv_pos_as_xyz
  x,y,z
_cell_length_a	12.594517
_cell_length_b	12.594516
_cell_length_c	10.685986
_cell_angle_alpha	85.592141
_cell_angle_beta	94.354599
_cell_angle_gamma	90.018129
loop_
_atom_site_label
_atom_site_type_symbol
_atom_site_fract_x
_atom_site_fract_y
_atom_site_fract_z
Zn1	Zn	1.581163	-0.377496	-0.713301
Zn2	Zn	1.594680	-0.569177	-0.502305
Zn3	Zn	1.416798	-0.391211	-0.502336
Zn4	Zn	1.403144	-0.555435	-0.713274
O5	O	1.498946	-0.473330	-0.607804
O6	O	1.731902	-0.402935	-0.685311
O7	O	1.582455	-0.557060	-0.325729
O8	O	1.438658	-0.240444	-0.530345
O9	O	1.741833	-0.543762	-0.530293
O10	O	1.559416	-0.230368	-0.685340
O11	O	1.451765	-0.426309	-0.325751
O12	O	1.266041	-0.412984	-0.530318
O13	O	1.415387	-0.520340	-0.889858
O14	O	1.256009	-0.533639	-0.685294
O15	O	1.546177	-0.389609	-0.889879
O16	O	1.569215	-0.716301	-0.530267
O17	O	1.428495	-0.706205	-0.685264
C18	C	1.222405	-0.473309	-0.607807
C19	C	1.104097	-0.473324	-0.607838
C20	C	0.958666	-0.539087	-0.691973
C21	C	1.036876	-0.572456	-0.576809
C22	C	1.027459	-0.440003	-0.722990
C23	C	0.971529	-0.506784	-0.492575
C24	C	0.962100	-0.374281	-0.638834
C25	C	1.040284	-0.407618	-0.523590
C26	C	1.498867	-0.749872	-0.607787
C27	C	1.498928	-0.868175	-0.607822
C28	C	1.422451	-1.002742	-0.692082
C29	C	1.517486	-0.929826	-0.723028
C30	C	1.403899	-0.939516	-0.576932
C31	C	1.594182	-1.006037	-0.638874
C32	C	1.480532	-1.015737	-0.492725
C33	C	1.575638	-0.942856	-0.523627
C34	C	1.776567	-0.473351	-0.607802
C35	C	1.894873	-0.473361	-0.607801
C36	C	1.477751	-0.451912	-0.936934
C37	C	1.468719	-0.442785	-1.077190
C38	C	1.499052	-0.195706	-0.607849
C39	C	1.499098	-0.077399	-0.607868
C40	C	1.520120	-0.494587	-0.279954
C41	C	1.529358	-0.503414	-0.139700
H42	H	0.929294	-0.290527	-0.665108
C43	C	1.538298	-0.880033	-0.852938
C44	C	1.550388	-0.960587	-0.934114
C45	C	1.569539	-0.914763	-1.053803
H46	H	1.601443	-0.838847	-0.847452
H47	H	1.479927	-0.835502	-0.884562
H48	H	1.608755	-1.005099	-0.902498
H49	H	1.487255	-1.001778	-0.939638
H50	H	1.511168	-0.870232	-1.085427
H51	H	1.632682	-0.873578	-1.048304
H52	H	1.577735	-0.969411	-1.108898
C53	C	1.607699	-0.581913	-1.067763
C54	C	1.601361	-0.575687	-0.938285
C55	C	1.673501	-0.647992	-0.871979
H56	H	1.677902	-0.565036	-1.089153
H57	H	1.590716	-0.652071	-1.089213
H58	H	1.618351	-0.505545	-0.916844
H59	H	1.531175	-0.592574	-0.916857
H60	H	1.656517	-0.718149	-0.893428
H61	H	1.743699	-0.631108	-0.893379
H62	H	1.669203	-0.643784	-0.784121
H63	H	1.464864	-1.053247	-0.395398
H64	H	1.357776	-1.029206	-0.763373
H65	H	1.069656	-0.656231	-0.550567
C66	C	0.938566	-0.544725	-0.362760
C67	C	0.876177	-0.636272	-0.371499
C68	C	0.845803	-0.671265	-0.251941
H69	H	0.898542	-0.490400	-0.330674
H70	H	1.000314	-0.560706	-0.307818
H71	H	0.814439	-0.620286	-0.426421
H72	H	0.916179	-0.690617	-0.403563
H73	H	0.907552	-0.687247	-0.196999
H74	H	0.805784	-0.616934	-0.219864
H75	H	0.803478	-0.733389	-0.257852
C76	C	0.911185	-0.613463	-0.786580
C77	C	0.949160	-0.717075	-0.753511
C78	C	0.905432	-0.785622	-0.840616
H79	H	0.931172	-0.590609	-0.868235
H80	H	0.835767	-0.612545	-0.786426
H81	H	1.024562	-0.717989	-0.753678
H82	H	0.929174	-0.739961	-0.671870
H83	H	0.830014	-0.784704	-0.840462
H84	H	0.925423	-0.762758	-0.922265
H85	H	0.931184	-0.855931	-0.818184
C86	C	1.060394	-0.402535	-0.852967
C87	C	1.018861	-0.471644	-0.940679
C88	C	1.049164	-0.437165	-1.060430
H89	H	1.135870	-0.402177	-0.852031
H90	H	1.033627	-0.332626	-0.875648
H91	H	1.045634	-0.541535	-0.918005
H92	H	0.943387	-0.472011	-0.941655
H93	H	1.022396	-0.367255	-1.083110
H94	H	1.124640	-0.436807	-1.059480
H95	H	1.020980	-0.484043	-1.119958
C96	C	1.296539	-0.900618	-0.542212
C97	C	1.216691	-0.930794	-0.630694
C98	C	1.117773	-0.895006	-0.598745
H99	H	1.297288	-0.825235	-0.541702
H100	H	1.282844	-0.931275	-0.461030
H101	H	1.230382	-0.900132	-0.711855
H102	H	1.215908	-1.006171	-0.631218
H103	H	1.104079	-0.925663	-0.517562
H104	H	1.118534	-0.819624	-0.598234
H105	H	1.063584	-0.915484	-0.658767
H106	H	1.075752	-0.352025	-0.452342
H107	H	1.640452	-0.916582	-0.452389
C108	C	1.701367	-1.045107	-0.673939
C109	C	1.700182	-1.156289	-0.673639
C110	C	1.798892	-1.192318	-0.705958
H111	H	1.755858	-1.024262	-0.614530
H112	H	1.714631	-1.014983	-0.755495
H113	H	1.686931	-1.186403	-0.592096
H114	H	1.645712	-1.177163	-0.733050
H115	H	1.812156	-1.162194	-0.787514
H116	H	1.853376	-1.171466	-0.646545
H117	H	1.798098	-1.267757	-0.705770
H118	H	1.409900	-0.383896	-1.130972
