data_functionalizedCrystal
_audit_creation_method	'MofGen! by Chris Wilmer'
_symmetry_space_group_name_H-M	'P1'
_symmetry_Int_Tables_number	1
_symmetry_cell_setting	triclinic
loop_
_symmetry_equiv_pos_as_xyz
  x,y,z
_cell_length_a	10.723024
_cell_length_b	13.596369
_cell_length_c	10.723023
_cell_angle_alpha	90.004968
_cell_angle_beta	84.467709
_cell_angle_gamma	90.005008
loop_
_atom_site_label
_atom_site_type_symbol
_atom_site_fract_x
_atom_site_fract_y
_atom_site_fract_z
O1	O	1.657189	0.081783	0.175029
O2	O	1.294037	0.081786	0.191783
O3	O	1.483990	0.081780	0.001830
O4	O	1.467236	0.081788	0.364982
O5	O	1.483971	-0.081803	0.001820
O6	O	1.294018	-0.081797	0.191772
O7	O	1.657170	-0.081800	0.175019
Zn8	Zn	1.475591	-0.107771	0.183394
Zn9	Zn	1.475616	0.107757	0.183408
O10	O	1.467217	-0.081795	0.364972
C11	C	1.247528	-0.000005	0.190558
C12	C	1.108973	-0.000004	0.186911
N13	N	1.475583	-0.254863	0.183384
C14	C	1.033991	-0.000001	0.293198
C15	C	0.890787	0.000000	0.289431
C16	C	1.475614	-0.656154	0.183409
C17	C	1.475602	-0.544502	0.183406
C18	C	1.475599	-0.455512	0.183398
C19	C	1.475586	-0.343853	0.183393
C20	C	1.703679	-0.000007	0.176243
C21	C	1.842234	-0.000002	0.179891
C22	C	1.482762	-0.000010	-0.044675
C23	C	1.479114	-0.000007	-0.183229
N24	N	1.475634	0.254848	0.183408
C25	C	1.477498	0.084735	-0.244990
C26	C	1.473729	0.084740	-0.388193
C27	C	1.468445	-0.000002	0.411477
C28	C	1.472093	0.000001	0.550031
H29	H	1.075812	-0.000004	0.386984
H30	H	0.906659	0.000002	0.088896
N31	N	1.479253	0.175760	-0.178357
N32	N	1.391071	0.235485	-0.182048
H33	H	1.392310	0.299776	-0.134994
N34	N	1.477335	-0.091031	-0.249861
N35	N	1.389896	-0.150751	-0.224671
H36	H	1.388637	-0.215041	-0.271726
N37	N	1.472006	0.175752	-0.454832
N38	N	1.468957	0.175627	-0.571068
H39	H	1.467744	0.239907	-0.618137
N40	N	1.473819	-0.091031	-0.383376
N41	N	1.472275	-0.170698	-0.441392
H42	H	1.473493	-0.234992	-0.394355
H43	H	1.067152	0.000019	0.093125
H44	H	0.826354	0.000007	0.380421
