data_functionalizedCrystal
_audit_creation_method	'MofGen! by Chris Wilmer'
_symmetry_space_group_name_H-M	'P1'
_symmetry_Int_Tables_number	1
_symmetry_cell_setting	triclinic
loop_
_symmetry_equiv_pos_as_xyz
  x,y,z
_cell_length_a	21.295417
_cell_length_b	21.295418
_cell_length_c	21.295411
_cell_angle_alpha	90.043738
_cell_angle_beta	89.978356
_cell_angle_gamma	89.953681
loop_
_atom_site_label
_atom_site_type_symbol
_atom_site_fract_x
_atom_site_fract_y
_atom_site_fract_z
Zn1	Zn	-0.250415	-0.962356	-0.356234
Zn2	Zn	-0.355667	-0.962258	-0.250959
Zn3	Zn	-0.250445	-0.857079	-0.250943
Zn4	Zn	-0.355680	-0.857048	-0.356155
O5	O	-0.303052	-0.909685	-0.303573
O6	O	-0.264360	-1.050432	-0.342308
O7	O	-0.341716	-0.948278	-0.162867
O8	O	-0.162351	-0.871098	-0.264937
O9	O	-0.341688	-1.050361	-0.264963
O10	O	-0.162330	-0.948444	-0.342293
O11	O	-0.264410	-0.871003	-0.162856
O12	O	-0.264422	-0.768985	-0.264861
O13	O	-0.341709	-0.871046	-0.444255
O14	O	-0.341738	-0.768963	-0.342160
O15	O	-0.264372	-0.948415	-0.444313
O16	O	-0.443758	-0.948248	-0.264887
O17	O	-0.443767	-0.870951	-0.342175
C18	C	-0.303085	-0.746134	-0.303500
C19	C	-0.303114	-0.676166	-0.303484
C20	C	-0.466603	-0.909603	-0.303538
C21	C	-0.536571	-0.909625	-0.303544
C22	C	-0.303038	-0.909738	-0.467763
C23	C	-0.303033	-0.909760	-0.537731
C24	C	-0.569412	-0.949910	-0.263342
C25	C	-0.635155	-0.949939	-0.263356
C26	C	-0.668054	-0.909673	-0.303566
C27	C	-0.635205	-0.869386	-0.343776
C28	C	-0.569464	-0.869362	-0.343765
N29	N	-0.771336	-0.854606	-0.308340
N30	N	-0.833787	-0.854630	-0.308347
C31	C	-0.866129	-0.909743	-0.303602
N32	N	-0.833659	-0.964832	-0.298838
N33	N	-0.771202	-0.964807	-0.298828
C34	C	-0.739339	-0.909695	-0.303582
C35	C	-0.970255	-0.950063	-0.263413
C36	C	-1.035999	-0.950094	-0.263431
C37	C	-1.036048	-0.869535	-0.343848
C38	C	-0.970305	-0.869510	-0.343833
C39	C	-0.937413	-0.909773	-0.303612
C40	C	-0.138861	-0.909785	-0.303622
C41	C	-0.068893	-0.909828	-0.303642
C42	C	-0.303019	-1.073876	-0.303646
C43	C	-0.303005	-1.143844	-0.303677
C44	C	-0.343426	-0.643304	-0.343674
C45	C	-0.343410	-0.577561	-0.343702
C46	C	-0.303090	-0.544683	-0.303530
C47	C	-0.262770	-0.577553	-0.263337
C48	C	-0.262783	-0.643294	-0.263315
N49	N	-0.298163	-0.441407	-0.248472
N50	N	-0.298155	-0.378956	-0.248495
C51	C	-0.303050	-0.346608	-0.303596
N52	N	-0.307965	-0.379072	-0.358675
N53	N	-0.307976	-0.441529	-0.358650
C54	C	-0.303072	-0.473398	-0.303550
C55	C	-0.343346	-0.242461	-0.343820
C56	C	-0.343326	-0.176717	-0.343849
C57	C	-0.262690	-0.176710	-0.263479
C58	C	-0.262707	-0.242453	-0.263455
C59	C	-0.303038	-0.275324	-0.303625
C60	C	-0.262761	-0.950044	-0.570629
C61	C	-0.262734	-0.950043	-0.636371
C62	C	-0.302989	-0.909765	-0.669214
C63	C	-0.343263	-0.869473	-0.636308
C64	C	-0.343285	-0.869470	-0.570567
N65	N	-0.358058	-0.904908	-0.772428
N66	N	-0.358036	-0.904914	-0.834879
C67	C	-0.302926	-0.909769	-0.867289
N68	N	-0.247837	-0.914629	-0.834888
N69	N	-0.247860	-0.914627	-0.772430
C70	C	-0.302970	-0.909763	-0.740499
C71	C	-0.262621	-0.950054	-0.971472
C72	C	-0.262593	-0.950049	-1.037216
C73	C	-0.343128	-0.869482	-1.037151
C74	C	-0.343151	-0.869484	-0.971409
C75	C	-0.302898	-0.909773	-0.938573
C76	C	-0.303019	-0.909670	-0.140021
C77	C	-0.302848	-0.909769	-0.070054
H78	H	-0.661899	-0.982746	-0.230619
H79	H	-0.229795	-0.982852	-1.064000
C80	C	-0.387400	-0.825163	-1.073270
C81	C	-0.431695	-0.780845	-1.037079
C82	C	-0.475961	-0.736519	-1.073201
C83	C	-0.475932	-0.736511	-1.145513
C84	C	-0.431635	-0.780831	-1.181709
C85	C	-0.387369	-0.825157	-1.145587
H86	H	-0.431718	-0.780850	-0.983545
H87	H	-0.508753	-0.703710	-1.046406
H88	H	-0.508701	-0.703697	-1.172253
H89	H	-0.431612	-0.780826	-1.235242
H90	H	-0.354577	-0.857966	-1.172381
H91	H	-0.229954	-0.670050	-0.230588
H92	H	-0.376152	-0.149962	-0.376580
C93	C	-0.387447	-0.825170	-0.935212
C94	C	-0.436874	-0.852409	-0.890025
C95	C	-0.481167	-0.808089	-0.853826
C96	C	-0.476032	-0.736532	-0.862812
C97	C	-0.426603	-0.709290	-0.908001
C98	C	-0.382310	-0.753609	-0.944200
H99	H	-0.440677	-0.905383	-0.883371
H100	H	-0.517758	-0.828256	-0.820374
H101	H	-0.508820	-0.703724	-0.836015
H102	H	-0.422800	-0.656315	-0.914655
H103	H	-0.345719	-0.733443	-0.977652
C104	C	-0.387784	-0.679464	-0.387863
C105	C	-0.360589	-0.724741	-0.437319
C106	C	-0.404946	-0.760904	-0.481508
C107	C	-0.476498	-0.751789	-0.476241
C108	C	-0.503697	-0.706509	-0.426782
C109	C	-0.459340	-0.670347	-0.382593
H110	H	-0.307618	-0.731490	-0.441220
H111	H	-0.384811	-0.794423	-0.518120
H112	H	-0.509334	-0.778559	-0.508952
H113	H	-0.556668	-0.699760	-0.422881
H114	H	-0.479475	-0.636828	-0.345981
C115	C	-0.934177	-0.825190	-0.388053
C116	C	-0.943303	-0.753635	-0.382828
C117	C	-0.907176	-0.709315	-0.427053
C118	C	-0.861923	-0.736551	-0.476503
C119	C	-0.852796	-0.808111	-0.481730
C120	C	-0.888923	-0.852430	-0.437505
H121	H	-0.976803	-0.733469	-0.346221
H122	H	-0.913933	-0.656342	-0.423184
H123	H	-0.835180	-0.703744	-0.509242
H124	H	-0.819296	-0.828276	-0.518338
H125	H	-0.882166	-0.905404	-0.441375
H126	H	-1.062737	-0.982902	-0.230695
H127	H	-0.229940	-0.550779	-0.230630
C128	C	-0.934070	-0.994360	-0.219179
C129	C	-0.888800	-1.043749	-0.246514
C130	C	-0.852618	-1.088047	-0.202281
C131	C	-0.861707	-1.082957	-0.130715
C132	C	-0.906979	-1.033567	-0.103377
C133	C	-0.943160	-0.989268	-0.147609
H134	H	-0.882071	-1.047518	-0.299495
H135	H	-0.819105	-1.124609	-0.222519
H136	H	-0.834923	-1.115750	-0.097971
H137	H	-0.913708	-1.029797	-0.050396
H138	H	-0.976674	-0.952706	-0.127372
H139	H	-0.542633	-0.982696	-0.230593
H140	H	-0.229937	-0.982846	-0.663162
C141	C	-0.671391	-0.825092	-0.388008
C142	C	-0.743703	-0.825114	-0.388019
C143	C	-0.779888	-0.780821	-0.432256
C144	C	-0.743760	-0.736507	-0.476480
C145	C	-0.671443	-0.736484	-0.476470
C146	C	-0.635259	-0.780776	-0.432234
H147	H	-0.770451	-0.857919	-0.355280
H148	H	-0.833422	-0.780839	-0.432263
H149	H	-0.770547	-0.703719	-0.509226
H150	H	-0.644696	-0.703678	-0.509209
H151	H	-0.581725	-0.780759	-0.432226
H152	H	-0.376038	-0.836676	-0.663053
C153	C	-1.072228	-0.825239	-0.388079
C154	C	-1.144541	-0.825261	-0.388093
C155	C	-1.180725	-0.780965	-0.432326
C156	C	-1.144596	-0.736647	-0.476545
C157	C	-1.072279	-0.736623	-0.476533
C158	C	-1.036095	-0.780919	-0.432300
H159	H	-1.171289	-0.858070	-0.355357
H160	H	-1.234259	-0.780984	-0.432335
H161	H	-1.171382	-0.703856	-0.509289
H162	H	-1.045531	-0.703814	-0.509268
H163	H	-0.982562	-0.780901	-0.432291
H164	H	-0.229857	-0.149942	-0.230773
C165	C	-0.387704	-0.278625	-0.388009
C166	C	-0.432041	-0.242474	-0.432226
C167	C	-0.476399	-0.278635	-0.476415
C168	C	-0.476419	-0.350948	-0.476388
C169	C	-0.432080	-0.387103	-0.432169
C170	C	-0.387723	-0.350942	-0.387980
H171	H	-0.432028	-0.188940	-0.432247
H172	H	-0.509222	-0.251871	-0.509148
H173	H	-0.509256	-0.377717	-0.509099
H174	H	-0.432094	-0.440637	-0.432148
H175	H	-0.354900	-0.377706	-0.355247
H176	H	-0.542724	-0.836557	-0.376503
H177	H	-0.229842	-0.982857	-0.944736
C178	C	-0.387758	-0.541404	-0.387911
C179	C	-0.360552	-0.496289	-0.437400
C180	C	-0.404900	-0.460135	-0.481608
C181	C	-0.476455	-0.469096	-0.476327
C182	C	-0.503666	-0.514213	-0.426836
C183	C	-0.459317	-0.550367	-0.382627
H184	H	-0.307579	-0.489653	-0.441311
H185	H	-0.384757	-0.426736	-0.518245
H186	H	-0.509285	-0.442332	-0.509052
H187	H	-0.556638	-0.520848	-0.422924
H188	H	-0.479460	-0.583766	-0.345991
H189	H	-0.229984	-0.982850	-0.543898
C190	C	-0.218374	-0.278605	-0.219234
C191	C	-0.174025	-0.242445	-0.175040
C192	C	-0.129691	-0.278597	-0.130816
C193	C	-0.129707	-0.350910	-0.130785
C194	C	-0.174057	-0.387074	-0.174981
C195	C	-0.218391	-0.350922	-0.219205
H196	H	-0.174012	-0.188911	-0.175061
H197	H	-0.096860	-0.251826	-0.098099
H198	H	-0.096888	-0.377672	-0.098048
H199	H	-0.174070	-0.440608	-0.174960
H200	H	-0.251222	-0.377694	-0.251922
H201	H	-0.376078	-0.836663	-0.543782
