data_functionalizedCrystal
_audit_creation_method	'MofGen! by Chris Wilmer'
_symmetry_space_group_name_H-M	'P1'
_symmetry_Int_Tables_number	1
_symmetry_cell_setting	triclinic
loop_
_symmetry_equiv_pos_as_xyz
  x,y,z
_cell_length_a	14.185569
_cell_length_b	19.288864
_cell_length_c	19.288865
_cell_angle_alpha	96.863755
_cell_angle_beta	103.113428
_cell_angle_gamma	103.094600
loop_
_atom_site_label
_atom_site_type_symbol
_atom_site_fract_x
_atom_site_fract_y
_atom_site_fract_z
O1	O	0.083748	-0.905480	0.102508
O2	O	0.583748	-0.405480	0.602508
O3	O	0.083681	-0.703232	0.114184
O4	O	0.583681	-0.203232	0.614184
O5	O	0.083697	-0.810204	0.007212
O6	O	0.583697	-0.310204	0.507212
O7	O	0.083732	-0.798509	0.209479
O8	O	0.583732	-0.298509	0.709479
O9	O	-0.083133	-0.841805	-0.024385
O10	O	0.416867	-0.341805	0.475615
O11	O	-0.083149	-0.734833	0.082587
O12	O	0.416851	-0.234833	0.582587
O13	O	-0.083082	-0.937081	0.070911
O14	O	0.416918	-0.437081	0.570911
Cu15	Cu	-0.098348	-0.838842	0.073864
Cu16	Cu	0.401652	-0.338842	0.573864
Cu17	Cu	0.098947	-0.801471	0.111231
Cu18	Cu	0.598947	-0.301471	0.611231
O19	O	-0.083098	-0.830109	0.177882
O20	O	0.416902	-0.330109	0.677882
C21	C	0.000257	-0.693158	0.098007
C22	C	0.500257	-0.193158	0.598007
C23	C	0.000231	-0.616059	0.096873
C24	C	0.500231	-0.116059	0.596873
N25	N	-0.237116	-0.865132	0.047581
N26	N	0.262884	-0.365132	0.547581
C27	C	0.000278	-0.825629	-0.034464
C28	C	0.500278	-0.325629	0.465536
C29	C	0.000269	-0.824502	-0.111569
C30	C	0.500269	-0.324502	0.388431
C31	C	-0.604790	-0.697947	0.214695
C32	C	-0.104790	-0.197947	0.714695
C33	C	-0.709809	-0.717866	0.194791
C34	C	-0.209809	-0.217866	0.694791
C35	C	-0.709756	-0.812609	0.100103
C36	C	-0.209756	-0.312609	0.600103
C37	C	-0.604735	-0.792695	0.119997
C38	C	-0.104735	-0.292695	0.619997
C39	C	-0.552260	-0.735364	0.177294
C40	C	-0.052260	-0.235364	0.677294
C41	C	-0.552205	-0.830113	0.082595
C42	C	-0.052205	-0.330113	0.582595
C43	C	-0.447194	-0.810203	0.102490
C44	C	0.052806	-0.310203	0.602490
C45	C	-0.394712	-0.752876	0.159786
C46	C	0.105288	-0.252876	0.659786
C47	C	-0.447249	-0.715455	0.197189
C48	C	0.052751	-0.215455	0.697189
C49	C	-0.604682	-0.887446	0.025302
C50	C	-0.104682	-0.387446	0.525302
C51	C	-0.552152	-0.924864	-0.012100
C52	C	-0.052152	-0.424864	0.487900
C53	C	-0.447139	-0.904951	0.007791
C54	C	0.052861	-0.404951	0.507791
C55	C	-0.394657	-0.847624	0.065088
C56	C	0.105343	-0.347624	0.565088
C57	C	-0.394602	-0.942372	-0.029611
C58	C	0.105398	-0.442372	0.470389
C59	C	-0.289590	-0.922463	-0.009716
C60	C	0.210410	-0.422463	0.490284
C61	C	-0.289645	-0.827715	0.084983
C62	C	0.210355	-0.327715	0.584983
N63	N	0.237715	-0.775187	0.137508
N64	N	0.737715	-0.275187	0.637508
C65	C	0.000344	-0.947155	0.087087
C66	C	0.500344	-0.447155	0.587087
C67	C	0.000377	-1.024252	0.088223
C68	C	0.500377	-0.524252	0.588223
C69	C	0.000258	-0.571358	0.159646
C70	C	0.500258	-0.071358	0.659646
C71	C	0.000268	-0.498909	0.158588
C72	C	0.500268	0.001091	0.658588
C73	C	0.000273	-0.471160	0.094756
C74	C	0.500273	0.028840	0.594756
C75	C	0.000240	-0.515873	0.031974
C76	C	0.500240	-0.015873	0.531974
C77	C	0.000219	-0.588322	0.033033
C78	C	0.500219	-0.088322	0.533033
C79	C	0.058745	-0.351823	0.055652
C80	C	0.558745	0.148177	0.555652
C81	C	0.058772	-0.279373	0.054597
C82	C	0.558772	0.220627	0.554597
C83	C	0.000333	-0.247703	0.091488
C84	C	0.500333	0.252297	0.591488
C85	C	-0.058121	-0.288488	0.129448
C86	C	0.441879	0.211512	0.629448
C87	C	-0.058142	-0.360938	0.130507
C88	C	0.441858	0.139062	0.630507
C89	C	0.000295	-0.392602	0.093601
C90	C	0.500295	0.107398	0.593601
C91	C	0.000370	-0.124444	0.153117
C92	C	0.500370	0.375556	0.653117
C93	C	0.000375	-0.051995	0.152055
C94	C	0.500375	0.448005	0.652055
C95	C	0.000356	-0.068959	0.025441
C96	C	0.500356	0.431041	0.525441
C97	C	0.000342	-0.141408	0.026504
C98	C	0.500342	0.358592	0.526504
C99	C	0.000353	-0.169145	0.090344
C100	C	0.500353	0.330855	0.590344
C101	C	0.000285	-0.887266	-0.156262
C102	C	0.500285	-0.387266	0.343738
C103	C	0.000301	-0.886203	-0.228706
C104	C	0.500301	-0.386203	0.271294
C105	C	0.000280	-0.822375	-0.256458
C106	C	0.500280	-0.322375	0.243542
C107	C	0.000270	-0.759600	-0.211754
C108	C	0.500270	-0.259600	0.288246
C109	C	0.000264	-0.760664	-0.139309
C110	C	0.500264	-0.260664	0.360691
C111	C	-0.058173	-0.783267	-0.375816
C112	C	0.441827	-0.283267	0.124184
C113	C	-0.058174	-0.782207	-0.448261
C114	C	0.441826	-0.282207	0.051739
C115	C	0.000302	-0.819091	-0.479899
C116	C	0.500302	-0.319091	0.020101
C117	C	0.058765	-0.857048	-0.439088
C118	C	0.558765	-0.357048	0.060912
C119	C	0.058759	-0.858112	-0.366644
C120	C	0.558759	-0.358112	0.133356
C121	C	0.000287	-0.821214	-0.335011
C122	C	0.500287	-0.321214	0.164989
C123	C	0.000336	-0.880707	-0.603145
C124	C	0.500336	-0.380707	-0.103145
C125	C	0.000357	-0.879639	-0.675589
C126	C	0.500357	-0.379639	-0.175589
C127	C	0.000317	-0.753037	-0.658637
C128	C	0.500317	-0.253037	-0.158637
C129	C	0.000305	-0.754104	-0.586192
C130	C	0.500305	-0.254104	-0.086192
C131	C	0.000310	-0.817942	-0.558452
C132	C	0.500310	-0.317942	-0.058452
C133	C	0.000323	-0.814684	0.219558
C134	C	0.500323	-0.314684	0.719558
C135	C	0.000339	-0.815810	0.296665
C136	C	0.500339	-0.315810	0.796665
H137	H	-0.246918	-0.781025	0.131635
H138	H	0.253082	-0.281025	0.631635
H139	H	0.106364	-0.889016	-0.333418
H140	H	0.606364	-0.389016	0.166582
O141	O	0.121850	-0.896830	-0.473197
O142	O	0.621850	-0.396830	0.026803
H143	H	0.112046	-0.889707	-0.530425
H144	H	0.612046	-0.389707	-0.030425
H145	H	-0.690189	-0.903657	0.009108
H146	H	-0.190189	-0.403657	0.509108
O147	O	0.000263	-0.686412	-0.537985
O148	O	0.500263	-0.186412	-0.037985
H149	H	0.000239	-0.641851	-0.569452
H150	H	0.500239	-0.141851	-0.069452
O151	O	0.000361	-0.949551	-0.573212
O152	O	0.500361	-0.449551	-0.073212
H153	H	0.000394	-0.993015	-0.616461
H154	H	0.500394	-0.493015	-0.116461
O155	O	-0.766356	-0.874445	0.038309
O156	O	-0.266356	-0.374445	0.538309
H157	H	-0.746210	-0.861950	-0.012000
H158	H	-0.246210	-0.361950	0.488000
H159	H	-0.752573	-0.687392	0.225254
H160	H	-0.252573	-0.187392	0.725254
O161	O	0.000196	-0.636537	-0.034677
O162	O	0.500196	-0.136537	0.465323
H163	H	-0.067814	-0.682808	-0.050102
H164	H	0.432186	-0.182808	0.449898
H165	H	-0.594889	-0.971545	-0.058750
H166	H	-0.094889	-0.471545	0.441250
H167	H	-0.105773	-0.751296	-0.481482
H168	H	0.394227	-0.251296	0.018518
H169	H	-0.562063	-0.651258	0.261347
H170	H	-0.062063	-0.151258	0.761347
O171	O	0.000318	-0.956111	-0.126335
O172	O	0.500318	-0.456111	0.373665
H173	H	0.000347	-0.999575	-0.169586
H174	H	0.500347	-0.499575	0.330414
H175	H	0.000422	-0.046355	-0.026520
H176	H	0.500422	0.453645	0.473480
H177	H	-0.437340	-0.989056	-0.076258
H178	H	0.062660	-0.489056	0.423742
H179	H	-0.246820	-0.952933	-0.040172
H180	H	0.253180	-0.452933	0.459828
H181	H	0.000391	-0.015600	0.203173
H182	H	0.500391	0.484400	0.703173
H183	H	0.000269	-0.593936	0.211631
H184	H	0.500269	-0.093936	0.711631
O185	O	0.000308	-0.450679	0.226297
O186	O	0.500308	0.049321	0.726297
H187	H	0.000320	-0.482137	0.270867
H188	H	0.500320	0.017863	0.770867
O189	O	-0.121225	-0.404942	0.171412
O190	O	0.378775	0.095058	0.671412
H191	H	-0.161879	-0.370759	0.196875
H192	H	0.338121	0.129241	0.696875
O193	O	-0.121167	-0.254346	0.169238
O194	O	0.378833	0.245654	0.669238
H195	H	-0.111346	-0.197119	0.162118
H196	H	0.388654	0.302881	0.662118
H197	H	0.000365	-0.147032	0.205097
H198	H	0.500365	0.352968	0.705097
O199	O	0.000304	-0.953903	-0.276928
O200	O	0.500304	-0.453903	0.223072
H201	H	0.000299	-0.998473	-0.245469
H202	H	0.500299	-0.498473	0.254531
H203	H	0.000376	-0.930751	-0.711977
H204	H	0.500376	-0.430751	-0.211977
H205	H	-0.105797	-0.753231	-0.350063
H206	H	0.394203	-0.253231	0.149937
H207	H	0.000325	-0.177804	-0.024612
H208	H	0.500325	0.322196	0.475388
O209	O	0.000290	-0.684191	-0.688557
O210	O	0.500290	-0.184191	-0.188557
H211	H	0.000290	-0.693996	-0.746443
H212	H	0.500290	-0.193996	-0.246443
O213	O	0.121802	-0.235388	0.013648
O214	O	0.621802	0.264612	0.513648
H215	H	0.162415	-0.269585	-0.011843
H216	H	0.662415	0.230415	0.488157
H217	H	0.000255	-0.707631	-0.234353
H218	H	0.500255	-0.207631	0.265647
H219	H	0.000251	-0.709552	-0.102919
H220	H	0.500251	-0.209552	0.397081
H221	H	0.000257	-0.493273	-0.019995
H222	H	0.500257	0.006727	0.480005
O223	O	-0.281448	-0.731394	0.181242
O224	O	0.218552	-0.231394	0.681242
H225	H	-0.253713	-0.777985	0.197468
H226	H	0.246287	-0.277985	0.697468
O227	O	-0.390636	-0.653618	0.258988
O228	O	0.109364	-0.153618	0.758988
H229	H	-0.444803	-0.630942	0.281657
H230	H	0.055197	-0.130942	0.781657
H231	H	0.106340	-0.377601	0.025610
H232	H	0.606340	0.122399	0.525610
