data_functionalizedCrystal
_audit_creation_method	'MofGen! by Chris Wilmer'
_symmetry_space_group_name_H-M	'P1'
_symmetry_Int_Tables_number	1
_symmetry_cell_setting	triclinic
loop_
_symmetry_equiv_pos_as_xyz
  x,y,z
_cell_length_a	27.435584
_cell_length_b	27.434948
_cell_length_c	27.431174
_cell_angle_alpha	60.005483
_cell_angle_beta	60.011353
_cell_angle_gamma	59.993028
loop_
_atom_site_label
_atom_site_type_symbol
_atom_site_fract_x
_atom_site_fract_y
_atom_site_fract_z
O1	O	0.067437	-0.712144	0.595551
O2	O	0.567437	-0.212144	1.095551
O3	O	0.025356	-0.554453	0.479848
O4	O	0.525356	-0.054453	0.979848
O5	O	0.125206	-0.654236	0.479781
O6	O	0.625206	-0.154236	0.979781
O7	O	-0.032412	-0.612361	0.595618
O8	O	0.467588	-0.112361	1.095618
O9	O	0.158328	-0.621117	0.512835
O10	O	0.658328	-0.121117	1.012835
O11	O	0.058479	-0.521333	0.512902
O12	O	0.558479	-0.021333	1.012902
O13	O	0.100560	-0.679025	0.628605
O14	O	0.600560	-0.179025	1.128605
Zn15	Zn	0.084778	-0.594921	0.576001
Zn16	Zn	0.584778	-0.094921	1.076001
Zn17	Zn	0.041138	-0.638557	0.532452
Zn18	Zn	0.541138	-0.138557	1.032452
O19	O	0.000710	-0.579241	0.628672
O20	O	0.500710	-0.079241	1.128672
N21	N	0.114563	-0.565144	0.605726
N22	N	0.614563	-0.065144	1.105726
N23	N	0.011358	-0.668338	0.502727
N24	N	0.511358	-0.168338	1.002727
C25	C	0.156385	-0.523520	0.904506
C26	C	0.656385	-0.023520	1.404506
C27	C	0.413419	-0.523497	0.647322
C28	C	0.913419	-0.023497	1.147322
C29	C	0.156253	-0.523488	0.647384
C30	C	0.656253	-0.023488	1.147384
C31	C	0.156238	-0.266354	0.647407
C32	C	0.656238	0.233646	1.147407
C33	C	0.197637	-0.390463	0.688753
C34	C	0.697637	0.109537	1.188753
C35	C	0.197646	-0.482126	0.688741
C36	C	0.697646	0.017874	1.188741
C37	C	0.220575	-0.459215	0.711654
C38	C	0.720575	0.040785	1.211654
C39	C	0.320555	-0.441991	0.659023
C40	C	0.820555	0.058009	1.159023
C41	C	0.383051	-0.462825	0.638179
C42	C	0.883051	0.037175	1.138179
C43	C	0.383069	-0.563942	0.676737
C44	C	0.883069	-0.063942	1.176737
C45	C	0.320575	-0.543107	0.697583
C46	C	0.820575	-0.043107	1.197583
C47	C	0.212704	-0.359206	0.627313
C48	C	0.712704	0.140794	1.127313
C49	C	0.191849	-0.296705	0.606496
C50	C	0.691849	0.203295	1.106496
C51	C	0.140866	-0.296722	0.708562
C52	C	0.640866	0.203278	1.208562
C53	C	0.161721	-0.359223	0.729379
C54	C	0.661721	0.140777	1.229379
C55	C	0.136200	-0.467030	0.703858
C56	C	0.636200	0.032970	1.203858
C57	C	0.115361	-0.487857	0.683021
C58	C	0.615361	0.012143	1.183021
C59	C	0.217408	-0.538877	0.631968
C60	C	0.717408	-0.038877	1.131968
C61	C	0.238249	-0.518050	0.652796
C62	C	0.738249	-0.018050	1.152796
C63	C	0.136259	-0.467047	0.811668
C64	C	0.636259	0.032953	1.311668
C65	C	0.115461	-0.487892	0.874167
C66	C	0.615461	0.012108	1.374167
C67	C	0.217537	-0.538923	0.874131
C68	C	0.717537	-0.038923	1.374131
C69	C	0.238333	-0.518080	0.811631
C70	C	0.738333	-0.018080	1.311631
C71	C	0.197693	-0.482140	0.780401
C72	C	0.697693	0.017860	1.280401
C73	C	0.289320	-0.482131	0.688723
C74	C	0.789320	0.017869	1.188723
C75	C	0.132699	-0.546027	0.973247
C76	C	0.632699	-0.046027	1.473247
C77	C	0.482158	-0.545613	0.624075
C78	C	0.982158	-0.045613	1.124075
C79	C	0.132521	-0.546006	0.624886
C80	C	0.632521	-0.046006	1.124886
C81	C	0.132917	-0.197607	0.625310
C82	C	0.632917	0.302393	1.125310
C83	C	-0.098217	-0.686189	0.484419
C84	C	0.401783	-0.186189	0.984419
C85	C	-0.006438	-0.686322	0.392891
C86	C	0.493562	-0.186322	0.892891
C87	C	-0.006621	-0.777944	0.484592
C88	C	0.493379	-0.277944	0.984592
C89	C	-0.006606	-0.686315	0.484649
C90	C	0.493394	-0.186315	0.984649
C91	C	-0.029470	-0.709193	0.461638
C92	C	0.470530	-0.209193	0.961638
N93	N	0.538410	-0.565162	0.605628
N94	N	1.038410	-0.065162	1.105628
O95	O	0.742647	-0.575135	0.458625
O96	O	1.242647	-0.075135	0.958625
O97	O	0.742821	-0.691181	0.616169
O98	O	1.242821	-0.191181	1.116169
O99	O	0.742757	-0.690917	0.516248
O100	O	1.242757	-0.190917	1.016248
O101	O	0.742711	-0.575399	0.558546
O102	O	1.242711	-0.075399	1.058546
O103	O	0.643472	-0.657878	0.549405
O104	O	1.143472	-0.157878	1.049405
O105	O	0.643536	-0.658142	0.649326
O106	O	1.143536	-0.158142	1.149326
O107	O	0.643362	-0.542096	0.491782
O108	O	1.143362	-0.042096	0.991782
Zn109	Zn	0.627685	-0.594873	0.575818
Zn110	Zn	1.127685	-0.094873	1.075818
Zn111	Zn	0.758498	-0.638404	0.532133
Zn112	Zn	1.258498	-0.138404	1.032133
O113	O	0.643426	-0.542360	0.591702
O114	O	1.143426	-0.042360	1.091702
N115	N	0.847774	-0.668115	0.502317
N116	N	1.347774	-0.168115	1.002317
N117	N	0.114542	-0.141354	0.605766
N118	N	0.614542	0.358646	1.105766
O119	O	-0.032397	0.062987	0.595660
O120	O	0.467603	0.562987	1.095660
O121	O	0.125155	0.062987	0.479633
O122	O	0.625155	0.562987	0.979633
O123	O	0.025219	0.062974	0.479910
O124	O	0.525219	0.562974	0.979910
O125	O	0.067539	0.063001	0.595383
O126	O	0.567539	0.563001	1.095383
O127	O	0.058343	-0.036320	0.513009
O128	O	0.558343	0.463680	1.013009
O129	O	0.158279	-0.036306	0.512732
O130	O	0.658279	0.463694	1.012732
O131	O	0.000728	-0.036306	0.628759
O132	O	0.500728	0.463694	1.128759
Zn133	Zn	0.084763	-0.052071	0.576000
Zn134	Zn	0.584763	0.447929	1.076000
Zn135	Zn	0.041120	0.078752	0.532392
Zn136	Zn	0.541120	0.578752	1.032392
O137	O	0.100664	-0.036292	0.628482
O138	O	0.600664	0.463708	1.128482
N139	N	0.011333	0.168036	0.502628
N140	N	0.511333	0.668036	1.002628
N141	N	0.114782	-0.565197	1.029501
N142	N	0.614782	-0.065197	1.529501
O143	O	0.104681	-0.712124	1.233827
O144	O	0.604681	-0.212124	1.733827
O145	O	-0.011334	-0.554523	1.233839
O146	O	0.488666	-0.054523	1.733839
O147	O	-0.011066	-0.654443	1.233797
O148	O	0.488934	-0.154443	1.733797
O149	O	0.104414	-0.612204	1.233869
O150	O	0.604414	-0.112204	1.733869
O151	O	0.022028	-0.621336	1.134509
O152	O	0.522028	-0.121336	1.634509
O153	O	0.021760	-0.521417	1.134551
O154	O	0.521760	-0.021417	1.634551
O155	O	0.137775	-0.679018	1.134539
O156	O	0.637775	-0.179018	1.634539
Zn157	Zn	0.085022	-0.594961	1.118780
Zn158	Zn	0.585022	-0.094961	1.618780
Zn159	Zn	0.041420	-0.638580	1.249597
Zn160	Zn	0.541420	-0.138580	1.749597
O161	O	0.137508	-0.579098	1.134580
O162	O	0.637508	-0.079098	1.634580
N163	N	0.011658	-0.668350	1.338876
N164	N	0.511658	-0.168350	1.838876
C165	C	0.037974	-0.518023	0.480435
C166	C	0.537974	-0.018023	0.980435
C167	C	0.161625	-0.641592	0.480351
C168	C	0.661625	-0.141592	0.980351
C169	C	0.087941	-0.715455	0.628017
C170	C	0.587941	-0.215455	1.128017
C171	C	-0.035710	-0.591885	0.628101
C172	C	0.464290	-0.091885	1.128101
C173	C	0.693199	-0.690642	0.652596
C174	C	1.193199	-0.190642	1.152596
C175	C	0.693122	-0.690315	0.528855
C176	C	1.193122	-0.190315	1.028855
C177	C	0.692981	-0.542634	0.455356
C178	C	1.192981	-0.042634	0.955356
C179	C	0.693062	-0.542961	0.579095
C180	C	1.193062	-0.042961	1.079095
C181	C	0.161524	0.013463	0.480164
C182	C	0.661524	0.513463	0.980164
C183	C	0.037807	0.013324	0.480547
C184	C	0.537807	0.513324	0.980547
C185	C	-0.035683	0.013341	0.628188
C186	C	0.464317	0.513341	1.128188
C187	C	0.088076	0.013357	0.627845
C188	C	0.588076	0.513357	1.127845
C189	C	-0.010764	-0.518114	1.184196
C190	C	0.489236	-0.018114	1.684196
C191	C	-0.010426	-0.641846	1.184125
C192	C	0.489574	-0.141846	1.684125
C193	C	0.137205	-0.715426	1.184182
C194	C	0.637205	-0.215426	1.684182
C195	C	0.136875	-0.591687	1.184231
C196	C	0.636875	-0.091687	1.684231
H197	H	0.065433	-0.475593	0.899616
H198	H	0.565433	0.024407	1.399616
C199	C	0.221759	0.013864	0.431533
C200	C	0.721759	0.513864	0.931533
C201	C	0.258577	0.014001	0.452877
C202	C	0.758577	0.514001	0.952877
C203	C	0.314066	0.014379	0.408092
C204	C	0.814066	0.514379	0.908092
H205	H	0.239837	-0.020676	0.420495
H206	H	0.739837	0.479324	0.920495
H207	H	0.216345	0.048578	0.397713
H208	H	0.716345	0.548578	0.897713
H209	H	0.263992	-0.020710	0.486686
H210	H	0.763992	0.479290	0.986686
H211	H	0.240517	0.048539	0.463910
H212	H	0.740517	0.548539	0.963910
H213	H	0.308652	0.049093	0.374273
H214	H	0.808652	0.549093	0.874273
H215	H	0.332138	-0.020163	0.397058
H216	H	0.832138	0.479837	0.897058
H217	H	0.339051	0.014477	0.422566
H218	H	0.839051	0.514477	0.922566
H219	H	-0.046689	-0.650868	1.184063
H220	H	0.453311	-0.150868	1.684063
C221	C	0.025718	0.013432	0.432117
C222	C	0.525718	0.513432	0.932117
C223	C	0.032280	0.064518	0.382152
C224	C	0.532280	0.564518	0.882152
C225	C	0.021138	0.064639	0.337534
C226	C	0.521138	0.564639	0.837534
H227	H	0.053241	-0.021157	0.421175
H228	H	0.553241	0.478843	0.921175
H229	H	-0.013822	0.013460	0.446686
H230	H	0.486178	0.513460	0.946686
H231	H	0.071814	0.064484	0.367586
H232	H	0.571814	0.564484	0.867586
H233	H	0.004759	0.099115	0.393076
H234	H	0.504759	0.599115	0.893076
H235	H	-0.018402	0.064668	0.352102
H236	H	0.481598	0.564668	0.852102
H237	H	0.048662	0.030048	0.326597
H238	H	0.548662	0.530048	0.826597
H239	H	0.025583	0.099303	0.303630
H240	H	0.525583	0.599303	0.803630
H241	H	0.206895	-0.650521	0.443974
H242	H	0.706895	-0.150521	0.943974
H243	H	0.097136	0.013366	0.664120
H244	H	0.597136	0.513366	1.164120
H245	H	0.096930	-0.760753	0.664356
H246	H	0.596930	-0.260753	1.164356
C247	C	0.185840	-0.775725	1.184055
C248	C	0.685840	-0.275725	1.684055
C249	C	0.235756	-0.767859	1.132977
C250	C	0.735756	-0.267859	1.632977
C251	C	0.280567	-0.823394	1.132836
C252	C	0.780567	-0.323394	1.632836
H253	H	0.196759	-0.793642	1.218646
H254	H	0.696759	-0.293642	1.718646
H255	H	0.171457	-0.800814	1.184005
H256	H	0.671457	-0.300814	1.684005
H257	H	0.250137	-0.742781	1.133033
H258	H	0.750137	-0.242781	1.633033
H259	H	0.224856	-0.749952	1.098378
H260	H	0.724856	-0.249952	1.598378
H261	H	0.266184	-0.848482	1.132785
H262	H	0.766184	-0.348482	1.632785
H263	H	0.291481	-0.841306	1.167429
H264	H	0.791481	-0.341306	1.667429
H265	H	0.314438	-0.818065	1.098177
H266	H	0.814438	-0.318065	1.598177
H267	H	0.173154	-0.582650	1.184245
H268	H	0.673154	-0.082650	1.684245
H269	H	-0.080930	0.013340	0.664614
H270	H	0.419070	0.513340	1.164614
C271	C	-0.059267	-0.457733	1.184229
C272	C	0.440733	0.042267	1.684229
C273	C	-0.037882	-0.420897	1.184269
C274	C	0.462118	0.079103	1.684269
C275	C	-0.082548	-0.365273	1.184307
C276	C	0.417452	0.134727	1.684307
H277	H	-0.070144	-0.439790	1.149607
H278	H	0.429856	0.060210	1.649607
H279	H	-0.093195	-0.462932	1.218860
H280	H	0.406805	0.037068	1.718860
H281	H	-0.003964	-0.415697	1.149641
H282	H	0.496036	0.084303	1.649641
H283	H	-0.027009	-0.438822	1.218888
H284	H	0.472991	0.061178	1.718888
H285	H	-0.116477	-0.370472	1.218938
H286	H	0.383523	0.129528	1.718938
H287	H	-0.093422	-0.347335	1.149685
H288	H	0.406578	0.152665	1.649685
H289	H	-0.068046	-0.340275	1.184339
H290	H	0.431954	0.159725	1.684339
C291	C	-0.096100	-0.579862	0.676543
C292	C	0.403900	-0.079862	1.176543
C293	C	-0.132886	-0.521593	0.655058
C294	C	0.367114	-0.021593	1.155058
C295	C	-0.188518	-0.510493	0.699669
C296	C	0.311482	-0.010493	1.199669
H297	H	-0.114072	-0.607395	0.687450
H298	H	0.385928	-0.107395	1.187450
H299	H	-0.090912	-0.584316	0.710469
H300	H	0.409088	-0.084316	1.210469
H301	H	-0.138076	-0.517144	0.621142
H302	H	0.361924	-0.017144	1.121142
H303	H	-0.114933	-0.494047	0.644155
H304	H	0.385067	0.005953	1.144155
H305	H	-0.183330	-0.514947	0.733595
H306	H	0.316670	-0.014947	1.233595
H307	H	-0.206484	-0.538029	0.710573
H308	H	0.293516	-0.038029	1.210573
H309	H	-0.213482	-0.470955	0.685100
H310	H	0.286518	0.029045	1.185100
C311	C	0.693291	-0.739156	0.712955
C312	C	1.193291	-0.239156	1.212955
C313	C	0.693314	-0.717762	0.749803
C314	C	1.193314	-0.217762	1.249803
C315	C	0.693407	-0.762439	0.805407
C316	C	1.193407	-0.262439	1.305407
H317	H	0.658695	-0.750057	0.730902
H318	H	1.158695	-0.250057	1.230902
H319	H	0.727946	-0.773075	0.707730
H320	H	1.227946	-0.273075	1.207730
H321	H	0.658663	-0.683855	0.755029
H322	H	1.158663	-0.183855	1.255029
H323	H	0.727907	-0.706866	0.731875
H324	H	1.227907	-0.206866	1.231875
H325	H	0.728061	-0.796357	0.800183
H326	H	1.228061	-0.296357	1.300183
H327	H	0.658810	-0.773336	0.823348
H328	H	1.158810	-0.273336	1.323348
H329	H	0.693428	-0.747931	0.830413
H330	H	1.193428	-0.247931	1.330413
H331	H	0.103160	-0.437777	0.786243
H332	H	0.603160	0.062223	1.286243
H333	H	0.250633	-0.568176	0.899553
H334	H	0.750633	-0.068176	1.399553
C335	C	0.692879	-0.493963	0.395078
C336	C	1.192879	0.006037	0.895078
C337	C	0.692832	-0.442949	0.395166
C338	C	1.192832	0.057051	0.895166
C339	C	0.692729	-0.398100	0.339652
C340	C	1.192729	0.101900	0.839652
H341	H	0.727481	-0.507548	0.364635
H342	H	1.227481	-0.007548	0.864635
H343	H	0.658230	-0.484551	0.387808
H344	H	1.158230	0.015449	0.887808
H345	H	0.727477	-0.452360	0.402429
H346	H	1.227477	0.047640	0.902429
H347	H	0.658233	-0.429346	0.425597
H348	H	1.158233	0.070654	0.925597
H349	H	0.658081	-0.388688	0.332382
H350	H	1.158081	0.111312	0.832382
H351	H	0.727331	-0.411691	0.309213
H352	H	1.227331	0.088309	0.809213
H353	H	0.692692	-0.363480	0.339706
H354	H	1.192692	0.136520	0.839706
C355	C	0.305061	-0.534510	0.777794
C356	C	0.805061	-0.034510	1.277794
C357	C	0.336197	-0.570429	0.818523
C358	C	0.836197	-0.070429	1.318523
C359	C	0.397666	-0.585570	0.787375
C360	C	0.897666	-0.085570	1.287375
H361	H	0.315379	-0.555742	0.753408
H362	H	0.815379	-0.055742	1.253408
H363	H	0.315321	-0.499179	0.753429
H364	H	0.815321	0.000821	1.253429
H365	H	0.325941	-0.605755	0.842878
H366	H	0.825941	-0.105755	1.342878
H367	H	0.325898	-0.549209	0.842910
H368	H	0.825898	-0.049209	1.342910
H369	H	0.407926	-0.550239	0.763010
H370	H	0.907926	-0.050239	1.263010
H371	H	0.407977	-0.606800	0.762990
H372	H	0.907977	-0.106800	1.262990
H373	H	0.418799	-0.609938	0.815005
H374	H	0.918799	-0.109938	1.315005
C375	C	0.693112	-0.738619	0.516686
C376	C	1.193112	-0.238619	1.016686
C377	C	0.693046	-0.716964	0.458414
C378	C	1.193046	-0.216964	0.958414
C379	C	0.693028	-0.761442	0.447185
C380	C	1.193028	-0.261442	0.947185
H381	H	0.727748	-0.772585	0.521066
H382	H	1.227748	-0.272585	1.021066
H383	H	0.658498	-0.749507	0.544213
H384	H	1.158498	-0.249507	1.044213
H385	H	0.727656	-0.706085	0.430895
H386	H	1.227656	-0.206085	0.930895
H387	H	0.658412	-0.683004	0.454020
H388	H	1.158412	-0.183004	0.954020
H389	H	0.658414	-0.772329	0.474713
H390	H	1.158414	-0.272329	0.974713
H391	H	0.727665	-0.795404	0.451569
H392	H	1.227665	-0.295404	0.951569
H393	H	0.692978	-0.746753	0.407650
H394	H	1.192978	-0.246753	0.907650
H395	H	0.103135	-0.437780	0.733124
H396	H	0.603135	0.062220	1.233124
H397	H	0.065328	-0.475552	0.695316
H398	H	0.565328	0.024448	1.195316
H399	H	0.250475	-0.568133	0.602707
H400	H	0.750475	-0.068133	1.102707
H401	H	0.028987	-0.472723	0.444098
H402	H	0.528987	0.027277	0.944098
C403	C	0.693013	-0.494638	0.591285
C404	C	1.193013	0.005362	1.091285
C405	C	0.693051	-0.516284	0.649566
C406	C	1.193051	-0.016284	1.149566
C407	C	0.692997	-0.471783	0.660818
C408	C	1.192997	0.028217	1.160818
H409	H	0.727602	-0.483711	0.563786
H410	H	1.227602	0.016289	1.063786
H411	H	0.658352	-0.460695	0.586893
H412	H	1.158352	0.039305	1.086893
H413	H	0.727708	-0.550216	0.653953
H414	H	1.227708	-0.050216	1.153953
H415	H	0.658464	-0.527206	0.677077
H416	H	1.158464	-0.027206	1.177077
H417	H	0.658336	-0.437840	0.656426
H418	H	1.158336	0.062160	1.156426
H419	H	0.727587	-0.460859	0.633316
H420	H	1.227587	0.039141	1.133316
H421	H	0.693017	-0.486461	0.700364
H422	H	1.193017	0.013539	1.200364
H423	H	0.288283	-0.530335	0.640482
H424	H	0.788283	-0.030335	1.140482
H425	H	0.408519	-0.613593	0.683941
H426	H	0.908519	-0.113593	1.183941
C427	C	0.286692	-0.586702	0.729716
C428	C	0.786692	-0.086702	1.229716
C429	C	0.301866	-0.615719	0.691682
C430	C	0.801866	-0.115719	1.191682
C431	C	0.270660	-0.655877	0.721260
C432	C	0.770660	-0.155877	1.221260
H433	H	0.296929	-0.615376	0.764441
H434	H	0.796929	-0.115376	1.264441
H435	H	0.244990	-0.565579	0.740847
H436	H	0.744990	-0.065579	1.240847
H437	H	0.343559	-0.636840	0.680559
H438	H	0.843559	-0.136840	1.180559
H439	H	0.291628	-0.587059	0.656957
H440	H	0.791628	-0.087059	1.156957
H441	H	0.228958	-0.634754	0.732391
H442	H	0.728958	-0.134754	1.232391
H443	H	0.280899	-0.684547	0.755984
H444	H	0.780899	-0.184547	1.255984
H445	H	0.280947	-0.675566	0.695457
H446	H	0.780947	-0.175566	1.195457
C447	C	0.416932	-0.419199	0.605826
C448	C	0.916932	0.080801	1.105826
C449	C	0.401714	-0.377103	0.554669
C450	C	0.901714	0.122897	1.054669
C451	C	0.432919	-0.336909	0.524846
C452	C	0.932919	0.163091	1.024846
H453	H	0.406726	-0.399377	0.631471
H454	H	0.906726	0.100623	1.131471
H455	H	0.458634	-0.440314	0.594641
H456	H	0.958634	0.059686	1.094641
H457	H	0.360020	-0.355991	0.565855
H458	H	0.860020	0.144009	1.065855
H459	H	0.411921	-0.396908	0.529010
H460	H	0.911921	0.103092	1.029010
H461	H	0.474622	-0.358024	0.513661
H462	H	0.974622	0.141976	1.013661
H463	H	0.422711	-0.317092	0.550495
H464	H	0.922711	0.182908	1.050495
H465	H	0.422602	-0.308346	0.490130
H466	H	0.922602	0.191654	0.990130
C467	C	0.251663	-0.393017	0.583113
C468	C	0.751663	0.106983	1.083113
C469	C	0.260374	-0.352264	0.524849
C470	C	0.760374	0.147736	1.024849
C471	C	0.296252	-0.383388	0.484114
C472	C	0.796252	0.116612	0.984114
H473	H	0.289165	-0.417401	0.589022
H474	H	0.789165	0.082599	1.089022
H475	H	0.232581	-0.417385	0.589089
H476	H	0.732581	0.082615	1.089089
H477	H	0.279457	-0.327906	0.518876
H478	H	0.779457	0.172094	1.018876
H479	H	0.222882	-0.327880	0.518921
H480	H	0.722882	0.172120	1.018921
H481	H	0.277170	-0.407756	0.490090
H482	H	0.777170	0.092244	0.990090
H483	H	0.333752	-0.407771	0.490029
H484	H	0.833752	0.092229	0.990029
H485	H	0.302163	-0.355742	0.444578
H486	H	0.802163	0.144258	0.944578
C487	C	0.286547	-0.375816	0.649527
C488	C	0.786547	0.124184	1.149527
C489	C	0.250679	-0.367438	0.704953
C490	C	0.750679	0.132562	1.204953
C491	C	0.219335	-0.306485	0.696228
C492	C	0.719335	0.193515	1.196228
H493	H	0.314035	-0.354830	0.628884
H494	H	0.814035	0.145170	1.128884
H495	H	0.262118	-0.361140	0.626661
H496	H	0.762118	0.138860	1.126661
H497	H	0.275106	-0.382106	0.727810
H498	H	0.775106	0.117894	1.227810
H499	H	0.223180	-0.388409	0.725605
H500	H	0.723180	0.111591	1.225605
H501	H	0.194906	-0.291809	0.673362
H502	H	0.694906	0.208191	1.173362
H503	H	0.246828	-0.285505	0.675584
H504	H	0.746828	0.214495	1.175584
H505	H	0.194991	-0.300793	0.733832
H506	H	0.694991	0.199207	1.233832
H507	H	0.111630	-0.271286	0.741644
H508	H	0.611630	0.228714	1.241644
C509	C	0.208116	-0.262657	0.539809
C510	C	0.708116	0.237343	1.039809
C511	C	0.182155	-0.201235	0.530273
C512	C	0.682155	0.298765	1.030273
C513	C	0.197121	-0.169852	0.468850
C514	C	0.697121	0.330148	0.968850
H515	H	0.250269	-0.272824	0.522180
H516	H	0.750269	0.227176	1.022180
H517	H	0.193713	-0.272860	0.522240
H518	H	0.693713	0.227140	1.022240
H519	H	0.196560	-0.191037	0.547834
H520	H	0.696560	0.308963	1.047834
H521	H	0.140002	-0.191050	0.547888
H522	H	0.640002	0.308950	1.047888
H523	H	0.182719	-0.180055	0.451281
H524	H	0.682719	0.319945	0.951281
H525	H	0.239275	-0.180024	0.451227
H526	H	0.739275	0.319976	0.951227
H527	H	0.179505	-0.128175	0.462372
H528	H	0.679505	0.371825	0.962372
C529	C	0.145324	-0.393056	0.796112
C530	C	0.645324	0.106944	1.296112
C531	C	0.109416	-0.352320	0.827235
C532	C	0.609416	0.147680	1.327235
C533	C	0.094305	-0.383464	0.888708
C534	C	0.594305	0.116536	1.388708
H535	H	0.124095	-0.417440	0.806439
H536	H	0.624095	0.082560	1.306439
H537	H	0.180663	-0.417424	0.806375
H538	H	0.680663	0.082576	1.306375
H539	H	0.074083	-0.327962	0.816976
H540	H	0.574083	0.172038	1.316976
H541	H	0.130633	-0.327934	0.816925
H542	H	0.630633	0.172066	1.316925
H543	H	0.129645	-0.407832	0.898972
H544	H	0.629645	0.092168	1.398972
H545	H	0.073079	-0.407847	0.899030
H546	H	0.573079	0.092153	1.399030
H547	H	0.069946	-0.355829	0.909833
H548	H	0.569946	0.144171	1.409833
