data_functionalizedCrystal
_audit_creation_method	'MofGen! by Chris Wilmer'
_symmetry_space_group_name_H-M	'P1'
_symmetry_Int_Tables_number	1
_symmetry_cell_setting	triclinic
loop_
_symmetry_equiv_pos_as_xyz
  x,y,z
_cell_length_a	14.044220
_cell_length_b	15.995350
_cell_length_c	12.503572
_cell_angle_alpha	93.525550
_cell_angle_beta	86.164750
_cell_angle_gamma	88.340626
loop_
_atom_site_label
_atom_site_type_symbol
_atom_site_fract_x
_atom_site_fract_y
_atom_site_fract_z
O1	O	1.263165	0.197434	-0.089196
O2	O	0.987198	0.190148	-0.089224
O3	O	1.132725	0.072467	-0.089208
O4	O	1.117638	0.315115	-0.089212
O5	O	1.121781	0.081333	0.089432
O6	O	0.976253	0.199014	0.089417
O7	O	1.252221	0.206300	0.089445
Cu8	Cu	1.113237	0.203467	0.105742
Cu9	Cu	1.126181	0.192981	-0.105521
O10	O	1.106693	0.323981	0.089429
C11	C	0.946411	0.191392	0.000093
C12	C	0.841186	0.181881	0.000082
C13	C	0.648523	0.164494	0.000104
C14	C	0.590890	0.231950	0.000107
C15	C	0.483686	0.222276	0.000119
C16	C	0.755737	0.174167	0.000092
C17	C	1.126629	0.045658	0.000110
C18	C	1.124760	-0.047432	0.000104
C19	C	1.118044	-0.385681	0.000107
C20	C	1.014426	-0.346008	-0.000304
C21	C	1.016272	-0.249158	0.000099
C22	C	1.121375	-0.217872	0.000105
C23	C	1.166245	-0.250068	0.102120
C24	C	1.163636	-0.346894	0.102206
C25	C	1.178223	-0.357175	-0.100942
C26	C	1.178281	-0.260298	-0.102290
C27	C	1.123263	-0.123033	0.000107
C28	C	1.116158	-0.480519	0.000111
C29	C	1.293007	0.205055	0.000125
C30	C	1.398233	0.214567	0.000129
C31	C	1.112789	0.350789	0.000108
C32	C	1.114659	0.443879	0.000108
N33	N	1.104141	0.210842	0.254333
N34	N	1.135285	0.185600	-0.254113
C35	C	1.090759	0.221698	0.473447
C36	C	1.148663	0.174747	0.526780
C37	C	1.141218	0.180787	0.648703
C38	C	1.098204	0.215658	0.351514
H39	H	0.977483	-0.371265	-0.073462
H40	H	0.617354	0.099482	0.000111
H41	H	0.622061	0.296967	0.000101
H42	H	0.980568	-0.227367	-0.073031
C43	C	0.952685	-0.371755	0.097965
C44	C	0.995948	-0.428595	0.178470
C45	C	0.934209	-0.454344	0.276739
C46	C	0.829208	-0.423254	0.294503
C47	C	0.785940	-0.366411	0.213996
C48	C	0.847678	-0.340661	0.115726
H49	H	1.073681	-0.451613	0.165322
H50	H	0.966239	-0.496423	0.336336
H51	H	0.783505	-0.442315	0.367248
H52	H	0.708207	-0.343393	0.227144
H53	H	0.815648	-0.298582	0.056129
C54	C	1.223196	0.114322	0.464770
C55	C	1.230590	0.108244	0.341084
C56	C	1.305122	0.047825	0.279068
C57	C	1.372260	-0.006516	0.340738
C58	C	1.364868	-0.000440	0.464431
C59	C	1.290336	0.059979	0.526447
H60	H	1.180888	0.148472	0.295426
H61	H	1.310593	0.043327	0.187502
H62	H	1.427433	-0.051242	0.294830
H63	H	1.414569	-0.040668	0.510089
H64	H	1.284864	0.064477	0.618013
C65	C	0.955569	-0.210677	0.099054
C66	C	0.905266	-0.268082	0.177961
C67	C	0.844563	-0.229601	0.276924
C68	C	0.834164	-0.133714	0.296979
C69	C	0.884469	-0.076303	0.218070
C70	C	0.945172	-0.114784	0.119107
H71	H	0.912962	-0.339068	0.163117
H72	H	0.807324	-0.272100	0.335337
H73	H	0.789228	-0.105228	0.370237
H74	H	0.876773	-0.005317	0.232914
H75	H	0.982411	-0.072285	0.060694
H76	H	1.035599	0.266427	0.519349
H77	H	1.145529	-0.239586	-0.177759
C78	C	1.266042	-0.382476	0.108492
C79	C	1.349930	-0.322775	0.113423
C80	C	1.452332	-0.358353	0.119722
C81	C	1.470845	-0.453632	0.121089
C82	C	1.386954	-0.513339	0.116158
C83	C	1.284553	-0.477761	0.109859
H84	H	1.336228	-0.252238	0.112411
H85	H	1.514433	-0.314153	0.123372
H86	H	1.546649	-0.479968	0.125752
H87	H	1.400657	-0.583875	0.117170
H88	H	1.222451	-0.521961	0.106209
H89	H	1.243229	-0.229986	0.105919
C90	C	1.111996	-0.210230	0.204678
C91	C	1.107304	-0.114310	0.226125
C92	C	1.053048	-0.074474	0.328679
C93	C	1.003483	-0.130558	0.409788
C94	C	1.008174	-0.226483	0.388344
C95	C	1.062430	-0.266319	0.285789
H96	H	1.143996	-0.072789	0.166081
H97	H	1.049576	-0.003464	0.344553
H98	H	0.963320	-0.101069	0.485705
H99	H	0.971482	-0.268004	0.448387
H100	H	1.065901	-0.337329	0.269915
C101	C	1.138849	-0.393519	-0.205404
C102	C	1.135338	-0.489111	-0.227599
C103	C	1.095952	-0.525456	-0.332054
C104	C	1.060078	-0.466209	-0.414313
C105	C	1.063588	-0.370611	-0.392120
C106	C	1.102974	-0.334266	-0.287666
H107	H	1.161895	-0.532975	-0.166703
H108	H	1.093354	-0.596224	-0.348482
H109	H	1.030922	-0.493113	-0.491637
H110	H	1.037031	-0.326747	-0.453016
H111	H	1.105572	-0.263498	-0.271238
C112	C	1.282336	-0.232225	-0.110617
C113	C	1.317613	-0.170010	-0.024194
C114	C	1.421671	-0.141936	-0.032513
C115	C	1.490451	-0.176077	-0.127254
C116	C	1.455174	-0.238296	-0.213683
C117	C	1.351117	-0.266370	-0.205364
H118	H	1.266697	-0.144733	0.045945
H119	H	1.447784	-0.095877	0.031468
H120	H	1.567480	-0.155294	-0.133412
H121	H	1.506090	-0.263572	-0.283822
H122	H	1.325003	-0.312429	-0.269345
H123	H	1.121688	-0.364195	0.178460
C124	C	1.281512	-0.392415	-0.101877
C125	C	1.365077	-0.332269	-0.098719
C126	C	1.468362	-0.367512	-0.099645
C127	C	1.488081	-0.462902	-0.103730
C128	C	1.404513	-0.523054	-0.106888
C129	C	1.301229	-0.487811	-0.105962
H130	H	1.350482	-0.261651	-0.095695
H131	H	1.530224	-0.322983	-0.097307
H132	H	1.564538	-0.488991	-0.104416
H133	H	1.419108	-0.593672	-0.109912
H134	H	1.239367	-0.532340	-0.108300
