data_functionalizedCrystal
_audit_creation_method	'MofGen! by Chris Wilmer'
_symmetry_space_group_name_H-M	'P1'
_symmetry_Int_Tables_number	1
_symmetry_cell_setting	triclinic
loop_
_symmetry_equiv_pos_as_xyz
  x,y,z
_cell_length_a	12.837943
_cell_length_b	17.038272
_cell_length_c	11.892095
_cell_angle_alpha	94.170821
_cell_angle_beta	85.689438
_cell_angle_gamma	92.970248
loop_
_atom_site_label
_atom_site_type_symbol
_atom_site_fract_x
_atom_site_fract_y
_atom_site_fract_z
O1	O	1.399724	0.200065	-0.093986
O2	O	1.097028	0.189958	-0.093992
O3	O	1.246576	0.081062	-0.093980
O4	O	1.250175	0.308961	-0.093998
O5	O	1.234106	0.090126	0.094026
O6	O	1.084557	0.199022	0.094014
O7	O	1.387254	0.209129	0.094021
Zn8	Zn	1.233926	0.205514	0.123868
Zn9	Zn	1.250356	0.193572	-0.123839
O10	O	1.237705	0.318025	0.094009
C11	C	1.051871	0.191076	0.000010
C12	C	0.935896	0.180893	0.000008
C13	C	0.705733	0.303310	0.000015
C14	C	0.596764	0.293746	0.000013
C15	C	0.608986	0.152201	0.000012
C16	C	0.717955	0.161765	0.000014
C17	C	0.766325	0.237322	0.000013
C18	C	0.875296	0.246885	0.000006
C19	C	0.887516	0.105342	0.000013
C20	C	0.778547	0.095777	0.000012
C21	C	1.237069	0.056221	0.000023
C22	C	1.227305	-0.031301	0.000022
C23	C	1.316945	-0.074719	0.000026
C24	C	1.307766	-0.156956	0.000015
C25	C	1.208945	-0.195773	0.000009
C26	C	1.119299	-0.152349	0.000002
C27	C	1.128480	-0.070114	0.000005
C28	C	1.176511	-0.443954	-0.000008
C29	C	1.167337	-0.526195	-0.000007
C30	C	1.355805	-0.530796	0.000003
C31	C	1.364977	-0.448559	0.000013
C32	C	1.275331	-0.405143	0.000001
C33	C	1.199560	-0.279832	0.000001
C34	C	1.284718	-0.321086	0.000000
C35	C	1.432411	0.208011	0.000016
C36	C	1.548386	0.218194	0.000011
C37	C	1.247213	0.342865	0.000003
C38	C	1.256977	0.430387	-0.000004
N39	N	1.222720	0.213665	0.292921
N40	N	1.261569	0.185416	-0.292892
C41	C	1.339540	0.128657	0.529578
C42	C	1.331715	0.134361	0.647919
C43	C	1.199241	0.230770	0.647947
C44	C	1.207066	0.225067	0.529605
C45	C	1.277219	0.174010	0.470425
C46	C	1.285048	0.168311	0.352082
C47	C	1.152569	0.264716	0.352111
C48	C	1.144745	0.270419	0.470453
H49	H	0.936862	0.051609	0.000004
C50	C	1.010596	-0.195048	-0.000006
C51	C	0.927638	-0.177139	0.097615
C52	C	0.818933	-0.219837	0.097610
C53	C	0.793186	-0.280444	-0.000016
C54	C	0.876146	-0.298355	-0.097645
C55	C	0.984851	-0.255657	-0.097640
H56	H	0.946695	-0.132272	0.169891
H57	H	0.757520	-0.206578	0.169882
H58	H	0.712716	-0.312052	-0.000020
H59	H	0.857089	-0.343223	-0.169921
H60	H	1.046264	-0.268917	-0.169912
H61	H	1.087625	0.311987	0.518651
H62	H	0.739148	0.034262	0.000025
H63	H	1.103515	-0.408614	-0.000017
C64	C	1.393418	-0.278389	0.000009
C65	C	1.419153	-0.217785	0.097641
C66	C	1.527853	-0.175079	0.097656
C67	C	1.610818	-0.192979	0.000037
C68	C	1.585085	-0.253587	-0.097602
C69	C	1.476385	-0.296292	-0.097617
H70	H	1.357736	-0.204531	0.169911
H71	H	1.546902	-0.130213	0.169935
H72	H	1.691284	-0.161366	0.000048
H73	H	1.646502	-0.266840	-0.169872
H74	H	1.457336	-0.341158	-0.169897
C75	C	1.090861	-0.322537	0.000003
C76	C	1.007903	-0.304642	0.097630
C77	C	0.899207	-0.347353	0.097628
C78	C	0.873467	-0.407958	-0.000003
C79	C	0.956426	-0.425856	-0.097638
C80	C	1.065123	-0.383146	-0.097635
H81	H	1.026956	-0.259776	0.169908
H82	H	0.837795	-0.334103	0.169904
H83	H	0.793003	-0.439575	-0.000004
H84	H	0.937374	-0.470723	-0.169916
H85	H	1.126535	-0.396395	-0.169911
H86	H	1.396668	0.087090	0.481393
C87	C	1.362210	0.112148	0.286981
C88	C	1.351472	0.023179	0.303257
C89	C	1.428634	-0.032988	0.238160
C90	C	1.516534	-0.000185	0.156787
C91	C	1.527277	0.088789	0.140507
C92	C	1.450115	0.144955	0.205604
H93	H	1.286399	-0.001108	0.363498
H94	H	1.420681	-0.098853	0.250212
H95	H	1.573654	-0.041763	0.108598
H96	H	1.592349	0.113075	0.080266
H97	H	1.458067	0.210820	0.193552
H98	H	1.055485	-0.034764	0.000002
C99	C	1.400272	0.084475	0.712989
C100	C	1.477450	0.028329	0.647888
C101	C	1.546009	-0.021560	0.712958
C102	C	1.537391	-0.015302	0.843128
C103	C	1.460210	0.040846	0.908237
C104	C	1.391651	0.090735	0.843167
H105	H	1.483832	0.023695	0.551521
H106	H	1.603143	-0.063125	0.664760
H107	H	1.588142	-0.052233	0.891297
H108	H	1.453828	0.045481	1.004603
H109	H	1.334517	0.132300	0.891365
H110	H	1.101826	0.301647	0.303936
H111	H	1.397415	-0.043120	0.000037
H112	H	0.569578	0.090691	0.000106
H113	H	1.142117	0.272334	0.696146
H114	H	0.914677	0.308407	0.000008
H115	H	0.745116	0.364831	0.000012
H116	H	0.547433	0.347480	0.000018
H117	H	1.380760	-0.192303	0.000020
H118	H	1.445447	-0.416960	0.000018
H119	H	1.428789	-0.566154	0.000011
H120	H	1.086860	-0.557796	0.000006
