data_functionalizedCrystal
_audit_creation_method	'MofGen! by Chris Wilmer'
_symmetry_space_group_name_H-M	'P1'
_symmetry_Int_Tables_number	1
_symmetry_cell_setting	triclinic
loop_
_symmetry_equiv_pos_as_xyz
  x,y,z
_cell_length_a	17.699097
_cell_length_b	8.965430
_cell_length_c	17.699083
_cell_angle_alpha	90.000469
_cell_angle_beta	83.285722
_cell_angle_gamma	90.007394
loop_
_atom_site_label
_atom_site_type_symbol
_atom_site_fract_x
_atom_site_fract_y
_atom_site_fract_z
O1	O	1.004069	0.124166	0.095753
O2	O	0.783692	0.124142	0.108195
O3	O	0.900107	0.124142	-0.008215
O4	O	0.887655	0.124167	0.212163
O5	O	0.900097	-0.123937	-0.008207
O6	O	0.783683	-0.123937	0.108203
O7	O	1.004060	-0.123913	0.095761
Cu8	Cu	0.893870	-0.146576	0.101983
Cu9	Cu	0.893882	0.146806	0.101974
O10	O	0.887645	-0.123912	0.212171
C11	C	0.755491	0.000100	0.107752
C12	C	0.671473	0.000090	0.106409
N13	N	0.893868	-0.352925	0.101989
C14	C	0.155760	0.135377	0.098175
C15	C	0.234704	0.135370	0.099432
C16	C	0.274165	0.000136	0.100065
C17	C	0.234678	-0.135099	0.099435
C18	C	0.155736	-0.135090	0.098173
C19	C	0.553042	-0.135138	0.104522
C20	C	0.631990	-0.135136	0.105786
C21	C	0.632010	0.135322	0.105781
C22	C	0.553068	0.135331	0.104519
C23	C	0.513589	0.000097	0.103885
C24	C	0.427989	0.000107	0.102521
C25	C	0.359763	0.000125	0.101434
C26	C	0.840013	-0.450231	0.155807
C27	C	0.908380	-0.549635	0.170371
C28	C	0.825530	-0.549649	0.087431
C29	C	0.962268	-0.450141	0.116587
C30	C	0.879374	-0.450145	0.033617
C31	C	0.947790	-0.549505	0.048152
C32	C	1.032261	0.000133	0.096205
C33	C	1.116279	0.000152	0.097547
C34	C	0.899656	0.000102	-0.036408
C35	C	0.898317	0.000101	-0.120426
N36	N	0.893890	0.353155	0.101962
C37	C	0.966650	0.000107	-0.169044
C38	C	0.965388	0.000120	-0.247987
C39	C	0.895792	0.000117	-0.278311
C40	C	0.827454	0.000116	-0.229687
C41	C	0.828717	0.000114	-0.150745
C42	C	0.822359	0.000128	-0.548050
C43	C	0.821101	0.000125	-0.626998
C44	C	0.959030	0.000134	-0.645292
C45	C	0.960293	0.000131	-0.566350
C46	C	0.891955	0.000138	-0.517733
C47	C	0.893325	0.000127	-0.432134
C48	C	0.894422	0.000117	-0.363909
C49	C	0.888096	0.000131	0.240364
C50	C	0.889435	0.000141	0.324382
H51	H	0.123636	0.245501	0.097665
C52	C	0.862760	-0.391050	-0.044453
N53	N	0.850238	-0.346535	-0.103255
C54	C	0.778547	-0.391325	0.217347
N55	N	0.732256	-0.346953	0.263700
H56	H	0.773073	0.000110	-0.111161
H57	H	0.920655	-0.593335	0.228179
C58	C	0.747442	-0.608691	0.070808
N59	N	0.688625	-0.653156	0.058294
H60	H	0.123591	-0.245204	0.097670
H61	H	1.023323	0.000100	-0.144360
H62	H	1.020082	-0.406615	0.128957
H63	H	0.664164	0.245437	0.106294
C64	C	1.040560	0.000101	-0.301464
N65	N	1.097183	0.000080	-0.341742
H66	H	0.993392	-0.592820	0.002625
H67	H	0.664116	-0.245267	0.106302
C68	C	1.036854	0.000134	-0.532999
N69	N	1.094521	0.000144	-0.507880
H70	H	0.520943	0.245453	0.104007
H71	H	1.014674	0.000135	-0.684886
C72	C	0.747185	0.000143	-0.494582
N73	N	0.690560	0.000160	-0.454306
C74	C	0.509623	-0.283900	0.103847
N75	N	0.476915	-0.395955	0.103347
H76	H	0.764424	0.000120	-0.651685
C77	C	0.750897	0.000100	-0.263046
N78	N	0.693233	0.000077	-0.288172
H79	H	0.266847	0.245484	0.099939
H80	H	0.266814	-0.245209	0.099946
