data_functionalizedCrystal
_audit_creation_method	'MofGen! by Chris Wilmer'
_symmetry_space_group_name_H-M	'P1'
_symmetry_Int_Tables_number	1
_symmetry_cell_setting	triclinic
loop_
_symmetry_equiv_pos_as_xyz
  x,y,z
_cell_length_a	25.427154
_cell_length_b	25.426324
_cell_length_c	25.422586
_cell_angle_alpha	60.006367
_cell_angle_beta	60.012446
_cell_angle_gamma	59.992398
loop_
_atom_site_label
_atom_site_type_symbol
_atom_site_fract_x
_atom_site_fract_y
_atom_site_fract_z
O1	O	0.072968	-0.768436	0.642532
O2	O	0.027520	-0.598284	0.517710
O3	O	0.135268	-0.705940	0.517611
O4	O	-0.034780	-0.660780	0.642632
O5	O	0.171018	-0.670200	0.553260
O6	O	0.063270	-0.562544	0.553360
O7	O	0.108718	-0.732696	0.678182
Zn8	Zn	0.091670	-0.641945	0.621431
Zn9	Zn	0.044568	-0.689034	0.574461
O10	O	0.000970	-0.625039	0.678281
N11	N	0.123818	-0.609812	0.653490
N12	N	0.012426	-0.721173	0.542402
C13	C	0.168482	-0.466269	0.698103
C14	C	0.168494	-0.565177	0.698095
C15	C	0.193243	-0.540453	0.722807
C16	C	0.301113	-0.521853	0.665993
C17	C	0.368545	-0.544324	0.643486
C18	C	0.368579	-0.653434	0.685090
C19	C	0.301149	-0.630961	0.707599
C20	C	0.184722	-0.432539	0.631812
C21	C	0.162210	-0.365100	0.609357
C22	C	0.107225	-0.365129	0.719489
C23	C	0.129737	-0.432567	0.741943
C24	C	0.102194	-0.548896	0.714421
C25	C	0.079702	-0.571372	0.691949
C26	C	0.189805	-0.626409	0.636839
C27	C	0.212300	-0.603934	0.659303
C28	C	0.102289	-0.548918	0.830735
C29	C	0.079866	-0.571415	0.898171
C30	C	0.190015	-0.626466	0.898104
C31	C	0.212437	-0.603971	0.830666
C32	C	0.168573	-0.565195	0.796984
C33	C	0.267418	-0.565170	0.698047
C34	C	-0.130981	-0.765617	0.497386
C35	C	-0.032127	-0.765741	0.497606
C36	C	-0.056804	-0.790430	0.472789
C37	C	-0.075480	-0.898263	0.529507
C38	C	-0.053057	-0.965702	0.552014
C39	C	0.056052	-0.965829	0.510599
C40	C	0.033627	-0.898392	0.488091
C41	C	-0.164787	-0.781859	0.563659
C42	C	-0.232219	-0.759299	0.586018
C43	C	-0.232034	-0.704261	0.475827
C44	C	-0.164602	-0.726821	0.453469
C45	C	-0.048372	-0.699446	0.481299
C46	C	-0.025938	-0.677008	0.503867
C47	C	0.028987	-0.787155	0.559036
C48	C	0.006552	-0.809596	0.536475
C49	C	-0.048188	-0.699454	0.364860
C50	C	-0.025608	-0.677017	0.297425
C51	C	0.029406	-0.787170	0.297492
C52	C	0.006827	-0.809605	0.364929
C53	C	-0.031972	-0.765745	0.398611
C54	C	-0.032140	-0.864611	0.497548
N55	N	0.401319	-0.609788	0.653344
O56	O	0.621664	-0.620517	0.494685
O57	O	0.621901	-0.745740	0.664659
O58	O	0.621803	-0.745452	0.556857
O59	O	0.621762	-0.620805	0.602487
O60	O	0.514676	-0.709815	0.592658
O61	O	0.514774	-0.710104	0.700460
O62	O	0.514537	-0.584881	0.530485
Zn63	Zn	0.497647	-0.641834	0.621157
Zn64	Zn	0.638791	-0.688787	0.573988
O65	O	0.514635	-0.585169	0.638287
N66	N	0.735119	-0.720834	0.541794
N67	N	0.123794	-0.332357	0.653504
O68	O	-0.034774	-0.111885	0.642639
O69	O	0.135202	-0.111860	0.517412
O70	O	0.027364	-0.111888	0.517742
O71	O	0.073064	-0.111857	0.642310
O72	O	0.063120	-0.219026	0.553444
O73	O	0.170958	-0.218998	0.553115
O74	O	0.000983	-0.219022	0.678342
Zn75	Zn	0.091647	-0.236020	0.621397
Zn76	Zn	0.044537	-0.094862	0.574357
O77	O	0.108821	-0.218994	0.678013
N78	N	0.012383	0.001474	0.542251
N79	N	0.124036	-0.609854	0.930891
O80	O	0.113202	-0.768401	1.151342
O81	O	-0.011992	-0.598359	1.151385
O82	O	-0.011700	-0.706176	1.151343
O83	O	0.112910	-0.660584	1.151384
O84	O	0.023980	-0.670446	1.044212
O85	O	0.023689	-0.562630	1.044253
O86	O	0.148882	-0.732671	1.044211
Zn87	Zn	0.091951	-0.641977	1.027223
Zn88	Zn	0.044940	-0.689053	1.168373
O89	O	0.148590	-0.624854	1.044252
N90	N	0.012853	-0.721183	1.264704
C91	C	0.041135	-0.558973	0.518338
C92	C	0.174567	-0.692292	0.518215
C93	C	0.095103	-0.772007	0.677553
C94	C	-0.038330	-0.638687	0.677677
C95	C	0.568366	-0.745166	0.703974
C96	C	0.568246	-0.744810	0.570474
C97	C	0.568069	-0.585454	0.491172
C98	C	0.568192	-0.585812	0.624671
C99	C	0.174449	-0.165294	0.517975
C100	C	0.040949	-0.165460	0.518427
C101	C	-0.038309	-0.165456	0.677735
C102	C	0.095236	-0.165423	0.677328
C103	C	-0.011393	-0.559072	1.097824
C104	C	-0.011024	-0.692583	1.097752
C105	C	0.148283	-0.771958	1.097772
C106	C	0.147922	-0.638440	1.097820
H107	H	0.025889	-0.558152	0.925643
H108	H	0.105023	-0.165413	0.716462
O109	O	0.106688	-0.830268	0.724384
C110	C	0.099509	-0.821866	0.778675
H111	H	0.106535	-0.774658	0.763201
H112	H	0.049192	-0.820517	0.815137
C113	C	0.141515	-0.936260	0.828632
C114	C	0.150150	-0.878281	0.809626
H115	H	0.172751	-0.971060	0.847727
H116	H	0.146350	-0.941922	0.792057
H117	H	0.099583	-0.935127	0.859015
H118	H	0.192078	-0.879412	0.779238
H119	H	0.145324	-0.872621	0.846197
O120	O	0.195257	-0.830172	1.097729
C121	C	0.250692	-0.830171	1.097757
H122	H	0.249920	-0.778498	1.077491
H123	H	0.251459	-0.853202	1.149155
C124	C	0.312201	-0.932324	1.080622
C125	C	0.311256	-0.868859	1.055727
H126	H	0.349560	-0.956191	1.054699
H127	H	0.274853	-0.932326	1.080606
H128	H	0.312838	-0.951508	1.123453
H129	H	0.310611	-0.849673	1.012900
H130	H	0.348606	-0.868854	1.055735
H131	H	0.568427	-0.784476	0.752793
O132	O	0.194691	-0.626923	1.097851
C133	C	0.250290	-0.682238	1.097819
H134	H	0.236232	-0.726525	1.118091
H135	H	0.285304	-0.677036	1.046419
C136	C	0.299980	-0.635473	1.114935
C137	C	0.282713	-0.689867	1.139838
H138	H	0.319983	-0.640177	1.140851
H139	H	0.262523	-0.598204	1.114954
H140	H	0.329155	-0.631143	1.072102
H141	H	0.253532	-0.694191	1.182667
H142	H	0.320166	-0.727136	1.139827
H143	H	0.031160	-0.165463	0.479291
H144	H	0.223163	-0.164989	0.478564
O145	O	0.059589	-0.511281	0.798116
C146	C	-0.003724	-0.501722	0.842366
H147	H	-0.003562	-0.542386	0.890425
H148	H	-0.023044	-0.453685	0.849550
C149	C	-0.047203	-0.451298	0.757052
C150	C	-0.047005	-0.501245	0.816078
H151	H	-0.073903	-0.451000	0.740835
H152	H	-0.004549	-0.457735	0.727239
H153	H	-0.063302	-0.411272	0.763046
H154	H	-0.030899	-0.541270	0.810081
H155	H	-0.089658	-0.494814	0.845889
H156	H	-0.050155	-0.702322	1.097697
H157	H	0.225736	-0.658027	0.925521
O158	O	0.069513	-0.332319	0.762014
C159	C	0.009527	-0.293339	0.752361
H160	H	0.014914	-0.283225	0.701195
H161	H	-0.027085	-0.319350	0.788208
C162	C	-0.020437	-0.241708	0.825352
C163	C	-0.013819	-0.229281	0.762508
H164	H	-0.034840	-0.202195	0.831614
H165	H	0.019976	-0.267971	0.831858
H166	H	-0.050945	-0.263385	0.855218
H167	H	0.016695	-0.207612	0.732644
H168	H	-0.054227	-0.203013	0.755998
H169	H	-0.087123	-0.165464	0.717049
H170	H	-0.087172	-0.629063	0.716934
H171	H	0.116505	-0.460032	0.795926
O172	O	-0.058225	-0.500787	1.097866
C173	C	-0.035034	-0.460699	1.097868
H174	H	0.006323	-0.491678	1.118149
H175	H	-0.017162	-0.428164	1.046477
C176	C	-0.140506	-0.380960	1.114985
C177	C	-0.089714	-0.419010	1.139900
H178	H	-0.174235	-0.355243	1.140909
H179	H	-0.156130	-0.407967	1.114981
H180	H	-0.125604	-0.353854	1.072160
H181	H	-0.104614	-0.446121	1.182721
H182	H	-0.074094	-0.392007	1.139912
H183	H	0.223406	-0.701920	0.478955
O184	O	0.568236	-0.791446	0.558732
C185	C	0.568179	-0.767982	0.495421
H186	H	0.547847	-0.713113	0.478497
H187	H	0.619558	-0.784241	0.462061
C188	C	0.551151	-0.861900	0.514978
C189	C	0.526173	-0.794509	0.494192
H190	H	0.525242	-0.878265	0.514218
H191	H	0.551191	-0.877710	0.557631
H192	H	0.593966	-0.875441	0.487174
H193	H	0.483362	-0.780969	0.522000
H194	H	0.526125	-0.778697	0.451544
H195	H	0.266414	-0.617231	0.803190
O196	O	0.029486	-0.500693	0.471547
C197	C	-0.022683	-0.489192	0.456741
H198	H	-0.027802	-0.537041	0.470951
H199	H	-0.068856	-0.458172	0.484467
C200	C	-0.004097	-0.395127	0.366466
C201	C	-0.010380	-0.453897	0.383915
H202	H	0.003490	-0.373353	0.321544
H203	H	0.031049	-0.402874	0.376442
H204	H	-0.042576	-0.369285	0.389576
H205	H	0.028102	-0.479741	0.360811
H206	H	-0.045520	-0.446154	0.373933
H207	H	0.567992	-0.546139	0.442358
O208	O	0.015304	-0.555484	0.707696
C209	C	-0.001044	-0.521537	0.651058
H210	H	0.036945	-0.498706	0.610535
H211	H	-0.003293	-0.556208	0.636865
C212	C	-0.113839	-0.496503	0.712873
C213	C	-0.067184	-0.468457	0.663104
H214	H	-0.154638	-0.463762	0.720304
H215	H	-0.102826	-0.519376	0.751032
H216	H	-0.115705	-0.525395	0.701039
H217	H	-0.065313	-0.439572	0.674942
H218	H	-0.078198	-0.445578	0.624947
H219	H	0.225479	-0.657972	0.605261
O220	O	0.276724	-0.619811	0.643393
C221	C	0.310567	-0.658815	0.604314
H222	H	0.278421	-0.683355	0.612944
H223	H	0.325037	-0.627679	0.551499
C224	C	0.410893	-0.680189	0.610713
C225	C	0.371413	-0.710334	0.621317
H226	H	0.448427	-0.711967	0.621199
H227	H	0.388093	-0.653910	0.637040
H228	H	0.422945	-0.654243	0.566700
H229	H	0.359355	-0.736272	0.665330
H230	H	0.394212	-0.736619	0.594998
O231	O	0.268516	-0.673125	0.738697
C232	C	0.312750	-0.736014	0.742308
H233	H	0.360798	-0.733442	0.702464
H234	H	0.319963	-0.761761	0.791167
C235	C	0.227408	-0.776563	0.783014
C236	C	0.286420	-0.773404	0.734073
H237	H	0.211165	-0.799629	0.777937
H238	H	0.197605	-0.734194	0.780584
H239	H	0.233426	-0.798017	0.823725
H240	H	0.280399	-0.751943	0.693364
H241	H	0.316221	-0.815770	0.736496
H242	H	0.568183	-0.546658	0.634434
H243	H	0.066522	-0.517340	0.746005
O244	O	0.075814	-0.865801	0.457083
C245	C	0.138671	-0.910080	0.453554
H246	H	0.136043	-0.958129	0.493386
H247	H	0.164470	-0.917283	0.404691
C248	C	0.179261	-0.824799	0.412979
C249	C	0.176033	-0.883812	0.461904
H250	H	0.202310	-0.808595	0.418126
H251	H	0.136914	-0.794966	0.415354
H252	H	0.200759	-0.830809	0.372264
H253	H	0.154529	-0.877799	0.502616
H254	H	0.218378	-0.913643	0.459536
H255	H	0.396045	-0.707006	0.692856
H256	H	0.273654	-0.468282	0.658214
O257	O	0.401178	-0.502156	0.612336
C258	C	0.356946	-0.439270	0.608745
H259	H	0.308870	-0.436645	0.613185
H260	H	0.349803	-0.426684	0.649599
C261	C	0.442269	-0.394346	0.538186
C262	C	0.383222	-0.391122	0.543634
H263	H	0.458478	-0.364645	0.498024
H264	H	0.472070	-0.436714	0.540607
H265	H	0.436308	-0.383859	0.572234
H266	H	0.389185	-0.401616	0.509590
H267	H	0.353423	-0.348754	0.541206
H268	H	0.175430	-0.337636	0.555374
O269	O	0.222260	-0.465251	0.589205
C270	C	0.188174	-0.448759	0.550236
H271	H	0.134232	-0.430232	0.576302
H272	H	0.202492	-0.409605	0.502858
C273	C	0.270718	-0.531417	0.504443
C274	C	0.204466	-0.508667	0.536460
H275	H	0.280769	-0.568369	0.495942
H276	H	0.293684	-0.542527	0.530695
H277	H	0.282642	-0.498783	0.464965
H278	H	0.192545	-0.541298	0.575940
H279	H	0.181498	-0.497564	0.510214
O280	O	-0.085838	-0.656758	0.397479
C281	C	-0.095320	-0.593435	0.353229
H282	H	-0.054617	-0.593611	0.305203
H283	H	-0.143326	-0.574055	0.345964
C284	C	-0.145803	-0.549989	0.438571
C285	C	-0.095809	-0.550204	0.379585
H286	H	-0.146108	-0.523321	0.454829
H287	H	-0.139417	-0.592650	0.468384
H288	H	-0.185804	-0.533841	0.432508
H289	H	-0.055809	-0.566360	0.385650
H290	H	-0.102188	-0.507544	0.349774
O291	O	0.067101	-0.829863	0.264878
C292	C	0.076553	-0.893184	0.309131
H293	H	0.068948	-0.893050	0.357226
H294	H	0.040661	-0.912448	0.316222
C295	C	0.154974	-0.936677	0.223854
C296	C	0.145639	-0.936513	0.282924
H297	H	0.197589	-0.963406	0.207688
H298	H	0.148605	-0.894017	0.194039
H299	H	0.125059	-0.952729	0.229771
H300	H	0.175548	-0.920454	0.277004
H301	H	0.152015	-0.979172	0.312737
O302	O	0.066532	-0.829845	0.596804
C303	C	0.076072	-0.893168	0.606337
H304	H	0.035450	-0.892996	0.598703
H305	H	0.124140	-0.912540	0.570507
C306	C	0.126328	-0.936616	0.684838
C307	C	0.076432	-0.936405	0.675467
H308	H	0.126554	-0.963288	0.727479
H309	H	0.119903	-0.893954	0.678414
H310	H	0.166380	-0.952758	0.654975
H311	H	0.036382	-0.920256	0.705324
H312	H	0.082851	-0.979065	0.681898
O313	O	-0.041264	-0.612623	0.264615
C314	C	0.015422	-0.596394	0.225690
H315	H	0.055880	-0.634439	0.246098
H316	H	0.029686	-0.594177	0.174571
C317	C	-0.046266	-0.483542	0.199594
C318	C	0.003423	-0.530267	0.224662
H319	H	-0.053668	-0.442750	0.198956
H320	H	-0.084458	-0.494475	0.225816
H321	H	-0.034373	-0.481702	0.156996
H322	H	-0.008474	-0.532112	0.267261
H323	H	0.041612	-0.519332	0.198446
H324	H	-0.079862	-0.663733	0.449648
O325	O	-0.095258	-0.998293	0.583148
C326	C	-0.158119	-0.954016	0.586695
H327	H	-0.160696	-0.905938	0.582207
H328	H	-0.170713	-0.946884	0.545850
C329	C	-0.203128	-1.039278	0.657320
C330	C	-0.206295	-0.980230	0.651813
H331	H	-0.232846	-1.055448	0.697487
H332	H	-0.160778	-1.069109	0.654928
H333	H	-0.213621	-1.033327	0.623279
H334	H	-0.195794	-0.986183	0.685849
H335	H	-0.248645	-0.950400	0.654212
O336	O	-0.132226	-0.819514	0.606405
C337	C	-0.176526	-0.829019	0.669696
H338	H	-0.224562	-0.788317	0.669491
H339	H	-0.183736	-0.877030	0.688994
C340	C	-0.091289	-0.879520	0.713290
C341	C	-0.150286	-0.829525	0.713039
H342	H	-0.075102	-0.879835	0.740028
H343	H	-0.061442	-0.873119	0.670651
H344	H	-0.097305	-0.919524	0.729371
H345	H	-0.144267	-0.789522	0.696952
H346	H	-0.180131	-0.835920	0.755678
O347	O	-0.265088	-0.774967	0.650393
C348	C	-0.304106	-0.718282	0.666653
H349	H	-0.283729	-0.677809	0.628671
H350	H	-0.355188	-0.704034	0.668792
C351	C	-0.330274	-0.779993	0.779484
C352	C	-0.305244	-0.730284	0.732836
H353	H	-0.330979	-0.787396	0.820310
H354	H	-0.303989	-0.818183	0.768530
H355	H	-0.372840	-0.768113	0.781258
H356	H	-0.262677	-0.742168	0.731057
H357	H	-0.331522	-0.692096	0.743791
O358	O	0.119919	-0.998676	0.501533
C359	C	0.128987	-1.037692	0.561773
H360	H	0.086262	-1.017327	0.600613
H361	H	0.132946	-1.088787	0.573438
C362	C	0.243734	-1.063816	0.511650
C363	C	0.191261	-1.038799	0.559353
H364	H	0.282149	-1.064501	0.510157
H365	H	0.237626	-1.037532	0.471064
H366	H	0.247025	-1.106392	0.521376
H367	H	0.187966	-0.996221	0.549622
H368	H	0.197370	-1.065076	0.599938
H369	H	-0.039168	-0.623025	0.490592
O370	O	-0.264630	-0.666655	0.433109
C371	C	-0.248128	-0.700724	0.394122
H372	H	-0.199197	-0.740025	0.393542
H373	H	-0.286101	-0.723554	0.414338
C374	C	-0.305000	-0.605739	0.325724
C375	C	-0.244900	-0.654006	0.325007
H376	H	-0.303011	-0.576922	0.283091
H377	H	-0.316120	-0.582786	0.351991
H378	H	-0.336638	-0.624772	0.342574
H379	H	-0.213264	-0.634974	0.308166
H380	H	-0.233774	-0.676955	0.298735
H381	H	0.019779	-0.863579	0.549754
H382	H	0.020039	-0.863588	0.392405
H383	H	-0.129033	-0.870764	0.537213
H384	H	-0.137077	-0.713589	0.399501
