data_functionalizedCrystal
_audit_creation_method	'MofGen! by Chris Wilmer'
_symmetry_space_group_name_H-M	'P1'
_symmetry_Int_Tables_number	1
_symmetry_cell_setting	triclinic
loop_
_symmetry_equiv_pos_as_xyz
  x,y,z
_cell_length_a	18.050591
_cell_length_b	18.050589
_cell_length_c	18.050582
_cell_angle_alpha	90.018912
_cell_angle_beta	90.021817
_cell_angle_gamma	90.024227
loop_
_atom_site_label
_atom_site_type_symbol
_atom_site_fract_x
_atom_site_fract_y
_atom_site_fract_z
Zn1	Zn	-1.135299	0.295781	-0.420054
Zn2	Zn	-0.635299	0.795781	0.079946
Zn3	Zn	-1.135208	0.419965	-0.295873
Zn4	Zn	-0.635208	0.919965	0.204127
Zn5	Zn	-1.011116	0.295785	-0.295865
Zn6	Zn	-0.511116	0.795785	0.204135
Zn7	Zn	-1.011066	0.419925	-0.420009
Zn8	Zn	-0.511066	0.919925	0.079991
O9	O	-1.073172	0.357864	-0.357950
O10	O	-0.573172	0.857864	0.142050
O11	O	-1.239212	0.312269	-0.403603
O12	O	-0.739212	0.812269	0.096397
O13	O	-1.118730	0.403512	-0.191948
O14	O	-0.618730	0.903512	0.308052
O15	O	-1.027649	0.191860	-0.312354
O16	O	-0.527649	0.691860	0.187646
O17	O	-1.239145	0.403507	-0.312369
O18	O	-0.739145	0.903507	0.187631
O19	O	-1.118885	0.191857	-0.403595
O20	O	-0.618885	0.691857	0.096405
O21	O	-1.027560	0.312277	-0.191942
O22	O	-0.527560	0.812277	0.308058
O23	O	-0.907185	0.312237	-0.312311
O24	O	-0.407185	0.812237	0.187689
O25	O	-1.027563	0.403438	-0.523940
O26	O	-0.527563	0.903438	-0.023940
O27	O	-0.907148	0.403442	-0.403519
O28	O	-0.407148	0.903442	0.096481
O29	O	-1.118837	0.312230	-0.523973
O30	O	-0.618837	0.812230	-0.023973
O31	O	-1.118681	0.523885	-0.312325
O32	O	-0.618681	1.023885	0.187675
O33	O	-1.027475	0.523855	-0.403527
O34	O	-0.527475	1.023855	0.096473
C35	C	-0.880220	0.357836	-0.357909
C36	C	-0.380220	0.857836	0.142091
C37	C	-0.797674	0.357842	-0.357909
C38	C	-0.297674	0.857842	0.142091
C39	C	-1.073205	0.357829	-0.551656
C40	C	-0.573205	0.857829	-0.051656
C41	C	-1.073218	0.357814	-0.634202
C42	C	-0.573218	0.857814	-0.134202
C43	C	-1.266878	0.357892	-0.357992
C44	C	-0.766878	0.857892	0.142008
C45	C	-1.349424	0.357904	-0.358010
C46	C	-0.849424	0.857904	0.141990
C47	C	-0.598222	0.308188	-0.308425
C48	C	-0.098222	0.808188	0.191575
C49	C	-0.548802	0.375924	-0.290154
C50	C	-0.048802	0.875924	0.209846
C51	C	-0.646544	0.357865	-0.357943
C52	C	-0.146544	0.857865	0.142057
C53	C	-0.548882	0.290152	-0.376212
C54	C	-0.048882	0.790152	0.123788
C55	C	-0.500559	0.357881	-0.357974
C56	C	-0.000559	0.857881	0.142026
C57	C	-0.598211	0.425637	-0.339637
C58	C	-0.098211	0.925637	0.160363
C59	C	-0.598296	0.339819	-0.425726
C60	C	-0.098296	0.839819	0.074274
C61	C	-0.548898	0.407602	-0.407481
C62	C	-0.048898	0.907602	0.092519
C63	C	-0.730642	0.357855	-0.357923
C64	C	-0.230642	0.857855	0.142077
C65	C	-0.416462	0.357898	-0.357994
C66	C	0.083538	0.857898	0.142006
C67	C	-1.073083	0.550816	-0.357938
C68	C	-0.573083	1.050816	0.142062
C69	C	-1.073112	0.633362	-0.357958
C70	C	-0.573112	1.133362	0.142042
C71	C	-1.073283	0.164158	-0.357979
C72	C	-0.573283	0.664158	0.142021
C73	C	-1.073330	0.081612	-0.357991
C74	C	-0.573330	0.581612	0.142009
C75	C	-1.023563	0.832823	-0.407536
C76	C	-0.523563	1.332823	0.092464
C77	C	-1.005464	0.882257	-0.339767
C78	C	-0.505464	1.382257	0.160233
C79	C	-1.073185	0.784492	-0.357967
C80	C	-0.573185	1.284492	0.142033
C81	C	-1.091321	0.882140	-0.425744
C82	C	-0.591321	1.382140	0.074256
C83	C	-1.073254	0.930477	-0.357983
C84	C	-0.573254	1.430477	0.142017
C85	C	-1.055051	0.832838	-0.290162
C86	C	-0.555051	1.332838	0.209838
C87	C	-1.140939	0.832718	-0.376186
C88	C	-0.640939	1.332718	0.123814
C89	C	-1.122866	0.882129	-0.308370
C90	C	-0.622866	1.382129	0.191630
C91	C	-1.073144	0.700394	-0.357959
C92	C	-0.573144	1.200394	0.142041
C93	C	-1.073296	1.014574	-0.357983
C94	C	-0.573296	1.514574	0.142017
C95	C	-1.023630	0.407332	-0.883010
C96	C	-0.523630	0.907332	-0.383010
C97	C	-1.005490	0.339593	-0.833615
C98	C	-0.505490	0.839593	-0.333615
C99	C	-1.073281	0.357704	-0.931322
C100	C	-0.573281	0.857704	-0.431322
C101	C	-1.091355	0.425493	-0.833636
C102	C	-0.591355	0.925493	-0.333636
C103	C	-1.073248	0.357762	-0.785337
C104	C	-0.573248	0.857762	-0.285337
C105	C	-1.055106	0.289930	-0.883015
C106	C	-0.555106	0.789930	-0.383015
C107	C	-1.141003	0.375875	-0.883040
C108	C	-0.641003	0.875875	-0.383040
C109	C	-1.122888	0.308090	-0.833667
C110	C	-0.622888	0.808090	-0.333667
C111	C	-1.073298	0.357672	-1.015421
C112	C	-0.573298	0.857672	-0.515421
C113	C	-1.073231	0.357786	-0.701241
C114	C	-0.573231	0.857786	-0.201241
C115	C	-1.073183	0.357846	-0.164998
C116	C	-0.573183	0.857846	0.335002
C117	C	-1.073313	0.357651	-0.082453
C118	C	-0.573313	0.857651	0.417547
H119	H	-0.619879	0.266222	-0.266503
H120	H	-0.119879	0.766222	0.233497
H121	H	-0.981624	0.449222	-0.904676
H122	H	-0.481624	0.949222	-0.404676
Cl123	Cl	-1.229331	0.799096	-0.400005
Cl124	Cl	-0.729331	1.299096	0.099995
Cl125	Cl	-1.229421	0.399605	-0.916588
Cl126	Cl	-0.729421	0.899605	-0.416588
H127	H	-0.527064	0.391199	-0.232844
H128	H	-0.027064	0.891199	0.267156
H129	H	-1.106632	0.903797	-0.483056
H130	H	-0.606632	1.403797	0.016944
Cl131	Cl	-0.515422	0.201733	-0.400047
Cl132	Cl	-0.015422	0.701733	0.099953
H133	H	-0.619790	0.482924	-0.324134
H134	H	-0.119790	0.982924	0.175866
Cl135	Cl	-0.515667	0.472545	-0.472156
Cl136	Cl	-0.015667	0.972545	0.027844
Cl137	Cl	-0.917048	0.315892	-0.800096
Cl138	Cl	-0.417048	0.815892	-0.300096
H139	H	-0.981538	0.811173	-0.449395
H140	H	-0.481538	1.311173	0.050605
H141	H	-0.620052	0.324524	-0.483019
H142	H	-0.120052	0.824524	0.016981
H143	H	-0.948200	0.904033	-0.324371
H144	H	-0.448200	1.404033	0.175629
Cl145	Cl	-1.031379	0.201430	-0.916358
Cl146	Cl	-0.531379	0.701430	-0.416358
Cl147	Cl	-1.031310	0.799546	-0.201651
Cl148	Cl	-0.531310	1.299546	0.298349
Cl149	Cl	-1.114974	0.513963	-0.800137
Cl150	Cl	-0.614974	1.013963	-0.300137
H151	H	-1.164859	0.903642	-0.266409
H152	H	-0.664859	1.403642	0.233591
Cl153	Cl	-1.187694	0.243261	-0.800425
Cl154	Cl	-0.687694	0.743261	-0.300425
