data_functionalizedCrystal
_audit_creation_method	'MofGen! by Chris Wilmer'
_symmetry_space_group_name_H-M	'P1'
_symmetry_Int_Tables_number	1
_symmetry_cell_setting	triclinic
loop_
_symmetry_equiv_pos_as_xyz
  x,y,z
_cell_length_a	25.639242
_cell_length_b	25.639239
_cell_length_c	16.625539
_cell_angle_alpha	90.031255
_cell_angle_beta	90.028772
_cell_angle_gamma	90.033587
loop_
_atom_site_label
_atom_site_type_symbol
_atom_site_fract_x
_atom_site_fract_y
_atom_site_fract_z
Zn1	Zn	0.799262	-0.208221	0.456069
Zn2	Zn	1.299262	0.291779	0.956069
Zn3	Zn	0.799175	-0.295659	0.321229
Zn4	Zn	1.299175	0.204341	0.821229
Zn5	Zn	0.711828	-0.208231	0.321230
Zn6	Zn	1.211828	0.291769	0.821230
Zn7	Zn	0.711784	-0.295619	0.456000
Zn8	Zn	1.211784	0.204381	0.956000
O9	O	0.755512	-0.251933	0.388632
O10	O	1.255512	0.248067	0.888632
O11	O	0.872416	-0.219832	0.438211
O12	O	1.372416	0.280168	0.938211
O13	O	0.787570	-0.284082	0.208397
O14	O	1.287570	0.215918	0.708397
O15	O	0.723481	-0.135065	0.339146
O16	O	1.223481	0.364935	0.839146
O17	O	0.872351	-0.284072	0.339145
O18	O	1.372351	0.215928	0.839145
O19	O	0.787719	-0.135057	0.438212
O20	O	1.287719	0.364943	0.938212
O21	O	0.723396	-0.219850	0.208398
O22	O	1.223396	0.280150	0.708398
O23	O	0.638657	-0.219812	0.339079
O24	O	1.138657	0.280188	0.839079
O25	O	0.723406	-0.284005	0.568842
O26	O	1.223406	0.215995	1.068842
O27	O	0.638624	-0.284015	0.438094
O28	O	1.138624	0.215985	0.938094
O29	O	0.787676	-0.219794	0.568892
O30	O	1.287676	0.280206	1.068892
O31	O	0.787527	-0.368819	0.339078
O32	O	1.287527	0.131181	0.839078
O33	O	0.723321	-0.368790	0.438093
O34	O	1.223321	0.131210	0.938093
C35	C	0.619669	-0.251911	0.388580
C36	C	1.119669	0.248089	0.888580
C37	C	0.561555	-0.251914	0.388576
C38	C	1.061555	0.248086	0.888576
C39	C	0.310370	-0.218446	0.337165
C40	C	0.810370	0.281554	0.837165
C41	C	0.364974	-0.218441	0.337154
C42	C	0.864974	0.281559	0.837154
O43	O	0.393218	-0.189955	0.293397
O44	O	0.893218	0.310045	0.793397
N45	N	0.392282	-0.251920	0.388617
N46	N	0.892282	0.248080	0.888617
C47	C	0.364982	-0.285402	0.440099
C48	C	0.864982	0.214598	0.940099
O49	O	0.393222	-0.313878	0.483872
O50	O	0.893222	0.186122	0.983872
C51	C	0.310378	-0.285404	0.440113
C52	C	0.810378	0.214596	0.940113
C53	C	0.283074	-0.251927	0.388641
C54	C	0.783074	0.248073	0.888641
C55	C	0.283066	-0.184971	0.285697
C56	C	0.783066	0.315029	0.785697
C57	C	0.228465	-0.184977	0.285707
C58	C	0.728465	0.315023	0.785707
C59	C	0.201169	-0.218457	0.337183
C60	C	0.701169	0.281543	0.837183
C61	C	0.228473	-0.251932	0.388650
C62	C	0.728473	0.248068	0.888650
C63	C	0.283079	-0.318883	0.491598
C64	C	0.783079	0.181117	0.991598
C65	C	0.228472	-0.318882	0.491608
C66	C	0.728472	0.181118	0.991608
C67	C	0.201168	-0.285405	0.440136
C68	C	0.701168	0.214595	0.940136
C69	C	0.146577	-0.285419	0.440136
C70	C	0.646577	0.214581	0.940136
N71	N	0.119269	-0.251940	0.388673
N72	N	0.619269	0.248060	0.888673
C73	C	0.146566	-0.218459	0.337197
C74	C	0.646566	0.281541	0.837197
C75	C	0.479652	-0.285395	0.440067
C76	C	0.979652	0.214605	0.940067
C77	C	0.534255	-0.285397	0.440050
C78	C	1.034255	0.214603	0.940050
C79	C	0.534243	-0.218435	0.337106
C80	C	1.034243	0.281565	0.837106
C81	C	0.479640	-0.218436	0.337120
C82	C	0.979640	0.281564	0.837120
C83	C	0.452345	-0.251916	0.388605
C84	C	0.952345	0.248084	0.888605
C85	C	0.031900	-0.218474	0.337220
C86	C	0.531900	0.281526	0.837220
C87	C	-0.022705	-0.218484	0.337232
C88	C	0.477295	0.281516	0.837232
C89	C	-0.022689	-0.285444	0.440178
C90	C	0.477311	0.214556	0.940178
C91	C	0.031912	-0.285436	0.440164
C92	C	0.531912	0.214564	0.940164
C93	C	0.059205	-0.251947	0.388682
C94	C	0.559205	0.248053	0.888682
O95	O	0.118299	-0.313889	0.483874
O96	O	0.618299	0.186111	0.983874
O97	O	0.118318	-0.189983	0.293439
O98	O	0.618318	0.310017	0.793439
C99	C	0.755424	-0.387775	0.388595
C100	C	1.255424	0.112225	0.888595
C101	C	0.755434	-0.445889	0.388607
C102	C	1.255434	0.054111	0.888607
C103	C	0.789031	-0.806255	0.337163
C104	C	1.289031	-0.306255	0.837163
C105	C	0.789051	-0.860859	0.337174
C106	C	1.289051	-0.360859	0.837174
O107	O	0.817526	-0.889098	0.293394
O108	O	1.317526	-0.389098	0.793394
N109	N	0.755604	-0.888172	0.388686
N110	N	1.255604	-0.388172	0.888686
C111	C	0.722138	-0.860877	0.440196
C112	C	1.222138	-0.360877	0.940196
O113	O	0.693690	-0.889123	0.484013
O114	O	1.193690	-0.389123	0.984013
C115	C	0.722120	-0.806274	0.440189
C116	C	1.222120	-0.306274	0.940189
C117	C	0.755566	-0.778964	0.388668
C118	C	1.255566	-0.278964	0.888668
C119	C	0.822475	-0.778945	0.285646
C120	C	1.322475	-0.278945	0.785646
C121	C	0.822454	-0.724344	0.285635
C122	C	1.322454	-0.224344	0.785635
C123	C	0.788989	-0.697054	0.337140
C124	C	1.288989	-0.197054	0.837140
C125	C	0.755545	-0.724364	0.388656
C126	C	1.255545	-0.224364	0.888656
C127	C	0.688657	-0.778980	0.491703
C128	C	1.188657	-0.278980	0.991703
C129	C	0.688643	-0.724373	0.491691
C130	C	1.188643	-0.224373	0.991691
C131	C	0.722089	-0.697063	0.440170
C132	C	1.222089	-0.197063	0.940170
C133	C	0.722059	-0.642472	0.440149
C134	C	1.222059	-0.142472	0.940149
N135	N	0.755507	-0.615160	0.388637
N136	N	1.255507	-0.115160	0.888637
C137	C	0.788972	-0.642450	0.337132
C138	C	1.288972	-0.142450	0.837132
C139	C	0.722177	-0.975548	0.440209
C140	C	1.222177	-0.475548	0.940209
C141	C	0.722191	-1.030150	0.440212
C142	C	1.222191	-0.530150	0.940212
C143	C	0.789106	-1.030128	0.337191
C144	C	1.289106	-0.530128	0.837191
C145	C	0.789089	-0.975525	0.337183
C146	C	1.289089	-0.475525	0.837183
C147	C	0.755625	-0.948235	0.388697
C148	C	1.255625	-0.448235	0.888697
C149	C	0.788925	-0.527785	0.337111
C150	C	1.288925	-0.027785	0.837111
C151	C	0.788899	-0.473180	0.337102
C152	C	1.288899	0.026820	0.837102
C153	C	0.721987	-0.473207	0.440126
C154	C	1.221987	0.026793	0.940126
C155	C	0.722010	-0.527807	0.440133
C156	C	1.222010	-0.027807	0.940133
C157	C	0.755483	-0.555095	0.388623
C158	C	1.255483	-0.055095	0.888623
O159	O	0.693601	-0.614199	0.483909
O160	O	1.193601	-0.114199	0.983909
O161	O	0.817419	-0.614198	0.293331
O162	O	1.317419	-0.114198	0.793331
C163	C	0.891885	-0.251955	0.388685
C164	C	1.391885	0.248045	0.888685
C165	C	0.949999	-0.251965	0.388708
C166	C	1.449999	0.248035	0.888708
C167	C	0.755546	-0.251894	0.598941
C168	C	1.255546	0.248106	1.098941
C169	C	0.755560	-0.251877	0.688562
C170	C	1.255560	0.248123	1.188562
C171	C	0.755615	-0.115560	0.388687
C172	C	1.255615	0.384440	0.888687
C173	C	0.755658	-0.057446	0.388710
C174	C	1.255658	0.442554	0.888710
C175	C	0.755508	-0.251934	0.179141
C176	C	1.255508	0.248066	0.679141
C177	C	0.755595	-0.251803	0.089521
C178	C	1.255595	0.248197	0.589521
C179	C	0.755585	-0.251819	1.016738
C180	C	1.255585	0.248181	1.516738
C181	C	0.755576	-0.251837	0.925430
C182	C	1.255576	0.248163	1.425430
C183	C	0.755573	-0.251848	0.852653
C184	C	1.255573	0.248152	1.352653
C185	C	0.755564	-0.251865	0.761339
C186	C	1.255564	0.248135	1.261339
H187	H	-0.044934	-0.191222	0.295315
H188	H	0.455066	0.308778	0.795315
H189	H	0.054116	-0.191201	0.295302
H190	H	0.554116	0.308799	0.795302
O191	O	0.825203	-1.059572	0.281642
O192	O	1.325203	-0.559572	0.781642
H193	H	0.848457	-1.031412	0.245811
H194	H	1.348457	-0.531412	0.745811
O195	O	0.685936	-0.557268	0.495698
O196	O	1.185936	-0.057268	0.995698
H197	H	0.662665	-0.529115	0.531512
H198	H	1.162665	-0.029115	1.031512
H199	H	0.305284	-0.157704	0.243779
H200	H	0.805284	0.342296	0.743779
O201	O	0.858532	-0.694893	0.230070
O202	O	1.358532	-0.194893	0.730070
H203	H	0.885109	-0.669974	0.266199
H204	H	1.385109	-0.169974	0.766199
H205	H	0.694738	-0.450978	0.482058
H206	H	1.194738	0.049022	0.982058
O207	O	0.199018	-0.148862	0.230201
O208	O	0.699018	0.351138	0.730201
H209	H	0.227179	-0.125579	0.194416
H210	H	0.727179	0.374421	0.694416
O211	O	0.825167	-0.946070	0.281624
O212	O	1.325167	-0.446070	0.781624
H213	H	0.848441	-0.974226	0.245818
H214	H	1.348441	-0.474226	0.745818
H215	H	0.457413	-0.191174	0.295210
H216	H	0.957413	0.308826	0.795210
O217	O	0.199031	-0.355028	0.547085
O218	O	0.699031	0.144972	1.047085
H219	H	0.227195	-0.378319	0.582847
H220	H	0.727195	0.121681	1.082847
H221	H	0.457432	-0.312663	0.481991
H222	H	0.957432	0.187337	0.981991
O223	O	0.686114	-1.059604	0.495776
O224	O	1.186114	-0.559604	0.995776
H225	H	0.662845	-1.031448	0.531589
H226	H	1.162845	-0.531448	1.031589
O227	O	0.563689	-0.182316	0.281590
O228	O	1.063689	0.317684	0.781590
H229	H	0.606244	-0.187937	0.290239
H230	H	1.106244	0.312063	0.790239
O231	O	0.686069	-0.946114	0.495752
O232	O	1.186069	-0.446114	0.995752
H233	H	0.662810	-0.974284	0.531560
H234	H	1.162810	-0.474284	1.031560
O235	O	0.563703	-0.321503	0.495566
O236	O	1.063703	0.178497	0.995566
H237	H	0.553195	-0.362528	0.481632
H238	H	1.053195	0.137472	0.981632
O239	O	0.312522	-0.354986	0.547124
O240	O	0.812522	0.145014	1.047124
H241	H	0.284359	-0.378257	0.582925
H242	H	0.784359	0.121743	1.082925
H243	H	0.054144	-0.312700	0.482071
H244	H	0.554144	0.187300	0.982071
H245	H	-0.044923	-0.312705	0.482086
H246	H	0.455077	0.187295	0.982086
H247	H	0.661419	-0.801207	0.533653
H248	H	1.161419	-0.301207	1.033653
H249	H	0.661393	-0.702156	0.533642
H250	H	1.161393	-0.202156	1.033642
H251	H	0.816183	-0.549997	0.295169
H252	H	1.316183	-0.049997	0.795169
O253	O	0.824978	-0.443723	0.281537
O254	O	1.324978	0.056277	0.781537
H255	H	0.848256	-0.471877	0.245733
H256	H	1.348256	0.028123	0.745733
H257	H	0.849729	-0.801159	0.243705
H258	H	1.349729	-0.301159	0.743705
