data_functionalizedCrystal
_audit_creation_method	'MofGen! by Chris Wilmer'
_symmetry_space_group_name_H-M	'P1'
_symmetry_Int_Tables_number	1
_symmetry_cell_setting	triclinic
loop_
_symmetry_equiv_pos_as_xyz
  x,y,z
_cell_length_a	16.625546
_cell_length_b	13.034296
_cell_length_c	13.032831
_cell_angle_alpha	105.185450
_cell_angle_beta	97.173222
_cell_angle_gamma	82.786634
loop_
_atom_site_label
_atom_site_type_symbol
_atom_site_fract_x
_atom_site_fract_y
_atom_site_fract_z
Zn1	Zn	-0.408761	-0.806419	-1.700150
Zn2	Zn	-0.558797	-0.628778	-1.677445
Zn3	Zn	-0.408768	-0.606300	-1.499953
Zn4	Zn	-0.528334	-0.783834	-1.522480
O5	O	-0.476165	-0.706333	-1.600007
O6	O	-0.441409	-0.801714	-1.845775
O7	O	-0.551647	-0.477154	-1.634971
O8	O	-0.295937	-0.632892	-1.526584
O9	O	-0.551640	-0.671201	-1.829094
O10	O	-0.295932	-0.779918	-1.673668
O11	O	-0.441422	-0.460640	-1.504568
O12	O	-0.411883	-0.610992	-1.354305
O13	O	-0.499720	-0.935472	-1.564978
O14	O	-0.499728	-0.741425	-1.370855
O15	O	-0.411870	-0.952065	-1.695512
O16	O	-0.667586	-0.649301	-1.656815
O17	O	-0.645205	-0.763220	-1.542963
C18	C	-0.685651	-0.706276	-1.599901
C19	C	-0.775275	-0.706299	-1.599957
C20	C	-0.452501	-0.671319	-1.324040
C21	C	-0.442395	-0.656365	-1.205984
C22	C	-0.452396	-0.983387	-1.635290
C23	C	-0.442268	-1.101452	-1.650326
C24	C	-1.103457	-0.706433	-1.600157
C25	C	-1.012146	-0.706398	-1.600098
C26	C	-0.939369	-0.706365	-1.600056
C27	C	-0.848053	-0.706332	-1.599999
C28	C	-0.265861	-0.706417	-1.600146
C29	C	-0.176242	-0.706453	-1.600205
C30	C	-0.481218	-1.145878	-1.592444
C31	C	-0.470751	-1.267903	-1.607983
C32	C	-0.499788	-0.430364	-1.564922
C33	C	-0.509707	-0.312326	-1.550093
C34	C	-0.499922	-0.741484	-1.877052
C35	C	-0.510046	-0.756463	-1.995112
C36	C	-0.481440	-0.714137	-1.161555
C37	C	-0.470995	-0.698683	-1.039537
H38	H	-0.522318	-1.093575	-1.531390
O39	O	-0.530547	-0.786877	-1.223782
C40	C	-0.620521	-0.919908	-1.229444
C41	C	-0.564918	-0.837584	-1.158853
H42	H	-0.648339	-0.960912	-1.176976
H43	H	-0.583240	-0.982139	-1.288462
H44	H	-0.671197	-0.877559	-1.275159
H45	H	-0.514233	-0.879841	-1.113070
H46	H	-0.602255	-0.775358	-1.099901
H47	H	-0.429654	-1.320204	-1.669049
O48	O	-0.558859	-1.250007	-1.477359
C49	C	-0.694484	-1.209311	-1.421341
C50	C	-0.638918	-1.279942	-1.503800
H51	H	-0.759219	-1.233502	-1.442676
H52	H	-0.694265	-1.121999	-1.421785
H53	H	-0.671083	-1.220189	-1.338461
H54	H	-0.662279	-1.269156	-1.586719
H55	H	-0.639141	-1.367227	-1.503262
O56	O	-0.393239	-1.163990	-1.723089
C57	C	-0.338165	-1.342640	-1.804992
C58	C	-0.393703	-1.271943	-1.722534
H59	H	-0.338535	-1.429936	-1.804587
H60	H	-0.273380	-1.318631	-1.783636
H61	H	-0.361513	-1.331690	-1.887862
H62	H	-0.370429	-1.282857	-1.639636
H63	H	-0.458479	-1.295969	-1.743982
O64	O	-0.422014	-0.625891	-0.977105
C65	C	-0.412648	-0.466759	-0.833422
C66	C	-0.468209	-0.549109	-0.904065
H67	H	-0.449971	-0.404673	-0.774337
H68	H	-0.384898	-0.425581	-0.885799
H69	H	-0.361921	-0.509111	-0.787781
H70	H	-0.518978	-0.506840	-0.949718
H71	H	-0.495897	-0.590284	-0.851631
O72	O	-0.559052	-0.829273	-1.057455
C73	C	-0.585846	-1.014152	-1.114567
C74	C	-0.530271	-0.931813	-1.043934
H75	H	-0.562608	-1.097071	-1.103643
H76	H	-0.585512	-1.013770	-1.201887
H77	H	-0.650603	-0.992552	-1.090405
H78	H	-0.465489	-0.953356	-1.068002
H79	H	-0.530674	-0.932211	-0.956632
O80	O	-0.393357	-0.583709	-1.143444
C81	C	-0.338185	-0.502123	-0.964819
C82	C	-0.393754	-0.584434	-1.035514
H83	H	-0.338474	-0.502697	-0.877545
H84	H	-0.361449	-0.419144	-0.975554
H85	H	-0.273440	-0.523647	-0.989038
H86	H	-0.458513	-0.563009	-1.011340
H87	H	-0.370422	-0.667390	-1.024770
