data_functionalizedCrystal
_audit_creation_method	'MofGen! by Chris Wilmer'
_symmetry_space_group_name_H-M	'P1'
_symmetry_Int_Tables_number	1
_symmetry_cell_setting	triclinic
loop_
_symmetry_equiv_pos_as_xyz
  x,y,z
_cell_length_a	8.497365
_cell_length_b	21.395364
_cell_length_c	21.395361
_cell_angle_alpha	89.954341
_cell_angle_beta	90.058682
_cell_angle_gamma	89.965612
loop_
_atom_site_label
_atom_site_type_symbol
_atom_site_fract_x
_atom_site_fract_y
_atom_site_fract_z
Zn1	Zn	-0.891956	0.957920	0.249031
Zn2	Zn	-0.628125	0.957805	0.353859
Zn3	Zn	-0.628174	0.853117	0.249127
Zn4	Zn	-0.891848	0.853104	0.353802
O5	O	-0.760026	0.905487	0.301455
O6	O	-0.856983	1.045583	0.262921
O7	O	-0.407369	0.943875	0.340030
O8	O	-0.663231	0.867073	0.161436
O9	O	-0.663147	1.045498	0.339937
O10	O	-0.857031	0.944072	0.161366
O11	O	-0.407405	0.866961	0.263083
O12	O	-0.663127	0.765438	0.263028
O13	O	-1.112625	0.867051	0.339841
O14	O	-0.856847	0.765428	0.339933
O15	O	-1.112704	0.944059	0.262866
O16	O	-0.663042	0.943862	0.441530
O17	O	-0.856799	0.866939	0.441488
C18	C	-0.759982	0.742699	0.301485
C19	C	-0.760000	0.673058	0.301514
C20	C	-0.861086	0.640411	0.261477
C21	C	-0.861092	0.574976	0.261460
C22	C	-0.760029	0.542189	0.301491
C23	C	-0.658923	0.574844	0.341531
C24	C	-0.658909	0.640278	0.341542
C25	C	-0.747337	0.438464	0.357919
C26	C	-0.747363	0.373031	0.357909
C27	C	-0.760064	0.340369	0.301457
C28	C	-0.772773	0.373147	0.245013
C29	C	-0.772758	0.438581	0.245024
C30	C	-0.760032	0.471237	0.301484
C31	C	-0.861162	0.236770	0.261398
C32	C	-0.861157	0.171333	0.261381
C33	C	-0.658996	0.171202	0.341458
C34	C	-0.658993	0.236638	0.341470
C35	C	-0.760084	0.269417	0.301441
C36	C	-0.759938	0.905404	0.464243
C37	C	-0.759953	0.905426	0.533884
C38	C	-0.350146	0.905441	0.301523
C39	C	-0.171502	0.905531	0.301395
C40	C	-0.760071	1.068910	0.301425
C41	C	-0.760091	1.138551	0.301412
C42	C	-0.760148	0.905587	0.138032
C43	C	-0.760201	0.905629	0.068390
C44	C	-0.659168	0.945515	0.566598
C45	C	-0.659203	0.945544	0.632033
C46	C	-0.760007	0.905473	0.664752
C47	C	-0.860813	0.865381	0.632030
C48	C	-0.860786	0.865357	0.566596
C49	C	-0.772370	0.849059	0.768479
C50	C	-0.772386	0.849082	0.833912
C51	C	-0.760100	0.905546	0.866573
C52	C	-0.747765	0.961989	0.833793
C53	C	-0.747738	0.961966	0.768359
C54	C	-0.760049	0.905494	0.735704
C55	C	-0.659347	0.945670	0.970239
C56	C	-0.659393	0.945700	1.035676
C57	C	-0.860995	0.865531	1.035672
C58	C	-0.860957	0.865507	0.970236
C59	C	-0.760124	0.905575	0.937524
H60	H	-0.576708	0.144508	0.374052
H61	H	-0.942859	0.832711	0.539960
H62	H	-0.737022	0.346348	0.403869
H63	H	-0.736993	0.465053	0.403893
F64	F	-0.968746	0.136588	0.218763
H65	H	-0.783101	0.465267	0.199065
H66	H	-0.943467	0.263460	0.228801
H67	H	-0.943402	0.667096	0.228882
F68	F	-0.968684	0.540224	0.218844
F69	F	-0.551358	0.539950	0.384133
F70	F	-0.734675	1.022087	0.868548
H71	H	-0.576590	0.666858	0.374146
H72	H	-0.576684	0.263219	0.374075
H73	H	-0.943019	0.832860	0.943599
F74	F	-0.785509	0.789010	0.868792
H75	H	-0.783115	0.346555	0.199044
H76	H	-0.782381	0.803075	0.741893
F77	F	-0.552128	0.988375	1.070492
H78	H	-0.577248	0.978298	0.943604
H79	H	-0.942891	0.832756	0.658674
F80	F	-0.551870	0.988167	0.531787
H81	H	-0.577131	0.978192	0.658674
F82	F	-0.734620	1.022036	0.733474
H83	H	-0.943079	0.832907	1.062311
