data_functionalizedCrystal
_audit_creation_method	'MofGen! by Chris Wilmer'
_symmetry_space_group_name_H-M	'P1'
_symmetry_Int_Tables_number	1
_symmetry_cell_setting	triclinic
loop_
_symmetry_equiv_pos_as_xyz
  x,y,z
_cell_length_a	6.817900
_cell_length_b	17.982783
_cell_length_c	10.992410
_cell_angle_alpha	94.193689
_cell_angle_beta	108.764651
_cell_angle_gamma	102.448572
loop_
_atom_site_label
_atom_site_type_symbol
_atom_site_fract_x
_atom_site_fract_y
_atom_site_fract_z
V1	V	-4.082273	-0.105412	-0.401126
O2	O	-4.073913	0.005065	-0.392942
O3	O	-4.028425	-0.209014	-0.398911
O4	O	-4.060357	-0.103790	-0.575831
O5	O	-4.041760	-0.100887	-0.214797
V6	V	-4.563175	-0.092198	-0.378776
O7	O	-4.349280	-0.134399	-0.450154
O8	O	-4.746365	-0.063211	-0.329748
O9	O	-4.393816	0.011405	-0.380991
O10	O	-4.688932	-0.202675	-0.386960
O11	O	-4.721085	-0.096723	-0.565105
O12	O	-4.361884	-0.093819	-0.204072
C13	C	-3.871244	-0.234270	-0.392719
C14	C	-3.908680	-0.318966	-0.392072
C15	C	-3.868757	-0.347876	-0.274055
C16	C	-3.903953	-0.427458	-0.273451
C17	C	-3.979058	-0.478128	-0.390866
C18	C	-4.018990	-0.449214	-0.508893
C19	C	-3.983808	-0.369633	-0.509495
C20	C	-4.160877	-0.770152	-0.506465
C21	C	-4.196051	-0.849736	-0.505853
C22	C	-4.081022	-0.827976	-0.270421
C23	C	-4.045840	-0.748396	-0.271024
C24	C	-4.085785	-0.719489	-0.389050
C25	C	-4.047625	-0.633197	-0.389703
C26	C	-4.017204	-0.564418	-0.390214
C27	C	-3.911974	-0.100046	-0.618396
C28	C	-3.975303	-0.099406	-0.761221
C29	C	-3.844195	-0.093573	-0.956315
C30	C	-3.778348	-0.094554	-0.807837
C31	C	-4.150532	-0.174527	-0.838706
C32	C	-4.215047	-0.173863	-0.987269
C33	C	-4.136937	-0.028401	-0.948501
C34	C	-4.066336	-0.028045	-0.799486
C35	C	-4.214339	0.036657	-0.387180
C36	C	-4.156142	0.121352	-0.387835
C37	C	-4.173608	-0.097566	-0.161499
C38	C	-4.089517	-0.098202	-0.018673
H39	H	-4.080158	-0.490476	-0.604495
H40	H	-3.804045	-0.143726	-1.004561
H41	H	-4.048508	-0.851522	-0.174318
Br42	Br	-4.215075	-0.730930	-0.666643
Br43	Br	-4.398017	-0.184969	-0.790764
Br44	Br	-3.943895	-0.679632	-0.111669
Br45	Br	-3.766805	-0.279116	-0.114696
H46	H	-3.871446	-0.450992	-0.177350
H47	H	-3.646277	-0.040539	-0.754223
Br48	Br	-4.297972	-0.918504	-0.665213
Br49	Br	-4.038014	-0.330398	-0.669669
H50	H	-3.743490	-0.039186	-0.974869
H51	H	-3.705743	-0.145404	-0.783279
H52	H	-4.183453	-0.226715	-1.033807
H53	H	-4.395067	-0.180395	-1.029933
H54	H	-4.088699	-0.227509	-0.813368
H55	H	-4.051327	0.028645	-0.968571
H56	H	-4.315093	-0.031131	-0.989355
Br57	Br	-3.855665	0.064582	-0.711765
H58	H	-4.208717	-0.027162	-0.766970
