data_functionalizedCrystal
_audit_creation_method	'MofGen! by Chris Wilmer'
_symmetry_space_group_name_H-M	'P1'
_symmetry_Int_Tables_number	1
_symmetry_cell_setting	triclinic
loop_
_symmetry_equiv_pos_as_xyz
  x,y,z
_cell_length_a	12.811457
_cell_length_b	14.044190
_cell_length_c	12.503584
_cell_angle_alpha	93.840024
_cell_angle_beta	91.883523
_cell_angle_gamma	88.597539
loop_
_atom_site_label
_atom_site_type_symbol
_atom_site_fract_x
_atom_site_fract_y
_atom_site_fract_z
O1	O	1.401690	0.130596	0.047204
O2	O	1.901690	0.630596	0.547204
O3	O	1.099238	0.142684	0.017739
O4	O	1.599238	0.642684	0.517739
O5	O	1.245919	-0.001389	0.032050
O6	O	1.745919	0.498611	0.532050
O7	O	1.255009	0.274668	0.032893
O8	O	1.755009	0.774668	0.532893
O9	O	1.234889	0.009466	0.209616
O10	O	1.734889	0.509466	0.709616
O11	O	1.088208	0.153539	0.195305
O12	O	1.588208	0.653539	0.695305
O13	O	1.390660	0.141451	0.224770
O14	O	1.890660	0.641451	0.724770
Cu15	Cu	1.238427	0.148486	0.226250
Cu16	Cu	1.738427	0.648486	0.726250
Cu17	Cu	1.251471	0.135649	0.016258
Cu18	Cu	1.751471	0.635649	0.516258
O19	O	1.243979	0.285523	0.210459
O20	O	1.743979	0.785523	0.710459
C21	C	1.054782	0.147101	0.102729
C22	C	1.554782	0.647101	0.602729
C23	C	0.938749	0.144080	0.091425
C24	C	1.438749	0.644080	0.591425
C25	C	0.708682	0.150222	0.263789
C26	C	1.208682	0.650222	0.763789
C27	C	0.599658	0.147383	0.253175
C28	C	1.099658	0.647383	0.753175
C29	C	0.611675	0.135559	0.059582
C30	C	1.111675	0.635559	0.559582
C31	C	0.720699	0.138397	0.070197
C32	C	1.220699	0.638397	0.570197
C33	C	0.769198	0.145730	0.172304
C34	C	1.269198	0.645730	0.672304
C35	C	0.878224	0.148575	0.182918
C36	C	1.378224	0.648575	0.682918
C37	C	0.890239	0.136744	-0.010674
C38	C	1.390239	0.636744	0.489326
C39	C	0.781215	0.133906	-0.021289
C40	C	1.281215	0.633906	0.478711
C41	C	1.236429	-0.031315	0.120449
C42	C	1.736429	0.468685	0.620449
C43	C	1.224570	-0.136658	0.119303
C44	C	1.724570	0.363342	0.619303
C45	C	1.286994	-0.386328	0.125342
C46	C	1.786994	0.113672	0.625342
C47	C	1.202910	-0.329533	0.117158
C48	C	1.702910	0.170467	0.617158
C49	C	1.214964	-0.222207	0.118352
C50	C	1.714964	0.277793	0.618352
C51	C	1.274941	-0.493663	0.124149
C52	C	1.774941	0.006337	0.624149
C53	C	1.435116	0.137033	0.139778
C54	C	1.935116	0.637033	0.639778
C55	C	1.551150	0.140053	0.151074
C56	C	2.051150	0.640053	0.651074
C57	C	1.253470	0.315449	0.122058
C58	C	1.753470	0.815449	0.622058
C59	C	1.265329	0.420792	0.123197
C60	C	1.765329	0.920792	0.623197
N61	N	1.229260	0.157514	0.373948
N62	N	1.729260	0.657514	0.873948
C63	C	1.215775	0.170804	0.591748
C64	C	1.715775	0.670804	1.091748
C65	C	1.274125	0.113336	0.650768
C66	C	1.774125	0.613336	1.150768
C67	C	1.266622	0.120730	0.771959
C68	C	1.766622	0.620730	1.271959
C69	C	1.223277	0.163411	0.470546
C70	C	1.723277	0.663411	0.970546
N71	N	1.260643	0.126622	0.868561
N72	N	1.760643	0.626622	1.368561
H73	H	0.748171	0.156205	0.346929
H74	H	1.248171	0.656205	0.846929
H75	H	1.368027	-0.354350	0.133247
H76	H	1.868027	0.145650	0.633247
C77	C	0.598736	0.159364	0.445597
C78	C	1.098736	0.659364	0.945597
C79	C	0.533137	0.152327	0.353738
C80	C	1.033137	0.652327	0.853738
H81	H	0.557666	0.162421	0.507682
H82	H	1.057666	0.662421	1.007682
H83	H	0.644319	0.105015	0.445990
H84	H	1.144319	0.605015	0.945990
H85	H	0.638699	0.215440	0.445422
H86	H	1.138699	0.715440	0.945422
H87	H	0.493179	0.096247	0.353908
H88	H	0.993179	0.596247	0.853908
H89	H	0.487536	0.206681	0.353345
H90	H	0.987536	0.706681	0.853345
C91	C	0.449878	0.125945	-0.042637
C92	C	0.949878	0.625945	0.457363
C93	C	0.558351	0.127492	-0.052647
C94	C	1.058351	0.627492	0.447353
H95	H	0.416960	0.120970	-0.111924
H96	H	0.916960	0.620970	0.388076
H97	H	0.432372	0.072701	-0.004328
H98	H	0.932372	0.572701	0.495672
H99	H	0.426737	0.183126	-0.004884
H100	H	0.926737	0.683126	0.495116
H101	H	0.581494	0.070308	-0.090393
H102	H	1.081494	0.570308	0.409607
H103	H	0.575866	0.180742	-0.090972
H104	H	1.075866	0.680742	0.409028
H105	H	0.939523	0.133092	-0.085169
H106	H	1.439523	0.633092	0.414831
C107	C	1.068023	0.197700	0.704005
C108	C	1.568023	0.697700	1.204005
C109	C	1.140743	0.244720	0.646404
C110	C	1.640743	0.744720	1.146404
H111	H	1.021710	0.243336	0.737762
H112	H	1.521710	0.743336	1.237762
H113	H	1.029384	0.155278	0.656379
H114	H	1.529384	0.655278	1.156379
H115	H	1.103662	0.162611	0.756951
H116	H	1.603662	0.662611	1.256951
H117	H	1.105105	0.279804	0.593452
H118	H	1.605105	0.779804	1.093452
H119	H	1.179387	0.287158	0.694034
H120	H	1.679387	0.787158	1.194034
H121	H	1.121870	-0.361512	0.109257
H122	H	1.621870	0.138488	0.609257
H123	H	1.329715	0.058584	0.610279
H124	H	1.829715	0.558584	1.110279
H125	H	0.741712	0.127931	-0.104422
H126	H	1.241712	0.627931	0.395578
C127	C	0.998013	0.077235	0.307568
C128	C	1.498013	0.577235	0.807568
C129	C	0.931543	0.156631	0.295149
C130	C	1.431543	0.656631	0.795149
H131	H	1.030931	0.082212	0.376855
H132	H	1.530931	0.582212	0.876855
H133	H	0.958544	0.020681	0.299683
H134	H	1.458544	0.520681	0.799683
H135	H	1.049655	0.074979	0.254596
H136	H	1.549655	0.574979	0.754596
H137	H	0.879895	0.158884	0.348117
H138	H	1.379895	0.658884	0.848117
H139	H	0.971014	0.213201	0.303045
H140	H	1.471014	0.713201	0.803045
