data_functionalizedCrystal
_audit_creation_method	'MofGen! by Chris Wilmer'
_symmetry_space_group_name_H-M	'P1'
_symmetry_Int_Tables_number	1
_symmetry_cell_setting	triclinic
loop_
_symmetry_equiv_pos_as_xyz
  x,y,z
_cell_length_a	14.971482
_cell_length_b	14.971494
_cell_length_c	13.448316
_cell_angle_alpha	90.004885
_cell_angle_beta	90.006202
_cell_angle_gamma	83.615083
loop_
_atom_site_label
_atom_site_type_symbol
_atom_site_fract_x
_atom_site_fract_y
_atom_site_fract_z
O1	O	1.186953	0.116548	0.082675
O2	O	1.520286	0.449882	0.416008
O3	O	1.853620	0.783215	0.749342
O4	O	0.926553	0.130511	0.082679
O5	O	1.259886	0.463844	0.416013
O6	O	1.593219	0.797177	0.749346
O7	O	1.063728	-0.006670	0.082675
O8	O	1.397062	0.326663	0.416008
O9	O	1.730395	0.659997	0.749342
O10	O	1.049777	0.253729	0.082680
O11	O	1.383111	0.587063	0.416013
O12	O	1.716444	0.920396	0.749346
O13	O	1.063711	-0.006679	-0.082709
O14	O	1.397044	0.326655	0.250624
O15	O	1.730378	0.659988	0.583958
O16	O	0.926536	0.130502	-0.082704
O17	O	1.259869	0.463836	0.250629
O18	O	1.593202	0.797169	0.583962
O19	O	1.186936	0.116540	-0.082709
O20	O	1.520269	0.449873	0.250625
O21	O	1.853602	0.783207	0.583958
Cu22	Cu	1.056734	0.123520	-0.097807
Cu23	Cu	1.390067	0.456854	0.235526
Cu24	Cu	1.723401	0.790187	0.568859
Cu25	Cu	1.056754	0.123530	0.097778
Cu26	Cu	1.390088	0.456864	0.431111
Cu27	Cu	1.723421	0.790197	0.764445
O28	O	1.049760	0.253721	-0.082704
O29	O	1.383093	0.587054	0.250629
O30	O	1.716427	0.920387	0.583962
C31	C	0.893219	0.129883	-0.000012
C32	C	1.226553	0.463216	0.333321
C33	C	1.559886	0.796549	0.666655
C34	C	0.793922	0.128013	-0.000010
C35	C	1.127255	0.461347	0.333323
C36	C	1.460589	0.794680	0.666657
C37	C	0.747268	0.127128	-0.090162
C38	C	1.080601	0.460462	0.243171
C39	C	1.413935	0.793795	0.576505
C40	C	0.653969	0.125357	-0.090163
C41	C	0.987303	0.458691	0.243170
C42	C	1.320636	0.792024	0.576504
C43	C	0.607326	0.124478	-0.000011
C44	C	0.940659	0.457811	0.333322
C45	C	1.273993	0.791145	0.666655
C46	C	0.653987	0.125361	0.090148
C47	C	0.987320	0.458694	0.423481
C48	C	1.320653	0.792027	0.756814
C49	C	0.747284	0.127125	0.090148
C50	C	1.080618	0.460458	0.423481
C51	C	1.413951	0.793792	0.756814
C52	C	0.459525	0.121685	0.090141
C53	C	0.792858	0.455019	0.423474
C54	C	1.126191	0.788352	0.756808
C55	C	0.366220	0.119923	0.090141
C56	C	0.699554	0.453256	0.423475
C57	C	1.032887	0.786589	0.756808
C58	C	0.366210	0.119918	-0.090170
C59	C	0.699543	0.453251	0.243164
C60	C	1.032876	0.786584	0.576497
C61	C	0.459507	0.121682	-0.090169
C62	C	0.792841	0.455015	0.243164
C63	C	1.126174	0.788349	0.576497
C64	C	0.506162	0.122566	-0.000010
C65	C	0.839495	0.455899	0.333323
C66	C	1.172828	0.789233	0.666656
C67	C	1.063094	-0.039999	-0.000015
C68	C	1.396428	0.293334	0.333318
C69	C	1.729761	0.626668	0.666651
C70	C	1.061221	-0.139296	-0.000011
C71	C	1.394554	0.194038	0.333323
C72	C	1.727887	0.527371	0.666656
C73	C	1.220269	0.117168	-0.000015
C74	C	1.553602	0.450501	0.333318
C75	C	1.886936	0.783835	0.666651
C76	C	1.319566	0.119037	-0.000010
C77	C	1.652900	0.452371	0.333323
C78	C	1.986233	0.785704	0.666656
C79	C	1.060352	-0.185936	0.090141
C80	C	1.393685	0.147398	0.423474
C81	C	1.727019	0.480731	0.756808
C82	C	1.058586	-0.279235	0.090142
C83	C	1.391919	0.054099	0.423476
C84	C	1.725252	0.387432	0.756809
C85	C	1.057695	-0.325893	-0.000009
C86	C	1.391028	0.007441	0.333324
C87	C	1.724361	0.340774	0.666657
C88	C	1.058561	-0.279246	-0.090168
C89	C	1.391894	0.054088	0.243165
C90	C	1.725227	0.387421	0.576498
C91	C	1.060321	-0.185948	-0.090168
C92	C	1.393654	0.147386	0.243165
C93	C	1.726987	0.480719	0.576498
C94	C	1.054895	-0.473709	-0.090161
C95	C	1.388228	-0.140376	0.243172
C96	C	1.721561	0.192958	0.576505
C97	C	1.053137	-0.567014	-0.090162
C98	C	1.386470	-0.233680	0.243172
C99	C	1.719803	0.099653	0.576505
C100	C	1.053160	-0.566996	0.090149
C101	C	1.386493	-0.233663	0.423483
C102	C	1.719826	0.099671	0.756816
C103	C	1.054920	-0.473698	0.090149
C104	C	1.388253	-0.140364	0.423482
C105	C	1.721586	0.192969	0.756816
C106	C	1.055787	-0.427057	-0.000010
C107	C	1.389121	-0.093724	0.333323
C108	C	1.722454	0.239609	0.666657
C109	C	1.050394	0.287050	-0.000012
C110	C	1.383727	0.620383	0.333322
C111	C	1.717061	0.953716	0.666655
C112	C	1.052268	0.386346	-0.000010
C113	C	1.385601	0.719680	0.333324
C114	C	1.718934	1.053013	0.666657
N115	N	1.056726	0.123513	-0.235372
N116	N	1.390060	0.456846	0.097962
N117	N	1.723393	0.790179	0.431295
C118	C	1.117486	0.062794	-0.287414
C119	C	1.450820	0.396127	0.045919
C120	C	1.784153	0.729461	0.379253
C121	C	1.117492	0.062793	-0.391517
C122	C	1.450825	0.396127	-0.058184
C123	C	1.784159	0.729460	0.275149
C124	C	1.056741	0.123516	-0.443576
C125	C	1.390074	0.456850	-0.110243
C126	C	1.723408	0.790183	0.223090
C127	C	0.995974	0.184238	-0.391527
C128	C	1.329308	0.517571	-0.058193
C129	C	1.662641	0.850904	0.275140
C130	C	0.995965	0.184234	-0.287425
C131	C	1.329298	0.517567	0.045908
C132	C	1.662632	0.850900	0.379241
C133	C	0.995999	0.184244	-0.608507
C134	C	1.329332	0.517577	-0.275173
C135	C	1.662666	0.850911	0.058160
C136	C	0.996009	0.184250	-0.712615
C137	C	1.329342	0.517583	-0.379282
C138	C	1.662676	0.850916	-0.045949
C139	C	1.117526	0.062804	-0.712599
C140	C	1.450859	0.396137	-0.379265
C141	C	1.784193	0.729470	-0.045932
C142	C	1.117517	0.062799	-0.608497
C143	C	1.450850	0.396133	-0.275164
C144	C	1.784184	0.729466	0.058169
C145	C	1.056751	0.123522	-0.556455
C146	C	1.390084	0.456856	-0.223122
C147	C	1.723418	0.790189	0.110212
N148	N	1.056769	0.123531	0.235342
N149	N	1.390103	0.456864	0.568676
N150	N	1.723436	0.790198	0.902009
H151	H	0.497508	0.122405	0.163558
H152	H	0.830841	0.455739	0.496892
H153	H	1.164174	0.789072	0.830225
H154	H	1.055582	-0.435735	-0.163579
H155	H	1.388915	-0.102401	0.169755
H156	H	1.722249	0.230932	0.503088
H157	H	1.057882	-0.317205	0.163553
H158	H	1.391215	0.016128	0.496886
H159	H	1.724549	0.349461	0.830220
H160	H	1.057830	-0.317241	-0.163571
H161	H	1.391163	0.016092	0.169762
H162	H	1.724496	0.349425	0.503095
Cl163	Cl	0.518143	0.122797	-0.203505
Cl164	Cl	0.851476	0.456131	0.129829
Cl165	Cl	1.184809	0.789464	0.463162
H166	H	0.785269	0.127847	0.163558
H167	H	1.118602	0.461181	0.496892
H168	H	1.451935	0.794514	0.830225
Cl169	Cl	1.061478	-0.127290	0.203482
Cl170	Cl	1.394812	0.206044	0.536815
Cl171	Cl	1.728145	0.539377	0.870148
Cl172	Cl	0.919574	0.260566	-0.222001
Cl173	Cl	1.252907	0.593900	0.111332
Cl174	Cl	1.586240	0.927233	0.444665
H175	H	1.166989	0.013359	-0.566111
H176	H	1.500322	0.346692	-0.232778
H177	H	1.833656	0.680025	0.100556
Cl178	Cl	1.056048	-0.415044	0.203484
Cl179	Cl	1.389382	-0.081711	0.536818
Cl180	Cl	1.722715	0.251623	0.870151
Cl181	Cl	1.052062	-0.625628	0.203492
Cl182	Cl	1.385395	-0.292294	0.536826
Cl183	Cl	1.718728	0.041039	0.870159
Cl184	Cl	1.193917	-0.013531	-0.778027
Cl185	Cl	1.527250	0.319803	-0.444693
Cl186	Cl	1.860584	0.653136	-0.111360
Cl187	Cl	0.307584	0.118815	0.203477
Cl188	Cl	0.640917	0.452148	0.536810
Cl189	Cl	0.974251	0.785481	0.870143
Cl190	Cl	0.919631	0.260589	-0.778053
Cl191	Cl	1.252964	0.593922	-0.444720
Cl192	Cl	1.586297	0.927255	-0.111386
H193	H	1.052403	-0.604999	-0.163571
H194	H	1.385737	-0.271666	0.169762
H195	H	1.719070	0.061667	0.503096
H196	H	0.785238	0.127852	-0.163574
H197	H	1.118571	0.461185	0.169759
H198	H	1.451904	0.794518	0.503093
H199	H	0.946514	0.233688	-0.566137
H200	H	1.279847	0.567021	-0.232804
H201	H	1.613181	0.900355	0.100530
H202	H	0.615990	0.124622	-0.163574
H203	H	0.949323	0.457955	0.169760
H204	H	1.282656	0.791288	0.503093
Cl205	Cl	1.061412	-0.127314	-0.203507
Cl206	Cl	1.394745	0.206019	0.129826
Cl207	Cl	1.728078	0.539353	0.463160
H208	H	0.616003	0.124638	0.163551
H209	H	0.949336	0.457972	0.496884
H210	H	1.282670	0.791305	0.830217
H211	H	1.166961	0.013350	-0.245034
H212	H	1.500294	0.346684	0.088299
H213	H	1.833627	0.680017	0.421632
Cl214	Cl	0.919596	0.260573	-0.456970
Cl215	Cl	1.252929	0.593906	-0.123637
Cl216	Cl	1.586262	0.927239	0.209697
Cl217	Cl	0.307559	0.118807	-0.203512
Cl218	Cl	0.640893	0.452140	0.129821
Cl219	Cl	0.974226	0.785473	0.463154
Cl220	Cl	1.193877	-0.013541	-0.456944
Cl221	Cl	1.527210	0.319793	-0.123611
Cl222	Cl	1.860543	0.653126	0.209723
