data_functionalizedCrystal
_audit_creation_method	'MofGen! by Chris Wilmer'
_symmetry_space_group_name_H-M	'P1'
_symmetry_Int_Tables_number	1
_symmetry_cell_setting	triclinic
loop_
_symmetry_equiv_pos_as_xyz
  x,y,z
_cell_length_a	12.503572
_cell_length_b	14.044220
_cell_length_c	14.044220
_cell_angle_alpha	93.188878
_cell_angle_beta	93.843168
_cell_angle_gamma	86.164750
loop_
_atom_site_label
_atom_site_type_symbol
_atom_site_fract_x
_atom_site_fract_y
_atom_site_fract_z
O1	O	0.089210	-1.282200	-0.225116
O2	O	0.589210	-0.782200	0.274884
O3	O	0.089237	-1.005530	-0.216809
O4	O	0.589237	-0.505530	0.283191
O5	O	0.089213	-1.139712	-0.082627
O6	O	0.589213	-0.639712	0.417373
O7	O	0.089234	-1.148019	-0.359298
O8	O	0.589234	-0.648019	0.140702
O9	O	-0.089427	-1.129622	-0.092737
O10	O	0.410573	-0.629622	0.407263
O11	O	-0.089403	-0.995440	-0.226918
O12	O	0.410597	-0.495440	0.273082
O13	O	-0.089430	-1.272110	-0.235226
O14	O	0.410570	-0.772110	0.264774
Cu15	Cu	-0.105728	-1.132854	-0.231995
Cu16	Cu	0.394272	-0.632854	0.268005
Cu17	Cu	0.105535	-1.144786	-0.220040
Cu18	Cu	0.605535	-0.644786	0.279960
O19	O	-0.089406	-1.137929	-0.369407
O20	O	0.410594	-0.637929	0.130593
C21	C	-0.000080	-0.964864	-0.218228
C22	C	0.499920	-0.464864	0.281772
C23	C	-0.000070	-0.858721	-0.207383
C24	C	0.499930	-0.358721	0.292617
N25	N	-0.254319	-1.124469	-0.240404
N26	N	0.245681	-0.624469	0.259596
C27	C	-0.000107	-1.131031	-0.052060
C28	C	0.499893	-0.631031	0.447940
C29	C	-0.000107	-1.120187	0.054082
C30	C	0.499893	-0.620187	0.554082
C31	C	-0.473432	-1.112134	-0.252782
C32	C	0.026568	-0.612134	0.247218
C33	C	-0.526768	-1.165511	-0.199249
C34	C	-0.026768	-0.665511	0.300751
C35	C	-0.648690	-1.158648	-0.206136
C36	C	-0.148690	-0.658648	0.293864
C37	C	-0.351499	-1.118996	-0.245896
C38	C	0.148501	-0.618996	0.254104
N39	N	0.254126	-1.153179	-0.211624
N40	N	0.754126	-0.653179	0.288376
C41	C	-0.000111	-1.312777	-0.233807
C42	C	0.499889	-0.812777	0.266193
C43	C	-0.000114	-1.418920	-0.244651
C44	C	0.499886	-0.918920	0.255349
C45	C	-0.000092	-0.664382	-0.187558
C46	C	0.499908	-0.164382	0.312442
C47	C	-0.000091	-0.613253	-0.264472
C48	C	0.499909	-0.113253	0.235528
C49	C	-0.000104	-0.505116	-0.253441
C50	C	0.499896	-0.005116	0.246559
C51	C	-0.000080	-0.772529	-0.198587
C52	C	0.499920	-0.272529	0.301413
C53	C	-0.000084	-1.146609	-0.399974
C54	C	0.499916	-0.646609	0.100026
C55	C	-0.000077	-1.157454	-0.506117
C56	C	0.499923	-0.657454	-0.006117
C57	C	-0.000090	-1.100361	0.248421
C58	C	0.499910	-0.600361	0.748421
C59	C	-0.000094	-1.177275	0.299551
C60	C	0.499906	-0.677275	0.799551
C61	C	-0.000084	-1.166244	0.407687
C62	C	0.499916	-0.666244	0.907687
C63	C	-0.000099	-1.111391	0.140274
C64	C	0.499901	-0.611391	0.640274
H65	H	-0.519330	-1.061285	-0.303783
H66	H	-0.019330	-0.561285	0.196217
O67	O	-0.472181	-1.226204	-0.138325
O68	O	0.027819	-0.726204	0.361675
C69	C	-0.545785	-1.274508	-0.089926
C70	C	-0.045785	-0.774508	0.410074
H71	H	-0.625984	-1.230824	-0.090035
H72	H	-0.125984	-0.730824	0.409965
H73	H	-0.513191	-1.284319	-0.013090
H74	H	-0.013191	-0.784319	0.486910
H75	H	-0.557697	-1.347440	-0.127512
H76	H	-0.057697	-0.847440	0.372488
H77	H	-0.000104	-0.626945	-0.113431
H78	H	0.499896	-0.126945	0.386569
H79	H	-0.000029	-1.251413	0.262115
H80	H	0.499971	-0.751413	0.762115
O81	O	-0.000255	-0.657863	-0.352942
O82	O	0.499745	-0.157863	0.147058
C83	C	-0.092750	-0.625909	-0.408088
C84	C	0.407250	-0.125909	0.091912
H85	H	-0.157437	-0.597123	-0.358672
H86	H	0.342563	-0.097123	0.141328
H87	H	-0.123780	-0.687995	-0.455462
H88	H	0.376220	-0.187995	0.044538
H89	H	-0.071829	-0.566772	-0.454722
H90	H	0.428171	-0.066772	0.045278
H91	H	-0.000080	-1.026234	0.285859
H92	H	0.499920	-0.526234	0.785859
