data_functionalizedCrystal
_audit_creation_method	'MofGen! by Chris Wilmer'
_symmetry_space_group_name_H-M	'P1'
_symmetry_Int_Tables_number	1
_symmetry_cell_setting	triclinic
loop_
_symmetry_equiv_pos_as_xyz
  x,y,z
_cell_length_a	11.169417
_cell_length_b	21.295417
_cell_length_c	11.169409
_cell_angle_alpha	90.041341
_cell_angle_beta	90.020564
_cell_angle_gamma	90.031386
loop_
_atom_site_label
_atom_site_type_symbol
_atom_site_fract_x
_atom_site_fract_y
_atom_site_fract_z
Zn1	Zn	1.834803	-0.250544	0.678467
Zn2	Zn	1.834619	-0.355832	0.477752
Zn3	Zn	1.634086	-0.250582	0.477802
Zn4	Zn	1.634026	-0.355781	0.678397
O5	O	1.734383	-0.303185	0.578105
O6	O	2.002728	-0.264516	0.651851
O7	O	1.807966	-0.341908	0.309809
O8	O	1.660814	-0.162488	0.504470
O9	O	2.002593	-0.341871	0.504386
O10	O	1.808280	-0.162460	0.651898
O11	O	1.660636	-0.264581	0.309845
O12	O	1.466128	-0.264532	0.504402
O13	O	1.660711	-0.341783	0.846356
O14	O	1.466084	-0.341821	0.651779
O15	O	1.808221	-0.264466	0.846408
O16	O	1.807908	-0.443915	0.504318
O17	O	1.660533	-0.443877	0.651731
C18	C	1.422559	-0.303175	0.578089
C19	C	1.289159	-0.303186	0.578111
C20	C	1.734226	-0.466736	0.578038
C21	C	1.734269	-0.536704	0.578050
C22	C	1.811075	-0.569570	0.501371
C23	C	1.811131	-0.635312	0.501398
C24	C	1.734360	-0.668187	0.578091
C25	C	1.657548	-0.635314	0.654785
C26	C	1.657502	-0.569572	0.654765
N27	N	1.629370	-0.771453	0.587235
N28	N	1.629416	-0.833904	0.587248
C29	C	1.734494	-0.866262	0.578160
N30	N	1.839526	-0.833808	0.569035
N31	N	1.839478	-0.771351	0.569016
C32	C	1.734401	-0.739472	0.578123
C33	C	1.811368	-0.970412	0.501506
C34	C	1.811426	-1.036156	0.501541
C35	C	1.657832	-1.036156	0.654923
C36	C	1.657785	-0.970414	0.654894
C37	C	1.734551	-0.937546	0.578179
C38	C	2.047426	-0.303195	0.578121
C39	C	2.180826	-0.303199	0.578128
C40	C	1.734480	-0.303115	0.891147
C41	C	1.734521	-0.303085	1.024547
C42	C	1.734574	-0.138994	0.578198
C43	C	1.734655	-0.069026	0.578237
C44	C	1.734357	-0.303209	0.266280
C45	C	1.734548	-0.303061	0.132880
H46	H	1.873585	-0.542810	0.438908
H47	H	1.595237	-0.943653	0.717328
C48	C	1.894591	-0.934608	0.418277
C49	C	1.878085	-0.870000	0.434641
C50	C	1.954718	-0.837000	0.357982
H51	H	1.975278	-0.945258	0.435843
H52	H	1.877067	-0.945394	0.337600
H53	H	1.895617	-0.859219	0.515300
H54	H	1.797414	-0.859332	0.417067
H55	H	1.937194	-0.847786	0.277304
H56	H	2.035400	-0.847654	0.375554
H57	H	1.943521	-0.793160	0.369067
C58	C	1.574239	-0.671117	0.737922
C59	C	1.590693	-0.735725	0.721505
C60	C	1.513961	-0.768725	0.798065
H61	H	1.591681	-0.660374	0.818622
H62	H	1.493575	-0.660424	0.720274
H63	H	1.671339	-0.746413	0.739161
H64	H	1.573242	-0.746486	0.640820
H65	H	1.433297	-0.758033	0.780417
H66	H	1.531409	-0.757978	0.878761
H67	H	1.525106	-0.812565	0.786929
C68	C	1.894897	-1.071954	0.418536
C69	C	1.878591	-1.136563	0.435052
C70	C	1.955529	-1.169561	0.358673
H71	H	1.877551	-1.061338	0.337788
H72	H	1.975505	-1.061134	0.436287
H73	H	1.798002	-1.147380	0.417292
H74	H	1.895946	-1.147198	0.515783
H75	H	2.036138	-1.158740	0.376424
H76	H	1.938177	-1.158940	0.277930
H77	H	1.944484	-1.213401	0.369876
H78	H	1.595329	-1.062922	0.717374
C79	C	1.894565	-0.670891	0.418004
C80	C	1.961763	-0.628036	0.350798
C81	C	2.038620	-0.660786	0.273952
H82	H	1.946961	-0.696495	0.463827
H83	H	1.848713	-0.696568	0.365621
H84	H	2.007611	-0.602370	0.403174
H85	H	1.909398	-0.602430	0.304950
H86	H	1.992768	-0.686462	0.221569
H87	H	2.091008	-0.686389	0.319785
H88	H	2.084215	-0.631714	0.228335
H89	H	1.594956	-0.542813	0.717208
