data_functionalizedCrystal
_audit_creation_method	'MofGen! by Chris Wilmer'
_symmetry_space_group_name_H-M	'P1'
_symmetry_Int_Tables_number	1
_symmetry_cell_setting	triclinic
loop_
_symmetry_equiv_pos_as_xyz
  x,y,z
_cell_length_a	16.793024
_cell_length_b	16.793047
_cell_length_c	33.586455
_cell_angle_alpha	113.253857
_cell_angle_beta	66.219990
_cell_angle_gamma	112.758327
loop_
_atom_site_label
_atom_site_type_symbol
_atom_site_fract_x
_atom_site_fract_y
_atom_site_fract_z
O1	O	0.005016	-0.570216	-0.583573
O2	O	-0.034529	-0.474528	-0.453458
O3	O	0.114723	-0.474535	-0.528082
O4	O	-0.144235	-0.570209	-0.508949
O5	O	0.108729	-0.346329	-0.530229
O6	O	-0.040523	-0.346322	-0.455605
O7	O	-0.000977	-0.442010	-0.585721
Cu8	Cu	-0.021297	-0.382459	-0.520859
Cu9	Cu	-0.014209	-0.534079	-0.518320
O10	O	-0.150229	-0.442003	-0.511097
C11	C	0.005100	-0.790970	-0.238461
C12	C	0.009223	-0.693065	-0.217557
C13	C	0.003804	-0.645758	-0.241627
C14	C	-0.075059	-0.538459	-0.266316
C15	C	0.049838	-0.422849	-0.250165
C16	C	-0.040584	-0.395375	-0.435637
C17	C	-0.044693	-0.353446	-0.386631
C18	C	-0.039275	-0.401741	-0.363054
C19	C	-0.040566	-0.125547	-0.300731
C20	C	-0.044689	-0.223451	-0.321635
C21	C	-0.039266	-0.270752	-0.297563
C22	C	0.039597	-0.378051	-0.272874
C23	C	-0.085304	-0.493667	-0.289026
C24	C	0.005118	-0.521142	-0.103554
C25	C	0.009231	-0.563064	-0.152559
C26	C	0.003809	-0.514775	-0.176138
C27	C	0.010758	-0.652581	-0.172822
C28	C	0.001010	-0.556371	-0.220792
C29	C	-0.008251	-0.506059	-0.245823
C30	C	-0.046224	-0.263935	-0.366370
C31	C	-0.036476	-0.360146	-0.318399
C32	C	-0.027211	-0.410451	-0.293367
C33	C	0.815184	-0.521162	-0.508596
C34	C	0.415541	-0.125553	-0.528781
C35	C	0.375032	-0.223457	-0.531493
C36	C	0.423813	-0.270761	-0.529101
C37	C	0.149318	-0.395376	-0.530584
C38	C	0.246774	-0.353455	-0.532364
C39	C	0.294574	-0.401748	-0.529976
C40	C	0.548961	-0.790984	-0.510398
C41	C	0.286104	-0.263940	-0.532530
C42	C	0.383336	-0.360149	-0.528302
C43	C	0.432207	-0.407971	-0.525810
C44	C	0.392316	-0.497392	-0.524993
C45	C	0.303554	-0.538991	-0.526667
C46	C	0.254683	-0.491169	-0.529159
C47	C	0.263666	-0.628421	-0.525851
C48	C	0.312537	-0.676243	-0.523359
C49	C	0.401299	-0.634644	-0.521685
C50	C	0.441190	-0.545223	-0.522502
C51	C	0.529952	-0.503624	-0.520828
C52	C	0.578823	-0.551446	-0.518336
C53	C	0.538939	-0.640864	-0.517520
C54	C	0.450177	-0.682463	-0.519194
C55	C	0.587810	-0.688687	-0.515028
C56	C	0.676572	-0.647088	-0.513354
C57	C	0.716463	-0.557666	-0.514172
C58	C	0.667586	-0.509847	-0.516662
C59	C	0.569840	-0.414195	-0.521644
C60	C	0.658602	-0.372596	-0.519970
C61	C	0.707476	-0.420426	-0.517480
C62	C	0.698493	-0.283174	-0.520788
C63	C	0.649622	-0.235352	-0.523280
C64	C	0.560860	-0.276951	-0.524954
C65	C	0.520969	-0.366372	-0.524136
C66	C	0.511989	-0.229129	-0.527446
C67	C	-0.040530	-0.395407	-0.935652
C68	C	0.005063	-0.791004	-0.738448
C69	C	0.009186	-0.693099	-0.717543
C70	C	0.003779	-0.645796	-0.741620
C71	C	0.005077	-0.521171	-0.603544
C72	C	0.009198	-0.563096	-0.652550
C73	C	0.003786	-0.514804	-0.676131
C74	C	-0.040516	-0.125574	-0.800747
C75	C	0.010719	-0.652613	-0.672809
C76	C	0.000994	-0.556406	-0.720789
C77	C	-0.004621	-0.508585	-0.744908
C78	C	-0.007444	-0.419162	-0.724369
C79	C	-0.004651	-0.377560	-0.679711
C80	C	0.000964	-0.425381	-0.655592
C81	C	-0.007471	-0.288129	-0.659174
C82	C	-0.013086	-0.240308	-0.683293
C83	C	-0.015878	-0.281910	-0.727951
C84	C	-0.013056	-0.371333	-0.748490
C85	C	-0.015848	-0.412935	-0.793148
C86	C	-0.021463	-0.365114	-0.817267
C87	C	-0.024282	-0.275694	-0.796731
C88	C	-0.021490	-0.234092	-0.752073
C89	C	-0.029897	-0.227873	-0.820850
C90	C	-0.032690	-0.269476	-0.865508
C91	C	-0.029867	-0.358899	-0.886047
C92	C	-0.024255	-0.406717	-0.861925
C93	C	-0.013028	-0.502367	-0.813685
C94	C	-0.015821	-0.543969	-0.858343
C95	C	-0.021433	-0.496140	-0.882464
C96	C	-0.012998	-0.633392	-0.878882
C97	C	-0.007383	-0.681213	-0.854763
C98	C	-0.004591	-0.639611	-0.810105
C99	C	-0.007414	-0.550188	-0.789566
C100	C	0.001024	-0.687432	-0.785986
O101	O	-0.000965	0.173549	-0.277957
O102	O	-0.040516	-0.085616	-0.325254
O103	O	0.108737	0.059592	-0.327284
O104	O	-0.150219	0.028341	-0.275927
O105	O	0.114753	0.055151	-0.263265
O106	O	-0.034500	-0.090057	-0.261234
O107	O	0.005051	0.169108	-0.213937
Cu108	Cu	-0.014175	0.039120	-0.231740
Cu109	Cu	-0.021290	0.044372	-0.307451
O110	O	-0.144202	0.023900	-0.211907
O111	O	-0.034458	-0.474571	0.046517
O112	O	0.005076	-0.570190	-0.083599
O113	O	-0.144170	-0.570237	-0.008972
O114	O	0.114787	-0.474523	-0.028110
O115	O	-0.150200	-0.442024	-0.011093
O116	O	-0.000954	-0.441976	-0.085720
O117	O	-0.040488	-0.346357	0.044396
Cu118	Cu	-0.021272	-0.382460	-0.020856
Cu119	Cu	-0.014141	-0.534087	-0.018347
O120	O	0.108757	-0.346309	-0.030231
C121	C	-0.850734	0.086244	-0.289716
C122	C	-0.753280	0.087165	-0.312001
C123	C	-0.705462	0.081107	-0.288506
C124	C	-0.599592	0.000085	-0.264184
C125	C	-0.481080	0.121287	-0.283645
C126	C	-0.450996	0.035117	-0.097351
C127	C	-0.410501	0.028587	-0.146852
C128	C	-0.459292	0.034683	-0.169840
C129	C	-0.184802	0.024283	-0.235878
C130	C	-0.282257	0.023363	-0.213592
C131	C	-0.330068	0.029423	-0.237088
C132	C	-0.435938	0.110445	-0.261411
C133	C	-0.554456	-0.010759	-0.241948
C134	C	-0.584541	0.075410	-0.428242
C135	C	-0.625029	0.081943	-0.378743
C136	C	-0.576244	0.075844	-0.355753
C137	C	-0.713963	0.086424	-0.357292
C138	C	-0.616708	0.075351	-0.310510
C139	C	-0.565963	0.065400	-0.286043
C140	C	-0.321573	0.024104	-0.168302
C141	C	-0.418828	0.035176	-0.215083
C142	C	-0.469568	0.045131	-0.239552
O143	O	0.585213	0.169090	-0.504004
O144	O	0.494056	-0.090076	-0.525516
O145	O	0.488081	0.055124	-0.449918
O146	O	0.591189	0.023889	-0.579602
O147	O	0.359978	0.059584	-0.452885
O148	O	0.365953	-0.085616	-0.528483
O149	O	0.457110	0.173550	-0.506971
Cu150	Cu	0.399835	0.044374	-0.517998
Cu151	Cu	0.551332	0.039099	-0.514489
O152	O	0.463086	0.028349	-0.582569
C153	C	0.815354	-0.521094	-0.008709
C154	C	0.717898	-0.563028	-0.006927
C155	C	0.670072	-0.514739	-0.009298
C156	C	0.564182	-0.463204	-0.048354
C157	C	0.445681	-0.498945	0.013847
C158	C	0.415547	-0.125494	-0.028771
C159	C	0.375059	-0.223405	-0.031498
C160	C	0.423859	-0.270708	-0.029121
C161	C	0.149365	-0.395355	-0.030599
C162	C	0.246820	-0.353421	-0.032381
C163	C	0.294640	-0.401713	-0.030008
C164	C	0.400530	-0.453248	0.009048
C165	C	0.519038	-0.417504	-0.053155
C166	C	0.549171	-0.790955	-0.010537
C167	C	0.589653	-0.693047	-0.007809
C168	C	0.540859	-0.645741	-0.010187
C169	C	0.678588	-0.652551	-0.006775
C170	C	0.581317	-0.556344	-0.010973
C171	C	0.530562	-0.506029	-0.015250
C172	C	0.286131	-0.263897	-0.032533
C173	C	0.383402	-0.360104	-0.028335
C174	C	0.434150	-0.410423	-0.024057
O175	O	-0.620614	0.089309	0.052274
O176	O	-0.529507	0.043784	-0.078544
O177	O	-0.523494	0.194833	-0.006033
O178	O	-0.626628	-0.061740	-0.020236
O179	O	-0.395386	0.185419	-0.005549
O180	O	-0.401400	0.034370	-0.078059
O181	O	-0.492507	0.079895	0.052758
Cu182	Cu	-0.435256	0.056273	-0.012607
Cu183	Cu	-0.586758	0.067406	-0.013179
O184	O	-0.498521	-0.071154	-0.019752
C185	C	-0.437537	0.048335	0.402491
C186	C	-0.397043	0.041789	0.352989
C187	C	-0.445822	0.047883	0.329994
C188	C	-0.496646	0.126653	0.277022
C189	C	-0.465894	-0.000633	0.218811
C190	C	-0.837226	0.099430	0.210091
C191	C	-0.739773	0.100339	0.187806
C192	C	-0.691967	0.094287	0.211308
C193	C	-0.571027	0.088563	0.071568
C194	C	-0.611521	0.095108	0.121070
C195	C	-0.562739	0.089011	0.144061
C196	C	-0.511915	0.010241	0.197033
C197	C	-0.542670	0.137531	0.255247
C198	C	-0.171338	0.037467	0.263967
C199	C	-0.268788	0.036555	0.286249
C200	C	-0.316597	0.042611	0.262750
C201	C	-0.308112	0.037305	0.331542
C202	C	-0.405351	0.048369	0.284750
C203	C	-0.456092	0.058317	0.260279
C204	C	-0.700452	0.099593	0.142516
C205	C	-0.603213	0.088528	0.189308
C206	C	-0.552469	0.078578	0.213776
O207	O	-0.040608	-1.085661	-0.825229
O208	O	-0.001018	-0.826491	-0.777938
O209	O	-0.150287	-0.971682	-0.775894
O210	O	0.108661	-0.940470	-0.827272
O211	O	-0.144253	-0.976123	-0.711878
O212	O	0.005016	-0.830932	-0.713922
O213	O	-0.034575	-1.090102	-0.761213
Cu214	Cu	-0.014228	-0.960923	-0.731722
Cu215	Cu	-0.021364	-0.955670	-0.807428
O216	O	0.114695	-0.944911	-0.763256
C217	C	-0.036361	-0.225035	-0.248202
H218	H	-0.032687	-0.266607	-0.236773
H219	H	-0.089641	-0.205912	-0.230148
H220	H	0.015049	-0.174386	-0.247235
C221	C	0.000820	-0.416001	-0.153225
H222	H	0.003283	-0.398334	-0.123069
H223	H	-0.053682	-0.410099	-0.152653
H224	H	0.051004	-0.378636	-0.169810
C225	C	0.105121	-0.285330	-0.276756
H226	H	0.148412	-0.269322	-0.261526
H227	H	0.072183	-0.241513	-0.263307
H228	H	0.135211	-0.287961	-0.307837
C229	C	0.250183	-0.500527	-0.029237
H230	H	0.190111	-0.518206	-0.030594
H231	H	0.249113	-0.506526	-0.002048
H232	H	0.283896	-0.537815	-0.054602
C233	C	0.733145	-0.706463	-0.005373
H234	H	0.792210	-0.669078	-0.004785
H235	H	0.737093	-0.756887	-0.031532
H236	H	0.703793	-0.726672	0.021072
H237	H	-0.518447	0.052455	0.347905
C238	C	-0.694184	-0.062942	-0.265887
H239	H	-0.716319	-0.046461	-0.282639
H240	H	-0.734059	-0.057926	-0.235905
H241	H	-0.690524	-0.123325	-0.280175
H242	H	0.013390	-0.692483	-0.152899
C243	C	0.714533	-0.415928	-0.010074
H244	H	0.672741	-0.392963	-0.011742
H245	H	0.766528	-0.412578	-0.035752
H246	H	0.731746	-0.381277	0.016802
C247	C	-0.267024	0.019799	-0.142088
H248	H	-0.303617	0.020918	-0.111799
H249	H	-0.215164	0.070054	-0.141859
H250	H	-0.248651	-0.034245	-0.156431
C251	C	0.000897	-0.691485	-0.290987
H252	H	0.003365	-0.751862	-0.299852
H253	H	0.051105	-0.659645	-0.310323
H254	H	-0.053585	-0.691174	-0.293235
H255	H	-0.015274	-0.667410	-0.915397
H256	H	0.107243	-0.392097	-0.234140
C257	C	-0.423142	-0.079885	0.197471
H258	H	-0.435117	-0.114491	0.169294
H259	H	-0.448255	-0.116732	0.217322
H260	H	-0.359670	-0.057319	0.192624
H261	H	0.771070	-0.249160	-0.519423
H262	H	0.468233	-0.679598	-0.011487
H263	H	-0.047834	-0.232081	-0.882358
C264	C	-0.004269	-0.779985	-0.877445
H265	H	-0.000516	-0.802602	-0.856598
H266	H	0.047147	-0.783388	-0.903454
H267	H	-0.057532	-0.814904	-0.886269
C268	C	-0.253569	0.033008	0.357762
H269	H	-0.290164	0.034135	0.388051
H270	H	-0.201708	0.083261	0.357988
H271	H	-0.235198	-0.021038	0.343423
C272	C	0.004048	-0.379430	-0.606268
H273	H	0.001548	-0.319077	-0.597454
H274	H	0.058580	-0.379670	-0.604047
H275	H	-0.046101	-0.411189	-0.586871
H276	H	-0.005182	-0.254109	-0.622664
H277	H	0.245737	-0.223998	-0.033572
H278	H	-0.489994	0.175891	0.311254
H279	H	0.330510	-0.448858	0.033327
C280	C	-0.140567	-0.631193	-0.262436
H281	H	-0.124222	-0.653307	-0.245605
H282	H	-0.137427	-0.671947	-0.291918
H283	H	-0.200470	-0.625528	-0.247383
C284	C	-0.478133	0.069676	-0.379946
H285	H	-0.461207	0.070891	-0.410361
H286	H	-0.473626	0.015086	-0.379849
H287	H	-0.439034	0.119261	-0.364556
C288	C	-0.736438	0.093926	0.261313
H289	H	-0.796511	0.098261	0.270962
H290	H	-0.702732	0.143721	0.279508
H291	H	-0.737522	0.039555	0.264315
C292	C	0.402668	-0.544388	0.052300
H293	H	0.344917	-0.534117	0.069454
H294	H	0.440324	-0.519791	0.071491
H295	H	0.396212	-0.607302	0.039672
H296	H	0.634201	-0.467612	-0.072637
H297	H	-0.037138	-0.474881	-0.380005
C298	C	-0.162864	-0.535194	-0.310666
H299	H	-0.197038	-0.591867	-0.305049
H300	H	-0.138504	-0.543166	-0.342453
H301	H	-0.200915	-0.496166	-0.297835
C302	C	-0.597479	-0.086521	-0.218658
H303	H	-0.655221	-0.119267	-0.223022
H304	H	-0.603936	-0.061119	-0.187115
H305	H	-0.559821	-0.125931	-0.231477
H306	H	-0.048864	-0.224020	-0.386283
C307	C	-0.272131	0.042967	0.212745
H308	H	-0.313911	0.047465	0.201832
H309	H	-0.254921	-0.011247	0.195183
H310	H	-0.220130	0.092919	0.210373
C311	C	0.722779	-0.697600	-0.503465
H312	H	0.782572	-0.662135	-0.503265
H313	H	0.724765	-0.753351	-0.526298
H314	H	0.689511	-0.708460	-0.474723
C315	C	-0.016200	-0.141539	-0.660610
H316	H	-0.019966	-0.118927	-0.681455
H317	H	0.037052	-0.106618	-0.651780
H318	H	-0.067628	-0.138144	-0.634602
H319	H	-0.531920	0.039247	-0.151930
H320	H	-0.740818	0.102779	0.123104
H321	H	0.182115	-0.525189	-0.530531
C322	C	0.231561	-0.210028	-0.533945
H323	H	0.172531	-0.247443	-0.534588
H324	H	0.260982	-0.189719	-0.560356
H325	H	0.227506	-0.159667	-0.507754
H326	H	0.550886	-0.383867	-0.081621
C327	C	-0.285592	0.029818	-0.287088
H328	H	-0.225518	0.025482	-0.296740
H329	H	-0.284523	0.084186	-0.290082
H330	H	-0.319289	-0.019981	-0.305291
C331	C	0.521978	-0.224989	-0.027376
H332	H	0.545410	-0.266568	-0.025835
H333	H	0.523252	-0.174345	-0.001335
H334	H	0.557813	-0.205862	-0.053891
C335	C	0.165592	-0.674330	-0.527639
H336	H	0.148754	-0.734670	-0.526771
H337	H	0.161056	-0.674122	-0.554888
H338	H	0.126443	-0.642518	-0.502336
H339	H	-0.023809	-0.160979	-0.735279
C340	C	0.268479	-0.775010	-0.522459
H341	H	0.208372	-0.793012	-0.523822
H342	H	0.267548	-0.780717	-0.495229
H343	H	0.302332	-0.812238	-0.547779
C344	C	0.406111	-0.781233	-0.518293
H345	H	0.346005	-0.799235	-0.519656
H346	H	0.405180	-0.786940	-0.491062
H347	H	0.439964	-0.818462	-0.543612
C348	C	-0.464629	0.082837	0.119872
H349	H	-0.447700	0.084041	0.089454
H350	H	-0.460123	0.028252	0.119975
H351	H	-0.425531	0.132427	0.135260
H352	H	-0.518563	-0.039000	0.162804
C353	C	-0.585426	0.216780	0.276588
H354	H	-0.614996	0.214758	0.257191
H355	H	-0.539547	0.271939	0.280522
H356	H	-0.628131	0.212520	0.305217
H357	H	0.003321	-0.760550	-0.802778
C358	C	0.805516	-0.374476	-0.515629
H359	H	0.822343	-0.314121	-0.516472
H360	H	0.844737	-0.406239	-0.540906
H361	H	0.809944	-0.374711	-0.488357
C362	C	0.556038	-0.130355	-0.528340
H363	H	0.616148	-0.112353	-0.526981
H364	H	0.522180	-0.093135	-0.503023
H365	H	0.556975	-0.124643	-0.555572
H366	H	0.682238	-0.162236	-0.523943
H367	H	-0.365918	0.157102	-0.260160
H368	H	-0.754334	0.089615	-0.376700
C369	C	0.014261	-0.706522	-0.645895
H370	H	0.015049	-0.669105	-0.616131
H371	H	0.067353	-0.726834	-0.660740
H372	H	-0.037452	-0.756881	-0.644203
H373	H	-0.449229	0.177371	-0.300885
C374	C	-0.024506	-0.542088	-0.931792
H375	H	-0.022013	-0.602443	-0.940607
H376	H	0.025634	-0.510324	-0.951186
H377	H	-0.079045	-0.541855	-0.934012
H378	H	-0.738384	0.080845	-0.251490
