data_functionalizedCrystal
_audit_creation_method	'MofGen! by Chris Wilmer'
_symmetry_space_group_name_H-M	'P1'
_symmetry_Int_Tables_number	1
_symmetry_cell_setting	triclinic
loop_
_symmetry_equiv_pos_as_xyz
  x,y,z
_cell_length_a	27.731993
_cell_length_b	26.210047
_cell_length_c	14.971494
_cell_angle_alpha	89.993775
_cell_angle_beta	83.118975
_cell_angle_gamma	89.997422
loop_
_atom_site_label
_atom_site_type_symbol
_atom_site_fract_x
_atom_site_fract_y
_atom_site_fract_z
O1	O	0.641440	0.042290	0.106182
O2	O	0.500718	0.042321	0.122415
O3	O	0.574849	0.042303	-0.015962
O4	O	0.567310	0.042307	0.244559
O5	O	0.574834	-0.042555	-0.015941
O6	O	0.500704	-0.042537	0.122437
O7	O	0.641426	-0.042568	0.106203
Cu8	Cu	0.571064	-0.050301	0.114322
Cu9	Cu	0.571080	0.050054	0.114296
O10	O	0.567295	-0.042551	0.244580
C11	C	0.482702	-0.000104	0.122093
C12	C	0.429041	-0.000092	0.121089
N13	N	0.571055	-0.120885	0.114339
C14	C	0.045855	0.046139	0.113804
C15	C	0.247530	0.046153	0.117629
O16	O	0.273612	0.085493	0.118078
N17	N	0.272745	-0.000102	0.118119
C18	C	0.247538	-0.046364	0.117648
O19	O	0.273613	-0.085707	0.118143
C20	C	0.045864	-0.046377	0.113816
C21	C	0.020652	-0.000119	0.113335
C22	C	0.020642	0.092393	0.113322
C23	C	-0.029774	0.092389	0.112371
C24	C	-0.054977	0.046131	0.111902
C25	C	-0.029764	-0.000123	0.112384
C26	C	0.020659	-0.092639	0.113338
C27	C	-0.029763	-0.092638	0.112378
C28	C	-0.054975	-0.046380	0.111897
C29	C	-0.105384	-0.046386	0.110964
N30	N	-0.130599	-0.000130	0.110473
C31	C	-0.105395	0.046128	0.110942
C32	C	0.353420	-0.046354	0.119661
C33	C	0.403838	-0.046351	0.120620
C34	C	0.403826	0.046166	0.120600
C35	C	0.353407	0.046163	0.119647
C36	C	0.328205	-0.000099	0.119170
C37	C	-0.211273	0.046116	0.108946
C38	C	-0.261694	0.046108	0.107998
C39	C	-0.261678	-0.046409	0.108014
C40	C	-0.211262	-0.046401	0.108966
C41	C	-0.186060	-0.000135	0.109429
O42	O	-0.131496	-0.085705	0.110504
O43	O	-0.131477	0.085464	0.110427
C44	C	0.096271	0.046143	0.114755
C45	C	0.121484	-0.000112	0.115238
C46	C	0.096280	-0.046370	0.114769
C47	C	0.171902	-0.000108	0.116197
C48	C	0.197105	0.046150	0.116666
C49	C	0.171891	0.092405	0.116176
C50	C	0.121475	0.092401	0.115225
C51	C	0.121495	-0.092625	0.115259
C52	C	0.171911	-0.092617	0.116211
C53	C	0.197115	-0.046359	0.116680
C54	C	0.603902	-0.473406	0.053037
C55	C	0.603913	-0.687065	0.053024
O56	O	0.631822	-0.714694	0.000907
N57	N	0.571083	-0.713779	0.114277
C58	C	0.538246	-0.687074	0.175533
O59	O	0.510319	-0.714698	0.227625
C60	C	0.538234	-0.473417	0.175540
C61	C	0.571069	-0.446706	0.114290
C62	C	0.636734	-0.446696	-0.008209
C63	C	0.636733	-0.393284	-0.008202
C64	C	0.603900	-0.366584	0.053051
C65	C	0.571068	-0.393294	0.114297
C66	C	0.505395	-0.446713	0.236791
C67	C	0.505394	-0.393296	0.236786
C68	C	0.538229	-0.366585	0.175536
C69	C	0.538233	-0.313182	0.175557
N70	N	0.571063	-0.286469	0.114304
C71	C	0.603896	-0.313169	0.053051
C72	C	0.538256	-0.799248	0.175526
C73	C	0.538259	-0.852662	0.175525
C74	C	0.603926	-0.852649	0.053015
C75	C	0.603924	-0.799234	0.053021
C76	C	0.571085	-0.772534	0.114273
C77	C	0.603891	-0.201002	0.053071
C78	C	0.603889	-0.147585	0.053086
C79	C	0.538221	-0.147603	0.175592
C80	C	0.538225	-0.201014	0.175581
C81	C	0.571062	-0.227712	0.114313
O82	O	0.510335	-0.285521	0.227640
O83	O	0.631812	-0.285536	0.000953
C84	C	0.603903	-0.526818	0.053030
C85	C	0.571071	-0.553529	0.114276
C86	C	0.538238	-0.526828	0.175529
C87	C	0.571075	-0.606943	0.114275
C88	C	0.603908	-0.633644	0.053022
C89	C	0.636738	-0.606930	-0.008230
C90	C	0.636737	-0.553519	-0.008223
C91	C	0.505408	-0.553542	0.236781
C92	C	0.505412	-0.606953	0.236770
C93	C	0.538246	-0.633654	0.175517
C94	C	0.659442	-0.000142	0.106526
C95	C	0.713103	-0.000150	0.107529
C96	C	0.574504	-0.000125	-0.049271
C97	C	0.573491	-0.000122	-0.148551
N98	N	0.571093	0.120638	0.114272
C99	C	0.573024	0.046135	-0.195200
C100	C	0.572070	0.046136	-0.288483
C101	C	0.571586	-0.000121	-0.335117
C102	C	0.572051	-0.046381	-0.288462
C103	C	0.573002	-0.046382	-0.195179
C104	C	0.570070	-0.046377	-0.482893
C105	C	0.569120	-0.046377	-0.576182
C106	C	0.569138	0.046140	-0.576197
C107	C	0.570089	0.046139	-0.482914
C108	C	0.570555	-0.000121	-0.436265
C109	C	0.567640	-0.000121	0.277889
C110	C	0.568653	-0.000121	0.377169
H111	H	-0.282220	0.083779	0.107609
O112	O	0.570607	0.091047	-0.437549
C113	C	0.613429	0.144715	-0.342775
C114	C	0.612935	0.093853	-0.394159
H115	H	0.647643	0.146996	-0.307665
H116	H	0.612946	0.177820	-0.392058
H117	H	0.580039	0.146970	-0.290506
H118	H	0.646319	0.091549	-0.446427
H119	H	0.613394	0.060772	-0.344820
O120	O	0.097064	0.137382	0.114713
C121	C	0.102390	0.229146	0.114848
C122	C	0.130091	0.178239	0.115409
H123	H	0.129078	0.262191	0.115429
H124	H	0.083191	0.231496	0.051766
H125	H	0.074382	0.231434	0.177004
H126	H	0.158121	0.175916	0.053296
H127	H	0.149256	0.175910	0.178532
H128	H	0.568757	0.083807	-0.614183
O129	O	0.428387	-0.091254	0.120977
C130	C	0.490724	-0.144962	0.044516
C131	C	0.462970	-0.094085	0.044019
H132	H	0.518684	-0.147273	-0.017708
H133	H	0.509973	-0.147286	0.107541
H134	H	0.464032	-0.178013	0.044056
H135	H	0.489629	-0.061005	0.044446
H136	H	0.443713	-0.091806	-0.019001
H137	H	0.630630	-0.222733	0.003180
O138	O	0.045131	-0.137589	0.113639
C139	C	0.065956	-0.216672	0.036433
C140	C	0.038231	-0.165776	0.035972
H141	H	0.060378	-0.239481	-0.026345
H142	H	0.106333	-0.208766	0.037138
H143	H	0.051654	-0.239465	0.098892
H144	H	0.052491	-0.142958	-0.026477
H145	H	-0.002143	-0.173718	0.035314
O146	O	0.428281	0.091116	0.121210
C147	C	0.438258	0.170209	0.198955
C148	C	0.410530	0.119321	0.198395
H149	H	0.423909	0.193032	0.261343
H150	H	0.478624	0.162291	0.199780
H151	H	0.432744	0.192994	0.136109
H152	H	0.416004	0.096511	0.261230
H153	H	0.370173	0.127275	0.197523
O154	O	0.506309	-0.121740	0.235177
C155	C	0.441151	-0.127375	0.356642
C156	C	0.477275	-0.156729	0.289231
H157	H	0.417660	-0.155651	0.400349
H158	H	0.462017	-0.102384	0.401116
H159	H	0.417008	-0.102351	0.318314
H160	H	0.501426	-0.181781	0.327486
H161	H	0.456378	-0.181688	0.244758
H162	H	-0.050297	0.130057	0.111975
O163	O	0.196423	0.137308	0.116752
C164	C	0.247894	0.191010	0.195357
C165	C	0.220139	0.140138	0.194812
H166	H	0.267067	0.193319	0.258471
H167	H	0.275918	0.193326	0.133226
H168	H	0.221212	0.224066	0.194801
H169	H	0.246784	0.107053	0.195400
H170	H	0.192108	0.137867	0.256938
H171	H	0.573375	-0.084049	-0.157197
O172	O	0.473562	-0.472676	0.296372
C173	C	0.463323	-0.533009	0.418632
C174	C	0.499430	-0.503630	0.351220
H175	H	0.484222	-0.558051	0.462981
H176	H	0.439862	-0.504766	0.462466
H177	H	0.439148	-0.557988	0.380305
H178	H	0.523636	-0.478651	0.389474
H179	H	0.522857	-0.531900	0.307387
H180	H	0.573421	0.083802	-0.157238
H181	H	0.571692	0.083803	-0.326461
O182	O	0.096953	-0.137529	0.114921
C183	C	0.034626	-0.191246	0.191400
C184	C	0.062372	-0.140365	0.191881
H185	H	0.006667	-0.193560	0.253625
H186	H	0.015376	-0.193570	0.128377
H187	H	0.061322	-0.224294	0.191868
H188	H	0.035707	-0.107288	0.191446
H189	H	0.081629	-0.138085	0.254899
O190	O	0.328885	0.091084	0.119332
C191	C	0.266503	0.144765	0.195725
C192	C	0.294241	0.093877	0.196206
H193	H	0.238480	0.147036	0.257861
H194	H	0.293156	0.177846	0.196285
H195	H	0.247315	0.147072	0.132627
H196	H	0.313430	0.091521	0.259294
H197	H	0.267565	0.060821	0.195598
H198	H	0.511514	-0.777512	0.225407
H199	H	0.568721	-0.084044	-0.614148
H200	H	0.192435	-0.130289	0.116610
O201	O	0.668644	-0.367420	-0.067795
C202	C	0.733790	-0.373065	-0.189279
C203	C	0.697670	-0.402414	-0.121846
H204	H	0.757274	-0.401345	-0.232984
H205	H	0.712921	-0.348070	-0.233754
H206	H	0.757940	-0.348045	-0.150971
H207	H	0.673512	-0.427462	-0.160082
H208	H	0.718570	-0.427376	-0.077372
H209	H	-0.190760	0.083791	0.109324
O210	O	0.473513	-0.367281	0.296205
C211	C	0.444423	-0.285002	0.350554
C212	C	0.480544	-0.314397	0.283199
H213	H	0.450101	-0.242240	0.340074
H214	H	0.405693	-0.295465	0.339401
H215	H	0.450756	-0.295544	0.422102
H216	H	0.474255	-0.303871	0.211624
H217	H	0.519261	-0.303932	0.294430
O218	O	0.635865	-0.878512	-0.006526
C219	C	0.700968	-0.872878	-0.128092
C220	C	0.664837	-0.843523	-0.060696
H221	H	0.724395	-0.844602	-0.171919
H222	H	0.725172	-0.897875	-0.089843
H223	H	0.680059	-0.897896	-0.172452
H224	H	0.685707	-0.818478	-0.016320
H225	H	0.640634	-0.818558	-0.099001
H226	H	0.630629	-0.125839	0.003209
H227	H	0.478675	-0.628698	0.286655
O228	O	0.329013	-0.091341	0.119247
C229	C	0.334362	-0.183104	0.119324
C230	C	0.362057	-0.132193	0.119809
H231	H	0.361067	-0.216146	0.119759
H232	H	0.306379	-0.185455	0.181511
H233	H	0.315135	-0.185398	0.056272
H234	H	0.381313	-0.129865	0.182819
H235	H	0.390013	-0.129863	0.057580
H236	H	0.478670	-0.531806	0.286660
O237	O	0.570534	-0.091360	-0.437718
C238	C	0.570371	-0.183124	-0.447530
C239	C	0.569858	-0.132221	-0.498805
H240	H	0.569814	-0.216173	-0.496894
H241	H	0.604621	-0.185488	-0.412538
H242	H	0.537019	-0.185394	-0.395178
H243	H	0.603187	-0.129917	-0.551200
H244	H	0.535586	-0.129879	-0.533735
O245	O	-0.054253	-0.137565	0.111758
C246	C	-0.105758	-0.191251	0.033197
C247	C	-0.078036	-0.140360	0.033774
H248	H	-0.125002	-0.193523	-0.029837
H249	H	-0.079091	-0.224328	0.033647
H250	H	-0.133732	-0.193562	0.095399
H251	H	-0.050062	-0.137999	-0.028418
H252	H	-0.104732	-0.107307	0.033370
H253	H	0.571654	-0.084044	-0.326438
O254	O	0.668566	-0.472650	-0.067802
C255	C	0.678810	-0.532962	-0.190073
C256	C	0.642701	-0.503596	-0.122650
H257	H	0.657912	-0.557997	-0.234423
H258	H	0.702265	-0.504710	-0.233905
H259	H	0.702990	-0.557945	-0.151754
H260	H	0.618489	-0.478612	-0.160896
H261	H	0.619280	-0.531876	-0.078819
O262	O	0.668586	-0.632951	-0.067699
C263	C	0.697699	-0.715241	-0.121953
C264	C	0.661603	-0.685833	-0.054571
H265	H	0.692072	-0.758001	-0.111349
H266	H	0.691358	-0.704774	-0.193532
H267	H	0.736415	-0.704714	-0.110819
H268	H	0.622872	-0.696344	-0.065622
H269	H	0.667985	-0.696303	0.016985
H270	H	0.041158	0.130064	0.113701
H271	H	-0.190733	-0.084068	0.109375
H272	H	0.630661	-0.777489	0.003145
O273	O	-0.286104	-0.091374	0.107436
C274	C	-0.296119	-0.170427	0.029595
C275	C	-0.268409	-0.119528	0.030157
H276	H	-0.281829	-0.193199	-0.032888
H277	H	-0.290586	-0.193279	0.092359
H278	H	-0.336484	-0.162465	0.028871
H279	H	-0.228035	-0.127444	0.030850
H280	H	-0.273982	-0.096692	-0.032602
H281	H	0.511492	-0.222763	0.225465
H282	H	0.511527	-0.874406	0.225410
H283	H	0.663474	-0.531774	-0.058099
