data_functionalizedCrystal
_audit_creation_method	'MofGen! by Chris Wilmer'
_symmetry_space_group_name_H-M	'P1'
_symmetry_Int_Tables_number	1
_symmetry_cell_setting	triclinic
loop_
_symmetry_equiv_pos_as_xyz
  x,y,z
_cell_length_a	17.038272
_cell_length_b	17.699083
_cell_length_c	16.776229
_cell_angle_alpha	89.995692
_cell_angle_beta	89.999840
_cell_angle_gamma	87.197286
loop_
_atom_site_label
_atom_site_type_symbol
_atom_site_fract_x
_atom_site_fract_y
_atom_site_fract_z
O1	O	-1.037101	-0.164334	0.066191
O2	O	-0.809474	-0.161724	0.066215
O3	O	-0.929719	-0.053265	0.066195
O4	O	-0.916857	-0.272793	0.066211
O5	O	-0.929705	-0.053264	-0.066381
O6	O	-0.809461	-0.161723	-0.066362
O7	O	-1.037087	-0.164333	-0.066385
Zn8	Zn	-0.923272	-0.163028	-0.087423
Zn9	Zn	-0.923290	-0.163029	0.087253
O10	O	-0.916843	-0.272792	-0.066366
C11	C	-0.780343	-0.159350	-0.000070
C12	C	-0.693562	-0.152270	-0.000062
C13	C	-0.929251	-0.025037	-0.000093
C14	C	-0.927868	0.059072	-0.000093
C15	C	-1.066218	-0.166707	-0.000098
C16	C	-1.153000	-0.173787	-0.000101
C17	C	-0.643342	-0.217280	-0.000058
C18	C	-0.561802	-0.210622	-0.000069
C19	C	-0.530484	-0.138953	-0.000079
C20	C	-0.580710	-0.073938	-0.000085
C21	C	-0.662249	-0.080597	-0.000080
C22	C	-0.284764	-0.115431	-0.000102
C23	C	-0.203220	-0.108777	-0.000105
C24	C	-0.184317	-0.245462	-0.000091
C25	C	-0.265857	-0.252114	-0.000080
C26	C	-0.316077	-0.187099	-0.000091
C27	C	-0.447137	-0.132147	-0.000088
C28	C	-0.399422	-0.193906	-0.000087
C29	C	-0.917311	-0.301020	-0.000076
C30	C	-0.918693	-0.385129	-0.000070
N31	N	-0.923265	-0.163027	-0.206634
C32	C	-0.998449	0.103023	-0.000101
C33	C	-0.997145	0.182053	-0.000094
C34	C	-0.925260	0.217130	-0.000084
C35	C	-0.854674	0.173173	-0.000074
C36	C	-0.855978	0.094145	-0.000075
C37	C	-0.849411	0.491885	-0.000067
C38	C	-0.848112	0.570919	-0.000067
C39	C	-0.990578	0.579792	-0.000086
C40	C	-0.991882	0.500764	-0.000087
C41	C	-0.921297	0.456814	-0.000072
C42	C	-0.922711	0.371121	-0.000079
C43	C	-0.923844	0.302821	-0.000084
C44	C	-0.970587	-0.212006	-0.248349
C45	C	-0.970596	-0.212004	-0.331802
C46	C	-0.923278	-0.163025	-0.373537
C47	C	-0.875954	-0.114040	-0.331816
C48	C	-0.875950	-0.114039	-0.248365
C49	C	-0.875970	-0.114042	-0.668363
C50	C	-0.875976	-0.114048	-0.751819
C51	C	-0.970616	-0.212007	-0.751799
C52	C	-0.970612	-0.212006	-0.668349
C53	C	-0.923291	-0.163018	-0.626635
C54	C	-0.923284	-0.163020	-0.536146
C55	C	-0.923281	-0.163026	-0.464024
N56	N	-0.923302	-0.163025	0.206464
H57	H	-0.668834	-0.275640	-0.000049
H58	H	-1.050419	0.472208	-0.000099
O59	O	-0.416804	-0.062489	0.000017
C60	C	-0.442452	-0.022550	0.068693
H61	H	-0.498969	-0.046809	0.091588
H62	H	-0.453881	0.039745	0.053252
H63	H	-0.395247	-0.028287	0.116769
H64	H	-0.520915	-0.263561	-0.000065
H65	H	-0.424924	-0.252259	-0.000084
H66	H	-1.056987	0.074469	-0.000114
H67	H	-1.048052	0.615585	-0.000094
H68	H	-0.143420	-0.298393	-0.000084
H69	H	-0.789570	0.599476	-0.000061
H70	H	-0.703138	-0.027658	-0.000082
H71	H	-0.177724	-0.050413	-0.000112
H72	H	-1.054619	0.217834	-0.000103
H73	H	-0.837431	-0.074157	-0.365803
H74	H	-0.291350	-0.310474	-0.000063
H75	H	-0.325644	-0.062490	-0.000111
O76	O	-0.784824	0.207211	0.000079
C77	C	-0.741808	0.185181	0.068738
H78	H	-0.783852	0.166050	0.116723
H79	H	-0.708642	0.235139	0.091790
H80	H	-0.698145	0.136543	0.053220
O81	O	-0.550382	-0.004278	0.000013
C82	C	-0.576040	0.035663	0.068683
H83	H	-0.632554	0.011397	0.091577
H84	H	-0.587478	0.097955	0.053237
H85	H	-0.528838	0.029934	0.116763
H86	H	-0.791935	0.456110	-0.000055
O87	O	-0.787437	0.051416	0.000072
C88	C	-0.783948	0.005420	0.068726
H89	H	-0.823985	0.031753	0.116711
H90	H	-0.720963	0.000595	0.091782
H91	H	-0.804074	-0.053280	0.053200
O92	O	-1.016624	-0.259611	-0.207935
C93	C	-1.058379	-0.302854	-0.262653
H94	H	-1.063005	-0.271821	-0.322142
H95	H	-1.119839	-0.311542	-0.238539
H96	H	-1.026059	-0.360165	-0.271526
O97	O	-1.016656	-0.259477	-0.372356
C98	C	-1.070082	-0.216800	-0.420638
H99	H	-1.078591	-0.157125	-0.395495
H100	H	-1.128919	-0.244811	-0.421571
H101	H	-1.045940	-0.213955	-0.483888
O102	O	-1.016649	-0.259609	-0.627932
C103	C	-1.058406	-0.302853	-0.682647
H104	H	-1.063032	-0.271823	-0.742137
H105	H	-1.119866	-0.311538	-0.658530
H106	H	-1.026088	-0.360165	-0.691516
H107	H	-1.009148	-0.251893	-0.785773
O108	O	-0.829992	-0.066392	-0.792240
C109	C	-0.788211	-0.023164	-0.737530
H110	H	-0.820574	-0.020846	-0.678041
H111	H	-0.783487	0.036659	-0.761655
H112	H	-0.726786	-0.050347	-0.728656
H113	H	-0.837439	-0.074153	-0.634409
H114	H	-0.837416	-0.074155	-0.214401
