data_functionalizedCrystal
_audit_creation_method	'MofGen! by Chris Wilmer'
_symmetry_space_group_name_H-M	'P1'
_symmetry_Int_Tables_number	1
_symmetry_cell_setting	triclinic
loop_
_symmetry_equiv_pos_as_xyz
  x,y,z
_cell_length_a	8.597304
_cell_length_b	9.065218
_cell_length_c	8.140239
_cell_angle_alpha	89.997198
_cell_angle_beta	82.296592
_cell_angle_gamma	85.172810
loop_
_atom_site_label
_atom_site_type_symbol
_atom_site_fract_x
_atom_site_fract_y
_atom_site_fract_z
O1	O	0.230168	1.960827	-0.169189
O2	O	0.563501	2.294160	0.164145
O3	O	0.896835	2.627494	0.497478
O4	O	0.249048	1.531577	-0.171862
O5	O	0.582381	1.864911	0.161471
O6	O	0.915714	2.198244	0.494804
O7	O	0.011261	1.754650	-0.138202
O8	O	0.344595	2.087983	0.195132
O9	O	0.677928	2.421316	0.528465
O10	O	0.467955	1.737755	-0.202849
O11	O	0.801288	2.071088	0.130484
O12	O	1.134621	2.404421	0.463817
O13	O	0.011258	1.754637	0.135026
O14	O	0.344592	2.087971	0.468359
O15	O	0.677925	2.421304	0.801692
O16	O	0.249045	1.531565	0.101365
O17	O	0.582378	1.864898	0.434698
O18	O	0.915711	2.198232	0.768032
O19	O	0.230165	1.960815	0.104039
O20	O	0.563499	2.294148	0.437372
O21	O	0.896832	2.627481	0.770706
Zn22	Zn	0.239605	1.746188	0.146083
Zn23	Zn	0.572938	2.079521	0.479416
Zn24	Zn	0.906271	2.412854	0.812749
Zn25	Zn	0.239608	1.746204	-0.213906
Zn26	Zn	0.572942	2.079538	0.119427
Zn27	Zn	0.906275	2.412871	0.452760
O28	O	0.467952	1.737742	0.070378
O29	O	0.801285	2.071076	0.403712
O30	O	1.134618	2.404409	0.737045
C31	C	0.247232	1.476581	-0.034992
C32	C	0.580565	1.809915	0.298341
C33	C	0.913898	2.143248	0.631674
C34	C	0.241807	1.312728	-0.034225
C35	C	0.575140	1.646062	0.299108
C36	C	0.908473	1.979395	0.632442
C37	C	-0.047238	1.752829	0.006689
C38	C	0.286096	2.086162	0.340022
C39	C	0.619429	2.419496	0.673356
C40	C	-0.221541	1.747404	0.031352
C41	C	0.111792	2.080738	0.364686
C42	C	0.445125	2.414071	0.698019
C43	C	0.526450	1.739563	-0.074516
C44	C	0.859784	2.072896	0.258817
C45	C	1.193117	2.406230	0.592150
C46	C	0.700754	1.744988	-0.099190
C47	C	1.034088	2.078321	0.234143
C48	C	1.367421	2.411654	0.567476
C49	C	0.231981	2.015811	-0.032835
C50	C	0.565314	2.349144	0.300498
C51	C	0.898648	2.682478	0.633832
C52	C	0.237406	2.179664	-0.033613
C53	C	0.570740	2.512997	0.299721
C54	C	0.904073	2.846331	0.633054
N55	N	0.239601	1.746187	0.391766
N56	N	0.572934	2.079521	0.725099
N57	N	0.906268	2.412854	1.058432
N58	N	0.239600	1.746216	-0.459588
N59	N	0.572933	2.079550	-0.126254
N60	N	0.906266	2.412883	0.207079
H61	H	-0.232424	1.747065	-0.229832
H62	H	0.100910	2.080398	0.103502
H63	H	0.434243	2.413731	0.436835
H64	H	-0.288369	1.745306	0.162002
H65	H	0.044965	2.078639	0.495335
H66	H	0.378298	2.411972	0.828669
