data_functionalizedCrystal
_audit_creation_method	'MofGen! by Chris Wilmer'
_symmetry_space_group_name_H-M	'P1'
_symmetry_Int_Tables_number	1
_symmetry_cell_setting	triclinic
loop_
_symmetry_equiv_pos_as_xyz
  x,y,z
_cell_length_a	29.839131
_cell_length_b	19.805407
_cell_length_c	29.839125
_cell_angle_alpha	90.013198
_cell_angle_beta	89.974637
_cell_angle_gamma	89.964772
loop_
_atom_site_label
_atom_site_type_symbol
_atom_site_fract_x
_atom_site_fract_y
_atom_site_fract_z
Zn1	Zn	-0.178916	-1.034652	-0.253996
Zn2	Zn	0.071084	-0.784652	-0.003996
Zn3	Zn	0.321084	-0.534652	0.246004
Zn4	Zn	0.571084	-0.284652	0.496004
Zn5	Zn	-0.254028	-1.034562	-0.178856
Zn6	Zn	-0.004028	-0.784562	0.071144
Zn7	Zn	0.245972	-0.534562	0.321144
Zn8	Zn	0.495972	-0.284562	0.571144
Zn9	Zn	-0.178913	-0.921479	-0.178877
Zn10	Zn	0.071087	-0.671479	0.071123
Zn11	Zn	0.321087	-0.421479	0.321123
Zn12	Zn	0.571087	-0.171479	0.571123
Zn13	Zn	-0.254020	-0.921412	-0.253956
Zn14	Zn	-0.004020	-0.671412	-0.003956
Zn15	Zn	0.245980	-0.421412	0.246044
Zn16	Zn	0.495980	-0.171412	0.496044
O17	O	-0.216469	-0.978026	-0.216421
O18	O	0.033531	-0.728026	0.033579
O19	O	0.283531	-0.478026	0.283579
O20	O	0.533531	-0.228026	0.533579
O21	O	-0.188885	-1.129356	-0.244036
O22	O	0.061115	-0.879356	0.005964
O23	O	0.311115	-0.629356	0.255964
O24	O	0.561115	-0.379356	0.505964
O25	O	-0.244066	-1.019551	-0.115991
O26	O	0.005934	-0.769551	0.134009
O27	O	0.255934	-0.519551	0.384009
O28	O	0.505934	-0.269551	0.634009
O29	O	-0.116046	-0.936557	-0.188867
O30	O	0.133954	-0.686557	0.061133
O31	O	0.383954	-0.436557	0.311133
O32	O	0.633954	-0.186557	0.561133
O33	O	-0.244069	-1.129290	-0.188831
O34	O	0.005931	-0.879290	0.061169
O35	O	0.255931	-0.629290	0.311169
O36	O	0.505931	-0.379290	0.561169
O37	O	-0.116049	-1.019704	-0.244057
O38	O	0.133951	-0.769704	0.005943
O39	O	0.383951	-0.519704	0.255943
O40	O	0.633951	-0.269704	0.505943
O41	O	-0.188880	-0.936470	-0.116007
O42	O	0.061120	-0.686470	0.133993
O43	O	0.311120	-0.436470	0.383993
O44	O	0.561120	-0.186470	0.633993
O45	O	-0.188871	-0.826753	-0.188828
O46	O	0.061129	-0.576753	0.061172
O47	O	0.311129	-0.326753	0.311172
O48	O	0.561129	-0.076753	0.561172
O49	O	-0.244055	-0.936444	-0.316828
O50	O	0.005945	-0.686444	-0.066828
O51	O	0.255945	-0.436444	0.183172
O52	O	0.505945	-0.186444	0.433172
O53	O	-0.244052	-0.826705	-0.243988
O54	O	0.005948	-0.576705	0.006012
O55	O	0.255948	-0.326705	0.256012
O56	O	0.505948	-0.076705	0.506012
O57	O	-0.188877	-1.019640	-0.316858
O58	O	0.061123	-0.769640	-0.066858
O59	O	0.311123	-0.519640	0.183142
O60	O	0.561123	-0.269640	0.433142
O61	O	-0.316894	-1.019487	-0.188792
O62	O	-0.066894	-0.769487	0.061208
O63	O	0.183106	-0.519487	0.311208
O64	O	0.433106	-0.269487	0.561208
O65	O	-0.316888	-0.936356	-0.243968
O66	O	-0.066888	-0.686356	0.006032
O67	O	0.183112	-0.436356	0.256032
O68	O	0.433112	-0.186356	0.506032
C69	C	-0.216461	-0.802170	-0.216407
C70	C	0.033539	-0.552170	0.033593
C71	C	0.283539	-0.302170	0.283593
C72	C	0.533539	-0.052170	0.533593
C73	C	-0.216468	-0.726938	-0.216411
C74	C	0.033532	-0.476938	0.033589
C75	C	0.283532	-0.226938	0.283589
C76	C	0.533532	0.023062	0.533589
C77	C	-0.333192	-0.977923	-0.216383
C78	C	-0.083192	-0.727923	0.033617
C79	C	0.166808	-0.477923	0.283617
C80	C	0.416808	-0.227923	0.533617
C81	C	-0.383126	-0.977941	-0.216382
C82	C	-0.133126	-0.727941	0.033618
C83	C	0.116874	-0.477941	0.283618
C84	C	0.366874	-0.227941	0.533618
C85	C	-0.216465	-0.978044	-0.333599
C86	C	0.033535	-0.728044	-0.083599
C87	C	0.283535	-0.478044	0.166401
C88	C	0.533535	-0.228044	0.416401
C89	C	-0.216464	-0.978052	-0.383534
C90	C	0.033536	-0.728052	-0.133534
C91	C	0.283536	-0.478052	0.116466
C92	C	0.533536	-0.228052	0.366466
C93	C	-0.692736	-1.021312	-0.245199
C94	C	-0.442736	-0.771312	0.004801
C95	C	-0.192736	-0.521312	0.254801
C96	C	0.057264	-0.271312	0.504801
C97	C	-0.880409	-1.021385	-0.245226
C98	C	-0.630409	-0.771385	0.004774
C99	C	-0.380409	-0.521385	0.254774
C100	C	-0.130409	-0.271385	0.504774
O101	O	-0.904645	-1.058159	-0.269700
O102	O	-0.654645	-0.808159	-0.019700
O103	O	-0.404645	-0.558159	0.230300
O104	O	-0.154645	-0.308159	0.480300
N105	N	-0.903912	-0.978141	-0.216471
N106	N	-0.653912	-0.728141	0.033529
N107	N	-0.403912	-0.478141	0.283529
N108	N	-0.153912	-0.228141	0.533529
C109	C	-0.880493	-0.934872	-0.187709
C110	C	-0.630493	-0.684872	0.062291
C111	C	-0.380493	-0.434872	0.312291
C112	C	-0.130493	-0.184872	0.562291
O113	O	-0.904789	-0.898088	-0.163255
O114	O	-0.654789	-0.648088	0.086745
O115	O	-0.404789	-0.398088	0.336745
O116	O	-0.154789	-0.148088	0.586745
C117	C	-0.692821	-0.934796	-0.187685
C118	C	-0.442821	-0.684796	0.062315
C119	C	-0.192821	-0.434796	0.312315
C120	C	0.057179	-0.184796	0.562315
C121	C	-0.669321	-0.978048	-0.216439
C122	C	-0.419321	-0.728048	0.033561
C123	C	-0.169321	-0.478048	0.283561
C124	C	0.080679	-0.228048	0.533561
C125	C	-0.669236	-1.064559	-0.273951
C126	C	-0.419236	-0.814559	-0.023951
C127	C	-0.169236	-0.564559	0.226049
C128	C	0.080764	-0.314559	0.476049
C129	C	-0.622321	-1.064543	-0.273942
C130	C	-0.372321	-0.814543	-0.023942
C131	C	-0.122321	-0.564543	0.226058
C132	C	0.127679	-0.314543	0.476058
C133	C	-0.598905	-1.021279	-0.245182
C134	C	-0.348905	-0.771279	0.004818
C135	C	-0.098905	-0.521279	0.254818
C136	C	0.151095	-0.271279	0.504818
C137	C	-0.622405	-0.978032	-0.216430
C138	C	-0.372405	-0.728032	0.033570
C139	C	-0.122405	-0.478032	0.283570
C140	C	0.127595	-0.228032	0.533570
C141	C	-0.669403	-0.891525	-0.158925
C142	C	-0.419403	-0.641525	0.091075
C143	C	-0.169403	-0.391525	0.341075
C144	C	0.080597	-0.141525	0.591075
C145	C	-0.622482	-0.891508	-0.158922
C146	C	-0.372482	-0.641508	0.091078
C147	C	-0.122482	-0.391508	0.341078
C148	C	0.127518	-0.141508	0.591078
C149	C	-0.598982	-0.934760	-0.187676
C150	C	-0.348982	-0.684760	0.062324
C151	C	-0.098982	-0.434760	0.312324
C152	C	0.151018	-0.184760	0.562324
C153	C	-0.552074	-0.934752	-0.187660
C154	C	-0.302074	-0.684752	0.062340
C155	C	-0.052074	-0.434752	0.312340
C156	C	0.197926	-0.184752	0.562340
N157	N	-0.528572	-0.977996	-0.216416
N158	N	-0.278572	-0.727996	0.033584
N159	N	-0.028572	-0.477996	0.283584
N160	N	0.221428	-0.227996	0.533584
C161	C	-0.551987	-1.021259	-0.245176
C162	C	-0.301987	-0.771259	0.004824
C163	C	-0.051987	-0.521259	0.254824
C164	C	0.198013	-0.271259	0.504824
C165	C	-0.979023	-0.934917	-0.187723
C166	C	-0.729023	-0.684917	0.062277
C167	C	-0.479023	-0.434917	0.312277
C168	C	-0.229023	-0.184917	0.562277
C169	C	-1.025941	-0.934936	-0.187729
C170	C	-0.775941	-0.684936	0.062271
C171	C	-0.525941	-0.434936	0.312271
C172	C	-0.275941	-0.184936	0.562271
C173	C	-1.025854	-1.021448	-0.245247
C174	C	-0.775854	-0.771448	0.004753
C175	C	-0.525854	-0.521448	0.254753
C176	C	-0.275854	-0.271448	0.504753
C177	C	-0.978936	-1.021431	-0.245239
C178	C	-0.728936	-0.771431	0.004761
C179	C	-0.478936	-0.521431	0.254761
C180	C	-0.228936	-0.271431	0.504761
C181	C	-0.955521	-0.978161	-0.216478
C182	C	-0.705521	-0.728161	0.033522
C183	C	-0.455521	-0.478161	0.283522
C184	C	-0.205521	-0.228161	0.533522
C185	C	-0.453462	-1.021222	-0.245155
C186	C	-0.203462	-0.771222	0.004845
C187	C	0.046538	-0.521222	0.254845
C188	C	0.296538	-0.271222	0.504845
C189	C	-0.406542	-1.021204	-0.245143
C190	C	-0.156542	-0.771204	0.004857
C191	C	0.093458	-0.521204	0.254857
C192	C	0.343458	-0.271204	0.504857
C193	C	-0.406633	-0.934690	-0.187627
C194	C	-0.156633	-0.684690	0.062373
C195	C	0.093367	-0.434690	0.312373
C196	C	0.343367	-0.184690	0.562373
C197	C	-0.453548	-0.934711	-0.187637
C198	C	-0.203548	-0.684711	0.062363
C199	C	0.046452	-0.434711	0.312363
C200	C	0.296452	-0.184711	0.562363
C201	C	-0.476962	-0.977979	-0.216405
C202	C	-0.226962	-0.727979	0.033595
C203	C	0.023038	-0.477979	0.283595
C204	C	0.273038	-0.227979	0.533595
O205	O	-0.527809	-0.897991	-0.163203
O206	O	-0.277809	-0.647991	0.086797
O207	O	-0.027809	-0.397991	0.336797
O208	O	0.222191	-0.147991	0.586797
O209	O	-0.527683	-1.058028	-0.269634
O210	O	-0.277683	-0.808028	-0.019634
O211	O	-0.027683	-0.558028	0.230366
O212	O	0.222317	-0.308028	0.480366
C213	C	-0.739652	-1.021328	-0.245208
C214	C	-0.489652	-0.771328	0.004792
C215	C	-0.239652	-0.521328	0.254792
C216	C	0.010348	-0.271328	0.504792
C217	C	-0.763152	-0.978080	-0.216456
C218	C	-0.513152	-0.728080	0.033544
C219	C	-0.263152	-0.478080	0.283544
C220	C	-0.013152	-0.228080	0.533544
C221	C	-0.739736	-0.934816	-0.187695
C222	C	-0.489736	-0.684816	0.062305
C223	C	-0.239736	-0.434816	0.312305
C224	C	0.010264	-0.184816	0.562305
C225	C	-0.810069	-0.978100	-0.216461
C226	C	-0.560069	-0.728100	0.033539
C227	C	-0.310069	-0.478100	0.283539
C228	C	-0.060069	-0.228100	0.533539
C229	C	-0.833485	-1.021364	-0.245222
C230	C	-0.583485	-0.771364	0.004778
C231	C	-0.333485	-0.521364	0.254778
C232	C	-0.083485	-0.271364	0.504778
C233	C	-0.809983	-1.064608	-0.273978
C234	C	-0.559983	-0.814608	-0.023978
C235	C	-0.309983	-0.564608	0.226022
C236	C	-0.059983	-0.314608	0.476022
C237	C	-0.763067	-1.064592	-0.273969
C238	C	-0.513067	-0.814592	-0.023969
C239	C	-0.263067	-0.564592	0.226031
C240	C	-0.013067	-0.314592	0.476031
C241	C	-0.763238	-0.891572	-0.158940
C242	C	-0.513238	-0.641572	0.091060
C243	C	-0.263238	-0.391572	0.341060
C244	C	-0.013238	-0.141572	0.591060
C245	C	-0.810154	-0.891593	-0.158951
C246	C	-0.560154	-0.641593	0.091049
C247	C	-0.310154	-0.391593	0.341049
C248	C	-0.060154	-0.141593	0.591049
C249	C	-0.833569	-0.934856	-0.187712
C250	C	-0.583569	-0.684856	0.062288
C251	C	-0.333569	-0.434856	0.312288
C252	C	-0.083569	-0.184856	0.562288
C253	C	-0.099291	-0.978148	-0.216469
C254	C	0.150709	-0.728148	0.033531
C255	C	0.400709	-0.478148	0.283531
C256	C	0.650709	-0.228148	0.533531
C257	C	-0.049357	-0.978200	-0.216489
C258	C	0.200643	-0.728200	0.033511
C259	C	0.450643	-0.478200	0.283511
C260	C	0.700643	-0.228200	0.533511
C261	C	-0.216478	-1.154569	-0.216436
C262	C	0.033522	-0.904569	0.033564
C263	C	0.283522	-0.654569	0.283564
C264	C	0.533522	-0.404569	0.533564
C265	C	-0.216482	-1.229801	-0.216442
C266	C	0.033518	-0.979801	0.033558
C267	C	0.283518	-0.729801	0.283558
C268	C	0.533518	-0.479801	0.533558
C269	C	-0.245244	-0.691586	-0.245086
C270	C	0.004756	-0.441586	0.004914
C271	C	0.254756	-0.191586	0.254914
C272	C	0.504756	0.058414	0.504914
C273	C	-0.245245	-0.620898	-0.245093
C274	C	0.004755	-0.370898	0.004907
C275	C	0.254755	-0.120898	0.254907
C276	C	0.504755	0.129102	0.504907
C277	C	-0.216472	-0.585562	-0.216421
C278	C	0.033528	-0.335562	0.033579
C279	C	0.283528	-0.085562	0.283579
C280	C	0.533528	0.164438	0.533579
C281	C	-0.187693	-0.620919	-0.187745
C282	C	0.062307	-0.370919	0.062255
C283	C	0.312307	-0.120919	0.312255
C284	C	0.562307	0.129081	0.562255
C285	C	-0.187690	-0.691606	-0.187741
C286	C	0.062310	-0.441606	0.062259
C287	C	0.312310	-0.191606	0.312259
C288	C	0.562310	0.058394	0.562259
C289	C	-0.187702	-0.335846	-0.187759
C290	C	0.062298	-0.085846	0.062241
C291	C	0.312298	0.164154	0.312241
C292	C	0.562298	0.414154	0.562241
C293	C	-0.187708	-0.265154	-0.187764
C294	C	0.062292	-0.015154	0.062236
C295	C	0.312292	0.234846	0.312236
C296	C	0.562292	0.484846	0.562236
C297	C	-0.245257	-0.265137	-0.245111
C298	C	0.004743	-0.015137	0.004889
C299	C	0.254743	0.234863	0.254889
C300	C	0.504743	0.484863	0.504889
C301	C	-0.245255	-0.335824	-0.245108
C302	C	0.004745	-0.085824	0.004892
C303	C	0.254745	0.164176	0.254892
C304	C	0.504745	0.414176	0.504892
C305	C	-0.216474	-0.371175	-0.216433
C306	C	0.033526	-0.121175	0.033567
C307	C	0.283526	0.128825	0.283567
C308	C	0.533526	0.378825	0.533567
C309	C	-0.216473	-0.447824	-0.216427
C310	C	0.033527	-0.197824	0.033573
C311	C	0.283527	0.052176	0.283573
C312	C	0.533527	0.302176	0.533573
C313	C	-0.216475	-0.508915	-0.216424
C314	C	0.033525	-0.258915	0.033576
C315	C	0.283525	-0.008915	0.283576
C316	C	0.533525	0.241085	0.533576
C317	C	-0.187657	-1.021418	-0.693196
C318	C	0.062343	-0.771418	-0.443196
C319	C	0.312343	-0.521418	-0.193196
C320	C	0.562343	-0.271418	0.056804
C321	C	-0.187619	-1.021452	-0.880869
C322	C	0.062381	-0.771452	-0.630869
C323	C	0.312381	-0.521452	-0.380869
C324	C	0.562381	-0.271452	-0.130869
O325	O	-0.163169	-1.058273	-0.905149
O326	O	0.086831	-0.808273	-0.655149
O327	O	0.336831	-0.558273	-0.405149
O328	O	0.586831	-0.308273	-0.155149
N329	N	-0.216343	-0.978142	-0.904319
N330	N	0.033657	-0.728142	-0.654319
N331	N	0.283657	-0.478142	-0.404319
N332	N	0.533657	-0.228142	-0.154319
C333	C	-0.245078	-0.934818	-0.880848
C334	C	0.004922	-0.684818	-0.630848
C335	C	0.254922	-0.434818	-0.380848
C336	C	0.504922	-0.184818	-0.130848
O337	O	-0.269505	-0.897976	-0.905101
O338	O	-0.019505	-0.647976	-0.655101
O339	O	0.230495	-0.397976	-0.405101
O340	O	0.480495	-0.147976	-0.155101
C341	C	-0.245113	-0.934781	-0.693176
C342	C	0.004887	-0.684781	-0.443176
C343	C	0.254887	-0.434781	-0.193176
C344	C	0.504887	-0.184781	0.056824
C345	C	-0.216390	-0.978099	-0.669728
C346	C	0.033610	-0.728099	-0.419728
C347	C	0.283610	-0.478099	-0.169728
C348	C	0.533610	-0.228099	0.080272
C349	C	-0.158936	-1.064731	-0.669748
C350	C	0.091064	-0.814731	-0.419748
C351	C	0.341064	-0.564731	-0.169748
C352	C	0.591064	-0.314731	0.080252
C353	C	-0.158947	-1.064725	-0.622832
C354	C	0.091053	-0.814725	-0.372832
C355	C	0.341053	-0.564725	-0.122832
C356	C	0.591053	-0.314725	0.127168
C357	C	-0.187680	-1.021406	-0.599365
C358	C	0.062320	-0.771406	-0.349365
C359	C	0.312320	-0.521406	-0.099365
C360	C	0.562320	-0.271406	0.150635
C361	C	-0.216402	-0.978092	-0.622813
C362	C	0.033598	-0.728092	-0.372813
C363	C	0.283598	-0.478092	-0.122813
C364	C	0.533598	-0.228092	0.127187
C365	C	-0.273845	-0.891454	-0.669706
C366	C	-0.023845	-0.641454	-0.419706
C367	C	0.226155	-0.391454	-0.169706
C368	C	0.476155	-0.141454	0.080294
C369	C	-0.273850	-0.891447	-0.622785
C370	C	-0.023850	-0.641447	-0.372785
C371	C	0.226150	-0.391447	-0.122785
C372	C	0.476150	-0.141447	0.127215
C373	C	-0.245127	-0.934765	-0.599337
C374	C	0.004873	-0.684765	-0.349337
C375	C	0.254873	-0.434765	-0.099337
C376	C	0.504873	-0.184765	0.150663
C377	C	-0.245146	-0.934766	-0.552430
C378	C	0.004854	-0.684766	-0.302430
C379	C	0.254854	-0.434766	-0.052430
C380	C	0.504854	-0.184766	0.197570
N381	N	-0.216421	-0.978076	-0.528979
N382	N	0.033579	-0.728076	-0.278979
N383	N	0.283579	-0.478076	-0.028979
N384	N	0.533579	-0.228076	0.221021
C385	C	-0.187689	-1.021396	-0.552447
C386	C	0.062311	-0.771396	-0.302447
C387	C	0.312311	-0.521396	-0.052447
C388	C	0.562311	-0.271396	0.197553
C389	C	-0.245057	-0.934841	-0.979379
C390	C	0.004943	-0.684841	-0.729379
C391	C	0.254943	-0.434841	-0.479379
C392	C	0.504943	-0.184841	-0.229379
C393	C	-0.245049	-0.934851	-1.026297
C394	C	0.004951	-0.684851	-0.776297
C395	C	0.254951	-0.434851	-0.526297
C396	C	0.504951	-0.184851	-0.276297
C397	C	-0.187590	-1.021484	-1.026314
C398	C	0.062410	-0.771484	-0.776314
C399	C	0.312410	-0.521484	-0.526314
C400	C	0.562410	-0.271484	-0.276314
C401	C	-0.187601	-1.021477	-0.979396
C402	C	0.062399	-0.771477	-0.729396
C403	C	0.312399	-0.521477	-0.479396
C404	C	0.562399	-0.271477	-0.229396
C405	C	-0.216333	-0.978150	-0.955929
C406	C	0.033667	-0.728150	-0.705929
C407	C	0.283667	-0.478150	-0.455929
C408	C	0.533667	-0.228150	-0.205929
C409	C	-0.187715	-1.021380	-0.453921
C410	C	0.062285	-0.771380	-0.203921
C411	C	0.312285	-0.521380	0.046079
C412	C	0.562285	-0.271380	0.296079
C413	C	-0.187731	-1.021372	-0.407002
C414	C	0.062269	-0.771372	-0.157002
C415	C	0.312269	-0.521372	0.092998
C416	C	0.562269	-0.271372	0.342998
C417	C	-0.245188	-0.934736	-0.406988
C418	C	0.004812	-0.684736	-0.156988
C419	C	0.254812	-0.434736	0.093012
C420	C	0.504812	-0.184736	0.343012
C421	C	-0.245175	-0.934746	-0.453904
C422	C	0.004825	-0.684746	-0.203904
C423	C	0.254825	-0.434746	0.046096
C424	C	0.504825	-0.184746	0.296096
C425	C	-0.216435	-0.978071	-0.477369
C426	C	0.033565	-0.728071	-0.227369
C427	C	0.283565	-0.478071	0.022631
C428	C	0.533565	-0.228071	0.272631
O429	O	-0.269580	-0.897960	-0.528120
O430	O	-0.019580	-0.647960	-0.278120
O431	O	0.230420	-0.397960	-0.028120
O432	O	0.480420	-0.147960	0.221880
O433	O	-0.163257	-1.058221	-0.528187
O434	O	0.086743	-0.808221	-0.278187
O435	O	0.336743	-0.558221	-0.028187
O436	O	0.586743	-0.308221	0.221813
C437	C	-0.187646	-1.021424	-0.740111
C438	C	0.062354	-0.771424	-0.490111
C439	C	0.312354	-0.521424	-0.240111
C440	C	0.562354	-0.271424	0.009889
C441	C	-0.216367	-0.978111	-0.763559
C442	C	0.033633	-0.728111	-0.513559
C443	C	0.283633	-0.478111	-0.263559
C444	C	0.533633	-0.228111	-0.013559
C445	C	-0.245100	-0.934791	-0.740092
C446	C	0.004900	-0.684791	-0.490092
C447	C	0.254900	-0.434791	-0.240092
C448	C	0.504900	-0.184791	0.009908
C449	C	-0.216359	-0.978121	-0.810477
C450	C	0.033641	-0.728121	-0.560477
C451	C	0.283641	-0.478121	-0.310477
C452	C	0.533641	-0.228121	-0.060477
C453	C	-0.187626	-1.021440	-0.833945
C454	C	0.062374	-0.771440	-0.583945
C455	C	0.312374	-0.521440	-0.333945
C456	C	0.562374	-0.271440	-0.083945
C457	C	-0.158901	-1.064750	-0.810494
C458	C	0.091099	-0.814750	-0.560494
C459	C	0.341099	-0.564750	-0.310494
C460	C	0.591099	-0.314750	-0.060494
C461	C	-0.158913	-1.064744	-0.763579
C462	C	0.091087	-0.814744	-0.513579
C463	C	0.341087	-0.564744	-0.263579
C464	C	0.591087	-0.314744	-0.013579
C465	C	-0.273824	-0.891482	-0.763542
C466	C	-0.023824	-0.641482	-0.513542
C467	C	0.226176	-0.391482	-0.263542
C468	C	0.476176	-0.141482	-0.013542
C469	C	-0.273811	-0.891492	-0.810457
C470	C	-0.023811	-0.641492	-0.560457
C471	C	0.226189	-0.391492	-0.310457
C472	C	0.476189	-0.141492	-0.060457
C473	C	-0.245078	-0.934812	-0.833925
C474	C	0.004922	-0.684812	-0.583925
C475	C	0.254922	-0.434812	-0.333925
C476	C	0.504922	-0.184812	-0.083925
C477	C	-0.216441	-0.978047	-0.099699
C478	C	0.033559	-0.728047	0.150301
C479	C	0.283559	-0.478047	0.400301
C480	C	0.533559	-0.228047	0.650301
C481	C	-0.216316	-0.978170	-0.049764
C482	C	0.033684	-0.728170	0.200236
C483	C	0.283684	-0.478170	0.450236
C484	C	0.533684	-0.228170	0.700236
H485	H	-0.472519	-1.056451	-0.268584
H486	H	-0.222519	-0.806451	-0.018584
H487	H	0.027481	-0.556451	0.231416
H488	H	0.277481	-0.306451	0.481416
H489	H	-0.603420	-0.856270	-0.135503
H490	H	-0.353420	-0.606270	0.114497
H491	H	-0.103420	-0.356270	0.364497
H492	H	0.146580	-0.106270	0.614497
O493	O	-0.156748	-1.068095	-0.381714
O494	O	0.093252	-0.818095	-0.131714
O495	O	0.343252	-0.568095	0.118286
O496	O	0.593252	-0.318095	0.368286
H497	H	-0.176862	-1.102513	-0.360341
H498	H	0.073138	-0.852513	-0.110341
H499	H	0.323138	-0.602513	0.139659
H500	H	0.573138	-0.352513	0.389659
O501	O	-1.051113	-1.068106	-0.276274
O502	O	-0.801113	-0.818106	-0.026274
O503	O	-0.551113	-0.568106	0.223726
O504	O	-0.301113	-0.318106	0.473726
H505	H	-1.087685	-1.060844	-0.271447
H506	H	-0.837685	-0.810844	-0.021447
H507	H	-0.587685	-0.560844	0.228553
H508	H	-0.337685	-0.310844	0.478553
H509	H	-0.268676	-0.720351	-0.268433
H510	H	-0.018676	-0.470351	-0.018433
H511	H	0.231324	-0.220351	0.231567
H512	H	0.481324	0.029649	0.481567
H513	H	-0.164255	-0.720389	-0.164393
H514	H	0.085745	-0.470389	0.085607
H515	H	0.335745	-0.220389	0.335607
H516	H	0.585745	0.029611	0.585607
O517	O	-0.304808	-0.844732	-0.738242
O518	O	-0.054808	-0.594732	-0.488242
O519	O	0.195192	-0.344732	-0.238242
O520	O	0.445192	-0.094732	0.011758
H521	H	-0.340067	-0.856294	-0.747240
H522	H	-0.090067	-0.606294	-0.497240
H523	H	0.159933	-0.356294	-0.247240
H524	H	0.409933	-0.106294	0.002760
O525	O	-0.156664	-0.582798	-0.156819
O526	O	0.093336	-0.332798	0.093181
O527	O	0.343336	-0.082798	0.343181
O528	O	0.593336	0.167202	0.593181
H529	H	-0.121414	-0.596384	-0.164592
H530	H	0.128586	-0.346384	0.085408
H531	H	0.378586	-0.096384	0.335408
H532	H	0.628586	0.153616	0.585408
O533	O	-0.127911	-1.111474	-0.835813
O534	O	0.122089	-0.861474	-0.585813
O535	O	0.372089	-0.611474	-0.335813
O536	O	0.622089	-0.361474	-0.085813
H537	H	-0.107939	-1.141598	-0.811630
H538	H	0.142061	-0.891598	-0.561630
H539	H	0.392061	-0.641598	-0.311630
H540	H	0.642061	-0.391598	-0.061630
H541	H	-0.164311	-1.056656	-0.473021
H542	H	0.085689	-0.806656	-0.223021
H543	H	0.335689	-0.556656	0.026979
H544	H	0.585689	-0.306656	0.276979
O545	O	-0.276311	-0.226980	-0.276015
O546	O	-0.026311	0.023020	-0.026015
O547	O	0.223689	0.273020	0.223985
O548	O	0.473689	0.523020	0.473985
H549	H	-0.311552	-0.240514	-0.268213
H550	H	-0.061552	0.009486	-0.018213
H551	H	0.188448	0.259486	0.231787
H552	H	0.438448	0.509486	0.481787
H553	H	-0.164275	-0.236386	-0.164416
H554	H	0.085725	0.013614	0.085584
H555	H	0.335725	0.263614	0.335584
H556	H	0.585725	0.513614	0.585584
O557	O	-0.127965	-1.111443	-0.597544
O558	O	0.122035	-0.861443	-0.347544
O559	O	0.372035	-0.611443	-0.097544
O560	O	0.622035	-0.361443	0.152456
H561	H	-0.107984	-1.141558	-0.621751
H562	H	0.142016	-0.891558	-0.371751
H563	H	0.392016	-0.641558	-0.121751
H564	H	0.642016	-0.391558	0.128249
O565	O	-0.127946	-1.111463	-0.695056
O566	O	0.122054	-0.861463	-0.445056
O567	O	0.372054	-0.611463	-0.195056
O568	O	0.622054	-0.361463	0.054944
H569	H	-0.107982	-1.141579	-0.670862
H570	H	0.142018	-0.891579	-0.420862
H571	H	0.392018	-0.641579	-0.170862
H572	H	0.642018	-0.391579	0.079138
O573	O	-0.381200	-1.067864	-0.276156
O574	O	-0.131200	-0.817864	-0.026156
O575	O	0.118800	-0.567864	0.223844
O576	O	0.368800	-0.317864	0.473844
H577	H	-0.359822	-1.037546	-0.298991
H578	H	-0.109822	-0.787546	-0.048991
H579	H	0.140178	-0.537546	0.201009
H580	H	0.390178	-0.287546	0.451009
H581	H	-0.268677	-0.592117	-0.268443
H582	H	-0.018677	-0.342117	-0.018443
H583	H	0.231323	-0.092117	0.231557
H584	H	0.481323	0.157883	0.481557
H585	H	-0.164211	-1.056749	-0.960307
H586	H	0.085789	-0.806749	-0.710307
H587	H	0.335789	-0.556749	-0.460307
H588	H	0.585789	-0.306749	-0.210307
H589	H	-0.164194	-1.056757	-1.045430
H590	H	0.085806	-0.806757	-0.795430
H591	H	0.335806	-0.556757	-0.545430
H592	H	0.585806	-0.306757	-0.295430
H593	H	-0.268568	-0.899480	-0.472996
H594	H	-0.018568	-0.649480	-0.222996
H595	H	0.231432	-0.399480	0.027004
H596	H	0.481432	-0.149480	0.277004
H597	H	-0.164271	-0.364620	-0.164407
H598	H	0.085729	-0.114620	0.085593
H599	H	0.335729	0.135380	0.335593
H600	H	0.585729	0.385380	0.585593
H601	H	-0.297234	-0.856180	-0.688789
H602	H	-0.047234	-0.606180	-0.438789
H603	H	0.202766	-0.356180	-0.188789
H604	H	0.452766	-0.106180	0.061211
H605	H	-0.268443	-0.899585	-1.045384
H606	H	-0.018443	-0.649585	-0.795384
H607	H	0.231557	-0.399585	-0.545384
H608	H	0.481557	-0.149585	-0.295384
H609	H	-0.268686	-0.364591	-0.268453
H610	H	-0.018686	-0.114591	-0.018453
H611	H	0.231314	0.135409	0.231547
H612	H	0.481314	0.385409	0.481547
H613	H	-0.603190	-1.099760	-0.297358
H614	H	-0.353190	-0.849760	-0.047358
H615	H	-0.103190	-0.599760	0.202642
H616	H	0.146810	-0.349760	0.452642
H617	H	-0.959962	-0.899679	-0.164302
H618	H	-0.709962	-0.649679	0.085698
H619	H	-0.459962	-0.399679	0.335698
H620	H	-0.209962	-0.149679	0.585698
O621	O	-0.276035	-0.888086	-0.954070
O622	O	-0.026035	-0.638086	-0.704070
O623	O	0.223965	-0.388086	-0.454070
O624	O	0.473965	-0.138086	-0.204070
H625	H	-0.296001	-0.857971	-0.978263
H626	H	-0.046001	-0.607971	-0.728263
H627	H	0.203999	-0.357971	-0.478263
H628	H	0.453999	-0.107971	-0.228263
H629	H	-0.297243	-0.856158	-0.603681
H630	H	-0.047243	-0.606158	-0.353681
H631	H	0.202757	-0.356158	-0.103681
H632	H	0.452757	-0.106158	0.146319
O633	O	-0.276175	-0.888009	-0.381673
O634	O	-0.026175	-0.638009	-0.131673
O635	O	0.223825	-0.388009	0.118327
O636	O	0.473825	-0.138009	0.368327
H637	H	-0.271350	-0.895279	-0.345110
H638	H	-0.021350	-0.645279	-0.095110
H639	H	0.228650	-0.395279	0.154890
H640	H	0.478650	-0.145279	0.404890
O641	O	-0.127931	-1.111462	-0.738291
O642	O	0.122069	-0.861462	-0.488291
O643	O	0.372069	-0.611462	-0.238291
O644	O	0.622069	-0.361462	0.011709
H645	H	-0.107950	-1.141578	-0.762498
H646	H	0.142050	-0.891578	-0.512498
H647	H	0.392050	-0.641578	-0.262498
H648	H	0.642050	-0.391578	-0.012498
O649	O	-0.478899	-0.888064	-0.156625
O650	O	-0.228899	-0.638064	0.093375
O651	O	0.021101	-0.388064	0.343375
O652	O	0.271101	-0.138064	0.593375
H653	H	-0.454733	-0.857976	-0.136626
H654	H	-0.204733	-0.607976	0.113374
H655	H	0.045267	-0.357976	0.363374
H656	H	0.295267	-0.107976	0.613374
O657	O	-0.304790	-0.844764	-0.835746
O658	O	-0.054790	-0.594764	-0.585746
O659	O	0.195210	-0.344764	-0.335746
O660	O	0.445210	-0.094764	-0.085746
H661	H	-0.324766	-0.814637	-0.811541
H662	H	-0.074766	-0.564637	-0.561541
H663	H	0.175234	-0.314637	-0.311541
H664	H	0.425234	-0.064637	-0.061541
H665	H	-0.688296	-1.099790	-0.297374
H666	H	-0.438296	-0.849790	-0.047374
H667	H	-0.188296	-0.599790	0.202626
H668	H	0.061704	-0.349790	0.452626
O669	O	-1.051282	-0.888296	-0.156707
O670	O	-0.801282	-0.638296	0.093293
O671	O	-0.551282	-0.388296	0.343293
O672	O	-0.301282	-0.138296	0.593293
H673	H	-1.087842	-0.895578	-0.161536
H674	H	-0.837842	-0.645578	0.088464
H675	H	-0.587842	-0.395578	0.338464
H676	H	-0.337842	-0.145578	0.588464
H677	H	-0.688528	-0.856305	-0.135510
H678	H	-0.438528	-0.606305	0.114490
H679	H	-0.188528	-0.356305	0.364490
H680	H	0.061472	-0.106305	0.614490
H681	H	-0.959805	-1.056650	-0.268653
H682	H	-0.709805	-0.806650	-0.018653
H683	H	-0.459805	-0.556650	0.231347
H684	H	-0.209805	-0.306650	0.481347
O685	O	-0.381374	-0.888026	-0.156608
O686	O	-0.131374	-0.638026	0.093392
O687	O	0.118626	-0.388026	0.343392
O688	O	0.368626	-0.138026	0.593392
H689	H	-0.344802	-0.895280	-0.161439
H690	H	-0.094802	-0.645280	0.088561
H691	H	0.155198	-0.395280	0.338561
H692	H	0.405198	-0.145280	0.588561
H693	H	-0.829056	-1.099837	-0.297394
H694	H	-0.579056	-0.849837	-0.047394
H695	H	-0.329056	-0.599837	0.202606
H696	H	-0.079056	-0.349837	0.452606
O697	O	-0.737727	-1.111251	-0.304979
O698	O	-0.487727	-0.861251	-0.054979
O699	O	-0.237727	-0.611251	0.195021
O700	O	0.012273	-0.361251	0.445021
H701	H	-0.746717	-1.099610	-0.340233
H702	H	-0.496717	-0.849610	-0.090233
H703	H	-0.246717	-0.599610	0.159767
H704	H	0.003283	-0.349610	0.409767
O705	O	-0.835499	-0.844939	-0.127936
O706	O	-0.585499	-0.594939	0.122064
O707	O	-0.335499	-0.344939	0.372064
O708	O	-0.085499	-0.094939	0.622064
H709	H	-0.811329	-0.814849	-0.107941
H710	H	-0.561329	-0.564849	0.142059
H711	H	-0.311329	-0.314849	0.392059
H712	H	-0.061329	-0.064849	0.642059
H713	H	-0.744177	-0.856341	-0.135520
H714	H	-0.494177	-0.606341	0.114480
H715	H	-0.244177	-0.356341	0.364480
H716	H	0.005823	-0.106341	0.614480
