data_functionalizedCrystal
_audit_creation_method	'MofGen! by Chris Wilmer'
_symmetry_space_group_name_H-M	'P1'
_symmetry_Int_Tables_number	1
_symmetry_cell_setting	triclinic
loop_
_symmetry_equiv_pos_as_xyz
  x,y,z
_cell_length_a	10.654550
_cell_length_b	16.992695
_cell_length_c	9.730223
_cell_angle_alpha	89.995280
_cell_angle_beta	89.999957
_cell_angle_gamma	87.576577
loop_
_atom_site_label
_atom_site_type_symbol
_atom_site_fract_x
_atom_site_fract_y
_atom_site_fract_z
O1	O	1.677361	0.110190	-0.114188
O2	O	1.312790	0.120688	-0.114214
O3	O	1.493614	0.001288	-0.114190
O4	O	1.496537	0.229590	-0.114212
O5	O	1.493601	0.001285	0.114390
O6	O	1.312777	0.120685	0.114366
O7	O	1.677349	0.110187	0.114391
Zn8	Zn	1.495061	0.115435	0.150671
Zn9	Zn	1.495078	0.115439	-0.150493
O10	O	1.496525	0.229586	0.114368
C11	C	1.265919	0.119916	0.000073
C12	C	1.126277	0.117609	0.000064
C13	C	1.052866	0.187910	0.000061
C14	C	0.921658	0.185738	0.000085
C15	C	0.937282	0.042959	0.000109
C16	C	1.068488	0.045132	0.000095
C17	C	1.489848	-0.027946	0.000099
C18	C	1.478628	-0.115051	0.000098
C19	C	1.586879	-0.164703	0.000107
C20	C	1.576330	-0.246547	0.000093
C21	C	1.457529	-0.278738	0.000080
C22	C	1.349270	-0.229080	0.000067
C23	C	1.359820	-0.147237	0.000071
C24	C	1.413802	-0.522573	0.000058
C25	C	1.403260	-0.604422	0.000059
C26	C	1.630321	-0.621884	0.000082
C27	C	1.640861	-0.540039	0.000094
C28	C	1.532602	-0.490388	0.000074
N29	N	1.446743	-0.362395	0.000071
N30	N	1.543389	-0.406733	0.000074
C31	C	1.724220	0.110959	0.000102
C32	C	1.863862	0.113265	0.000102
C33	C	1.500291	0.258821	0.000075
C34	C	1.511510	0.345926	0.000068
N35	N	1.495059	0.115432	0.356207
N36	N	1.495089	0.115437	-0.356030
C37	C	1.575159	0.062584	0.428144
C38	C	1.575171	0.062584	0.572026
C39	C	1.414980	0.168287	0.572024
C40	C	1.414962	0.168282	0.428144
H41	H	0.861892	0.242984	0.000086
H42	H	1.271671	-0.106811	0.000064
O43	O	1.653102	0.011221	0.641692
C44	C	1.723763	-0.035438	0.547340
H45	H	1.728393	-0.003265	0.444771
H46	H	1.822912	-0.046821	0.588900
H47	H	1.677124	-0.093958	0.532053
O48	O	1.308677	-0.474320	-0.000196
C49	C	1.307997	-0.426439	-0.118564
H50	H	1.369254	-0.456050	-0.201302
H51	H	1.207709	-0.417794	-0.158309
H52	H	1.346477	-0.366755	-0.091798
O53	O	1.337245	0.219734	0.641751
C54	C	1.365466	0.297516	0.606591
H55	H	1.413880	0.297696	0.502119
H56	H	1.274889	0.335600	0.601667
H57	H	1.430447	0.322147	0.687554
O58	O	1.681452	-0.294808	-0.000142
C59	C	1.682145	-0.342674	-0.118516
H60	H	1.620902	-0.313049	-0.201261
H61	H	1.782438	-0.351316	-0.158244
H62	H	1.643656	-0.402360	-0.091765
O63	O	1.337019	0.219515	0.358192
C64	C	1.255304	0.177045	0.274961
H65	H	1.246981	0.115164	0.318344
H66	H	1.158644	0.208474	0.273325
H67	H	1.294210	0.173154	0.165915
O68	O	1.287824	-0.635659	-0.000210
C69	C	1.221340	-0.610333	-0.118591
H70	H	1.290676	-0.592935	-0.201320
H71	H	1.162924	-0.660199	-0.158338
H72	H	1.156659	-0.557388	-0.091841
H73	H	1.640376	0.019549	0.369576
H74	H	1.099913	0.246926	0.000046
H75	H	0.890215	-0.016050	0.000142
H76	H	1.737601	-0.513836	0.000105
O77	O	1.233769	-0.260217	-0.000011
C78	C	1.140486	-0.198840	0.000013
H79	H	1.181294	-0.143058	-0.043256
H80	H	1.058044	-0.216375	-0.066361
H81	H	1.106690	-0.187456	0.109670
O82	O	1.139940	-0.023111	-0.000090
C83	C	1.216271	-0.026133	-0.118497
H84	H	1.229136	0.036175	-0.157977
H85	H	1.311846	-0.054816	-0.091876
H86	H	1.169557	-0.062201	-0.201384
O87	O	1.702381	-0.133567	0.000055
C88	C	1.795661	-0.194945	0.000090
H89	H	1.754857	-0.250722	-0.043186
H90	H	1.878112	-0.177405	-0.066272
H91	H	1.829446	-0.206341	0.109752
O92	O	1.735349	-0.670228	0.000029
C93	C	1.700570	-0.749367	0.000056
H94	H	1.601563	-0.753039	-0.043223
H95	H	1.769069	-0.786043	-0.066306
H96	H	1.702956	-0.773014	0.109716
