data_functionalizedCrystal
_audit_creation_method	'MofGen! by Chris Wilmer'
_symmetry_space_group_name_H-M	'P1'
_symmetry_Int_Tables_number	1
_symmetry_cell_setting	triclinic
loop_
_symmetry_equiv_pos_as_xyz
  x,y,z
_cell_length_a	19.188930
_cell_length_b	11.792241
_cell_length_c	10.268362
_cell_angle_alpha	90.000374
_cell_angle_beta	89.989600
_cell_angle_gamma	96.330901
loop_
_atom_site_label
_atom_site_type_symbol
_atom_site_fract_x
_atom_site_fract_y
_atom_site_fract_z
O1	O	0.095695	-1.505476	-0.108190
O2	O	0.595695	-1.005476	0.391810
O3	O	0.105558	-1.174988	-0.108222
O4	O	0.605558	-0.674988	0.391778
O5	O	-0.000975	-1.349769	-0.108179
O6	O	0.499025	-0.849769	0.391821
O7	O	0.202228	-1.330695	-0.108232
O8	O	0.702228	-0.830695	0.391768
O9	O	-0.000980	-1.349754	0.108421
O10	O	0.499020	-0.849754	0.608421
O11	O	0.105553	-1.174973	0.108379
O12	O	0.605553	-0.674973	0.608379
O13	O	0.095691	-1.505461	0.108411
O14	O	0.595691	-1.005461	0.608411
Cu15	Cu	0.100622	-1.340216	0.128172
Cu16	Cu	0.600622	-0.840216	0.628172
Cu17	Cu	0.100627	-1.340233	-0.127983
Cu18	Cu	0.600627	-0.840233	0.372017
O19	O	0.202224	-1.330680	0.108368
O20	O	0.702224	-0.830680	0.608368
C21	C	0.104936	-1.132699	0.000075
C22	C	0.604936	-0.632699	0.500075
C23	C	0.103082	-1.006713	0.000064
C24	C	0.603082	-0.506713	0.500064
C25	C	-0.026992	-1.349144	0.000125
C26	C	0.473008	-0.849144	0.500125
C27	C	-0.104507	-1.347290	0.000136
C28	C	0.395493	-0.847290	0.500136
C29	C	0.096313	-1.547751	0.000111
C30	C	0.596313	-1.047751	0.500111
C31	C	0.098167	-1.673737	0.000114
C32	C	0.598167	-1.173737	0.500114
C33	C	-0.148850	-1.449846	0.000152
C34	C	0.351150	-0.949846	0.500152
C35	C	-0.221684	-1.448104	0.000131
C36	C	0.278316	-0.948104	0.500131
C37	C	-0.250171	-1.343800	0.000120
C38	C	0.249829	-0.843800	0.500120
C39	C	-0.205818	-1.241230	0.000096
C40	C	0.294182	-0.741230	0.500096
C41	C	-0.132986	-1.242975	0.000104
C42	C	0.367014	-0.742975	0.500104
N43	N	-0.358629	-1.264067	0.073825
N44	N	0.141371	-0.764067	0.573825
N45	N	-0.427817	-1.262416	0.073820
N46	N	0.072183	-0.762416	0.573820
C47	C	-0.469609	-1.338536	0.000093
C48	C	0.030391	-0.838536	0.500093
N49	N	-0.439602	-1.416387	-0.073614
N50	N	0.060398	-0.916387	0.426386
N51	N	-0.370407	-1.418041	-0.073603
N52	N	0.129593	-0.918041	0.426397
C53	C	-0.329144	-1.341896	0.000110
C54	C	0.170856	-0.841896	0.500110
C55	C	-0.592928	-1.439211	0.000084
C56	C	-0.092928	-0.939211	0.500084
C57	C	-0.665762	-1.437464	0.000055
C58	C	-0.165762	-0.937464	0.500055
C59	C	-0.649895	-1.230588	0.000034
C60	C	-0.149895	-0.730588	0.500034
C61	C	-0.577062	-1.232337	0.000050
C62	C	-0.077062	-0.732337	0.500050
C63	C	-0.548583	-1.336652	0.000081
C64	C	-0.048583	-0.836652	0.500081
C65	C	0.228240	-1.331305	0.000062
C66	C	0.728240	-0.831305	0.500062
C67	C	0.305755	-1.333159	0.000042
C68	C	0.805755	-0.833159	0.500042
N69	N	0.100617	-1.340211	0.308338
N70	N	0.600617	-0.840211	0.808338
C71	C	0.099672	-0.776051	0.000102
C72	C	0.599672	-0.276051	0.500102
C73	C	0.101566	-0.904408	0.000081
C74	C	0.601566	-0.404408	0.500081
N75	N	0.100625	-1.340247	-0.308149
N76	N	0.600625	-0.840247	0.191851
C77	C	0.100625	-1.340228	0.574009
C78	C	0.600625	-0.840228	1.074009
C79	C	0.100623	-1.340215	0.426171
C80	C	0.600623	-0.840215	0.926171
H81	H	-0.125667	-1.534787	0.000173
H82	H	0.374333	-1.034787	0.500173
N83	N	-0.236534	-1.128725	0.000086
N84	N	0.263466	-0.628725	0.500086
H85	H	-0.266391	-1.123396	-0.080208
H86	H	0.233609	-0.623396	0.419792
H87	H	-0.266370	-1.123449	0.080433
H88	H	0.233630	-0.623449	0.580433
N89	N	-0.529229	-1.121722	0.000040
N90	N	-0.029229	-0.621722	0.500040
H91	H	-0.558325	-1.055380	0.000031
H92	H	-0.058325	-0.555380	0.500031
H93	H	-0.498675	-1.117935	0.080340
H94	H	0.001325	-0.617935	0.580340
N95	N	-0.085153	-1.132357	0.000086
N96	N	0.414847	-0.632357	0.500086
H97	H	-0.114249	-1.066013	0.000071
H98	H	0.385751	-0.566013	0.500071
H99	H	-0.054601	-1.128569	0.080388
H100	H	0.445399	-0.628569	0.580388
H101	H	-0.701866	-1.520981	0.000061
H102	H	-0.201866	-1.020981	0.500061
N103	N	-0.269523	-1.558721	0.000145
N104	N	0.230477	-1.058721	0.500145
H105	H	-0.240430	-1.625067	0.000164
H106	H	0.259570	-1.125067	0.500164
H107	H	-0.300095	-1.562486	0.080441
H108	H	0.199905	-1.062486	0.580441
H109	H	-0.569739	-1.524150	0.000104
H110	H	-0.069739	-1.024150	0.500104
N111	N	-0.680603	-1.118079	0.000019
N112	N	-0.180603	-0.618079	0.500019
H113	H	-0.710456	-1.112746	-0.080280
H114	H	-0.210456	-0.612746	0.419720
H115	H	-0.710442	-1.112801	0.080361
H116	H	-0.210442	-0.612801	0.580361
