data_functionalizedCrystal
_audit_creation_method	'MofGen! by Chris Wilmer'
_symmetry_space_group_name_H-M	'P1'
_symmetry_Int_Tables_number	1
_symmetry_cell_setting	triclinic
loop_
_symmetry_equiv_pos_as_xyz
  x,y,z
_cell_length_a	16.109301
_cell_length_b	17.038272
_cell_length_c	14.586319
_cell_angle_alpha	89.995924
_cell_angle_beta	89.999213
_cell_angle_gamma	87.286518
loop_
_atom_site_label
_atom_site_type_symbol
_atom_site_fract_x
_atom_site_fract_y
_atom_site_fract_z
O1	O	1.110268	0.100495	-0.076183
O2	O	1.610268	0.600495	0.423817
O3	O	0.869094	0.113001	-0.076198
O4	O	1.369094	0.613001	0.423802
O5	O	0.988248	-0.007067	-0.076183
O6	O	1.488248	0.492933	0.423817
O7	O	0.991114	0.220564	-0.076198
O8	O	1.491114	0.720564	0.423802
O9	O	0.988239	-0.007069	0.076298
O10	O	1.488239	0.492931	0.576298
O11	O	0.869085	0.113000	0.076283
O12	O	1.369085	0.613000	0.576283
O13	O	1.110259	0.100493	0.076298
O14	O	1.610259	0.600493	0.576298
Cu15	Cu	0.989671	0.106746	0.090213
Cu16	Cu	1.489671	0.606746	0.590213
Cu17	Cu	0.989682	0.106748	-0.090113
Cu18	Cu	1.489682	0.606748	0.409887
O19	O	0.991105	0.220562	0.076283
O20	O	1.491105	0.720562	0.576283
C21	C	0.838079	0.112494	0.000041
C22	C	1.338079	0.612494	0.500041
C23	C	0.745676	0.110975	0.000035
C24	C	1.245676	0.610975	0.500035
C25	C	0.528212	0.178690	0.000042
C26	C	1.028212	0.678690	0.500042
C27	C	0.441390	0.177257	0.000048
C28	C	0.941390	0.677257	0.500048
C29	C	0.451147	0.034799	0.000053
C30	C	0.951147	0.534799	0.500053
C31	C	0.537968	0.036233	0.000054
C32	C	1.037968	0.536233	0.500054
C33	C	0.576498	0.108181	0.000043
C34	C	1.076498	0.608181	0.500043
C35	C	0.402855	0.105314	0.000049
C36	C	0.902855	0.605314	0.500049
C37	C	0.308719	0.103759	0.000055
C38	C	0.808719	0.603759	0.500055
C39	C	0.670640	0.109736	0.000039
C40	C	1.170640	0.609736	0.500039
C41	C	0.985636	-0.036196	0.000057
C42	C	1.485636	0.463804	0.500057
C43	C	0.977857	-0.122989	0.000056
C44	C	1.477857	0.377011	0.500056
C45	C	1.049277	-0.173104	0.000062
C46	C	1.549277	0.326896	0.500062
C47	C	1.041963	-0.254654	0.000052
C48	C	1.541963	0.245346	0.500052
C49	C	0.963228	-0.286089	0.000044
C50	C	1.463228	0.213911	0.500044
C51	C	0.891802	-0.235967	0.000036
C52	C	1.391802	0.264033	0.500036
C53	C	0.899116	-0.154418	0.000039
C54	C	1.399116	0.345582	0.500039
C55	C	0.937385	-0.531846	0.000030
C56	C	1.437385	-0.031846	0.500030
C57	C	0.930076	-0.613402	0.000031
C58	C	1.430076	-0.113402	0.500031
C59	C	1.080238	-0.632083	0.000045
C60	C	1.580238	-0.132083	0.500045
C61	C	1.087546	-0.550532	0.000053
C62	C	1.587546	-0.050532	0.500053
C63	C	1.016120	-0.500418	0.000040
C64	C	1.516120	-0.000418	0.500040
C65	C	0.955749	-0.369446	0.000038
C66	C	1.455749	0.130554	0.500038
C67	C	1.023599	-0.417062	0.000040
C68	C	1.523599	0.082938	0.500040
C69	C	1.141274	0.101001	0.000057
C70	C	1.641274	0.601001	0.500057
C71	C	1.233677	0.102519	0.000057
C72	C	1.733677	0.602519	0.500057
C73	C	0.993717	0.249691	0.000041
C74	C	1.493717	0.749691	0.500041
C75	C	1.001496	0.336484	0.000036
C76	C	1.501496	0.836484	0.500036
N77	N	0.989670	0.106744	0.217045
N78	N	1.489670	0.606744	0.717045
N79	N	0.989689	0.106744	-0.216945
N80	N	1.489689	0.606744	0.283055
C81	C	1.042451	0.053596	0.452058
C82	C	1.542451	0.553596	0.952058
C83	C	1.042453	0.053594	0.548039
C84	C	1.542453	0.553594	1.048039
C85	C	0.936902	0.159895	0.548036
C86	C	1.436902	0.659895	1.048036
C87	C	0.936896	0.159893	0.452056
C88	C	1.436896	0.659893	0.952056
C89	C	0.989675	0.106744	0.404070
C90	C	1.489675	0.606744	0.904070
C91	C	0.989684	0.106744	0.596030
C92	C	1.489684	0.606744	1.096030
C93	C	0.989686	0.106743	0.700098
C94	C	1.489686	0.606743	1.200098
C95	C	0.989672	0.106744	0.299996
C96	C	1.489672	0.606744	0.799996
H97	H	0.419765	-0.023778	0.000067
H98	H	0.919765	0.476222	0.500067
Br99	Br	1.114077	-0.018536	0.386937
Br100	Br	1.614077	0.481464	0.886937
Br101	Br	0.603504	-0.059465	0.000067
Br102	Br	1.103504	0.440535	0.500067
H103	H	0.893932	0.203169	0.587116
H104	H	1.393932	0.703169	1.087116
H105	H	0.893916	0.203173	0.412982
H106	H	1.393916	0.703173	0.912982
Br107	Br	0.823213	-0.656061	0.000029
Br108	Br	1.323213	-0.156061	0.500029
H109	H	1.138389	-0.672894	0.000053
H110	H	1.638389	-0.172894	0.500053
H111	H	0.827693	-0.261567	0.000024
H112	H	1.327693	0.238433	0.500024
Br113	Br	0.580501	0.276332	0.000031
Br114	Br	1.080501	0.776332	0.500031
H115	H	1.151661	-0.524945	0.000059
H116	H	1.651661	-0.024945	0.500059
Br117	Br	0.375862	0.272952	0.000050
Br118	Br	0.875862	0.772952	0.500050
Br119	Br	1.156138	-0.130452	0.000085
Br120	Br	1.656138	0.369548	0.500085
H121	H	0.879224	-0.491053	0.000020
H122	H	1.379224	0.008947	0.500020
H123	H	1.100122	-0.295455	0.000059
H124	H	1.600122	0.204545	0.500059
H125	H	0.840958	-0.113615	0.000035
H126	H	1.340958	0.386385	0.500035
Br127	Br	1.130451	-0.374400	0.000042
Br128	Br	1.630451	0.125600	0.500042
H129	H	1.085426	0.010315	0.587108
H130	H	1.585426	0.510315	1.087108
H131	H	0.891642	-0.395049	0.000034
H132	H	1.391642	0.104951	0.500034
