data_functionalizedCrystal
_audit_creation_method	'MofGen! by Chris Wilmer'
_symmetry_space_group_name_H-M	'P1'
_symmetry_Int_Tables_number	1
_symmetry_cell_setting	triclinic
loop_
_symmetry_equiv_pos_as_xyz
  x,y,z
_cell_length_a	19.288864
_cell_length_b	19.288865
_cell_length_c	18.366186
_cell_angle_alpha	89.988521
_cell_angle_beta	89.977106
_cell_angle_gamma	83.136245
loop_
_atom_site_label
_atom_site_type_symbol
_atom_site_fract_x
_atom_site_fract_y
_atom_site_fract_z
O1	O	0.921353	0.086649	-0.060791
O2	O	1.421353	0.586649	0.439209
O3	O	0.719092	0.098337	-0.060743
O4	O	1.219092	0.598337	0.439257
O5	O	0.826067	-0.008637	-0.060754
O6	O	1.326067	0.491363	0.439246
O7	O	0.814378	0.193623	-0.060780
O8	O	1.314378	0.693623	0.439220
O9	O	0.826049	-0.008643	0.060345
O10	O	1.326049	0.491357	0.560345
O11	O	0.719074	0.098332	0.060357
O12	O	1.219074	0.598332	0.560357
O13	O	0.921335	0.086643	0.060308
O14	O	1.421335	0.586643	0.560308
Zn15	Zn	0.820201	0.092487	0.079559
Zn16	Zn	1.320201	0.592487	0.579559
Zn17	Zn	0.820225	0.092494	-0.079994
Zn18	Zn	1.320225	0.592494	0.420006
O19	O	0.814360	0.193618	0.060319
O20	O	1.314360	0.693618	0.560319
C21	C	0.693207	0.097959	-0.000187
C22	C	1.193207	0.597959	0.499813
C23	C	0.616103	0.096830	-0.000167
C24	C	1.116103	0.596830	0.499833
C25	C	0.571407	0.159598	-0.000187
C26	C	1.071407	0.659598	0.499813
C27	C	0.498960	0.158537	-0.000195
C28	C	0.998960	0.658537	0.499805
C29	C	0.471212	0.094705	-0.000198
C30	C	0.971212	0.594705	0.499802
C31	C	0.515918	0.031929	-0.000174
C32	C	1.015918	0.531929	0.499826
C33	C	0.588364	0.032991	-0.000159
C34	C	1.088364	0.532991	0.499841
C35	C	0.362956	0.044527	-0.042642
C36	C	0.862956	0.544527	0.457358
C37	C	0.290512	0.043468	-0.042662
C38	C	0.790512	0.543468	0.457338
C39	C	0.247767	0.091425	-0.000241
C40	C	0.747767	0.591425	0.499759
C41	C	0.277473	0.140454	0.042189
C42	C	0.777473	0.640454	0.542189
C43	C	0.349918	0.141517	0.042205
C44	C	0.849918	0.641517	0.542205
C45	C	0.392658	0.093546	-0.000214
C46	C	0.892658	0.593546	0.499786
C47	C	0.124514	0.153047	-0.000269
C48	C	0.624514	0.653047	0.499731
C49	C	0.052066	0.151984	-0.000272
C50	C	0.552066	0.651984	0.499728
C51	C	0.069026	0.025374	-0.000259
C52	C	0.569026	0.525374	0.499741
C53	C	0.141473	0.026439	-0.000248
C54	C	0.641473	0.526439	0.499752
C55	C	0.169212	0.090278	-0.000256
C56	C	0.669212	0.590278	0.499744
C57	C	0.825682	-0.034516	-0.000202
C58	C	1.325682	0.465484	0.499798
C59	C	0.824553	-0.111620	-0.000195
C60	C	1.324553	0.388380	0.499805
C61	C	0.887321	-0.156316	-0.000207
C62	C	1.387321	0.343684	0.499793
C63	C	0.886260	-0.228763	-0.000218
C64	C	1.386260	0.271237	0.499782
C65	C	0.822428	-0.256511	-0.000203
C66	C	1.322428	0.243489	0.499797
C67	C	0.759652	-0.211805	-0.000196
C68	C	1.259652	0.288195	0.499804
C69	C	0.760714	-0.139359	-0.000192
C70	C	1.260714	0.360641	0.499808
C71	C	0.772242	-0.364800	0.042227
C72	C	1.272242	0.135200	0.542227
C73	C	0.771182	-0.437245	0.042228
C74	C	1.271182	0.062755	0.542228
C75	C	0.819148	-0.479956	-0.000219
C76	C	1.319148	0.020044	0.499781
C77	C	0.868186	-0.450216	-0.042657
C78	C	1.368186	0.049784	0.457343
C79	C	0.869248	-0.377771	-0.042653
C80	C	1.369248	0.122229	0.457347
C81	C	0.821269	-0.335065	-0.000208
C82	C	1.321269	0.164935	0.499792
C83	C	0.880770	-0.603209	-0.000244
C84	C	1.380770	-0.103209	0.499756
C85	C	0.879707	-0.675657	-0.000259
C86	C	1.379707	-0.175657	0.499741
C87	C	0.753097	-0.658697	-0.000230
C88	C	1.253097	-0.158697	0.499770
C89	C	0.754162	-0.586250	-0.000221
C90	C	1.254162	-0.086250	0.499779
C91	C	0.818001	-0.558511	-0.000225
C92	C	1.318001	-0.058511	0.499775
C93	C	0.947220	0.087022	-0.000250
C94	C	1.447220	0.587022	0.499750
C95	C	1.024324	0.088151	-0.000274
C96	C	1.524324	0.588151	0.499726
C97	C	0.814745	0.219497	-0.000234
C98	C	1.314745	0.719497	0.499766
C99	C	0.815874	0.296601	-0.000246
C100	C	1.315874	0.796601	0.499754
N101	N	0.820190	0.092482	0.188451
N102	N	1.320190	0.592482	0.688451
N103	N	0.820242	0.092493	-0.188885
N104	N	1.320242	0.592493	0.311115
C105	C	0.867574	0.045137	0.226546
C106	C	1.367574	0.545137	0.726546
C107	C	0.867578	0.045134	0.302774
C108	C	1.367578	0.545134	0.802774
C109	C	0.820206	0.092488	0.340903
C110	C	1.320206	0.592488	0.840903
C111	C	0.772813	0.139836	0.302799
C112	C	1.272813	0.639836	0.802799
C113	C	0.772805	0.139834	0.226572
C114	C	1.272805	0.639834	0.726572
C115	C	0.810907	0.155775	0.461657
C116	C	1.310907	0.655775	0.961657
C117	C	0.810920	0.155779	0.537882
C118	C	1.310920	0.655779	1.037882
C119	C	0.820225	0.092496	0.576011
C120	C	1.320225	0.592496	1.076011
C121	C	0.829533	0.029207	0.537905
C122	C	1.329533	0.529207	1.037905
C123	C	0.829525	0.029204	0.461679
C124	C	1.329525	0.529204	0.961679
C125	C	0.820208	0.092496	0.423558
C126	C	1.320208	0.592496	0.923558
C127	C	0.867617	0.045144	0.696761
C128	C	1.367617	0.545144	1.196761
C129	C	0.867616	0.045140	0.772990
C130	C	1.367616	0.545140	1.272990
C131	C	0.772854	0.139849	0.773014
C132	C	1.272854	0.639849	1.273014
C133	C	0.772851	0.139847	0.696786
C134	C	1.272851	0.639847	1.196786
C135	C	0.820236	0.092495	0.658664
C136	C	1.320236	0.592495	1.158664
H137	H	0.242671	0.179506	0.076733
H138	H	0.742671	0.679506	0.576733
H139	H	0.734219	0.178388	0.195554
H140	H	1.234219	0.678388	0.695554
H141	H	0.397755	0.005473	-0.077191
H142	H	0.897755	0.505473	0.422809
H143	H	0.462561	0.209652	-0.000209
H144	H	0.962561	0.709652	0.499791
H145	H	0.932751	-0.580622	-0.000250
H146	H	1.432751	-0.080622	0.499750
H147	H	0.939303	-0.133736	-0.000212
H148	H	1.439303	0.366264	0.499788
N149	N	0.258474	-0.009409	-0.088426
N150	N	0.758474	0.490591	0.411574
H151	H	0.296545	-0.039635	-0.115289
H152	H	0.796545	0.460365	0.384711
H153	H	0.232385	-0.039630	-0.055882
H154	H	0.732385	0.460370	0.444118
H155	H	0.909175	-0.353560	-0.077208
H156	H	1.409175	0.146440	0.422792
H157	H	0.493322	-0.020044	-0.000187
H158	H	0.993322	0.479956	0.499813
N159	N	0.839563	-0.039052	0.420580
N160	N	1.339563	0.460948	0.920580
H161	H	0.797392	-0.043066	0.388974
H162	H	1.297392	0.456934	0.888974
H163	H	0.882583	-0.040631	0.388976
H164	H	1.382583	0.459369	0.888976
N165	N	0.636572	-0.034715	-0.000137
N166	N	1.136572	0.465285	0.499863
H167	H	0.627695	-0.062574	-0.045026
H168	H	1.127695	0.437426	0.454974
H169	H	0.686656	-0.024300	-0.000101
H170	H	1.186656	0.475700	0.499899
N171	N	0.919928	-0.496273	-0.088440
N172	N	1.419928	0.003727	0.411560
H173	H	0.911814	-0.546680	-0.082008
H174	H	1.411814	-0.046680	0.417992
H175	H	0.913629	-0.482725	-0.141357
H176	H	1.413629	0.017275	0.358643
H177	H	0.937375	-0.265162	-0.000231
H178	H	1.437375	0.234838	0.499769
H179	H	0.593987	0.211580	-0.000195
H180	H	1.093987	0.711580	0.499805
H181	H	0.046435	-0.026600	-0.000306
H182	H	0.546435	0.473400	0.499694
H183	H	0.930822	-0.712049	-0.000273
H184	H	1.430822	-0.212049	0.499727
N185	N	0.720516	-0.318739	0.088029
N186	N	1.220516	0.181261	0.588029
H187	H	0.728631	-0.268333	0.081596
H188	H	1.228631	0.231667	0.581596
H189	H	0.671480	-0.324849	0.072192
H190	H	1.171480	0.175151	0.572192
H191	H	0.701123	-0.681288	-0.000221
H192	H	1.201123	-0.181288	0.499779
H193	H	0.906156	0.006579	0.195509
H194	H	1.406156	0.506579	0.695509
N195	N	0.918685	-0.005935	0.343875
N196	N	1.418685	0.494065	0.843875
H197	H	0.948700	-0.035933	0.308158
H198	H	1.448700	0.464067	0.808158
H199	H	0.949305	0.020586	0.375478
H200	H	1.449305	0.520586	0.875478
H201	H	0.803318	0.207311	0.430619
H202	H	1.303318	0.707311	0.930619
N203	N	0.839574	-0.039055	0.579018
N204	N	1.339574	0.460945	1.079018
H205	H	0.838164	-0.029453	0.633088
H206	H	1.338164	0.470547	1.133088
H207	H	0.801051	-0.067885	0.565718
H208	H	1.301051	0.432115	1.065718
N209	N	0.154434	0.221900	-0.000268
N210	N	0.654434	0.721900	0.499732
H211	H	0.184092	0.225160	0.044628
H212	H	0.684092	0.725160	0.544628
H213	H	0.184101	0.225126	-0.045185
H214	H	0.684101	0.725126	0.454815
H215	H	0.374102	0.181436	0.076756
H216	H	0.874102	0.681436	0.576756
H217	H	0.906200	0.006582	0.804008
H218	H	1.406200	0.506582	1.304008
H219	H	0.177866	-0.024674	-0.000236
H220	H	0.677866	0.475326	0.499764
N221	N	0.003877	0.219702	-0.000282
N222	N	0.503877	0.719702	0.499718
H223	H	-0.026542	0.222101	-0.045174
H224	H	0.473458	0.722101	0.454826
H225	H	-0.026532	0.222050	0.044639
H226	H	0.473468	0.722050	0.544639
N227	N	0.686462	-0.538036	-0.000205
N228	N	1.186462	-0.038036	0.499795
H229	H	0.645862	-0.566605	-0.000196
H230	H	1.145862	-0.066605	0.499804
H231	H	0.684139	-0.507619	0.044691
H232	H	1.184139	-0.007619	0.544691
N233	N	0.918719	-0.005927	0.655637
N234	N	1.418719	0.494073	1.155637
H235	H	0.948735	-0.035925	0.691341
H236	H	1.448735	0.464075	1.191341
H237	H	0.892225	-0.036566	0.624029
H238	H	1.392225	0.463434	1.124029
N239	N	0.721752	0.190918	0.814129
N240	N	1.221752	0.690918	1.314129
H241	H	0.748193	0.221610	0.845736
H242	H	1.248193	0.721610	1.345736
H243	H	0.691747	0.220864	0.778378
H244	H	1.191747	0.720864	1.278378
N245	N	0.718297	-0.469311	0.088006
N246	N	1.218297	0.030689	0.588006
H247	H	0.669614	-0.450156	0.072175
H248	H	1.169614	0.049844	0.572175
H249	H	0.724962	-0.521682	0.081555
H250	H	1.224962	-0.021682	0.581555
N251	N	0.690803	-0.241727	-0.000184
N252	N	1.190803	0.258273	0.499816
H253	H	0.699654	-0.294404	-0.000186
H254	H	1.199654	0.205596	0.499814
H255	H	0.663337	-0.225370	0.044715
H256	H	1.163337	0.274630	0.544715
N257	N	0.693012	-0.091146	-0.000180
N258	N	1.193012	0.408854	0.499820
H259	H	0.652411	-0.119713	-0.000175
H260	H	1.152411	0.380287	0.499825
H261	H	0.690688	-0.060730	0.044717
H262	H	1.190688	0.439270	0.544717
N263	N	0.721743	0.190912	0.655692
N264	N	1.221743	0.690912	1.155692
H265	H	0.691732	0.220910	0.691411
H266	H	1.191732	0.720910	1.191411
H267	H	0.748230	0.221552	0.624041
H268	H	1.248230	0.721552	1.124041
H269	H	0.803346	0.207313	0.568901
H270	H	1.303346	0.707313	1.068901
N271	N	0.721713	0.190908	0.343919
N272	N	1.221713	0.690908	0.843919
H273	H	0.728909	0.183727	0.397989
H274	H	1.228909	0.683727	0.897989
H275	H	0.729575	0.240164	0.330577
H276	H	1.229575	0.740164	0.830577
