data_functionalizedCrystal
_audit_creation_method	'MofGen! by Chris Wilmer'
_symmetry_space_group_name_H-M	'P1'
_symmetry_Int_Tables_number	1
_symmetry_cell_setting	triclinic
loop_
_symmetry_equiv_pos_as_xyz
  x,y,z
_cell_length_a	18.101398
_cell_length_b	18.050589
_cell_length_c	18.050582
_cell_angle_alpha	89.981795
_cell_angle_beta	89.979764
_cell_angle_gamma	90.023488
loop_
_atom_site_label
_atom_site_type_symbol
_atom_site_fract_x
_atom_site_fract_y
_atom_site_fract_z
Zn1	Zn	1.132106	-0.295800	-0.420040
Zn2	Zn	1.632106	0.204200	0.079960
Zn3	Zn	1.132017	-0.419984	-0.295860
Zn4	Zn	1.632017	0.080016	0.204140
Zn5	Zn	1.008274	-0.295802	-0.295853
Zn6	Zn	1.508274	0.204198	0.204147
Zn7	Zn	1.008222	-0.419943	-0.419997
Zn8	Zn	1.508222	0.080057	0.080003
O9	O	1.070155	-0.357882	-0.357937
O10	O	1.570155	0.142118	0.142063
O11	O	1.235727	-0.312290	-0.403589
O12	O	1.735727	0.187710	0.096411
O13	O	1.115587	-0.403528	-0.191934
O14	O	1.615587	0.096472	0.308066
O15	O	1.024759	-0.191877	-0.312342
O16	O	1.524759	0.308123	0.187658
O17	O	1.235662	-0.403527	-0.312354
O18	O	1.735662	0.096473	0.187646
O19	O	1.115738	-0.191876	-0.403582
O20	O	1.615738	0.308124	0.096418
O21	O	1.024673	-0.312292	-0.191929
O22	O	1.524673	0.187708	0.308071
O23	O	0.904634	-0.312253	-0.312300
O24	O	1.404634	0.187747	0.187700
O25	O	1.024671	-0.403457	-0.523927
O26	O	1.524671	0.096543	-0.023927
O27	O	0.904596	-0.403459	-0.403508
O28	O	1.404596	0.096541	0.096492
O29	O	1.115688	-0.312250	-0.523959
O30	O	1.615688	0.187750	-0.023959
O31	O	1.115536	-0.523903	-0.312311
O32	O	1.615536	-0.023903	0.187689
O33	O	1.024585	-0.523873	-0.403514
O34	O	1.524585	-0.023873	0.096486
C35	C	0.877744	-0.357852	-0.357899
C36	C	1.377744	0.142148	0.142101
C37	C	0.795430	-0.357857	-0.357900
C38	C	1.295430	0.142143	0.142100
C39	C	0.496339	-0.357903	-0.357962
C40	C	0.996339	0.142097	0.142038
C41	C	0.527663	-0.300232	-0.300857
C42	C	1.027663	0.199768	0.199143
C43	C	0.613282	-0.300387	-0.300613
C44	C	1.113282	0.199613	0.199387
C45	C	0.644722	-0.357880	-0.357931
C46	C	1.144722	0.142120	0.142069
C47	C	0.613609	-0.436109	-0.336553
C48	C	1.113609	0.063891	0.163447
C49	C	0.527964	-0.435788	-0.336156
C50	C	1.027964	0.064212	0.163844
C51	C	0.527947	-0.338025	-0.436581
C52	C	1.027947	0.161975	0.063419
C53	C	0.613598	-0.336283	-0.436152
C54	C	1.113598	0.163717	0.063848
C55	C	0.728581	-0.357871	-0.357915
C56	C	1.228581	0.142129	0.142085
C57	C	0.412480	-0.357917	-0.357977
C58	C	0.912480	0.142083	0.142023
C59	C	1.070065	-0.550834	-0.357925
C60	C	1.570065	-0.050834	0.142075
C61	C	1.070095	-0.633380	-0.357945
C62	C	1.570095	-0.133380	0.142055
C63	C	1.020684	-0.832841	-0.407524
C64	C	1.520684	-0.332841	0.092476
C65	C	1.002637	-0.882274	-0.339755
C66	C	1.502637	-0.382274	0.160245
C67	C	1.070167	-0.784510	-0.357954
C68	C	1.570167	-0.284510	0.142046
C69	C	1.088251	-0.882160	-0.425731
C70	C	1.588251	-0.382160	0.074269
C71	C	1.070236	-0.930495	-0.357970
C72	C	1.570236	-0.430495	0.142030
C73	C	1.052085	-0.832856	-0.290149
C74	C	1.552085	-0.332856	0.209851
C75	C	1.137730	-0.832737	-0.376172
C76	C	1.637730	-0.332737	0.123828
C77	C	1.119709	-0.882147	-0.308356
C78	C	1.619709	-0.382147	0.191644
C79	C	1.070126	-0.700412	-0.357947
C80	C	1.570126	-0.200412	0.142053
C81	C	1.070278	-1.014592	-0.357970
C82	C	1.570278	-0.514592	0.142030
C83	C	1.263316	-0.357913	-0.357977
C84	C	1.763316	0.142087	0.142023
C85	C	1.345631	-0.357926	-0.357994
C86	C	1.845631	0.142074	0.142006
C87	C	1.070184	-0.357849	-0.551643
C88	C	1.570184	0.142151	-0.051643
C89	C	1.070196	-0.357835	-0.634189
C90	C	1.570196	0.142165	-0.134189
C91	C	1.070265	-0.164177	-0.357966
C92	C	1.570265	0.335823	0.142034
C93	C	1.070311	-0.081631	-0.357978
C94	C	1.570311	0.418369	0.142022
C95	C	1.020739	-0.407366	-0.833622
C96	C	1.520739	0.092634	-0.333622
C97	C	1.088304	-0.425525	-0.883021
C98	C	1.588304	0.074475	-0.383021
C99	C	1.070233	-0.357779	-0.785319
C100	C	1.570233	0.142221	-0.285319
C101	C	1.002705	-0.339599	-0.883002
C102	C	1.502705	0.160401	-0.383002
C103	C	1.070262	-0.357725	-0.931305
C104	C	1.570262	0.142275	-0.431305
C105	C	1.137833	-0.375973	-0.833631
C106	C	1.637833	0.124027	-0.333631
C107	C	1.052188	-0.290016	-0.833608
C108	C	1.552188	0.209984	-0.333608
C109	C	1.119800	-0.308149	-0.882984
C110	C	1.619800	0.191851	-0.382984
C111	C	1.070215	-0.357811	-0.701221
C112	C	1.570215	0.142189	-0.201221
C113	C	1.070287	-0.357692	-1.015401
C114	C	1.570287	0.142308	-0.515401
C115	C	1.070168	-0.357861	-0.164985
C116	C	1.570168	0.142139	0.335015
C117	C	1.070299	-0.357666	-0.082440
C118	C	1.570299	0.142334	0.417560
H119	H	0.634318	-0.242377	-0.314013
H120	H	1.134318	0.257623	0.185987
H121	H	1.194969	-0.391392	-0.812035
H122	H	1.694969	0.108608	-0.312035
H123	H	1.036889	-0.232749	-0.811886
H124	H	1.536889	0.267251	-0.311886
H125	H	1.194821	-0.810964	-0.391599
H126	H	1.694821	-0.310964	0.108401
H127	H	1.036751	-0.811288	-0.232822
H128	H	1.536751	-0.311288	0.267178
H129	H	1.161716	-0.266192	-0.904521
H130	H	1.661716	0.233808	-0.404521
H131	H	0.945533	-0.904049	-0.324360
H132	H	1.445533	-0.404049	0.175640
C133	C	0.925545	-0.318850	-0.912301
C134	C	1.425545	0.181150	-0.412301
H135	H	0.928926	-0.275020	-0.941259
H136	H	1.428926	0.224980	-0.441259
H137	H	0.893132	-0.310632	-0.871731
H138	H	1.393132	0.189368	-0.371731
H139	H	0.906980	-0.358100	-0.942002
H140	H	1.406980	0.141900	-0.442002
H141	H	0.633938	-0.278715	-0.452272
H142	H	1.133938	0.221285	0.047728
C143	C	0.964249	-0.464082	-0.804335
C144	C	1.464249	0.035918	-0.304335
H145	H	0.928066	-0.439300	-0.775371
H146	H	1.428066	0.060700	-0.275371
H147	H	0.988872	-0.499837	-0.774658
H148	H	1.488872	0.000163	-0.274658
H149	H	0.940949	-0.488090	-0.844916
H150	H	1.440949	0.011910	-0.344916
C151	C	0.642506	-0.388890	-0.496715
C152	C	1.142506	0.111110	0.003285
H153	H	0.622828	-0.374539	-0.543344
H154	H	1.122828	0.125461	-0.043344
H155	H	0.627625	-0.438161	-0.485747
H156	H	1.127625	0.061839	0.014253
H157	H	0.694904	-0.386419	-0.498424
H158	H	1.194904	0.113581	0.001576
H159	H	0.507089	-0.242045	-0.314109
H160	H	1.007089	0.257955	0.185891
C161	C	0.498805	-0.262306	-0.462846
C162	C	0.998805	0.237694	0.037154
H163	H	0.518540	-0.251368	-0.510385
H164	H	1.018540	0.248632	-0.010385
H165	H	0.513473	-0.225035	-0.428739
H166	H	1.013473	0.274965	0.071261
H167	H	0.446418	-0.263808	-0.465624
H168	H	0.946418	0.236192	0.034376
C169	C	1.108965	-0.502908	-0.912325
C170	C	1.608965	-0.002908	-0.412325
H171	H	1.152681	-0.499535	-0.941274
H172	H	1.652681	0.000465	-0.441274
H173	H	1.069824	-0.521524	-0.942019
H174	H	1.569824	-0.021524	-0.442019
H175	H	1.117154	-0.535407	-0.871746
H176	H	1.617154	-0.035407	-0.371746
H177	H	0.506119	-0.313224	-0.242940
H178	H	1.006119	0.186776	0.257060
C179	C	1.108880	-0.911415	-0.503152
C180	C	1.608880	-0.411415	-0.003152
H181	H	1.073649	-0.894524	-0.538302
H182	H	1.573649	-0.394524	-0.038302
H183	H	1.109201	-0.964036	-0.502496
H184	H	1.609201	-0.464036	-0.002496
H185	H	1.156514	-0.893718	-0.516427
H186	H	1.656514	-0.393718	-0.016427
H187	H	1.161585	-0.903660	-0.266395
H188	H	1.661585	-0.403660	0.233605
H189	H	0.978776	-0.811191	-0.449383
H190	H	1.478776	-0.311191	0.050617
H191	H	0.507957	-0.452647	-0.278682
H192	H	1.007957	0.047353	0.221318
C193	C	0.640928	-0.318143	-0.221919
C194	C	1.140928	0.181857	0.278081
H195	H	0.693410	-0.318292	-0.221499
H196	H	1.193410	0.181708	0.278501
H197	H	0.623158	-0.365461	-0.207282
H198	H	1.123158	0.134539	0.292718
H199	H	0.623282	-0.281620	-0.188424
H200	H	1.123282	0.218380	0.311576
C201	C	0.499965	-0.495738	-0.389958
C202	C	0.999965	0.004262	0.110042
H203	H	0.540935	-0.520192	-0.411949
H204	H	1.040935	-0.020192	0.088051
H205	H	0.470852	-0.473273	-0.427531
H206	H	0.970852	0.026727	0.072469
H207	H	0.470844	-0.530728	-0.363599
H208	H	0.970844	-0.030728	0.136401
H209	H	0.633973	-0.480229	-0.376844
H210	H	1.133973	0.019771	0.123156
H211	H	0.635029	-0.453260	-0.279700
H212	H	1.135029	0.046740	0.220300
H213	H	0.507690	-0.380031	-0.479130
H214	H	1.007690	0.119969	0.020870
