data_functionalizedCrystal
_audit_creation_method	'MofGen! by Chris Wilmer'
_symmetry_space_group_name_H-M	'P1'
_symmetry_Int_Tables_number	1
_symmetry_cell_setting	triclinic
loop_
_symmetry_equiv_pos_as_xyz
  x,y,z
_cell_length_a	25.639239
_cell_length_b	18.050590
_cell_length_c	18.050582
_cell_angle_alpha	89.996382
_cell_angle_beta	89.975362
_cell_angle_gamma	89.974492
loop_
_atom_site_label
_atom_site_type_symbol
_atom_site_fract_x
_atom_site_fract_y
_atom_site_fract_z
Zn1	Zn	-0.208368	-1.135238	-0.419534
Zn2	Zn	0.291632	-0.635238	0.080466
Zn3	Zn	-0.295796	-1.135126	-0.295340
Zn4	Zn	0.204204	-0.635126	0.204660
Zn5	Zn	-0.208356	-1.011058	-0.295399
Zn6	Zn	0.291644	-0.511058	0.204601
Zn7	Zn	-0.295754	-1.010983	-0.419529
Zn8	Zn	0.204246	-0.510983	0.080471
O9	O	-0.252068	-1.073101	-0.357450
O10	O	0.247932	-0.573101	0.142550
O11	O	-0.219988	-1.239148	-0.403038
O12	O	0.280012	-0.739148	0.096962
O13	O	-0.284209	-1.118653	-0.191423
O14	O	0.215791	-0.618653	0.308577
O15	O	-0.135192	-1.027609	-0.311893
O16	O	0.364808	-0.527609	0.188107
O17	O	-0.284221	-1.239066	-0.311792
O18	O	0.215779	-0.739066	0.188208
O19	O	-0.135201	-1.118844	-0.403095
O20	O	0.364799	-0.618844	0.096905
O21	O	-0.219968	-1.027500	-0.191466
O22	O	0.280032	-0.527500	0.308534
O23	O	-0.219927	-0.907123	-0.311887
O24	O	0.280073	-0.407123	0.188113
O25	O	-0.284150	-1.027481	-0.523454
O26	O	0.215850	-0.527481	-0.023454
O27	O	-0.284138	-0.907068	-0.403085
O28	O	0.215862	-0.407068	0.096915
O29	O	-0.219947	-1.118771	-0.523458
O30	O	0.280053	-0.618771	-0.023458
O31	O	-0.368955	-1.118580	-0.311787
O32	O	0.131045	-0.618580	0.188213
O33	O	-0.368925	-1.027373	-0.403028
O34	O	0.131075	-0.527373	0.096972
C35	C	-0.252027	-0.880149	-0.357492
C36	C	0.247973	-0.380149	0.142508
C37	C	-0.252022	-0.797603	-0.357527
C38	C	0.247978	-0.297603	0.142473
C39	C	-0.287034	-0.598144	-0.407013
C40	C	0.212966	-0.098144	0.092987
C41	C	-0.239360	-0.548764	-0.425293
C42	C	0.260640	-0.048764	0.074707
C43	C	-0.252047	-0.646473	-0.357499
C44	C	0.247953	-0.146473	0.142501
C45	C	-0.299744	-0.548772	-0.339225
C46	C	0.200256	-0.048772	0.160775
C47	C	-0.252075	-0.500488	-0.357472
C48	C	0.247925	-0.000488	0.142528
C49	C	-0.204347	-0.598180	-0.375814
C50	C	0.295653	-0.098180	0.124186
C51	C	-0.264764	-0.598192	-0.289715
C52	C	0.235236	-0.098192	0.210285
C53	C	-0.217057	-0.548834	-0.307969
C54	C	0.282943	-0.048834	0.192031
C55	C	-0.252031	-0.730571	-0.357516
C56	C	0.247969	-0.230571	0.142484
C57	C	-0.252085	-0.416391	-0.357455
C58	C	0.247915	0.083609	0.142545
C59	C	-0.387911	-1.072976	-0.357416
C60	C	0.112089	-0.572976	0.142584
C61	C	-0.446025	-1.072991	-0.357427
C62	C	0.053975	-0.572991	0.142573
C63	C	-0.806391	-1.120717	-0.310022
C64	C	-0.306391	-0.620717	0.189978
C65	C	-0.860996	-1.120746	-0.310032
C66	C	-0.360996	-0.620746	0.189968
O67	O	-0.889235	-1.161195	-0.269690
O68	O	-0.389235	-0.661195	0.230310
N69	N	-0.888307	-1.073232	-0.357500
N70	N	-0.388307	-0.573232	0.142500
C71	C	-0.861012	-1.025691	-0.404966
C72	C	-0.361012	-0.525691	0.095034
O73	O	-0.889257	-0.985280	-0.445342
O74	O	-0.389257	-0.485280	0.054658
C75	C	-0.806409	-1.025667	-0.404959
C76	C	-0.306409	-0.525667	0.095041
C77	C	-0.779100	-1.073179	-0.357483
C78	C	-0.279100	-0.573179	0.142517
C79	C	-0.779083	-1.168226	-0.262551
C80	C	-0.279083	-0.668226	0.237449
C81	C	-0.724482	-1.168196	-0.262540
C82	C	-0.224482	-0.668196	0.237460
C83	C	-0.697190	-1.120657	-0.310001
C84	C	-0.197190	-0.620657	0.189999
C85	C	-0.724499	-1.073149	-0.357472
C86	C	-0.224499	-0.573149	0.142528
C87	C	-0.779114	-0.978130	-0.452428
C88	C	-0.279114	-0.478130	0.047572
C89	C	-0.724507	-0.978111	-0.452418
C90	C	-0.224507	-0.478111	0.047582
C91	C	-0.697198	-1.025622	-0.404942
C92	C	-0.197198	-0.525622	0.095058
C93	C	-0.642607	-1.025580	-0.404922
C94	C	-0.142607	-0.525580	0.095078
N95	N	-0.615295	-1.073094	-0.357455
N96	N	-0.115295	-0.573094	0.142545
C97	C	-0.642587	-1.120633	-0.309994
C98	C	-0.142587	-0.620633	0.190006
C99	C	-0.975683	-1.025747	-0.404977
C100	C	-0.475683	-0.525747	0.095023
C101	C	-1.030285	-1.025767	-0.404981
C102	C	-0.530285	-0.525767	0.095019
C103	C	-1.030265	-1.120823	-0.310048
C104	C	-0.530265	-0.620823	0.189952
C105	C	-0.975662	-1.120799	-0.310041
C106	C	-0.475662	-0.620799	0.189959
C107	C	-0.948371	-1.073261	-0.357510
C108	C	-0.448371	-0.573261	0.142490
C109	C	-0.527922	-1.120566	-0.309975
C110	C	-0.027922	-0.620566	0.190025
C111	C	-0.473317	-1.120529	-0.309966
C112	C	0.026683	-0.620529	0.190034
C113	C	-0.473341	-1.025477	-0.404901
C114	C	0.026659	-0.525477	0.095099
C115	C	-0.527942	-1.025510	-0.404907
C116	C	-0.027942	-0.525510	0.095093
C117	C	-0.555231	-1.073060	-0.357442
C118	C	-0.055231	-0.573060	0.142558
O119	O	-0.614333	-0.985154	-0.445246
O120	O	-0.114333	-0.485154	0.054754
O121	O	-0.614336	-1.161044	-0.269632
O122	O	-0.114336	-0.661044	0.230368
C123	C	-0.115695	-1.073247	-0.357501
C124	C	0.384305	-0.573247	0.142499
C125	C	-0.057581	-1.073309	-0.357522
C126	C	0.442419	-0.573309	0.142478
C127	C	-0.252045	-1.073130	-0.551156
C128	C	0.247955	-0.573130	-0.051156
C129	C	-0.252035	-1.073143	-0.633702
C130	C	0.247965	-0.573143	-0.133702
C131	C	-0.252103	-0.266807	-0.357422
C132	C	0.247897	0.233193	0.142578
C133	C	-0.252099	-0.349353	-0.357441
C134	C	0.247901	0.150647	0.142559
C135	C	-0.286901	-1.023537	-0.833150
C136	C	0.213099	-0.523537	-0.333150
C137	C	-0.299692	-1.091289	-0.882519
C138	C	0.200308	-0.591289	-0.382519
C139	C	-0.251995	-1.073179	-0.784832
C140	C	0.248005	-0.573179	-0.284832
C141	C	-0.239190	-1.005465	-0.882545
C142	C	0.260810	-0.505465	-0.382545
C143	C	-0.251958	-1.073209	-0.930818
C144	C	0.248042	-0.573209	-0.430818
C145	C	-0.264812	-1.140967	-0.833114
C146	C	0.235188	-0.640967	-0.333114
C147	C	-0.204287	-1.055097	-0.833136
C148	C	0.295713	-0.555097	-0.333136
C149	C	-0.217060	-1.122895	-0.882482
C150	C	0.282940	-0.622895	-0.382482
C151	C	-0.252018	-1.073161	-0.700734
C152	C	0.247982	-0.573161	-0.200734
C153	C	-0.251935	-1.073234	-1.014914
C154	C	0.248065	-0.573234	-0.514914
C155	C	-0.252054	-1.073115	-0.164498
C156	C	0.247946	-0.573115	0.335502
C157	C	-0.251916	-1.073247	-0.081953
C158	C	0.248084	-0.573247	0.418047
H159	H	-0.340069	-0.527066	-0.323782
H160	H	0.159931	-0.027066	0.176218
H161	H	-0.228374	-0.948187	-0.904258
H162	H	0.271626	-0.448187	-0.404258
H163	H	-0.316572	-0.619799	-0.448929
H164	H	0.183428	-0.119799	0.051071
N165	N	-0.323985	-0.970936	-0.805969
N166	N	0.176015	-0.470936	-0.305969
N167	N	-0.360691	-0.991882	-0.765480
N168	N	0.139309	-0.491882	-0.265480
H169	H	-0.386884	-0.954737	-0.746282
H170	H	0.113116	-0.454737	-0.246282
H171	H	-0.228613	-0.527052	-0.482605
H172	H	0.271387	-0.027052	0.017395
H173	H	-0.187447	-0.527318	-0.266086
H174	H	0.312553	-0.027318	0.233914
H175	H	-0.801340	-0.939438	-0.491085
H176	H	-0.301340	-0.439438	0.008915
H177	H	-0.275525	-0.619920	-0.232419
H178	H	0.224475	-0.119920	0.267581
N179	N	-0.445430	-1.169065	-0.261460
N180	N	0.054570	-0.669065	0.238540
N181	N	-0.469808	-1.211505	-0.219089
N182	N	0.030192	-0.711505	0.280911
H183	H	-0.450116	-1.245783	-0.184832
H184	H	0.049884	-0.745783	0.315168
N185	N	-0.350288	-1.110494	-0.909727
N186	N	0.149712	-0.610494	-0.409727
N187	N	-0.388799	-1.071050	-0.893919
N188	N	0.111201	-0.571050	-0.393919
H189	H	-0.424533	-1.084609	-0.913131
H190	H	0.075467	-0.584609	-0.413131
H191	H	-0.164010	-0.619791	-0.391323
H192	H	0.335990	-0.119791	0.108677
N193	N	-0.555784	-1.169140	-0.261485
N194	N	-0.055784	-0.669140	0.238515
N195	N	-0.531385	-1.211549	-0.219104
N196	N	-0.031385	-0.711549	0.280896
H197	H	-0.551062	-1.245851	-0.184853
H198	H	-0.051062	-0.745851	0.315147
N199	N	-1.058177	-0.977239	-0.453480
N200	N	-0.558177	-0.477239	0.046520
N201	N	-1.088610	-1.003350	-0.500831
N202	N	-0.588610	-0.503350	-0.000831
H203	H	-1.108307	-0.969079	-0.535088
H204	H	-0.608307	-0.469079	-0.035088
H205	H	-0.702250	-1.206886	-0.223883
H206	H	-0.202250	-0.706886	0.276117
H207	H	-0.801298	-1.206941	-0.223902
H208	H	-0.301298	-0.706941	0.276098
N209	N	-0.445448	-0.976931	-0.453379
N210	N	0.054552	-0.476931	0.046621
N211	N	-0.414944	-1.003025	-0.500705
N212	N	0.085056	-0.503025	-0.000705
H213	H	-0.395242	-0.968743	-0.534945
H214	H	0.104758	-0.468743	-0.034945
H215	H	-0.953430	-1.159487	-0.271383
H216	H	-0.453430	-0.659487	0.228617
H217	H	-0.953465	-0.987030	-0.443629
H218	H	-0.453465	-0.487030	0.056371
H219	H	-0.702290	-0.939401	-0.491075
H220	H	-0.202290	-0.439401	0.008925
N221	N	-0.555833	-0.976962	-0.453393
N222	N	-0.055833	-0.476962	0.046607
N223	N	-0.531456	-0.934515	-0.495760
N224	N	-0.031456	-0.434515	0.004240
H225	H	-0.551150	-0.900229	-0.530007
H226	H	-0.051150	-0.400229	-0.030007
N227	N	-0.180001	-1.175621	-0.909488
N228	N	0.319999	-0.675621	-0.409488
N229	N	-0.132905	-1.169497	-0.892711
N230	N	0.367095	-0.669497	-0.392711
H231	H	-0.106733	-1.206736	-0.911783
H232	H	0.393267	-0.706736	-0.411783
N233	N	-1.058157	-1.169378	-0.261569
N234	N	-0.558157	-0.669378	0.238431
N235	N	-1.106909	-1.169389	-0.261589
N236	N	-0.606909	-0.669389	0.238411
H237	H	-1.126610	-1.203677	-0.227353
H238	H	-0.626610	-0.703677	0.272647
H239	H	-0.275673	-1.198261	-0.811492
H240	H	0.224327	-0.698261	-0.311492
H241	H	-0.163969	-1.039765	-0.811427
H242	H	0.336031	-0.539765	-0.311427
