data_functionalizedCrystal
_audit_creation_method	'MofGen! by Chris Wilmer'
_symmetry_space_group_name_H-M	'P1'
_symmetry_Int_Tables_number	1
_symmetry_cell_setting	triclinic
loop_
_symmetry_equiv_pos_as_xyz
  x,y,z
_cell_length_a	25.639242
_cell_length_b	25.639239
_cell_length_c	21.295411
_cell_angle_alpha	89.980474
_cell_angle_beta	89.966692
_cell_angle_gamma	90.034213
loop_
_atom_site_label
_atom_site_type_symbol
_atom_site_fract_x
_atom_site_fract_y
_atom_site_fract_z
Zn1	Zn	0.799283	-0.208273	-0.356068
Zn2	Zn	0.799189	-0.295693	-0.250797
Zn3	Zn	0.711842	-0.208266	-0.250797
Zn4	Zn	0.711804	-0.295672	-0.356012
O5	O	0.755529	-0.251976	-0.303418
O6	O	0.872435	-0.219880	-0.342126
O7	O	0.787579	-0.284101	-0.162707
O8	O	0.723496	-0.135102	-0.264784
O9	O	0.872367	-0.284108	-0.264784
O10	O	0.787738	-0.135107	-0.342126
O11	O	0.723405	-0.219870	-0.162707
O12	O	0.638672	-0.219850	-0.264730
O13	O	0.723431	-0.284072	-0.444109
O14	O	0.638644	-0.284066	-0.342032
O15	O	0.787702	-0.219861	-0.444150
O16	O	0.787542	-0.368855	-0.264731
O17	O	0.723341	-0.368840	-0.342032
C18	C	0.619687	-0.251955	-0.303376
C19	C	0.561573	-0.251959	-0.303372
C20	C	0.201204	-0.285469	-0.343631
C21	C	0.146600	-0.285473	-0.343641
O22	O	0.118358	-0.313939	-0.377834
N23	N	0.119290	-0.251990	-0.303459
C24	C	0.146588	-0.218499	-0.263270
O25	O	0.118345	-0.190020	-0.229093
C26	C	0.201191	-0.218493	-0.263263
C27	C	0.228498	-0.251982	-0.303443
C28	C	0.228511	-0.318955	-0.383808
C29	C	0.283111	-0.318952	-0.383797
C30	C	0.310405	-0.285464	-0.343609
C31	C	0.283098	-0.251979	-0.303432
C32	C	0.228488	-0.185000	-0.223077
C33	C	0.283095	-0.184997	-0.223075
C34	C	0.310402	-0.218485	-0.263255
C35	C	0.364993	-0.218489	-0.263233
N36	N	0.392302	-0.251971	-0.303415
C37	C	0.365008	-0.285459	-0.343603
C38	C	0.031917	-0.218512	-0.263287
C39	C	-0.022685	-0.218520	-0.263289
C40	C	-0.022669	-0.285493	-0.343662
C41	C	0.031934	-0.285488	-0.343656
C42	C	0.059227	-0.251995	-0.303468
C43	C	0.479674	-0.285451	-0.343577
C44	C	0.534279	-0.285447	-0.343560
C45	C	0.534259	-0.218472	-0.263191
C46	C	0.479658	-0.218478	-0.263204
C47	C	0.452367	-0.251969	-0.303402
O48	O	0.393269	-0.190036	-0.229059
O49	O	0.393258	-0.313928	-0.377779
C50	C	0.755441	-0.387819	-0.303389
C51	C	0.755452	-0.445933	-0.303398
C52	C	0.789046	-0.806291	-0.263236
C53	C	0.789067	-0.860895	-0.263244
O54	O	0.817539	-0.889128	-0.229066
N55	N	0.755621	-0.888215	-0.303460
C56	C	0.722157	-0.860928	-0.343674
O57	O	0.693712	-0.889179	-0.377882
C58	C	0.722140	-0.806324	-0.343669
C59	C	0.755584	-0.779007	-0.303446
C60	C	0.822488	-0.778974	-0.223017
C61	C	0.822467	-0.724373	-0.223008
C62	C	0.789004	-0.697090	-0.263218
C63	C	0.755563	-0.724407	-0.303437
C64	C	0.688679	-0.779038	-0.383886
C65	C	0.688665	-0.724431	-0.383877
C66	C	0.722109	-0.697114	-0.343654
C67	C	0.722079	-0.642523	-0.343638
N68	N	0.755524	-0.615203	-0.303422
C69	C	0.788987	-0.642487	-0.263212
C70	C	0.722197	-0.975598	-0.343684
C71	C	0.722211	-1.030201	-0.343687
C72	C	0.789121	-1.030164	-0.263258
C73	C	0.789104	-0.975561	-0.263252
C74	C	0.755642	-0.948278	-0.303468
C75	C	0.788940	-0.527821	-0.263196
C76	C	0.788914	-0.473216	-0.263188
C77	C	0.722006	-0.473257	-0.343620
C78	C	0.722030	-0.527858	-0.343625
C79	C	0.755501	-0.555139	-0.303411
O80	O	0.693623	-0.614255	-0.377801
O81	O	0.817433	-0.614228	-0.229016
C82	C	0.891902	-0.251997	-0.303462
C83	C	0.950016	-0.252006	-0.303480
C84	C	0.755573	-0.251965	-0.467609
C85	C	0.755591	-0.251960	-0.537577
C86	C	0.755632	-0.115603	-0.303461
C87	C	0.755676	-0.057489	-0.303479
C88	C	0.789055	-0.218524	-0.570466
C89	C	0.789055	-0.218501	-0.636208
C90	C	0.755595	-0.251924	-0.669059
C91	C	0.722125	-0.285363	-0.636163
C92	C	0.722123	-0.285381	-0.570421
N93	N	0.751555	-0.297662	-0.772276
N94	N	0.751560	-0.297643	-0.834728
C95	C	0.755599	-0.251871	-0.867134
N96	N	0.759642	-0.206117	-0.834730
N97	N	0.759640	-0.206136	-0.772273
C98	C	0.755594	-0.251908	-0.740345
C99	C	0.789064	-0.218407	-0.971309
C100	C	0.789059	-0.218384	-1.037052
C101	C	0.722132	-0.285251	-1.037006
C102	C	0.722134	-0.285269	-0.971263
C103	C	0.755602	-0.251848	-0.938419
C104	C	0.755516	-0.251949	-0.139867
C105	C	0.755599	-0.251807	-0.069899
H106	H	-0.044913	-0.191256	-0.230565
H107	H	0.694884	-0.312459	-1.063753
H108	H	0.816148	-0.450976	-0.230432
H109	H	0.661417	-0.702220	-0.416628
C110	C	0.685312	-0.322167	-0.534242
C111	C	0.625878	-0.317887	-0.543241
C112	C	0.589066	-0.354674	-0.507060
C113	C	0.611689	-0.395740	-0.461881
C114	C	0.671127	-0.400021	-0.452880
C115	C	0.707938	-0.363234	-0.489060
H116	H	0.609128	-0.287486	-0.576687
H117	H	0.545067	-0.351505	-0.513724
H118	H	0.584440	-0.422972	-0.435098
H119	H	0.687876	-0.430422	-0.419434
H120	H	0.751937	-0.366404	-0.482397
C121	C	0.825866	-0.181756	-0.534340
C122	C	0.821644	-0.122316	-0.543382
C123	C	0.858453	-0.085547	-0.507255
C124	C	0.899485	-0.108218	-0.462086
C125	C	0.903709	-0.167661	-0.453042
C126	C	0.866900	-0.204430	-0.489169
H127	H	0.791268	-0.105531	-0.576820
H128	H	0.855326	-0.041543	-0.513951
H129	H	0.926734	-0.080999	-0.435343
H130	H	0.934085	-0.184446	-0.419604
H131	H	0.870027	-0.248434	-0.482474
H132	H	0.849740	-0.801182	-0.190273
C133	C	0.685240	-0.557912	-0.387865
C134	C	0.625801	-0.550470	-0.382653
C135	C	0.589016	-0.580521	-0.426898
C136	C	0.611671	-0.618014	-0.476355
C137	C	0.671113	-0.625459	-0.481570
C138	C	0.707898	-0.595407	-0.437324
H139	H	0.609029	-0.522713	-0.346039
H140	H	0.545013	-0.575010	-0.423037
H141	H	0.584440	-0.640260	-0.509108
H142	H	0.687885	-0.653215	-0.518183
H143	H	0.751901	-0.600918	-0.441185
C144	C	0.061969	-0.322322	-0.387858
C145	C	0.054425	-0.381753	-0.382592
C146	C	0.084457	-0.418588	-0.426798
C147	C	0.122032	-0.395991	-0.476268
C148	C	0.129577	-0.336556	-0.481535
C149	C	0.099545	-0.299721	-0.437330
H150	H	0.026609	-0.398484	-0.345969
H151	H	0.078872	-0.462585	-0.422898
H152	H	0.144263	-0.423258	-0.508991
H153	H	0.157394	-0.319825	-0.518158
H154	H	0.105131	-0.255724	-0.441230
H155	H	0.816304	-0.191270	-0.662991
C156	C	0.825936	-1.060184	-0.219032
C157	C	0.885369	-1.052622	-0.224250
C158	C	0.922181	-1.082643	-0.180027
C159	C	0.899560	-1.120227	-0.130586
C160	C	0.840124	-1.127791	-0.125366
C161	C	0.803312	-1.097770	-0.169589
H162	H	0.902116	-1.024798	-0.260851
H163	H	0.966179	-1.077044	-0.183892
H164	H	0.926811	-1.142451	-0.097850
H165	H	0.823377	-1.155615	-0.088765
H166	H	0.759313	-1.103369	-0.165724
C167	C	0.685328	-0.322056	-0.935081
C168	C	0.648522	-0.358822	-0.971212
C169	C	0.611713	-0.395610	-0.935030
C170	C	0.611709	-0.395631	-0.862717
C171	C	0.648516	-0.358864	-0.826582
C172	C	0.685325	-0.322076	-0.862764
H173	H	0.648524	-0.358808	-1.024746
H174	H	0.584466	-0.422828	-0.961780
H175	H	0.584461	-0.422864	-0.835933
H176	H	0.648514	-0.358878	-0.773048
H177	H	0.712572	-0.294859	-0.836014
H178	H	0.556510	-0.312719	-0.376280
C179	C	0.685418	-1.060245	-0.387928
C180	C	0.625980	-1.052791	-0.382712
C181	C	0.589188	-1.082833	-0.426958
C182	C	0.611833	-1.120329	-0.476419
C183	C	0.671273	-1.127784	-0.481636
C184	C	0.708066	-1.097743	-0.437391
H185	H	0.609214	-1.025033	-0.346097
H186	H	0.545186	-1.077313	-0.423095
H187	H	0.584597	-1.142567	-0.509172
H188	H	0.688039	-1.155542	-0.518252
H189	H	0.752068	-1.103262	-0.441253
C190	C	0.825754	-0.557825	-0.218957
C191	C	0.821507	-0.550343	-0.147390
C192	C	0.858317	-0.580347	-0.103148
C193	C	0.899375	-0.617833	-0.130472
C194	C	0.903624	-0.625318	-0.202043
C195	C	0.866813	-0.595314	-0.246285
H196	H	0.791112	-0.522591	-0.127160
H197	H	0.855172	-0.574806	-0.050167
H198	H	0.926624	-0.640044	-0.097722
H199	H	0.934019	-0.653069	-0.222273
H200	H	0.869959	-0.600854	-0.299266
H201	H	0.694944	-0.953387	-0.376431
H202	H	0.694760	-0.451034	-0.376356
H203	H	0.816337	-0.953323	-0.230500
C204	C	0.685323	-0.322132	-0.672298
C205	C	0.689545	-0.381572	-0.663258
C206	C	0.652741	-0.418341	-0.699393
C207	C	0.611714	-0.395670	-0.744568
C208	C	0.607490	-0.336226	-0.753610
C209	C	0.644294	-0.299457	-0.717475
H210	H	0.719917	-0.398358	-0.629815
H211	H	0.655868	-0.462345	-0.692699
H212	H	0.584469	-0.422888	-0.771318
H213	H	0.577118	-0.319441	-0.787053
H214	H	0.641167	-0.255453	-0.724169
C215	C	0.449658	-0.322294	-0.387791
C216	C	0.457138	-0.381723	-0.382515
C217	C	0.427123	-0.418569	-0.426724
C218	C	0.389628	-0.395985	-0.476210
C219	C	0.382147	-0.336552	-0.481488
C220	C	0.412162	-0.299707	-0.437278
H221	H	0.484895	-0.398444	-0.345881
H222	H	0.432661	-0.462565	-0.422817
H223	H	0.367409	-0.423260	-0.508937
H224	H	0.354390	-0.319831	-0.518122
H225	H	0.406624	-0.255711	-0.441186
H226	H	0.816313	-0.191191	-0.944565
C227	C	-0.052699	-0.322327	-0.387875
C228	C	-0.022669	-0.359160	-0.432078
C229	C	-0.052701	-0.395992	-0.476289
C230	C	-0.112762	-0.395990	-0.476297
C231	C	-0.142796	-0.359155	-0.432092
C232	C	-0.112764	-0.322324	-0.387881
H233	H	0.021795	-0.359163	-0.432074
H234	H	-0.030468	-0.423259	-0.509012
H235	H	-0.134993	-0.423254	-0.509024
H236	H	-0.187260	-0.359152	-0.432096
H237	H	-0.134997	-0.295056	-0.355158
C238	C	0.651892	-0.809075	-0.428137
C239	C	0.592454	-0.801615	-0.422932
C240	C	0.555665	-0.831650	-0.467188
C241	C	0.578313	-0.869143	-0.516650
C242	C	0.637753	-0.876604	-0.521857
C243	C	0.674543	-0.846570	-0.477601
H244	H	0.575686	-0.773859	-0.386316
H245	H	0.511663	-0.826127	-0.463333
H246	H	0.551079	-0.891376	-0.549411
H247	H	0.654521	-0.904361	-0.558473
H248	H	0.718545	-0.852093	-0.481456
H249	H	0.305340	-0.346220	-0.416517
H250	H	0.816309	-0.191152	-1.063829
H251	H	0.054136	-0.191239	-0.230557
C252	C	0.198465	-0.148162	-0.178873
C253	C	0.206016	-0.088731	-0.184141
C254	C	0.175996	-0.051892	-0.139931
C255	C	0.138424	-0.074482	-0.090453
C256	C	0.130870	-0.133915	-0.085183
C257	C	0.160890	-0.170755	-0.129393
H258	H	0.233831	-0.072006	-0.220770
H259	H	0.181588	-0.007895	-0.143833
H260	H	0.116201	-0.047211	-0.057727
H261	H	0.103055	-0.150641	-0.048555
H262	H	0.155299	-0.214752	-0.125492
H263	H	0.206294	-0.346225	-0.416538
C264	C	0.313117	-0.148153	-0.178867
C265	C	0.305642	-0.088723	-0.184140
C266	C	0.335663	-0.051881	-0.139933
C267	C	0.373160	-0.074469	-0.090453
C268	C	0.380638	-0.133902	-0.085178
C269	C	0.350616	-0.170744	-0.129385
H270	H	0.277882	-0.072000	-0.220770
H271	H	0.330128	-0.007885	-0.143838
H272	H	0.395384	-0.047196	-0.057728
H273	H	0.408397	-0.150626	-0.048548
H274	H	0.356152	-0.214741	-0.125480
C275	C	0.564286	-0.181630	-0.218990
C276	C	0.556741	-0.185797	-0.147419
C277	C	0.586769	-0.148949	-0.103224
C278	C	0.624340	-0.107934	-0.130601
C279	C	0.631886	-0.103766	-0.202176
C280	C	0.601859	-0.140614	-0.246371
H281	H	0.528927	-0.216159	-0.127149
H282	H	0.581182	-0.152034	-0.050239
H283	H	0.646568	-0.080657	-0.097885
H284	H	0.659701	-0.073404	-0.222446
H285	H	0.607445	-0.137528	-0.299356
H286	H	0.849701	-0.702135	-0.190257
H287	H	0.457424	-0.191210	-0.230485
