data_functionalizedCrystal
_audit_creation_method	'MofGen! by Chris Wilmer'
_symmetry_space_group_name_H-M	'P1'
_symmetry_Int_Tables_number	1
_symmetry_cell_setting	triclinic
loop_
_symmetry_equiv_pos_as_xyz
  x,y,z
_cell_length_a	12.759401
_cell_length_b	25.639239
_cell_length_c	12.759393
_cell_angle_alpha	89.962897
_cell_angle_beta	89.980163
_cell_angle_gamma	90.040211
loop_
_atom_site_label
_atom_site_type_symbol
_atom_site_fract_x
_atom_site_fract_y
_atom_site_fract_z
Zn1	Zn	1.606080	-0.208098	-0.593980
Zn2	Zn	1.605901	-0.295545	-0.418283
Zn3	Zn	1.430382	-0.208128	-0.418315
Zn4	Zn	1.430297	-0.295507	-0.593921
O5	O	1.518165	-0.251820	-0.506125
O6	O	1.753077	-0.219702	-0.570685
O7	O	1.582578	-0.283978	-0.271266
O8	O	1.453799	-0.134959	-0.441656
O9	O	1.752946	-0.283949	-0.441601
O10	O	1.582884	-0.134937	-0.570716
O11	O	1.453626	-0.219752	-0.271290
O12	O	1.283350	-0.219715	-0.441598
O13	O	1.453654	-0.283884	-0.740950
O14	O	1.283287	-0.283912	-0.570615
O15	O	1.582801	-0.219665	-0.740993
O16	O	1.582496	-0.368705	-0.441544
O17	O	1.453481	-0.368677	-0.570584
C18	C	1.245198	-0.251813	-0.506104
C19	C	1.128421	-0.251823	-0.506120
C20	C	1.073554	-0.285301	-0.573193
C21	C	0.963830	-0.285303	-0.573214
C22	C	0.963849	-0.218347	-0.439079
C23	C	1.073572	-0.218343	-0.439065
C24	C	1.517988	-0.387662	-0.506077
C25	C	1.518009	-0.445776	-0.506091
C26	C	1.585519	-0.806141	-0.439048
C27	C	1.585559	-0.860746	-0.439062
O28	O	1.642775	-0.888984	-0.382007
N29	N	1.518350	-0.888059	-0.506194
C30	C	1.451102	-0.860765	-0.573324
O31	O	1.393940	-0.889010	-0.630428
C32	C	1.451068	-0.806161	-0.573315
C33	C	1.518274	-0.778851	-0.506171
C34	C	1.652720	-0.778831	-0.371910
C35	C	1.652678	-0.724231	-0.371895
C36	C	1.585434	-0.696940	-0.439018
C37	C	1.518232	-0.724251	-0.506156
C38	C	1.383827	-0.778868	-0.640449
C39	C	1.383798	-0.724261	-0.640435
C40	C	1.451005	-0.696951	-0.573291
C41	C	1.450945	-0.642360	-0.573263
N42	N	1.518155	-0.615047	-0.506131
C43	C	1.585399	-0.642337	-0.439008
C44	C	1.451181	-0.975435	-0.573341
C45	C	1.451210	-1.030037	-0.573346
C46	C	1.585669	-1.030015	-0.439085
C47	C	1.585634	-0.975411	-0.439075
C48	C	1.518391	-0.948122	-0.506208
C49	C	1.585304	-0.527672	-0.438981
C50	C	1.585253	-0.473067	-0.438969
C51	C	1.450799	-0.473094	-0.573233
C52	C	1.450846	-0.527695	-0.573242
C53	C	1.518107	-0.554982	-0.506112
O54	O	1.393761	-0.614087	-0.630292
O55	O	1.642562	-0.614084	-0.381925
C56	C	1.792198	-0.251826	-0.506146
C57	C	1.908975	-0.251829	-0.506156
C58	C	1.518238	-0.251767	-0.780158
C59	C	1.518270	-0.251744	-0.896935
C60	C	1.518371	-0.115447	-0.506196
C61	C	1.518459	-0.057333	-0.506226
C62	C	1.451148	-0.218296	-0.951809
C63	C	1.451172	-0.218280	-1.061533
C64	C	1.585449	-0.285162	-1.061500
C65	C	1.585419	-0.285180	-0.951778
C66	C	1.518152	-0.251835	-0.233157
C67	C	1.518325	-0.251710	-0.116381
H68	H	0.919178	-0.191090	-0.384484
N69	N	1.382568	-0.184147	-0.895768
N70	N	1.419570	-0.150843	-0.834565
H71	H	1.371134	-0.126725	-0.794986
H72	H	1.396514	-0.191044	-1.106206
H73	H	0.919162	-0.312564	-0.627833
H74	H	1.640080	-0.312419	-0.907098
H75	H	1.640120	-0.312383	-1.106166
H76	H	1.118209	-0.312562	-0.627796
H77	H	1.118245	-0.191078	-0.384446
H78	H	1.640077	-0.549883	-0.384320
N79	N	1.653907	-0.445179	-0.370367
N80	N	1.713941	-0.469556	-0.310443
H81	H	1.762427	-0.449862	-0.261994
N82	N	1.721337	-0.696346	-0.303303
N83	N	1.781368	-0.720728	-0.243385
H84	H	1.829865	-0.701038	-0.194940
N85	N	1.721427	-0.806694	-0.303339
N86	N	1.781420	-0.782293	-0.243409
H87	H	1.829945	-0.801967	-0.194970
H88	H	1.640426	-1.052244	-0.384433
N89	N	1.654287	-0.947525	-0.370481
N90	N	1.714313	-0.971905	-0.310553
H91	H	1.762804	-0.952213	-0.262105
N92	N	1.382176	-0.555596	-0.641801
N93	N	1.285229	-0.549557	-0.634738
H94	H	1.236734	-0.569260	-0.683162
H95	H	1.396474	-1.052269	-0.628011
N96	N	1.382494	-0.947563	-0.641926
N97	N	1.389415	-0.953627	-0.738878
H98	H	1.340906	-0.933945	-0.787319
N99	N	1.315168	-0.806748	-0.709043
N100	N	1.255146	-0.782364	-0.768968
H101	H	1.206653	-0.802053	-0.817419
N102	N	1.315109	-0.696395	-0.709025
N103	N	1.255116	-0.720790	-0.768966
H104	H	1.206603	-0.701111	-0.817409
N105	N	1.382111	-0.445204	-0.641779
N106	N	1.382092	-0.396451	-0.641747
H107	H	1.333584	-0.376752	-0.690161
