data_functionalizedCrystal
_audit_creation_method	'MofGen! by Chris Wilmer'
_symmetry_space_group_name_H-M	'P1'
_symmetry_Int_Tables_number	1
_symmetry_cell_setting	triclinic
loop_
_symmetry_equiv_pos_as_xyz
  x,y,z
_cell_length_a	15.625950
_cell_length_b	15.538117
_cell_length_c	15.186229
_cell_angle_alpha	89.999217
_cell_angle_beta	71.930556
_cell_angle_gamma	113.257794
loop_
_atom_site_label
_atom_site_type_symbol
_atom_site_fract_x
_atom_site_fract_y
_atom_site_fract_z
O1	O	1.155822	-0.123013	-0.295740
O2	O	0.888592	-0.137639	-0.210435
O3	O	1.074223	0.006731	-0.269687
O4	O	0.970191	-0.267383	-0.236488
O5	O	1.074213	0.006735	-0.416142
O6	O	0.888582	-0.137636	-0.356889
O7	O	1.155812	-0.123010	-0.442195
Zn8	Zn	1.022196	-0.130322	-0.422795
Zn9	Zn	1.022208	-0.130327	-0.229835
O10	O	0.970181	-0.267380	-0.382942
C11	C	0.855221	-0.136972	-0.273011
C12	C	0.755805	-0.134976	-0.241275
C13	C	1.085102	0.041814	-0.346386
C14	C	1.117523	0.146342	-0.356726
C15	C	0.428701	-0.128457	-0.535946
C16	C	0.335276	-0.126601	-0.506082
C17	C	0.335333	-0.126605	-0.346438
C18	C	0.428758	-0.128466	-0.376288
C19	C	0.475435	-0.129391	-0.471044
C20	C	0.475492	-0.129400	-0.311386
C21	C	0.568911	-0.131256	-0.341235
C22	C	0.615596	-0.132178	-0.435986
C23	C	0.568854	-0.131246	-0.500892
C24	C	0.428816	-0.128468	-0.216632
C25	C	0.475550	-0.129402	-0.151729
C26	C	0.568967	-0.131265	-0.181577
C27	C	0.615652	-0.132187	-0.276328
C28	C	0.615709	-0.132196	-0.116671
C29	C	0.709128	-0.134052	-0.146520
C30	C	0.709071	-0.134043	-0.306177
C31	C	0.795405	0.434576	-0.253916
C32	C	0.825892	0.532799	-0.263650
C33	C	0.997385	0.555006	-0.318393
C34	C	0.966912	0.456782	-0.308660
C35	C	0.865921	0.396575	-0.276422
C36	C	1.037428	0.418781	-0.331166
C37	C	1.006958	0.320566	-0.321438
C38	C	0.905971	0.260352	-0.289204
C39	C	0.835450	0.298359	-0.266694
C40	C	1.138419	0.478991	-0.363410
C41	C	1.208935	0.440990	-0.385916
C42	C	1.178465	0.342773	-0.376182
C43	C	1.077478	0.282559	-0.343948
C44	C	1.248985	0.304765	-0.398692
C45	C	1.218515	0.206550	-0.388964
C46	C	1.047007	0.184344	-0.334220
C47	C	1.189183	-0.123677	-0.379617
C48	C	1.288599	-0.125672	-0.411347
N49	N	1.022194	-0.130319	-0.554487
C50	C	0.959297	0.697537	-0.306239
C51	C	0.926862	0.593007	-0.295884
C52	C	1.104409	-0.066413	-0.898648
C53	C	1.104406	-0.066413	-0.806457
C54	C	0.939999	-0.194235	-0.753990
C55	C	0.940006	-0.194239	-0.846180
C56	C	1.022211	-0.130322	-0.918507
C57	C	1.022202	-0.130319	-0.734126
C58	C	1.022199	-0.130320	-0.634169
C59	C	1.022216	-0.130322	-1.018471
N60	N	1.022220	-0.130323	-0.098146
H61	H	0.747072	-0.134810	-0.383334
H62	H	0.352746	-0.126962	-0.192331
H63	H	0.881163	0.180380	-0.281289
H64	H	0.873068	-0.246286	-0.862348
H65	H	1.171347	-0.014369	-0.957536
O66	O	1.347123	0.363122	-0.430060
C67	C	1.514020	0.374786	-0.483278
C68	C	1.402912	0.308592	-0.447785
H69	H	1.559157	0.330726	-0.497600
H70	H	1.532625	0.421299	-0.550527
H71	H	1.532533	0.421349	-0.427913
H72	H	1.384320	0.261970	-0.503082
H73	H	1.384365	0.262144	-0.380514
O74	O	1.286881	0.169473	-0.410819
C75	C	1.315939	0.028004	-0.420040
C76	C	1.238409	0.069867	-0.395270
H77	H	1.276779	-0.052533	-0.407460
H78	H	1.364206	0.052718	-0.496753
H79	H	1.364237	0.052844	-0.374178
H80	H	1.190044	0.045046	-0.441069
H81	H	1.190212	0.045157	-0.318539
H82	H	0.606855	-0.132014	-0.578049
H83	H	1.163225	0.558963	-0.371321
H84	H	1.079613	0.604040	-0.344645
O85	O	1.306994	0.499613	-0.417178
C86	C	1.429948	0.660760	-0.456480
C87	C	1.318864	0.594481	-0.421049
H88	H	1.439580	0.737474	-0.459640
H89	H	1.466279	0.646999	-0.406768
H90	H	1.466225	0.646865	-0.529335
H91	H	1.282501	0.608337	-0.348208
H92	H	1.282605	0.608255	-0.470825
H93	H	0.873068	-0.246274	-0.695092
O94	O	0.706404	-0.133846	-0.464899
C95	C	0.877363	-0.054956	-0.475769
C96	C	0.774571	-0.052965	-0.442956
H97	H	0.932508	0.010439	-0.458058
H98	H	0.873044	-0.121256	-0.438977
H99	H	0.902647	-0.055498	-0.554634
H100	H	0.749225	-0.052388	-0.364101
H101	H	0.778947	0.013328	-0.479816
O102	O	0.473931	-0.129312	-0.628033
C103	C	0.464000	-0.129171	-0.783237
C104	C	0.412675	-0.128180	-0.678987
H105	H	0.414488	-0.128276	-0.824461
H106	H	0.537495	-0.064180	-0.810758
H107	H	0.477992	-0.195865	-0.791658
H108	H	0.398615	-0.061530	-0.670485
H109	H	0.339217	-0.193216	-0.651515
O110	O	0.757516	0.569870	-0.241863
C111	C	0.728445	0.711332	-0.232537
C112	C	0.805981	0.669476	-0.257258
H113	H	0.767599	0.791869	-0.244955
H114	H	0.680174	0.686612	-0.278436
H115	H	0.680151	0.686491	-0.155845
H116	H	0.854342	0.694298	-0.333930
H117	H	0.854182	0.694191	-0.211296
H118	H	0.713168	0.385550	-0.227658
H119	H	1.171340	-0.014373	-0.790293
H120	H	0.297219	-0.125862	-0.558938
O121	O	0.430046	-0.128545	-0.059717
C122	C	0.286181	-0.125633	0.057019
C123	C	0.337590	-0.126621	-0.047211
H124	H	0.211430	-0.124057	0.067160
H125	H	0.274707	-0.191859	0.100051
H126	H	0.334388	-0.060178	0.081001
H127	H	0.289430	-0.192032	-0.071280
H128	H	0.349079	-0.060351	-0.090181
O129	O	0.737307	0.240000	-0.235394
C130	C	0.570406	0.228325	-0.182043
C131	C	0.681513	0.294525	-0.217500
H132	H	0.525265	0.272382	-0.167547
H133	H	0.551785	0.181801	-0.237403
H134	H	0.551915	0.181774	-0.114860
H135	H	0.700083	0.341135	-0.284667
H136	H	0.700076	0.340984	-0.162081
O137	O	0.289868	-0.125877	-0.254383
C138	C	0.147529	-0.205271	-0.116283
C139	C	0.198920	-0.206219	-0.220528
H140	H	0.073979	-0.270210	-0.088885
H141	H	0.196909	-0.206321	-0.074964
H142	H	0.133627	-0.138531	-0.107846
H143	H	0.212829	-0.272948	-0.229054
H144	H	0.149514	-0.205119	-0.261798
H145	H	0.577694	-0.131433	-0.039522
H146	H	0.747177	-0.134817	-0.093669
H147	H	0.964770	0.135318	-0.307962
