data_functionalizedCrystal
_audit_creation_method	'MofGen! by Chris Wilmer'
_symmetry_space_group_name_H-M	'P1'
_symmetry_Int_Tables_number	1
_symmetry_cell_setting	triclinic
loop_
_symmetry_equiv_pos_as_xyz
  x,y,z
_cell_length_a	10.654541
_cell_length_b	10.540539
_cell_length_c	9.730217
_cell_angle_alpha	89.998866
_cell_angle_beta	89.999932
_cell_angle_gamma	84.504710
loop_
_atom_site_label
_atom_site_type_symbol
_atom_site_fract_x
_atom_site_fract_y
_atom_site_fract_z
O1	O	1.667901	0.178284	-0.114241
O2	O	1.302428	0.195274	-0.114252
O3	O	1.493503	0.002070	-0.114244
O4	O	1.476827	0.371489	-0.114248
O5	O	1.493497	0.002068	0.114336
O6	O	1.302422	0.195273	0.114328
O7	O	1.667895	0.178282	0.114339
Zn8	Zn	1.485158	0.186777	0.150626
Zn9	Zn	1.485166	0.186779	-0.150538
O10	O	1.476821	0.371487	0.114332
C11	C	1.255627	0.194027	0.000036
C12	C	1.116182	0.190296	0.000032
C13	C	1.088292	0.421325	0.000012
C14	C	1.008838	0.535081	-0.000003
C15	C	0.877819	0.531569	-0.000004
C16	C	0.826252	0.414286	0.000014
C17	C	0.905707	0.300530	0.000029
C18	C	1.036727	0.304055	0.000026
C19	C	0.933596	0.069504	0.000059
C20	C	1.064615	0.073014	0.000050
C21	C	0.882029	-0.047778	0.000077
C22	C	0.961484	-0.161538	0.000082
C23	C	1.092511	-0.158020	0.000082
C24	C	1.144070	-0.040742	0.000065
C25	C	1.492249	-0.045234	0.000043
C26	C	1.488508	-0.186180	0.000036
C27	C	1.345136	-0.369555	-0.000482
C28	C	1.348929	-0.222938	0.000033
C29	C	1.555676	-0.247864	0.130568
C30	C	1.550912	-0.394407	0.130678
C31	C	1.553758	-0.394924	-0.129260
C32	C	1.555043	-0.247942	-0.130986
C33	C	1.714697	0.179530	0.000048
C34	C	1.854142	0.183260	0.000043
C35	C	1.478074	0.418790	0.000041
C36	C	1.481816	0.559737	0.000040
N37	N	1.485162	0.186775	0.356162
N38	N	1.485172	0.186772	-0.356075
C39	C	1.654428	0.015742	0.356160
C40	C	1.739070	-0.069770	0.428098
C41	C	1.739082	-0.069771	0.571978
C42	C	1.654442	0.015747	0.643922
C43	C	1.569800	0.101260	0.571984
C44	C	1.569799	0.101254	0.428101
C45	C	1.400530	0.272284	0.571986
C46	C	1.400521	0.272293	0.428107
C47	C	1.315890	0.357803	0.643931
C48	C	1.231252	0.443324	0.571992
C49	C	1.231244	0.443322	0.428104
C50	C	1.315880	0.357806	0.356168
H51	H	1.250751	-0.037867	0.000049
H52	H	1.315898	0.357793	0.761085
F53	F	0.793255	0.652640	-0.000009
H54	H	1.656807	-0.223758	-0.138865
F55	F	1.177063	-0.279098	0.000108
H56	H	1.508585	-0.426459	-0.228195
F57	F	1.227734	0.425073	-0.000009
F58	F	1.654444	0.015730	0.797052
F59	F	1.829143	-0.160786	0.351524
H60	H	1.658178	-0.225548	0.135424
H61	H	1.315885	0.357801	0.239014
F62	F	1.141148	0.534332	0.351553
F63	F	1.063728	0.659896	-0.000023
F64	F	0.686809	0.410554	0.000033
H65	H	1.290002	-0.398134	-0.094089
F66	F	0.742586	-0.051514	0.000083
H67	H	1.651295	-0.442412	0.136603
F68	F	1.279848	-0.167222	-0.122271
H69	H	1.509012	-0.205248	0.227703
F70	F	0.906595	-0.286343	0.000113
F71	F	1.273169	-0.409440	0.120846
F72	F	1.829161	-0.160789	0.648541
H73	H	1.501267	-0.422589	0.228251
F74	F	1.279354	-0.168329	0.122534
F75	F	1.491309	-0.193919	-0.257222
H76	H	1.654575	-0.442187	-0.130135
F77	F	1.654437	0.015748	0.203030
H78	H	1.162338	0.512941	0.630578
