data_functionalizedCrystal
_audit_creation_method	'MofGen! by Chris Wilmer'
_symmetry_space_group_name_H-M	'P1'
_symmetry_Int_Tables_number	1
_symmetry_cell_setting	triclinic
loop_
_symmetry_equiv_pos_as_xyz
  x,y,z
_cell_length_a	17.038272
_cell_length_b	23.532407
_cell_length_c	16.098538
_cell_angle_alpha	92.700973
_cell_angle_beta	87.069734
_cell_angle_gamma	86.980117
loop_
_atom_site_label
_atom_site_type_symbol
_atom_site_fract_x
_atom_site_fract_y
_atom_site_fract_z
O1	O	1.039966	0.121251	-0.069166
O2	O	1.539966	0.621251	0.430834
O3	O	0.812351	0.119288	-0.069191
O4	O	1.312351	0.619288	0.430809
O5	O	0.933021	0.037699	-0.069163
O6	O	1.433021	0.537699	0.430837
O7	O	0.919295	0.202840	-0.069195
O8	O	1.419295	0.702840	0.430805
O9	O	0.925973	0.042445	0.069349
O10	O	1.425973	0.542445	0.569349
O11	O	0.805302	0.124034	0.069321
O12	O	1.305302	0.624034	0.569321
O13	O	1.032917	0.125997	0.069345
O14	O	1.532917	0.625997	0.569345
Zn15	Zn	0.917990	0.125769	0.091324
Zn16	Zn	1.417990	0.625769	0.591324
Zn17	Zn	0.927278	0.119516	-0.091170
Zn18	Zn	1.427278	0.619516	0.408830
O19	O	0.912247	0.207586	0.069317
O20	O	1.412247	0.707586	0.569317
C21	C	0.779712	0.119875	0.000062
C22	C	1.279712	0.619875	0.500062
C23	C	0.692959	0.114548	0.000054
C24	C	1.192959	0.614548	0.500054
C25	C	0.642483	0.163453	0.000045
C26	C	1.142483	0.663453	0.500045
C27	C	0.560969	0.158445	0.000057
C28	C	1.060969	0.658445	0.500057
C29	C	0.529932	0.104532	0.000072
C30	C	1.029932	0.604532	0.500072
C31	C	0.580415	0.055624	0.000084
C32	C	1.080415	0.555624	0.500084
C33	C	0.661927	0.060632	0.000077
C34	C	1.161927	0.560632	0.500077
C35	C	0.284304	0.086837	0.000098
C36	C	0.784304	0.586837	0.500098
C37	C	0.202786	0.081832	0.000102
C38	C	0.702786	0.581832	0.500102
C39	C	0.183345	0.184654	0.000077
C40	C	0.683345	0.684654	0.500077
C41	C	0.264860	0.189657	0.000066
C42	C	0.764860	0.689657	0.500066
C43	C	0.315335	0.140750	0.000081
C44	C	0.815335	0.640750	0.500081
C45	C	0.446612	0.099411	0.000083
C46	C	0.946612	0.599411	0.500083
C47	C	0.398653	0.145871	0.000077
C48	C	0.898653	0.645871	0.500077
C49	C	0.929147	0.018838	0.000095
C50	C	1.429147	0.518838	0.500095
C51	C	0.928096	-0.044434	0.000101
C52	C	1.428096	0.455566	0.500101
C53	C	0.992917	-0.440131	0.000063
C54	C	1.492917	0.059869	0.500063
C55	C	0.991941	-0.499583	0.000056
C56	C	1.491941	0.000417	0.500056
O57	O	1.052030	-0.533169	0.000032
O58	O	1.552030	-0.033169	0.500032
N59	N	0.920202	-0.525981	0.000049
N60	N	1.420202	-0.025981	0.500049
C61	C	0.849435	-0.492924	0.000040
C62	C	1.349435	0.007076	0.500040
O63	O	0.788325	-0.520836	0.000033
O64	O	1.288325	-0.020836	0.500033
C65	C	0.850412	-0.433473	0.000041
C66	C	1.350412	0.066527	0.500041
C67	C	0.922155	-0.407078	0.000056
C68	C	1.422155	0.092922	0.500056
C69	C	1.064654	-0.413736	0.000077
C70	C	1.564654	0.086264	0.500077
C71	C	1.065630	-0.354288	0.000085
C72	C	1.565630	0.145712	0.500085
C73	C	0.994868	-0.321236	0.000079
C74	C	1.494868	0.178764	0.500079
C75	C	0.923131	-0.347631	0.000064
C76	C	1.423131	0.152369	0.500064
C77	C	0.779646	-0.400418	0.000026
C78	C	1.279646	0.099582	0.500026
C79	C	0.780629	-0.340963	0.000025
C80	C	1.280629	0.159037	0.500025
C81	C	0.852372	-0.314569	0.000041
C82	C	1.352372	0.185431	0.500041
C83	C	0.853344	-0.255130	0.000066
C84	C	1.353344	0.244870	0.500066
N85	N	0.925083	-0.228732	0.000073
N86	N	1.425083	0.271268	0.500073
C87	C	0.995845	-0.261785	0.000079
C88	C	1.495845	0.238215	0.500079
C89	C	0.847388	-0.617774	0.000038
C90	C	1.347388	-0.117774	0.500038
C91	C	0.846410	-0.677223	0.000043
C92	C	1.346410	-0.177223	0.500043
C93	C	0.988917	-0.683878	0.000058
C94	C	1.488917	-0.183878	0.500058
C95	C	0.989894	-0.624428	0.000058
C96	C	1.489894	-0.124428	0.500058
C97	C	0.919127	-0.591376	0.000045
C98	C	1.419127	-0.091376	0.500045
C99	C	0.997889	-0.136940	0.000097
C100	C	1.497889	0.363060	0.500097
C101	C	0.998858	-0.077487	0.000108
C102	C	1.498858	0.422513	0.500108
C103	C	0.856352	-0.070837	0.000089
C104	C	1.356352	0.429163	0.500089
C105	C	0.855382	-0.130285	0.000082
C106	C	1.355382	0.369715	0.500082
C107	C	0.926157	-0.163336	0.000083
C108	C	1.426157	0.336664	0.500083
O109	O	0.793287	-0.221508	0.000086
O110	O	1.293287	0.278492	0.500086
O111	O	1.056945	-0.233865	0.000076
O112	O	1.556945	0.266135	0.500076
C113	C	1.065556	0.125410	0.000090
C114	C	1.565556	0.625410	0.500090
C115	C	1.152310	0.130737	0.000093
C116	C	1.652310	0.630737	0.500093
C117	C	0.916121	0.226447	0.000057
C118	C	1.416121	0.726447	0.500057
C119	C	0.917172	0.289719	0.000045
C120	C	1.417172	0.789719	0.500045
N121	N	0.911658	0.130036	0.215872
N122	N	1.411658	0.630036	0.715872
N123	N	0.933616	0.115244	-0.215718
N124	N	1.433616	0.615244	0.284282
C125	C	0.962894	0.095421	0.259469
C126	C	1.462894	0.595421	0.759469
C127	C	0.958471	0.098412	0.346657
C128	C	1.458471	0.598412	0.846657
C129	C	0.902816	0.136022	0.390246
C130	C	1.402816	0.636022	0.890246
C131	C	0.851574	0.170639	0.346643
C132	C	1.351574	0.670639	0.846643
C133	C	0.855994	0.167644	0.259457
C134	C	1.355994	0.667644	0.759457
C135	C	0.886795	0.146867	0.653493
C136	C	1.386795	0.646867	1.153493
C137	C	0.882380	0.149860	0.740685
C138	C	1.382380	0.649860	1.240685
C139	C	0.989277	0.077632	0.740693
C140	C	1.489277	0.577632	1.240693
C141	C	0.993694	0.074644	0.653505
C142	C	1.493694	0.574644	1.153505
C143	C	0.942450	0.109258	0.609909
C144	C	1.442450	0.609258	1.109909
C145	C	0.898295	0.139081	0.479366
C146	C	1.398295	0.639081	0.979366
C147	C	0.946968	0.106195	0.520791
C148	C	1.446968	0.606195	1.020791
H149	H	0.667745	0.207354	0.000032
H150	H	1.167745	0.707354	0.500032
H151	H	1.057282	-0.055999	0.000123
H152	H	1.557282	0.444001	0.500123
H153	H	1.055521	-0.163843	0.000094
H154	H	1.555521	0.336157	0.500094
O155	O	1.000913	0.069611	0.478377
O156	O	1.500913	0.569611	0.978377
C157	C	0.961864	0.030705	0.428003
C158	C	1.461864	0.530705	0.928003
H159	H	0.901205	0.049956	0.414934
H160	H	1.401205	0.549956	0.914934
H161	H	0.997657	0.021161	0.366695
H162	H	1.497657	0.521161	0.866695
H163	H	0.955155	-0.010463	0.461645
H164	H	1.455155	0.489537	0.961645
H165	H	0.814271	0.195831	0.223961
H166	H	1.314271	0.695831	0.723961
H167	H	1.048313	-0.602941	0.000070
H168	H	1.548313	-0.102941	0.500070
H169	H	0.837057	0.180488	0.776172
H170	H	1.337057	0.680488	1.276172
H171	H	1.008217	0.064798	0.223984
H172	H	1.508217	0.564798	0.723984
O173	O	1.047535	0.038052	0.610942
O174	O	1.547535	0.538052	1.110942
C175	C	1.098102	0.068945	0.560209
C176	C	1.598102	0.568945	1.060209
H177	H	1.098246	0.114782	0.586464
H178	H	1.598246	0.614782	1.086464
H179	H	1.160314	0.048443	0.558866
H180	H	1.660314	0.548443	1.058866
H181	H	1.076638	0.068592	0.494273
H182	H	1.576638	0.568592	0.994273
H183	H	0.519874	0.198268	0.000049
H184	H	1.019874	0.698268	0.500049
O185	O	0.294874	0.242074	0.000092
O186	O	0.794874	0.742074	0.500092
C187	C	0.232843	0.284165	0.000067
C188	C	0.732843	0.784165	0.500067
H189	H	0.176257	0.266423	0.026298
H190	H	0.676257	0.766423	0.526298
H191	H	0.247555	0.322946	0.040271
H192	H	0.747555	0.822946	0.540271
H193	H	0.224556	0.297162	-0.066386
H194	H	0.724556	0.797162	0.433614
O195	O	0.711912	-0.308838	-0.000133
O196	O	1.211912	0.191162	0.499867
C197	C	0.711872	-0.276688	-0.071855
C198	C	1.211872	0.223312	0.428145
H199	H	0.754567	-0.298202	-0.121990
H200	H	1.254567	0.201798	0.378010
H201	H	0.650092	-0.273894	-0.095945
H202	H	1.150092	0.226106	0.404055
H203	H	0.730925	-0.231971	-0.055628
H204	H	1.230925	0.268029	0.444372
O205	O	0.134201	0.232103	0.000106
O206	O	0.634201	0.732103	0.500106
C207	C	0.055601	0.216124	0.000094
C208	C	0.555601	0.716124	0.500094
H209	H	0.051492	0.172156	0.026325
H210	H	0.551492	0.672156	0.526325
H211	H	0.016374	0.248432	0.040304
H212	H	0.516374	0.748432	0.540304
H213	H	0.035380	0.214864	-0.066356
H214	H	0.535380	0.714864	0.433644
O215	O	0.787588	-0.038745	0.000225
O216	O	1.287588	0.461255	0.500225
C217	C	0.740331	-0.048801	0.071938
C218	C	1.240331	0.451199	0.571938
H219	H	0.779190	-0.065381	0.122090
H220	H	1.279190	0.434619	0.622090
H221	H	0.707430	-0.007369	0.096007
H222	H	1.207430	0.492631	0.596007
H223	H	0.696160	-0.081785	0.055707
H224	H	1.196160	0.418215	0.555707
H225	H	0.177520	0.037928	0.000114
H226	H	0.677520	0.537928	0.500114
O227	O	0.333219	0.039270	0.000073
O228	O	0.833219	0.539270	0.500073
C229	C	0.288342	-0.009386	0.000106
C230	C	0.788342	0.490614	0.500106
H231	H	0.228720	0.001219	-0.026120
H232	H	0.728720	0.501219	0.473880
H233	H	0.320733	-0.045275	-0.040098
H234	H	0.820733	0.454725	0.459902
H235	H	0.279285	-0.023446	0.066562
H236	H	0.779285	0.476554	0.566562
H237	H	0.555138	0.011727	0.000108
H238	H	1.055138	0.511727	0.500108
O239	O	1.133456	-0.445781	-0.000025
O240	O	1.633456	0.054219	0.499975
C241	C	1.180685	-0.435736	-0.071762
C242	C	1.680685	0.064264	0.428238
H243	H	1.162339	-0.392445	-0.095686
H244	H	1.662339	0.107555	0.404314
H245	H	1.245078	-0.436183	-0.055614
H246	H	1.745078	0.063817	0.444386
H247	H	1.172830	-0.470455	-0.121995
H248	H	1.672830	0.029545	0.378005
H249	H	1.000191	0.070225	0.382153
H250	H	1.500191	0.570225	0.882153
O251	O	0.710938	0.013105	-0.000066
O252	O	1.210938	0.513105	0.499934
C253	C	0.700562	-0.021860	-0.071784
C254	C	1.200562	0.478140	0.428216
H255	H	0.675009	0.005124	-0.121928
H256	H	1.175009	0.505124	0.378072
H257	H	0.759801	-0.042710	-0.095861
H258	H	1.259801	0.457290	0.404139
H259	H	0.658489	-0.056268	-0.055555
H260	H	1.158489	0.443732	0.444445
H261	H	0.806255	0.201259	0.382139
H262	H	1.306255	0.701259	0.882139
O263	O	0.844202	0.175541	0.521806
O264	O	1.344202	0.675541	1.021806
C265	C	0.793660	0.144424	0.572239
C266	C	1.293660	0.644424	1.072239
H267	H	0.824472	0.101843	0.585299
H268	H	1.324472	0.601843	1.085299
H269	H	0.778011	0.169681	0.633548
H270	H	1.278011	0.669681	1.133548
H271	H	0.737629	0.136585	0.538653
H272	H	1.237629	0.636585	1.038653
O273	O	1.135280	-0.328593	-0.000022
O274	O	1.635280	0.171407	0.499978
C275	C	1.143772	-0.296869	-0.071769
C276	C	1.643772	0.203131	0.428231
H277	H	1.083272	-0.285880	-0.095686
H278	H	1.583272	0.214120	0.404314
H279	H	1.173809	-0.255926	-0.055637
H280	H	1.673809	0.244074	0.444363
H281	H	1.181102	-0.323146	-0.122001
H282	H	1.681102	0.176854	0.377999
H283	H	0.423926	0.189766	0.000069
H284	H	0.923926	0.689766	0.500069
O285	O	1.057670	-0.715963	0.000203
O286	O	1.557670	-0.215963	0.500203
C287	C	1.097623	-0.701009	0.071932
C288	C	1.597623	-0.201009	0.571932
H289	H	1.053658	-0.681003	0.122073
H290	H	1.553658	-0.181003	0.622073
H291	H	1.128069	-0.740799	0.096007
H292	H	1.628069	-0.240799	0.596007
H293	H	1.143450	-0.669136	0.055718
H294	H	1.643450	-0.169136	0.555718
O295	O	0.416430	0.047049	-0.000057
O296	O	0.916430	0.547049	0.499943
C297	C	0.373481	0.038631	-0.071777
C298	C	0.873481	0.538631	0.428223
H299	H	0.395077	0.067594	-0.121923
H300	H	0.895077	0.567594	0.378077
H301	H	0.382366	-0.007720	-0.095850
H302	H	0.882366	0.492280	0.404150
H303	H	0.308271	0.049209	-0.055553
H304	H	0.808271	0.549209	0.444447
H305	H	1.030996	0.049450	0.776196
H306	H	1.530996	0.549450	1.276196
H307	H	0.787989	-0.698708	0.000045
H308	H	1.287989	-0.198708	0.500045
H309	H	0.789757	-0.590866	0.000034
H310	H	1.289757	-0.090866	0.500034
H311	H	0.721225	-0.421898	0.000008
H312	H	1.221225	0.078102	0.500008
O313	O	0.785681	-0.155909	-0.000076
O314	O	1.285681	0.344091	0.499924
C315	C	0.746219	-0.141788	-0.071805
C316	C	1.246219	0.358212	0.428195
H317	H	0.790732	-0.129098	-0.121932
H318	H	1.290732	0.370902	0.378068
H319	H	0.714486	-0.180195	-0.095902
H320	H	1.214486	0.319805	0.404098
H321	H	0.701531	-0.104652	-0.055584
H322	H	1.201531	0.395348	0.444416
O323	O	0.836986	0.180551	0.611280
O324	O	1.336986	0.680551	1.111280
C325	C	0.786907	0.214378	0.668453
C326	C	1.286907	0.714378	1.168453
H327	H	0.815798	0.218720	0.730595
H328	H	1.315798	0.718720	1.230595
H329	H	0.775903	0.258395	0.643249
H330	H	1.275903	0.758395	1.143249
H331	H	0.728526	0.193374	0.677745
H332	H	1.228526	0.693374	1.177745
