data_functionalizedCrystal
_audit_creation_method	'MofGen! by Chris Wilmer'
_symmetry_space_group_name_H-M	'P1'
_symmetry_Int_Tables_number	1
_symmetry_cell_setting	triclinic
loop_
_symmetry_equiv_pos_as_xyz
  x,y,z
_cell_length_a	12.759401
_cell_length_b	18.050590
_cell_length_c	12.759393
_cell_angle_alpha	90.035753
_cell_angle_beta	90.018496
_cell_angle_gamma	90.018713
loop_
_atom_site_label
_atom_site_type_symbol
_atom_site_fract_x
_atom_site_fract_y
_atom_site_fract_z
Zn1	Zn	1.606227	-0.295612	0.593951
Zn2	Zn	2.106227	0.204388	1.093951
Zn3	Zn	1.606110	-0.419823	0.418258
Zn4	Zn	2.106110	0.080177	0.918258
Zn5	Zn	1.430529	-0.295651	0.418290
Zn6	Zn	1.930529	0.204349	0.918290
Zn7	Zn	1.430506	-0.419765	0.593900
Zn8	Zn	1.930506	0.080235	1.093900
O9	O	1.518343	-0.357713	0.506100
O10	O	2.018343	0.142287	1.006100
O11	O	1.753233	-0.312097	0.570653
O12	O	2.253233	0.187903	1.070653
O13	O	1.582779	-0.403391	0.271241
O14	O	2.082779	0.096609	0.771241
O15	O	1.453895	-0.191722	0.441627
O16	O	1.953895	0.308278	0.941627
O17	O	1.753146	-0.403354	0.441572
O18	O	2.253146	0.096646	0.941572
O19	O	1.582979	-0.191693	0.570684
O20	O	2.082979	0.308307	1.070684
O21	O	1.453781	-0.312163	0.271265
O22	O	1.953781	0.187837	0.771265
O23	O	1.283505	-0.312108	0.441577
O24	O	1.783505	0.187892	0.941577
O25	O	1.453855	-0.403256	0.740927
O26	O	1.953855	0.096744	1.240927
O27	O	1.283488	-0.403294	0.570597
O28	O	1.783488	0.096706	1.070597
O29	O	1.582957	-0.312041	0.740965
O30	O	2.082957	0.187959	1.240965
O31	O	1.582757	-0.523740	0.441522
O32	O	2.082757	-0.023740	0.941522
O33	O	1.453741	-0.523698	0.570565
O34	O	1.953741	-0.023698	1.070565
C35	C	1.245376	-0.357699	0.506085
C36	C	1.745376	0.142301	1.006085
C37	C	1.128599	-0.357711	0.506104
C38	C	1.628599	0.142289	1.006104
C39	C	1.073756	-0.405268	0.573173
C40	C	1.573756	0.094732	1.073173
C41	C	0.964032	-0.405277	0.573185
C42	C	1.464032	0.094723	1.073185
C43	C	0.964004	-0.310171	0.439049
C44	C	1.464004	0.189829	0.939049
C45	C	1.073726	-0.310159	0.439043
C46	C	1.573726	0.189841	0.939043
C47	C	1.128629	-0.452820	0.640234
C48	C	1.628629	0.047180	1.140234
C49	C	1.073785	-0.500382	0.707308
C50	C	1.573785	-0.000382	1.207308
C51	C	0.964061	-0.500391	0.707320
C52	C	1.464061	-0.000391	1.207320
C53	C	0.909181	-0.452839	0.640257
C54	C	1.409181	0.047161	1.140257
C55	C	1.518262	-0.550665	0.506058
C56	C	2.018262	-0.050665	1.006058
C57	C	1.518324	-0.633211	0.506075
C58	C	2.018324	-0.133211	1.006075
C59	C	1.588628	-0.832657	0.435999
C60	C	2.088628	-0.332657	0.935999
C61	C	1.614296	-0.881981	0.531886
C62	C	2.114296	-0.381981	1.031886
C63	C	1.518384	-0.784341	0.506117
C64	C	2.018384	-0.284341	1.006117
C65	C	1.492823	-0.882099	0.410274
C66	C	1.992823	-0.382099	0.910274
C67	C	1.518443	-0.930326	0.506149
C68	C	2.018443	-0.430326	1.006149
C69	C	1.544100	-0.832578	0.602054
C70	C	2.044100	-0.332578	1.102054
C71	C	1.422583	-0.832691	0.480377
C72	C	1.922583	-0.332691	0.980377
C73	C	1.448214	-0.881993	0.576329
C74	C	1.948214	-0.381993	1.076329
C75	C	1.518352	-0.700243	0.506097
C76	C	2.018352	-0.200243	1.006097
C77	C	1.518475	-1.014423	0.506180
C78	C	2.018475	-0.514423	1.006180
C79	C	1.792376	-0.357727	0.506115
C80	C	2.292376	0.142273	1.006115
C81	C	1.909153	-0.357733	0.506121
C82	C	2.409153	0.142267	1.006121
C83	C	1.518417	-0.357638	0.780133
C84	C	2.018417	0.142362	1.280133
C85	C	1.518448	-0.357606	0.896910
C86	C	2.018448	0.142394	1.396910
C87	C	1.518453	-0.164007	0.506165
C88	C	2.018453	0.335993	1.006165
C89	C	1.518500	-0.081462	0.506192
C90	C	2.018500	0.418538	1.006192
C91	C	1.518330	-0.357734	0.233132
C92	C	2.018330	0.142266	0.733132
C93	C	1.518502	-0.357557	0.116356
C94	C	2.018502	0.142443	0.616356
C95	C	1.585680	-0.310106	0.951793
C96	C	2.085680	0.189894	1.451793
C97	C	1.585705	-0.310079	1.061517
C98	C	2.085705	0.189921	1.561517
C99	C	1.451263	-0.405059	1.061465
C100	C	1.951263	0.094941	1.561465
C101	C	1.451233	-0.405081	0.951743
C102	C	1.951233	0.094919	1.451743
C103	C	1.652895	-0.262631	0.896960
C104	C	2.152895	0.237369	1.396960
C105	C	1.720134	-0.215128	0.951844
C106	C	2.220134	0.284872	1.451844
C107	C	1.720159	-0.215101	1.061568
C108	C	2.220159	0.284899	1.561568
C109	C	1.652945	-0.262577	1.116408
C110	C	2.152945	0.237423	1.616408
H111	H	0.919410	-0.539112	0.761942
H112	H	1.419410	-0.039112	1.261942
O113	O	1.792675	-0.163869	1.120770
O114	O	2.292675	0.336131	1.620770
H115	H	1.839411	-0.130867	1.064203
H116	H	2.339411	0.369133	1.564203
H117	H	1.471179	-0.903850	0.329207
H118	H	1.971179	-0.403850	0.829207
O119	O	0.904826	-0.258889	0.366709
O120	O	1.404826	0.241111	0.866709
H121	H	0.925868	-0.271556	0.284224
H122	H	1.425868	0.228444	0.784224
O123	O	1.369554	-0.910513	0.654971
O124	O	1.869554	-0.410513	1.154971
H125	H	1.391043	-0.890569	0.734431
H126	H	1.891043	-0.390569	1.234431
H127	H	1.341564	-0.811022	0.458557
H128	H	1.841564	-0.311022	0.958557
H129	H	1.652885	-0.262649	0.807617
H130	H	2.152885	0.237351	1.307617
O131	O	1.667335	-0.803969	0.357525
O132	O	2.167335	-0.303969	0.857525
H133	H	1.626330	-0.770200	0.297522
H134	H	2.126330	-0.270200	0.797522
O135	O	1.721640	-0.910666	0.560764
O136	O	2.221640	-0.410666	1.060764
H137	H	1.779788	-0.890911	0.502438
H138	H	2.279788	-0.390911	1.002438
H139	H	1.774850	-0.176469	0.907185
H140	H	2.274850	0.323531	1.407185
O141	O	1.652967	-0.262551	1.234755
O142	O	2.152967	0.237449	1.734755
H143	H	1.711012	-0.221546	1.263709
H144	H	2.211012	0.278454	1.763709
O145	O	1.378774	-0.456266	1.120607
O146	O	1.878774	0.043734	1.620607
H147	H	1.390096	-0.448274	1.206124
H148	H	1.890096	0.051726	1.706124
O149	O	1.378719	-0.456311	0.892535
O150	O	1.878719	0.043689	1.392535
H151	H	1.331995	-0.489327	0.949095
H152	H	1.831995	0.010673	1.449095
H153	H	1.118476	-0.539092	0.761914
H154	H	1.618476	-0.039092	1.261914
O155	O	1.246973	-0.452812	0.640214
O156	O	1.746973	0.047188	1.140214
H157	H	1.275919	-0.493865	0.698114
H158	H	1.775919	0.006135	1.198114
H159	H	0.819836	-0.452844	0.640281
H160	H	1.319836	0.047156	1.140281
O161	O	1.132885	-0.258873	0.366694
O162	O	1.632885	0.241127	0.866694
H163	H	1.111842	-0.200603	0.384854
H164	H	1.611842	0.299397	0.884854
O165	O	1.572907	-0.803898	0.709468
O166	O	2.072907	-0.303898	1.209468
H167	H	1.572699	-0.742411	0.708600
H168	H	2.072699	-0.242411	1.208600
