data_functionalizedCrystal
_audit_creation_method	'MofGen! by Chris Wilmer'
_symmetry_space_group_name_H-M	'P1'
_symmetry_Int_Tables_number	1
_symmetry_cell_setting	triclinic
loop_
_symmetry_equiv_pos_as_xyz
  x,y,z
_cell_length_a	14.044191
_cell_length_b	23.532357
_cell_length_c	12.503572
_cell_angle_alpha	93.494896
_cell_angle_beta	86.162165
_cell_angle_gamma	88.010034
loop_
_atom_site_label
_atom_site_type_symbol
_atom_site_fract_x
_atom_site_fract_y
_atom_site_fract_z
O1	O	1.261869	0.134240	-0.089293
O2	O	0.985948	0.129283	-0.089305
O3	O	1.132252	0.049281	-0.089277
O4	O	1.115565	0.214242	-0.089321
O5	O	1.121249	0.055308	0.089363
O6	O	0.974945	0.135310	0.089334
O7	O	1.250866	0.140267	0.089347
Cu8	Cu	1.111901	0.138339	0.105652
Cu9	Cu	1.124913	0.131211	-0.105610
O10	O	1.104562	0.220269	0.089318
C11	C	0.945153	0.130128	0.000013
C12	C	0.839990	0.123661	0.000009
C13	C	1.126333	0.031055	0.000047
C14	C	1.125077	-0.032231	0.000057
C15	C	0.589373	0.157706	0.000011
C16	C	0.647447	0.111846	0.000021
C17	C	0.754588	0.118421	0.000015
C18	C	0.482222	0.151132	0.000018
C19	C	1.123199	-0.427957	-0.097378
C20	C	1.122006	-0.487421	-0.097384
O21	O	1.126458	-0.520967	-0.180199
N22	N	1.115417	-0.513879	-0.000009
C23	C	1.110010	-0.480869	0.097379
O24	O	1.104295	-0.508833	0.180203
C25	C	1.111196	-0.421405	0.097384
C26	C	1.117795	-0.394951	0.000002
C27	C	1.129797	-0.401502	-0.194752
C28	C	1.130991	-0.342042	-0.194745
C29	C	1.125588	-0.309036	-0.097365
C30	C	1.118990	-0.335491	0.000009
C31	C	1.105783	-0.388396	0.194770
C32	C	1.106969	-0.328929	0.194767
C33	C	1.113568	-0.302475	0.097385
C34	C	1.114781	-0.243025	0.097395
N35	N	1.121370	-0.216567	0.000020
C36	C	1.126774	-0.249573	-0.097360
C37	C	1.107518	-0.605746	0.097360
C38	C	1.106339	-0.665209	0.097357
C39	C	1.118333	-0.671757	-0.097407
C40	C	1.119519	-0.612294	-0.097402
C41	C	1.114108	-0.579288	-0.000015
C42	C	1.129283	-0.124702	-0.097339
C43	C	1.130480	-0.065237	-0.097324
C44	C	1.118481	-0.058693	0.097439
C45	C	1.117288	-0.118154	0.097425
C46	C	1.122686	-0.151157	0.000027
O47	O	1.110329	-0.209443	0.180168
O48	O	1.132476	-0.221600	-0.180171
C49	C	1.291661	0.139422	0.000026
C50	C	1.396824	0.145889	0.000023
C51	C	1.110481	0.238495	-0.000007
C52	C	1.111737	0.301781	-0.000024
N53	N	1.102755	0.143353	0.254242
N54	N	1.134066	0.126193	-0.254201
C55	C	1.089302	0.150733	0.473355
C56	C	1.147516	0.118815	0.526694
C57	C	1.140030	0.122921	0.648615
C58	C	1.096787	0.146627	0.351422
H59	H	0.616705	0.067643	-0.000042
C60	C	0.730519	0.212417	-0.000029
C61	C	0.630874	0.217372	-0.000020
H62	H	0.756147	0.249252	-0.000058
H63	H	0.747665	0.194432	0.062271
H64	H	0.755324	0.190214	-0.062320
H65	H	0.606069	0.239572	0.062275
H66	H	0.613719	0.235366	-0.062328
H67	H	1.135857	-0.043701	-0.176627
H68	H	1.111923	-0.139694	0.176720
H69	H	1.124891	-0.590759	-0.176698
C70	C	1.141238	-0.125185	-0.289854
C71	C	1.135201	-0.160973	-0.204399
H72	H	1.144894	-0.147578	-0.355946
H73	H	1.086206	-0.100314	-0.285785
H74	H	1.196718	-0.103399	-0.285794
H75	H	1.079716	-0.182756	-0.208455
H76	H	1.190238	-0.185854	-0.208470
C77	C	0.952615	0.160827	0.599999
C78	C	1.014444	0.191786	0.535317
H79	H	0.906408	0.186173	0.638266
H80	H	0.921338	0.133979	0.556137
H81	H	0.988169	0.141338	0.649475
H82	H	0.978890	0.211272	0.485835
H83	H	1.045723	0.218644	0.579183
H84	H	1.136361	-0.320509	-0.274043
H85	H	1.134193	-0.428370	-0.274055
H86	H	1.122730	-0.698641	-0.176699
H87	H	1.103114	-0.578877	0.176670
C88	C	1.094601	-0.652748	0.289869
C89	C	1.099093	-0.694283	0.204401
H90	H	1.090118	-0.670697	0.355955
H91	H	1.150569	-0.631234	0.285819
H92	H	1.040059	-0.628151	0.285802
H93	H	1.153640	-0.718878	0.208463
H94	H	1.043119	-0.715807	0.208453
C95	C	1.176008	0.038063	0.400371
C96	C	1.222279	0.077640	0.464869
H97	H	1.222132	0.012611	0.362236
H98	H	1.133942	0.017190	0.444342
H99	H	1.140583	0.057548	0.350779
H100	H	1.257699	0.058154	0.514466
H101	H	1.264362	0.098514	0.420894
C102	C	1.094015	-0.375924	0.387278
C103	C	1.098517	-0.417463	0.301817
H104	H	1.089521	-0.393870	0.453367
H105	H	1.149983	-0.354410	0.383235
H106	H	1.039474	-0.351327	0.383197
H107	H	1.153062	-0.442058	0.305893
H108	H	1.042543	-0.438987	0.305862
H109	H	1.114086	-0.031809	0.176724
C110	C	1.019882	-0.255991	0.307757
C111	C	1.101018	-0.292648	0.301818
H112	H	1.016208	-0.233596	0.373847
H113	H	1.023991	-0.231728	0.249772
H114	H	0.964419	-0.277793	0.303696
H115	H	1.156482	-0.270846	0.305870
H116	H	1.096917	-0.316915	0.359818
