data_functionalizedCrystal
_audit_creation_method	'MofGen! by Chris Wilmer'
_symmetry_space_group_name_H-M	'P1'
_symmetry_Int_Tables_number	1
_symmetry_cell_setting	triclinic
loop_
_symmetry_equiv_pos_as_xyz
  x,y,z
_cell_length_a	14.853567
_cell_length_b	14.853568
_cell_length_c	13.930277
_cell_angle_alpha	89.999968
_cell_angle_beta	89.995755
_cell_angle_gamma	96.364941
loop_
_atom_site_label
_atom_site_type_symbol
_atom_site_fract_x
_atom_site_fract_y
_atom_site_fract_z
O1	O	1.196369	-0.117703	-0.079755
O2	O	0.933909	-0.131725	-0.079770
O3	O	1.072149	0.006516	-0.079767
O4	O	1.058129	-0.255944	-0.079758
O5	O	1.072130	0.006519	0.079895
O6	O	0.933890	-0.131722	0.079892
O7	O	1.196349	-0.117701	0.079907
Zn8	Zn	1.065117	-0.124711	0.105249
Zn9	Zn	1.065142	-0.124715	-0.105112
O10	O	1.058109	-0.255941	0.079904
C11	C	0.900311	-0.131088	0.000059
C12	C	0.800227	-0.129184	0.000053
C13	C	0.387693	-0.039019	0.000071
C14	C	0.366413	-0.203251	0.000076
C15	C	0.460446	-0.205041	0.000073
C16	C	0.518108	-0.123819	0.000067
C17	C	0.481736	-0.040806	0.000065
C18	C	0.496826	-0.288053	0.000065
C19	C	0.590865	-0.289846	0.000061
C20	C	0.648528	-0.208623	0.000063
C21	C	0.612151	-0.125607	0.000061
C22	C	0.669812	-0.044384	0.000056
C23	C	0.633437	0.038633	0.000062
C24	C	0.539399	0.040417	0.000067
C25	C	0.742565	-0.210407	0.000058
C26	C	0.763855	-0.046172	0.000050
C27	C	1.071504	0.040106	0.000061
C28	C	1.069600	0.140189	0.000051
C29	C	1.229948	-0.118337	0.000076
C30	C	1.330031	-0.120241	0.000076
N31	N	1.065106	-0.124708	0.248815
C32	C	0.979434	0.552723	0.000058
C33	C	1.143666	0.574004	0.000067
C34	C	1.145457	0.479970	0.000063
C35	C	1.064234	0.422309	0.000058
C36	C	0.981221	0.458680	0.000057
C37	C	1.228468	0.443591	0.000074
C38	C	1.230262	0.349552	0.000071
C39	C	1.149038	0.291889	0.000059
C40	C	1.066022	0.328266	0.000056
C41	C	0.984800	0.270604	0.000051
C42	C	0.901783	0.306979	0.000042
C43	C	0.899998	0.401017	0.000044
C44	C	1.150823	0.197851	0.000056
C45	C	0.986588	0.176561	0.000050
C46	C	1.058754	0.710469	0.000071
C47	C	1.060656	0.610385	0.000063
N48	N	1.065160	-0.124711	-0.248678
C49	C	1.003927	-0.185903	0.701083
C50	C	1.126382	-0.063519	0.701055
C51	C	1.126371	-0.063516	0.600560
C52	C	1.065138	-0.124709	0.550321
C53	C	1.003916	-0.185904	0.600578
C54	C	1.187598	-0.002328	0.550295
C55	C	1.187591	-0.002323	0.449793
C56	C	1.126353	-0.063512	0.399553
C57	C	1.065127	-0.124710	0.449816
C58	C	1.003895	-0.185902	0.399577
C59	C	0.942664	-0.247096	0.449839
C60	C	0.942678	-0.247093	0.550338
C61	C	1.126339	-0.063515	0.299054
C62	C	1.003884	-0.185903	0.299072
H63	H	0.449871	-0.354179	0.000059
H64	H	1.297859	0.319944	0.000077
H65	H	0.954017	-0.235731	0.258174
H66	H	0.954071	-0.235724	0.742009
H67	H	1.176240	-0.013702	0.741963
C68	C	0.875311	-0.314407	0.394564
N69	N	0.824581	-0.365103	0.352926
C70	C	0.782575	-0.301720	0.000050
N71	N	0.812708	-0.370501	0.000047
H72	H	1.237457	0.047489	0.591203
H73	H	1.218414	0.168238	0.000070
H74	H	0.319459	-0.269379	0.000072
C75	C	0.347680	0.052296	0.000077
N76	N	0.317540	0.121075	0.000080
C77	C	0.875326	-0.314396	0.605633
N78	N	0.824596	-0.365087	0.647285
C79	C	1.254938	0.064998	0.394515
N80	N	1.305661	0.115708	0.352878
C81	C	1.193689	0.003794	0.243771
N82	N	1.244418	0.054496	0.202133
H83	H	0.810798	0.019971	0.000050
H84	H	0.911843	0.582344	0.000047
C85	C	0.696876	0.127975	0.000059
N86	N	0.744663	0.195265	0.000059
H87	H	0.620473	-0.357443	0.000056
H88	H	0.920445	0.129618	0.000041
C89	C	0.808687	0.441037	0.000055
N90	N	0.739913	0.471185	0.000071
H91	H	0.509773	0.108005	0.000094
H92	H	0.835652	0.260019	0.000045
H93	H	1.294595	0.490546	0.000087
H94	H	1.209794	0.620957	0.000079
