data_functionalizedCrystal
_audit_creation_method	'MofGen! by Chris Wilmer'
_symmetry_space_group_name_H-M	'P1'
_symmetry_Int_Tables_number	1
_symmetry_cell_setting	triclinic
loop_
_symmetry_equiv_pos_as_xyz
  x,y,z
_cell_length_a	15.995343
_cell_length_b	8.559649
_cell_length_c	7.681481
_cell_angle_alpha	94.930900
_cell_angle_beta	95.727685
_cell_angle_gamma	103.366076
loop_
_atom_site_label
_atom_site_type_symbol
_atom_site_fract_x
_atom_site_fract_y
_atom_site_fract_z
O1	O	1.088871	-0.221010	-0.146247
O2	O	0.843456	-0.246461	-0.146289
O3	O	0.987785	-0.001132	-0.146263
O4	O	0.944542	-0.466339	-0.146273
O5	O	1.005554	0.029132	0.146598
O6	O	0.861225	-0.216197	0.146572
O7	O	1.106640	-0.190746	0.146614
Zn8	Zn	0.986753	-0.198666	0.193091
Zn9	Zn	0.963342	-0.238541	-0.192766
O10	O	0.962311	-0.436075	0.146587
C11	C	0.821213	-0.230280	0.000136
C12	C	0.728463	-0.227134	0.000120
C13	C	0.558646	-0.221419	0.000144
C14	C	0.546688	-0.044330	0.000148
C15	C	0.450265	-0.040929	0.000823
C16	C	0.391449	-0.215790	0.000165
C17	C	0.424941	-0.287585	0.167069
C18	C	0.521607	-0.289672	0.167198
C19	C	0.501143	-0.326682	-0.165851
C20	C	0.404936	-0.320370	-0.168034
C21	C	0.296956	-0.212617	0.000183
C22	C	0.653139	-0.224595	0.000138
C23	C	0.999946	0.073530	0.000165
C24	C	1.009700	0.250910	0.000157
C25	C	1.128883	-0.206928	0.000185
C26	C	1.221631	-0.210075	0.000189
C27	C	0.950149	-0.510737	0.000156
C28	C	0.940395	-0.688118	0.000152
N29	N	1.002737	-0.171452	0.456428
N30	N	0.947366	-0.265742	-0.456103
H31	H	0.571848	0.011943	-0.119522
C32	C	1.098821	0.362208	0.000540
C33	C	1.152519	0.348866	0.151234
C34	C	1.234617	0.451384	0.151658
H35	H	1.123101	0.332360	-0.101466
H36	H	1.093804	0.470665	0.000645
H37	H	1.157538	0.240432	0.151114
H38	H	1.128266	0.378727	0.253265
H39	H	1.229601	0.559841	0.151762
H40	H	1.258889	0.421526	0.049645
H41	H	1.271059	0.442356	0.253909
H42	H	0.890844	-0.361984	0.468690
H43	H	1.059269	-0.075215	0.531644
C44	C	0.851322	0.200666	0.000489
C45	C	0.815907	0.245130	0.151174
C46	C	0.733859	0.142691	0.151554
H47	H	0.814663	0.209444	-0.101524
H48	H	0.856352	0.092229	0.000575
H49	H	0.810873	0.353540	0.151072
H50	H	0.852542	0.236345	0.253211
H51	H	0.738889	0.034254	0.151640
H52	H	0.697208	0.151476	0.049536
H53	H	0.709823	0.172836	0.253800
H54	H	0.587265	0.035543	0.119661
C55	C	0.421377	0.035663	-0.158716
C56	C	0.490780	0.079273	-0.256600
C57	C	0.464211	0.149867	-0.403563
H58	H	0.374953	-0.039528	-0.229927
H59	H	0.402712	0.129185	-0.120790
H60	H	0.509433	-0.014237	-0.294528
H61	H	0.537211	0.154479	-0.185441
H62	H	0.445546	0.243390	-0.365637
H63	H	0.417787	0.074668	-0.474759
H64	H	0.511299	0.179479	-0.469987
H65	H	0.443591	0.040883	0.121169
H66	H	0.528262	-0.418798	0.174332
C67	C	0.572833	-0.191273	0.334118
C68	C	0.660346	-0.192128	0.336027
C69	C	0.707556	-0.101512	0.489777
H70	H	0.566895	-0.083218	0.337279
H71	H	0.551440	-0.237304	0.433967
H72	H	0.681733	-0.146092	0.236206
H73	H	0.666310	-0.300159	0.332894
H74	H	0.686162	-0.147543	0.589626
H75	H	0.701611	0.006537	0.492925
H76	H	0.766937	-0.102093	0.491101
H77	H	0.383056	-0.268286	-0.291512
H78	H	0.385171	-0.415634	0.172804
H79	H	0.416343	-0.213605	0.291753
H80	H	0.506677	-0.457196	-0.167463
H81	H	0.525328	-0.283888	-0.292398
H82	H	0.363135	-0.449004	-0.178632
