data_functionalizedCrystal
_audit_creation_method	'MofGen! by Chris Wilmer'
_symmetry_space_group_name_H-M	'P1'
_symmetry_Int_Tables_number	1
_symmetry_cell_setting	triclinic
loop_
_symmetry_equiv_pos_as_xyz
  x,y,z
_cell_length_a	16.959453
_cell_length_b	16.959455
_cell_length_c	11.169409
_cell_angle_alpha	89.977047
_cell_angle_beta	90.037272
_cell_angle_gamma	89.985243
loop_
_atom_site_label
_atom_site_type_symbol
_atom_site_fract_x
_atom_site_fract_y
_atom_site_fract_z
Zn1	Zn	-0.314728	-1.208445	0.678602
Zn2	Zn	-0.446935	-1.208349	0.477901
Zn3	Zn	-0.314762	-1.076255	0.477925
Zn4	Zn	-0.446856	-1.076238	0.678535
O5	O	-0.380820	-1.142322	0.578241
O6	O	-0.332284	-1.319043	0.651996
O7	O	-0.429449	-1.190794	0.309955
O8	O	-0.204147	-1.093837	0.504583
O9	O	-0.429416	-1.318973	0.504542
O10	O	-0.204121	-1.190956	0.652019
O11	O	-0.332342	-1.093745	0.309972
O12	O	-0.332266	-0.965642	0.504519
O13	O	-0.429282	-1.093808	0.846494
O14	O	-0.429315	-0.965629	0.651906
O15	O	-0.332208	-1.190940	0.846543
O16	O	-0.557535	-1.190777	0.504478
O17	O	-0.557477	-1.093716	0.651883
C18	C	-0.380786	-0.936955	0.578208
C19	C	-0.380791	-0.849099	0.578223
C20	C	-0.330220	-0.477605	0.501640
C21	C	-0.431435	-0.477641	0.654878
C22	C	-0.431427	-0.560187	0.654872
C23	C	-0.380815	-0.601446	0.578249
C24	C	-0.330212	-0.560159	0.501630
C25	C	-0.482035	-0.601480	0.731481
C26	C	-0.482029	-0.684031	0.731478
C27	C	-0.431413	-0.725291	0.654859
C28	C	-0.380807	-0.683999	0.578238
C29	C	-0.330196	-0.725258	0.501615
C30	C	-0.279585	-0.683968	0.424999
C31	C	-0.279596	-0.601419	0.425012
C32	C	-0.431402	-0.807840	0.654847
C33	C	-0.330188	-0.807812	0.501604
C34	C	-0.586186	-1.142256	0.578197
C35	C	-0.674043	-1.142300	0.578218
C36	C	-1.045447	-1.192956	0.655156
C37	C	-1.045590	-1.091908	0.501504
C38	C	-0.963044	-1.091879	0.501477
C39	C	-0.921696	-1.142388	0.578291
C40	C	-0.962893	-1.192927	0.655133
C41	C	-0.921840	-1.041335	0.424644
C42	C	-0.839290	-1.041303	0.424615
C43	C	-0.797940	-1.091817	0.501424
C44	C	-0.839142	-1.142359	0.578268
C45	C	-0.797794	-1.192868	0.655083
C46	C	-0.838995	-1.243414	0.731922
C47	C	-0.921544	-1.243441	0.731942
C48	C	-0.715391	-1.091790	0.501404
C49	C	-0.715241	-1.192839	0.655060
C50	C	-0.174652	-1.142409	0.578311
C51	C	-0.086795	-1.142447	0.578341
C52	C	-0.380732	-1.142382	0.891283
C53	C	-0.380695	-1.142408	1.024683
C54	C	-0.380845	-0.348490	0.578268
C55	C	-0.380831	-0.436346	0.578264
C56	C	-0.380851	-1.142307	0.266416
C57	C	-0.380665	-1.142434	0.133017
H58	H	-0.288968	-0.841399	0.439215
H59	H	-1.079261	-1.050782	0.438970
N60	N	-0.966434	-0.986866	0.341790
H61	H	-1.024980	-0.994562	0.353456
H62	H	-0.952037	-0.999201	0.256093
H63	H	-0.289012	-0.443983	0.439265
N64	N	-0.225003	-0.728471	0.342348
H65	H	-0.232685	-0.787030	0.353969
H66	H	-0.168565	-0.714066	0.361183
N67	N	-0.794387	-1.297887	0.814766
H68	H	-0.808719	-1.354377	0.796209
H69	H	-0.808729	-1.285523	0.900474
H70	H	-0.955097	-1.284592	0.794502
N71	N	-0.670648	-1.247312	0.737923
H72	H	-0.612102	-1.239624	0.726257
H73	H	-0.685049	-1.303777	0.719327
N74	N	-0.225038	-0.556887	0.342345
H75	H	-0.232735	-0.498332	0.353964
H76	H	-0.237300	-0.571302	0.256609
H77	H	-0.805749	-1.000147	0.362048
N78	N	-0.536614	-0.728556	0.814113
H79	H	-0.524401	-0.714215	0.899898
H80	H	-0.528907	-0.787097	0.802387
N81	N	-1.089878	-1.247476	0.738024
H82	H	-1.148447	-1.239835	0.726384
H83	H	-1.075411	-1.235139	0.823719
N84	N	-0.486019	-0.433150	0.737527
H85	H	-0.542480	-0.447503	0.718738
H86	H	-0.478282	-0.374604	0.725873
H87	H	-0.472611	-0.841455	0.717222
H88	H	-0.523245	-0.567881	0.793855
N89	N	-0.670952	-1.037275	0.418548
H90	H	-0.709672	-1.005279	0.369895
H91	H	-0.636714	-1.069454	0.363036
