data_functionalizedCrystal
_audit_creation_method	'MofGen! by Chris Wilmer'
_symmetry_space_group_name_H-M	'P1'
_symmetry_Int_Tables_number	1
_symmetry_cell_setting	triclinic
loop_
_symmetry_equiv_pos_as_xyz
  x,y,z
_cell_length_a	21.295418
_cell_length_b	21.295417
_cell_length_c	21.295411
_cell_angle_alpha	89.978356
_cell_angle_beta	90.043738
_cell_angle_gamma	89.953681
loop_
_atom_site_label
_atom_site_type_symbol
_atom_site_fract_x
_atom_site_fract_y
_atom_site_fract_z
Zn1	Zn	0.962356	0.250415	0.356234
Zn2	Zn	1.462356	0.750415	0.856234
Zn3	Zn	0.962258	0.355667	0.250959
Zn4	Zn	1.462258	0.855667	0.750959
Zn5	Zn	0.857079	0.250445	0.250943
Zn6	Zn	1.357079	0.750445	0.750943
Zn7	Zn	0.857048	0.355680	0.356155
Zn8	Zn	1.357048	0.855680	0.856155
O9	O	0.909685	0.303052	0.303573
O10	O	1.409685	0.803052	0.803573
O11	O	1.050432	0.264360	0.342308
O12	O	1.550432	0.764360	0.842308
O13	O	0.948278	0.341716	0.162867
O14	O	1.448278	0.841716	0.662867
O15	O	0.871098	0.162351	0.264937
O16	O	1.371098	0.662351	0.764937
O17	O	1.050361	0.341688	0.264963
O18	O	1.550361	0.841688	0.764963
O19	O	0.948444	0.162330	0.342293
O20	O	1.448444	0.662330	0.842293
O21	O	0.871003	0.264410	0.162856
O22	O	1.371003	0.764410	0.662856
O23	O	0.768985	0.264422	0.264861
O24	O	1.268985	0.764422	0.764861
O25	O	0.871046	0.341709	0.444255
O26	O	1.371046	0.841709	0.944255
O27	O	0.768963	0.341738	0.342160
O28	O	1.268963	0.841738	0.842160
O29	O	0.948415	0.264372	0.444313
O30	O	1.448415	0.764372	0.944313
O31	O	0.948248	0.443758	0.264887
O32	O	1.448248	0.943758	0.764887
O33	O	0.870951	0.443767	0.342175
O34	O	1.370951	0.943767	0.842175
C35	C	0.746134	0.303085	0.303500
C36	C	1.246134	0.803085	0.803500
C37	C	0.676166	0.303114	0.303484
C38	C	1.176166	0.803114	0.803484
C39	C	0.909603	0.466603	0.303538
C40	C	1.409603	0.966603	0.803538
C41	C	0.909625	0.536571	0.303544
C42	C	1.409625	1.036571	0.803544
C43	C	0.643304	0.343426	0.343674
C44	C	1.143304	0.843426	0.843674
C45	C	0.577561	0.343410	0.343702
C46	C	1.077561	0.843410	0.843702
C47	C	0.544683	0.303090	0.303530
C48	C	1.044683	0.803090	0.803530
C49	C	0.577553	0.262770	0.263337
C50	C	1.077553	0.762770	0.763337
C51	C	0.643294	0.262783	0.263315
C52	C	1.143294	0.762783	0.763315
N53	N	0.441407	0.298163	0.248472
N54	N	0.941407	0.798163	0.748472
N55	N	0.378956	0.298155	0.248495
N56	N	0.878956	0.798155	0.748495
C57	C	0.346608	0.303050	0.303596
C58	C	0.846608	0.803050	0.803596
N59	N	0.379072	0.307965	0.358675
N60	N	0.879072	0.807965	0.858675
N61	N	0.441529	0.307976	0.358650
N62	N	0.941529	0.807976	0.858650
C63	C	0.473398	0.303072	0.303550
C64	C	0.973398	0.803072	0.803550
C65	C	0.242461	0.343346	0.343820
C66	C	0.742461	0.843346	0.843820
C67	C	0.176717	0.343326	0.343849
C68	C	0.676717	0.843326	0.843849
C69	C	0.176710	0.262690	0.263479
C70	C	0.676710	0.762690	0.763479
C71	C	0.242453	0.262707	0.263455
C72	C	0.742453	0.762707	0.763455
C73	C	0.275324	0.303038	0.303625
C74	C	0.775324	0.803038	0.803625
C75	C	0.909738	0.303038	0.467763
C76	C	1.409738	0.803038	0.967763
C77	C	0.909760	0.303033	0.537731
C78	C	1.409760	0.803033	1.037731
C79	C	1.073876	0.303019	0.303646
C80	C	1.573876	0.803019	0.803646
C81	C	1.143844	0.303005	0.303677
C82	C	1.643844	0.803005	0.803677
C83	C	0.909785	0.138861	0.303622
C84	C	1.409785	0.638861	0.803622
C85	C	0.909828	0.068893	0.303642
C86	C	1.409828	0.568893	0.803642
C87	C	0.949910	0.569412	0.263342
C88	C	1.449910	1.069412	0.763342
C89	C	0.949939	0.635155	0.263356
C90	C	1.449939	1.135155	0.763356
C91	C	0.909673	0.668054	0.303566
C92	C	1.409673	1.168054	0.803566
C93	C	0.869386	0.635205	0.343776
C94	C	1.369386	1.135205	0.843776
C95	C	0.869362	0.569464	0.343765
C96	C	1.369362	1.069464	0.843765
N97	N	0.854606	0.771336	0.308340
N98	N	1.354606	1.271336	0.808340
N99	N	0.854630	0.833787	0.308347
N100	N	1.354630	1.333787	0.808347
C101	C	0.909743	0.866129	0.303602
C102	C	1.409743	1.366129	0.803602
N103	N	0.964832	0.833659	0.298838
N104	N	1.464832	1.333659	0.798838
N105	N	0.964807	0.771202	0.298828
N106	N	1.464807	1.271202	0.798828
C107	C	0.909695	0.739339	0.303582
C108	C	1.409695	1.239339	0.803582
C109	C	0.950063	0.970255	0.263413
C110	C	1.450063	1.470255	0.763413
C111	C	0.950094	1.035999	0.263431
C112	C	1.450094	1.535999	0.763431
C113	C	0.869535	1.036048	0.343848
C114	C	1.369535	1.536048	0.843848
C115	C	0.869510	0.970305	0.343833
C116	C	1.369510	1.470305	0.843833
C117	C	0.909773	0.937413	0.303612
C118	C	1.409773	1.437413	0.803612
C119	C	0.909670	0.303019	0.140021
C120	C	1.409670	0.803019	0.640021
C121	C	0.909769	0.302848	0.070054
C122	C	1.409769	0.802848	0.570054
C123	C	0.950044	0.262761	0.570629
C124	C	1.450044	0.762761	1.070629
C125	C	0.950043	0.262734	0.636371
C126	C	1.450043	0.762734	1.136371
C127	C	0.909765	0.302989	0.669214
C128	C	1.409765	0.802989	1.169214
C129	C	0.869473	0.343263	0.636308
C130	C	1.369473	0.843263	1.136308
C131	C	0.869470	0.343285	0.570567
C132	C	1.369470	0.843285	1.070567
N133	N	0.904908	0.358058	0.772428
N134	N	1.404908	0.858058	1.272428
N135	N	0.904914	0.358036	0.834879
N136	N	1.404914	0.858036	1.334879
C137	C	0.909769	0.302926	0.867289
C138	C	1.409769	0.802926	1.367289
N139	N	0.914629	0.247837	0.834888
N140	N	1.414629	0.747837	1.334888
N141	N	0.914627	0.247860	0.772430
N142	N	1.414627	0.747860	1.272430
C143	C	0.909763	0.302970	0.740499
C144	C	1.409763	0.802970	1.240499
C145	C	0.950054	0.262621	0.971472
C146	C	1.450054	0.762621	1.471472
C147	C	0.950049	0.262593	1.037216
C148	C	1.450049	0.762593	1.537216
C149	C	0.869482	0.343128	1.037151
C150	C	1.369482	0.843128	1.537151
C151	C	0.869484	0.343151	0.971409
C152	C	1.369484	0.843151	1.471409
C153	C	0.909773	0.302898	0.938573
C154	C	1.409773	0.802898	1.438573
H155	H	0.550800	0.376236	0.376431
H156	H	1.050800	0.876236	0.876431
C157	C	0.825920	1.071837	0.387545
C158	C	1.325920	1.571837	0.887545
C159	C	0.861557	1.109525	0.427933
C160	C	1.361557	1.609525	0.927933
C161	C	0.821402	1.142512	0.468194
C162	C	1.321402	1.642512	0.968194
H163	H	0.801908	1.042931	0.411546
H164	H	1.301908	1.542931	0.911546
H165	H	0.798522	1.097567	0.363454
H166	H	1.298522	1.597567	0.863454
H167	H	0.888944	1.083798	0.452022
H168	H	1.388944	1.583798	0.952022
H169	H	0.885568	1.138443	0.403950
H170	H	1.385568	1.638443	0.903950
H171	H	0.794005	1.168241	0.444103
H172	H	1.294005	1.668241	0.944103
H173	H	0.797392	1.113601	0.492190
H174	H	1.297392	1.613601	0.992190
H175	H	0.845576	1.168091	0.495598
H176	H	1.345576	1.668091	0.995598
H177	H	0.836683	0.375948	0.944623
H178	H	1.336683	0.875948	1.444623
C179	C	0.141136	0.218843	0.219839
C180	C	0.641136	0.718843	0.719839
C181	C	0.183991	0.183532	0.184645
C182	C	0.683991	0.683532	0.684645
C183	C	0.151240	0.143125	0.144445
C184	C	0.651240	0.643125	0.644445
H185	H	0.115432	0.242806	0.192320
H186	H	0.615432	0.742806	0.692320
H187	H	0.115559	0.191411	0.243966
H188	H	0.615559	0.691411	0.743966
H189	H	0.209556	0.210960	0.160520
H190	H	0.709556	0.710960	0.660520
H191	H	0.209696	0.159556	0.212147
H192	H	0.709696	0.659556	0.712147
H193	H	0.125663	0.115693	0.168572
H194	H	0.625663	0.615693	0.668572
H195	H	0.125537	0.167093	0.116930
H196	H	0.625537	0.667093	0.616930
H197	H	0.180311	0.119158	0.120565
H198	H	0.680311	0.619158	0.620565
H199	H	0.269209	0.229884	0.230726
H200	H	0.769209	0.729884	0.730726
H201	H	0.836704	0.943564	0.376567
H202	H	1.336704	1.443564	0.876567
H203	H	0.982902	1.062737	0.230695
H204	H	1.482902	1.562737	0.730695
C205	C	0.993805	0.218986	0.535093
C206	C	1.493805	0.718986	1.035093
C207	C	1.029072	0.183699	0.577980
C208	C	1.529072	0.683699	1.077980
C209	C	1.069383	0.143360	0.545266
C210	C	1.569383	0.643360	1.045266
H211	H	1.021272	0.242997	0.509462
H212	H	1.521272	0.742997	1.009462
H213	H	0.969754	0.191536	0.509446
H214	H	1.469754	0.691536	1.009446
H215	H	1.053121	0.211146	0.603616
H216	H	1.553121	0.711146	1.103616
H217	H	1.001621	0.159675	0.603612
H218	H	1.501621	0.659675	1.103612
H219	H	1.045332	0.115910	0.519620
H220	H	1.545332	0.615910	1.019620
H221	H	1.096847	0.167376	0.519637
H222	H	1.596847	0.667376	1.019637
H223	H	1.093313	0.119409	0.574360
H224	H	1.593313	0.619409	1.074360
H225	H	0.982857	0.229842	0.944736
H226	H	1.482857	0.729842	1.444736
C227	C	0.993594	0.533784	0.219578
C228	C	1.493594	1.033784	0.719578
C229	C	0.979935	0.549837	0.157282
C230	C	1.479935	1.049837	0.657282
C231	C	1.020172	0.517035	0.116952
C232	C	1.520172	1.017035	0.616952
H233	H	0.987855	0.489917	0.225242
H234	H	1.487855	0.989917	0.725242
H235	H	1.035898	0.544521	0.228810
H236	H	1.535898	1.044521	0.728810
H237	H	0.937642	0.539096	0.148053
H238	H	1.437642	1.039096	0.648053
H239	H	0.985679	0.593699	0.151598
H240	H	1.485679	1.093699	0.651598
H241	H	1.062476	0.527772	0.126184
H242	H	1.562476	1.027772	0.626184
H243	H	1.014429	0.473169	0.122621
H244	H	1.514429	0.973169	0.622621
H245	H	1.010914	0.527926	0.074680
H246	H	1.510914	1.027926	0.574680
C247	C	0.679027	0.387282	0.387187
C248	C	1.179027	0.887282	0.887187
C249	C	0.716681	0.427594	0.351460
C250	C	1.216681	0.927594	0.851460
C251	C	0.749594	0.468005	0.391524
C252	C	1.249594	0.968005	0.891524
H253	H	0.704776	0.363317	0.414662
H254	H	1.204776	0.863317	0.914662
H255	H	0.650058	0.411325	0.411118
H256	H	1.150058	0.911325	0.911118
H257	H	0.745647	0.403554	0.327540
H258	H	1.245647	0.903554	0.827540
H259	H	0.690948	0.451573	0.323987
H260	H	1.190948	0.951573	0.823987
H261	H	0.720625	0.492048	0.415456
H262	H	1.220625	0.992048	0.915456
H263	H	0.775340	0.444035	0.418998
H264	H	1.275340	0.944035	0.918998
H265	H	0.775142	0.495366	0.367290
H266	H	1.275142	0.995366	0.867290
C267	C	0.993753	0.218762	1.072852
C268	C	1.493753	0.718762	1.572852
C269	C	0.980098	0.156488	1.056835
C270	C	1.480098	0.656488	1.556835
C271	C	1.020351	0.116093	1.089644
C272	C	1.520351	0.616093	1.589644
H273	H	0.988025	0.224422	1.116719
H274	H	1.488025	0.724422	1.616719
H275	H	1.036052	0.227936	1.062096
H276	H	1.536052	0.727936	1.562096
H277	H	0.937809	0.147317	1.067596
H278	H	1.437809	0.647317	1.567596
H279	H	0.985830	0.150808	1.012974
H280	H	1.485830	0.650808	1.512974
H281	H	1.062650	0.125268	1.078887
H282	H	1.562650	0.625268	1.578887
H283	H	1.014621	0.121759	1.133509
H284	H	1.514621	0.621759	1.633509
H285	H	1.011096	0.073837	1.078776
H286	H	1.511096	0.573837	1.578776
H287	H	0.269226	0.376183	0.376531
H288	H	0.769226	0.876183	0.876531
H289	H	0.982746	0.661899	0.230619
H290	H	1.482746	1.161899	0.730619
H291	H	0.550779	0.229940	0.230630
H292	H	1.050779	0.729940	0.730630
C293	C	0.993847	0.934652	0.219725
C294	C	1.493847	1.434652	0.719725
C295	C	1.029149	0.977487	0.184535
C296	C	1.529149	1.477487	0.684535
C297	C	1.069494	0.944715	0.144289
C298	C	1.569494	1.444715	0.644289
H299	H	0.969839	0.909050	0.192207
H300	H	1.469839	1.409050	0.692207
H301	H	1.021287	0.908971	0.243820
H302	H	1.521287	1.408971	0.743820
H303	H	1.001713	1.003157	0.160442
H304	H	1.501713	1.503157	0.660442
H305	H	1.053171	1.003090	0.212037
H306	H	1.553171	1.503090	0.712037
H307	H	1.096934	0.919034	0.168383
H308	H	1.596934	1.419034	0.668383
H309	H	1.045481	0.919114	0.116774
H310	H	1.545481	1.419114	0.616774
H311	H	1.093456	0.973774	0.120411
H312	H	1.593456	1.473774	0.620411
C313	C	0.141149	0.387166	0.387509
C314	C	0.641149	0.887166	0.887509
C315	C	0.184011	0.422500	0.422667
C316	C	0.684011	0.922500	0.922667
C317	C	0.151268	0.462899	0.462886
C318	C	0.651268	0.962899	0.962886
H319	H	0.115557	0.363196	0.415050
H320	H	0.615557	0.863196	0.915050
H321	H	0.115462	0.414584	0.363397
H322	H	0.615462	0.914584	0.863397
H323	H	0.209687	0.395086	0.446777
H324	H	0.709687	0.895086	0.946777
H325	H	0.209605	0.446483	0.395142
H326	H	0.709605	0.946483	0.895142
H327	H	0.125581	0.490316	0.438774
H328	H	0.625581	0.990316	0.938774
H329	H	0.125677	0.438924	0.490422
H330	H	0.625677	0.938924	0.990422
H331	H	0.180345	0.486882	0.486741
H332	H	0.680345	0.986882	0.986741
C333	C	0.678863	0.218993	0.219605
C334	C	1.178863	0.718993	0.719605
C335	C	0.636003	0.183687	0.184419
C336	C	1.136003	0.683687	0.684419
C337	C	0.668747	0.143349	0.144139
C338	C	1.168747	0.643349	0.644139
H339	H	0.704568	0.191552	0.243656
H340	H	1.204568	0.691552	0.743656
H341	H	0.704438	0.243027	0.192090
H342	H	1.204438	0.743027	0.692090
H343	H	0.610439	0.159655	0.211931
H344	H	1.110439	0.659655	0.711931
H345	H	0.610296	0.211112	0.160356
H346	H	1.110296	0.711112	0.660356
H347	H	0.694322	0.167382	0.116624
H348	H	1.194322	0.667382	0.616624
H349	H	0.694451	0.115911	0.168195
H350	H	1.194451	0.615911	0.668195
H351	H	0.639671	0.119393	0.120256
H352	H	1.139671	0.619393	0.620256
C353	C	0.825745	0.670888	0.387538
C354	C	1.325745	1.170888	0.887538
C355	C	0.839429	0.654861	0.449836
C356	C	1.339429	1.154861	0.949836
C357	C	0.799247	0.687725	0.490171
C358	C	1.299247	1.187725	0.990171
H359	H	0.783428	0.660195	0.378356
H360	H	1.283428	1.160195	0.878356
H361	H	0.831533	0.714751	0.381828
H362	H	1.331533	1.214751	0.881828
H363	H	0.833636	0.611008	0.455543
H364	H	1.333636	1.111008	0.955543
H365	H	0.881739	0.665556	0.459038
H366	H	1.381739	1.165556	0.959038
H367	H	0.805035	0.731588	0.484461
H368	H	1.305035	1.231588	0.984461
H369	H	0.756932	0.677029	0.480983
H370	H	1.256932	1.177029	0.980983
H371	H	0.808530	0.676860	0.532445
H372	H	1.308530	1.176860	1.032445
C373	C	0.993682	0.218935	0.672133
C374	C	1.493682	0.718935	1.172133
C375	C	0.958070	0.178570	0.709843
C376	C	1.458070	0.678570	1.209843
C377	C	0.998249	0.138211	0.742787
C378	C	1.498249	0.638211	1.242787
H379	H	1.021104	0.242936	0.697847
H380	H	1.521104	0.742936	1.197847
H381	H	1.017665	0.194928	0.643182
H382	H	1.517665	0.694928	1.143182
H383	H	0.934098	0.202574	0.738790
H384	H	1.434098	0.702574	1.238790
H385	H	0.930650	0.154556	0.684144
H386	H	1.430650	0.654556	1.184144
H387	H	1.022232	0.114204	0.713836
H388	H	1.522232	0.614204	1.213836
H389	H	1.025669	0.162216	0.768497
H390	H	1.525669	0.662216	1.268497
H391	H	0.974092	0.110815	0.768372
H392	H	1.474092	0.610815	1.268372
H393	H	0.836557	0.542724	0.376503
H394	H	1.336557	1.042724	0.876503
H395	H	0.836676	0.376038	0.663053
H396	H	1.336676	0.876038	1.163053
H397	H	0.836663	0.376078	0.543782
H398	H	1.336663	0.876078	1.043782
C399	C	0.825824	0.386817	1.072914
C400	C	1.325824	0.886817	1.572914
C401	C	0.834459	0.378192	1.137530
C402	C	1.334459	0.878192	1.637530
C403	C	0.794259	0.418435	1.170497
C404	C	1.294259	0.918435	1.670497
H405	H	0.783506	0.377663	1.062188
H406	H	1.283506	0.877663	1.562188
H407	H	0.835023	0.429125	1.062179
H408	H	1.335023	0.929125	1.562179
H409	H	0.825256	0.335893	1.148261
H410	H	1.325256	0.835893	1.648261
H411	H	0.876769	0.387350	1.148275
H412	H	1.376769	0.887350	1.648275
H413	H	0.803458	0.460744	1.159761
H414	H	1.303458	0.960744	1.659761
H415	H	0.751944	0.409277	1.159766
H416	H	1.251944	0.909277	1.659766
H417	H	0.800117	0.412593	1.214342
H418	H	1.300117	0.912593	1.714342
