data_functionalizedCrystal
_audit_creation_method	'MofGen! by Chris Wilmer'
_symmetry_space_group_name_H-M	'P1'
_symmetry_Int_Tables_number	1
_symmetry_cell_setting	triclinic
loop_
_symmetry_equiv_pos_as_xyz
  x,y,z
_cell_length_a	35.277628
_cell_length_b	35.288095
_cell_length_c	35.277682
_cell_angle_alpha	59.997929
_cell_angle_beta	89.998958
_cell_angle_gamma	60.000166
loop_
_atom_site_label
_atom_site_type_symbol
_atom_site_fract_x
_atom_site_fract_y
_atom_site_fract_z
O1	O	-0.323087	-0.271234	0.011271
O2	O	-0.267964	-0.193634	-0.011228
O3	O	-0.267962	-0.271233	0.066395
O4	O	-0.323089	-0.193635	-0.066351
O5	O	-0.204915	-0.334261	0.066394
O6	O	-0.204918	-0.256661	-0.011228
O7	O	-0.260040	-0.334261	0.011271
Zn8	Zn	-0.222469	-0.305468	0.000022
Zn9	Zn	-0.305535	-0.222427	0.000022
O10	O	-0.260043	-0.256662	-0.066351
C11	C	-0.163481	-0.071298	-0.023519
C12	C	-0.186872	-0.024531	-0.020298
C13	C	-0.117860	-0.093995	-0.023838
C14	C	-0.163483	-0.139918	-0.023524
C15	C	-0.186875	-0.166518	-0.020308
C16	C	-0.117862	-0.162510	-0.023843
C17	C	-0.094838	-0.139921	-0.023519
C18	C	-0.044836	-0.166525	-0.020298
C19	C	-0.186401	-0.093991	-0.023843
C20	C	-0.004439	-0.188019	-0.017694
C21	C	-0.205769	0.013252	-0.017695
C22	C	-0.205774	-0.188010	-0.017709
C23	C	0.046241	-0.214983	-0.014429
C24	C	-0.229477	0.060653	-0.014430
C25	C	-0.229483	-0.214971	-0.014450
C26	C	-0.500364	-0.466062	0.034181
C27	C	-0.477341	-0.511990	0.034503
C28	C	-0.431722	-0.466060	0.034178
C29	C	-0.408804	-0.511988	0.034500
C30	C	-0.431721	-0.534685	0.034181
C31	C	-0.477342	-0.443470	0.034500
C32	C	-0.665895	-0.342485	0.021756
C33	C	-0.712772	-0.317221	0.018243
C34	C	-0.736287	-0.338907	0.016481
C35	C	-0.787116	-0.311512	0.012664
C36	C	-0.712921	-0.385861	0.018236
C37	C	-0.666047	-0.411125	0.021755
C38	C	-0.642533	-0.389434	0.023515
C39	C	-0.389805	-0.687746	0.021758
C40	C	-0.368199	-0.731097	0.018245
C41	C	-0.322995	-0.752841	0.016478
C42	C	-0.299567	-0.799839	0.012662
C43	C	-0.299393	-0.731235	0.018230
C44	C	-0.320995	-0.687892	0.021751
C45	C	-0.366205	-0.666148	0.023512
C46	C	-0.389808	-0.342477	0.021744
C47	C	-0.368205	-0.317208	0.018222
C48	C	-0.322998	-0.338892	0.016457
C49	C	-0.299573	-0.311495	0.012637
C50	C	-0.299398	-0.385842	0.018210
C51	C	-0.321003	-0.411107	0.021730
C52	C	-0.366208	-0.389423	0.023501
C53	C	-0.591706	-0.416830	0.027326
C54	C	-0.551191	-0.438667	0.030366
C55	C	-0.408299	-0.438663	0.030360
C56	C	-0.389629	-0.416824	0.027317
C57	C	-0.408298	-0.581682	0.030365
C58	C	-0.389627	-0.619146	0.027325
C59	C	-0.432024	-0.061845	-0.438511
C60	C	-0.477645	-0.015917	-0.461431
C61	C	-0.432025	-0.061844	-0.369869
C62	C	-0.477645	-0.015916	-0.392892
C63	C	-0.500668	0.006779	-0.438513
C64	C	-0.409106	-0.084435	-0.392891
C65	C	-0.320834	-0.185425	-0.480424
C66	C	-0.299076	-0.210690	-0.502029
C67	C	-0.322531	-0.189005	-0.547237
C68	C	-0.298945	-0.216401	-0.570661
C69	C	-0.367745	-0.142051	-0.570839
C70	C	-0.389497	-0.116787	-0.549237
C71	C	-0.366040	-0.138476	-0.504027
C72	C	-0.666200	0.159838	-0.549704
C73	C	-0.713077	0.203188	-0.571462
C74	C	-0.736595	0.224934	-0.548009
C75	C	-0.787423	0.271931	-0.571594
C76	C	-0.713230	0.203329	-0.502796
C77	C	-0.666353	0.159987	-0.481041
C78	C	-0.642841	0.138241	-0.504500
C79	C	-0.320836	-0.185423	-0.204335
C80	C	-0.299080	-0.210691	-0.157455
C81	C	-0.322536	-0.189006	-0.133940
C82	C	-0.298950	-0.216402	-0.083110
C83	C	-0.367748	-0.142056	-0.157305
C84	C	-0.389502	-0.116792	-0.204182
C85	C	-0.366040	-0.138478	-0.227695
C86	C	-0.389632	-0.111079	-0.480604
C87	C	-0.408436	-0.089241	-0.461934
C88	C	-0.408437	-0.089240	-0.319041
C89	C	-0.389634	-0.111078	-0.278525
C90	C	-0.551496	0.053776	-0.462102
C91	C	-0.592011	0.091239	-0.480906
O92	O	0.196122	-0.334274	0.011291
O93	O	0.063378	-0.256674	-0.011208
O94	O	0.140994	-0.334276	0.066414
O95	O	0.118506	-0.256671	-0.066331
O96	O	0.140996	-0.271251	0.066419
O97	O	0.063380	-0.193649	-0.011203
O98	O	0.196124	-0.271249	0.011296
Zn99	Zn	0.129752	-0.222442	0.000047
Zn100	Zn	0.129750	-0.305480	0.000041
O101	O	0.118508	-0.193647	-0.066327
O102	O	-0.260036	0.184774	0.011294
O103	O	-0.204910	0.074561	-0.011204
O104	O	-0.204913	0.074554	0.066418
O105	O	-0.260033	0.184781	-0.066328
O106	O	-0.267961	0.074557	0.066413
O107	O	-0.267958	0.074564	-0.011209
O108	O	-0.323083	0.184777	0.011289
Zn109	Zn	-0.305531	0.129671	0.000039
Zn110	Zn	-0.222463	0.129667	0.000046
O111	O	-0.323081	0.184784	-0.066333
O112	O	-0.936929	0.397535	-0.602582
O113	O	-0.804185	0.287317	-0.547454
O114	O	-0.881802	0.287315	-0.547452
O115	O	-0.859312	0.397537	-0.602584
O116	O	-0.881801	0.287314	-0.610498
O117	O	-0.804183	0.287316	-0.610500
O118	O	-0.936927	0.397533	-0.665628
Zn119	Zn	-0.870555	0.342425	-0.648073
Zn120	Zn	-0.870557	0.342426	-0.565008
O121	O	-0.859310	0.397536	-0.665629
O122	O	-0.267961	-0.271234	-0.665316
O123	O	-0.323086	-0.193638	-0.610192
O124	O	-0.323085	-0.271236	-0.610189
O125	O	-0.267962	-0.193636	-0.665319
O126	O	-0.260038	-0.334264	-0.547142
O127	O	-0.260039	-0.256666	-0.547145
O128	O	-0.204914	-0.334262	-0.602269
Zn129	Zn	-0.222466	-0.305471	-0.564697
Zn130	Zn	-0.305534	-0.222429	-0.647764
O131	O	-0.204915	-0.256664	-0.602272
C132	C	-0.094840	-0.456607	0.293255
C133	C	-0.044837	-0.503376	0.316647
C134	C	-0.117862	-0.433912	0.316174
C135	C	-0.163483	-0.387984	0.224612
C136	C	-0.186875	-0.361381	0.174609
C137	C	-0.186401	-0.365393	0.247634
C138	C	-0.163483	-0.387984	0.293255
C139	C	-0.186874	-0.361382	0.316646
C140	C	-0.117862	-0.433912	0.247635
C141	C	-0.205772	-0.339889	0.335543
C142	C	-0.004440	-0.541160	0.335545
C143	C	-0.205773	-0.339888	0.134212
C144	C	-0.229480	-0.312925	0.359250
C145	C	0.046239	-0.588562	0.359254
C146	C	-0.229481	-0.312924	0.083532
C147	C	0.153295	-0.388013	0.293279
C148	C	0.150076	-0.361413	0.316673
C149	C	0.153614	-0.433940	0.316196
C150	C	0.153297	-0.388008	0.224634
C151	C	0.150079	-0.361403	0.174632
C152	C	0.153616	-0.433935	0.247655
C153	C	0.153293	-0.456633	0.293275
C154	C	0.150072	-0.503401	0.316665
C155	C	0.153617	-0.365420	0.247659
C156	C	0.147469	-0.541185	0.335561
C157	C	0.147474	-0.339922	0.335572
C158	C	0.147479	-0.339908	0.134234
C159	C	0.144204	-0.588587	0.359267
C160	C	0.144211	-0.312962	0.359282
C161	C	0.144218	-0.312942	0.083555
C162	C	-0.163482	-0.139963	0.293267
C163	C	-0.186875	-0.166567	0.316654
C164	C	-0.117861	-0.162559	0.316187
C165	C	-0.163482	-0.071333	0.224628
C166	C	-0.186873	-0.024557	0.174627
C167	C	-0.117860	-0.094033	0.247653
C168	C	-0.094838	-0.139967	0.293272
C169	C	-0.044835	-0.166574	0.316665
C170	C	-0.186401	-0.094030	0.247648
C171	C	-0.004438	-0.188070	0.335563
C172	C	-0.205773	-0.188061	0.335549
C173	C	-0.205771	0.013233	0.134231
C174	C	0.046242	-0.215038	0.359273
C175	C	-0.229482	-0.215026	0.359253
C176	C	-0.229479	0.060643	0.083553
C177	C	0.095627	0.006487	-0.438489
C178	C	0.095306	-0.016206	-0.461409
C179	C	0.095623	-0.062137	-0.369847
C180	C	0.095303	-0.084726	-0.392871
C181	C	0.095625	-0.062133	-0.438492
C182	C	0.095305	-0.016210	-0.392868
C183	C	0.108059	0.159543	-0.480399
C184	C	0.111575	0.202893	-0.502003
C185	C	0.113340	0.224640	-0.547210
C186	C	0.117161	0.271637	-0.570634
C187	C	0.111587	0.203038	-0.570814
C188	C	0.108065	0.159695	-0.549212
C189	C	0.106302	0.137948	-0.504002
C190	C	0.108054	-0.116452	-0.549685
C191	C	0.111568	-0.141562	-0.571444
C192	C	0.113332	-0.188519	-0.547992
C193	C	0.117148	-0.215753	-0.571578
C194	C	0.111577	-0.210363	-0.502779
C195	C	0.108055	-0.185249	-0.481023
C196	C	0.106297	-0.138292	-0.504481
C197	C	0.108046	-0.116473	-0.204312
C198	C	0.111564	-0.141591	-0.157432
C199	C	0.113326	-0.188548	-0.133918
C200	C	0.117142	-0.215786	-0.083088
C201	C	0.111574	-0.210388	-0.157283
C202	C	0.108058	-0.185270	-0.204161
C203	C	0.106290	-0.138308	-0.227673
C204	C	0.102487	0.090947	-0.480580
C205	C	0.099445	0.053484	-0.461911
C206	C	0.099438	-0.089371	-0.319019
C207	C	0.102477	-0.111078	-0.278503
C208	C	0.099442	-0.089362	-0.462081
C209	C	0.102482	-0.111066	-0.480886
O210	O	0.118477	-0.256700	0.452885
O211	O	0.140984	-0.334299	0.397762
O212	O	0.063360	-0.256699	0.397752
O213	O	0.196101	-0.334300	0.452895
O214	O	0.063367	-0.193672	0.334708
O215	O	0.140992	-0.271271	0.334718
O216	O	0.118484	-0.193673	0.389842
Zn217	Zn	0.129739	-0.222465	0.352270
Zn218	Zn	0.129729	-0.305506	0.435333
O219	O	0.196108	-0.271272	0.389852
C220	C	-0.500364	0.533998	-0.438484
C221	C	-0.477341	0.556591	-0.461399
C222	C	-0.431721	0.465364	-0.369840
C223	C	-0.408802	0.488061	-0.392859
C224	C	-0.431720	0.533995	-0.438478
C225	C	-0.477342	0.488064	-0.392865
C226	C	-0.665898	0.588334	-0.480407
C227	C	-0.712776	0.613450	-0.502014
C228	C	-0.736291	0.660414	-0.547220
C229	C	-0.787122	0.687654	-0.570647
C230	C	-0.712926	0.682257	-0.570819
C231	C	-0.666050	0.657138	-0.549214
C232	C	-0.642536	0.610174	-0.504006
C233	C	-0.389802	0.657585	-0.549654
C234	C	-0.368196	0.682850	-0.571408
C235	C	-0.322990	0.661164	-0.547952
C236	C	-0.299561	0.688558	-0.571532
C237	C	-0.299388	0.614205	-0.502740
C238	C	-0.320990	0.588935	-0.480990
C239	C	-0.366202	0.610633	-0.504452
C240	C	-0.389804	0.312282	-0.204314
C241	C	-0.368201	0.268929	-0.157436
C242	C	-0.322993	0.247179	-0.133918
C243	C	-0.299567	0.200174	-0.083089
C244	C	-0.299392	0.268786	-0.157278
C245	C	-0.320998	0.312139	-0.204154
C246	C	-0.366204	0.333881	-0.227670
C247	C	-0.591708	0.582942	-0.480581
C248	C	-0.551193	0.561234	-0.461909
C249	C	-0.408297	0.418359	-0.319013
C250	C	-0.389626	0.380890	-0.278499
C251	C	-0.408296	0.561393	-0.462062
C252	C	-0.389624	0.583232	-0.480862
H253	H	-0.371321	-0.530978	0.035012
H254	H	-0.223885	-0.074993	-0.024363
C255	C	-0.358828	0.462826	-0.368286
C256	C	-0.343602	0.492560	-0.398228
C257	C	-0.297573	0.469334	-0.375607
H258	H	-0.339720	0.427084	-0.359596
H259	H	-0.357043	0.462652	-0.341322
H260	H	-0.345384	0.492727	-0.425183
H261	H	-0.362698	0.528301	-0.406919
H262	H	-0.295788	0.469161	-0.348643
H263	H	-0.278470	0.433593	-0.366918
H264	H	-0.287238	0.489508	-0.395917
C265	C	-0.640771	0.680950	-0.574901
C266	C	-0.671399	0.727462	-0.619109
C267	C	-0.648130	0.749418	-0.642782
H268	H	-0.615373	0.655663	-0.577826
H269	H	-0.629616	0.689590	-0.558047
H270	H	-0.682547	0.718820	-0.635959
H271	H	-0.696797	0.752761	-0.616197
H272	H	-0.636975	0.758058	-0.625928
H273	H	-0.622733	0.724126	-0.645704
H274	H	-0.668909	0.780980	-0.672778
C275	C	-0.438926	-0.318846	0.023561
C276	C	-0.468990	-0.266953	-0.016923
C277	C	-0.514242	-0.245172	-0.015272
H278	H	-0.439721	-0.317528	0.049811
H279	H	-0.448437	-0.340590	0.025885
H280	H	-0.459481	-0.245214	-0.019242
H281	H	-0.468209	-0.268257	-0.043179
H282	H	-0.523753	-0.266916	-0.012948
H283	H	-0.515032	-0.243856	0.010980
H284	H	-0.534647	-0.209962	-0.042741
H285	H	-0.386837	-0.124397	-0.607648
H286	H	-0.099372	-0.452898	0.229148
C287	C	0.106060	-0.065419	-0.575128
C288	C	0.064424	-0.023944	-0.579196
C289	C	0.062574	0.023073	-0.602623
H290	H	0.107579	-0.055932	-0.605186
H291	H	0.131528	-0.071146	-0.558195
H292	H	0.038963	-0.018216	-0.596129
H293	H	0.062896	-0.033413	-0.549145
H294	H	0.088042	0.017346	-0.585690
H295	H	0.064094	0.032554	-0.632680
H296	H	0.034326	0.051218	-0.605383
H297	H	-0.099380	-0.199466	-0.024359
H298	H	-0.495827	-0.530983	0.035020
H299	H	-0.647059	0.142138	-0.568809
C300	C	-0.738709	0.226986	-0.477342
C301	C	-0.716863	0.245616	-0.465914
C302	C	-0.740325	0.267416	-0.442471
H303	H	-0.738182	0.200215	-0.449773
H304	H	-0.769971	0.255917	-0.496767
H305	H	-0.685609	0.216688	-0.446490
H306	H	-0.717389	0.272392	-0.493475
H307	H	-0.771587	0.296347	-0.461896
H308	H	-0.739797	0.240643	-0.414903
H309	H	-0.725509	0.280064	-0.434718
C310	C	-0.236389	-0.068759	0.223085
C311	C	-0.251625	-0.098480	0.253025
C312	C	-0.297672	-0.075212	0.230417
H313	H	-0.238218	-0.068553	0.196112
H314	H	-0.255463	-0.033020	0.214419
H315	H	-0.232557	-0.134210	0.261684
H316	H	-0.249808	-0.098688	0.279999
H317	H	-0.316746	-0.039473	0.221751
H318	H	-0.299496	-0.075007	0.203444
H319	H	-0.308017	-0.095371	0.250729
H320	H	-0.387422	0.251343	-0.138417
H321	H	-0.426614	0.329984	-0.223458
H322	H	0.154138	-0.452930	0.229170
C323	C	-0.502059	-0.394204	0.035204
C324	C	-0.547022	-0.379187	0.035418
C325	C	-0.569802	-0.333810	0.036069
H326	H	-0.503686	-0.365617	0.008430
H327	H	-0.485386	-0.402201	0.062283
H328	H	-0.563691	-0.371188	0.008342
H329	H	-0.545409	-0.407761	0.062190
H330	H	-0.553129	-0.341807	0.063148
H331	H	-0.571425	-0.305228	0.009295
H332	H	-0.600310	-0.323619	0.036219
C333	C	-0.295278	-0.209039	-0.431349
C334	C	-0.251024	-0.255553	-0.415310
C335	C	-0.227469	-0.277315	-0.370107
H336	H	-0.312151	-0.217641	-0.411566
H337	H	-0.292439	-0.183646	-0.431352
H338	H	-0.253864	-0.280941	-0.415304
H339	H	-0.234139	-0.246965	-0.435080
H340	H	-0.224630	-0.251922	-0.370110
H341	H	-0.244345	-0.285913	-0.350328
H342	H	-0.197439	-0.308874	-0.359220
C343	C	-0.093262	-0.459135	0.366135
C344	C	-0.091011	-0.421899	0.368624
C345	C	-0.068365	-0.445112	0.414642
H346	H	-0.062722	-0.489788	0.376606
H347	H	-0.109975	-0.469480	0.385191
H348	H	-0.074297	-0.411562	0.349574
H349	H	-0.121544	-0.391245	0.358163
H350	H	-0.085078	-0.455457	0.433698
H351	H	-0.037827	-0.475764	0.425109
H352	H	-0.066839	-0.419849	0.416337
H353	H	-0.301778	0.329728	-0.223172
C354	C	0.154269	-0.459172	0.366166
C355	C	0.154459	-0.429439	0.381395
C356	C	0.155053	-0.452660	0.427420
H357	H	0.181329	-0.494916	0.385280
H358	H	0.127475	-0.459340	0.367939
H359	H	0.181250	-0.429277	0.379626
H360	H	0.127402	-0.393696	0.362294
H361	H	0.128259	-0.452827	0.429193
H362	H	0.182113	-0.488403	0.446530
H363	H	0.155178	-0.432486	0.437757
H364	H	-0.099379	-0.074998	-0.024355
H365	H	-0.387416	0.721084	-0.608218
H366	H	0.106630	-0.203055	-0.223182
H367	H	-0.301784	-0.449335	0.023157
C368	C	-0.738370	0.226543	-0.620537
C369	C	-0.707749	0.198211	-0.636416
C370	C	-0.731034	0.219704	-0.681618
H371	H	-0.749547	0.263183	-0.640380
H372	H	-0.763759	0.223691	-0.620583
H373	H	-0.682369	0.201068	-0.636373
H374	H	-0.696571	0.161572	-0.616586
H375	H	-0.756423	0.216852	-0.681664
H376	H	-0.742210	0.256343	-0.701457
H377	H	-0.710263	0.200481	-0.692396
H378	H	-0.099376	-0.075038	0.229168
C379	C	0.154327	-0.316156	0.223098
C380	C	0.154540	-0.301142	0.253042
C381	C	0.155198	-0.255769	0.230435
H382	H	0.127555	-0.287567	0.196128
H383	H	0.181408	-0.324156	0.214427
H384	H	0.127462	-0.293140	0.261707
H385	H	0.181310	-0.329718	0.280012
H386	H	0.182279	-0.263768	0.221764
H387	H	0.128426	-0.227184	0.203466
H388	H	0.155347	-0.245579	0.250750
C389	C	-0.738401	-0.409490	0.016421
C390	C	-0.716554	-0.461386	0.056903
C391	C	-0.740016	-0.483170	0.055249
H392	H	-0.737876	-0.410806	-0.009831
H393	H	-0.769663	-0.387750	0.014099
H394	H	-0.685301	-0.483121	0.059220
H395	H	-0.717079	-0.460086	0.083160
H396	H	-0.771278	-0.461429	0.052927
H397	H	-0.739489	-0.484482	0.028996
H398	H	-0.725199	-0.518381	0.082717
H399	H	-0.647026	-0.449354	0.023185
C400	C	0.106063	0.135939	-0.431346
C401	C	0.064426	0.140154	-0.431496
C402	C	0.062574	0.118408	-0.386317
H403	H	0.107581	0.154983	-0.420338
H404	H	0.131530	0.099276	-0.411605
H405	H	0.038965	0.176810	-0.451230
H406	H	0.062899	0.121109	-0.442495
H407	H	0.088042	0.081745	-0.366576
H408	H	0.064094	0.137454	-0.375313
H409	H	0.034326	0.121261	-0.386412
C410	C	-0.393839	-0.266173	0.016222
C411	C	-0.398022	-0.224606	-0.025426
C412	C	-0.421639	-0.177585	-0.027286
H413	H	-0.376999	-0.271797	0.041671
H414	H	-0.423869	-0.256844	0.017754
H415	H	-0.367998	-0.233934	-0.026954
H416	H	-0.414866	-0.218965	-0.050883
H417	H	-0.451669	-0.168255	-0.025754
H418	H	-0.404796	-0.183214	-0.001834
H419	H	-0.424484	-0.149375	-0.055545
C420	C	-0.640437	-0.318881	0.023707
C421	C	-0.670924	-0.272372	0.021441
C422	C	-0.647483	-0.250625	0.023252
H423	H	-0.629251	-0.310276	-0.001764
H424	H	-0.615044	-0.344283	0.051951
H425	H	-0.696309	-0.246975	-0.006799
H426	H	-0.682111	-0.280962	0.046911
H427	H	-0.622090	-0.276027	0.051495
H428	H	-0.636298	-0.242023	-0.002221
H429	H	-0.668164	-0.219069	0.021719
H430	H	-0.099381	-0.199518	0.353671
H431	H	0.094785	-0.121682	-0.374387
C432	C	-0.738215	-0.266194	0.016255
C433	C	-0.775625	-0.224642	-0.025383
C434	C	-0.799077	-0.177629	-0.027229
H435	H	-0.717556	-0.256821	0.017778
H436	H	-0.749415	-0.271863	0.041723
H437	H	-0.764425	-0.218973	-0.050844
H438	H	-0.796294	-0.233998	-0.026915
H439	H	-0.810277	-0.183297	-0.001762
H440	H	-0.778415	-0.168260	-0.025705
H441	H	-0.824465	-0.149431	-0.055478
C442	C	-0.393765	-0.754642	0.016432
C443	C	-0.368815	-0.808638	0.054041
C444	C	-0.392355	-0.830344	0.052388
H445	H	-0.396643	-0.751868	-0.011769
H446	H	-0.423778	-0.735517	0.018008
H447	H	-0.338810	-0.827758	0.052460
H448	H	-0.365936	-0.811427	0.082247
H449	H	-0.422368	-0.811218	0.053965
H450	H	-0.395233	-0.827566	0.024186
H451	H	-0.375433	-0.866980	0.077907
C452	C	0.094680	0.009160	-0.511369
C453	C	0.094506	0.054298	-0.526591
C454	C	0.093952	0.077661	-0.572602
H455	H	0.067629	0.019585	-0.530503
H456	H	0.121483	-0.016037	-0.513119
H457	H	0.067706	0.079490	-0.524844
H458	H	0.121555	0.043887	-0.507469
H459	H	0.120755	0.052464	-0.574352
H460	H	0.066901	0.088082	-0.591732
H461	H	0.093838	0.108286	-0.582934
C462	C	0.094543	0.009102	-0.368185
C463	C	0.054613	0.024318	-0.355429
C464	C	0.053899	0.047627	-0.332683
H465	H	0.094380	0.039782	-0.388393
H466	H	0.121308	-0.016096	-0.341192
H467	H	0.027856	0.049514	-0.382418
H468	H	0.054767	-0.006352	-0.335215
H469	H	0.080664	0.022429	-0.305690
H470	H	0.053738	0.078305	-0.352895
H471	H	0.026809	0.057950	-0.324022
C472	C	0.113434	-0.117781	-0.132154
C473	C	0.111121	-0.071273	-0.162783
C474	C	0.112833	-0.049318	-0.139515
H475	H	0.141654	-0.143070	-0.106754
H476	H	0.087937	-0.109138	-0.120999
H477	H	0.136616	-0.079918	-0.173930
H478	H	0.082903	-0.045971	-0.188183
H479	H	0.087336	-0.040674	-0.128361
H480	H	0.141054	-0.074611	-0.114116
H481	H	0.111260	-0.017757	-0.160294
H482	H	0.106608	-0.078237	-0.223453
C483	C	0.113501	0.226249	-0.476290
C484	C	0.111216	0.197917	-0.432071
C485	C	0.112997	0.219412	-0.408369
H486	H	0.088027	0.262889	-0.493101
H487	H	0.141741	0.223399	-0.473389
H488	H	0.082980	0.200772	-0.434975
H489	H	0.136689	0.161278	-0.415248
H490	H	0.141237	0.216562	-0.405467
H491	H	0.087522	0.256051	-0.425184
H492	H	0.111451	0.200189	-0.378362
C493	C	-0.502079	0.605906	-0.511362
C494	C	-0.547054	0.620947	-0.526590
C495	C	-0.569860	0.666383	-0.572605
H496	H	-0.485448	0.597981	-0.530488
H497	H	-0.503680	0.634455	-0.513119
H498	H	-0.545451	0.592405	-0.524836
H499	H	-0.563697	0.628883	-0.507476
H500	H	-0.571461	0.694932	-0.574363
H501	H	-0.553225	0.658453	-0.591727
H502	H	-0.600379	0.676597	-0.582942
H503	H	-0.262587	-0.403497	0.016771
C504	C	0.113451	-0.261319	-0.477248
C505	C	0.111145	-0.275062	-0.433005
C506	C	0.112864	-0.321995	-0.409475
H507	H	0.141671	-0.289581	-0.474382
H508	H	0.087954	-0.255566	-0.494162
H509	H	0.136640	-0.280818	-0.416094
H510	H	0.082927	-0.246813	-0.435856
H511	H	0.087367	-0.316243	-0.426389
H512	H	0.141085	-0.350254	-0.406613
H513	H	0.111296	-0.331323	-0.379455
C514	C	-0.236352	-0.316055	0.222912
C515	C	-0.238818	-0.274082	0.183193
C516	C	-0.284821	-0.228622	0.160408
H517	H	-0.246801	-0.305727	0.243119
H518	H	-0.255437	-0.324015	0.214184
H519	H	-0.219740	-0.266123	0.191922
H520	H	-0.228379	-0.284392	0.162975
H521	H	-0.303906	-0.236582	0.151680
H522	H	-0.295266	-0.218300	0.180618
H523	H	-0.286501	-0.200140	0.133454
C524	C	-0.438550	-0.065757	-0.229549
C525	C	-0.439402	-0.026145	-0.228607
C526	C	-0.484576	0.020879	-0.251975
H527	H	-0.459007	-0.072699	-0.214748
H528	H	-0.448157	-0.053780	-0.260846
H529	H	-0.429800	-0.038120	-0.197316
H530	H	-0.418955	-0.019186	-0.243411
H531	H	-0.494183	0.032855	-0.283272
H532	H	-0.505028	0.013931	-0.237171
H533	H	-0.485158	0.047762	-0.251343
H534	H	-0.426615	-0.670047	0.023195
C535	C	0.113536	0.226703	-0.619881
C536	C	0.117009	0.269275	-0.633744
C537	C	0.118814	0.291081	-0.678940
H538	H	0.086118	0.239412	-0.640401
H539	H	0.139832	0.199905	-0.620613
H540	H	0.090716	0.296067	-0.633016
H541	H	0.144426	0.256580	-0.613236
H542	H	0.145110	0.264284	-0.679672
H543	H	0.091396	0.303787	-0.699457
H544	H	0.121175	0.319965	-0.688351
C545	C	0.106191	0.136300	-0.574904
C546	C	0.108503	0.164611	-0.619113
C547	C	0.106786	0.143068	-0.642791
H548	H	0.077971	0.139122	-0.577828
H549	H	0.131688	0.099658	-0.558055
H550	H	0.083009	0.201243	-0.635959
H551	H	0.136722	0.161792	-0.616203
H552	H	0.132283	0.106427	-0.625942
H553	H	0.078565	0.145891	-0.645712
H554	H	0.108359	0.162271	-0.672788
H555	H	0.112999	-0.123775	-0.608256
H556	H	-0.262584	-0.748943	0.016794
H557	H	-0.646757	0.550094	-0.443598
C558	C	0.106051	-0.208878	-0.431974
C559	C	0.064405	-0.171421	-0.432045
C560	C	0.062542	-0.193173	-0.386870
H561	H	0.131501	-0.217491	-0.412146
H562	H	0.107578	-0.240427	-0.421113
H563	H	0.062883	-0.139881	-0.442901
H564	H	0.038948	-0.162804	-0.451864
H565	H	0.064069	-0.224722	-0.376009
H566	H	0.087994	-0.201785	-0.367046
H567	H	0.034284	-0.167764	-0.386913
C568	C	0.113460	-0.261353	-0.131684
C569	C	0.116897	-0.278668	-0.085635
C570	C	0.118625	-0.325607	-0.062043
H571	H	0.139736	-0.288409	-0.132165
H572	H	0.086017	-0.254388	-0.146434
H573	H	0.144337	-0.285636	-0.070888
H574	H	0.090624	-0.251626	-0.085140
H575	H	0.091182	-0.318642	-0.076794
H576	H	0.144901	-0.352659	-0.062528
H577	H	0.120953	-0.337359	-0.030798
C578	C	-0.502059	0.462800	-0.368306
C579	C	-0.547023	0.492526	-0.398249
C580	C	-0.569802	0.469267	-0.375643
H581	H	-0.503684	0.462598	-0.341334
H582	H	-0.485386	0.427060	-0.359637
H583	H	-0.563691	0.528257	-0.406911
H584	H	-0.545411	0.492730	-0.425221
H585	H	-0.553130	0.433526	-0.366974
H586	H	-0.571424	0.469066	-0.348672
H587	H	-0.600311	0.489429	-0.395957
C588	C	-0.295367	-0.664475	0.023742
C589	C	-0.291188	-0.668714	0.065384
C590	C	-0.267580	-0.647149	0.067232
H591	H	-0.312211	-0.627822	-0.001713
H592	H	-0.265336	-0.683632	0.022211
H593	H	-0.321213	-0.649556	0.066911
H594	H	-0.274339	-0.705361	0.090846
H595	H	-0.237549	-0.666306	0.065701
H596	H	-0.284427	-0.610497	0.041776
H597	H	-0.264737	-0.650027	0.095487
H598	H	-0.496128	0.003076	-0.374407
H599	H	-0.262264	-0.248919	-0.482808
C600	C	-0.738069	0.589671	-0.476306
C601	C	-0.707447	0.543178	-0.432088
C602	C	-0.730732	0.521263	-0.408390
H603	H	-0.749244	0.581014	-0.493121
H604	H	-0.763457	0.615002	-0.473404
H605	H	-0.682067	0.517853	-0.434993
H606	H	-0.696270	0.551820	-0.415262
H607	H	-0.756121	0.546593	-0.405488
H608	H	-0.741907	0.512609	-0.425208
H609	H	-0.709960	0.489717	-0.378384
C610	C	-0.249984	-0.261645	-0.132177
C611	C	-0.234092	-0.275219	-0.162806
C612	C	-0.188864	-0.322148	-0.139539
H613	H	-0.249882	-0.289960	-0.106778
H614	H	-0.230183	-0.255951	-0.121022
H615	H	-0.253888	-0.280915	-0.173954
H616	H	-0.234183	-0.246916	-0.188206
H617	H	-0.169062	-0.316454	-0.128384
H618	H	-0.188765	-0.350459	-0.114140
H619	H	-0.178074	-0.331361	-0.160318
H620	H	-0.732075	0.720493	-0.607626
H621	H	-0.496124	0.003081	-0.498917
C622	C	-0.438877	0.681203	-0.575213
C623	C	-0.454915	0.727722	-0.619465
C624	C	-0.500117	0.749487	-0.643023
H625	H	-0.458659	0.689800	-0.558339
H626	H	-0.438876	0.655814	-0.578057
H627	H	-0.454919	0.753105	-0.616619
H628	H	-0.435146	0.719139	-0.636351
H629	H	-0.500116	0.724098	-0.645867
H630	H	-0.519895	0.758080	-0.626145
H631	H	-0.511003	0.781049	-0.673052
H632	H	-0.386847	-0.124399	-0.138156
C633	C	-0.250316	0.590751	-0.477340
C634	C	-0.236450	0.622935	-0.506058
C635	C	-0.191252	0.601352	-0.482672
H636	H	-0.229801	0.555538	-0.469538
H637	H	-0.249580	0.589502	-0.449799
H638	H	-0.237183	0.624179	-0.533591
H639	H	-0.256953	0.658149	-0.513861
H640	H	-0.190516	0.600103	-0.455131
H641	H	-0.170741	0.566139	-0.474871
H642	H	-0.181840	0.623188	-0.502152
H643	H	-0.301770	0.550701	-0.444180
C644	C	-0.640900	0.136473	-0.431967
C645	C	-0.594812	0.093867	-0.417940
C646	C	-0.571350	0.072197	-0.372737
H647	H	-0.655672	0.123825	-0.411503
H648	H	-0.641469	0.163325	-0.431285
H649	H	-0.594246	0.067020	-0.418619
H650	H	-0.580027	0.106501	-0.438392
H651	H	-0.571919	0.099048	-0.372055
H652	H	-0.586126	0.059551	-0.352278
H653	H	-0.540076	0.043289	-0.363216
C654	C	-0.359118	-0.133696	-0.368329
C655	C	-0.343882	-0.148712	-0.398272
C656	C	-0.297837	-0.194081	-0.375664
H657	H	-0.357291	-0.162286	-0.341358
H658	H	-0.340043	-0.125691	-0.359660
H659	H	-0.362952	-0.156719	-0.406934
H660	H	-0.345698	-0.120135	-0.425243
H661	H	-0.278761	-0.186077	-0.366995
H662	H	-0.296013	-0.222668	-0.348693
H663	H	-0.287492	-0.204272	-0.395977
C664	C	-0.295358	-0.208878	-0.229917
C665	C	-0.291271	-0.171327	-0.267323
C666	C	-0.267802	-0.192912	-0.290900
H667	H	-0.312259	-0.217423	-0.241139
H668	H	-0.265303	-0.240447	-0.209314
H669	H	-0.321320	-0.139767	-0.287922
H670	H	-0.274366	-0.162779	-0.256113
H671	H	-0.237747	-0.224482	-0.270297
H672	H	-0.284706	-0.201456	-0.302119
H673	H	-0.265022	-0.167439	-0.316279
C674	C	-0.250336	0.245175	-0.131672
C675	C	-0.250479	0.249381	-0.094247
C676	C	-0.205299	0.227632	-0.070646
H677	H	-0.239330	0.264224	-0.152241
H678	H	-0.230597	0.208515	-0.120472
H679	H	-0.270212	0.286035	-0.105447
H680	H	-0.261476	0.230331	-0.073667
H681	H	-0.185559	0.190972	-0.059446
H682	H	-0.194297	0.246683	-0.091219
H683	H	-0.205389	0.230478	-0.045248
C684	C	-0.438591	-0.065829	-0.574930
C685	C	-0.454481	-0.052250	-0.619140
C686	C	-0.499707	-0.005315	-0.642820
H687	H	-0.438688	-0.037518	-0.577852
H688	H	-0.458396	-0.071518	-0.558083
H689	H	-0.434681	-0.046558	-0.635984
H690	H	-0.454395	-0.080548	-0.616232
H691	H	-0.519512	-0.011003	-0.625973
H692	H	-0.499799	0.022992	-0.645739
H693	H	-0.510495	0.003902	-0.672818
