data_functionalizedCrystal
_audit_creation_method	'MofGen! by Chris Wilmer'
_symmetry_space_group_name_H-M	'P1'
_symmetry_Int_Tables_number	1
_symmetry_cell_setting	triclinic
loop_
_symmetry_equiv_pos_as_xyz
  x,y,z
_cell_length_a	19.805407
_cell_length_b	16.120484
_cell_length_c	19.805399
_cell_angle_alpha	92.871043
_cell_angle_beta	89.975799
_cell_angle_gamma	92.925090
loop_
_atom_site_label
_atom_site_type_symbol
_atom_site_fract_x
_atom_site_fract_y
_atom_site_fract_z
Zn1	Zn	1.021075	-0.331944	-0.396460
Zn2	Zn	1.521075	0.168056	0.103540
Zn3	Zn	1.015252	-0.471362	-0.289008
Zn4	Zn	1.515252	0.028638	0.210992
Zn5	Zn	0.907888	-0.331965	-0.283276
Zn6	Zn	1.407888	0.168035	0.216724
Zn7	Zn	0.902117	-0.471316	-0.402144
Zn8	Zn	1.402117	0.028684	0.097856
O9	O	0.961583	-0.401647	-0.342722
O10	O	1.461583	0.098353	0.157278
O11	O	1.115018	-0.350449	-0.382226
O12	O	1.615018	0.149551	0.117774
O13	O	1.000988	-0.452899	-0.193532
O14	O	1.500988	0.047101	0.306468
O15	O	0.927755	-0.215296	-0.293513
O16	O	1.427755	0.284704	0.206487
O17	O	1.110740	-0.452879	-0.303282
O18	O	1.610740	0.047121	0.196718
O19	O	1.010912	-0.215281	-0.376669
O20	O	1.510912	0.284719	0.123331
O21	O	0.922109	-0.350485	-0.189321
O22	O	1.422109	0.149515	0.310679
O23	O	0.812407	-0.350440	-0.299024
O24	O	1.312407	0.149560	0.200976
O25	O	0.917918	-0.452800	-0.496105
O26	O	1.417918	0.047200	0.003895
O27	O	0.808166	-0.452820	-0.386356
O28	O	1.308166	0.047180	0.113644
O29	O	1.005316	-0.350404	-0.491930
O30	O	1.505316	0.149596	0.008070
O31	O	0.995392	-0.588022	-0.308793
O32	O	1.495392	-0.088022	0.191207
O33	O	0.912272	-0.587988	-0.391913
O34	O	1.412272	-0.087988	0.108087
C35	C	0.785728	-0.401628	-0.342685
C36	C	1.285728	0.098372	0.157315
C37	C	0.710495	-0.401640	-0.342686
C38	C	1.210495	0.098360	0.157314
C39	C	0.246510	-0.455057	-0.388175
C40	C	0.746510	0.044943	0.111825
C41	C	0.317198	-0.455055	-0.388161
C42	C	0.817198	0.044945	0.111839
C43	C	0.354732	-0.401667	-0.342749
C44	C	0.854732	0.098333	0.157251
C45	C	0.321574	-0.348283	-0.297345
C46	C	0.821574	0.151717	0.202655
C47	C	0.250887	-0.348289	-0.297357
C48	C	0.750887	0.151711	0.202643
C49	C	0.606649	-0.348257	-0.297296
C50	C	1.106649	0.151743	0.202704
C51	C	0.677341	-0.348253	-0.297290
C52	C	1.177341	0.151747	0.202710
C53	C	0.672960	-0.455024	-0.388100
C54	C	1.172960	0.044976	0.111900
C55	C	0.602272	-0.455030	-0.388112
C56	C	1.102272	0.044970	0.111888
C57	C	0.569120	-0.401649	-0.342705
C58	C	1.069120	0.098351	0.157295
C59	C	0.492472	-0.401652	-0.342721
C60	C	0.992472	0.098348	0.157279
C61	C	0.431380	-0.401659	-0.342737
C62	C	0.931380	0.098341	0.157263
C63	C	0.952592	-0.618255	-0.351606
C64	C	1.452592	-0.118255	0.148394
C65	C	0.948808	-0.710921	-0.355430
C66	C	1.448808	-0.210921	0.144570
C67	C	0.941903	-0.880583	-0.362424
C68	C	1.441903	-0.380583	0.137576
C69	C	0.981384	-0.921870	-0.323031
C70	C	1.481384	-0.421870	0.176969
C71	C	0.977542	-1.016276	-0.326923
C72	C	1.477542	-0.516276	0.173077
C73	C	0.945744	-0.786169	-0.358533
C74	C	1.445744	-0.286169	0.141467
C75	C	1.138125	-0.401666	-0.342759
C76	C	1.638125	0.098334	0.157241
C77	C	1.213356	-0.401675	-0.342775
C78	C	1.713356	0.098325	0.157225
C79	C	0.961623	-0.401594	-0.519263
C80	C	1.461623	0.098406	-0.019263
C81	C	0.961640	-0.401572	-0.594494
C82	C	1.461640	0.098428	-0.094494
C83	C	0.970627	-0.184193	-0.333818
C84	C	1.470627	0.315807	0.166182
C85	C	0.974481	-0.091526	-0.330023
C86	C	1.474481	0.408474	0.169977
C87	C	1.007149	-0.348252	-0.627665
C88	C	1.507149	0.151748	-0.127665
C89	C	1.007157	-0.348227	-0.698352
C90	C	1.507157	0.151773	-0.198352
C91	C	0.961659	-0.401528	-0.735868
C92	C	1.461659	0.098472	-0.235868
C93	C	0.916145	-0.454851	-0.702692
C94	C	1.416145	0.045149	-0.202692
C95	C	0.916134	-0.454870	-0.632006
C96	C	1.416134	0.045130	-0.132006
C97	C	0.916186	-0.454773	-0.987762
C98	C	1.416186	0.045227	-0.487762
C99	C	0.916202	-0.454752	-1.058453
C100	C	1.416202	0.045248	-0.558453
C101	C	1.007209	-0.348130	-1.054109
C102	C	1.507209	0.151870	-0.554109
C103	C	1.007199	-0.348150	-0.983422
C104	C	1.507199	0.151850	-0.483422
C105	C	0.961683	-0.401469	-0.950253
C106	C	1.461683	0.098531	-0.450253
C107	C	0.961674	-0.401493	-0.873605
C108	C	1.461674	0.098507	-0.373605
C109	C	0.961670	-0.401509	-0.812514
C110	C	1.461670	0.098491	-0.312514
C111	C	0.961584	-0.401639	-0.166866
C112	C	1.461584	0.098361	0.333134
C113	C	0.961708	-0.401427	-0.091625
C114	C	1.461708	0.098573	0.408375
H115	H	0.707900	-0.304775	-0.260309
H116	H	1.207900	0.195225	0.239691
O117	O	1.029982	-0.874780	-0.274485
O118	O	1.529982	-0.374780	0.225515
H119	H	1.017739	-0.891498	-0.222028
H120	H	1.517739	-0.391498	0.277972
H121	H	0.879097	-0.498247	-0.733243
H122	H	1.379097	0.001753	-0.233243
O123	O	0.893296	-0.927668	-0.410956
O124	O	1.393296	-0.427668	0.089044
H125	H	0.897862	-0.995503	-0.406423
H126	H	1.397862	-0.495503	0.093577
O127	O	1.056223	-0.290762	-0.587202
O128	O	1.556223	0.209238	-0.087202
H129	H	1.087865	-0.253676	-0.622146
H130	H	1.587865	0.246324	-0.122146
O131	O	0.570895	-0.290677	-0.248331
O132	O	1.070895	0.209323	0.251669
H133	H	0.608873	-0.253546	-0.216760
H134	H	1.108873	0.246454	0.283240
O135	O	1.056301	-0.290609	-1.089879
O136	O	1.556301	0.209391	-0.589879
H137	H	1.047414	-0.225183	-1.073616
H138	H	1.547414	0.274817	-0.573616
O139	O	0.561793	-0.512613	-0.437094
O140	O	1.061793	-0.012613	0.062906
H141	H	0.507070	-0.503643	-0.429479
H142	H	1.007070	-0.003643	0.070521
O143	O	0.708724	-0.512596	-0.437075
O144	O	1.208724	-0.012596	0.062925
H145	H	0.692437	-0.578014	-0.428078
H146	H	1.192437	-0.078014	0.071922
O147	O	1.056245	-0.290723	-0.734132
O148	O	1.556245	0.209277	-0.234132
H149	H	1.087888	-0.253672	-0.696170
H150	H	1.587888	0.246328	-0.196170
O151	O	0.362053	-0.290695	-0.248365
O152	O	0.862053	0.209305	0.251635
H153	H	0.416777	-0.299651	-0.255988
H154	H	0.916777	0.200349	0.244012
O155	O	0.215118	-0.290729	-0.248382
O156	O	0.715118	0.209271	0.251618
H157	H	0.184675	-0.248368	-0.276991
H158	H	0.684675	0.251632	0.223009
H159	H	1.044250	-0.304749	-0.952881
H160	H	1.544250	0.195251	-0.452881
H161	H	0.879148	-0.498157	-1.088997
H162	H	1.379148	0.001843	-0.588997
H163	H	0.215954	-0.498527	-0.425158
H164	H	0.715954	0.001473	0.074842
O165	O	0.867041	-0.512368	-0.596222
O166	O	1.367041	-0.012368	-0.096222
H167	H	0.835405	-0.549430	-0.634183
H168	H	1.335405	-0.049430	-0.134183
O169	O	0.867064	-0.512236	-0.951988
O170	O	1.367064	-0.012236	-0.451988
H171	H	0.835422	-0.549284	-0.989952
H172	H	1.335422	-0.049284	-0.489952
H173	H	0.344188	-0.498526	-0.425128
H174	H	0.844188	0.001474	0.074872
