data_functionalizedCrystal
_audit_creation_method	'MofGen! by Chris Wilmer'
_symmetry_space_group_name_H-M	'P1'
_symmetry_Int_Tables_number	1
_symmetry_cell_setting	triclinic
loop_
_symmetry_equiv_pos_as_xyz
  x,y,z
_cell_length_a	11.169417
_cell_length_b	16.625546
_cell_length_c	11.169409
_cell_angle_alpha	89.961635
_cell_angle_beta	89.979436
_cell_angle_gamma	90.023347
loop_
_atom_site_label
_atom_site_type_symbol
_atom_site_fract_x
_atom_site_fract_y
_atom_site_fract_z
Zn1	Zn	1.834870	-0.320918	-0.678492
Zn2	Zn	2.168203	0.012415	-0.345159
Zn3	Zn	2.501537	0.345749	-0.011825
Zn4	Zn	1.834714	-0.455780	-0.477788
Zn5	Zn	2.168048	-0.122446	-0.144454
Zn6	Zn	2.501381	0.210887	0.188879
Zn7	Zn	1.634153	-0.320967	-0.477826
Zn8	Zn	1.967487	0.012366	-0.144493
Zn9	Zn	2.300820	0.345700	0.188840
Zn10	Zn	1.634121	-0.455714	-0.678432
Zn11	Zn	1.967454	-0.122381	-0.345099
Zn12	Zn	2.300787	0.210952	-0.011766
O13	O	1.734465	-0.388345	-0.578135
O14	O	2.067798	-0.055011	-0.244801
O15	O	2.401131	0.278322	0.088532
O16	O	2.002799	-0.338815	-0.651877
O17	O	2.336132	-0.005481	-0.318543
O18	O	2.669466	0.327852	0.014790
O19	O	1.808058	-0.437944	-0.309843
O20	O	2.141391	-0.104611	0.023490
O21	O	2.474724	0.228722	0.356824
O22	O	1.660857	-0.208128	-0.504486
O23	O	1.994191	0.125205	-0.171153
O24	O	2.327524	0.458539	0.162180
O25	O	2.002685	-0.437897	-0.504420
O26	O	2.336018	-0.104564	-0.171087
O27	O	2.669351	0.228770	0.162247
O28	O	1.808323	-0.208092	-0.651914
O29	O	2.141656	0.125241	-0.318581
O30	O	2.474990	0.458575	0.014752
O31	O	1.660706	-0.338898	-0.309871
O32	O	1.994040	-0.005565	0.023462
O33	O	2.327373	0.327769	0.356795
O34	O	1.466199	-0.338835	-0.504428
O35	O	1.799533	-0.005501	-0.171095
O36	O	2.132866	0.327832	0.162238
O37	O	1.660802	-0.437785	-0.846390
O38	O	1.994136	-0.104452	-0.513057
O39	O	2.327469	0.228881	-0.179723
O40	O	1.466175	-0.437833	-0.651813
O41	O	1.799509	-0.104500	-0.318480
O42	O	2.132842	0.228834	0.014854
O43	O	1.808292	-0.338751	-0.846434
O44	O	2.141625	-0.005418	-0.513101
O45	O	2.474958	0.327916	-0.179767
O46	O	1.808026	-0.568604	-0.504362
O47	O	2.141360	-0.235270	-0.171029
O48	O	2.474693	0.098063	0.162304
O49	O	1.660651	-0.568555	-0.651775
O50	O	1.993985	-0.235222	-0.318442
O51	O	2.327318	0.098111	0.014891
C52	C	1.422640	-0.388333	-0.578119
C53	C	1.755973	-0.054999	-0.244786
C54	C	2.089307	0.278334	0.088548
C55	C	1.289240	-0.388347	-0.578141
C56	C	1.622573	-0.055013	-0.244808
C57	C	1.955907	0.278320	0.088526
C58	C	1.734351	-0.597836	-0.578084
C59	C	2.067684	-0.264502	-0.244751
C60	C	2.401018	0.068831	0.088582
C61	C	1.734412	-0.687457	-0.578103
C62	C	2.067746	-0.354123	-0.244770
C63	C	2.401079	-0.020790	0.088564
C64	C	1.734622	-1.015632	-0.578228
C65	C	2.067955	-0.682299	-0.244895
C66	C	2.401288	-0.348966	0.088439
C67	C	1.734559	-0.924324	-0.578197
C68	C	2.067893	-0.590990	-0.244863
C69	C	2.401226	-0.257657	0.088470
C70	C	1.734516	-0.851547	-0.578165
C71	C	2.067849	-0.518214	-0.244832
C72	C	2.401183	-0.184881	0.088502
C73	C	1.734456	-0.760233	-0.578135
C74	C	2.067789	-0.426900	-0.244801
C75	C	2.401122	-0.093566	0.088532
C76	C	2.047507	-0.388358	-0.578151
C77	C	2.380840	-0.055024	-0.244817
C78	C	2.714174	0.278309	0.088516
C79	C	2.180907	-0.388363	-0.578158
C80	C	2.514240	-0.055030	-0.244824
C81	C	2.847573	0.278304	0.088509
C82	C	1.734561	-0.388255	-0.891177
C83	C	2.067894	-0.054922	-0.557844
C84	C	2.401227	0.278411	-0.224511
C85	C	1.734602	-0.388217	-1.024577
C86	C	2.067935	-0.054884	-0.691244
C87	C	2.401268	0.278449	-0.357911
C88	C	1.734611	-0.178036	-0.578211
C89	C	2.067945	0.155298	-0.244878
C90	C	2.401278	0.488631	0.088455
C91	C	1.734674	-0.088415	-0.578244
C92	C	2.068007	0.244919	-0.244911
C93	C	2.401340	0.578252	0.088423
C94	C	1.734438	-0.388376	-0.266310
C95	C	2.067771	-0.055042	0.067024
C96	C	2.401104	0.278291	0.400357
C97	C	1.734629	-0.388186	-0.132910
C98	C	2.067963	-0.054853	0.200423
C99	C	2.401296	0.278480	0.533756
