data_functionalizedCrystal
_audit_creation_method	'MofGen! by Chris Wilmer'
_symmetry_space_group_name_H-M	'P1'
_symmetry_Int_Tables_number	1
_symmetry_cell_setting	triclinic
loop_
_symmetry_equiv_pos_as_xyz
  x,y,z
_cell_length_a	14.908571
_cell_length_b	17.640280
_cell_length_c	14.908308
_cell_angle_alpha	82.669722
_cell_angle_beta	90.175053
_cell_angle_gamma	74.921313
loop_
_atom_site_label
_atom_site_type_symbol
_atom_site_fract_x
_atom_site_fract_y
_atom_site_fract_z
Zn1	Zn	1.445833	-0.413045	-0.498174
Zn2	Zn	1.945833	0.086955	0.001826
Zn3	Zn	1.484886	-0.538235	-0.320716
Zn4	Zn	1.984886	-0.038235	0.179284
Zn5	Zn	1.300448	-0.397842	-0.342463
Zn6	Zn	1.800448	0.102158	0.157537
Zn7	Zn	1.325685	-0.537295	-0.462571
Zn8	Zn	1.825685	-0.037295	0.037429
O9	O	1.389213	-0.471604	-0.405981
O10	O	1.889213	0.028396	0.094019
O11	O	1.578484	-0.436407	-0.480433
O12	O	2.078484	0.063593	0.019567
O13	O	1.466202	-0.513643	-0.199068
O14	O	1.966202	-0.013643	0.300932
O15	O	1.292829	-0.289105	-0.387120
O16	O	1.792829	0.210895	0.112880
O17	O	1.607176	-0.528384	-0.350055
O18	O	2.107176	-0.028384	0.149945
O19	O	1.399643	-0.300274	-0.501520
O20	O	1.899643	0.199726	-0.001520
O21	O	1.330696	-0.410497	-0.215045
O22	O	1.830696	0.089503	0.284955
O23	O	1.176326	-0.409585	-0.352597
O24	O	1.676326	0.090415	0.147403
O25	O	1.335841	-0.526782	-0.591827
O26	O	1.835841	-0.026782	-0.091827
O27	O	1.194867	-0.512041	-0.440840
O28	O	1.694867	-0.012041	0.059160
O29	O	1.424113	-0.435496	-0.617984
O30	O	1.924113	0.064504	-0.117984
O31	O	1.490673	-0.648865	-0.315532
O32	O	1.990673	-0.148865	0.184468
O33	O	1.373708	-0.648174	-0.419752
O34	O	1.873708	-0.148174	0.080248
C35	C	1.152545	-0.459062	-0.395215
C36	C	1.652545	0.040938	0.104785
C37	C	1.051300	-0.453716	-0.390626
C38	C	1.551300	0.046284	0.109374
C39	C	1.439191	-0.677239	-0.361439
C40	C	1.939191	-0.177239	0.138561
C41	C	1.460653	-0.765216	-0.342418
C42	C	1.960653	-0.265216	0.157582
C43	C	0.880453	-0.550508	-0.473704
C44	C	1.380453	-0.050508	0.026296
C45	C	0.785325	-0.545487	-0.469395
C46	C	1.285325	-0.045487	0.030605
C47	C	0.765915	-0.438653	-0.377705
C48	C	1.265915	0.061347	0.122295
C49	C	0.861043	-0.443673	-0.382014
C50	C	1.361043	0.056327	0.117986
C51	C	0.918309	-0.499603	-0.430014
C52	C	1.418309	0.000397	0.069986
C53	C	1.013439	-0.504626	-0.434317
C54	C	1.513439	-0.004626	0.065683
C55	C	0.994026	-0.397788	-0.342633
C56	C	1.494026	0.102212	0.157367
C57	C	0.898899	-0.392768	-0.338324
C58	C	1.398899	0.107232	0.161676
C59	C	1.226523	-1.052872	-0.550826
C60	C	1.726523	-0.552872	-0.050826
C61	C	1.246694	-1.135539	-0.532924
C62	C	1.746694	-0.635539	-0.032924
C63	C	1.368555	-1.136202	-0.424518
C64	C	1.868555	-0.636202	0.075482
C65	C	1.348398	-1.053534	-0.442414
C66	C	1.848398	-0.553534	0.057586
C67	C	1.277380	-1.011876	-0.505568
C68	C	1.777380	-0.511876	-0.005568
C69	C	1.399256	-1.012538	-0.397156
C70	C	1.899256	-0.512538	0.102844
C71	C	1.379096	-0.929876	-0.415047
C72	C	1.879096	-0.429876	0.084953
C73	C	1.308080	-0.888212	-0.478197
C74	C	1.808080	-0.388212	0.021803
C75	C	1.257221	-0.929214	-0.523460
C76	C	1.757221	-0.429214	-0.023460
C77	C	1.470269	-1.054197	-0.333997
C78	C	1.970269	-0.554197	0.166003
C79	C	1.521126	-1.013201	-0.288739
C80	C	2.021126	-0.513201	0.211261
C81	C	1.500972	-0.930538	-0.306635
C82	C	2.000972	-0.430538	0.193365
C83	C	1.429955	-0.888874	-0.369784
C84	C	1.929955	-0.388874	0.130216
C85	C	1.551830	-0.889536	-0.261372
C86	C	2.051830	-0.389536	0.238628
C87	C	1.531671	-0.806875	-0.279264
C88	C	2.031671	-0.306875	0.220736
C89	C	1.409796	-0.806213	-0.387676
C90	C	1.909796	-0.306213	0.112324
C91	C	1.626806	-0.484197	-0.416790
C92	C	2.126806	0.015803	0.083210
C93	C	1.728054	-0.489563	-0.421396
C94	C	2.228054	0.010437	0.078604
C95	C	1.378436	-0.482730	-0.638098
C96	C	1.878436	0.017270	-0.138098
C97	C	1.373843	-0.487470	-0.737013
C98	C	1.873843	0.012530	-0.237013
C99	C	1.339064	-0.265169	-0.450717
C100	C	1.839064	0.234831	0.049283
C101	C	1.317694	-0.177199	-0.469781
C102	C	1.817694	0.322801	0.030219
C103	C	1.457124	-0.401304	-0.950127
C104	C	1.957124	0.098696	-0.450127
C105	C	1.452812	-0.405756	-1.043067
C106	C	1.952812	0.094244	-0.543067
C107	C	1.360899	-0.500821	-1.015834
C108	C	1.860899	-0.000821	-0.515834
C109	C	1.365212	-0.496369	-0.922895
C110	C	1.865212	0.003631	-0.422895
C111	C	1.413328	-0.446610	-0.890045
C112	C	1.913328	0.053390	-0.390045
C113	C	1.417646	-0.442163	-0.797102
C114	C	1.917646	0.057837	-0.297102
C115	C	1.325728	-0.537224	-0.769872
C116	C	1.825728	-0.037224	-0.269872
C117	C	1.321415	-0.541675	-0.862812
C118	C	1.821415	-0.041675	-0.362812
C119	C	1.399987	-0.460468	-0.174782
C120	C	1.899987	0.039532	0.325218
C121	C	1.404702	-0.455514	-0.075924
C122	C	1.904702	0.044486	0.424076
H123	H	1.060064	-0.550169	-0.473399
H124	H	1.560064	-0.050169	0.026601
H125	H	1.290069	-0.574117	-0.720942
H126	H	1.790069	-0.074117	-0.220942
H127	H	1.488473	-0.368861	-1.091984
H128	H	1.988473	0.131139	-0.591984
C129	C	1.629938	-0.935371	-0.191895
C130	C	2.129938	-0.435371	0.308105
N131	N	1.688769	-0.969893	-0.139562
N132	N	2.188769	-0.469893	0.360438
C133	C	1.035676	-0.341792	-0.294567
C134	C	1.535676	0.158208	0.205433
N135	N	1.067048	-0.299619	-0.258362
N136	N	1.567048	0.200381	0.241638
H137	H	1.573084	-0.773495	-0.242409
H138	H	2.073084	-0.273495	0.257591
C139	C	1.331661	-0.760382	-0.457137
C140	C	1.831661	-0.260382	0.042863
N141	N	1.272805	-0.725862	-0.509445
N142	N	1.772805	-0.225862	-0.009445
C143	C	0.943448	-0.612033	-0.526499
C144	C	1.443448	-0.112033	-0.026499
N145	N	0.990895	-0.658375	-0.566267
N146	N	1.490895	-0.158375	-0.066267
C147	C	1.268483	-0.596402	-0.898960
C148	C	1.768483	-0.096402	-0.398960
N149	N	1.228613	-0.637622	-0.926185
N150	N	1.728613	-0.137622	-0.426185
C151	C	1.148388	-1.007042	-0.620287
C152	C	1.648388	-0.507042	-0.120287
N153	N	1.089532	-0.972522	-0.672595
N154	N	1.589532	-0.472522	-0.172595
H155	H	1.578946	-1.047130	-0.237316
H156	H	2.078946	-0.547130	0.262684
C157	C	1.470570	-0.387424	-0.760969
C158	C	1.970570	0.112576	-0.260969
N159	N	1.510429	-0.346191	-0.733757
N160	N	2.010429	0.153809	-0.233757
C161	C	1.446669	-1.182035	-0.355046
C162	C	1.946669	-0.682035	0.144954
N163	N	1.505507	-1.216557	-0.302720
N164	N	2.005507	-0.716557	0.197280
C165	C	0.743689	-0.601492	-0.517450
C166	C	1.243689	-0.101492	-0.017450
N167	N	0.712330	-0.643678	-0.553646
N168	N	1.212330	-0.143678	-0.053646
H169	H	1.496307	-0.360792	-0.923380
H170	H	1.996307	0.139208	-0.423380
C171	C	1.307949	-0.555531	-1.051990
C172	C	1.807949	-0.055531	-0.551990
N173	N	1.268059	-0.596734	-1.079224
N174	N	1.768059	-0.096734	-0.579224
H175	H	0.719272	-0.393112	-0.338632
H176	H	1.219272	0.106888	0.161368
C177	C	1.179086	-0.883384	-0.592920
C178	C	1.679086	-0.383384	-0.092920
N179	N	1.120230	-0.848864	-0.645229
N180	N	1.620230	-0.348864	-0.145229
H181	H	0.852260	-0.347230	-0.299247
H182	H	1.352260	0.152770	0.200753
C183	C	1.190745	-1.180633	-0.582722
C184	C	1.690745	-0.680633	-0.082722
N185	N	1.148605	-1.214597	-0.620229
N186	N	1.648605	-0.714597	-0.120229
H187	H	1.291662	-0.820903	-0.492756
H188	H	1.791662	-0.320903	0.007244
H189	H	1.486682	-1.121505	-0.319435
H190	H	1.986682	-0.621505	0.180565
