data_functionalizedCrystal
_audit_creation_method	'MofGen! by Chris Wilmer'
_symmetry_space_group_name_H-M	'P1'
_symmetry_Int_Tables_number	1
_symmetry_cell_setting	triclinic
loop_
_symmetry_equiv_pos_as_xyz
  x,y,z
_cell_length_a	10.654550
_cell_length_b	17.038272
_cell_length_c	9.730223
_cell_angle_alpha	89.995299
_cell_angle_beta	89.999957
_cell_angle_gamma	87.798243
loop_
_atom_site_label
_atom_site_type_symbol
_atom_site_fract_x
_atom_site_fract_y
_atom_site_fract_z
O1	O	1.678042	0.109878	-0.114188
O2	O	1.313535	0.120346	-0.114214
O3	O	1.493622	0.001285	-0.114190
O4	O	1.497955	0.228940	-0.114212
O5	O	1.493609	0.001281	0.114390
O6	O	1.313523	0.120343	0.114366
O7	O	1.678029	0.109875	0.114392
Zn8	Zn	1.495774	0.115108	0.150671
Zn9	Zn	1.495791	0.115113	-0.150493
O10	O	1.497942	0.228936	0.114368
C11	C	1.266660	0.119576	0.000073
C12	C	1.127003	0.117276	0.000064
C13	C	1.054026	0.187378	0.000061
C14	C	0.922805	0.185213	0.000085
C15	C	0.937548	0.042838	0.000109
C16	C	1.068767	0.045004	0.000095
C17	C	1.489675	-0.027867	0.000099
C18	C	1.477918	-0.114726	0.000098
C19	C	1.585862	-0.164237	0.000107
C20	C	1.574808	-0.245849	0.000093
C21	C	1.455808	-0.277949	0.000080
C22	C	1.347855	-0.228431	0.000067
C23	C	1.358911	-0.146820	0.000071
C24	C	1.416750	-0.523925	0.000059
C25	C	1.405702	-0.605542	0.000059
C26	C	1.632655	-0.622955	0.000082
C27	C	1.643701	-0.541341	0.000094
C28	C	1.535748	-0.491831	0.000074
C29	C	1.444505	-0.361369	0.000070
C30	C	1.547052	-0.408412	0.000074
C31	C	1.724905	0.110645	0.000102
C32	C	1.864561	0.112945	0.000102
C33	C	1.501889	0.258088	0.000076
C34	C	1.513646	0.344947	0.000068
N35	N	1.495771	0.115105	0.356207
N36	N	1.495802	0.115110	-0.356029
C37	C	1.575545	0.062407	0.428144
C38	C	1.575558	0.062407	0.572027
C39	C	1.416020	0.167810	0.572024
C40	C	1.416002	0.167806	0.428144
H41	H	0.890116	-0.016004	0.000142
H42	H	1.640515	0.019495	0.630593
C43	C	1.246786	0.183789	0.266357
C44	C	1.328311	0.225738	0.349059
H45	H	1.192648	0.219553	0.217540
H46	H	1.294287	0.152406	0.202933
H47	H	1.198120	0.150970	0.322518
H48	H	1.376984	0.258553	0.292897
H49	H	1.280806	0.257134	0.412490
C50	C	1.246854	0.183799	0.733867
C51	C	1.328351	0.225741	0.651109
H52	H	1.192739	0.219567	0.782695
H53	H	1.198173	0.150980	0.677755
H54	H	1.294385	0.152417	0.797295
H55	H	1.280821	0.257119	0.587674
H56	H	1.377037	0.258575	0.707226
H57	H	1.643941	-0.382273	0.000054
H58	H	1.128187	-0.012085	0.000101
H59	H	1.101438	0.246227	0.000046
C60	C	1.168883	-0.106845	-0.117447
C61	C	1.240255	-0.092395	0.000063
H62	H	1.095625	-0.073248	-0.117450
H63	H	1.217327	-0.097042	-0.197137
H64	H	1.145277	-0.160045	-0.117432
H65	H	1.263869	-0.039196	0.000044
H66	H	1.191802	-0.102192	0.079774
C67	C	0.921421	0.326159	0.000039
C68	C	0.842589	0.262271	0.000072
H69	H	0.871897	0.373733	0.000024
H70	H	0.972914	0.324046	0.079738
H71	H	0.972902	0.324033	-0.079684
H72	H	0.791114	0.264394	0.079801
H73	H	0.791075	0.264385	-0.079635
C74	C	1.261633	-0.687228	-0.117460
C75	C	1.274892	-0.640833	0.000039
H76	H	1.180885	-0.709020	-0.117462
H77	H	1.270658	-0.655749	-0.197157
H78	H	1.324356	-0.728387	-0.117432
H79	H	1.212175	-0.599670	0.000007
H80	H	1.265855	-0.672314	0.079757
H81	H	1.250963	-0.254573	0.000048
C82	C	1.809082	-0.189654	0.000106
C83	C	1.716672	-0.128958	0.000112
H84	H	1.889839	-0.167874	0.000095
H85	H	1.800051	-0.221124	0.079812
H86	H	1.800037	-0.221120	-0.079610
H87	H	1.725711	-0.097495	0.079833
H88	H	1.725708	-0.097474	-0.079603
H89	H	1.662708	-0.286159	0.000103
H90	H	1.740603	-0.515213	0.000105
H91	H	1.347615	-0.387514	0.000063
C92	C	1.733230	-0.041786	0.442603
C93	C	1.663214	0.004472	0.349070
H94	H	1.787346	-0.077557	0.393786
H95	H	1.781911	-0.008958	0.498701
H96	H	1.677913	-0.070223	0.498741
H97	H	1.718531	0.032914	0.292938
H98	H	1.614529	-0.028360	0.292948
H99	H	1.720544	-0.663274	0.000096
C100	C	1.297506	-0.422057	-0.117466
C101	C	1.298085	-0.469514	0.000043
H102	H	1.224237	-0.388468	-0.117477
H103	H	1.369942	-0.391256	-0.117450
H104	H	1.297924	-0.454263	-0.197165
H105	H	1.297676	-0.437308	0.079743
H106	H	1.225629	-0.500317	0.000040
