data_functionalizedCrystal
_audit_creation_method	'MofGen! by Chris Wilmer'
_symmetry_space_group_name_H-M	'P1'
_symmetry_Int_Tables_number	1
_symmetry_cell_setting	triclinic
loop_
_symmetry_equiv_pos_as_xyz
  x,y,z
_cell_length_a	11.792241
_cell_length_b	18.266242
_cell_length_c	19.188930
_cell_angle_alpha	90.011475
_cell_angle_beta	96.330901
_cell_angle_gamma	89.995824
loop_
_atom_site_label
_atom_site_type_symbol
_atom_site_fract_x
_atom_site_fract_y
_atom_site_fract_z
O1	O	-1.505484	0.060808	0.095696
O2	O	-1.174995	0.060828	0.105558
O3	O	-1.349777	0.060803	-0.000975
O4	O	-1.330702	0.060833	0.202229
O5	O	-1.349747	-0.060959	-0.000980
O6	O	-1.174965	-0.060934	0.105553
O7	O	-1.505454	-0.060954	0.095690
Zn8	Zn	-1.340205	-0.080276	0.100620
Zn9	Zn	-1.340244	0.080150	0.100628
O10	O	-1.330673	-0.060929	0.202223
C11	C	-1.132699	-0.000050	0.104936
C12	C	-1.006713	-0.000043	0.103082
C13	C	-0.776051	-0.000063	0.099672
C14	C	-0.904408	-0.000052	0.101566
N15	N	-1.340187	-0.189763	0.100615
C16	C	-1.417605	-0.228083	0.053466
C17	C	-1.417613	-0.304728	0.053462
C18	C	-1.340212	-0.343050	0.100621
C19	C	-1.262779	-0.304721	0.147774
C20	C	-1.262766	-0.228077	0.147771
N21	N	-1.325459	-0.463373	0.162345
N22	N	-1.325478	-0.536181	0.162345
C23	C	-1.340244	-0.573972	0.100631
N24	N	-1.355012	-0.536205	0.038914
N25	N	-1.354999	-0.463391	0.038914
C26	C	-1.340217	-0.426157	0.100629
C27	C	-1.417674	-0.695400	0.053474
C28	C	-1.417674	-0.772046	0.053470
C29	C	-1.262846	-0.772037	0.147787
C30	C	-1.262841	-0.695392	0.147785
C31	C	-1.340261	-0.657078	0.100630
C32	C	-0.547751	-0.000072	0.096313
C33	C	-0.673737	-0.000069	0.098167
C34	C	-1.349144	-0.000080	-0.026992
C35	C	-1.347290	-0.000086	-0.104507
N36	N	-1.340271	0.189637	0.100628
C37	C	-1.449846	-0.000096	-0.148850
C38	C	-1.448104	-0.000084	-0.221684
C39	C	-1.343800	-0.000077	-0.250171
C40	C	-1.241230	-0.000063	-0.205818
C41	C	-1.242975	-0.000068	-0.132986
N42	N	-1.264062	-0.041510	-0.358630
N43	N	-1.262411	-0.041507	-0.427817
C44	C	-1.338536	-0.000062	-0.469609
N45	N	-1.416391	0.041372	-0.439601
N46	N	-1.418045	0.041366	-0.370407
C47	C	-1.341896	-0.000072	-0.329144
C48	C	-1.439211	-0.000058	-0.592928
C49	C	-1.437464	-0.000041	-0.665762
C50	C	-1.230588	-0.000028	-0.649895
C51	C	-1.232337	-0.000037	-0.577062
C52	C	-1.336652	-0.000055	-0.548583
C53	C	-1.331305	-0.000044	0.228240
C54	C	-1.333159	-0.000033	0.305755
H55	H	-1.480643	-0.196890	0.015067
H56	H	-1.156305	-0.000056	-0.229017
H57	H	-1.531620	-0.000089	-0.257795
H58	H	-1.480714	-0.803247	0.015072
H59	H	-1.524150	-0.000070	-0.569739
H60	H	-1.145661	-0.000019	-0.673089
H61	H	-1.480712	-0.664203	0.015075
H62	H	-1.520981	-0.000045	-0.701866
H63	H	-1.199820	-0.803238	0.186182
H64	H	-1.148825	-0.000033	-0.540957
H65	H	-1.199804	-0.664190	0.186182
H66	H	-1.159459	-0.000060	-0.096881
H67	H	-1.199757	-0.335926	0.186169
H68	H	-1.480658	-0.335934	0.015066
H69	H	-1.199722	-0.196877	0.186166
H70	H	-1.534787	-0.000108	-0.125667
