data_functionalizedCrystal
_audit_creation_method	'MofGen! by Chris Wilmer'
_symmetry_space_group_name_H-M	'P1'
_symmetry_Int_Tables_number	1
_symmetry_cell_setting	triclinic
loop_
_symmetry_equiv_pos_as_xyz
  x,y,z
_cell_length_a	11.792254
_cell_length_b	14.519731
_cell_length_c	10.268362
_cell_angle_alpha	89.993732
_cell_angle_beta	89.995475
_cell_angle_gamma	83.943725
loop_
_atom_site_label
_atom_site_type_symbol
_atom_site_fract_x
_atom_site_fract_y
_atom_site_fract_z
O1	O	1.506211	0.126459	-0.108302
O2	O	1.756211	0.376459	0.141698
O3	O	2.006211	0.626459	0.391698
O4	O	2.256211	0.876459	0.641698
O5	O	1.175801	0.139474	-0.108305
O6	O	1.425801	0.389474	0.141695
O7	O	1.675801	0.639474	0.391695
O8	O	1.925801	0.889474	0.641695
O9	O	1.349754	-0.001238	-0.108292
O10	O	1.599754	0.248762	0.141708
O11	O	1.849754	0.498762	0.391708
O12	O	2.099754	0.748762	0.641708
O13	O	1.332258	0.267171	-0.108316
O14	O	1.582258	0.517171	0.141684
O15	O	1.832258	0.767171	0.391684
O16	O	2.082258	1.017171	0.641684
O17	O	1.349739	-0.001244	0.108309
O18	O	1.599739	0.248756	0.358309
O19	O	1.849739	0.498756	0.608309
O20	O	2.099739	0.748756	0.858309
O21	O	1.175786	0.139468	0.108295
O22	O	1.425786	0.389468	0.358295
O23	O	1.675786	0.639468	0.608295
O24	O	1.925786	0.889468	0.858295
O25	O	1.506196	0.126453	0.108298
O26	O	1.756196	0.376453	0.358298
O27	O	2.006196	0.626453	0.608298
O28	O	2.256196	0.876453	0.858298
Cu29	Cu	1.340990	0.132960	0.128074
Cu30	Cu	1.590990	0.382960	0.378074
Cu31	Cu	1.840990	0.632960	0.628074
Cu32	Cu	2.090990	0.882960	0.878074
Cu33	Cu	1.341007	0.132967	-0.128081
Cu34	Cu	1.591007	0.382967	0.121919
Cu35	Cu	1.841007	0.632967	0.371919
Cu36	Cu	2.091007	0.882967	0.621919
O37	O	1.332243	0.267165	0.108285
O38	O	1.582243	0.517165	0.358285
O39	O	1.832243	0.767165	0.608285
O40	O	2.082243	1.017165	0.858285
C41	C	1.133507	0.138651	-0.000005
C42	C	1.383507	0.388651	0.249995
C43	C	1.633507	0.638651	0.499995
C44	C	1.883507	0.888651	0.749995
C45	C	1.007508	0.136197	-0.000006
C46	C	1.257508	0.386197	0.249994
C47	C	1.507508	0.636197	0.499994
C48	C	1.757508	0.886197	0.749994
C49	C	0.905182	0.134203	-0.000012
C50	C	1.155182	0.384203	0.249988
C51	C	1.405182	0.634203	0.499988
C52	C	1.655182	0.884203	0.749988
C53	C	0.776809	0.131710	-0.000012
C54	C	1.026809	0.381710	0.249988
C55	C	1.276809	0.631710	0.499988
C56	C	1.526809	0.881710	0.749988
C57	C	1.348926	-0.035604	0.000009
C58	C	1.598926	0.214396	0.250009
C59	C	1.848926	0.464396	0.500009
C60	C	2.098926	0.714396	0.750009
C61	C	1.346470	-0.137993	0.000009
C62	C	1.596470	0.112007	0.250009
C63	C	1.846470	0.362007	0.500009
C64	C	2.096470	0.612007	0.750009
C65	C	1.344474	-0.221145	0.000006
C66	C	1.594474	0.028855	0.250006
C67	C	1.844474	0.278855	0.500006
C68	C	2.094474	0.528855	0.750006
C69	C	1.341980	-0.325463	-0.000004
C70	C	1.591980	-0.075463	0.249996
C71	C	1.841980	0.174537	0.499996
C72	C	2.091980	0.424537	0.749996
C73	C	1.340000	-0.408609	-0.000012
C74	C	1.590000	-0.158609	0.249988
C75	C	1.840000	0.091391	0.499988
C76	C	2.090000	0.341391	0.749988
C77	C	1.337506	-0.512934	-0.000020
C78	C	1.587506	-0.262934	0.249980
C79	C	1.837506	-0.012934	0.499980
C80	C	2.087506	0.237066	0.749980
C81	C	1.548490	0.127276	-0.000005
C82	C	1.798490	0.377276	0.249995
C83	C	2.048490	0.627276	0.499995
C84	C	2.298490	0.877276	0.749995
C85	C	1.674489	0.129730	-0.000012
C86	C	1.924489	0.379730	0.249988
C87	C	2.174489	0.629730	0.499988
C88	C	2.424489	0.879730	0.749988
C89	C	1.333071	0.301531	-0.000019
C90	C	1.583071	0.551531	0.249981
C91	C	1.833071	0.801531	0.499981
C92	C	2.083071	1.051531	0.749981
C93	C	1.335527	0.403920	-0.000028
C94	C	1.585527	0.653920	0.249972
C95	C	1.835527	0.903920	0.499972
C96	C	2.085527	1.153920	0.749972
N97	N	1.340985	0.132955	0.308240
N98	N	1.590985	0.382955	0.558240
N99	N	1.840985	0.632955	0.808240
N100	N	2.090985	0.882955	1.058240
N101	N	1.341021	0.132965	-0.308247
N102	N	1.591021	0.382965	-0.058247
N103	N	1.841021	0.632965	0.191753
N104	N	2.091021	0.882965	0.441753
C105	C	1.341002	0.132965	0.573911
C106	C	1.591002	0.382965	0.823911
C107	C	1.841002	0.632965	1.073911
C108	C	2.091002	0.882965	1.323911
C109	C	1.340989	0.132962	0.426073
C110	C	1.590989	0.382962	0.676073
C111	C	1.840989	0.632962	0.926073
C112	C	2.090989	0.882962	1.176073
