data_functionalizedCrystal
_audit_creation_method	'MofGen! by Chris Wilmer'
_symmetry_space_group_name_H-M	'P1'
_symmetry_Int_Tables_number	1
_symmetry_cell_setting	triclinic
loop_
_symmetry_equiv_pos_as_xyz
  x,y,z
_cell_length_a	12.594516
_cell_length_b	14.908780
_cell_length_c	14.908308
_cell_angle_alpha	90.212689
_cell_angle_beta	93.271498
_cell_angle_gamma	86.694491
loop_
_atom_site_label
_atom_site_type_symbol
_atom_site_fract_x
_atom_site_fract_y
_atom_site_fract_z
Zn1	Zn	-0.372328	-1.345335	-0.587893
Zn2	Zn	0.127672	-0.845335	-0.087893
Zn3	Zn	-0.539514	-1.353926	-0.437546
Zn4	Zn	-0.039514	-0.853926	0.062454
Zn5	Zn	-0.371171	-1.203648	-0.428861
Zn6	Zn	0.128829	-0.703648	0.071139
Zn7	Zn	-0.559890	-1.194953	-0.579165
Zn8	Zn	-0.059890	-0.694953	-0.079165
O9	O	-0.460726	-1.274465	-0.508366
O10	O	0.039274	-0.774465	-0.008366
O11	O	-0.386463	-1.472302	-0.575237
O12	O	0.113537	-0.972302	-0.075237
O13	O	-0.508172	-1.341225	-0.310570
O14	O	-0.008172	-0.841225	0.189430
O15	O	-0.222377	-1.222487	-0.449975
O16	O	0.277623	-0.722487	0.050025
O17	O	-0.509294	-1.478613	-0.464778
O18	O	-0.009294	-0.978613	0.035222
O19	O	-0.223227	-1.326584	-0.566815
O20	O	0.276773	-0.826584	-0.066815
O21	O	-0.384491	-1.230817	-0.304189
O22	O	0.115509	-0.730817	0.195811
O23	O	-0.404248	-1.076668	-0.441511
O24	O	0.095752	-0.576668	0.058489
O25	O	-0.544021	-1.207667	-0.706147
O26	O	-0.044021	-0.707667	-0.206147
O27	O	-0.542899	-1.070279	-0.551939
O28	O	-0.042899	-0.570279	-0.051939
O29	O	-0.406220	-1.318152	-0.712559
O30	O	0.093780	-0.818152	-0.212559
O31	O	-0.691165	-1.332794	-0.456314
O32	O	-0.191165	-0.832794	0.043686
O33	O	-0.706135	-1.215997	-0.560361
O34	O	-0.206135	-0.715997	-0.060361
C35	C	-0.475660	-1.040848	-0.494836
C36	C	0.024340	-0.540848	0.005164
C37	C	-0.482076	-0.940904	-0.489069
C38	C	0.017924	-0.440904	0.010931
C39	C	-0.366427	-0.746515	-0.593430
C40	C	0.133573	-0.246515	-0.093430
C41	C	-0.372451	-0.652608	-0.588014
C42	C	0.127549	-0.152608	-0.088014
C43	C	-0.500144	-0.659184	-0.472819
C44	C	-0.000144	-0.159184	0.027181
C45	C	-0.494119	-0.753090	-0.478234
C46	C	0.005881	-0.253090	0.021766
C47	C	-0.427259	-0.796752	-0.538543
C48	C	0.072741	-0.296752	-0.038543
C49	C	-0.421241	-0.890660	-0.543962
C50	C	0.078759	-0.390660	-0.043962
C51	C	-0.548927	-0.897233	-0.428763
C52	C	-0.048927	-0.397233	0.071237
C53	C	-0.554951	-0.803327	-0.423347
C54	C	-0.054951	-0.303327	0.076653
C55	C	-0.737270	-1.274407	-0.508354
C56	C	-0.237270	-0.774407	-0.008354
C57	C	-0.855574	-1.274463	-0.508384
C58	C	-0.355574	-0.774463	-0.008384
C59	C	-0.933005	-1.210933	-0.564932
C60	C	-0.433005	-0.710933	-0.064932
C61	C	-0.999363	-1.193764	-0.481621
C62	C	-0.499363	-0.693764	0.018379
C63	C	-1.000011	-1.291714	-0.591713
C64	C	-0.500011	-0.791714	-0.091713
C65	C	-0.920373	-1.257252	-0.425027
C66	C	-0.420373	-0.757252	0.074973
C67	C	-0.921016	-1.355237	-0.535177
C68	C	-0.421016	-0.855237	-0.035177
C69	C	-0.987336	-1.338101	-0.451811
C70	C	-0.487336	-0.838101	0.048189
C71	C	-0.183102	-1.274547	-0.508400
C72	C	0.316898	-0.774547	-0.008400
C73	C	-0.064795	-1.274582	-0.508414
C74	C	0.435205	-0.774582	-0.008414
C75	C	-0.477522	-1.260981	-0.742890
C76	C	0.022478	-0.760981	-0.242890
C77	C	-0.484680	-1.255235	-0.842830
C78	C	0.015320	-0.755235	-0.342830
C79	C	-0.445725	-0.508996	-0.521943
C80	C	0.054275	-0.008996	-0.021943
C81	C	-0.439309	-0.608939	-0.527712
C82	C	0.060691	-0.108939	-0.027712
C83	C	-0.354614	-1.359483	-1.037306
C84	C	0.145386	-0.859483	-0.537306
C85	C	-0.361335	-1.354087	-1.131209
C86	C	0.138665	-0.854087	-0.631209
C87	C	-0.504839	-1.239042	-1.124539
C88	C	-0.004839	-0.739042	-0.624539
C89	C	-0.498117	-1.244439	-1.030636
C90	C	0.001883	-0.744439	-0.530636
C91	C	-0.423003	-1.304662	-0.987024
C92	C	0.076997	-0.804662	-0.487024
C93	C	-0.416288	-1.310062	-0.893119
C94	C	0.083712	-0.810062	-0.393119
C95	C	-0.559785	-1.195014	-0.886451
C96	C	-0.059785	-0.695014	-0.386451
C97	C	-0.566507	-1.189617	-0.980354
C98	C	-0.066507	-0.689617	-0.480354
C99	C	-0.443915	-1.287949	-0.274758
C100	C	0.056085	-0.787949	0.225242
C101	C	-0.436446	-1.293869	-0.174829
C102	C	0.063554	-0.793869	0.325171
H103	H	-0.908879	-1.157122	-0.612674
H104	H	-0.408879	-0.657122	-0.112674
H105	H	-0.293458	-1.408524	-1.001796
H106	H	0.206542	-0.908524	-0.501796
N107	N	-0.647498	-1.124658	-1.027410
N108	N	-0.147498	-0.624658	-0.527410
H109	H	-0.697271	-1.158942	-1.068488
H110	H	-0.197271	-0.658942	-0.568488
H111	H	-0.689731	-1.090754	-0.981257
H112	H	-0.189731	-0.590754	-0.481257
N113	N	-0.335281	-1.375017	-0.846076
N114	N	0.164719	-0.875017	-0.346076
H115	H	-0.292975	-1.408925	-0.892183
H116	H	0.207025	-0.908925	-0.392183
H117	H	-0.285578	-1.340667	-0.804999
H118	H	0.214422	-0.840667	-0.304999
H119	H	-0.598470	-0.938147	-0.384077
H120	H	-0.098470	-0.438147	0.115923
N121	N	-1.044799	-1.103359	-0.451606
N122	N	-0.544799	-0.603359	0.048394
H123	H	-1.014659	-1.089884	-0.389091
H124	H	-0.514659	-0.589884	0.110909
H125	H	-1.025266	-1.055418	-0.494402
H126	H	-0.525266	-0.555418	0.005598
N127	N	-0.287580	-1.413224	-1.185442
N128	N	0.212420	-0.913224	-0.685442
H129	H	-0.303233	-1.400670	-1.251547
H130	H	0.196767	-0.900670	-0.751547
H131	H	-0.211283	-1.400192	-1.168226
H132	H	0.288717	-0.900192	-0.668226
N133	N	-0.349139	-0.937753	-0.609013
N134	N	0.150861	-0.437753	-0.109013
H135	H	-0.354557	-1.004866	-0.604123
H136	H	0.145443	-0.504866	-0.104123
H137	H	-0.371479	-0.917653	-0.672256
H138	H	0.128521	-0.417653	-0.172256
H139	H	-0.885671	-1.242630	-0.354544
H140	H	-0.385671	-0.742630	0.145456
H141	H	-0.565992	-1.190011	-1.160065
H142	H	-0.065992	-0.690011	-0.660065
N143	N	-1.019030	-1.409343	-0.388415
N144	N	-0.519030	-0.909343	0.111585
H145	H	-0.989807	-1.396240	-0.325530
H146	H	-0.489807	-0.896240	0.174470
H147	H	-1.099271	-1.409319	-0.389236
H148	H	-0.599271	-0.909319	0.110764
H149	H	-0.886707	-1.423473	-0.557854
H150	H	-0.386707	-0.923473	-0.057854
N151	N	-0.294341	-0.793611	-0.658491
N152	N	0.205659	-0.293611	-0.158491
H153	H	-0.299763	-0.860723	-0.653599
H154	H	0.200237	-0.360723	-0.153599
H155	H	-0.316700	-0.773509	-0.721730
H156	H	0.183300	-0.273509	-0.221730
N157	N	-1.046164	-1.310981	-0.685038
N158	N	-0.546164	-0.810981	-0.185038
H159	H	-1.026627	-1.262905	-0.727686
H160	H	-0.526627	-0.762905	-0.227686
H161	H	-1.016503	-1.371499	-0.705629
H162	H	-0.516503	-0.871499	-0.205629
N163	N	-0.627051	-0.756224	-0.358302
N164	N	-0.127051	-0.256224	0.141698
H165	H	-0.681549	-0.715164	-0.392528
H166	H	-0.181549	-0.215164	0.107472
H167	H	-0.664604	-0.802353	-0.324366
H168	H	-0.164604	-0.302353	0.175634
N169	N	-0.633561	-1.135869	-0.832234
N170	N	-0.133561	-0.635869	-0.332234
H171	H	-0.677769	-1.174630	-0.795385
H172	H	-0.177769	-0.674630	-0.295385
H173	H	-0.590118	-1.096453	-0.790918
H174	H	-0.090118	-0.596453	-0.290918
N175	N	-0.306829	-0.598431	-0.647212
N176	N	0.193171	-0.098431	-0.147212
H177	H	-0.327020	-0.611095	-0.712377
H178	H	0.172980	-0.111095	-0.212377
H179	H	-0.320809	-0.532335	-0.634559
H180	H	0.179191	-0.032335	-0.134559
N181	N	-0.572230	-0.612084	-0.407761
N182	N	-0.072230	-0.112084	0.092239
H183	H	-0.566806	-0.544973	-0.412656
H184	H	-0.066806	-0.044973	0.087344
H185	H	-0.648220	-0.627681	-0.422586
H186	H	-0.148220	-0.127681	0.077414
