data_functionalizedCrystal
_audit_creation_method	'MofGen! by Chris Wilmer'
_symmetry_space_group_name_H-M	'P1'
_symmetry_Int_Tables_number	1
_symmetry_cell_setting	triclinic
loop_
_symmetry_equiv_pos_as_xyz
  x,y,z
_cell_length_a	15.995350
_cell_length_b	15.944551
_cell_length_c	14.472310
_cell_angle_alpha	89.997979
_cell_angle_beta	89.990621
_cell_angle_gamma	83.495557
loop_
_atom_site_label
_atom_site_type_symbol
_atom_site_fract_x
_atom_site_fract_y
_atom_site_fract_z
O1	O	1.111003	0.108264	-0.076765
O2	O	1.611003	0.608264	0.423235
O3	O	0.867228	0.121634	-0.076784
O4	O	1.367228	0.621634	0.423216
O5	O	0.995772	-0.007326	-0.076765
O6	O	1.495772	0.492674	0.423235
O7	O	0.982458	0.237224	-0.076783
O8	O	1.482458	0.737224	0.423217
O9	O	0.995739	-0.007319	0.076917
O10	O	1.495739	0.492681	0.576917
O11	O	0.867195	0.121641	0.076898
O12	O	1.367195	0.621641	0.576898
O13	O	1.110969	0.108272	0.076917
O14	O	1.610969	0.608272	0.576917
Cu15	Cu	0.989079	0.114957	0.090940
Cu16	Cu	1.489079	0.614957	0.590940
Cu17	Cu	0.989118	0.114948	-0.090807
Cu18	Cu	1.489118	0.614948	0.409193
O19	O	0.982425	0.237232	0.076899
O20	O	1.482425	0.737232	0.576899
C21	C	0.836017	0.121085	0.000055
C22	C	1.336017	0.621085	0.500055
C23	C	0.743066	0.119428	0.000048
C24	C	1.243066	0.619428	0.500048
C25	C	0.405318	0.113477	0.000067
C26	C	0.905318	0.613477	0.500067
C27	C	0.452747	0.021634	0.000417
C28	C	0.952747	0.521634	0.500417
C29	C	0.549438	0.023291	0.000064
C30	C	1.049438	0.523291	0.500064
C31	C	0.572879	0.116429	0.000058
C32	C	1.072879	0.616429	0.500058
C33	C	0.531813	0.161724	-0.087701
C34	C	1.031813	0.661724	0.412299
C35	C	0.435178	0.159417	-0.087768
C36	C	0.935178	0.659417	0.412232
C37	C	0.434801	0.161323	0.086997
C38	C	0.934801	0.661323	0.586997
C39	C	0.531746	0.161302	0.088150
C40	C	1.031746	0.661302	0.588150
C41	C	0.667577	0.118102	0.000050
C42	C	1.167577	0.618102	0.500050
C43	C	0.310620	0.111806	0.000069
C44	C	0.810620	0.611806	0.500069
C45	C	0.995203	-0.038616	0.000076
C46	C	1.495203	0.461384	0.500076
C47	C	0.993546	-0.131862	0.000076
C48	C	1.493546	0.368138	0.500076
C49	C	0.909908	-0.346714	0.000057
C50	C	1.409908	0.153286	0.500057
C51	C	0.948730	-0.407730	0.075834
C52	C	1.448730	0.092270	0.575834
C53	C	0.990548	-0.302588	0.000069
C54	C	1.490548	0.197412	0.500069
C55	C	0.948782	-0.407721	-0.075684
C56	C	1.448782	0.092279	0.424316
C57	C	0.987647	-0.467501	0.000058
C58	C	1.487647	0.032499	0.500058
C59	C	1.029393	-0.362376	0.075909
C60	C	1.529393	0.137624	0.575909
C61	C	1.029433	-0.362360	-0.075678
C62	C	1.529433	0.137640	0.424322
C63	C	1.068315	-0.423358	0.000119
C64	C	1.568315	0.076642	0.500119
C65	C	0.992217	-0.207586	0.000076
C66	C	1.492217	0.292414	0.500076
C67	C	0.985984	-0.562502	0.000057
C68	C	1.485984	-0.062502	0.500057
C69	C	1.142181	0.108821	0.000077
C70	C	1.642181	0.608821	0.500077
C71	C	1.235131	0.110478	0.000078
C72	C	1.735131	0.610478	0.500078
C73	C	0.982995	0.268522	0.000056
C74	C	1.482995	0.768522	0.500056
C75	C	0.984652	0.361768	0.000049
C76	C	1.484652	0.861768	0.500049
N77	N	0.989058	0.114963	0.218771
N78	N	1.489058	0.614963	0.718771
N79	N	0.989146	0.114936	-0.218638
N80	N	1.489146	0.614936	0.281362
C81	C	0.989117	0.114945	0.592862
C82	C	1.489117	0.614945	1.092862
C83	C	0.920105	0.183717	0.553686
C84	C	1.420105	0.683717	1.053686
C85	C	0.920264	0.183968	0.446598
C86	C	1.420264	0.683968	0.946598
C87	C	0.989087	0.114954	0.407271
C88	C	1.489087	0.614954	0.907271
C89	C	1.076453	0.134096	0.446114
C90	C	1.576453	0.634096	0.946114
C91	C	1.076065	0.134585	0.553235
C92	C	1.576065	0.634585	1.053235
C93	C	0.971543	0.026826	0.553396
C94	C	1.471543	0.526826	1.053396
C95	C	0.969539	0.027414	0.446269
C96	C	1.469539	0.527414	0.946269
C97	C	0.989075	0.114957	0.302383
C98	C	1.489075	0.614957	0.802383
C99	C	0.989135	0.114943	0.697750
C100	C	1.489135	0.614943	1.197750
H101	H	0.414250	0.131301	0.153516
H102	H	0.914250	0.631301	0.653516
Br103	Br	0.596800	-0.036054	0.104918
Br104	Br	1.096800	0.463946	0.604918
Br105	Br	1.086176	-0.329062	0.182803
Br106	Br	1.586176	0.170938	0.682803
Br107	Br	1.164096	0.052829	0.403661
Br108	Br	1.664096	0.552829	0.903661
H109	H	0.854954	0.172500	0.579470
H110	H	1.354954	0.672500	1.079470
Br111	Br	0.812010	0.165018	0.402824
Br112	Br	1.312010	0.665018	0.902824
H113	H	0.842972	-0.313403	0.000127
H114	H	1.342972	0.186597	0.500127
H115	H	1.135309	-0.456521	0.000167
H116	H	1.635309	0.043479	0.500167
Br117	Br	0.577132	0.106096	0.196362
Br118	Br	1.077132	0.606096	0.696362
H119	H	0.434210	-0.015075	0.063353
H120	H	0.934210	0.484925	0.563353
H121	H	0.931173	0.248741	0.580592
H122	H	1.431173	0.748741	1.080592
H123	H	0.931487	0.249360	0.420961
H124	H	1.431487	0.749360	0.920961
Br125	Br	1.101876	0.241696	0.594863
Br126	Br	1.601876	0.741696	1.094863
Br127	Br	0.579122	0.109281	-0.196557
Br128	Br	1.079122	0.609281	0.303443
Br129	Br	1.086259	-0.328814	-0.182453
Br130	Br	1.586259	0.171186	0.317547
Br131	Br	0.557353	0.274510	0.096979
Br132	Br	1.057353	0.774510	0.596979
H133	H	0.403043	0.229039	0.087586
H134	H	0.903043	0.729039	0.587586
H135	H	0.577307	-0.012561	-0.062951
H136	H	1.077307	0.487439	0.437049
Br137	Br	0.891863	-0.441236	0.182605
Br138	Br	1.391863	0.058764	0.682605
H139	H	1.016539	-0.026162	0.419502
H140	H	1.516539	0.473838	0.919502
Br141	Br	0.420104	-0.039288	-0.103885
Br142	Br	0.920104	0.460712	0.396115
H143	H	1.129023	0.086470	0.579148
H144	H	1.629023	0.586470	1.079148
Br145	Br	1.102886	0.239986	0.401380
Br146	Br	1.602886	0.739986	0.901380
H147	H	0.914677	-0.427799	-0.139753
H148	H	1.414677	0.072201	0.360247
Br149	Br	0.867648	-0.003838	0.598471
Br150	Br	1.367648	0.496162	1.098471
Br151	Br	0.404678	0.104353	-0.197103
Br152	Br	0.904678	0.604353	0.302897
H153	H	1.021870	-0.024352	0.578730
H154	H	1.521870	0.475648	1.078730
Br155	Br	0.381431	0.271800	-0.094413
Br156	Br	0.881431	0.771800	0.405587
Br157	Br	0.555387	0.275764	-0.093173
Br158	Br	1.055387	0.775764	0.406827
Br159	Br	0.862422	0.003197	0.403961
Br160	Br	1.362422	0.503197	0.903961
