data_functionalizedCrystal
_audit_creation_method	'MofGen! by Chris Wilmer'
_symmetry_space_group_name_H-M	'P1'
_symmetry_Int_Tables_number	1
_symmetry_cell_setting	triclinic
loop_
_symmetry_equiv_pos_as_xyz
  x,y,z
_cell_length_a	21.395364
_cell_length_b	18.050589
_cell_length_c	21.395356
_cell_angle_alpha	90.022373
_cell_angle_beta	89.983509
_cell_angle_gamma	89.950351
loop_
_atom_site_label
_atom_site_type_symbol
_atom_site_fract_x
_atom_site_fract_y
_atom_site_fract_z
Zn1	Zn	0.957792	0.295378	-0.354287
Zn2	Zn	0.957702	0.419571	-0.249520
Zn3	Zn	0.853022	0.295432	-0.249523
Zn4	Zn	0.852969	0.419564	-0.354260
O5	O	0.905371	0.357486	-0.301898
O6	O	1.045458	0.311834	-0.340399
O7	O	0.943800	0.403129	-0.161842
O8	O	0.866980	0.191500	-0.263433
O9	O	1.045392	0.403078	-0.263427
O10	O	0.943954	0.191461	-0.340402
O11	O	0.866892	0.311925	-0.161845
O12	O	0.765337	0.311917	-0.263407
O13	O	0.866890	0.403064	-0.441942
O14	O	0.765298	0.403116	-0.340357
O15	O	0.943903	0.311826	-0.441961
O16	O	0.943749	0.523495	-0.263401
O17	O	0.866802	0.523489	-0.340353
C18	C	0.742584	0.357522	-0.301880
C19	C	0.672942	0.357556	-0.301887
C20	C	0.640286	0.310123	-0.342028
C21	C	0.574851	0.310103	-0.342031
C22	C	0.542074	0.357529	-0.301899
C23	C	0.574738	0.404966	-0.261750
C24	C	0.640172	0.404979	-0.261744
C25	C	0.438346	0.424411	-0.296867
C26	C	0.372913	0.424399	-0.296877
C27	C	0.340253	0.357489	-0.301913
C28	C	0.373034	0.290588	-0.306951
C29	C	0.438468	0.290601	-0.306946
C30	C	0.471122	0.357520	-0.301900
C31	C	0.236644	0.310030	-0.342059
C32	C	0.171208	0.310009	-0.342057
C33	C	0.171097	0.404879	-0.261779
C34	C	0.236532	0.404893	-0.261777
C35	C	0.269302	0.357470	-0.301921
C36	C	0.905277	0.550438	-0.301888
C37	C	0.905294	0.632984	-0.301904
C38	C	0.863473	0.832459	-0.343737
C39	C	0.848198	0.881903	-0.286564
C40	C	0.905341	0.784115	-0.301913
C41	C	0.920633	0.881752	-0.359093
C42	C	0.905386	0.930100	-0.301926
C43	C	0.890037	0.832471	-0.244710
C44	C	0.962498	0.832317	-0.317277
C45	C	0.947245	0.881738	-0.260065
C46	C	0.905314	0.700016	-0.301906
C47	C	0.905413	1.014196	-0.301927
C48	C	1.068794	0.357451	-0.301916
C49	C	1.138436	0.357435	-0.301923
C50	C	0.905400	0.357439	-0.465321
C51	C	0.905413	0.357418	-0.534962
C52	C	0.905459	1.163781	-0.301922
C53	C	0.905435	1.081235	-0.301934
C54	C	0.945572	0.309792	-1.036770
C55	C	0.945567	0.309810	-0.971334
C56	C	0.905466	0.357319	-0.938601
C57	C	0.865379	0.404828	-0.971308
C58	C	0.865389	0.404814	-1.036742
C59	C	0.848997	0.363218	-0.834925
C60	C	0.848985	0.363227	-0.769492
C61	C	0.905434	0.357367	-0.736780
C62	C	0.961896	0.351482	-0.769509
C63	C	0.961907	0.351468	-0.834943
C64	C	0.905451	0.357340	-0.867648
C65	C	0.945517	0.309884	-0.633128
C66	C	0.945513	0.309908	-0.567691
C67	C	0.865319	0.404921	-0.567666
C68	C	0.865328	0.404902	-0.633102
C69	C	0.905427	0.357380	-0.665829
C70	C	0.905378	0.357480	-0.139110
C71	C	0.905487	0.357291	-0.069469
H72	H	0.263327	0.271411	-0.374742
Br73	Br	0.804386	0.796390	-0.402606
H74	H	0.978167	0.271188	-0.659776
Br75	Br	1.043009	0.795988	-0.338962
Br76	Br	0.810904	0.469411	-0.523249
Br77	Br	0.126887	0.245625	-0.396534
Br78	Br	0.684495	0.469354	-0.207259
Br79	Br	0.280855	0.469264	-0.207292
H80	H	0.346444	0.236103	-0.311052
Br81	Br	0.482955	0.199813	-0.313782
H82	H	0.832684	0.443578	-0.659726
Br83	Br	0.999973	0.245344	-0.926947
H84	H	0.799883	0.903699	-0.273581
H85	H	0.464933	0.478901	-0.292766
H86	H	0.933549	0.903400	-0.407444
Br87	Br	1.000017	0.245329	-1.081182
H88	H	1.007880	0.346679	-0.861588
Br89	Br	1.038512	0.343542	-0.725122
Br90	Br	1.006295	0.917577	-0.201060
H91	H	0.978160	0.271230	-0.541069
H92	H	0.144411	0.443494	-0.229102
H93	H	0.803011	0.368018	-0.742849
Br94	Br	0.772380	0.371162	-0.879314
H95	H	0.346228	0.478873	-0.292777
H96	H	0.548047	0.443580	-0.229073
H97	H	0.832729	0.443511	-0.944652
H98	H	0.832746	0.443494	-1.063366
H99	H	0.877064	0.810913	-0.196345
H100	H	0.666963	0.271507	-0.374716
H101	H	0.548257	0.271474	-0.374718
