data_functionalizedCrystal
_audit_creation_method	'MofGen! by Chris Wilmer'
_symmetry_space_group_name_H-M	'P1'
_symmetry_Int_Tables_number	1
_symmetry_cell_setting	triclinic
loop_
_symmetry_equiv_pos_as_xyz
  x,y,z
_cell_length_a	21.295417
_cell_length_b	19.077269
_cell_length_c	21.295411
_cell_angle_alpha	92.275197
_cell_angle_beta	89.978356
_cell_angle_gamma	87.733796
loop_
_atom_site_label
_atom_site_type_symbol
_atom_site_fract_x
_atom_site_fract_y
_atom_site_fract_z
Zn1	Zn	-0.289322	1.075941	-0.317219
Zn2	Zn	0.044012	1.409274	0.016114
Zn3	Zn	0.377345	1.742608	0.349447
Zn4	Zn	-0.394570	1.075832	-0.211949
Zn5	Zn	-0.061236	1.409165	0.121385
Zn6	Zn	0.272097	1.742499	0.454718
Zn7	Zn	-0.285095	0.958239	-0.216197
Zn8	Zn	0.048238	1.291572	0.117136
Zn9	Zn	0.381572	1.624905	0.450470
Zn10	Zn	-0.390329	0.958204	-0.321410
Zn11	Zn	-0.056995	1.291538	0.011923
Zn12	Zn	0.276338	1.624871	0.345256
O13	O	-0.339829	1.017054	-0.266694
O14	O	-0.006495	1.350387	0.066639
O15	O	0.326838	1.683721	0.399973
O16	O	-0.306827	1.174413	-0.299723
O17	O	0.026507	1.507746	0.033610
O18	O	0.359840	1.841080	0.366944
O19	O	-0.380054	1.060202	-0.124424
O20	O	-0.046720	1.393535	0.208909
O21	O	0.286613	1.726868	0.542243
O22	O	-0.197568	0.973912	-0.229622
O23	O	0.135765	1.307245	0.103711
O24	O	0.469098	1.640579	0.437045
O25	O	-0.384152	1.174333	-0.222381
O26	O	-0.050819	1.507666	0.110952
O27	O	0.282515	1.840999	0.444286
O28	O	-0.200674	1.060388	-0.303843
O29	O	0.132660	1.393721	0.029491
O30	O	0.465993	1.727054	0.362824
O31	O	-0.299623	0.973806	-0.127545
O32	O	0.033710	1.307140	0.205788
O33	O	0.367044	1.640473	0.539121
O34	O	-0.295511	0.859748	-0.233686
O35	O	0.037823	1.193081	0.099648
O36	O	0.371156	1.526414	0.432981
O37	O	-0.376924	0.973854	-0.408943
O38	O	-0.043591	1.307187	-0.075609
O39	O	0.289743	1.640520	0.257724
O40	O	-0.372825	0.859722	-0.310986
O41	O	-0.039492	1.193056	0.022348
O42	O	0.293841	1.526389	0.355681
O43	O	-0.302714	1.060354	-0.405864
O44	O	0.030619	1.393688	-0.072530
O45	O	0.363952	1.727021	0.260803
O46	O	-0.482094	1.060168	-0.226445
O47	O	-0.148761	1.393502	0.106888
O48	O	0.184572	1.726835	0.440222
O49	O	-0.478978	0.973748	-0.306866
O50	O	-0.145645	1.307081	0.026467
O51	O	0.187688	1.640415	0.359801
C52	C	-0.333250	0.834199	-0.273252
C53	C	0.000084	1.167532	0.060081
C54	C	0.333417	1.500865	0.393415
C55	C	-0.330450	0.755972	-0.276072
C56	C	0.002883	1.089306	0.057261
C57	C	0.336216	1.422639	0.390594
C58	C	-0.369329	0.719177	-0.237070
C59	C	-0.035995	1.052510	0.096264
C60	C	0.297338	1.385843	0.429597
C61	C	-0.366699	0.645675	-0.239728
C62	C	-0.033365	0.979008	0.093605
C63	C	0.299968	1.312341	0.426939
C64	C	-0.325186	0.608970	-0.281386
C65	C	0.008147	0.942303	0.051947
C66	C	0.341480	1.275636	0.385280
C67	C	-0.286306	0.645770	-0.320393
C68	C	0.047027	0.979104	0.012940
C69	C	0.380360	1.312437	0.346273
C70	C	-0.288940	0.719271	-0.317738
C71	C	0.044393	1.052604	0.015596
C72	C	0.377727	1.385938	0.348929
C73	C	-0.313002	0.389151	-0.293657
C74	C	0.020331	0.722484	0.039677
C75	C	0.353664	1.055818	0.373010
C76	C	-0.310370	0.315645	-0.296308
C77	C	0.022963	0.648979	0.037025
C78	C	0.356296	0.982312	0.370359
C79	C	-0.390764	0.315555	-0.215643
C80	C	-0.057430	0.648888	0.117690
C81	C	0.275903	0.982221	0.451023
C82	C	-0.393391	0.389057	-0.212989
C83	C	-0.060058	0.722390	0.120345
C84	C	0.273276	1.055723	0.453678
C85	C	-0.354513	0.425851	-0.251998
C86	C	-0.021180	0.759184	0.081336
C87	C	0.312153	1.092518	0.414669
N88	N	-0.322496	0.533839	-0.284103
N89	N	0.010838	0.867172	0.049230
N90	N	0.344171	1.200505	0.382563
N91	N	-0.357208	0.500980	-0.249284
N92	N	-0.023874	0.834314	0.084050
N93	N	0.309459	1.167647	0.417383
C94	C	-0.503377	1.016962	-0.266662
C95	C	-0.170044	1.350295	0.066671
C96	C	0.163290	1.683628	0.400004
C97	C	-0.573346	1.016987	-0.266668
C98	C	-0.240013	1.350320	0.066666
C99	C	0.093321	1.683653	0.399999
C100	C	-0.607816	1.062026	-0.224832
C101	C	-0.274482	1.395359	0.108501
C102	C	0.058851	1.728692	0.441835
C103	C	-0.673559	1.062059	-0.224845
C104	C	-0.340226	1.395392	0.108488
C105	C	-0.006893	1.728725	0.441822
C106	C	-0.704830	1.017040	-0.266687
C107	C	-0.371497	1.350373	0.066646
C108	C	-0.038164	1.683707	0.399979
C109	C	-0.670353	0.971998	-0.308531
C110	C	-0.337019	1.305331	0.024803
C111	C	-0.003686	1.638664	0.358136
C112	C	-0.604611	0.971971	-0.308521
C113	C	-0.271277	1.305304	0.024812
C114	C	0.062056	1.638638	0.358146
N115	N	-0.805886	0.955473	-0.273694
N116	N	-0.472553	1.288807	0.059639
N117	N	-0.139219	1.622140	0.392972
N118	N	-0.868338	0.955501	-0.273700
N119	N	-0.535005	1.288834	0.059633
N120	N	-0.201672	1.622168	0.392967
C121	C	-0.902908	1.017119	-0.266721
C122	C	-0.569575	1.350452	0.066613
C123	C	-0.236241	1.683786	0.399946
N124	N	-0.872666	1.078710	-0.259723
N125	N	-0.539333	1.412043	0.073610
N126	N	-0.205999	1.745376	0.406944
N127	N	-0.810208	1.078682	-0.259714
N128	N	-0.476874	1.412015	0.073619
N129	N	-0.143541	1.745348	0.406952
C130	C	-0.776117	1.017064	-0.266703
C131	C	-0.442783	1.350398	0.066630
C132	C	-0.109450	1.683731	0.399964
C133	C	-1.008665	1.062198	-0.224897
C134	C	-0.675331	1.395531	0.108436
C135	C	-0.341998	1.728864	0.441770
C136	C	-1.074409	1.062232	-0.224914
C137	C	-0.741076	1.395565	0.108419
C138	C	-0.407743	1.728898	0.441752
C139	C	-1.071201	0.972164	-0.308597
C140	C	-0.737868	1.305498	0.024736
C141	C	-0.404535	1.638831	0.358070
C142	C	-1.005458	0.972137	-0.308583
C143	C	-0.672125	1.305470	0.024751
C144	C	-0.338791	1.638803	0.358084
C145	C	-0.974193	1.017152	-0.266729
C146	C	-0.640860	1.350485	0.066604
C147	C	-0.307527	1.683819	0.399937
C148	C	-0.175642	1.017166	-0.266739
C149	C	0.157691	1.350499	0.066595
C150	C	0.491024	1.683832	0.399928
C151	C	-0.105676	1.017213	-0.266758
C152	C	0.227657	1.350547	0.066576
C153	C	0.560991	1.683880	0.399909
C154	C	-0.339818	1.017112	-0.430882
C155	C	-0.006484	1.350446	-0.097549
C156	C	0.326849	1.683779	0.235785
C157	C	-0.339813	1.017137	-0.500849
C158	C	-0.006479	1.350471	-0.167516
C159	C	0.326854	1.683804	0.165817
C160	C	-0.346434	1.200623	-0.260111
C161	C	-0.013101	1.533957	0.073223
C162	C	0.320233	1.867290	0.406556
C163	C	-0.349249	1.278850	-0.257305
C164	C	-0.015915	1.612183	0.076028
C165	C	0.317418	1.945516	0.409361
C166	C	-0.301170	1.062176	-0.532114
C167	C	0.032163	1.395510	-0.198780
C168	C	0.365497	1.728843	0.134553
C169	C	-0.301143	1.062175	-0.597856
C170	C	0.032191	1.395509	-0.264523
C171	C	0.365524	1.728842	0.068810
C172	C	-0.339770	1.017143	-0.632332
C173	C	-0.006436	1.350476	-0.298998
C174	C	0.326897	1.683809	0.034335
C175	C	-0.378415	0.972095	-0.601060
C176	C	-0.045082	1.305428	-0.267726
C177	C	0.288252	1.638762	0.065607
C178	C	-0.378436	0.972092	-0.535319
C179	C	-0.045103	1.305426	-0.201985
C180	C	0.288230	1.638759	0.131348
N181	N	-0.394642	1.011713	-0.735742
N182	N	-0.061309	1.345046	-0.402409
N183	N	0.272024	1.678379	-0.069076
N184	N	-0.394620	1.011719	-0.798194
N185	N	-0.061287	1.345053	-0.464860
N186	N	0.272046	1.678386	-0.131527
C187	C	-0.339706	1.017147	-0.830406
C188	C	-0.006373	1.350480	-0.497073
C189	C	0.326961	1.683814	-0.163740
N190	N	-0.284814	1.022582	-0.797808
N191	N	0.048519	1.355915	-0.464475
N192	N	0.381853	1.689248	-0.131142
N193	N	-0.284837	1.022579	-0.735351
N194	N	0.048496	1.355912	-0.402018
N195	N	0.381830	1.689245	-0.068684
C196	C	-0.339750	1.017140	-0.703617
C197	C	-0.006417	1.350474	-0.370284
C198	C	0.326916	1.683807	-0.036951
C199	C	-0.301030	1.062187	-0.932956
C200	C	0.032303	1.395521	-0.599623
C201	C	0.365636	1.728854	-0.266290
C202	C	-0.301002	1.062182	-0.998700
C203	C	0.032332	1.395515	-0.665367
C204	C	0.365665	1.728848	-0.332034
C205	C	-0.378280	0.972105	-1.001902
C206	C	-0.044946	1.305438	-0.668569
C207	C	0.288387	1.638772	-0.335236
C208	C	-0.378302	0.972107	-0.936160
C209	C	-0.044969	1.305441	-0.602826
C210	C	0.288364	1.638774	-0.269493
C211	C	-0.339679	1.017152	-0.901691
C212	C	-0.006345	1.350486	-0.568357
C213	C	0.326988	1.683819	-0.235024
C214	C	-0.339796	1.017036	-0.103143
C215	C	-0.006463	1.350370	0.230190
C216	C	0.326871	1.683703	0.563524
C217	C	-0.339628	1.017148	-0.033171
C218	C	-0.006295	1.350481	0.300162
C219	C	0.327038	1.683814	0.633495
H220	H	-0.281346	0.419100	-0.325421
H221	H	0.051987	0.752433	0.007912
H222	H	0.385321	1.085767	0.341245
H223	H	-0.257281	0.749229	-0.349497
H224	H	0.076053	1.082562	-0.016164
H225	H	0.409386	1.415896	0.317169
H226	H	-0.582362	1.098682	-0.190754
H227	H	-0.249029	1.432015	0.142579
H228	H	0.084305	1.765348	0.475912
O229	O	-0.259512	1.110758	-0.494937
O230	O	0.073821	1.444091	-0.161603
O231	O	0.407154	1.777425	0.171730
H232	H	-0.209669	1.098722	-0.507982
H233	H	0.123664	1.432055	-0.174649
H234	H	0.456997	1.765389	0.158684
H235	H	-0.409773	0.935436	-0.910704
H236	H	-0.076440	1.268769	-0.577371
H237	H	0.256893	1.602102	-0.244037
O238	O	-0.414102	0.758765	-0.192137
O239	O	-0.080769	1.092099	0.141196
O240	O	0.252565	1.425432	0.474530
H241	H	-0.440698	0.720827	-0.165467
H242	H	-0.107365	1.054161	0.167866
H243	H	0.225968	1.387494	0.501199
O244	O	-0.259468	1.110760	-0.631590
O245	O	0.073865	1.444094	-0.298256
O246	O	0.407198	1.777427	0.035077
H247	H	-0.232619	1.142085	-0.596576
H248	H	0.100715	1.475419	-0.263243
H249	H	0.434048	1.808752	0.070091
H250	H	-0.398358	0.615719	-0.207968
H251	H	-0.065024	0.949052	0.125365
H252	H	0.268309	1.282386	0.458699
O253	O	-0.265591	0.276051	-0.341238
O254	O	0.067742	0.609384	-0.007904
O255	O	0.401075	0.942718	0.325429
H256	H	-0.292613	0.242562	-0.374413
H257	H	0.040720	0.575895	-0.041080
H258	H	0.374053	0.909228	0.292253
H259	H	-0.576545	0.935294	-0.342589
H260	H	-0.243211	1.268627	-0.009256
H261	H	0.090122	1.601961	0.324078
H262	H	-0.427194	0.418937	-0.179065
H263	H	-0.093861	0.752270	0.154268
H264	H	0.239473	1.085604	0.487601
H265	H	-0.701630	1.098737	-0.190778
H266	H	-0.368297	1.432071	0.142556
H267	H	-0.034963	1.765404	0.475889
H268	H	-0.409863	0.935427	-0.629134
H269	H	-0.076530	1.268760	-0.295801
H270	H	0.256804	1.602094	0.037533
O271	O	-0.420102	0.923498	-0.501592
O272	O	-0.086769	1.256831	-0.168258
O273	O	0.246564	1.590164	0.165075
H274	H	-0.446954	0.892177	-0.536607
H275	H	-0.113621	1.225510	-0.203273
H276	H	0.219713	1.558843	0.130060
O277	O	-0.968280	0.923538	-0.353694
O278	O	-0.634947	1.256871	-0.020361
O279	O	-0.301613	1.590205	0.312973
H280	H	-0.981296	0.935574	-0.402680
H281	H	-0.647963	1.268907	-0.069347
H282	H	-0.314629	1.602240	0.263986
O283	O	-0.432698	0.275872	-0.173574
O284	O	-0.099365	0.609205	0.159760
O285	O	0.233968	0.942538	0.493093
H286	H	-0.423898	0.218595	-0.182420
H287	H	-0.090565	0.551929	0.150914
H288	H	0.242768	0.885262	0.484247
O289	O	-0.704075	0.923432	-0.353656
O290	O	-0.370741	1.256766	-0.020322
O291	O	-0.037408	1.590099	0.313011
H292	H	-0.755581	0.931009	-0.346628
H293	H	-0.422247	1.264343	-0.013295
H294	H	-0.088914	1.597676	0.320039
O295	O	-0.241526	0.606187	-0.365322
O296	O	0.091807	0.939520	-0.031989
O297	O	0.425141	1.272853	0.301345
H298	H	-0.246219	0.548895	-0.360610
H299	H	0.087115	0.882228	-0.027277
H300	H	0.420448	1.215561	0.306056
O301	O	-0.259322	1.110763	-1.032426
O302	O	0.074011	1.444096	-0.699093
O303	O	0.407344	1.777429	-0.365760
H304	H	-0.232475	1.142087	-0.997410
H305	H	0.100858	1.475421	-0.664077
H306	H	0.434191	1.808754	-0.330744
O307	O	-0.974936	1.110756	-0.179767
O308	O	-0.641603	1.444089	0.153567
O309	O	-0.308269	1.777422	0.486900
H310	H	-1.009953	1.142090	-0.150685
H311	H	-0.676620	1.475424	0.182649
H312	H	-0.343287	1.808757	0.515982
O313	O	-1.111593	1.110811	-0.179789
O314	O	-0.778259	1.444144	0.153545
O315	O	-0.444926	1.777477	0.486878
H316	H	-1.078805	1.142100	-0.150682
H317	H	-0.745471	1.475434	0.182652
H318	H	-0.412138	1.808767	0.515985
O319	O	-1.104918	0.923603	-0.353726
O320	O	-0.771585	1.256936	-0.020393
O321	O	-0.438252	1.590270	0.312940
H322	H	-1.156425	0.931184	-0.346703
H323	H	-0.823091	1.264517	-0.013369
H324	H	-0.489758	1.597850	0.319964
O325	O	-0.259368	1.110760	-0.895772
O326	O	0.073966	1.444093	-0.562438
O327	O	0.407299	1.777427	-0.229105
H328	H	-0.232483	1.142071	-0.928560
H329	H	0.100850	1.475404	-0.595227
H330	H	0.434184	1.808737	-0.261893
O331	O	-0.419943	0.923531	-1.039076
O332	O	-0.086610	1.256864	-0.705742
O333	O	0.246724	1.590198	-0.372409
H334	H	-0.413439	0.931101	-1.090043
H335	H	-0.080106	1.264434	-0.756710
H336	H	0.253228	1.597768	-0.423376
