data_functionalizedCrystal
_audit_creation_method	'MofGen! by Chris Wilmer'
_symmetry_space_group_name_H-M	'P1'
_symmetry_Int_Tables_number	1
_symmetry_cell_setting	triclinic
loop_
_symmetry_equiv_pos_as_xyz
  x,y,z
_cell_length_a	18.050590
_cell_length_b	18.050589
_cell_length_c	18.101389
_cell_angle_alpha	90.014016
_cell_angle_beta	90.003324
_cell_angle_gamma	90.017386
loop_
_atom_site_label
_atom_site_type_symbol
_atom_site_fract_x
_atom_site_fract_y
_atom_site_fract_z
Zn1	Zn	1.135322	-0.295952	0.418446
Zn2	Zn	1.635322	0.204048	0.918446
Zn3	Zn	1.135224	-0.420126	0.294614
Zn4	Zn	1.635224	0.079874	0.794614
Zn5	Zn	1.011133	-0.295931	0.294653
Zn6	Zn	1.511133	0.204069	0.794653
Zn7	Zn	1.011090	-0.420081	0.418448
Zn8	Zn	1.511090	0.079919	0.918448
O9	O	1.073192	-0.358023	0.356540
O10	O	1.573192	0.141977	0.856540
O11	O	1.239234	-0.312452	0.402003
O12	O	1.739234	0.187548	0.902003
O13	O	1.118740	-0.403662	0.190987
O14	O	1.618740	0.096338	0.690987
O15	O	1.027666	-0.192009	0.311090
O16	O	1.527666	0.307991	0.811090
O17	O	1.239162	-0.403682	0.311024
O18	O	1.739162	0.096318	0.811024
O19	O	1.118907	-0.192025	0.402040
O20	O	1.618907	0.307975	0.902040
O21	O	1.027571	-0.312416	0.191015
O22	O	1.527571	0.187584	0.691015
O23	O	0.907202	-0.312372	0.311092
O24	O	1.407202	0.187628	0.811092
O25	O	1.027592	-0.403605	0.522081
O26	O	1.527592	0.096395	1.022081
O27	O	0.907171	-0.403585	0.402044
O28	O	1.407171	0.096415	0.902044
O29	O	1.118866	-0.312408	0.522080
O30	O	1.618866	0.187592	1.022080
O31	O	1.118698	-0.524045	0.311026
O32	O	1.618698	-0.024045	0.811026
O33	O	1.027497	-0.524012	0.402006
O34	O	1.527497	-0.024012	0.902006
C35	C	0.880240	-0.357972	0.356572
C36	C	1.380240	0.142028	0.856572
C37	C	0.797694	-0.357968	0.356604
C38	C	1.297694	0.142032	0.856604
C39	C	0.598248	-0.407712	0.405946
C40	C	1.098248	0.092288	0.905946
C41	C	0.548856	-0.339998	0.424165
C42	C	1.048856	0.160002	0.924165
C43	C	0.646564	-0.358010	0.356567
C44	C	1.146564	0.141990	0.856567
C45	C	0.548874	-0.425762	0.338348
C46	C	1.048874	0.074238	0.838348
C47	C	0.500579	-0.358056	0.356534
C48	C	1.000579	0.141944	0.856534
C49	C	0.598259	-0.290260	0.374821
C50	C	1.098259	0.209740	0.874821
C51	C	0.598282	-0.376070	0.288973
C52	C	1.098282	0.123930	0.788973
C53	C	0.548912	-0.308309	0.307167
C54	C	1.048912	0.191691	0.807167
C55	C	0.730662	-0.357984	0.356589
C56	C	1.230662	0.142016	0.856589
C57	C	0.416482	-0.358074	0.356513
C58	C	0.916482	0.141926	0.856513
C59	C	1.073103	-0.550975	0.356528
C60	C	1.573103	-0.050975	0.856528
C61	C	1.073132	-0.633521	0.356548
C62	C	1.573132	-0.133521	0.856548
C63	C	1.023586	-0.832980	0.406005
C64	C	1.523586	-0.332980	0.906005
C65	C	1.005483	-0.882406	0.338433
C66	C	1.505483	-0.382406	0.838433
C67	C	1.073205	-0.784651	0.356557
C68	C	1.573205	-0.284651	0.856557
C69	C	1.091344	-0.882307	0.424137
C70	C	1.591344	-0.382307	0.924137
C71	C	1.073274	-0.930636	0.356573
C72	C	1.573274	-0.430636	0.856573
C73	C	1.055067	-0.832989	0.288949
C74	C	1.555067	-0.332989	0.788949
C75	C	1.140960	-0.832886	0.374699
C76	C	1.640960	-0.332886	0.874699
C77	C	1.122883	-0.882290	0.307080
C78	C	1.622883	-0.382290	0.807080
C79	C	1.073163	-0.700553	0.356550
C80	C	1.573163	-0.200553	0.856550
C81	C	1.073316	-1.014733	0.356573
C82	C	1.573316	-0.514733	0.856573
C83	C	1.266898	-0.358074	0.356509
C84	C	1.766898	0.141926	0.856509
C85	C	1.349444	-0.358096	0.356495
C86	C	1.849444	0.141904	0.856495
C87	C	1.073235	-0.358004	0.549702
C88	C	1.573235	0.141996	1.049702
C89	C	1.073253	-0.357996	0.632017
C90	C	1.573253	0.142004	1.132017
C91	C	1.073302	-0.164317	0.356569
C92	C	1.573302	0.335683	0.856569
C93	C	1.073349	-0.081771	0.356581
C94	C	1.573349	0.418229	0.856581
C95	C	1.073192	-0.357988	0.164130
C96	C	1.573192	0.142012	0.664130
C97	C	1.073318	-0.357787	0.081816
C98	C	1.573318	0.142213	0.581816
C99	C	1.073297	-0.357857	0.931108
C100	C	1.573297	0.142143	1.431108
C101	C	1.015672	-0.415053	0.899783
C102	C	1.515672	0.084947	1.399783
C103	C	1.015828	-0.415318	0.814165
C104	C	1.515828	0.084682	1.314165
C105	C	1.073275	-0.357926	0.782725
C106	C	1.573275	0.142074	1.282725
C107	C	1.151521	-0.379184	0.813804
C108	C	1.651521	0.120816	1.313804
C109	C	1.151200	-0.379560	0.899449
C110	C	1.651200	0.120440	1.399449
C111	C	1.053355	-0.279275	0.899533
C112	C	1.553355	0.220725	1.399533
C113	C	1.051614	-0.279729	0.813883
C114	C	1.551614	0.220271	1.313883
C115	C	1.073267	-0.357964	0.698866
C116	C	1.573267	0.142036	1.198866
C117	C	1.073310	-0.357821	1.014967
C118	C	1.573310	0.142179	1.514967
H119	H	0.948218	-0.904174	0.323103
H120	H	1.448218	-0.404174	0.823103
H121	H	1.028707	-0.472945	0.921309
H122	H	1.528707	0.027055	1.421309
H123	H	1.095326	-0.236661	0.919791
H124	H	1.595326	0.263339	1.419791
H125	H	1.195608	-0.338835	0.793439
H126	H	1.695608	0.161165	1.293439
N127	N	1.034688	-0.804419	0.213233
N128	N	1.534688	-0.304419	0.713233
H129	H	1.025509	-0.847609	0.178947
H130	H	1.525509	-0.347609	0.678947
H131	H	1.076590	-0.773193	0.193286
H132	H	1.576590	-0.273193	0.693286
N133	N	0.520393	-0.252596	0.251840
N134	N	1.020393	0.247404	0.751840
H135	H	0.464442	-0.253219	0.251822
H136	H	0.964442	0.246781	0.751822
H137	H	0.539222	-0.265792	0.200973
H138	H	1.039222	0.234208	0.700973
H139	H	0.619913	-0.449669	0.447750
H140	H	1.119913	0.050331	0.947750
H141	H	0.620008	-0.391351	0.231841
H142	H	1.120008	0.108649	0.731841
N143	N	0.520139	-0.501630	0.317946
N144	N	1.020139	-0.001630	0.817946
H145	H	0.538088	-0.539113	0.355293
H146	H	1.038088	-0.039113	0.855293
H147	H	0.538900	-0.515571	0.267252
H148	H	1.038900	-0.015571	0.767252
N149	N	1.178509	-0.910791	0.251642
N150	N	1.678509	-0.410791	0.751642
H151	H	1.164739	-0.892754	0.200645
H152	H	1.664739	-0.392754	0.700645
H153	H	1.178517	-0.966739	0.252315
H154	H	1.678517	-0.466739	0.752315
N155	N	0.520091	-0.319786	0.499861
N156	N	1.020091	0.180214	0.999861
H157	H	0.464142	-0.319482	0.499161
H158	H	0.964142	0.180518	0.999161
H159	H	0.538879	-0.269005	0.513954
H160	H	1.038879	0.230995	1.013954
H161	H	0.994032	-0.263697	0.793571
H162	H	1.494032	0.236303	1.293571
N163	N	1.210007	-0.326789	0.926904
N164	N	1.710007	0.173211	1.426904
H165	H	1.236025	-0.303388	0.883369
H166	H	1.736025	0.196612	1.383369
H167	H	1.247156	-0.354850	0.957836
H168	H	1.747156	0.145150	1.457836
H169	H	0.619861	-0.232965	0.390282
H170	H	1.119861	0.267035	0.890282
H171	H	0.981563	-0.811328	0.447763
H172	H	1.481563	-0.311328	0.947763
N173	N	1.173585	-0.455648	0.925930
N174	N	1.673585	0.044352	1.425930
H175	H	1.224876	-0.467664	0.907132
H176	H	1.724876	0.032336	1.407132
H177	H	1.137232	-0.493561	0.906673
H178	H	1.637232	0.006439	1.406673
H179	H	1.168718	-0.436019	0.792360
H180	H	1.668718	0.063981	1.292360
H181	H	1.198212	-0.811120	0.390062
H182	H	1.698212	-0.311120	0.890062
H183	H	1.106659	-0.903970	0.481283
H184	H	1.606659	-0.403970	0.981283
H185	H	0.997290	-0.259910	0.921138
H186	H	1.497290	0.240090	1.421138
H187	H	0.957806	-0.402014	0.793153
H188	H	1.457806	0.097986	1.293153
N189	N	0.938576	-0.397603	0.927056
N190	N	1.438576	0.102397	1.427056
H191	H	0.940252	-0.352455	0.959985
H192	H	1.440252	0.147545	1.459985
H193	H	0.918767	-0.441191	0.955925
H194	H	1.418767	0.058809	1.455925
N195	N	1.033263	-0.492472	0.787024
N196	N	1.533263	0.007528	1.287024
H197	H	1.040885	-0.526440	0.830697
H198	H	1.540885	-0.026440	1.330697
H199	H	1.079834	-0.491208	0.756128
H200	H	1.579834	0.008792	1.256128
N201	N	1.103149	-0.220277	0.785540
N202	N	1.603149	0.279723	1.285540
H203	H	1.141441	-0.243294	0.751952
H204	H	1.641441	0.256706	1.251952
H205	H	1.128720	-0.195564	0.828627
H206	H	1.628720	0.304436	1.328627
