data_functionalizedCrystal
_audit_creation_method	'MofGen! by Chris Wilmer'
_symmetry_space_group_name_H-M	'P1'
_symmetry_Int_Tables_number	1
_symmetry_cell_setting	triclinic
loop_
_symmetry_equiv_pos_as_xyz
  x,y,z
_cell_length_a	15.995300
_cell_length_b	16.974959
_cell_length_c	15.455313
_cell_angle_alpha	96.307475
_cell_angle_beta	87.317650
_cell_angle_gamma	83.437889
loop_
_atom_site_label
_atom_site_type_symbol
_atom_site_fract_x
_atom_site_fract_y
_atom_site_fract_z
O1	O	1.114226	0.098598	-0.065251
O2	O	0.870385	0.111267	-0.064357
O3	O	0.999506	-0.010556	-0.072895
O4	O	0.985105	0.220422	-0.056714
O5	O	0.992122	-0.003619	0.071854
O6	O	0.863002	0.118205	0.080391
O7	O	1.106842	0.105535	0.079497
Cu8	Cu	0.984248	0.112504	0.093161
Cu9	Cu	0.992980	0.104299	-0.078021
O10	O	0.977722	0.227359	0.088035
C11	C	0.835500	0.114220	0.007981
C12	C	0.742555	0.112670	0.007875
C13	C	0.995400	-0.036644	-0.002593
C14	C	0.994157	-0.124714	-0.008768
C15	C	0.572386	0.109809	0.007668
C16	C	0.524517	0.196550	0.013746
C17	C	0.427853	0.194952	0.013305
C18	C	0.404842	0.106993	0.007465
C19	C	0.450383	0.060004	-0.078045
C20	C	0.547009	0.062196	-0.077959
C21	C	0.538898	0.068801	0.086563
C22	C	0.441898	0.068861	0.087646
C23	C	0.310155	0.105397	0.007347
C24	C	0.667074	0.111403	0.007779
C25	C	1.141727	0.102583	0.007157
C26	C	1.234673	0.104132	0.007258
C27	C	0.987675	-0.620874	-0.052092
C28	C	0.988834	-0.538121	-0.046272
C29	C	0.985382	-0.492978	0.035540
C30	C	0.980779	-0.530594	0.111538
C31	C	0.979627	-0.613346	0.105717
C32	C	0.988402	-0.245082	0.061409
C33	C	0.989553	-0.162324	0.067224
C34	C	0.997609	-0.169857	-0.090587
C35	C	0.996451	-0.252610	-0.096400
C36	C	0.991853	-0.290219	-0.020403
N37	N	0.986563	-0.408391	0.041491
N38	N	0.990677	-0.374805	-0.026354
N39	N	0.978112	0.118274	0.213561
C40	C	0.981827	0.253447	0.017731
C41	C	0.983070	0.341517	0.023900
N42	N	0.999122	0.098523	-0.198421
C43	C	1.032986	0.066538	0.255329
C44	C	1.028354	0.070909	0.346444
C45	C	0.968851	0.127021	0.395788
C46	C	0.913972	0.178759	0.354013
C47	C	0.918601	0.174383	0.262900
C48	C	0.948871	0.145885	0.668691
C49	C	0.944248	0.150259	0.759810
C50	C	1.058630	0.042407	0.752234
C51	C	1.063257	0.038040	0.661120
C52	C	1.008374	0.089775	0.619353
N53	N	0.964117	0.131492	0.488921
N54	N	1.013105	0.085300	0.526221
H55	H	0.396217	0.231601	0.074796
H56	H	0.992585	-0.507503	-0.108153
H57	H	1.001353	-0.139227	-0.152459
N58	N	0.999972	-0.298707	-0.179977
N59	N	1.004081	-0.265116	-0.247822
H60	H	1.006564	-0.297671	-0.306850
N61	N	1.093732	0.009207	0.204900
N62	N	1.069937	-0.042468	0.150626
H63	H	1.112829	-0.082962	0.115000
N64	N	0.396509	0.233597	-0.058358
N65	N	0.319579	0.239131	-0.071140
H66	H	0.297441	0.266423	-0.121756
H67	H	0.436728	-0.004774	-0.085410
H68	H	0.984659	-0.275693	0.123292
N69	N	1.124168	-0.019219	0.610819
N70	N	1.123010	-0.092080	0.615868
H71	H	1.166082	-0.132492	0.580376
H72	H	0.865519	0.224444	0.394194
H73	H	0.539829	0.234244	0.075337
N74	N	0.560422	0.108397	0.167541
N75	N	0.503607	0.138939	0.223482
H76	H	0.518807	0.166911	0.280670
H77	H	0.977974	-0.493833	0.178151
H78	H	0.975876	-0.643966	0.167598
H79	H	0.873916	0.216511	0.228893
H80	H	0.570935	0.004886	0.082876
N81	N	0.588102	-0.017915	-0.087954
N82	N	0.573068	-0.063965	-0.032913
H83	H	0.602089	-0.120542	-0.039974
H84	H	0.546979	0.228059	-0.042917
H85	H	1.073036	0.028781	0.380451
H86	H	0.568342	0.090244	-0.137686
H87	H	1.103311	0.000286	0.786250
H88	H	0.895791	0.195955	0.799983
H89	H	0.986716	-0.125568	0.133849
H90	H	0.904185	0.188012	0.634692
H91	H	0.411299	0.103213	0.150878
N92	N	0.418568	0.093338	-0.152753
N93	N	0.362378	0.151681	-0.143235
H94	H	0.339908	0.175228	-0.195995
N95	N	0.422681	-0.011282	0.088577
N96	N	0.347606	-0.025148	0.092883
H97	H	0.334033	-0.081752	0.093534
N98	N	0.991193	-0.666969	-0.135669
N99	N	0.995304	-0.633374	-0.203512
H100	H	0.997790	-0.665927	-0.262542
