data_functionalizedCrystal
_audit_creation_method	'MofGen! by Chris Wilmer'
_symmetry_space_group_name_H-M	'P1'
_symmetry_Int_Tables_number	1
_symmetry_cell_setting	triclinic
loop_
_symmetry_equiv_pos_as_xyz
  x,y,z
_cell_length_a	16.120530
_cell_length_b	12.594516
_cell_length_c	16.120297
_cell_angle_alpha	87.122232
_cell_angle_beta	89.871860
_cell_angle_gamma	87.111852
loop_
_atom_site_label
_atom_site_type_symbol
_atom_site_fract_x
_atom_site_fract_y
_atom_site_fract_z
Zn1	Zn	1.247493	-0.539249	0.534603
Zn2	Zn	1.747493	-0.039249	1.034603
Zn3	Zn	1.254461	-0.708692	0.395557
Zn4	Zn	1.754461	-0.208692	0.895557
Zn5	Zn	1.115482	-0.521263	0.388519
Zn6	Zn	1.615482	-0.021263	0.888519
Zn7	Zn	1.108417	-0.707712	0.527526
Zn8	Zn	1.608417	-0.207712	1.027526
O9	O	1.181463	-0.619229	0.461551
O10	O	1.681463	-0.119229	0.961551
O11	O	1.364785	-0.569664	0.522065
O12	O	1.864785	-0.069664	1.022065
O13	O	1.241897	-0.676712	0.278258
O14	O	1.741897	-0.176712	0.778258
O15	O	1.133034	-0.374707	0.407914
O16	O	1.633034	0.125293	0.907914
O17	O	1.369904	-0.694153	0.419909
O18	O	1.869904	-0.194153	0.919909
O19	O	1.230022	-0.387921	0.515241
O20	O	1.730022	0.112079	1.015241
O21	O	1.139790	-0.539009	0.273087
O22	O	1.639790	-0.039009	0.773087
O23	O	0.998178	-0.538058	0.401052
O24	O	1.498178	-0.038058	0.901052
O25	O	1.120993	-0.692482	0.644831
O26	O	1.620993	-0.192482	1.144831
O27	O	0.992987	-0.675042	0.503180
O28	O	1.492987	-0.175042	1.003180
O29	O	1.223172	-0.568713	0.650030
O30	O	1.723172	-0.068713	1.150030
O31	O	1.235047	-0.857504	0.413047
O32	O	1.735047	-0.357504	0.913047
O33	O	1.127749	-0.856784	0.510004
O34	O	1.627749	-0.356784	1.010004
C35	C	0.965410	-0.604493	0.450585
C36	C	1.465410	-0.104493	0.950585
C37	C	0.872980	-0.598215	0.445913
C38	C	1.372980	-0.098215	0.945913
C39	C	0.703749	-0.586730	0.437391
C40	C	1.203749	-0.086730	0.937391
C41	C	0.660015	-0.651810	0.485772
C42	C	1.160015	-0.151810	0.985772
C43	C	0.565849	-0.645420	0.481031
C44	C	1.065849	-0.145420	0.981031
C45	C	0.797924	-0.593119	0.442132
C46	C	1.297924	-0.093119	0.942132
C47	C	1.181409	-0.895766	0.461540
C48	C	1.681409	-0.395766	0.961540
C49	C	1.181461	-1.014076	0.461567
C50	C	1.681461	-0.514076	0.961567
C51	C	1.123098	-1.082974	0.514263
C52	C	1.623098	-0.582974	1.014263
C53	C	1.106686	-1.147787	0.437359
C54	C	1.606686	-0.647787	0.937359
C55	C	1.197948	-1.160068	0.538488
C56	C	1.697948	-0.660068	1.038488
C57	C	1.165010	-1.077326	0.384621
C58	C	1.665010	-0.577326	0.884621
C59	C	1.256305	-1.089606	0.485803
C60	C	1.756305	-0.589606	0.985803
C61	C	1.239924	-1.154387	0.408848
C62	C	1.739924	-0.654387	0.908848
C63	C	1.398360	-0.634024	0.472561
C64	C	1.898360	-0.134024	0.972561
C65	C	1.490789	-0.640328	0.477253
C66	C	1.990789	-0.140328	0.977253
C67	C	1.170517	-0.632495	0.678446
C68	C	1.670517	-0.132495	1.178446
C69	C	1.165853	-0.638148	0.770874
C70	C	1.665853	-0.138148	1.270874
C71	C	1.181539	-0.341615	0.461582
C72	C	1.681539	0.158385	0.961582
C73	C	1.181572	-0.223313	0.461595
C74	C	1.681572	0.276687	0.961595
C75	C	1.192414	-0.605942	0.245502
C76	C	1.692414	-0.105942	0.745502
C77	C	1.197240	-0.600000	0.153083
C78	C	1.697240	-0.100000	0.653083
C79	C	1.157306	-0.648443	0.940100
C80	C	1.657306	-0.148443	1.440100
C81	C	1.205784	-0.589708	0.983863
C82	C	1.705784	-0.089708	1.483863
C83	C	1.201029	-0.595436	1.078026
C84	C	1.701029	-0.095436	1.578026
C85	C	1.162061	-0.642716	0.845928
C86	C	1.662061	-0.142716	1.345928
H87	H	1.073662	-1.051620	0.558754
H88	H	1.573662	-0.551620	1.058754
C89	C	1.103482	-0.713621	1.070927
C90	C	1.603482	-0.213621	1.570927
C91	C	1.096466	-0.722139	0.984981
C92	C	1.596466	-0.222139	1.484981
H93	H	1.065928	-0.759125	1.098640
H94	H	1.565928	-0.259125	1.598640
H95	H	1.090623	-0.642132	1.084486
H96	H	1.590623	-0.142132	1.584486
H97	H	1.158654	-0.733847	1.087942
H98	H	1.658654	-0.233847	1.587942
H99	H	1.041296	-0.701906	0.967965
H100	H	1.541296	-0.201906	1.467965
H101	H	1.109320	-0.793644	0.971416
H102	H	1.609320	-0.293644	1.471416
H103	H	1.250858	-0.535120	0.950612
H104	H	1.750858	-0.035120	1.450612
C105	C	0.679885	-0.714360	0.627847
C106	C	1.179885	-0.214360	1.127847
C107	C	0.704932	-0.733514	0.546494
C108	C	1.204932	-0.233514	1.046494
H109	H	0.707622	-0.764798	0.665329
H110	H	1.207622	-0.264798	1.165329
H111	H	0.621586	-0.720731	0.632581
H112	H	1.121586	-0.220731	1.132581
H113	H	0.693474	-0.644565	0.640807
H114	H	1.193474	-0.144565	1.140807
H115	H	0.691337	-0.803308	0.533532
H116	H	1.191337	-0.303308	1.033532
H117	H	0.763243	-0.727153	0.541757
H118	H	1.263243	-0.227153	1.041757
C119	C	0.572891	-0.514456	0.383664
C120	C	1.072891	-0.014456	0.883664
C121	C	0.658832	-0.505044	0.376665
C122	C	1.158832	-0.005044	0.876665
H123	H	0.545155	-0.464033	0.346169
H124	H	1.045155	0.035967	0.846169
H125	H	0.555911	-0.501458	0.438850
H126	H	1.055911	-0.001458	0.938850
H127	H	0.559322	-0.584259	0.370705
H128	H	1.059322	-0.084259	0.870705
H129	H	0.672401	-0.435242	0.389629
H130	H	1.172401	0.064758	0.889629
H131	H	0.675818	-0.518034	0.321466
H132	H	1.175818	-0.018034	0.821466
C133	C	1.289209	-1.154257	0.268181
C134	C	1.789209	-0.654257	0.768181
C135	C	1.306618	-1.196449	0.348637
C136	C	1.806618	-0.696449	0.848637
H137	H	1.330379	-1.180233	0.231009
H138	H	1.830379	-0.680233	0.731009
H139	H	1.289227	-1.078805	0.267516
H140	H	1.789227	-0.578805	0.767516
H141	H	1.236219	-1.175136	0.251451
H142	H	1.736219	-0.675136	0.751451
H143	H	1.359607	-1.175563	0.365370
H144	H	1.859607	-0.675563	0.865370
H145	H	1.306609	-1.271918	0.349305
H146	H	1.806609	-0.771918	0.849305
H147	H	1.151036	-1.041305	0.319560
H148	H	1.651036	-0.541305	0.819560
C149	C	0.960224	-1.146534	0.464946
C150	C	1.460224	-0.646534	0.964946
C151	C	1.021309	-1.182578	0.409694
C152	C	1.521309	-0.682578	0.909694
H153	H	0.907517	-1.168017	0.447872
H154	H	1.407517	-0.668017	0.947872
H155	H	0.959417	-1.071092	0.465221
H156	H	1.459417	-0.571092	0.965221
H157	H	0.972307	-1.176066	0.519215
H158	H	1.472307	-0.676066	1.019215
H159	H	1.009230	-1.153040	0.355426
H160	H	1.509230	-0.653040	0.855426
H161	H	1.022114	-1.258035	0.409410
H162	H	1.522114	-0.758035	0.909410
H163	H	1.319532	-1.063819	0.506317
H164	H	1.819532	-0.563819	1.006317
H165	H	1.211849	-1.196211	0.603528
H166	H	1.711849	-0.696211	1.103528
