data_functionalizedCrystal
_audit_creation_method	'MofGen! by Chris Wilmer'
_symmetry_space_group_name_H-M	'P1'
_symmetry_Int_Tables_number	1
_symmetry_cell_setting	triclinic
loop_
_symmetry_equiv_pos_as_xyz
  x,y,z
_cell_length_a	12.811453
_cell_length_b	19.288865
_cell_length_c	18.366186
_cell_angle_alpha	90.011479
_cell_angle_beta	95.440799
_cell_angle_gamma	83.592491
loop_
_atom_site_label
_atom_site_type_symbol
_atom_site_fract_x
_atom_site_fract_y
_atom_site_fract_z
O1	O	-1.392249	-0.093578	-0.152490
O2	O	-0.892249	0.406422	0.347510
O3	O	-1.086614	-0.103746	-0.132311
O4	O	-0.586614	0.396254	0.367689
O5	O	-1.248263	0.002424	-0.142969
O6	O	-0.748263	0.502424	0.357031
O7	O	-1.230600	-0.199748	-0.141832
O8	O	-0.730600	0.300252	0.358168
O9	O	-1.248236	0.002430	-0.021868
O10	O	-0.748236	0.502430	0.478132
O11	O	-1.086587	-0.103740	-0.011210
O12	O	-0.586587	0.396260	0.488790
O13	O	-1.392221	-0.093573	-0.031389
O14	O	-0.892221	0.406427	0.468611
Zn15	Zn	-1.239400	-0.098656	-0.002072
Zn16	Zn	-0.739400	0.401344	0.497928
Zn17	Zn	-1.239436	-0.098663	-0.161628
Zn18	Zn	-0.739436	0.401337	0.338372
O19	O	-1.230573	-0.199743	-0.020731
O20	O	-0.730573	0.300257	0.479269
C21	C	-1.047499	-0.103172	-0.069179
C22	C	-0.547499	0.396828	0.430821
C23	C	-0.930988	-0.101464	-0.061486
C24	C	-0.430988	0.398536	0.438514
C25	C	-0.712077	-0.098271	-0.179068
C26	C	-0.212077	0.401729	0.320932
C27	C	-0.602605	-0.096666	-0.171843
C28	C	-0.102605	0.403334	0.328157
C29	C	-0.602569	-0.096652	-0.039811
C30	C	-0.102569	0.403348	0.460189
C31	C	-0.712041	-0.098258	-0.047036
C32	C	-0.212041	0.401742	0.452964
C33	C	-0.766792	-0.099066	-0.116667
C34	C	-0.266792	0.400934	0.383333
C35	C	-0.876267	-0.100667	-0.123891
C36	C	-0.376267	0.399333	0.376109
C37	C	-0.876227	-0.100658	0.008140
C38	C	-0.376227	0.399342	0.508140
C39	C	-0.766755	-0.099052	0.015365
C40	C	-0.266755	0.400948	0.515365
C41	C	-0.431337	-0.094146	-0.094522
C42	C	0.068663	0.405854	0.405478
C43	C	-0.547847	-0.095855	-0.102217
C44	C	-0.047847	0.404145	0.397783
C45	C	-1.247681	0.028306	-0.082379
C46	C	-0.747681	0.528306	0.417621
C47	C	-1.245975	0.105418	-0.082260
C48	C	-0.745975	0.605418	0.417740
C49	C	-1.231155	-0.225625	-0.081323
C50	C	-0.731155	0.274375	0.418677
C51	C	-1.232861	-0.302737	-0.081447
C52	C	-0.732861	0.197263	0.418553
N53	N	-1.239383	-0.098651	0.106820
N54	N	-0.739383	0.401349	0.606820
C55	C	-1.340823	0.149642	-0.088519
C56	C	-0.840823	0.649642	0.411481
C57	C	-1.339220	0.222098	-0.088424
C58	C	-0.839220	0.722098	0.411576
C59	C	-1.242764	0.250325	-0.082056
C60	C	-0.742764	0.750325	0.417944
C61	C	-1.147903	0.206091	-0.075801
C62	C	-0.647903	0.706091	0.424199
C63	C	-1.149509	0.133638	-0.075903
C64	C	-0.649509	0.633638	0.424097
C65	C	-1.166928	0.358992	-0.034631
C66	C	-0.666928	0.858992	0.465369
C67	C	-1.165327	0.431444	-0.034525
C68	C	-0.665327	0.931444	0.465475
C69	C	-1.237808	0.473795	-0.081745
C70	C	-0.737808	0.973795	0.418255
C71	C	-1.311909	0.443687	-0.129064
C72	C	-0.811909	0.943687	0.370936
C73	C	-1.313514	0.371233	-0.129166
C74	C	-0.813514	0.871233	0.370834
C75	C	-1.241012	0.328888	-0.081946
C76	C	-0.741012	0.828888	0.418054
C77	C	-1.330925	0.596584	-0.087903
C78	C	-0.830925	1.096584	0.412097
C79	C	-1.329318	0.669040	-0.087813
C80	C	-0.829318	1.169040	0.412187
C81	C	-1.137998	0.653032	-0.075183
C82	C	-0.637998	1.153032	0.424817
C83	C	-1.139608	0.580578	-0.075280
C84	C	-0.639608	1.080578	0.424720
C85	C	-1.236074	0.552358	-0.081637
C86	C	-0.736074	1.052358	0.418363
N87	N	-1.239461	-0.098663	-0.270521
N88	N	-0.739461	0.401337	0.229479
C89	C	-1.310984	-0.051662	0.140200
C90	C	-0.810984	0.448338	0.640200
C91	C	-1.310991	-0.051659	0.216427
C92	C	-0.810991	0.448341	0.716427
C93	C	-1.239406	-0.098656	0.259271
C94	C	-0.739406	0.401344	0.759271
C95	C	-1.167791	-0.145649	0.225884
C96	C	-0.667791	0.354351	0.725884
C97	C	-1.167780	-0.145646	0.149658
C98	C	-0.667780	0.354354	0.649658
C99	C	-1.225356	-0.161874	0.380950
C100	C	-0.725356	0.338126	0.880950
C101	C	-1.225375	-0.161878	0.457174
C102	C	-0.725375	0.338122	0.957174
C103	C	-1.239436	-0.098665	0.494377
C104	C	-0.739436	0.401335	0.994377
C105	C	-1.253501	-0.035446	0.455345
C106	C	-0.753501	0.464554	0.955345
C107	C	-1.253489	-0.035443	0.379120
C108	C	-0.753489	0.464557	0.879120
C109	C	-1.239410	-0.098665	0.341926
C110	C	-0.739410	0.401335	0.841926
C111	C	-1.311048	-0.051669	0.610411
C112	C	-0.811048	0.448331	1.110411
C113	C	-1.311048	-0.051665	0.686640
C114	C	-0.811048	0.448335	1.186640
C115	C	-1.167853	-0.145661	0.696095
C116	C	-0.667853	0.354339	1.196095
C117	C	-1.167849	-0.145659	0.619867
C118	C	-0.667849	0.354341	1.119867
C119	C	-1.239452	-0.098664	0.577029
C120	C	-0.739452	0.401336	1.077029
H121	H	-0.558061	-0.096020	-0.222656
H122	H	-0.058061	0.403980	0.277344
C123	C	-1.389803	0.000032	0.563287
C124	C	-0.889803	0.500032	1.063287
N125	N	-1.449120	0.038976	0.527796
N126	N	-0.949120	0.538976	1.027796
H127	H	-1.406558	0.705048	-0.092914
H128	H	-0.906558	1.205048	0.407086
C129	C	-1.389802	0.000041	0.723358
C130	C	-0.889802	0.500041	1.223358
N131	N	-1.449116	0.038990	0.751014
N132	N	-0.949116	0.538990	1.251014
H133	H	-0.722162	-0.098397	0.072056
H134	H	-0.222162	0.401603	0.572056
C135	C	-1.087192	0.312412	0.017322
C136	C	-0.587192	0.812412	0.517322
N137	N	-1.027138	0.277330	0.056453
N138	N	-0.527138	0.777330	0.556453
C139	C	-1.209893	-0.231420	0.500102
C140	C	-0.709893	0.268580	1.000102
N141	N	-1.198226	-0.283801	0.532435
N142	N	-0.698226	0.216199	1.032435
H143	H	-0.920788	-0.101304	0.058951
H144	H	-0.420788	0.398696	0.558951
H145	H	-1.059462	0.676014	-0.070001
H146	H	-0.559462	1.176014	0.429999
C147	C	-1.035266	0.531929	-0.068391
C148	C	-0.535266	1.031929	0.431609
N149	N	-0.956671	0.495287	-0.063205
N150	N	-0.456671	0.995287	0.436795
C151	C	-1.437038	0.565540	-0.094907
C152	C	-0.937038	1.065540	0.405093
N153	N	-1.516964	0.542160	-0.100185
N154	N	-1.016964	1.042160	0.399815
H155	H	-0.557971	-0.096000	0.016879
H156	H	-0.057971	0.404000	0.516879
C157	C	-1.209887	-0.231418	0.340035
C158	C	-0.709887	0.268582	0.840035
N159	N	-1.198236	-0.283797	0.309218
N160	N	-0.698236	0.216203	0.809218
C161	C	-1.446939	0.118606	-0.095518
C162	C	-0.946939	0.618606	0.404482
N163	N	-1.526866	0.095227	-0.100791
N164	N	-1.026866	0.595227	0.399209
C165	C	-1.041801	0.237143	-0.068791
C166	C	-0.541801	0.737143	0.431209
N167	N	-0.961882	0.260531	-0.063511
N168	N	-0.461882	0.760531	0.436489
H169	H	-1.370929	0.478168	-0.167516
H170	H	-0.870929	0.978168	0.332484
C171	C	-1.443564	0.270753	-0.095305
C172	C	-0.943564	0.770753	0.404695
N173	N	-1.522157	0.307399	-0.100485
N174	N	-1.022157	0.807399	0.399515
C175	C	-1.395015	0.338116	-0.181220
C176	C	-0.895015	0.838116	0.318780
N177	N	-1.456400	0.313171	-0.220431
N178	N	-0.956400	0.813171	0.279569
C179	C	-1.089110	-0.197360	0.743219
C180	C	-0.589110	0.302640	1.243219
N181	N	-1.029797	-0.236301	0.778717
N182	N	-0.529797	0.263699	1.278717
C183	C	-1.089156	-0.197402	0.583144
C184	C	-0.589156	0.302598	1.083144
N185	N	-1.029905	-0.236393	0.555482
N186	N	-0.529905	0.263607	1.055482
H187	H	-1.109472	-0.183911	0.122480
H188	H	-0.609472	0.316089	0.622480
H189	H	-1.104985	0.455953	0.004000
H190	H	-0.604985	0.955953	0.504000
H191	H	-0.920843	-0.101324	-0.180588
H192	H	-0.420843	0.398676	0.319412
C193	C	-1.089043	-0.197344	0.273014
C194	C	-0.589043	0.302656	0.773014
N195	N	-1.029724	-0.236279	0.308513
N196	N	-0.529724	0.263721	0.808513
H197	H	-1.072270	0.097630	-0.070806
H198	H	-0.572270	0.597630	0.429194
H199	H	-1.369285	-0.013394	0.105323
H200	H	-0.869285	0.486606	0.605323
C201	C	-0.772306	-0.099157	-0.255661
C202	C	-0.272306	0.400843	0.244339
N203	N	-0.817669	-0.099826	-0.313353
N204	N	-0.317669	0.400174	0.186647
C205	C	-1.389771	0.000028	0.253152
C206	C	-0.889771	0.500028	0.753152
N207	N	-1.449113	0.038955	0.280810
N208	N	-0.949113	0.538955	0.780810
C209	C	-1.268946	0.034097	0.336189
C210	C	-0.768946	0.534097	0.836189
N211	N	-1.280582	0.086476	0.303854
N212	N	-0.780582	0.586476	0.803854
C213	C	-1.268966	0.034094	0.496263
C214	C	-0.768966	0.534094	0.996263
N215	N	-1.280616	0.086470	0.527085
N216	N	-0.780616	0.586470	1.027085
