data_functionalizedCrystal
_audit_creation_method	'MofGen! by Chris Wilmer'
_symmetry_space_group_name_H-M	'P1'
_symmetry_Int_Tables_number	1
_symmetry_cell_setting	triclinic
loop_
_symmetry_equiv_pos_as_xyz
  x,y,z
_cell_length_a	10.654549
_cell_length_b	10.654545
_cell_length_c	9.482900
_cell_angle_alpha	99.427550
_cell_angle_beta	80.618170
_cell_angle_gamma	84.486172
loop_
_atom_site_label
_atom_site_type_symbol
_atom_site_fract_x
_atom_site_fract_y
_atom_site_fract_z
O1	O	1.687247	0.156930	-0.120924
O2	O	1.321769	0.173730	-0.120918
O3	O	1.512910	-0.017409	-0.120920
O4	O	1.496106	0.348069	-0.120922
O5	O	1.474086	0.021573	0.120873
O6	O	1.282945	0.212712	0.120875
O7	O	1.648423	0.195912	0.120869
Cu8	Cu	1.462139	0.207871	0.142950
Cu9	Cu	1.508053	0.161771	-0.142998
O10	O	1.457282	0.387051	0.120871
C11	C	1.255559	0.191987	-0.000021
C12	C	1.116115	0.188293	-0.000019
C13	C	0.826138	0.409909	-0.000061
C14	C	0.877675	0.525928	-0.000056
C15	C	1.008690	0.529407	-0.000037
C16	C	1.088174	0.416853	-0.000027
C17	C	1.036637	0.300833	-0.000033
C18	C	0.905617	0.297368	-0.000047
C19	C	1.064579	0.072273	-0.000024
C20	C	0.933562	0.068793	-0.000033
C21	C	1.144062	-0.040281	-0.000015
C22	C	1.092524	-0.156301	-0.000010
C23	C	0.961500	-0.159775	-0.000028
C24	C	0.882026	-0.047226	-0.000039
C25	C	1.492264	-0.044716	-0.000026
C26	C	1.488573	-0.184161	-0.000035
C27	C	1.530915	-0.226669	-0.263645
C28	C	1.550356	-0.313433	-0.395449
C29	C	1.546887	-0.444452	-0.395451
C30	C	1.523971	-0.488707	-0.263634
C31	C	1.504531	-0.401944	-0.131829
C32	C	1.508005	-0.270924	-0.131842
C33	C	1.462180	-0.359435	0.131777
C34	C	1.465657	-0.228417	0.131782
C35	C	1.439264	-0.403691	0.263594
C36	C	1.419832	-0.316928	0.395402
C37	C	1.423303	-0.185902	0.395398
C38	C	1.446216	-0.141653	0.263587
C39	C	1.714634	0.177655	-0.000031
C40	C	1.854079	0.181347	-0.000042
C41	C	1.477928	0.414358	-0.000026
C42	C	1.481621	0.553801	-0.000027
N43	N	1.429855	0.240295	0.344070
N44	N	1.540347	0.129337	-0.344119
C45	C	1.498522	0.171328	0.416269
C46	C	1.471670	0.198315	0.583686
H47	H	0.812946	0.617566	-0.000068
C48	C	1.645262	0.023858	0.573322
C49	C	1.703385	-0.034557	0.672379
C50	C	1.800024	-0.131737	0.596379
H51	H	1.707669	0.059691	0.513922
H52	H	1.608972	-0.038289	0.513988
H53	H	1.739676	0.027580	0.731688
H54	H	1.641012	-0.070416	0.731782
H55	H	1.763734	-0.193885	0.537045
H56	H	1.862422	-0.095894	0.536982
H57	H	1.839465	-0.171392	0.663577
H58	H	1.392993	0.277340	0.645812
H59	H	1.250742	-0.037441	-0.000007
H60	H	0.775342	-0.050041	-0.000040
H61	H	1.407453	-0.115262	0.502730
H62	H	1.157250	-0.247935	-0.000012
H63	H	1.449051	-0.034974	0.263571
C64	C	1.575193	-0.265626	-0.538712
C65	C	1.591443	-0.369649	-0.654137
C66	C	1.614305	-0.325662	-0.786130
H67	H	1.650549	-0.224363	-0.544391
H68	H	1.504304	-0.206498	-0.544281
H69	H	1.662326	-0.428755	-0.648570
H70	H	1.516100	-0.410923	-0.648506
H71	H	1.543415	-0.266534	-0.791699
H72	H	1.689659	-0.284399	-0.791794
H73	H	1.625321	-0.396233	-0.864461
H74	H	1.351183	0.319316	0.406201
H75	H	0.919550	-0.254254	-0.000040
H76	H	1.194854	0.419693	-0.000029
C77	C	1.568160	-0.538812	-0.538453
C78	C	1.675243	-0.628482	-0.546145
C79	C	1.694864	-0.715429	-0.677851
H80	H	1.582378	-0.493853	-0.617068
H81	H	1.494614	-0.581944	-0.543947
H82	H	1.748772	-0.585354	-0.540665
H83	H	1.661052	-0.673472	-0.467560
H84	H	1.621318	-0.758561	-0.683346
H85	H	1.709076	-0.670459	-0.756456
H86	H	1.767513	-0.776287	-0.683082
H87	H	1.050649	0.623880	-0.000030
C88	C	1.394768	-0.365130	0.538396
C89	C	1.283693	-0.425939	0.546070
C90	C	1.260575	-0.470378	0.677768
H91	H	1.383605	-0.294813	0.617018
H92	H	1.465596	-0.424368	0.543891
H93	H	1.212882	-0.366706	0.540588
H94	H	1.294827	-0.496272	0.467478
H95	H	1.331402	-0.529616	0.683263
H96	H	1.249417	-0.400054	0.756379
H97	H	1.185216	-0.511652	0.682986
H98	H	1.577185	0.092297	0.354140
H99	H	0.719454	0.407092	-0.000051
H100	H	1.533756	-0.119990	-0.263657
H101	H	1.521134	-0.595390	-0.263647
H102	H	1.436434	-0.510374	0.263584
