data_functionalizedCrystal
_audit_creation_method	'MofGen! by Chris Wilmer'
_symmetry_space_group_name_H-M	'P1'
_symmetry_Int_Tables_number	1
_symmetry_cell_setting	triclinic
loop_
_symmetry_equiv_pos_as_xyz
  x,y,z
_cell_length_a	13.032891
_cell_length_b	21.295417
_cell_length_c	13.032268
_cell_angle_alpha	82.859352
_cell_angle_beta	89.113158
_cell_angle_gamma	82.835114
loop_
_atom_site_label
_atom_site_type_symbol
_atom_site_fract_x
_atom_site_fract_y
_atom_site_fract_z
Zn1	Zn	1.498327	-0.425090	0.780729
Zn2	Zn	1.520038	-0.518875	0.608726
Zn3	Zn	1.348195	-0.398796	0.586977
Zn4	Zn	1.326288	-0.515473	0.758852
O5	O	1.423212	-0.464558	0.683821
O6	O	1.645123	-0.449959	0.776170
O7	O	1.515497	-0.493365	0.461926
O8	O	1.368193	-0.314205	0.612732
O9	O	1.661073	-0.518862	0.649800
O10	O	1.478494	-0.333523	0.755081
O11	O	1.389245	-0.405144	0.445947
O12	O	1.201374	-0.401845	0.591518
O13	O	1.330855	-0.513064	0.905668
O14	O	1.185279	-0.487567	0.717794
O15	O	1.457252	-0.446660	0.921741
O16	O	1.494254	-0.606502	0.628586
O17	O	1.351907	-0.604003	0.738883
C18	C	1.156010	-0.441484	0.649923
C19	C	1.041697	-0.431630	0.635445
C20	C	0.864658	-0.459521	0.676423
C21	C	0.982807	-0.469709	0.691384
C22	C	1.423084	-0.628095	0.683747
C23	C	1.423120	-0.698067	0.683761
C24	C	1.497289	-0.732223	0.626405
C25	C	1.497335	-0.797971	0.626434
C26	C	1.423193	-0.829558	0.683807
C27	C	1.349017	-0.795394	0.741176
C28	C	1.348980	-0.729648	0.741153
N29	N	1.332231	-0.925582	0.680233
N30	N	1.332269	-0.988038	0.680249
C31	C	1.423301	-1.027647	0.683880
N32	N	1.514297	-1.002440	0.687475
N33	N	1.514258	-0.939978	0.687454
C34	C	1.423225	-0.900848	0.683838
C35	C	1.497526	-1.133095	0.626552
C36	C	1.497572	-1.198845	0.626589
C37	C	1.349246	-1.196265	0.741324
C38	C	1.349208	-1.130518	0.741294
C39	C	1.423347	-1.098936	0.683903
C40	C	1.691457	-0.487723	0.717852
C41	C	1.805767	-0.497594	0.732354
C42	C	1.389188	-0.482416	0.952063
C43	C	1.374689	-0.490025	1.066372
C44	C	1.423365	-0.300388	0.683921
C45	C	1.423431	-0.230428	0.683964
C46	C	1.457163	-0.446730	0.416629
C47	C	1.471861	-0.438960	0.302346
C48	C	1.430763	-0.460563	1.125288
C49	C	1.415779	-0.468427	1.243432
H50	H	1.004653	-0.391486	0.576485
O51	O	1.569237	-0.831204	0.570619
C52	C	1.519159	-0.859783	0.496728
H53	H	1.436616	-0.865352	0.523080
H54	H	1.562824	-0.908694	0.488273
H55	H	1.517543	-0.828415	0.419083
O56	O	1.277048	-1.097424	0.797020
C57	C	1.211632	-1.139402	0.847687
H58	H	1.213477	-1.183174	0.805132
H59	H	1.129199	-1.114179	0.848299
H60	H	1.239319	-1.154796	0.930598
O61	O	1.276859	-0.825989	0.796839
C62	C	1.177229	-0.799649	0.761260
H63	H	1.180117	-0.749112	0.721443
H64	H	1.121646	-0.798357	0.829589
H65	H	1.149360	-0.830176	0.703982
H66	H	1.019852	-0.509847	0.750353
O67	O	0.820504	-0.411554	0.606197
C68	C	0.843882	-0.352593	0.632146
H69	H	0.863080	-0.357500	0.718038
H70	H	0.774320	-0.314849	0.614496
H71	H	0.913149	-0.337753	0.584889
H72	H	1.530960	-0.407908	1.265325
H73	H	0.842816	-0.537730	0.791319
H74	H	1.557898	-1.107381	0.579824
H75	H	1.356668	-0.499471	1.280453
O76	O	1.501157	-0.423428	1.081156
C77	C	1.475463	-0.360488	1.104538
H78	H	1.389581	-0.352169	1.123719
H79	H	1.493251	-0.325486	1.034984
H80	H	1.522779	-0.352912	1.173816
H81	H	1.315582	-0.521067	1.103398
O82	O	1.569802	-1.231949	0.570947
C83	C	1.669380	-1.226138	0.606555
H84	H	1.666363	-1.181207	0.646361
H85	H	1.724981	-1.222895	0.538246
H86	H	1.697319	-1.269612	0.663851
O87	O	1.569416	-0.701651	0.570648
C88	C	1.634877	-0.745901	0.520011
H89	H	1.633079	-0.795862	0.562598
H90	H	1.717290	-0.733136	0.519385
H91	H	1.607197	-0.744486	0.437104
H92	H	1.288581	-0.701837	0.787861
H93	H	1.288882	-1.221983	0.788044
