data_functionalizedCrystal
_audit_creation_method	'MofGen! by Chris Wilmer'
_symmetry_space_group_name_H-M	'P1'
_symmetry_Int_Tables_number	1
_symmetry_cell_setting	triclinic
loop_
_symmetry_equiv_pos_as_xyz
  x,y,z
_cell_length_a	15.995343
_cell_length_b	15.944551
_cell_length_c	15.072220
_cell_angle_alpha	89.997918
_cell_angle_beta	89.991823
_cell_angle_gamma	83.493961
loop_
_atom_site_label
_atom_site_type_symbol
_atom_site_fract_x
_atom_site_fract_y
_atom_site_fract_z
O1	O	1.111006	0.108233	-0.073695
O2	O	0.867231	0.121610	-0.073717
O3	O	0.995775	-0.007354	-0.073698
O4	O	0.982461	0.237197	-0.073715
O5	O	0.995743	-0.007347	0.073868
O6	O	0.867199	0.121617	0.073848
O7	O	1.110974	0.108240	0.073870
Zn8	Zn	0.989081	0.114930	0.097288
Zn9	Zn	0.989123	0.114920	-0.097135
O10	O	0.982430	0.237204	0.073850
C11	C	0.836020	0.121061	0.000063
C12	C	0.743069	0.119407	0.000055
C13	C	0.572882	0.116404	0.000067
C14	C	0.549532	0.023312	0.000073
C15	C	0.452853	0.021560	0.000414
C16	C	0.405322	0.113446	0.000078
C17	C	0.434398	0.160258	0.084174
C18	C	0.531191	0.161362	0.084239
C19	C	0.531138	0.162717	-0.083576
C20	C	0.434643	0.159281	-0.084676
C21	C	0.310624	0.111779	0.000087
C22	C	0.667580	0.118073	0.000064
C23	C	0.995207	-0.038644	0.000085
C24	C	0.993550	-0.131890	0.000085
C25	C	0.909911	-0.346740	0.000066
C26	C	0.948734	-0.407757	0.072828
C27	C	0.990552	-0.302616	0.000078
C28	C	0.948785	-0.407747	-0.072660
C29	C	0.987650	-0.467528	0.000068
C30	C	1.029397	-0.362405	0.072900
C31	C	1.029436	-0.362389	-0.072653
C32	C	1.068318	-0.423388	0.000127
C33	C	0.992221	-0.207614	0.000085
C34	C	0.985987	-0.562529	0.000067
C35	C	1.142185	0.108788	0.000088
C36	C	1.235136	0.110443	0.000090
C37	C	0.982998	0.268494	0.000066
C38	C	0.984655	0.361740	0.000060
N39	N	0.989059	0.114936	0.229977
N40	N	0.989152	0.114908	-0.229824
C41	C	0.989122	0.114917	0.589178
C42	C	0.920109	0.183691	0.551561
C43	C	0.920267	0.183943	0.448735
C44	C	0.989090	0.114926	0.410974
C45	C	1.076456	0.134066	0.448272
C46	C	1.076069	0.134555	0.551130
C47	C	0.971547	0.026799	0.551283
C48	C	0.969543	0.027386	0.448419
C49	C	0.989077	0.114930	0.310261
C50	C	0.989140	0.114915	0.689892
H51	H	0.433845	-0.015084	-0.059857
H52	H	1.092312	0.197598	0.422500
F53	F	0.890071	0.002755	0.585223
H54	H	0.402555	0.227883	0.087061
F55	F	0.568102	0.124323	-0.166919
F56	F	0.550247	0.250591	0.088924
H57	H	0.577550	-0.012774	-0.060223
H58	H	0.842975	-0.313427	0.000133
F59	F	0.904137	-0.434033	0.153225
H60	H	0.905275	0.012861	0.424043
F61	F	1.037328	-0.040098	0.583079
H62	H	0.434402	-0.014906	0.061055
F63	F	0.934583	0.268685	0.585314
H64	H	1.063463	-0.342414	0.134482
H65	H	0.931490	0.249334	0.424118
H66	H	1.135313	-0.456553	0.000174
F67	F	0.835373	0.169081	0.415774
H68	H	0.914679	-0.427824	-0.134179
F69	F	0.587394	-0.023082	0.078787
H70	H	0.557961	0.129328	0.147346
F71	F	1.073998	-0.336083	-0.153053
H72	H	0.414291	0.128145	0.147001
F73	F	0.834947	0.169023	0.583902
H74	H	0.416097	0.125190	-0.146891
F75	F	0.391580	0.246918	-0.091657
F76	F	1.145149	0.071506	0.583656
H77	H	1.016542	-0.026190	0.422719
H78	H	1.091555	0.198819	0.575108
F79	F	0.549429	0.252289	-0.084623
F80	F	1.145186	0.070334	0.416304
