data_functionalizedCrystal
_audit_creation_method	'MofGen! by Chris Wilmer'
_symmetry_space_group_name_H-M	'P1'
_symmetry_Int_Tables_number	1
_symmetry_cell_setting	triclinic
loop_
_symmetry_equiv_pos_as_xyz
  x,y,z
_cell_length_a	19.851628
_cell_length_b	19.377369
_cell_length_c	19.851628
_cell_angle_alpha	72.121946
_cell_angle_beta	89.998032
_cell_angle_gamma	48.641315
loop_
_atom_site_label
_atom_site_type_symbol
_atom_site_fract_x
_atom_site_fract_y
_atom_site_fract_z
Zr1	Zr	0.514524	0.779924	0.046613
O2	O	0.381360	0.928554	-0.035209
O3	O	0.573104	0.631292	0.053848
O4	O	0.547491	0.779939	-0.060952
O5	O	0.406975	0.779897	0.190449
O6	O	0.658338	0.779953	-0.060956
O7	O	0.406973	0.779908	0.079591
O8	O	0.704153	0.514051	0.144401
O9	O	0.361160	1.045799	-0.014907
O10	O	0.659356	0.692438	0.078494
O11	O	0.576634	0.692419	0.161229
O12	O	0.546479	0.867432	0.026067
O13	O	0.463758	0.867413	0.108803
Zr14	Zr	0.691315	0.779929	0.223413
Zr15	Zr	0.691311	0.779946	0.046607
Zr16	Zr	0.514528	0.779907	0.223419
Zr17	Zr	0.482306	0.966915	0.078993
Zr18	Zr	0.723533	0.592938	0.191034
O19	O	0.632736	0.928561	0.216178
O20	O	0.632729	0.928586	-0.035218
O21	O	0.381367	0.928530	0.216187
O22	O	0.824479	0.631299	0.305236
O23	O	0.824472	0.631324	0.053840
O24	O	0.573110	0.631268	0.305244
O25	O	0.798864	0.779956	0.079577
O26	O	0.658348	0.779915	0.330978
O27	O	0.547501	0.779901	0.330982
O28	O	0.798866	0.779946	0.190436
O29	O	0.501682	1.045816	-0.014912
O30	O	0.704157	0.514037	0.284938
O31	O	0.844679	0.514055	0.284933
O32	O	0.844675	0.514068	0.144396
O33	O	0.361164	1.045785	0.125631
O34	O	0.501686	1.045802	0.125626
O35	O	0.659360	0.692422	0.243959
O36	O	0.742081	0.692440	0.161224
O37	O	0.629205	0.867434	0.108797
O38	O	0.546483	0.867416	0.191532
C39	C	0.643219	0.546029	0.094511
C40	C	0.656896	0.466647	0.080765
C41	C	0.486331	0.205211	0.251724
C42	C	0.499296	0.130528	0.238867
C43	C	0.585650	0.130556	0.152497
C44	C	0.572697	0.205237	0.165350
C45	C	0.523035	0.242559	0.214964
C46	C	0.609401	0.242586	0.128590
C47	C	0.596444	0.317264	0.141440
C48	C	0.546783	0.354593	0.191049
C49	C	0.510078	0.317237	0.227814
C50	C	0.659056	0.205267	0.078973
C51	C	0.695761	0.242616	0.042213
C52	C	0.682810	0.317291	0.055066
C53	C	0.633148	0.354620	0.104676
C54	C	0.719514	0.354647	0.018302
C55	C	0.706557	0.429325	0.031151
C56	C	0.620191	0.429298	0.117525
C57	C	0.381786	0.779899	0.135021
C58	C	0.306735	0.779890	0.135023
C59	C	0.186910	0.684498	0.163602
C60	C	0.111245	0.732187	0.204558
C61	C	0.169299	0.779916	0.135017
C62	C	0.111230	0.732221	0.094088
C63	C	0.036547	0.779934	0.135011
C64	C	0.094622	0.827606	0.176019
C65	C	0.094620	0.827625	0.065503
C66	C	0.018931	0.875384	0.106452
C67	C	0.245776	0.779903	0.135023
C68	C	-0.039934	0.779955	0.135008
C69	C	0.824053	0.779954	0.135006
C70	C	0.899104	0.779964	0.135003
C71	C	0.602914	0.779948	-0.086145
C72	C	0.602912	0.779956	-0.161204
C73	C	0.562620	1.013824	0.175515
C74	C	0.548943	1.093207	0.189262
C75	C	0.541370	0.875348	-0.416034
C76	C	0.516887	0.827663	-0.356829
C77	C	0.602922	0.779916	-0.431356
C78	C	0.627356	0.827651	-0.356838
C79	C	0.602915	0.779941	-0.298623
C80	C	0.578393	0.732230	-0.373140
C81	C	0.688902	0.732232	-0.373157
C82	C	0.664451	0.684477	-0.313952
C83	C	0.602923	0.779905	-0.507821
C84	C	0.602913	0.779945	-0.222157
C85	C	0.602925	0.779905	0.356171
C86	C	0.602927	0.779898	0.431230
C87	C	0.864353	0.546057	0.094503
C88	C	0.953080	0.466684	0.080755
C89	C	0.643224	0.546008	0.315669
C90	C	0.656903	0.466618	0.376982
C91	C	0.864358	0.546035	0.315661
C92	C	0.953088	0.466655	0.376972
C93	C	0.341481	1.013818	-0.045635
C94	C	0.252751	1.093199	-0.106945
C95	C	0.341487	1.013797	0.175523
C96	C	0.252759	1.093170	0.189272
C97	C	0.562615	1.013846	-0.045643
C98	C	0.548936	1.093235	-0.106955
C99	C	0.951566	0.429408	0.031107
C100	C	1.034927	0.354839	0.018174
C101	C	1.119802	0.317541	0.054893
C102	C	1.121313	0.354824	0.104544
C103	C	1.037953	0.429397	0.117472
C104	C	0.706509	0.429337	0.448966
C105	C	0.719357	0.354752	0.506585
C106	C	0.682604	0.317445	0.492216
C107	C	0.632992	0.354733	0.420225
C108	C	0.620139	0.429322	0.362609
C109	C	1.037944	0.429386	0.362577
C110	C	1.121320	0.354810	0.420179
C111	C	1.119839	0.317499	0.492176
C112	C	1.034974	0.354775	0.506570
C113	C	0.951599	0.429354	0.448969
C114	C	0.167894	1.130476	-0.092549
C115	C	0.084514	1.205075	-0.150147
C116	C	0.085994	1.242391	-0.222143
C117	C	0.170860	1.205110	-0.236538
C118	C	0.254237	1.130517	-0.178939
C119	C	0.254271	1.130453	0.238914
C120	C	0.170907	1.205043	0.251831
C121	C	0.086032	1.242343	0.215109
C122	C	0.084521	1.205057	0.165461
C123	C	0.167883	1.130473	0.152541
C124	C	0.585701	1.130519	-0.092565
C125	C	0.572866	1.205105	-0.150169
C126	C	0.523260	1.242410	-0.222164
C127	C	0.486494	1.205119	-0.236554
C128	C	0.499335	1.130530	-0.178951
H129	H	0.736445	0.459735	0.001216
Cl130	Cl	1.228022	0.307921	0.150703
Cl131	Cl	1.224592	0.223789	0.038634
Cl132	Cl	0.648076	0.083633	0.090126
Cl133	Cl	0.297665	0.559938	0.201000
H134	H	0.603071	0.324346	0.408536
Cl135	Cl	0.844929	0.476191	0.467078
Cl136	Cl	0.084825	0.889817	0.229563
Cl137	Cl	0.084989	0.889841	-0.025247
H138	H	0.172053	1.235502	-0.295164
H139	H	0.445892	0.235600	0.292125
Cl140	Cl	0.557780	0.476174	0.272114
Cl141	Cl	0.507121	1.336184	-0.294572
Cl142	Cl	0.801132	0.670030	-0.385021
H143	H	0.166672	1.100098	-0.033932
H144	H	1.033782	0.324385	0.565197
Cl145	Cl	0.546362	0.669986	-0.384803
Cl146	Cl	0.360911	1.083656	-0.197052
H147	H	0.323374	1.100089	0.268824
H148	H	0.018159	1.303074	0.225637
Cl149	Cl	0.781930	0.307730	-0.044076
Cl150	Cl	0.120935	0.669923	0.295321
Cl151	Cl	0.752724	0.476219	0.467048
H152	H	0.015404	1.235438	0.135566
Cl153	Cl	1.033006	0.307980	-0.044242
Cl154	Cl	0.404623	0.889927	-0.345014
Cl155	Cl	-0.022161	1.251923	-0.132035
H156	H	0.669598	0.144465	0.068509
Cl157	Cl	0.165966	1.083605	0.090135
Cl158	Cl	0.460952	0.999898	-0.483788
H159	H	-0.052722	0.956130	0.082293
H160	H	0.172156	1.235389	0.292260
H161	H	0.626093	1.100157	-0.033947
Cl162	Cl	0.120939	0.669940	0.040648
H163	H	1.190413	0.324468	0.408446
H164	H	0.648023	0.868008	-0.349209
H165	H	0.602805	1.235459	-0.138438
H166	H	0.469639	0.347627	0.268214
H167	H	0.446104	1.235504	-0.295180
Cl168	Cl	1.039874	0.476242	0.179896
Cl169	Cl	0.698773	0.223673	0.564657
H170	H	0.018096	1.303129	-0.269037
H171	H	0.716499	0.603737	-0.270174
Cl172	Cl	0.557766	0.476217	0.179902
H173	H	0.882464	0.459775	0.001194
H174	H	0.759758	0.324401	0.565198
Cl175	Cl	1.039828	0.476283	0.272074
H176	H	0.469391	1.100182	-0.190678
H177	H	0.536230	0.415405	0.201507
Cl178	Cl	0.453143	0.083580	0.285083
H179	H	0.736192	0.212223	0.001815
Cl180	Cl	1.224663	0.223738	0.564581
