data_functionalizedCrystal
_audit_creation_method	'MofGen! by Chris Wilmer'
_symmetry_space_group_name_H-M	'P1'
_symmetry_Int_Tables_number	1
_symmetry_cell_setting	triclinic
loop_
_symmetry_equiv_pos_as_xyz
  x,y,z
_cell_length_a	17.038272
_cell_length_b	17.038272
_cell_length_c	15.500227
_cell_angle_alpha	86.966746
_cell_angle_beta	86.956295
_cell_angle_gamma	88.888444
loop_
_atom_site_label
_atom_site_type_symbol
_atom_site_fract_x
_atom_site_fract_y
_atom_site_fract_z
O1	O	1.052160	-0.167139	-0.071836
O2	O	1.552160	0.332861	0.428164
O3	O	0.824350	-0.164430	-0.071862
O4	O	1.324350	0.335570	0.428138
O5	O	0.936901	-0.051879	-0.071842
O6	O	1.436901	0.448121	0.428158
O7	O	0.939609	-0.279690	-0.071856
O8	O	1.439609	0.220310	0.428144
O9	O	0.930069	-0.058680	0.072045
O10	O	1.430069	0.441320	0.572045
O11	O	0.817518	-0.171231	0.072026
O12	O	1.317518	0.328769	0.572026
O13	O	1.045328	-0.173940	0.072051
O14	O	1.545328	0.326060	0.572051
Cu15	Cu	0.930799	-0.173207	0.085177
Cu16	Cu	1.430799	0.326793	0.585177
Cu17	Cu	0.938879	-0.165164	-0.084987
Cu18	Cu	1.438879	0.334836	0.415013
O19	O	0.932777	-0.286491	0.072032
O20	O	1.432777	0.213509	0.572032
C21	C	0.791641	-0.165368	0.000079
C22	C	1.291641	0.334632	0.500079
C23	C	0.704358	-0.158019	0.000069
C24	C	1.204358	0.341981	0.500069
C25	C	0.658749	-0.225482	0.000066
C26	C	1.158749	0.274518	0.500066
C27	C	0.576737	-0.218574	0.000078
C28	C	1.076737	0.281426	0.500078
C29	C	0.540335	-0.144201	0.000088
C30	C	1.040335	0.355799	0.500088
C31	C	0.585950	-0.076733	0.000094
C32	C	1.085950	0.423267	0.500094
C33	C	0.667961	-0.083642	0.000088
C34	C	1.167961	0.416358	0.500088
C35	C	0.292946	-0.119792	0.000112
C36	C	0.792946	0.380208	0.500112
C37	C	0.210929	-0.112887	0.000116
C38	C	0.710929	0.387113	0.500116
C39	C	0.201721	-0.254729	0.000102
C40	C	0.701721	0.245271	0.500102
C41	C	0.283734	-0.261632	0.000091
C42	C	0.783734	0.238368	0.500091
C43	C	0.329342	-0.194164	0.000101
C44	C	0.829342	0.305836	0.500101
C45	C	0.456505	-0.137138	0.000098
C46	C	0.956505	0.362862	0.500098
C47	C	0.413170	-0.201228	0.000098
C48	C	0.913170	0.298772	0.500098
C49	C	0.931022	-0.025987	0.000101
C50	C	1.431022	0.474013	0.500101
C51	C	0.923674	0.061297	0.000100
C52	C	1.423674	0.561297	0.500100
C53	C	1.078037	-0.173003	0.000109
C54	C	1.578037	0.326997	0.500109
C55	C	1.165320	-0.180351	0.000113
C56	C	1.665320	0.319649	0.500113
C57	C	0.938656	-0.312383	0.000087
C58	C	1.438656	0.187617	0.500087
C59	C	0.946004	-0.399667	0.000082
C60	C	1.446004	0.100333	0.500082
N61	N	0.925122	-0.178864	0.204861
N62	N	1.425122	0.321136	0.704861
C63	C	0.991137	0.106906	0.000108
C64	C	1.491137	0.606906	0.500108
C65	C	0.984229	0.188918	0.000100
C66	C	1.484229	0.688918	0.500100
C67	C	0.909856	0.225320	0.000088
C68	C	1.409856	0.725320	0.500088
C69	C	0.842388	0.179705	0.000077
C70	C	1.342388	0.679705	0.500077
C71	C	0.849297	0.097694	0.000080
C72	C	1.349297	0.597694	0.500080
C73	C	0.885446	0.472708	0.000074
C74	C	1.385446	0.972708	0.500074
C75	C	0.878541	0.554725	0.000074
C76	C	1.378541	1.054725	0.500074
C77	C	1.020383	0.563932	0.000094
C78	C	1.520383	1.063932	0.500094
C79	C	1.027286	0.481919	0.000102
C80	C	1.527286	0.981919	0.500102
C81	C	0.959818	0.436312	0.000087
C82	C	1.459818	0.936312	0.500087
C83	C	0.902792	0.309149	0.000082
C84	C	1.402792	0.809149	0.500082
C85	C	0.966882	0.352484	0.000087
C86	C	1.466882	0.852484	0.500087
N87	N	0.944561	-0.159501	-0.204671
N88	N	1.444561	0.340499	0.295329
C89	C	0.972833	-0.131192	0.250145
C90	C	1.472833	0.368808	0.750145
C91	C	0.968547	-0.135478	0.340718
C92	C	1.468547	0.364522	0.840718
C93	C	0.916555	-0.187440	0.386003
C94	C	1.416555	0.312560	0.886003
C95	C	0.868839	-0.235114	0.340712
C96	C	1.368839	0.264886	0.840712
C97	C	0.873121	-0.230823	0.250142
C98	C	1.373121	0.269177	0.750142
C99	C	0.901128	-0.202884	0.659467
C100	C	1.401128	0.297116	1.159467
C101	C	0.896851	-0.207172	0.750044
C102	C	1.396851	0.292828	1.250044
C103	C	0.996559	-0.107535	0.750044
C104	C	1.496559	0.392465	1.250044
C105	C	1.000840	-0.103252	0.659471
C106	C	1.500840	0.396748	1.159471
C107	C	0.953121	-0.150923	0.614188
C108	C	1.453121	0.349077	1.114188
C109	C	0.912174	-0.191824	0.478582
C110	C	1.412174	0.308176	0.978582
C111	C	0.957498	-0.146534	0.521610
C112	C	1.457498	0.353466	1.021610
H113	H	0.426857	-0.076584	0.000130
H114	H	0.926857	0.423416	0.500130
H115	H	0.556305	-0.016177	0.000114
H116	H	1.056305	0.483823	0.500114
H117	H	1.051699	0.077273	0.000123
H118	H	1.551699	0.577273	0.500123
N119	N	0.323003	-0.341845	0.000090
N120	N	0.823003	0.158155	0.500090
H121	H	0.359349	-0.345346	-0.053253
H122	H	0.859349	0.154654	0.446747
H123	H	0.281623	-0.383495	0.000124
H124	H	0.781623	0.116505	0.500124
N125	N	0.452430	-0.281441	0.000076
N126	N	0.952430	0.218559	0.500076
H127	H	0.411095	-0.323136	0.000070
H128	H	0.911095	0.176864	0.500070
H129	H	0.483733	-0.289922	0.053412
H130	H	0.983733	0.210078	0.553412
H131	H	1.043177	-0.060940	0.622602
H132	H	1.543177	0.439060	1.122602
N133	N	1.020035	-0.084090	0.389562
N134	N	1.520035	0.415910	0.889562
H135	H	1.053635	-0.050535	0.347130
H136	H	1.553635	0.449465	0.847130
H137	H	1.054962	-0.118296	0.427113
H138	H	1.554962	0.381704	0.927113
N139	N	0.152527	-0.327495	0.000121
N140	N	0.652527	0.172505	0.500121
H141	H	0.188032	-0.375657	0.000121
H142	H	0.688032	0.124343	0.500121
H143	H	0.120817	-0.325208	-0.053211
H144	H	0.620817	0.174792	0.446789
N145	N	0.171665	-0.032667	0.000121
N146	N	0.671665	0.467333	0.500121
H147	H	0.213001	0.009026	0.000127
H148	H	0.713001	0.509026	0.500127
H149	H	0.135309	-0.029236	0.053461
H150	H	0.635309	0.470764	0.553461
H151	H	0.830508	0.435584	0.000061
H152	H	1.330508	0.935584	0.500061
N153	N	0.762173	0.218969	0.000068
N154	N	1.262173	0.718969	0.500068
H155	H	0.729838	0.200163	0.053404
H156	H	1.229838	0.700163	0.553404
H157	H	0.734967	0.205192	-0.053310
H158	H	1.234967	0.705192	0.446690
N159	N	0.840760	-0.263212	0.798888
N160	N	1.340760	0.236788	1.298888
H161	H	0.845292	-0.258696	0.863135
H162	H	1.345292	0.241304	1.363135
H163	H	0.854275	-0.318785	0.783046
H164	H	1.354275	0.181215	1.283046
N165	N	1.093144	0.613130	0.000101
N166	N	1.593144	1.113130	0.500101
H167	H	1.127883	0.603388	-0.053235
H168	H	1.627883	1.103388	0.446765
H169	H	1.122757	0.598333	0.053479
H170	H	1.622757	1.098333	0.553479
N171	N	0.821660	-0.282245	0.201302
N172	N	1.321660	0.217755	0.701302
H173	H	0.855755	-0.317250	0.163710
H174	H	1.355755	0.182750	0.663710
H175	H	0.786677	-0.248067	0.163787
H176	H	1.286677	0.251933	0.663787
N177	N	0.776534	0.048498	0.000066
N178	N	1.276534	0.548498	0.500066
H179	H	0.728370	0.084001	0.000059
H180	H	1.228370	0.584001	0.500059
H181	H	0.773776	0.011751	0.053406
H182	H	1.273776	0.511751	0.553406
H183	H	0.705095	-0.028706	0.000090
H184	H	1.205095	0.471294	0.500090
H185	H	0.842237	0.338796	0.000075
H186	H	1.342237	0.838796	0.500075
H187	H	1.027437	0.322844	0.000077
H188	H	1.527437	0.822844	0.500077
H189	H	0.817974	0.584359	0.000078
H190	H	1.317974	1.084359	0.500078
H191	H	1.035409	-0.068723	0.786921
H192	H	1.535409	0.431277	1.286921
N193	N	1.028897	-0.075138	0.201295
N194	N	1.528897	0.424862	0.701295
H195	H	1.067442	-0.105694	0.163702
H196	H	1.567442	0.394306	0.663702
H197	H	1.058416	-0.045593	0.243777
H198	H	1.558416	0.454407	0.743777
N199	N	0.342131	-0.047026	0.000129
N200	N	0.842131	0.452974	0.500129
H201	H	0.306623	0.001135	0.000135
H202	H	0.806623	0.501135	0.500135
H203	H	0.378887	-0.044275	-0.053210
H204	H	0.878887	0.455725	0.446790
H205	H	1.039164	0.226049	0.000108
H206	H	1.539164	0.726049	0.500108
N207	N	0.849657	-0.254293	0.610633
N208	N	1.349657	0.245707	1.110633
H209	H	0.816073	-0.287861	0.653067
H210	H	1.316073	0.212139	1.153067
H211	H	0.883799	-0.289251	0.573038
H212	H	1.383799	0.210749	1.073038
H213	H	0.869842	-0.234135	0.515461
H214	H	1.369842	0.265865	1.015461
N215	N	1.107502	0.442659	0.000119
N216	N	1.607502	0.942659	0.500119
H217	H	1.149193	0.483997	0.000124
H218	H	1.649193	0.983997	0.500124
H219	H	1.115993	0.411348	-0.053218
H220	H	1.615993	0.911348	0.446782
N221	N	0.812754	-0.291154	0.389551
N222	N	1.312754	0.208846	0.889551
H223	H	0.817281	-0.286641	0.453799
H224	H	1.317281	0.213359	0.953799
H225	H	0.826275	-0.346725	0.373706
H226	H	1.326275	0.153275	0.873706
N227	N	1.013570	-0.090495	0.472758
N228	N	1.513570	0.409505	0.972758
H229	H	1.069165	-0.104025	0.488501
H230	H	1.569165	0.395975	0.988501
H231	H	1.000014	-0.034915	0.488543
H232	H	1.500014	0.465085	0.988543
H233	H	0.688381	-0.286045	0.000058
H234	H	1.188381	0.213955	0.500058
N235	N	0.527538	-0.291342	0.000173
N236	N	1.027538	0.208658	0.500173
H237	H	0.563042	-0.339506	0.000192
H238	H	1.063042	0.160494	0.500192
H239	H	0.495793	-0.289100	-0.053133
H240	H	0.995793	0.210900	0.446867
