data_functionalizedCrystal
_audit_creation_method	'MofGen! by Chris Wilmer'
_symmetry_space_group_name_H-M	'P1'
_symmetry_Int_Tables_number	1
_symmetry_cell_setting	triclinic
loop_
_symmetry_equiv_pos_as_xyz
  x,y,z
_cell_length_a	14.519709
_cell_length_b	14.519731
_cell_length_c	13.596369
_cell_angle_alpha	89.998627
_cell_angle_beta	89.999684
_cell_angle_gamma	83.684499
loop_
_atom_site_label
_atom_site_type_symbol
_atom_site_fract_x
_atom_site_fract_y
_atom_site_fract_z
O1	O	1.223879	0.120884	-0.081666
O2	O	0.955404	0.135120	-0.081696
O3	O	1.096749	-0.006235	-0.081671
O4	O	1.082533	0.262239	-0.081690
O5	O	1.096732	-0.006227	0.081912
O6	O	0.955386	0.135128	0.081887
O7	O	1.223862	0.120892	0.081917
Zn8	Zn	1.089621	0.128011	0.107874
Zn9	Zn	1.089644	0.128001	-0.107653
O10	O	1.082516	0.262247	0.081892
C11	C	0.921035	0.134461	0.000092
C12	C	0.818654	0.132473	0.000080
C13	C	0.443757	0.125153	0.000126
C14	C	0.548065	0.127186	0.000113
C15	C	0.631202	0.128813	0.000102
C16	C	0.735517	0.130846	0.000091
C17	C	1.096075	-0.040591	0.000121
C18	C	1.094079	-0.142971	0.000121
C19	C	1.092457	-0.226115	0.000119
C20	C	1.090430	-0.330424	0.000111
C21	C	1.088822	-0.413563	0.000104
C22	C	1.086795	-0.517878	0.000098
C23	C	1.258230	0.121551	0.000128
C24	C	1.360612	0.123539	0.000132
C25	C	1.083191	0.296603	0.000099
C26	C	1.085187	0.398983	0.000092
N27	N	1.089612	0.128018	0.254966
N28	N	1.089660	0.127987	-0.254745
C29	C	1.089617	0.128020	0.343964
C30	C	1.089626	0.128013	0.455616
C31	C	1.089638	0.128003	0.544606
C32	C	1.089648	0.127997	0.656265
