data_functionalizedCrystal
_audit_creation_method	'MofGen! by Chris Wilmer'
_symmetry_space_group_name_H-M	'P1'
_symmetry_Int_Tables_number	1
_symmetry_cell_setting	triclinic
loop_
_symmetry_equiv_pos_as_xyz
  x,y,z
_cell_length_a	18.101398
_cell_length_b	29.839131
_cell_length_c	18.101389
_cell_angle_alpha	89.971059
_cell_angle_beta	89.975673
_cell_angle_gamma	90.030494
loop_
_atom_site_label
_atom_site_type_symbol
_atom_site_fract_x
_atom_site_fract_y
_atom_site_fract_z
Zn1	Zn	1.132100	-0.178957	-0.418785
Zn2	Zn	1.131987	-0.254074	-0.294920
Zn3	Zn	1.008259	-0.178952	-0.294946
Zn4	Zn	1.008200	-0.254055	-0.418709
O5	O	1.070136	-0.216510	-0.356840
O6	O	1.235718	-0.188932	-0.402375
O7	O	1.115551	-0.244115	-0.191291
O8	O	1.024758	-0.116086	-0.311415
O9	O	1.235635	-0.244119	-0.311372
O10	O	1.115744	-0.116089	-0.402399
O11	O	1.024648	-0.188924	-0.191309
O12	O	0.904618	-0.188905	-0.311342
O13	O	1.024659	-0.244087	-0.522352
O14	O	0.904575	-0.244082	-0.402270
O15	O	1.115687	-0.188913	-0.522407
O16	O	1.115495	-0.316938	-0.311299
O17	O	1.024549	-0.316924	-0.402246
C18	C	0.877726	-0.216491	-0.356801
C19	C	0.795412	-0.216494	-0.356802
C20	C	1.070023	-0.333232	-0.356777
C21	C	1.070043	-0.383167	-0.356775
C22	C	0.496321	-0.216522	-0.356864
C23	C	0.527648	-0.181633	-0.299934
C24	C	0.613266	-0.181726	-0.299691
C25	C	0.644703	-0.216508	-0.356834
C26	C	0.613580	-0.263830	-0.335495
C27	C	0.527934	-0.263636	-0.335099
C28	C	0.527937	-0.204501	-0.435267
C29	C	0.613588	-0.203447	-0.434840
C30	C	0.728563	-0.216503	-0.356817
C31	C	0.412461	-0.216531	-0.356879
C32	C	1.117502	-0.692777	-0.404283
C33	C	1.117583	-0.880450	-0.404327
O34	O	1.157824	-0.904687	-0.444673
N35	N	1.070262	-0.903952	-0.356922
C36	C	1.022915	-0.880532	-0.309506
O37	O	0.982662	-0.904828	-0.269191
C38	C	1.022831	-0.692860	-0.309466
C39	C	1.070160	-0.669361	-0.356869
C40	C	1.164827	-0.669277	-0.451682
C41	C	1.164809	-0.622362	-0.451668
C42	C	1.117467	-0.598946	-0.404254
C43	C	1.070142	-0.622445	-0.356854
C44	C	0.975481	-0.669441	-0.262054
C45	C	0.975463	-0.622520	-0.262049
C46	C	1.022792	-0.599021	-0.309452
C47	C	1.022783	-0.552114	-0.309426
N48	N	1.070103	-0.528612	-0.356831
C49	C	1.117445	-0.552028	-0.404245
C50	C	1.022963	-0.979063	-0.309529
C51	C	1.022985	-1.025981	-0.309538
C52	C	1.117652	-1.025895	-0.404361
C53	C	1.117633	-0.978976	-0.404347
C54	C	1.070284	-0.955561	-0.356934
C55	C	1.117405	-0.453502	-0.404210
C56	C	1.117385	-0.406583	-0.404190
C57	C	1.022716	-0.406672	-0.309370
C58	C	1.022738	-0.453588	-0.309388
C59	C	1.070085	-0.477002	-0.356814
O60	O	0.982557	-0.527848	-0.269107
O61	O	1.157680	-0.527724	-0.444565
C62	C	1.117520	-0.739692	-0.404297
C63	C	1.070196	-0.763192	-0.356897
C64	C	1.022853	-0.739776	-0.309483
C65	C	1.070217	-0.810109	-0.356906
C66	C	1.117559	-0.833526	-0.404321
C67	C	1.164880	-0.810024	-0.451726
C68	C	1.164862	-0.763108	-0.451711
C69	C	0.975533	-0.763277	-0.262078
C70	C	0.975555	-0.810193	-0.262096
C71	C	1.022897	-0.833609	-0.309510
C72	C	1.263298	-0.216528	-0.356879
C73	C	1.345612	-0.216536	-0.356896
C74	C	1.070179	-0.216498	-0.550002
C75	C	1.070197	-0.216493	-0.632316
C76	C	1.070270	-0.099331	-0.356919
C77	C	1.070327	-0.049397	-0.356952
C78	C	1.070241	-0.216409	-0.931407
C79	C	1.012771	-0.251013	-0.900047
C80	C	1.012926	-0.251173	-0.814429
C81	C	1.070219	-0.216451	-0.783025
C82	C	1.148242	-0.229306	-0.814126
C83	C	1.147922	-0.229533	-0.899771
C84	C	1.050365	-0.168874	-0.899846
C85	C	1.048629	-0.169148	-0.814195
C86	C	1.070211	-0.216474	-0.699165
C87	C	1.070253	-0.216387	-1.015267
C88	C	1.070136	-0.216488	-0.164429
C89	C	1.070262	-0.216367	-0.082116
H90	H	0.507082	-0.146434	-0.313164
H91	H	1.192211	-0.204894	-0.793788
H92	H	1.026048	-0.286408	-0.793936
N93	N	0.971660	-0.381412	-0.258228
H94	H	0.978833	-0.348125	-0.265418
H95	H	0.918765	-0.389631	-0.269704
N96	N	0.501420	-0.277133	-0.259174
H97	H	0.445632	-0.277140	-0.258156
H98	H	0.520240	-0.308146	-0.247152
N99	N	0.498836	-0.191912	-0.223482
H100	H	0.465610	-0.219085	-0.225558
H101	H	0.541679	-0.198089	-0.189240
N102	N	0.501078	-0.238157	-0.491452
H103	H	0.471798	-0.222229	-0.531022
H104	H	0.544870	-0.253704	-0.514637
N105	N	1.168435	-0.381237	-0.455318
H106	H	1.198426	-0.403193	-0.485357
H107	H	1.138263	-0.361770	-0.489554
H108	H	1.155954	-0.472560	-0.442834
N109	N	0.641930	-0.277576	-0.260391
H110	H	0.697674	-0.278899	-0.261429
H111	H	0.625466	-0.254958	-0.222308
H112	H	1.165384	-0.263685	-0.792674
H113	H	0.633936	-0.168623	-0.450930
N114	N	0.500485	-0.299241	-0.387618
H115	H	0.469537	-0.321731	-0.359617
H116	H	0.469541	-0.284823	-0.427489
N117	N	1.168673	-0.953629	-0.455476
H118	H	1.221597	-0.961773	-0.444030
H119	H	1.157080	-0.961793	-0.508358
N120	N	0.976312	-0.153358	-0.928438
H121	H	0.954897	-0.176989	-0.962146
H122	H	0.941731	-0.148225	-0.885471
H123	H	0.991210	-0.159454	-0.793866
N124	N	1.215908	-0.737766	-0.502840
H125	H	1.245897	-0.759725	-0.532876
H126	H	1.185737	-0.718301	-0.537080
H127	H	0.634990	-0.227008	-0.479532
H128	H	1.203346	-0.603232	-0.490269
H129	H	1.087433	-0.141998	-0.792819
N130	N	0.640557	-0.299181	-0.388706
H131	H	0.669602	-0.322620	-0.360852
H132	H	0.596823	-0.313749	-0.413671
N133	N	0.499368	-0.159590	-0.460970
H134	H	0.465637	-0.146582	-0.422047
H135	H	0.542344	-0.138616	-0.469506
N136	N	1.215934	-0.835280	-0.502881
H137	H	1.268855	-0.827099	-0.491441
H138	H	1.208698	-0.868560	-0.495676
H139	H	1.092223	-0.143093	-0.920129
H140	H	0.634311	-0.146635	-0.313068
H141	H	1.156200	-1.044968	-0.442966
N142	N	0.640358	-0.192251	-0.222736
H143	H	0.621468	-0.222683	-0.207179
H144	H	0.696151	-0.192330	-0.222307
N145	N	1.170232	-0.275563	-0.926227
H146	H	1.129052	-0.288858	-0.956827
H147	H	1.216423	-0.273124	-0.957289
H148	H	1.203378	-0.688338	-0.490297
N149	N	0.935899	-0.240469	-0.927318
H150	H	0.899884	-0.263069	-0.906554
H151	H	0.921416	-0.209402	-0.910611
N152	N	0.924425	-0.694783	-0.210938
H153	H	0.954537	-0.714250	-0.176646
H154	H	0.894439	-0.672797	-0.180957
N155	N	1.206571	-0.197607	-0.927262
H156	H	1.232519	-0.183449	-0.883742
H157	H	1.243612	-0.214579	-0.958200
N158	N	0.924399	-0.597267	-0.210900
H159	H	0.931565	-0.563979	-0.218080
H160	H	0.871505	-0.605489	-0.222375
N161	N	0.971949	-1.051324	-0.258400
H162	H	0.941957	-1.029366	-0.228365
H163	H	0.937665	-1.070796	-0.288511
H164	H	0.984404	-0.960001	-0.270918
H165	H	0.937015	-0.829322	-0.223488
N166	N	0.971701	-0.478937	-0.258254
H167	H	0.941710	-0.456982	-0.228213
H168	H	0.937416	-0.498405	-0.288371
N169	N	0.924475	-0.738023	-0.210932
H170	H	0.871557	-0.746210	-0.222377
H171	H	0.936082	-0.746220	-0.158057
H172	H	0.955068	-0.243128	-0.793398
H173	H	1.025762	-0.286032	-0.921562
