data_functionalizedCrystal
_audit_creation_method	'MofGen! by Chris Wilmer'
_symmetry_space_group_name_H-M	'P1'
_symmetry_Int_Tables_number	1
_symmetry_cell_setting	triclinic
loop_
_symmetry_equiv_pos_as_xyz
  x,y,z
_cell_length_a	11.026607
_cell_length_b	23.532407
_cell_length_c	10.065875
_cell_angle_alpha	98.729142
_cell_angle_beta	79.302338
_cell_angle_gamma	95.717347
loop_
_atom_site_label
_atom_site_type_symbol
_atom_site_fract_x
_atom_site_fract_y
_atom_site_fract_z
O1	O	1.625135	0.231639	-0.113547
O2	O	1.272155	0.204517	-0.113543
O3	O	1.459285	0.136267	-0.113520
O4	O	1.438005	0.299889	-0.113570
O5	O	1.423601	0.149349	0.113464
O6	O	1.236471	0.217598	0.113442
O7	O	1.589451	0.244720	0.113437
Zn8	Zn	1.407295	0.233236	0.149478
Zn9	Zn	1.454310	0.216001	-0.149584
O10	O	1.402321	0.312970	0.113415
C11	C	1.209162	0.206054	-0.000050
C12	C	1.074627	0.191139	-0.000047
C13	C	1.000327	0.232323	-0.000060
C14	C	0.861279	0.216908	-0.000057
C15	C	1.440900	0.121535	-0.000024
C16	C	1.439269	0.058147	-0.000014
C17	C	1.539800	-0.330388	-0.000090
C18	C	1.538287	-0.389948	-0.000100
O19	O	1.631478	-0.416895	-0.000152
N20	N	1.427036	-0.424275	-0.000098
C21	C	1.317292	-0.399040	-0.000099
O22	O	1.222526	-0.433707	-0.000099
C23	C	1.318808	-0.339482	-0.000099
C24	C	1.430064	-0.305157	-0.000087
C25	C	1.651047	-0.296063	-0.000080
C26	C	1.652559	-0.236507	-0.000067
C27	C	1.542823	-0.211276	-0.000064
C28	C	1.431575	-0.245600	-0.000074
C29	C	1.209067	-0.314248	-0.000109
C30	C	1.210592	-0.254685	-0.000110
C31	C	1.321848	-0.220360	-0.000098
C32	C	1.323351	-0.160813	-0.000058
N33	N	1.434602	-0.126486	-0.000061
C34	C	1.544338	-0.151717	-0.000064
C35	C	1.314119	-0.524117	-0.000103
C36	C	1.312601	-0.583674	-0.000093
C37	C	1.533597	-0.574578	-0.000097
C38	C	1.535112	-0.515019	-0.000097
C39	C	1.425370	-0.489790	-0.000105
C40	C	1.547504	-0.026645	-0.000035
C41	C	1.549005	0.032916	-0.000017
C42	C	1.328011	0.023814	-0.000020
C43	C	1.326508	-0.035742	-0.000032
C44	C	1.436265	-0.060970	-0.000044
O45	O	1.230210	-0.133827	-0.000012
O46	O	1.639092	-0.117045	-0.000081
C47	C	1.652444	0.243183	-0.000059
C48	C	1.786980	0.258098	-0.000071
C49	C	1.420706	0.327702	-0.000084
C50	C	1.422339	0.391089	-0.000104
N51	N	1.375217	0.244999	0.353580
N52	N	1.486398	0.204235	-0.353685
C53	C	1.443142	0.220090	0.421367
C54	C	1.418463	0.229148	0.578531
H55	H	1.035302	0.144465	-0.000068
O56	O	1.643255	-0.481717	-0.000341
C57	C	1.851116	-0.462528	-0.117902
C58	C	1.728699	-0.500273	-0.117805
H59	H	1.920239	-0.477525	-0.212847
H60	H	1.833449	-0.415620	-0.117994
H61	H	1.890315	-0.466520	-0.022866
H62	H	1.689435	-0.496330	-0.212825
H63	H	1.746441	-0.547166	-0.117642
H64	H	1.639606	0.060862	-0.000004
O65	O	1.103863	-0.230268	-0.000057
C66	C	0.884524	-0.245587	-0.000160
C67	C	1.005295	-0.273311	-0.000190
H68	H	0.804805	-0.280376	-0.000297
H69	H	0.864674	-0.212482	0.094858
H70	H	0.894708	-0.223378	-0.095127
H71	H	0.995203	-0.295551	0.094712
H72	H	1.025105	-0.306386	-0.095271
H73	H	1.235908	-0.063688	-0.000003
H74	H	1.562822	0.176198	0.588003
H75	H	0.826302	0.304773	-0.000076
O76	O	1.221370	0.048254	-0.000207
C77	C	1.051506	0.051975	-0.117876
C78	C	1.172239	0.024238	-0.117802
H79	H	1.011762	0.032578	-0.212955
H80	H	0.981695	0.043477	-0.022957
H81	H	1.071733	0.100440	-0.117808
H82	H	1.152130	-0.024233	-0.117918
H83	H	1.242013	0.032782	-0.212712
H84	H	1.342031	0.257180	0.636843
O85	O	1.534330	0.186608	0.352018
C86	C	1.696092	0.127328	0.366765
C87	C	1.592840	0.165221	0.445466
H88	H	1.743444	0.110035	0.442283
H89	H	1.654427	0.089728	0.299926
H90	H	1.766904	0.154206	0.299805
H91	H	1.521993	0.138391	0.512500
H92	H	1.634594	0.202823	0.512218
H93	H	1.298790	0.273029	0.411897
H94	H	1.039657	0.278994	-0.000067
H95	H	1.636880	-0.047179	-0.000051
O96	O	0.814548	0.161193	-0.000225
C97	C	0.819813	0.064088	-0.117838
C98	C	0.872864	0.127158	-0.117801
H99	H	0.866920	0.036554	-0.212903
H100	H	0.837145	0.047433	-0.022905
H101	H	0.716020	0.061594	-0.117771
H102	H	0.976666	0.129701	-0.117916
H103	H	0.855435	0.143786	-0.212726
H104	H	1.740414	-0.316600	-0.000088
O105	O	1.760591	-0.203121	-0.000256
C106	C	1.909106	-0.137414	-0.117912
C107	C	1.786720	-0.175182	-0.117842
H108	H	1.930282	-0.114825	-0.212984
H109	H	1.900458	-0.103797	-0.022986
H110	H	1.987233	-0.165697	-0.117855
H111	H	1.708530	-0.146946	-0.117947
H112	H	1.795472	-0.208803	-0.212760
H113	H	1.622951	-0.595132	-0.000105
H114	H	1.224746	-0.503579	-0.000098
O115	O	1.204427	-0.616932	-0.000150
C116	C	0.985379	-0.619647	-0.000065
C117	C	1.107806	-0.581919	-0.000023
H118	H	0.907225	-0.591352	0.000067
H119	H	0.993992	-0.653214	-0.095086
H120	H	0.964275	-0.642307	0.094900
H121	H	1.128983	-0.559221	-0.094923
H122	H	1.099131	-0.548387	0.095061
H123	H	1.118471	-0.342186	-0.000127
