data_functionalizedCrystal
_audit_creation_method	'MofGen! by Chris Wilmer'
_symmetry_space_group_name_H-M	'P1'
_symmetry_Int_Tables_number	1
_symmetry_cell_setting	triclinic
loop_
_symmetry_equiv_pos_as_xyz
  x,y,z
_cell_length_a	15.944551
_cell_length_b	10.540539
_cell_length_c	14.421503
_cell_angle_alpha	90.004656
_cell_angle_beta	89.997003
_cell_angle_gamma	84.012115
loop_
_atom_site_label
_atom_site_type_symbol
_atom_site_fract_x
_atom_site_fract_y
_atom_site_fract_z
O1	O	-1.115505	-0.163698	0.077010
O2	O	-0.871075	-0.183882	0.077033
O3	O	-0.998867	0.010992	0.077020
O4	O	-0.987714	-0.358572	0.077023
O5	O	-0.998846	0.010970	-0.077203
O6	O	-0.871055	-0.183904	-0.077190
O7	O	-1.115484	-0.163720	-0.077213
Cu8	Cu	-0.993268	-0.173814	-0.091284
Cu9	Cu	-0.993292	-0.173788	0.091104
O10	O	-0.987693	-0.358595	-0.077200
C11	C	-0.998020	0.058273	-0.000090
C12	C	-0.995518	0.199187	-0.000085
C13	C	-0.839766	-0.183055	-0.000076
C14	C	-0.746505	-0.180543	-0.000067
C15	C	-1.146793	-0.164547	-0.000102
C16	C	-1.240055	-0.167059	-0.000105
C17	C	-0.530893	-0.053746	-0.000086
C18	C	-0.470234	-0.112615	0.075955
C19	C	-0.575752	-0.175998	-0.000078
C20	C	-0.470236	-0.112666	-0.076098
C21	C	-0.410813	-0.171600	-0.000093
C22	C	-0.516322	-0.234901	0.076026
C23	C	-0.516330	-0.234935	-0.076095
C24	C	-0.455689	-0.293893	-0.000036
C25	C	-0.670770	-0.178529	-0.000069
C26	C	-0.315797	-0.169079	-0.000095
C27	C	-0.988540	-0.405875	-0.000088
C28	C	-0.991042	-0.546789	-0.000087
N29	N	-0.993257	-0.173832	-0.219565
C30	C	-0.899630	0.381308	0.000270
C31	C	-0.902167	0.234725	-0.000077
C32	C	-1.040430	0.261444	-0.088158
C33	C	-1.037244	0.407945	-0.088232
C34	C	-1.039166	0.408514	0.087149
C35	C	-1.040026	0.261544	0.088313
C36	C	-0.934663	-0.264647	-0.531012
C37	C	-0.916985	-0.150296	-0.469183
C38	C	-0.993291	-0.173782	-0.591454
C39	C	-1.010913	-0.288155	-0.469189
C40	C	-0.993272	-0.173813	-0.408732
C41	C	-0.975575	-0.059372	-0.530985
C42	C	-1.069537	-0.197306	-0.530997
C43	C	-1.051890	-0.082872	-0.469196
C44	C	-0.993300	-0.173766	-0.696715
C45	C	-0.993264	-0.173815	-0.303473
N46	N	-0.993309	-0.173760	0.219385
H47	H	-0.449824	-0.060899	0.140241
H48	H	-0.866827	0.191649	0.063058
C49	C	-0.543741	-0.304680	0.162976
C50	C	-0.525005	-0.253957	0.260128
C51	C	-0.552426	-0.323728	0.347079
C52	C	-0.598583	-0.444223	0.336877
C53	C	-0.617322	-0.494953	0.239720
C54	C	-0.589901	-0.425181	0.152770
H55	H	-0.490834	-0.164753	0.267684
H56	H	-0.538554	-0.286174	0.419001
H57	H	-0.618881	-0.495873	0.401243
H58	H	-0.651492	-0.584157	0.232164
H59	H	-0.603773	-0.462736	0.080848
C60	C	-0.411693	-0.431087	0.000025
C61	C	-0.426652	-0.522018	0.080532
C62	C	-0.382650	-0.659207	0.080601
C63	C	-0.323689	-0.705464	0.000163
C64	C	-0.308728	-0.614531	-0.080351
C65	C	-0.352730	-0.477343	-0.080419
H66	H	-0.470301	-0.487778	0.140083
H67	H	-0.393726	-0.726521	0.140203
H68	H	-0.291116	-0.807019	0.000213
H69	H	-0.265079	-0.648772	-0.139901
H70	H	-0.341654	-0.410029	-0.140021
C71	C	-1.118860	0.021025	-0.432748
C72	C	-1.172926	0.106324	-0.501439
C73	C	-1.239889	0.210225	-0.464988
C74	C	-1.252787	0.228826	-0.359847
C75	C	-1.198719	0.143525	-0.291150
C76	C	-1.131755	0.039624	-0.327600
H77	H	-1.163380	0.092557	-0.579276
H78	H	-1.279914	0.273371	-0.515843
H79	H	-1.302357	0.305740	-0.332864
H80	H	-1.208265	0.157292	-0.213312
H81	H	-1.091731	-0.023521	-0.276745
H82	H	-0.885056	-0.341389	-0.558154
H83	H	-1.106593	0.456658	0.087735
C84	C	-0.829872	-0.123418	-0.432492
C85	C	-0.751061	-0.214421	-0.456892
C86	C	-0.663946	-0.187553	-0.420204
C87	C	-0.655642	-0.069682	-0.359118
C88	C	-0.734455	0.021329	-0.334716
C89	C	-0.821570	-0.005539	-0.371403
H90	H	-0.757206	-0.301683	-0.502114
H91	H	-0.605603	-0.254926	-0.438269
H92	H	-0.591154	-0.049793	-0.331960
H93	H	-0.728310	0.108591	-0.289493
H94	H	-0.879913	0.061834	-0.353338
C95	C	-0.955329	0.071311	-0.567489
C96	C	-1.019402	0.151566	-0.629205
C97	C	-0.999156	0.282247	-0.665709
C98	C	-0.914835	0.332674	-0.640497
C99	C	-0.850756	0.252418	-0.578778
C100	C	-0.871002	0.121737	-0.542274
H101	H	-1.081827	0.114238	-0.647872
H102	H	-1.046592	0.341658	-0.711398
H103	H	-0.899847	0.429412	-0.667519
H104	H	-0.788331	0.289746	-0.560111
H105	H	-0.823566	0.062326	-0.496585
C106	C	-0.575079	0.083334	0.000010
C107	C	-0.560301	0.174292	0.080567
C108	C	-0.604489	0.311368	0.080668
C109	C	-0.663455	0.357485	0.000212
C110	C	-0.678236	0.266524	-0.080351
C111	C	-0.634048	0.129449	-0.080452
H112	H	-0.516649	0.140155	0.140131
H113	H	-0.593547	0.378702	0.140307
H114	H	-0.696165	0.458956	0.000287
H115	H	-0.721888	0.300661	-0.139915
H116	H	-0.644990	0.062115	-0.140091
C117	C	-0.543947	-0.304738	-0.162942
C118	C	-0.526059	-0.253430	-0.260150
C119	C	-0.553682	-0.323219	-0.347007
C120	C	-0.599192	-0.444316	-0.336654
C121	C	-0.617083	-0.495631	-0.239442
C122	C	-0.589460	-0.425842	-0.152586
H123	H	-0.492368	-0.163781	-0.267817
H124	H	-0.540438	-0.285231	-0.418969
H125	H	-0.619640	-0.495978	-0.400950
H126	H	-0.650774	-0.585280	-0.231775
H127	H	-0.602704	-0.463829	-0.080623
C128	C	-0.849827	0.419272	0.085600
C129	C	-0.834147	0.559549	0.100403
C130	C	-0.784349	0.597520	0.185741
C131	C	-0.750230	0.495214	0.256276
C132	C	-0.765909	0.354928	0.241475
C133	C	-0.815707	0.316957	0.156137
H134	H	-0.859405	0.635290	0.048187
H135	H	-0.772742	0.701369	0.196697
H136	H	-0.713366	0.523322	0.319448
H137	H	-0.740651	0.279187	0.293691
H138	H	-0.827314	0.213108	0.145181
C139	C	-0.442674	-0.042806	-0.162946
C140	C	-0.476046	0.097744	-0.179630
C141	C	-0.448488	0.167614	-0.266473
C142	C	-0.387558	0.096934	-0.336633
C143	C	-0.354181	-0.043624	-0.319951
C144	C	-0.381739	-0.113494	-0.233108
H145	H	-0.521154	0.150072	-0.127692
H146	H	-0.473196	0.271664	-0.278822
H147	H	-0.367157	0.148656	-0.400920
H148	H	-0.309074	-0.095952	-0.371889
H149	H	-0.357032	-0.217544	-0.220759
H150	H	-0.862896	0.411007	-0.062528
C151	C	-1.156627	-0.224227	-0.567716
C152	C	-1.192041	-0.350534	-0.543383
C153	C	-1.279131	-0.377471	-0.580105
C154	C	-1.330805	-0.278101	-0.641159
C155	C	-1.295391	-0.151786	-0.665496
C156	C	-1.208302	-0.124848	-0.628774
H157	H	-1.153788	-0.424101	-0.498184
H158	H	-1.305346	-0.470979	-0.562089
H159	H	-1.395274	-0.298042	-0.668343
H160	H	-1.333644	-0.078218	-0.710695
H161	H	-1.182086	-0.031340	-0.646790
H162	H	-1.025836	-0.384870	-0.442062
H163	H	-1.104380	0.456827	-0.092233
H164	H	-1.004035	0.435683	-0.154062
H165	H	-0.866562	0.192475	-0.063310
H166	H	-1.009215	0.218410	-0.153693
H167	H	-1.108984	0.240023	-0.091439
H168	H	-1.008962	0.439665	0.153902
H169	H	-1.007164	0.220248	0.153467
H170	H	-1.108087	0.238250	0.093625
