data_functionalizedCrystal
_audit_creation_method	'MofGen! by Chris Wilmer'
_symmetry_space_group_name_H-M	'P1'
_symmetry_Int_Tables_number	1
_symmetry_cell_setting	triclinic
loop_
_symmetry_equiv_pos_as_xyz
  x,y,z
_cell_length_a	10.723024
_cell_length_b	19.188930
_cell_length_c	9.798715
_cell_angle_alpha	89.991738
_cell_angle_beta	89.996609
_cell_angle_gamma	83.806325
loop_
_atom_site_label
_atom_site_type_symbol
_atom_site_fract_x
_atom_site_fract_y
_atom_site_fract_z
O1	O	1.655155	0.097922	-0.113499
O2	O	1.291808	0.107295	-0.113506
O3	O	1.483967	0.001021	-0.113476
O4	O	1.462996	0.204196	-0.113529
O5	O	1.483952	0.001021	0.113507
O6	O	1.291793	0.107295	0.113477
O7	O	1.655140	0.097922	0.113483
Zn8	Zn	1.473465	0.102608	0.149518
Zn9	Zn	1.473483	0.102609	-0.149541
O10	O	1.462982	0.204196	0.113453
C11	C	1.245315	0.106613	-0.000015
C12	C	1.106803	0.104572	-0.000016
C13	C	1.030586	0.164037	-0.000033
C14	C	0.887427	0.161930	-0.000034
C15	C	1.483280	-0.024995	0.000019
C16	C	1.481242	-0.102512	0.000031
C17	C	1.593994	-0.146704	0.000040
C18	C	1.592079	-0.219540	0.000018
C19	C	1.477405	-0.248182	0.000015
C20	C	1.364638	-0.203981	-0.000001
C21	C	1.366556	-0.131146	0.000007
N22	N	1.389745	-0.356756	0.077260
N23	N	1.387931	-0.425947	0.077255
C24	C	1.471618	-0.467628	-0.000013
N25	N	1.557208	-0.437506	-0.077259
N26	N	1.559026	-0.368310	-0.077248
C27	C	1.475312	-0.327158	0.000005
C28	C	1.582302	-0.590797	-0.000030
C29	C	1.580382	-0.663634	-0.000061
C30	C	1.352937	-0.648073	-0.000066
C31	C	1.354860	-0.575238	-0.000049
C32	C	1.469546	-0.546604	-0.000025
C33	C	1.701633	0.098604	-0.000011
C34	C	1.840145	0.100645	-0.000019
C35	C	1.463668	0.230211	-0.000045
C36	C	1.465706	0.307729	-0.000066
N37	N	1.473461	0.102608	0.353618
N38	N	1.473497	0.102604	-0.353640
C39	C	1.554147	0.057789	0.421407
C40	C	1.554167	0.057787	0.578570
H41	H	0.905627	0.049735	-0.000013
H42	H	1.623251	0.019419	0.636866
C43	C	0.870131	0.287726	-0.000076
C44	C	0.799030	0.230658	-0.000059
H45	H	0.815554	0.330157	-0.000101
H46	H	0.921511	0.285869	0.079076
H47	H	0.921535	0.285862	-0.079232
H48	H	0.747633	0.232519	0.079103
H49	H	0.747628	0.232516	-0.079219
C50	C	0.977921	0.028806	-0.116688
C51	C	1.051833	0.033733	-0.000004
H52	H	0.943995	-0.014931	-0.116682
H53	H	0.911559	0.065835	-0.116685
H54	H	1.028092	0.032160	-0.195832
H55	H	1.001659	0.030383	0.079141
H56	H	1.118204	-0.003307	0.000006
H57	H	1.259567	-0.671393	-0.000075
H58	H	1.687380	-0.123395	0.000055
C59	C	1.721994	-0.035454	0.435431
C60	C	1.647385	0.005988	0.342700
H61	H	1.779550	-0.067438	0.386840
H62	H	1.766930	-0.006269	0.491141
H63	H	1.670096	-0.060771	0.491187
H64	H	1.699282	0.031309	0.286951
H65	H	1.602446	-0.023201	0.286967
C66	C	1.817091	-0.227612	0.000060
C67	C	1.716025	-0.268127	0.000037
H68	H	1.893608	-0.257608	0.000081
H69	H	1.813127	-0.198877	-0.079089
H70	H	1.813089	-0.198884	0.079219
H71	H	1.720022	-0.296851	-0.079128
H72	H	1.719991	-0.296874	0.079194
C73	C	1.230554	-0.276859	-0.116685
C74	C	1.238587	-0.235463	-0.000003
H75	H	1.152735	-0.296297	-0.116683
H76	H	1.236029	-0.248761	-0.195822
H77	H	1.297441	-0.313601	-0.116667
H78	H	1.171704	-0.198717	-0.000025
H79	H	1.233099	-0.263562	0.079155
C80	C	1.141546	-0.123082	0.000001
C81	C	1.242609	-0.082566	0.000011
H82	H	1.065028	-0.093089	0.000015
H83	H	1.145531	-0.151801	-0.079155
H84	H	1.145532	-0.151827	0.079153
H85	H	1.238629	-0.053825	-0.079147
H86	H	1.238622	-0.053835	0.079175
C87	C	1.776745	-0.581610	-0.116726
C88	C	1.708356	-0.559313	-0.000033
H89	H	1.854561	-0.562169	-0.116732
H90	H	1.791743	-0.631306	-0.116724
H91	H	1.730317	-0.566465	-0.195864
H92	H	1.754781	-0.574462	0.079106
H93	H	1.693362	-0.509606	-0.000022
C94	C	1.305652	0.195849	0.660425
C95	C	1.380236	0.154410	0.567683
H96	H	1.248083	0.227835	0.611843
H97	H	1.260730	0.166662	0.716168
H98	H	1.357564	0.221164	0.716146
H99	H	1.328324	0.129091	0.511968
H100	H	1.425161	0.183601	0.511916
C101	C	1.216739	0.223252	-0.000043
C102	C	1.085560	0.234876	-0.000048
H103	H	1.250672	0.266987	-0.000060
H104	H	1.244248	0.197450	0.079113
H105	H	1.244259	0.197446	-0.079195
H106	H	1.058039	0.260678	0.079110
H107	H	1.058040	0.260689	-0.079212
C108	C	1.129856	-0.567175	-0.000036
C109	C	1.230917	-0.526658	-0.000034
H110	H	1.053337	-0.537182	-0.000020
H111	H	1.133839	-0.595896	-0.079190
H112	H	1.133846	-0.595919	0.079118
H113	H	1.226933	-0.497918	-0.079194
H114	H	1.226932	-0.497925	0.079128
H115	H	1.672202	-0.699615	-0.000061
H116	H	1.404392	0.140974	0.411931
