data_functionalizedCrystal
_audit_creation_method	'MofGen! by Chris Wilmer'
_symmetry_space_group_name_H-M	'P1'
_symmetry_Int_Tables_number	1
_symmetry_cell_setting	triclinic
loop_
_symmetry_equiv_pos_as_xyz
  x,y,z
_cell_length_a	11.792241
_cell_length_b	10.268362
_cell_length_c	11.792253
_cell_angle_alpha	89.993099
_cell_angle_beta	95.803993
_cell_angle_gamma	90.000426
loop_
_atom_site_label
_atom_site_type_symbol
_atom_site_fract_x
_atom_site_fract_y
_atom_site_fract_z
O1	O	1.506917	0.108191	-0.155561
O2	O	1.176576	0.108223	-0.171594
O3	O	1.349755	0.108179	0.001592
O4	O	1.333737	0.108235	-0.328747
O5	O	1.349739	-0.108421	0.001586
O6	O	1.176560	-0.108377	-0.171600
O7	O	1.506900	-0.108409	-0.155567
Cu8	Cu	1.341728	-0.128171	-0.163584
Cu9	Cu	1.341748	0.127985	-0.163577
O10	O	1.333721	-0.108366	-0.328753
C11	C	1.134277	-0.000073	-0.170590
C12	C	1.008263	-0.000062	-0.167576
C13	C	0.777551	-0.000101	-0.162033
C14	C	0.905936	-0.000080	-0.165112
N15	N	1.341723	-0.308337	-0.163588
C16	C	1.341731	-0.426179	-0.163589
C17	C	1.341745	-0.574017	-0.163579
C18	C	1.549199	-0.000110	-0.156571
C19	C	1.675213	-0.000112	-0.159586
C20	C	1.348738	-0.000125	0.043880
C21	C	1.345718	-0.000137	0.169893
N22	N	1.341762	0.308150	-0.163564
C23	C	1.343264	-0.000143	0.272229
C24	C	1.340196	-0.000145	0.400616
C25	C	1.334738	-0.000085	0.628959
C26	C	1.337758	-0.000146	0.502946
