data_functionalizedCrystal
_audit_creation_method	'MofGen! by Chris Wilmer'
_symmetry_space_group_name_H-M	'P1'
_symmetry_Int_Tables_number	1
_symmetry_cell_setting	triclinic
loop_
_symmetry_equiv_pos_as_xyz
  x,y,z
_cell_length_a	17.038272
_cell_length_b	14.519709
_cell_length_c	13.596369
_cell_angle_alpha	90.006934
_cell_angle_beta	89.999553
_cell_angle_gamma	87.395851
loop_
_atom_site_label
_atom_site_type_symbol
_atom_site_fract_x
_atom_site_fract_y
_atom_site_fract_z
O1	O	-1.037692	-0.200289	-0.081672
O2	O	-0.537692	0.299711	0.418328
O3	O	-0.810056	-0.197108	-0.081701
O4	O	-0.310056	0.302892	0.418299
O5	O	-0.929910	-0.064922	-0.081677
O6	O	-0.429910	0.435078	0.418323
O7	O	-0.917839	-0.332475	-0.081696
O8	O	-0.417839	0.167525	0.418304
O9	O	-0.929898	-0.064913	0.081906
O10	O	-0.429898	0.435087	0.581906
O11	O	-0.810044	-0.197100	0.081882
O12	O	-0.310044	0.302900	0.581882
O13	O	-1.037680	-0.200280	0.081911
O14	O	-0.537680	0.299720	0.581911
Zn15	Zn	-0.923860	-0.198689	0.107869
Zn16	Zn	-0.423860	0.301311	0.607869
Zn17	Zn	-0.923876	-0.198700	-0.107659
Zn18	Zn	-0.423876	0.301300	0.392341
O19	O	-0.917827	-0.332467	0.081887
O20	O	-0.417827	0.167533	0.581887
C21	C	-0.929341	-0.030515	0.000115
C22	C	-0.429341	0.469485	0.500115
C23	C	-0.927655	0.071996	0.000115
C24	C	-0.427655	0.571996	0.500115
C25	C	-0.780917	-0.194212	0.000087
C26	C	-0.280917	0.305788	0.500087
C27	C	-0.694110	-0.185582	0.000076
C28	C	-0.194110	0.314418	0.500076
C29	C	-1.066819	-0.203177	0.000121
C30	C	-0.566819	0.296823	0.500121
C31	C	-1.153626	-0.211807	0.000125
C32	C	-0.653626	0.288193	0.500125
C33	C	-0.644125	-0.264814	0.000071
C34	C	-0.144125	0.235186	0.500071
C35	C	-0.562561	-0.256700	0.000085
C36	C	-0.062561	0.243300	0.500085
C37	C	-0.530985	-0.169352	0.000097
C38	C	-0.030985	0.330648	0.500097
C39	C	-0.580977	-0.090114	0.000105
C40	C	-0.080977	0.409886	0.500105
C41	C	-0.662539	-0.098229	0.000098
C42	C	-0.162539	0.401771	0.500098
C43	C	-0.285180	-0.140683	0.000126
C44	C	0.214820	0.359317	0.500126
C45	C	-0.203612	-0.132574	0.000130
C46	C	0.296388	0.367426	0.500130
C47	C	-0.185201	-0.299161	0.000112
C48	C	0.314799	0.200839	0.500112
C49	C	-0.266766	-0.307269	0.000099
C50	C	0.233234	0.192731	0.500099
C51	C	-0.316751	-0.228030	0.000112
C52	C	0.183249	0.271970	0.500112
C53	C	-0.447614	-0.161056	0.000109
C54	C	0.052386	0.338944	0.500109
C55	C	-0.400120	-0.236327	0.000107
C56	C	0.099880	0.263673	0.500107
C57	C	-0.918395	-0.366874	0.000093
C58	C	-0.418395	0.133126	0.500093
C59	C	-0.920081	-0.469384	0.000086
C60	C	-0.420081	0.030616	0.500086
N61	N	-0.923855	-0.198681	0.254960
N62	N	-0.423855	0.301319	0.754960
C63	C	-0.921449	0.447366	0.000089
C64	C	-0.421449	0.947366	0.500089
C65	C	-0.923173	0.342926	0.000096
C66	C	-0.423173	0.842926	0.500096
C67	C	-0.924552	0.259684	0.000103
C68	C	-0.424552	0.759684	0.500103
C69	C	-0.926276	0.155238	0.000108
C70	C	-0.426276	0.655238	0.500108
N71	N	-0.923887	-0.198701	-0.254751
N72	N	-0.423887	0.301299	0.245249
C73	C	-0.923875	-0.198701	0.656251
C74	C	-0.423875	0.301299	1.156251
C75	C	-0.923867	-0.198698	0.544600
C76	C	-0.423867	0.301302	1.044600
C77	C	-0.923866	-0.198692	0.455609
C78	C	-0.423866	0.301308	0.955609
C79	C	-0.923857	-0.198688	0.343951
C80	C	-0.423857	0.301312	0.843951
H81	H	-0.669827	-0.335942	0.000061
H82	H	-0.169827	0.164058	0.500061
H83	H	-0.292469	-0.378396	0.000078
H84	H	0.207531	0.121604	0.500078
C85	C	-0.717527	-0.011076	0.000102
C86	C	-0.217527	0.488924	0.500102
H87	H	-0.770624	-0.028418	0.000107
H88	H	-0.270624	0.471582	0.500107
H89	H	-0.707942	0.024479	-0.056936
H90	H	-0.207942	0.524479	0.443064
H91	H	-0.707944	0.024475	0.057161
H92	H	-0.207944	0.524475	0.557161
C93	C	-0.507580	-0.343856	0.000077
C94	C	-0.007580	0.156144	0.500077
H95	H	-0.538067	-0.397039	0.000056
H96	H	-0.038067	0.102961	0.500056
H97	H	-0.475384	-0.344156	0.057125
H98	H	0.024616	0.155844	0.557125
H99	H	-0.475376	-0.344152	-0.056972
H100	H	0.024624	0.155848	0.443028
C101	C	-0.130221	-0.386318	0.000102
C102	C	0.369779	0.113682	0.500102
H103	H	-0.160709	-0.439500	0.000087
H104	H	0.339291	0.060500	0.500087
H105	H	-0.098022	-0.386617	0.057148
H106	H	0.401978	0.113383	0.557148
H107	H	-0.098021	-0.386616	-0.056949
H108	H	0.401979	0.113384	0.443051
H109	H	-0.425833	-0.307445	0.000103
H110	H	0.074167	0.192555	0.500103
H111	H	-0.177906	-0.061442	0.000139
H112	H	0.322094	0.438558	0.500139
C113	C	-0.340153	-0.053524	0.000133
C114	C	0.159847	0.446476	0.500133
H115	H	-0.309664	-0.000343	0.000131
H116	H	0.190336	0.499657	0.500131
H117	H	-0.372356	-0.053221	0.057177
H118	H	0.127644	0.446779	0.557177
H119	H	-0.372351	-0.053226	-0.056920
H120	H	0.127649	0.446774	0.443080
H121	H	-0.555261	-0.018993	0.000129
H122	H	-0.055261	0.481007	0.500129
H123	H	-0.421895	-0.089937	0.000146
H124	H	0.078105	0.410063	0.500146
