data_functionalizedCrystal
_audit_creation_method	'MofGen! by Chris Wilmer'
_symmetry_space_group_name_H-M	'P1'
_symmetry_Int_Tables_number	1
_symmetry_cell_setting	triclinic
loop_
_symmetry_equiv_pos_as_xyz
  x,y,z
_cell_length_a	19.805407
_cell_length_b	12.645330
_cell_length_c	19.805399
_cell_angle_alpha	90.021721
_cell_angle_beta	90.017803
_cell_angle_gamma	90.015008
loop_
_atom_site_label
_atom_site_type_symbol
_atom_site_fract_x
_atom_site_fract_y
_atom_site_fract_z
Zn1	Zn	1.034777	-0.422140	0.382715
Zn2	Zn	1.034709	-0.599418	0.269539
Zn3	Zn	0.921591	-0.422161	0.269543
Zn4	Zn	0.921572	-0.599353	0.382689
O5	O	0.978162	-0.510768	0.326121
O6	O	1.129484	-0.445674	0.367711
O7	O	1.019683	-0.575940	0.174823
O8	O	0.936642	-0.273811	0.284569
O9	O	1.129434	-0.575920	0.284561
O10	O	1.019799	-0.273795	0.367716
O11	O	0.936576	-0.445710	0.174826
O12	O	0.826872	-0.445647	0.284543
O13	O	0.936609	-0.575810	0.477409
O14	O	0.826858	-0.575830	0.367671
O15	O	1.019780	-0.445612	0.477428
O16	O	1.019664	-0.747757	0.284535
O17	O	0.936543	-0.747709	0.367666
C18	C	0.802306	-0.510735	0.326105
C19	C	0.727074	-0.510746	0.326114
C20	C	0.978113	-0.786198	0.326112
C21	C	0.978154	-0.904028	0.326131
C22	C	0.691757	-0.443047	0.369476
C23	C	0.621068	-0.443053	0.369479
C24	C	0.585699	-0.510763	0.326122
C25	C	0.621021	-0.578465	0.282755
C26	C	0.691708	-0.578454	0.282750
C27	C	0.335948	-0.578513	0.282776
C28	C	0.265256	-0.578522	0.282786
C29	C	0.265308	-0.443112	0.369505
C30	C	0.335995	-0.443100	0.369500
C31	C	0.371311	-0.510798	0.326130
C32	C	0.447960	-0.510790	0.326127
C33	C	0.509051	-0.510778	0.326128
C34	C	0.926078	-1.071606	0.378590
C35	C	0.925811	-0.949047	0.378421
C36	C	0.958847	-0.948614	0.254799
C37	C	0.958529	-1.071213	0.255117
C38	C	1.049854	-1.071124	0.344425
C39	C	1.049415	-0.948517	0.345985
C40	C	1.154705	-0.510802	0.326138
C41	C	1.229937	-0.510817	0.326146
C42	C	0.978200	-0.510701	0.502664
C43	C	0.978216	-0.510673	0.577896
C44	C	0.978230	-0.234263	0.326146
C45	C	0.978259	-0.116433	0.326156
C46	C	0.978163	-0.510758	0.150266
C47	C	0.978278	-0.510488	0.075034
C48	C	1.021524	-0.442875	0.613252
C49	C	1.021531	-0.442845	0.683940
C50	C	0.978233	-0.510617	0.719272
C51	C	0.934920	-0.578418	0.683912
C52	C	0.934910	-0.578443	0.613224
C53	C	0.934958	-0.578319	0.968985
C54	C	0.934973	-0.578291	1.039677
C55	C	1.021579	-0.442721	1.039701
C56	C	1.021570	-0.442746	0.969014
C57	C	0.978254	-0.510542	0.933659
C58	C	0.978247	-0.510573	0.857011
C59	C	0.978244	-0.510592	0.795919
H60	H	0.720550	-0.387912	0.404784
H61	H	0.364694	-0.633637	0.247463
H62	H	0.994887	-1.100869	0.214718
H63	H	0.592217	-0.633591	0.247450
C64	C	0.541596	-0.300488	0.379051
C65	C	0.582245	-0.368643	0.417147
H66	H	0.517631	-0.254546	0.408482
H67	H	0.510420	-0.340813	0.353234
H68	H	0.569172	-0.259871	0.349609
H69	H	0.554668	-0.409267	0.446586
H70	H	0.613425	-0.328314	0.442976
H71	H	0.907057	-0.917998	0.239043
H72	H	0.938045	-1.101023	0.431655
C73	C	1.152759	-0.850610	0.335407
C74	C	1.104668	-0.907152	0.298185
H75	H	1.186866	-0.825071	0.305891
H76	H	1.172488	-0.895767	0.368252
H77	H	1.131537	-0.792633	0.357312
H78	H	1.125889	-0.965134	0.276284
H79	H	1.084937	-0.861992	0.265328
H80	H	0.236545	-0.387986	0.404816
C81	C	0.684561	-0.712318	0.197037
C82	C	0.730532	-0.652878	0.235089
H83	H	0.708530	-0.758268	0.167615
H84	H	0.656987	-0.666083	0.171199
H85	H	0.656996	-0.752929	0.226494
H86	H	0.758094	-0.612260	0.205633
H87	H	0.758117	-0.699118	0.260929
H88	H	1.056846	-0.387515	1.068495
C89	C	0.820297	-0.630021	0.705655
C90	C	0.887324	-0.652915	0.722747
H91	H	0.790915	-0.676013	0.729633
H92	H	0.814097	-0.639741	0.658502
H93	H	0.810420	-0.558786	0.717250
H94	H	0.897203	-0.724148	0.711146
H95	H	0.893527	-0.643205	0.769910
C96	C	0.843845	-0.593194	0.533722
C97	C	0.887305	-0.652975	0.574365
H98	H	0.814451	-0.639210	0.509737
H99	H	0.869627	-0.552848	0.502563
H100	H	0.817974	-0.546992	0.561305
H101	H	0.913180	-0.699172	0.546781
H102	H	0.861520	-0.693340	0.605527
C103	C	0.854803	-1.223916	0.365750
C104	C	0.854872	-1.113307	0.362458
H105	H	0.810844	-1.249659	0.355784
H106	H	0.867486	-1.245743	0.409848
H107	H	0.886025	-1.251359	0.333840
H108	H	0.823653	-1.085863	0.394371
H109	H	0.842180	-1.091470	0.318353
C110	C	0.328944	-0.309240	0.455216
C111	C	0.374872	-0.368667	0.417156
H112	H	0.352947	-0.263281	0.484632
H113	H	0.301382	-0.355483	0.481060
H114	H	0.301364	-0.268639	0.425764
H115	H	0.402450	-0.409274	0.446608
H116	H	0.402446	-0.322418	0.391310
H117	H	1.088731	-1.100112	0.306235
H118	H	0.899712	-0.633482	1.068442
C119	C	0.830198	-0.848075	0.415773
C120	C	0.854160	-0.909569	0.362078
H121	H	0.785960	-0.823712	0.405682
H122	H	0.859272	-0.789213	0.422335
H123	H	0.829102	-0.889607	0.455715
H124	H	0.855261	-0.868035	0.322137
H125	H	0.825078	-0.968440	0.355508
H126	H	1.067466	-1.101973	0.395556
C127	C	0.272301	-0.712361	0.197048
C128	C	0.226376	-0.652947	0.235120
H129	H	0.248296	-0.758300	0.167621
H130	H	0.299878	-0.752972	0.226487
H131	H	0.299866	-0.666101	0.171208
H132	H	0.198813	-0.699207	0.260964
H133	H	0.198786	-0.612333	0.205678
C134	C	0.952192	-0.994388	0.493142
C135	C	0.942101	-0.908339	0.449826
H136	H	0.962240	-0.969258	0.537228
H137	H	0.988759	-1.035932	0.477060
H138	H	0.912414	-1.036322	0.494524
H139	H	0.981881	-0.866409	0.448440
H140	H	0.905531	-0.866777	0.465912
C141	C	0.901918	-0.757822	0.947212
C142	C	0.887340	-0.652836	0.930137
H143	H	0.872517	-0.803823	0.923225
H144	H	0.895738	-0.767493	0.994363
H145	H	0.947386	-0.773352	0.935617
H146	H	0.841873	-0.637304	0.941736
H147	H	0.893515	-0.643161	0.882975
H148	H	0.906193	-1.099899	0.239641
C149	C	1.107129	-0.308855	0.620383
C150	C	1.069119	-0.368373	0.574418
H151	H	1.136508	-0.262854	0.596408
H152	H	1.133012	-0.355038	0.647951
H153	H	1.077644	-0.268295	0.647954
H154	H	1.098603	-0.408940	0.546850
H155	H	1.043234	-0.322185	0.546839
H156	H	1.056799	-0.387640	0.712723
C157	C	1.040272	-0.996057	0.170271
C158	C	1.008549	-0.909274	0.200630
H159	H	1.070966	-0.971773	0.136839
H160	H	1.007226	-1.040119	0.149831
H161	H	1.064148	-1.035125	0.203555
H162	H	0.984668	-0.870211	0.167347
H163	H	1.041600	-0.865195	0.221070
C164	C	1.078761	-0.996030	0.459623
C165	C	1.069045	-0.909194	0.416865
H166	H	1.090865	-0.971754	0.503386
H167	H	1.113831	-1.039370	0.442192
H168	H	1.038172	-1.035849	0.462296
H169	H	1.109636	-0.869380	0.414188
H170	H	1.033973	-0.865836	0.434300
H171	H	1.056830	-0.387562	0.940250
