data_functionalizedCrystal
_audit_creation_method	'MofGen! by Chris Wilmer'
_symmetry_space_group_name_H-M	'P1'
_symmetry_Int_Tables_number	1
_symmetry_cell_setting	triclinic
loop_
_symmetry_equiv_pos_as_xyz
  x,y,z
_cell_length_a	6.817900
_cell_length_b	11.102288
_cell_length_c	10.943624
_cell_angle_alpha	91.861856
_cell_angle_beta	108.838799
_cell_angle_gamma	108.605689
loop_
_atom_site_label
_atom_site_type_symbol
_atom_site_fract_x
_atom_site_fract_y
_atom_site_fract_z
V1	V	-4.114282	-0.175806	-0.402551
O2	O	-4.073263	0.008482	-0.394888
O3	O	-4.091041	-0.348626	-0.399798
O4	O	-4.092264	-0.173087	-0.578118
O5	O	-4.072031	-0.168273	-0.215334
V6	V	-4.591232	-0.153765	-0.380159
O7	O	-4.389960	-0.224155	-0.451671
O8	O	-4.765752	-0.105415	-0.331038
O9	O	-4.391267	0.019056	-0.382912
O10	O	-4.749649	-0.338053	-0.387822
O11	O	-4.750880	-0.161298	-0.567376
O12	O	-4.390044	-0.156484	-0.204592
C13	C	-3.941308	-0.390757	-0.393448
C14	C	-4.003768	-0.532040	-0.392367
C15	C	-4.217163	-0.604887	-0.398301
C16	C	-4.275844	-0.737639	-0.397296
C17	C	-3.907710	-0.724682	-0.384417
C18	C	-3.849037	-0.591934	-0.385432
C19	C	-3.942867	-0.166837	-0.620910
C20	C	-4.006314	-0.165757	-0.764437
C21	C	-3.851194	-0.158485	-0.841584
C22	C	-4.039808	-0.266416	-0.947575
C23	C	-3.930779	-0.055914	-0.914188
C24	C	-4.194138	-0.273789	-0.868550
C25	C	-4.085029	-0.063191	-0.835140
C26	C	-4.273779	-0.171153	-0.941100
C27	C	-4.204342	0.061180	-0.389258
C28	C	-4.121122	0.202461	-0.390347
C29	C	-4.202783	-0.162738	-0.161793
C30	C	-4.118573	-0.163811	-0.018265
H31	H	-4.021354	-0.352332	-0.996523
H32	H	-3.675261	-0.532620	-0.380605
C33	C	-4.343755	-0.398325	-0.840810
C34	C	-4.310880	-0.422411	-0.698981
C35	C	-4.460486	-0.546946	-0.671238
C36	C	-4.642967	-0.647396	-0.785324
C37	C	-4.675850	-0.623313	-0.927163
C38	C	-4.526245	-0.498778	-0.954906
H39	H	-4.175789	-0.348050	-0.614519
H40	H	-4.436142	-0.564773	-0.566238
H41	H	-4.753714	-0.739584	-0.764786
H42	H	-4.810941	-0.697674	-1.011625
H43	H	-4.550588	-0.480951	-1.059905
C44	C	-4.109839	0.052878	-0.768952
C45	C	-4.336566	0.069873	-0.808806
C46	C	-4.361347	0.185956	-0.742612
C47	C	-4.159402	0.285044	-0.636563
C48	C	-3.932659	0.268052	-0.596703
C49	C	-3.907877	0.151969	-0.662897
H50	H	-4.486073	-0.003480	-0.887315
H51	H	-4.529199	0.198534	-0.772120
H52	H	-4.177746	0.370975	-0.587562
H53	H	-3.783152	0.341405	-0.518194
H54	H	-3.740026	0.139391	-0.633390
H55	H	-3.820065	0.036144	-0.934950
H56	H	-3.672030	-0.153274	-0.798136
H57	H	-4.449608	-0.796947	-0.402130
H58	H	-4.343158	-0.556125	-0.403946
H59	H	-4.453057	-0.176535	-0.984345
H60	H	-3.781741	-0.773464	-0.378768
