data_functionalizedCrystal
_audit_creation_method	'MofGen! by Chris Wilmer'
_symmetry_space_group_name_H-M	'P1'
_symmetry_Int_Tables_number	1
_symmetry_cell_setting	triclinic
loop_
_symmetry_equiv_pos_as_xyz
  x,y,z
_cell_length_a	16.109302
_cell_length_b	15.538191
_cell_length_c	15.186229
_cell_angle_alpha	89.999546
_cell_angle_beta	89.994701
_cell_angle_gamma	65.366938
loop_
_atom_site_label
_atom_site_type_symbol
_atom_site_fract_x
_atom_site_fract_y
_atom_site_fract_z
O1	O	1.066615	0.121097	-0.073258
O2	O	0.820009	0.136166	-0.073250
O3	O	0.991316	-0.008513	-0.073260
O4	O	0.895308	0.265775	-0.073248
O5	O	0.991308	-0.008515	0.073198
O6	O	0.820001	0.136164	0.073207
O7	O	1.066607	0.121095	0.073199
Zn8	Zn	0.943303	0.128629	0.096456
Zn9	Zn	0.943313	0.128632	-0.096507
O10	O	0.895300	0.265773	0.073209
C11	C	0.789214	0.135554	-0.000020
C12	C	0.697471	0.133724	-0.000018
C13	C	0.486402	0.129490	0.079807
C14	C	0.400204	0.127760	0.079804
C15	C	0.400221	0.127767	-0.079872
C16	C	0.486421	0.129491	-0.079868
C17	C	0.529507	0.130357	-0.000026
C18	C	0.357109	0.126904	-0.000033
C19	C	0.263649	0.125028	-0.000037
C20	C	0.622974	0.132231	-0.000021
C21	C	1.001357	-0.043612	-0.000034
C22	C	1.031277	-0.148195	-0.000044
C23	C	0.734025	-0.435895	-0.000015
C24	C	0.762160	-0.534170	-0.000014
C25	C	0.920418	-0.556661	-0.000020
C26	C	0.892296	-0.458386	-0.000025
C27	C	0.799098	-0.398011	-0.000022
C28	C	0.957369	-0.420502	-0.000032
C29	C	0.929248	-0.322236	-0.000033
C30	C	0.836054	-0.261855	-0.000027
C31	C	0.770977	-0.299745	-0.000023
C32	C	1.050566	-0.480879	-0.000029
C33	C	1.115639	-0.442995	-0.000036
C34	C	1.087519	-0.344727	-0.000043
C35	C	0.994325	-0.284346	-0.000037
C36	C	1.152596	-0.306837	-0.000047
C37	C	1.124475	-0.208571	-0.000047
C38	C	0.966204	-0.186080	-0.000037
C39	C	1.097402	0.121706	-0.000032
C40	C	1.189145	0.123537	-0.000041
C41	C	0.885259	0.300873	-0.000018
C42	C	0.855339	0.405456	-0.000014
N43	N	0.943302	0.128626	0.228149
N44	N	0.943323	0.128626	-0.228200
C45	C	1.019169	0.064584	0.453868
C46	C	1.019173	0.064582	0.546057
C47	C	0.867449	0.192672	0.546075
C48	C	0.867444	0.192669	0.453887
C49	C	0.943308	0.128626	0.407786
C50	C	0.943317	0.128627	0.592163
C51	C	0.943320	0.128625	0.692120
C52	C	0.943305	0.128627	0.307823
H53	H	0.890313	-0.136918	-0.000041
H54	H	0.805682	0.244815	0.583620
H55	H	1.073459	-0.560893	-0.000036
O56	O	0.358441	0.126966	0.157432
C57	C	0.367548	0.127089	0.315809
C58	C	0.414936	0.128015	0.227955
H59	H	0.413211	0.127916	0.372849
H60	H	0.299710	0.192187	0.319864
H61	H	0.354660	0.060404	0.319749
H62	H	0.427887	0.194656	0.223956
H63	H	0.482739	0.062872	0.223937
H64	H	0.365130	0.127063	-0.144876
O65	O	0.528153	0.130373	-0.157501
C66	C	0.519105	0.130141	-0.315878
C67	C	0.471730	0.129166	-0.228029
H68	H	0.473517	0.129145	-0.372923
H69	H	0.531941	0.196853	-0.319922
H70	H	0.586973	0.065071	-0.319821
H71	H	0.403837	0.194190	-0.224027
H72	H	0.458965	0.062412	-0.224022
H73	H	0.813160	-0.181841	-0.000022
O74	O	0.680407	-0.241222	0.000009
C75	C	0.526387	-0.229272	-0.000058
C76	C	0.628920	-0.295655	-0.000072
H77	H	0.484730	-0.273253	-0.000143
H78	H	0.509203	-0.182716	0.061246
H79	H	0.509322	-0.182690	-0.061338
H80	H	0.646058	-0.342295	0.061167
H81	H	0.646050	-0.342146	-0.061417
O82	O	1.092870	0.002245	0.590724
C83	C	1.190993	-0.161553	0.618958
C84	C	1.107526	-0.091056	0.568304
H85	H	1.202856	-0.237002	0.600864
H86	H	1.253908	-0.149331	0.600805
H87	H	1.177965	-0.150508	0.692762
H88	H	1.120465	-0.102059	0.494488
H89	H	1.044638	-0.103296	0.586530
H90	H	0.658133	-0.386734	-0.000019
O91	O	0.698823	-0.570814	-0.000055
C92	C	0.538871	-0.538132	-0.000001
C93	C	0.610500	-0.496507	0.000024
H94	H	0.467447	-0.478075	0.000082
H95	H	0.548017	-0.583540	-0.061309
H96	H	0.548129	-0.583608	0.061276
H97	H	0.601286	-0.450988	-0.061211
H98	H	0.601335	-0.451152	0.061373
O99	O	0.793809	0.254796	0.408981
C100	C	0.726592	0.311596	0.266964
C101	C	0.810029	0.241178	0.317710
H102	H	0.739684	0.300624	0.193163
H103	H	0.663694	0.299304	0.285032
H104	H	0.714649	0.387048	0.285138
H105	H	0.822056	0.165699	0.299563
H106	H	0.872880	0.253553	0.299638
H107	H	0.521480	0.130196	0.144820
H108	H	0.996300	-0.605831	-0.000019
H109	H	1.191521	-0.492165	-0.000035
O110	O	1.092777	0.002423	0.408948
C111	C	1.159940	-0.054483	0.266921
C112	C	1.076543	0.016009	0.317679
H113	H	1.146836	-0.043536	0.193122
H114	H	1.222875	-0.042244	0.284942
H115	H	1.171827	-0.129909	0.285133
H116	H	1.064572	0.091463	0.299495
H117	H	1.013654	0.003689	0.299655
H118	H	1.228478	-0.356008	-0.000041
O119	O	1.187804	-0.171920	-0.000102
C120	C	1.347753	-0.204589	-0.000073
C121	C	1.276129	-0.246222	-0.000033
H122	H	1.419179	-0.264642	0.000001
H123	H	1.338606	-0.159184	-0.061382
H124	H	1.338488	-0.159109	0.061203
H125	H	1.285350	-0.291745	-0.061267
H126	H	1.285295	-0.291574	0.061316
