data_functionalizedCrystal
_audit_creation_method	'MofGen! by Chris Wilmer'
_symmetry_space_group_name_H-M	'P1'
_symmetry_Int_Tables_number	1
_symmetry_cell_setting	triclinic
loop_
_symmetry_equiv_pos_as_xyz
  x,y,z
_cell_length_a	18.215407
_cell_length_b	16.959453
_cell_length_c	18.215399
_cell_angle_alpha	89.971469
_cell_angle_beta	89.982632
_cell_angle_gamma	90.020170
loop_
_atom_site_label
_atom_site_type_symbol
_atom_site_fract_x
_atom_site_fract_y
_atom_site_fract_z
Zn1	Zn	1.125083	-0.314744	-0.416064
Zn2	Zn	1.625083	0.185256	0.083936
Zn3	Zn	1.124996	-0.446929	-0.292997
Zn4	Zn	1.624996	0.053071	0.207003
Zn5	Zn	1.002016	-0.314763	-0.293017
Zn6	Zn	1.502016	0.185237	0.206983
Zn7	Zn	1.001986	-0.446878	-0.416027
Zn8	Zn	1.501986	0.053122	0.083973
O9	O	1.063520	-0.380828	-0.354526
O10	O	1.563520	0.119172	0.145474
O11	O	1.228056	-0.332292	-0.399746
O12	O	1.728056	0.167708	0.100254
O13	O	1.108658	-0.429426	-0.190015
O14	O	1.608658	0.070574	0.309985
O15	O	1.018389	-0.204149	-0.309364
O16	O	1.518389	0.295851	0.190636
O17	O	1.227992	-0.429408	-0.309329
O18	O	1.727992	0.070592	0.190671
O19	O	1.108807	-0.204135	-0.399766
O20	O	1.608807	0.295865	0.100234
O21	O	1.018305	-0.332324	-0.190030
O22	O	1.518305	0.167676	0.309970
O23	O	0.899027	-0.332275	-0.309328
O24	O	1.399027	0.167725	0.190672
O25	O	1.018339	-0.429321	-0.519016
O26	O	1.518339	0.070679	-0.019016
O27	O	0.899006	-0.429339	-0.399702
O28	O	1.399006	0.070661	0.100298
O29	O	1.108778	-0.332242	-0.519044
O30	O	1.608778	0.167758	-0.019044
O31	O	1.108630	-0.557533	-0.309293
O32	O	1.608630	-0.057533	0.190707
O33	O	1.018255	-0.557496	-0.399683
O34	O	1.518255	-0.057496	0.100317
C35	C	0.872314	-0.380804	-0.354514
C36	C	1.372314	0.119196	0.145486
C37	C	0.790515	-0.380813	-0.354525
C38	C	1.290515	0.119187	0.145475
C39	C	1.063450	-0.586195	-0.354498
C40	C	1.563450	-0.086195	0.145502
C41	C	1.063487	-0.674051	-0.354510
C42	C	1.563487	-0.174051	0.145490
C43	C	0.602353	-0.330348	-0.401680
C44	C	1.102353	0.169652	0.098320
C45	C	0.525495	-0.330355	-0.401683
C46	C	1.025495	0.169645	0.098317
C47	C	0.525439	-0.431330	-0.307386
C48	C	1.025439	0.068670	0.192614
C49	C	0.602296	-0.431319	-0.307380
C50	C	1.102296	0.068681	0.192620
C51	C	0.640751	-0.380829	-0.354531
C52	C	1.140751	0.119171	0.145469
C53	C	0.487035	-0.380847	-0.354540
C54	C	0.987035	0.119153	0.145460
C55	C	0.403702	-0.380855	-0.354542
C56	C	0.903702	0.119145	0.145458
C57	C	0.724090	-0.380820	-0.354528
C58	C	1.224090	0.119180	0.145472
C59	C	1.016468	-0.715401	-0.307408
C60	C	1.516468	-0.215401	0.192592
C61	C	1.110537	-0.715255	-0.401628
C62	C	1.610537	-0.215255	0.098372
C63	C	1.110571	-0.797801	-0.401644
C64	C	1.610571	-0.297801	0.098356
C65	C	1.063553	-0.839151	-0.354542
C66	C	1.563553	-0.339151	0.145458
C67	C	1.016499	-0.797954	-0.307424
C68	C	1.516499	-0.297954	0.192576
C69	C	1.157619	-0.839004	-0.448766
C70	C	1.657619	-0.339004	0.051234
C71	C	1.157654	-0.921555	-0.448785
C72	C	1.657654	-0.421555	0.051215
C73	C	1.110638	-0.962906	-0.401679
C74	C	1.610638	-0.462906	0.098321
C75	C	1.063584	-0.921704	-0.354558
C76	C	1.563584	-0.421704	0.145442
C77	C	1.016565	-0.963054	-0.307457
C78	C	1.516565	-0.463054	0.192543
C79	C	0.969514	-0.921854	-0.260332
C80	C	1.469514	-0.421854	0.239668
C81	C	0.969484	-0.839305	-0.260318
C82	C	1.469484	-0.339305	0.239682
C83	C	1.110669	-1.045454	-0.401692
C84	C	1.610669	-0.545454	0.098308
C85	C	1.016596	-1.045607	-0.307473
C86	C	1.516596	-0.545607	0.192527
C87	C	1.255473	-0.380853	-0.354540
C88	C	1.755473	0.119147	0.145460
C89	C	1.337272	-0.380864	-0.354545
C90	C	1.837272	0.119136	0.145455
C91	C	1.063565	-0.380774	-0.546479
C92	C	1.563565	0.119226	-0.046479
C93	C	1.063584	-0.380751	-0.628278
C94	C	1.563584	0.119249	-0.128278
C95	C	1.063611	-0.174660	-0.354571
C96	C	1.563611	0.325340	0.145429
C97	C	1.063650	-0.086803	-0.354590
C98	C	1.563650	0.413197	0.145410
C99	C	1.110692	-0.330154	-0.816488
C100	C	1.610692	0.169846	-0.316488
C101	C	1.110701	-0.330131	-0.893347
C102	C	1.610701	0.169869	-0.393347
C103	C	1.016528	-0.431224	-0.893307
C104	C	1.516528	0.068776	-0.393307
C105	C	1.016516	-0.431243	-0.816449
C106	C	1.516516	0.068757	-0.316449
C107	C	1.063602	-0.380709	-0.778042
C108	C	1.563602	0.119291	-0.278042
C109	C	1.063623	-0.380668	-0.931758
C110	C	1.563623	0.119332	-0.431758
C111	C	1.063632	-0.380643	-1.015092
C112	C	1.563632	0.119357	-0.515092
C113	C	1.063592	-0.380732	-0.694703
C114	C	1.563592	0.119268	-0.194703
C115	C	1.063518	-0.380826	-0.163320
C116	C	1.563518	0.119174	0.336680
C117	C	1.063641	-0.380626	-0.081522
C118	C	1.563641	0.119374	0.418478
H119	H	0.494234	-0.289247	-0.440075
H120	H	0.994234	0.210753	0.059925
N121	N	0.643829	-0.275894	-0.452535
N122	N	1.143829	0.224106	0.047465
H123	H	0.698345	-0.283550	-0.445384
H124	H	1.198345	0.216450	0.054616
H125	H	0.630405	-0.288278	-0.505072
H126	H	1.130405	0.211722	-0.005072
N127	N	0.965708	-0.485766	-0.774987
N128	N	1.465708	0.014234	-0.274987
H129	H	0.977108	-0.542243	-0.788346
H130	H	1.477108	-0.042243	-0.288346
H131	H	0.972858	-0.478042	-0.720483
H132	H	1.472858	0.021958	-0.220483
N133	N	0.483962	-0.485783	-0.256530
N134	N	0.983962	0.014217	0.243470
H135	H	0.429446	-0.478132	-0.263687
H136	H	0.929446	0.021868	0.236313
H137	H	0.497389	-0.542249	-0.267888
H138	H	0.997389	-0.042249	0.232112
N139	N	0.643718	-0.485763	-0.256519
N140	N	1.143718	0.014237	0.243481
H141	H	0.607696	-0.517753	-0.226653
H142	H	1.107696	-0.017753	0.273347
H143	H	0.675614	-0.522377	-0.286411
H144	H	1.175614	-0.022377	0.213589
N145	N	0.965885	-1.090199	-0.256663
N146	N	1.465885	-0.590199	0.243337
H147	H	0.913290	-1.075866	-0.268036
H148	H	1.413290	-0.575866	0.231964
H149	H	0.973104	-1.148731	-0.263845
H150	H	1.473104	-0.648731	0.236155
N151	N	0.918800	-0.966455	-0.209531
N152	N	1.418800	-0.466455	0.290469
H153	H	0.925962	-1.024999	-0.216697
H154	H	1.425962	-0.524999	0.283303
H155	H	0.930287	-0.952062	-0.156979
H156	H	1.430287	-0.452062	0.343021
N157	N	0.918741	-0.794870	-0.209494
N158	N	1.418741	-0.294870	0.290506
H159	H	0.925855	-0.736302	-0.216634
H160	H	1.425855	-0.236302	0.283366
H161	H	0.866179	-0.809333	-0.220898
H162	H	1.366179	-0.309333	0.279102
H163	H	0.978161	-0.681854	-0.269038
H164	H	1.478161	-0.181854	0.230962
H165	H	1.149046	-0.288963	-0.924646
H166	H	1.649046	0.211037	-0.424646
N167	N	1.161239	-0.670662	-0.452437
N168	N	1.661239	-0.170662	0.047563
H169	H	1.154076	-0.612116	-0.445280
H170	H	1.654076	-0.112116	0.054720
H171	H	1.213813	-0.685051	-0.441039
H172	H	1.713813	-0.185051	0.058961
N173	N	1.161479	-0.275652	-0.775065
N174	N	1.661479	0.224348	-0.275065
H175	H	1.195566	-0.307791	-0.743180
H176	H	1.695566	0.192209	-0.243180
H177	H	1.191260	-0.243638	-0.811136
H178	H	1.691260	0.256362	-0.311136
N179	N	0.965733	-0.485715	-0.934732
N180	N	1.465733	0.014285	-0.434732
H181	H	0.972882	-0.478030	-0.989255
H182	H	1.472882	0.021970	-0.489255
H183	H	0.977149	-0.542175	-0.921291
H184	H	1.477149	-0.042175	-0.421291
N185	N	1.208318	-0.794409	-0.499576
N186	N	1.708318	-0.294409	0.000424
H187	H	1.201158	-0.735863	-0.492414
H188	H	1.701158	-0.235863	0.007586
H189	H	1.260893	-0.808801	-0.488184
H190	H	1.760893	-0.308801	0.011816
N191	N	1.208378	-0.965989	-0.499629
N192	N	1.708378	-0.465989	0.000371
H193	H	1.238151	-0.927267	-0.529472
H194	H	1.738151	-0.427267	-0.029472
H195	H	1.242477	-1.000244	-0.469732
H196	H	1.742477	-0.500244	0.030268
N197	N	1.161403	-1.089892	-0.452519
N198	N	1.661403	-0.589892	0.047481
H199	H	1.191180	-1.051171	-0.482359
H200	H	1.691180	-0.551171	0.017641
H201	H	1.195497	-1.124137	-0.422606
H202	H	1.695497	-0.624137	0.077394
