data_functionalizedCrystal
_audit_creation_method	'MofGen! by Chris Wilmer'
_symmetry_space_group_name_H-M	'P1'
_symmetry_Int_Tables_number	1
_symmetry_cell_setting	triclinic
loop_
_symmetry_equiv_pos_as_xyz
  x,y,z
_cell_length_a	19.121102
_cell_length_b	29.839131
_cell_length_c	29.839125
_cell_angle_alpha	90.011606
_cell_angle_beta	92.451796
_cell_angle_gamma	87.595578
loop_
_atom_site_label
_atom_site_type_symbol
_atom_site_fract_x
_atom_site_fract_y
_atom_site_fract_z
Zn1	Zn	1.073589	-0.208296	0.283266
Zn2	Zn	1.573589	0.291704	0.783266
Zn3	Zn	1.073480	-0.283397	0.208133
Zn4	Zn	1.573480	0.216603	0.708133
Zn5	Zn	0.956152	-0.205074	0.204948
Zn6	Zn	1.456152	0.294926	0.704948
Zn7	Zn	0.956073	-0.280187	0.280035
Zn8	Zn	1.456073	0.219813	0.780035
O9	O	1.014823	-0.244238	0.244095
O10	O	1.514823	0.255762	0.744095
O11	O	1.171857	-0.220950	0.275985
O12	O	1.671857	0.279050	0.775985
O13	O	1.057903	-0.273002	0.144843
O14	O	1.557903	0.226998	0.644843
O15	O	0.971809	-0.142636	0.215356
O16	O	1.471809	0.357364	0.715356
O17	O	1.171777	-0.276126	0.220785
O18	O	1.671777	0.223874	0.720785
O19	O	1.058089	-0.145003	0.272896
O20	O	1.558089	0.354997	0.772896
O21	O	0.971703	-0.215459	0.142503
O22	O	1.471703	0.284541	0.642503
O23	O	0.857859	-0.212346	0.212223
O24	O	1.357859	0.287654	0.712223
O25	O	0.971675	-0.270655	0.343331
O26	O	1.471675	0.229345	0.843331
O27	O	0.857801	-0.267531	0.267389
O28	O	1.357801	0.232469	0.767389
O29	O	1.058013	-0.217837	0.345705
O30	O	1.558013	0.282163	0.845705
O31	O	1.057827	-0.345836	0.217652
O32	O	1.557827	0.154164	0.717652
O33	O	0.971569	-0.343477	0.270477
O34	O	1.471569	0.156523	0.770477
C35	C	0.832346	-0.239241	0.239110
C36	C	1.332346	0.260759	0.739110
C37	C	0.754282	-0.237113	0.236988
C38	C	1.254282	0.262887	0.736988
C39	C	0.717595	-0.264889	0.264668
C40	C	1.217595	0.235111	0.764668
C41	C	0.644245	-0.262885	0.262676
C42	C	1.144245	0.237115	0.762676
C43	C	0.607583	-0.233106	0.233002
C44	C	1.107583	0.266894	0.733002
C45	C	0.644275	-0.205327	0.205321
C46	C	1.144275	0.294673	0.705321
C47	C	0.717623	-0.207330	0.207315
C48	C	1.217623	0.292670	0.707315
C49	C	0.386118	-0.225618	0.225547
C50	C	0.886118	0.274382	0.725547
C51	C	0.312764	-0.223618	0.223554
C52	C	0.812764	0.276382	0.723554
C53	C	0.312740	-0.281175	0.280910
C54	C	0.812740	0.218825	0.780910
C55	C	0.386090	-0.283177	0.282900
C56	C	0.886090	0.216823	0.782900
C57	C	0.422775	-0.255397	0.255220
C58	C	0.922775	0.244603	0.755220
C59	C	0.532608	-0.231057	0.230964
C60	C	1.032608	0.268943	0.730964
C61	C	0.497749	-0.257443	0.257261
C62	C	0.997749	0.242557	0.757261
C63	C	1.014697	-0.360957	0.244070
C64	C	1.514697	0.139043	0.744070
C65	C	1.014707	-0.410892	0.244075
C66	C	1.514707	0.089108	0.744075
C67	C	1.059820	-0.721756	0.216633
C68	C	1.559820	-0.221756	0.716633
C69	C	1.059906	-0.909432	0.216653
C70	C	1.559906	-0.409432	0.716653
O71	O	1.098162	-0.934732	0.193301
O72	O	1.598162	-0.434732	0.693301
N73	N	1.014969	-0.931684	0.244133
N74	N	1.514969	-0.431684	0.744133
C75	C	0.970010	-0.907015	0.271613
C76	C	1.470010	-0.407015	0.771613
O77	O	0.931796	-0.930249	0.294990
O78	O	1.431796	-0.430249	0.794990
C79	C	0.969928	-0.719341	0.271595
C80	C	1.469928	-0.219341	0.771595
C81	C	1.014863	-0.697091	0.244110
C82	C	1.514863	-0.197091	0.744110
C83	C	1.104751	-0.699506	0.189151
C84	C	1.604751	-0.199506	0.689151
C85	C	1.104727	-0.652590	0.189144
C86	C	1.604727	-0.152590	0.689144
C87	C	1.059770	-0.627924	0.216620
C88	C	1.559770	-0.127924	0.716620
C89	C	1.014838	-0.650174	0.244103
C90	C	1.514838	-0.150174	0.744103
C91	C	0.924973	-0.694672	0.299076
C92	C	1.424973	-0.194672	0.799076
C93	C	0.924958	-0.647751	0.299070
C94	C	1.424958	-0.147751	0.799070
C95	C	0.969893	-0.625501	0.271585
C96	C	1.469893	-0.125501	0.771585
C97	C	0.969856	-0.578592	0.271573
C98	C	1.469856	-0.078592	0.771573
N99	N	1.014793	-0.556340	0.244093
N100	N	1.514793	-0.056340	0.744093
C101	C	1.059750	-0.581006	0.216616
C102	C	1.559750	-0.081006	0.716616
C103	C	0.970056	-1.005547	0.271619
C104	C	1.470056	-0.505547	0.771619
C105	C	0.970076	-1.052465	0.271623
C106	C	1.470076	-0.552465	0.771623
C107	C	1.059973	-1.054879	0.216664
C108	C	1.559973	-0.554879	0.716664
C109	C	1.059949	-1.007959	0.216658
C110	C	1.559949	-0.507959	0.716658
C111	C	1.014993	-0.983294	0.244139
C112	C	1.514993	-0.483294	0.744139
C113	C	1.059694	-0.482478	0.216605
C114	C	1.559694	0.017522	0.716605
C115	C	1.059663	-0.435558	0.216599
C116	C	1.559663	0.064442	0.716599
C117	C	0.969769	-0.433149	0.271560
C118	C	1.469769	0.066851	0.771560
C119	C	0.969797	-0.480065	0.271564
C120	C	1.469797	0.019935	0.771564
C121	C	1.014765	-0.504729	0.244085
C122	C	1.514765	-0.004729	0.744085
O123	O	0.931626	-0.553264	0.294917
O124	O	1.431626	-0.053264	0.794917
O125	O	1.097970	-0.557764	0.193250
O126	O	1.597970	-0.057764	0.693250
C127	C	1.059844	-0.768672	0.216640
C128	C	1.559844	-0.268672	0.716640
C129	C	1.014912	-0.790923	0.244123
C130	C	1.514912	-0.290923	0.744123
C131	C	0.969956	-0.766257	0.271599
C132	C	1.469956	-0.266257	0.771599
C133	C	1.014932	-0.837841	0.244126
C134	C	1.514932	-0.337841	0.744126
C135	C	1.059889	-0.862507	0.216650
C136	C	1.559889	-0.362507	0.716650
C137	C	1.104826	-0.840254	0.189170
C138	C	1.604826	-0.340254	0.689170
C139	C	1.104801	-0.793338	0.189163
C140	C	1.604801	-0.293338	0.689163
C141	C	0.925018	-0.788509	0.299079
C142	C	1.425018	-0.288509	0.799079
C143	C	0.925046	-0.835426	0.299083
C144	C	1.425046	-0.335426	0.799083
C145	C	0.970003	-0.860092	0.271607
C146	C	1.470003	-0.360092	0.771607
C147	C	1.198013	-0.249256	0.249101
C148	C	1.698013	0.250744	0.749101
C149	C	1.276078	-0.251394	0.251234
C150	C	1.776078	0.248606	0.751234
C151	C	1.014848	-0.244247	0.361274
C152	C	1.514848	0.255753	0.861274
C153	C	1.014858	-0.244251	0.411209
C154	C	1.514858	0.255749	0.911209
C155	C	1.014970	-0.127064	0.244132
C156	C	1.514970	0.372936	0.744132
C157	C	1.015032	-0.077131	0.244147
C158	C	1.515032	0.422869	0.744147
C159	C	1.014840	-0.244198	0.127373
C160	C	1.514840	0.255802	0.627373
C161	C	1.014966	-0.244071	0.077443
C162	C	1.514966	0.255929	0.577443
C163	C	0.969950	-0.271652	0.766562
C164	C	1.469950	0.228348	1.266562
C165	C	0.969925	-0.271703	0.578888
C166	C	1.469925	0.228297	1.078888
O167	O	0.931674	-0.295083	0.553571
O168	O	1.431674	0.204917	1.053571
N169	N	1.014874	-0.244210	0.556655
N170	N	1.514874	0.255790	1.056655
C171	C	1.059828	-0.216700	0.581343
C172	C	1.559828	0.283300	1.081343
O173	O	1.098054	-0.193314	0.558126
O174	O	1.598054	0.306686	1.058126
C175	C	1.059849	-0.216647	0.769016
C176	C	1.559849	0.283353	1.269016
C177	C	1.014903	-0.244145	0.791247
C178	C	1.514903	0.255855	1.291247
C179	C	0.925007	-0.299147	0.788792
C180	C	1.425007	0.200853	1.288792
C181	C	0.925017	-0.299136	0.835708
C182	C	1.425017	0.200864	1.335708
C183	C	0.969969	-0.271629	0.860393
C184	C	1.469969	0.228371	1.360393
C185	C	1.014913	-0.244134	0.838162
C186	C	1.514913	0.255866	1.338162
C187	C	1.104800	-0.189136	0.793703
C188	C	1.604800	0.310864	1.293703
C189	C	1.104800	-0.189124	0.840624
C190	C	1.604800	0.310876	1.340624
C191	C	1.059854	-0.216622	0.862855
C192	C	1.559854	0.283378	1.362855
C193	C	1.059875	-0.216616	0.909763
C194	C	1.559875	0.283384	1.409763
N195	N	1.014926	-0.244109	0.931996
N196	N	1.514926	0.255891	1.431996
C197	C	0.969974	-0.271616	0.907311
C198	C	1.469974	0.228384	1.407311
C199	C	1.059815	-0.216731	0.482812
C200	C	1.559815	0.283269	0.982812
C201	C	1.059811	-0.216745	0.435894
C202	C	1.559811	0.283255	0.935894
C203	C	0.969907	-0.271747	0.433442
C204	C	1.469907	0.228253	0.933442
C205	C	0.969915	-0.271735	0.480361
C206	C	1.469915	0.228265	0.980361
C207	C	1.014867	-0.244224	0.505045
C208	C	1.514867	0.255776	1.005045
C209	C	0.969997	-0.271590	1.005838
C210	C	1.469997	0.228410	1.505838
C211	C	0.970013	-0.271578	1.052758
C212	C	1.470013	0.228422	1.552758
C213	C	1.059914	-0.216574	1.055206
C214	C	1.559914	0.283426	1.555206
C215	C	1.059901	-0.216588	1.008290
C216	C	1.559901	0.283412	1.508290
C217	C	1.014937	-0.244097	0.983607
C218	C	1.514937	0.255903	1.483607
O219	O	1.098100	-0.193245	0.935108
O220	O	1.598100	0.306755	1.435108
O221	O	0.931743	-0.294991	0.930536
O222	O	1.431743	0.205009	1.430536
C223	C	0.969941	-0.271663	0.719646
C224	C	1.469941	0.228337	1.219646
C225	C	1.014884	-0.244168	0.697415
C226	C	1.514884	0.255832	1.197415
C227	C	1.059837	-0.216661	0.722100
C228	C	1.559837	0.283339	1.222100
C229	C	1.014880	-0.244182	0.650497
C230	C	1.514880	0.255818	1.150497
C231	C	0.969927	-0.271688	0.625812
C232	C	1.469927	0.228312	1.125812
C233	C	0.924979	-0.299181	0.648045
C234	C	1.424979	0.200819	1.148045
C235	C	0.924988	-0.299170	0.694961
C236	C	1.424988	0.200830	1.194961
C237	C	1.104785	-0.189168	0.699867
C238	C	1.604785	0.310832	1.199867
C239	C	1.104773	-0.189182	0.652951
C240	C	1.604773	0.310818	1.152951
C241	C	1.059820	-0.216689	0.628266
C242	C	1.559820	0.283311	1.128266
H243	H	0.502749	-0.206813	0.206802
H244	H	1.002749	0.293187	0.706802
O245	O	1.153240	-0.726107	0.159510
O246	O	1.653240	-0.226107	0.659510
H247	H	1.184471	-0.702745	0.140399
H248	H	1.684471	-0.202745	0.640399
O249	O	1.108138	-0.411558	0.186959
O250	O	1.608138	0.088442	0.686959
H251	H	1.096144	-0.420257	0.151366
H252	H	1.596144	0.079743	0.651366
H253	H	0.888397	-0.321546	0.768699
H254	H	1.388397	0.178454	1.268699
O255	O	0.921432	-0.301390	0.504335
O256	O	1.421432	0.198610	1.004335
H257	H	0.885726	-0.280299	0.524732
H258	H	1.385726	0.219701	1.024732
H259	H	0.888350	-0.627671	0.321450
H260	H	1.388350	-0.127671	0.821450
O261	O	0.876488	-0.328847	0.621417
O262	O	1.376488	0.171153	1.121417
H263	H	0.884034	-0.324229	0.585058
H264	H	1.384034	0.175771	1.085058
O265	O	0.273194	-0.311161	0.310751
O266	O	0.773194	0.188839	0.810751
H267	H	0.287300	-0.303919	0.346412
H268	H	0.787300	0.196081	0.846412
H269	H	0.747440	-0.289140	0.288830
H270	H	1.247440	0.210860	0.788830
H271	H	1.141319	-0.634477	0.166764
H272	H	1.641319	-0.134477	0.666764
O273	O	1.108188	-0.509077	0.186964
O274	O	1.608188	-0.009077	0.686964
H275	H	1.139418	-0.485716	0.167851
H276	H	1.639418	0.014284	0.667851
O277	O	0.921413	-0.301412	0.406814
O278	O	1.421413	0.198588	0.906814
H279	H	0.928961	-0.296795	0.370455
H280	H	1.428961	0.203205	0.870455
O281	O	0.921599	-1.076461	0.301261
O282	O	1.421599	-0.576461	0.801261
H283	H	0.953014	-1.098673	0.324993
H284	H	1.453014	-0.598673	0.824993
O285	O	0.425682	-0.195670	0.195681
O286	O	0.925682	0.304330	0.695681
H287	H	0.387864	-0.174636	0.174704
H288	H	0.887864	0.325364	0.674704
O289	O	1.108308	-0.187061	0.509434
O290	O	1.608308	0.312939	1.009434
H291	H	1.139564	-0.167952	0.486088
H292	H	1.639564	0.332048	0.986088
H293	H	1.141429	-0.860346	0.166796
H294	H	1.641429	-0.360346	0.666796
H295	H	0.747493	-0.184710	0.184778
H296	H	1.247493	0.315290	0.684778
O297	O	1.108295	-0.187091	0.411918
O298	O	1.608295	0.312909	0.911918
H299	H	1.139547	-0.167961	0.436970
H300	H	1.639547	0.332039	0.936970
H301	H	0.415935	-0.307427	0.307062
H302	H	0.915935	0.192573	0.807062
O303	O	0.604673	-0.292928	0.292444
O304	O	1.104673	0.207072	0.792444
H305	H	0.642489	-0.314007	0.313377
H306	H	1.142489	0.185993	0.813377
H307	H	0.888410	-0.768430	0.321454
H308	H	1.388410	-0.268430	0.821454
O309	O	0.273217	-0.191495	0.191550
O310	O	0.773217	0.308505	0.691550
H311	H	0.311048	-0.172510	0.172641
H312	H	0.811048	0.327490	0.672641
O313	O	1.108463	-1.081490	0.187030
O314	O	1.608463	-0.581490	0.687030
H315	H	1.139710	-1.058139	0.167917
H316	H	1.639710	-0.558139	0.667917
O317	O	1.153281	-0.159476	0.769736
O318	O	1.653281	0.340524	1.269736
H319	H	1.121872	-0.135766	0.747498
H320	H	1.621872	0.364234	1.247498
H321	H	0.888388	-0.321561	0.713057
H322	H	1.388388	0.178439	1.213057
O323	O	0.604737	-0.173219	0.173302
O324	O	1.104737	0.326781	0.673302
H325	H	0.547569	-0.176500	0.176557
H326	H	1.047569	0.323500	0.676557
O327	O	1.153277	-0.159503	0.726489
O328	O	1.653277	0.340497	1.226489
H329	H	1.184531	-0.140393	0.703143
H330	H	1.684531	0.359607	1.203143
H331	H	1.096539	-0.989846	0.194278
H332	H	1.596539	-0.489846	0.694278
O333	O	0.921548	-0.978945	0.301250
O334	O	1.421548	-0.478945	0.801250
H335	H	0.890299	-1.002306	0.320350
H336	H	1.390299	-0.502306	0.820350
O337	O	0.921284	-0.406541	0.301197
O338	O	1.421284	0.093459	0.801197
H339	H	0.928827	-0.370179	0.296577
H340	H	1.428827	0.129821	0.796577
O341	O	0.921332	-0.504068	0.301206
O342	O	1.421332	-0.004068	0.801206
H343	H	0.890069	-0.479032	0.320312
H344	H	1.390069	0.020968	0.820312
H345	H	1.096516	-0.194181	1.075313
H346	H	1.596516	0.305819	1.575313
H347	H	0.888379	-0.712780	0.321456
H348	H	1.388379	-0.212780	0.821456
H349	H	0.527603	-0.281687	0.281423
H350	H	1.027603	0.218313	0.781423
H351	H	1.141392	-0.775226	0.166782
H352	H	1.641392	-0.275226	0.666782
H353	H	0.888449	-0.853537	0.321464
H354	H	1.388449	-0.353537	0.821464
H355	H	0.933412	-0.293972	1.070856
H356	H	1.433412	0.206028	1.570856
O357	O	0.921494	-0.301254	0.979218
O358	O	1.421494	0.198746	1.479218
H359	H	0.890247	-0.320369	1.002565
H360	H	1.390247	0.179631	1.502565
O361	O	0.876527	-0.328787	0.859683
O362	O	1.376527	0.171213	1.359683
H363	H	0.845265	-0.347908	0.834629
H364	H	1.345265	0.152092	1.334629
O365	O	1.153289	-0.159453	0.867249
O366	O	1.653289	0.340547	1.367249
H367	H	1.184542	-0.140340	0.843905
H368	H	1.684542	0.359660	1.343905
H369	H	1.096505	-0.194200	0.990189
H370	H	1.596505	0.305800	1.490189
O371	O	1.153255	-0.159523	0.628975
O372	O	1.653255	0.340477	1.128975
H373	H	1.184508	-0.140393	0.654027
H374	H	1.684508	0.359607	1.154027
