data_functionalizedCrystal
_audit_creation_method	'MofGen! by Chris Wilmer'
_symmetry_space_group_name_H-M	'P1'
_symmetry_Int_Tables_number	1
_symmetry_cell_setting	triclinic
loop_
_symmetry_equiv_pos_as_xyz
  x,y,z
_cell_length_a	12.827893
_cell_length_b	13.032721
_cell_length_c	12.827893
_cell_angle_alpha	82.830576
_cell_angle_beta	90.003786
_cell_angle_gamma	97.204267
loop_
_atom_site_label
_atom_site_type_symbol
_atom_site_fract_x
_atom_site_fract_y
_atom_site_fract_z
Zn1	Zn	1.544592	-0.416240	0.643675
Zn2	Zn	2.044592	0.083760	1.143675
Zn3	Zn	1.522321	-0.590959	0.491110
Zn4	Zn	2.022321	-0.090959	0.991110
Zn5	Zn	1.369883	-0.416222	0.468947
Zn6	Zn	1.869883	0.083778	0.968947
Zn7	Zn	1.347607	-0.590950	0.665809
Zn8	Zn	1.847607	-0.090950	1.165809
O9	O	1.446101	-0.503593	0.567385
O10	O	1.946101	-0.003593	1.067385
O11	O	1.687872	-0.439428	0.623450
O12	O	2.187872	0.060572	1.123450
O13	O	1.502101	-0.567776	0.341934
O14	O	2.002101	-0.067776	0.841934
O15	O	1.411701	-0.269980	0.473586
O16	O	1.911701	0.230020	0.973586
O17	O	1.671510	-0.567794	0.511361
O18	O	2.171510	-0.067794	1.011361
O19	O	1.540059	-0.269993	0.601959
O20	O	2.040059	0.230007	1.101959
O21	O	1.390106	-0.439398	0.325650
O22	O	1.890106	0.060602	0.825650
O23	O	1.220693	-0.439389	0.495048
O24	O	1.720693	0.060611	0.995048
O25	O	1.373736	-0.567778	0.809109
O26	O	1.873736	-0.067778	1.309109
O27	O	1.204328	-0.567761	0.639682
O28	O	1.704328	-0.067761	1.139682
O29	O	1.518460	-0.439420	0.792848
O30	O	2.018460	0.060580	1.292848
O31	O	1.480502	-0.737203	0.532823
O32	O	1.980502	-0.237203	1.032823
O33	O	1.352140	-0.737196	0.661173
O34	O	1.852140	-0.237196	1.161173
C35	C	1.174593	-0.503573	0.567363
C36	C	1.674593	-0.003573	1.067363
C37	C	1.058438	-0.503589	0.567381
C38	C	1.558438	-0.003589	1.067381
C39	C	0.998570	-0.567211	0.638865
C40	C	1.498570	-0.067211	1.138865
C41	C	0.878517	-0.567230	0.638886
C42	C	1.378517	-0.067230	1.138886
C43	C	1.411515	-0.775119	0.601828
C44	C	1.911515	-0.275119	1.101828
C45	C	1.396815	-0.891279	0.616597
C46	C	1.896815	-0.391279	1.116597
C47	C	1.453828	-0.943035	0.559724
C48	C	1.953828	-0.443035	1.059724
C49	C	1.438636	-1.063093	0.574988
C50	C	1.938636	-0.563093	1.074988
C51	C	1.718668	-0.503614	0.567409
C52	C	2.218668	-0.003614	1.067409
C53	C	1.834820	-0.503623	0.567418
C54	C	2.334820	-0.003623	1.067418
C55	C	1.446097	-0.503600	0.839956
C56	C	1.946097	-0.003600	1.339956
C57	C	1.446096	-0.503603	0.956110
C58	C	1.946096	-0.003603	1.456110
C59	C	1.480850	-0.231007	0.532831
C60	C	1.980850	0.268993	1.032831
C61	C	1.495657	-0.114847	0.518107
C62	C	1.995657	0.385153	1.018107
C63	C	1.517702	-0.440095	0.999849
C64	C	2.017702	0.059905	1.499849
C65	C	1.517702	-0.440096	1.119899
C66	C	2.017702	0.059904	1.619899
C67	C	1.446093	-0.503610	1.295877
C68	C	1.946093	-0.003610	1.795877
C69	C	1.446095	-0.503607	1.179724
C70	C	1.946095	-0.003607	1.679724
H71	H	0.886267	-0.449155	0.506212
H72	H	1.386267	0.050845	1.006212
H73	H	1.384786	-0.557969	1.007539
H74	H	1.884786	-0.057969	1.507539
H75	H	1.036194	-0.621662	0.700053
H76	H	1.536194	-0.121662	1.200053
H77	H	1.020815	-0.449130	0.506200
H78	H	1.520815	0.050870	1.006200
H79	H	0.827063	-0.621701	0.700083
H80	H	1.327063	-0.121701	1.200083
Br81	Br	1.619894	-0.349476	1.182637
Br82	Br	2.119894	0.150524	1.682637
Br83	Br	1.553943	-0.868758	0.459740
Br84	Br	2.053943	-0.368758	0.959740
Br85	Br	1.338536	-1.137366	0.674994
Br86	Br	1.838536	-0.637366	1.174994
Br87	Br	1.595775	-1.040576	0.418116
Br88	Br	2.095775	-0.540576	0.918116
Br89	Br	1.296719	-0.965556	0.716599
Br90	Br	1.796719	-0.465556	1.216599
Br91	Br	1.343915	-0.594247	1.116996
Br92	Br	1.843915	-0.094247	1.616996
H93	H	1.579003	-0.385718	0.948418
H94	H	2.079003	0.114282	1.448418
