data_functionalizedCrystal
_audit_creation_method	'MofGen! by Chris Wilmer'
_symmetry_space_group_name_H-M	'P1'
_symmetry_Int_Tables_number	1
_symmetry_cell_setting	triclinic
loop_
_symmetry_equiv_pos_as_xyz
  x,y,z
_cell_length_a	15.995350
_cell_length_b	16.098524
_cell_length_c	15.995350
_cell_angle_alpha	86.937675
_cell_angle_beta	96.507625
_cell_angle_gamma	93.060977
loop_
_atom_site_label
_atom_site_type_symbol
_atom_site_fract_x
_atom_site_fract_y
_atom_site_fract_z
O1	O	1.114324	0.069182	-0.111265
O2	O	0.870550	0.069198	-0.124593
O3	O	0.999101	0.069189	0.003959
O4	O	0.985773	0.069191	-0.239817
O5	O	0.992405	-0.069324	0.010646
O6	O	0.863854	-0.069315	-0.117905
O7	O	1.107629	-0.069331	-0.104577
Zn8	Zn	0.984678	-0.091315	-0.110180
Zn9	Zn	0.993500	0.091182	-0.118991
O10	O	0.979078	-0.069322	-0.233129
C11	C	0.836007	-0.000056	-0.120698
C12	C	0.743057	-0.000049	-0.119047
N13	N	0.978664	-0.215864	-0.104166
C14	C	0.405309	-0.000067	-0.113114
C15	C	0.452728	-0.000377	-0.021547
C16	C	0.549434	-0.000059	-0.023215
C17	C	0.572870	-0.000059	-0.116057
C18	C	0.535606	0.079036	-0.165032
C19	C	0.438973	0.079097	-0.162735
C20	C	0.431020	-0.078419	-0.157022
C21	C	0.527915	-0.079458	-0.156950
C22	C	0.667568	-0.000051	-0.117725
C23	C	0.310611	-0.000069	-0.111449
C24	C	1.027339	-0.259449	-0.152876
C25	C	1.023143	-0.346638	-0.148663
C26	C	0.970266	-0.390241	-0.095744
C27	C	0.921589	-0.346650	-0.047028
C28	C	0.925790	-0.259462	-0.051237
C29	C	0.955045	-0.653491	-0.080491
C30	C	0.950846	-0.740684	-0.076288
C31	C	1.052401	-0.740666	-0.177922
C32	C	1.056594	-0.653477	-0.182130
C33	C	1.007920	-0.609894	-0.133411
C34	C	0.965974	-0.479362	-0.091439
C35	C	1.012218	-0.520774	-0.137712
C36	C	1.142171	-0.000075	-0.108472
C37	C	1.235121	-0.000076	-0.110124
C38	C	0.995202	-0.000066	0.038497
C39	C	0.993550	-0.000061	0.131447
N40	N	0.999521	0.215731	-0.124998
C41	C	0.982976	-0.000065	-0.267668
C42	C	0.984628	-0.000064	-0.360618
C43	C	0.987618	-0.000064	0.469195
C44	C	0.896081	0.000253	0.421746
C45	C	0.897719	-0.000059	0.325071
C46	C	0.990561	-0.000062	0.301634
C47	C	1.031894	-0.079161	0.346531
C48	C	1.029591	-0.079227	0.443170
C49	C	1.039096	0.078288	0.435923
C50	C	1.039125	0.079333	0.338927
C51	C	0.992228	-0.000064	0.206937
C52	C	0.985953	-0.000067	0.563893
H53	H	0.575122	-0.056757	0.015018
H54	H	0.997685	-0.138022	0.320991
H55	H	0.431464	-0.057099	0.017787
H56	H	0.399233	-0.078954	-0.224496
H57	H	0.435861	0.056032	0.012157
C58	C	0.872242	-0.211520	0.002347
N59	N	0.831908	-0.175411	0.042709
H60	H	1.096633	-0.082818	0.475591
C61	C	0.548374	-0.085923	-0.248098
N62	N	0.563788	-0.090790	-0.316753
H63	H	1.106622	0.078817	0.467658
H64	H	0.580037	0.056738	0.009779
C65	C	0.892683	-0.788646	-0.018062
N66	N	0.848878	-0.824770	0.025792
H67	H	0.423523	0.138222	-0.132660
C68	C	0.850343	0.076879	0.443090
N69	N	0.815891	0.134594	0.459175
C70	C	0.998386	0.158388	0.298250
N71	N	0.967694	0.217931	0.267615
H72	H	0.406898	0.082686	-0.230124
H73	H	0.552403	-0.137972	-0.121161
H74	H	0.549873	0.081977	-0.233383
H75	H	0.566826	0.137900	-0.136510
H76	H	1.070392	-0.223954	-0.195974
C77	C	0.981235	-0.159098	0.471751
N78	N	0.944810	-0.219258	0.493274
H79	H	0.922921	-0.514873	-0.048352
H80	H	1.062781	-0.382120	-0.188327
H81	H	0.856925	-0.056150	0.444063
C82	C	1.114768	-0.605520	-0.240339
N83	N	1.158585	-0.569399	-0.284184
H84	H	1.092029	-0.776161	-0.217586
H85	H	1.055272	-0.485269	-0.180795
C86	C	1.002570	0.159281	0.459756
N87	N	0.975049	0.220281	0.477706
H88	H	0.864963	0.056643	0.293911
C89	C	1.130906	0.085780	0.317870
N90	N	1.200040	0.090628	0.302013
H91	H	0.915412	-0.618016	-0.040819
C92	C	0.863423	-0.394616	0.011182
N93	N	0.819607	-0.430744	0.055023
C94	C	0.845736	-0.076787	0.291128
N95	N	0.806582	-0.134583	0.265563
H96	H	1.099960	-0.082105	0.332547
H97	H	0.407587	-0.138371	-0.124197
