data_functionalizedCrystal
_audit_creation_method	'MofGen! by Chris Wilmer'
_symmetry_space_group_name_H-M	'P1'
_symmetry_Int_Tables_number	1
_symmetry_cell_setting	triclinic
loop_
_symmetry_equiv_pos_as_xyz
  x,y,z
_cell_length_a	15.297475
_cell_length_b	16.959454
_cell_length_c	15.296720
_cell_angle_alpha	99.648278
_cell_angle_beta	91.617114
_cell_angle_gamma	80.323279
loop_
_atom_site_label
_atom_site_type_symbol
_atom_site_fract_x
_atom_site_fract_y
_atom_site_fract_z
Zn1	Zn	1.253421	-0.615181	-0.726635
Zn2	Zn	1.278688	-0.729000	-0.580157
Zn3	Zn	1.132298	-0.570776	-0.554873
Zn4	Zn	1.106914	-0.721230	-0.701285
O5	O	1.192830	-0.659047	-0.640738
O6	O	1.379352	-0.652115	-0.728395
O7	O	1.280466	-0.692679	-0.454228
O8	O	1.148414	-0.466067	-0.577685
O9	O	1.397915	-0.735737	-0.620778
O10	O	1.237403	-0.498691	-0.703878
O11	O	1.172914	-0.576432	-0.435651
O12	O	1.006352	-0.568898	-0.553104
O13	O	1.105151	-0.722495	-0.827223
O14	O	0.987702	-0.679437	-0.660673
O15	O	1.212790	-0.644581	-0.845848
O16	O	1.255853	-0.838569	-0.596198
O17	O	1.129651	-0.832860	-0.685190
C18	C	0.965244	-0.618506	-0.601395
C19	C	0.867878	-0.601185	-0.584584
C20	C	1.192759	-0.864398	-0.640710
C21	C	1.192804	-0.952266	-0.640741
C22	C	0.554738	-0.782854	-0.760885
C23	C	0.646218	-0.799134	-0.776677
C24	C	0.701637	-0.749648	-0.728655
C25	C	0.665567	-0.683879	-0.664839
C26	C	0.574078	-0.667601	-0.649041
C27	C	0.720978	-0.634395	-0.616811
C28	C	0.684908	-0.568627	-0.552995
C29	C	0.593428	-0.552351	-0.537200
C30	C	0.538009	-0.601837	-0.585221
C31	C	0.812467	-0.650673	-0.632609
C32	C	0.831808	-0.535421	-0.520765
C33	C	0.740327	-0.519141	-0.504973
C34	C	1.127199	-1.320817	-0.687084
C35	C	1.258690	-1.326729	-0.594523
C36	C	1.258660	-1.244176	-0.594509
C37	C	1.192899	-1.199940	-0.640783
C38	C	1.127167	-1.238256	-0.687070
C39	C	1.324386	-1.205852	-0.548216
C40	C	1.324359	-1.123295	-0.548200
C41	C	1.258601	-1.079058	-0.594479
C42	C	1.192866	-1.117379	-0.640769
C43	C	1.127105	-1.073143	-0.687042
C44	C	1.061373	-1.111464	-0.733338
C45	C	1.061408	-1.194019	-0.733349
C46	C	1.258566	-0.996503	-0.594468
C47	C	1.127072	-0.990582	-0.687028
C48	C	1.421305	-0.699746	-0.680234
C49	C	1.518668	-0.717090	-0.697066
C50	C	1.153320	-0.687624	-0.869207
C51	C	1.136484	-0.699803	-0.966567
C52	C	1.192922	-0.452900	-0.640788
C53	C	1.192961	-0.365053	-0.640810
C54	C	1.313198	-0.571876	-1.279796
C55	C	1.329022	-0.560436	-1.188322
C56	C	1.280889	-0.595276	-1.132879
C57	C	1.216928	-0.641559	-1.168918
C58	C	1.201107	-0.653005	-1.260401
C59	C	1.168798	-0.676406	-1.113484
C60	C	1.104838	-0.722688	-1.149523
C61	C	1.089019	-0.734131	-1.240998
C62	C	1.137153	-0.699291	-1.296441
C63	C	1.184620	-0.664960	-1.022001
C64	C	1.072529	-0.746089	-1.002606
C65	C	1.056705	-0.757528	-1.094080
C66	C	1.232237	-0.630532	-0.413166
C67	C	1.249243	-0.618162	-0.315836
H68	H	0.841826	-0.704223	-0.684570
H69	H	1.377882	-1.092099	-0.510505
C70	C	1.399366	-0.509525	-1.148680
H71	H	1.401900	-0.507704	-1.086260
H72	H	1.383979	-0.456015	-1.161470
H73	H	1.455626	-0.533458	-1.173844
H74	H	1.377920	-1.241873	-0.510535
H75	H	0.876931	-0.495126	-0.481661
C76	C	0.493772	-0.837236	-0.813761
H77	H	0.528350	-0.878724	-0.854047
H78	H	0.451521	-0.805440	-0.845806
H79	H	0.463838	-0.861098	-0.774066
C80	C	0.802262	-0.767548	-0.746035
H81	H	0.815806	-0.813799	-0.790925
H82	H	0.832731	-0.777737	-0.693058
H83	H	0.820327	-0.722149	-0.764867
H84	H	0.463516	-0.588584	-0.572369
C85	C	1.254965	-0.614049	-0.982363
H86	H	1.257502	-0.612225	-0.919942
H87	H	1.239579	-0.560540	-0.995156
H88	H	1.311224	-0.637985	-1.007528
C89	C	0.989104	-1.236171	-0.784257
H90	H	0.998537	-1.291670	-0.777626
H91	H	0.991683	-1.232263	-0.845328
H92	H	0.932480	-1.210590	-0.761204
C93	C	1.054898	-1.362964	-0.738002
H94	H	1.064330	-1.418466	-0.731382
H95	H	1.057482	-1.359046	-0.799070
H96	H	0.998272	-1.337386	-0.714950
C97	C	1.119748	-0.711874	-1.397063
H98	H	1.157577	-0.684496	-1.424918
H99	H	1.059648	-0.690727	-1.407988
H100	H	1.131300	-0.768167	-1.420366
C101	C	1.366133	-0.533555	-1.340782
H102	H	1.347545	-0.546997	-1.400422
H103	H	1.427576	-0.553728	-1.335964
H104	H	1.355923	-0.476289	-1.323590
H105	H	1.073523	-0.954571	-0.724714
C106	C	1.018669	-0.785044	-1.280640
H107	H	0.992262	-0.804148	-1.234520
H108	H	1.045986	-0.829914	-1.322110
H109	H	0.974343	-0.752467	-1.309733
H110	H	1.312080	-0.965304	-0.556770
H111	H	1.293777	-0.585960	-1.058398
H112	H	0.564064	-0.498805	-0.485228
H113	H	1.004627	-0.795212	-1.123436
C114	C	0.989040	-1.062799	-0.784236
H115	H	0.998442	-1.008145	-0.777596
H116	H	0.932424	-1.064282	-0.761206
H117	H	0.991646	-1.085940	-0.845316
C118	C	0.685889	-0.871468	-0.846874
H119	H	0.639783	-0.898604	-0.873218
H120	H	0.727369	-0.908009	-0.819463
H121	H	0.714980	-0.852413	-0.891264
H122	H	1.033337	-0.774460	-0.957464
C123	C	0.700644	-0.446803	-0.434775
H124	H	0.638224	-0.444203	-0.432243
H125	H	0.713416	-0.397998	-0.450284
H126	H	0.725801	-0.453592	-0.378481
H127	H	1.312225	-1.362749	-0.556843
