data_functionalizedCrystal
_audit_creation_method	'MofGen! by Chris Wilmer'
_symmetry_space_group_name_H-M	'P1'
_symmetry_Int_Tables_number	1
_symmetry_cell_setting	triclinic
loop_
_symmetry_equiv_pos_as_xyz
  x,y,z
_cell_length_a	19.288864
_cell_length_b	23.532357
_cell_length_c	18.366186
_cell_angle_alpha	89.988209
_cell_angle_beta	89.977106
_cell_angle_gamma	82.982267
loop_
_atom_site_label
_atom_site_type_symbol
_atom_site_fract_x
_atom_site_fract_y
_atom_site_fract_z
O1	O	0.921118	0.071047	-0.060792
O2	O	1.421118	0.571047	0.439208
O3	O	0.718826	0.080631	-0.060743
O4	O	1.218826	0.580631	0.439257
O5	O	0.826090	-0.007082	-0.060754
O6	O	1.326090	0.492918	0.439246
O7	O	0.813854	0.158760	-0.060781
O8	O	1.313854	0.658760	0.439219
O9	O	0.826072	-0.007086	0.060345
O10	O	1.326072	0.492914	0.560345
O11	O	0.718808	0.080627	0.060356
O12	O	1.218808	0.580627	0.560356
O13	O	0.921100	0.071043	0.060308
O14	O	1.421100	0.571043	0.560308
Zn15	Zn	0.819951	0.075834	0.079559
Zn16	Zn	1.319951	0.575834	0.579559
Zn17	Zn	0.819975	0.075840	-0.079995
Zn18	Zn	1.319975	0.575840	0.420005
O19	O	0.813836	0.158756	0.060318
O20	O	1.313836	0.658756	0.560318
C21	C	0.692941	0.080320	-0.000187
C22	C	1.192941	0.580320	0.499813
C23	C	0.615841	0.079395	-0.000168
C24	C	1.115841	0.579395	0.499832
C25	C	0.825775	-0.028301	-0.000202
C26	C	1.325775	0.471699	0.499798
C27	C	0.824855	-0.091522	-0.000195
C28	C	1.324855	0.408478	0.499805
C29	C	0.570975	0.130861	-0.000188
C30	C	1.070975	0.630861	0.499812
C31	C	0.498530	0.129991	-0.000196
C32	C	0.998530	0.629991	0.499804
C33	C	0.470956	0.077652	-0.000198
C34	C	0.970956	0.577652	0.499802
C35	C	0.515832	0.026180	-0.000174
C36	C	1.015832	0.526180	0.499826
C37	C	0.588274	0.027051	-0.000159
C38	C	1.088274	0.527051	0.499841
C39	C	0.362836	0.036510	-0.042643
C40	C	0.862836	0.536510	0.457357
C41	C	0.290394	0.035641	-0.042662
C42	C	0.790394	0.535641	0.457338
C43	C	0.247519	0.074963	-0.000242
C44	C	0.747519	0.574963	0.499758
C45	C	0.277093	0.115164	0.042189
C46	C	0.777093	0.615164	0.542189
C47	C	0.349535	0.116036	0.042204
C48	C	0.849535	0.616036	0.542204
C49	C	0.392405	0.076702	-0.000214
C50	C	0.892405	0.576702	0.499786
C51	C	0.124100	0.125490	-0.000269
C52	C	0.624100	0.625490	0.499731
C53	C	0.051655	0.124618	-0.000273
C54	C	0.551655	0.624618	0.499727
C55	C	0.068958	0.020805	-0.000259
C56	C	0.568958	0.520805	0.499741
C57	C	0.141401	0.021678	-0.000248
C58	C	0.641401	0.521678	0.499752
C59	C	0.168968	0.074022	-0.000257
C60	C	0.668968	0.574022	0.499743
C61	C	0.819088	-0.483543	-0.066244
C62	C	1.319088	0.016457	0.433756
C63	C	0.818213	-0.542944	-0.066248
C64	C	1.318213	-0.042944	0.433752
O65	O	0.817745	-0.573659	-0.122388
O66	O	1.317745	-0.073659	0.377612
N67	N	0.817769	-0.572659	-0.000238
N68	N	1.317769	-0.072659	0.499762
C69	C	0.818193	-0.542968	0.065781
C70	C	1.318193	-0.042968	0.565781
O71	O	0.817735	-0.573697	0.121928
O72	O	1.317735	-0.073697	0.621928
C73	C	0.819063	-0.483567	0.065784
C74	C	1.319063	0.016433	0.565784
C75	C	0.819514	-0.453857	-0.000230
C76	C	1.319514	0.046143	0.499770
C77	C	0.819538	-0.453832	-0.132254
C78	C	1.319538	0.046168	0.367746
C79	C	0.820414	-0.394435	-0.132249
C80	C	1.320414	0.105565	0.367751
C81	C	0.820840	-0.364749	-0.066236
C82	C	1.320840	0.135251	0.433764
C83	C	0.820390	-0.394460	-0.000226
C84	C	1.320390	0.105540	0.499774
C85	C	0.819482	-0.453877	0.131802
C86	C	1.319482	0.046123	0.631802
C87	C	0.820351	-0.394472	0.131800
C88	C	1.320351	0.105528	0.631800
C89	C	0.820802	-0.364762	0.065785
C90	C	1.320802	0.135238	0.565785
C91	C	0.821692	-0.305376	0.065792
C92	C	1.321692	0.194624	0.565792
N93	N	0.822136	-0.275662	-0.000219
N94	N	1.322136	0.224338	0.499781
C95	C	0.821710	-0.305348	-0.066233
C96	C	1.321710	0.194652	0.433767
C97	C	0.816366	-0.667713	0.065769
C98	C	1.316366	-0.167713	0.565769
C99	C	0.815501	-0.727113	0.065767
C100	C	1.315501	-0.227113	0.565767
C101	C	0.815519	-0.727085	-0.066262
C102	C	1.315519	-0.227085	0.433738
C103	C	0.816389	-0.667685	-0.066259
C104	C	1.316389	-0.167685	0.433741
C105	C	0.816809	-0.637999	-0.000241
C106	C	1.316809	-0.137999	0.499759
C107	C	0.823550	-0.180610	-0.066219
C108	C	1.323550	0.319390	0.433781
C109	C	0.824429	-0.121208	-0.066209
C110	C	1.324429	0.378792	0.433791
C111	C	0.824407	-0.121241	0.065820
C112	C	1.324407	0.378759	0.565820
C113	C	0.823531	-0.180638	0.065811
C114	C	1.323531	0.319362	0.565811
C115	C	0.823101	-0.210321	-0.000215
C116	C	1.323101	0.289679	0.499785
O117	O	0.822157	-0.274623	0.121903
O118	O	1.322157	0.225377	0.621903
O119	O	0.822159	-0.274611	-0.122370
O120	O	1.322159	0.225389	0.377630
C121	C	0.946985	0.071353	-0.000250
C122	C	1.446985	0.571353	0.499750
C123	C	1.024085	0.072279	-0.000274
C124	C	1.524085	0.572279	0.499726
C125	C	0.814151	0.179975	-0.000235
C126	C	1.314151	0.679975	0.499765
C127	C	0.815071	0.243196	-0.000247
C128	C	1.315071	0.743196	0.499753
N129	N	0.819940	0.075830	0.188450
N130	N	1.319940	0.575830	0.688450
N131	N	0.819992	0.075839	-0.188886
N132	N	1.319992	0.575839	0.311114
C133	C	0.867452	0.037009	0.226546
C134	C	1.367452	0.537009	0.726546
C135	C	0.867456	0.037007	0.302774
C136	C	1.367456	0.537007	0.802774
C137	C	0.819955	0.075834	0.340903
C138	C	1.319955	0.575834	0.840903
C139	C	0.772434	0.114658	0.302798
C140	C	1.272434	0.614658	0.802798
C141	C	0.772427	0.114655	0.226572
C142	C	1.272427	0.614655	0.726572
C143	C	0.810486	0.127727	0.461656
C144	C	1.310486	0.627727	0.961656
C145	C	0.810498	0.127730	0.537881
C146	C	1.310498	0.627730	1.037881
C147	C	0.819975	0.075842	0.576010
C148	C	1.319975	0.575842	1.076010
C149	C	0.829454	0.023948	0.537905
C150	C	1.329454	0.523948	1.037905
C151	C	0.829446	0.023946	0.461679
C152	C	1.329446	0.523946	0.961679
C153	C	0.819958	0.075841	0.423558
C154	C	1.319958	0.575841	0.923558
C155	C	0.867494	0.037015	0.696761
C156	C	1.367494	0.537015	1.196761
C157	C	0.867494	0.037012	0.772990
C158	C	1.367494	0.537012	1.272990
C159	C	0.772475	0.114668	0.773013
C160	C	1.272475	0.614668	1.273013
C161	C	0.772472	0.114666	0.696785
C162	C	1.272472	0.614666	1.196785
C163	C	0.819986	0.075841	0.658664
C164	C	1.319986	0.575841	1.158664
H165	H	0.593414	0.173483	-0.000196
H166	H	1.093414	0.673483	0.499804
F167	F	0.918061	-0.004311	0.813536
F168	F	1.418061	0.495689	1.313536
F169	F	0.823091	-0.212193	-0.136490
F170	F	1.323091	0.287807	0.363510
H171	H	0.819188	-0.477996	-0.186013
H172	H	1.319188	0.022004	0.313987
F173	F	0.153441	0.181198	-0.000273
F174	F	0.653441	0.681198	0.499727
H175	H	0.242185	0.147184	0.076732
H176	H	0.742185	0.647184	0.576732
H177	H	0.820778	-0.370250	-0.186005
H178	H	1.320778	0.129750	0.313995
H179	H	0.624805	-0.014860	-0.000143
H180	H	1.124805	0.485140	0.499857
H181	H	0.733736	0.146268	0.195554
H182	H	1.233736	0.646268	0.695554
F183	F	0.721907	0.155987	0.656238
F184	F	1.221907	0.655987	1.156238
H185	H	0.802784	0.169985	0.568900
H186	H	1.302784	0.669985	1.068900
H187	H	0.816755	-0.643498	-0.120014
H188	H	1.316755	-0.143498	0.379986
F189	F	0.721917	0.155987	0.813590
F190	F	1.221917	0.655987	1.313590
F191	F	0.450772	0.184770	-0.000215
F192	F	0.950772	0.684770	0.499785
H193	H	0.815170	-0.751267	-0.120014
H194	H	1.315170	-0.251267	0.379986
H195	H	0.820683	-0.370304	0.185561
H196	H	1.320683	0.129696	0.685561
F197	F	0.408461	-0.005346	-0.087795
F198	F	0.908461	0.494654	0.412205
F199	F	0.839528	-0.031282	0.421128
F200	F	1.339528	0.468718	0.921128
F201	F	0.815034	-0.758729	0.136029
F202	F	1.315034	-0.258729	0.636029
H203	H	0.373611	0.148767	0.076755
H204	H	0.873611	0.648767	0.576755
F205	F	0.800449	0.182959	0.421083
F206	F	1.300449	0.682959	0.921083
F207	F	0.721878	0.155979	0.343378
F208	F	1.221878	0.655979	0.843378
H209	H	0.015124	0.166530	-0.000285
H210	H	0.515124	0.666530	0.499715
H211	H	0.046507	-0.021810	-0.000306
H212	H	0.546507	0.478190	0.499694
F213	F	0.823064	-0.212261	0.136071
F214	F	1.323064	0.287739	0.636071
H215	H	0.177933	-0.020231	-0.000236
H216	H	0.677933	0.479769	0.499764
H217	H	0.266321	0.002909	-0.077215
H218	H	0.766321	0.502909	0.422785
H219	H	0.816710	-0.643547	0.119533
H220	H	1.316710	-0.143547	0.619533
F221	F	0.824910	-0.089592	-0.136474
F222	F	1.324910	0.410408	0.363526
F223	F	0.486484	-0.029523	-0.000174
F224	F	0.986484	0.470477	0.499826
H225	H	0.819116	-0.478057	0.185559
H226	H	1.319116	0.021943	0.685559
H227	H	0.824757	-0.097060	0.119567
H228	H	1.324757	0.402940	0.619567
F229	F	0.918028	-0.004313	0.343324
F230	F	1.418028	0.495687	0.843324
F231	F	0.918016	-0.004314	0.185976
F232	F	1.418016	0.495686	0.685976
H233	H	0.837170	-0.018305	0.568949
H234	H	1.337170	0.481695	1.068949
H235	H	0.906181	0.005399	0.665721
H236	H	1.406181	0.505399	1.165721
