data_functionalizedCrystal
_audit_creation_method	'MofGen! by Chris Wilmer'
_symmetry_space_group_name_H-M	'P1'
_symmetry_Int_Tables_number	1
_symmetry_cell_setting	triclinic
loop_
_symmetry_equiv_pos_as_xyz
  x,y,z
_cell_length_a	10.654550
_cell_length_b	10.654550
_cell_length_c	9.130313
_cell_angle_alpha	90.004369
_cell_angle_beta	90.007043
_cell_angle_gamma	84.484916
loop_
_atom_site_label
_atom_site_type_symbol
_atom_site_fract_x
_atom_site_fract_y
_atom_site_fract_z
O1	O	-1.667840	-0.176398	-0.121919
O2	O	-1.302361	-0.193205	-0.121896
O3	O	-1.493503	-0.002062	-0.121899
O4	O	-1.476697	-0.367541	-0.121916
O5	O	-1.493490	-0.002057	0.121700
O6	O	-1.302348	-0.193199	0.121703
O7	O	-1.667826	-0.176393	0.121679
Cu8	Cu	-1.485086	-0.184795	0.143934
Cu9	Cu	-1.485101	-0.184802	-0.144150
O10	O	-1.476684	-0.367535	0.121682
C11	C	-1.255556	-0.191968	-0.000093
C12	C	-1.116113	-0.188276	-0.000084
C13	C	-1.492263	0.044739	-0.000100
C14	C	-1.488571	0.184182	-0.000102
C15	C	-1.714631	-0.177630	-0.000126
C16	C	-1.854074	-0.181321	-0.000145
C17	C	-1.036628	-0.300817	-0.000111
C18	C	-0.905607	-0.297341	-0.000136
C19	C	-0.933570	-0.068771	-0.000114
C20	C	-1.064588	-0.072249	-0.000078
C21	C	-1.020482	-0.432780	-0.000130
C22	C	-0.889461	-0.429304	-0.000155
C23	C	-1.477925	-0.414336	-0.000120
C24	C	-1.481617	-0.553779	-0.000127
N25	N	-1.485084	-0.184790	0.346556
C26	C	-1.601112	0.263667	-0.000110
C27	C	-1.597636	0.394688	-0.000128
C28	C	-1.369066	0.366725	-0.000124
C29	C	-1.372544	0.235707	-0.000117
N30	N	-1.485113	-0.184798	-0.346773
C31	C	-1.569751	-0.100188	0.423207
C32	C	-1.569763	-0.100188	0.576544
C33	C	-1.400437	-0.269403	0.576566
C34	C	-1.400420	-0.269396	0.423232
H35	H	-1.129302	0.019393	-0.000036
H36	H	-0.891602	0.025694	-0.000132
H37	H	-1.695588	0.221721	-0.000102
C38	C	-1.661714	-0.008183	0.340222
C39	C	-1.735839	0.065930	0.440177
C40	C	-1.820556	0.150715	0.363790
H41	H	-1.714496	-0.053698	0.280377
H42	H	-1.616108	0.044590	0.280461
H43	H	-1.781441	0.013163	0.499913
H44	H	-1.683091	0.111472	0.500025
H45	H	-1.774951	0.203488	0.304029
H46	H	-1.873330	0.105190	0.303948
H47	H	-1.870852	0.201019	0.431597
H48	H	-0.843784	-0.469182	0.105011
H49	H	-1.331469	-0.338290	0.360819
H50	H	-1.049808	-0.484388	0.101819
H51	H	-0.847734	-0.479028	-0.102111
C52	C	-1.308324	-0.361115	0.659745
C53	C	-1.184736	-0.339568	0.622520
C54	C	-1.099847	-0.424019	0.699128
H55	H	-1.322509	-0.445117	0.634663
H56	H	-1.320378	-0.348995	0.762057
H57	H	-1.172687	-0.351698	0.520231
H58	H	-1.170510	-0.255582	0.647606
H59	H	-1.111901	-0.411900	0.801440
H60	H	-1.114044	-0.508016	0.674039
H61	H	-1.015984	-0.409404	0.673892
H62	H	-1.689279	0.459401	-0.000137
C63	C	-1.250210	0.149607	-0.000033
C64	C	-1.147855	0.222770	0.000004
C65	C	-1.035149	0.143499	0.000094
H66	H	-1.246648	0.097882	-0.084957
H67	H	-1.246743	0.097941	0.084951
H68	H	-1.151321	0.274414	-0.084972
H69	H	-1.151376	0.274492	0.084921
H70	H	-1.031681	0.091833	0.085078
H71	H	-1.031600	0.091778	-0.084831
H72	H	-0.965688	0.193128	0.000133
H73	H	-1.056143	-0.474802	-0.105304
H74	H	-1.638704	-0.031296	0.638948
H75	H	-1.274601	0.408693	-0.000132
