data_functionalizedCrystal
_audit_creation_method	'MofGen! by Chris Wilmer'
_symmetry_space_group_name_H-M	'P1'
_symmetry_Int_Tables_number	1
_symmetry_cell_setting	triclinic
loop_
_symmetry_equiv_pos_as_xyz
  x,y,z
_cell_length_a	11.169417
_cell_length_b	21.295417
_cell_length_c	11.169409
_cell_angle_alpha	90.041399
_cell_angle_beta	90.019824
_cell_angle_gamma	90.031386
loop_
_atom_site_label
_atom_site_type_symbol
_atom_site_fract_x
_atom_site_fract_y
_atom_site_fract_z
Zn1	Zn	1.834794	-0.250543	0.678467
Zn2	Zn	1.834613	-0.355832	0.477752
Zn3	Zn	1.634080	-0.250582	0.477802
Zn4	Zn	1.634017	-0.355780	0.678397
O5	O	1.734376	-0.303184	0.578105
O6	O	2.002720	-0.264516	0.651851
O7	O	1.807962	-0.341908	0.309809
O8	O	1.660807	-0.162487	0.504470
O9	O	2.002587	-0.341870	0.504386
O10	O	1.808271	-0.162459	0.651898
O11	O	1.660632	-0.264581	0.309845
O12	O	1.466122	-0.264531	0.504402
O13	O	1.660700	-0.341783	0.846356
O14	O	1.466076	-0.341820	0.651779
O15	O	1.808210	-0.264466	0.846408
O16	O	1.807901	-0.443914	0.504318
O17	O	1.660524	-0.443877	0.651731
C18	C	1.422551	-0.303175	0.578089
C19	C	1.289151	-0.303186	0.578111
C20	C	1.734219	-0.466736	0.578038
C21	C	1.734261	-0.536704	0.578050
C22	C	1.811069	-0.569569	0.501371
C23	C	1.811125	-0.635312	0.501398
C24	C	1.734352	-0.668187	0.578091
C25	C	1.657539	-0.635313	0.654785
C26	C	1.657494	-0.569572	0.654765
N27	N	1.629362	-0.771452	0.587235
N28	N	1.629409	-0.833904	0.587248
C29	C	1.734487	-0.866261	0.578160
N30	N	1.839518	-0.833808	0.569035
N31	N	1.839470	-0.771351	0.569016
C32	C	1.734394	-0.739472	0.578123
C33	C	1.811362	-0.970412	0.501506
C34	C	1.811420	-1.036156	0.501541
C35	C	1.657824	-1.036156	0.654923
C36	C	1.657776	-0.970413	0.654894
C37	C	1.734543	-0.937546	0.578179
C38	C	2.047418	-0.303194	0.578121
C39	C	2.180818	-0.303199	0.578128
C40	C	1.734468	-0.303114	0.891147
C41	C	1.734507	-0.303085	1.024547
C42	C	1.734567	-0.138994	0.578198
C43	C	1.734648	-0.069026	0.578237
C44	C	1.734353	-0.303209	0.266280
C45	C	1.734547	-0.303061	0.132880
H46	H	1.873580	-0.542810	0.438908
H47	H	1.595033	-0.662084	0.717232
H48	H	1.873874	-0.943650	0.439044
H49	H	1.595227	-0.943653	0.717328
C50	C	1.895606	-0.671474	0.417034
C51	C	1.980040	-0.635321	0.332648
C52	C	2.064516	-0.671481	0.248280
C53	C	2.064556	-0.743794	0.248298
C54	C	1.980118	-0.779951	0.332687
C55	C	1.895643	-0.743791	0.417055
H56	H	1.980013	-0.581787	0.332632
H57	H	2.127022	-0.644715	0.185810
H58	H	2.127090	-0.770562	0.185844
H59	H	1.980146	-0.833485	0.332703
H60	H	1.833137	-0.770557	0.479525
H61	H	1.594947	-0.542813	0.717208
C62	C	1.573374	-1.072311	0.739289
C63	C	1.583092	-1.063205	0.875732
C64	C	1.498644	-1.099364	0.960104
C65	C	1.404478	-1.144630	0.908032
C66	C	1.394756	-1.153739	0.771581
C67	C	1.479204	-1.117579	0.687210
H68	H	1.652803	-1.029694	0.914285
H69	H	1.505841	-1.092621	1.061114
H70	H	1.341964	-1.171398	0.970489
H71	H	1.325045	-1.187249	0.733028
H72	H	1.472006	-1.124322	0.586199
H73	H	1.873973	-1.062914	0.439102
