data_functionalizedCrystal
_audit_creation_method	'MofGen! by Chris Wilmer'
_symmetry_space_group_name_H-M	'P1'
_symmetry_Int_Tables_number	1
_symmetry_cell_setting	triclinic
loop_
_symmetry_equiv_pos_as_xyz
  x,y,z
_cell_length_a	15.625020
_cell_length_b	10.540539
_cell_length_c	14.750779
_cell_angle_alpha	77.230089
_cell_angle_beta	85.134135
_cell_angle_gamma	84.372115
loop_
_atom_site_label
_atom_site_type_symbol
_atom_site_fract_x
_atom_site_fract_y
_atom_site_fract_z
O1	O	1.086088	0.323497	-0.457933
O2	O	0.844185	0.314226	-0.373718
O3	O	0.970656	0.134751	-0.417746
O4	O	0.959618	0.502973	-0.413905
O5	O	1.006408	0.084021	-0.270541
O6	O	0.879937	0.263497	-0.226514
O7	O	1.121840	0.272768	-0.310729
Zn8	Zn	1.006565	0.260078	-0.245249
Zn9	Zn	0.959460	0.326916	-0.439197
O10	O	0.995369	0.452243	-0.266701
C11	C	0.831086	0.284252	-0.289332
C12	C	0.738789	0.270501	-0.257200
C13	C	0.987704	0.061994	-0.343857
C14	C	0.985226	-0.079219	-0.343000
C15	C	0.628186	0.223469	-0.131677
C16	C	0.714910	0.236393	-0.161879
C17	C	0.675944	0.291692	-0.322358
C18	C	0.589215	0.278766	-0.292170
C19	C	0.565343	0.244656	-0.196828
C20	C	0.526372	0.299953	-0.357321
C21	C	0.439650	0.287035	-0.327134
C22	C	0.415770	0.252929	-0.231796
C23	C	0.478621	0.231737	-0.166641
C24	C	0.550245	0.334073	-0.452662
C25	C	0.487403	0.355260	-0.517813
C26	C	0.400679	0.342332	-0.487627
C27	C	0.376800	0.308227	-0.392289
C28	C	0.337829	0.363524	-0.552782
C29	C	0.251106	0.350606	-0.522596
C30	C	0.290077	0.295308	-0.362103
C31	C	0.890250	-0.272782	-0.310293
C32	C	0.892840	-0.126007	-0.310836
C33	C	1.050102	-0.165044	-0.274417
C34	C	1.046966	-0.311954	-0.273248
C35	C	1.008189	-0.254580	-0.441301
C36	C	1.008770	-0.107123	-0.442709
C37	C	1.134939	0.302743	-0.395116
C38	C	1.227235	0.316495	-0.427254
C39	C	0.978321	0.525000	-0.340592
C40	C	0.980797	0.666216	-0.341455
N41	N	1.038718	0.214462	-0.112887
N42	N	0.927313	0.372522	-0.571562
C43	C	0.837513	0.499863	0.308976
C44	C	0.860050	0.467908	0.401629
C45	C	0.972063	0.309049	0.362597
C46	C	0.949532	0.340987	0.269940
C47	C	0.882257	0.436396	0.243137
C48	C	0.994277	0.277519	0.204101
C49	C	0.971751	0.309459	0.111450
C50	C	0.904480	0.404867	0.084639
C51	C	0.859731	0.468336	0.150487
C52	C	1.061556	0.182117	0.230904
C53	C	1.106301	0.118649	0.165065
C54	C	1.083771	0.150582	0.072414
C55	C	1.016500	0.245990	0.045602
C56	C	1.128520	0.087113	0.006566
C57	C	1.105994	0.119053	-0.086084
C58	C	0.993974	0.277930	-0.047048
H59	H	0.270639	0.267548	-0.284466
Br60	Br	0.446218	0.185400	-0.037248
Br61	Br	1.063367	0.179575	0.398978
H62	H	1.118707	-0.136440	-0.294911
Br63	Br	1.119179	-0.320954	-0.480965
H64	H	1.074893	-0.073878	-0.471234
H65	H	0.962814	-0.267406	-0.494604
H66	H	0.766076	0.219145	-0.108817
Br67	Br	0.165813	0.379371	-0.611014
Br68	Br	0.929835	-0.008280	-0.527660
Br69	Br	1.159250	-0.382146	-0.305433
H70	H	0.345154	0.242418	-0.207220
Br71	Br	0.667941	0.351612	-0.493630
Br72	Br	0.873913	0.448226	-0.041104
H73	H	1.034411	-0.147338	-0.201110
Br74	Br	0.799319	0.554065	0.490978
Br75	Br	0.768415	0.597804	0.114111
Br76	Br	0.370237	0.409834	-0.682169
Br77	Br	1.197604	-0.010825	0.201445
Br78	Br	0.746197	0.629332	0.272600
Br79	Br	0.810140	-0.026677	-0.390972
H80	H	0.839114	-0.284549	-0.357870
H81	H	0.506851	0.383038	-0.595441
Br82	Br	0.595783	0.177131	-0.002284
Br83	Br	1.219830	-0.042348	0.042947
H84	H	0.939185	0.355612	-0.068868
Br85	Br	1.166725	0.032924	-0.175443
H86	H	0.868462	-0.327573	-0.237696
H87	H	0.695393	0.319470	-0.399986
H88	H	0.872271	-0.108856	-0.238213
Br89	Br	1.017634	-0.400969	-0.149451
H90	H	1.079897	0.156120	0.306346
