data_functionalizedCrystal
_audit_creation_method	'MofGen! by Chris Wilmer'
_symmetry_space_group_name_H-M	'P1'
_symmetry_Int_Tables_number	1
_symmetry_cell_setting	triclinic
loop_
_symmetry_equiv_pos_as_xyz
  x,y,z
_cell_length_a	16.959454
_cell_length_b	25.639242
_cell_length_c	16.959447
_cell_angle_alpha	89.974667
_cell_angle_beta	90.026736
_cell_angle_gamma	89.985266
loop_
_atom_site_label
_atom_site_type_symbol
_atom_site_fract_x
_atom_site_fract_y
_atom_site_fract_z
Zn1	Zn	-0.314778	-0.799303	0.447161
Zn2	Zn	-0.446971	-0.799252	0.314990
Zn3	Zn	-0.314798	-0.711876	0.314973
Zn4	Zn	-0.446907	-0.711853	0.447103
O5	O	-0.380863	-0.755571	0.381057
O6	O	-0.332333	-0.872462	0.429659
O7	O	-0.429473	-0.787650	0.204377
O8	O	-0.204185	-0.723505	0.332524
O9	O	-0.429454	-0.872424	0.332554
O10	O	-0.204170	-0.787737	0.429642
O11	O	-0.332366	-0.723455	0.204364
O12	O	-0.332304	-0.638708	0.332469
O13	O	-0.429344	-0.723465	0.557722
O14	O	-0.429363	-0.638691	0.429545
O15	O	-0.332270	-0.787715	0.557764
O16	O	-0.557573	-0.787627	0.332499
O17	O	-0.557526	-0.723416	0.429562
C18	C	-0.380829	-0.619729	0.380999
C19	C	-0.380834	-0.561615	0.380993
C20	C	-0.330237	-0.310421	0.330577
C21	C	-0.330230	-0.365026	0.330569
O22	O	-0.287167	-0.393262	0.287670
N23	N	-0.380842	-0.392341	0.381025
C24	C	-0.431459	-0.365049	0.431498
O25	O	-0.474507	-0.393296	0.474415
C26	C	-0.431461	-0.310445	0.431509
C27	C	-0.380852	-0.283133	0.381044
C28	C	-0.279631	-0.283109	0.280116
C29	C	-0.279639	-0.228508	0.280123
C30	C	-0.330254	-0.201220	0.330590
C31	C	-0.380860	-0.228533	0.381051
C32	C	-0.482073	-0.283154	0.481986
C33	C	-0.482071	-0.228547	0.481993
C34	C	-0.431461	-0.201235	0.431527
C35	C	-0.431482	-0.146644	0.431525
N36	N	-0.380870	-0.119329	0.381069
C37	C	-0.330256	-0.146617	0.330601
C38	C	-0.431449	-0.479719	0.431472
C39	C	-0.431451	-0.534322	0.431458
C40	C	-0.330221	-0.534295	0.330530
C41	C	-0.330224	-0.479692	0.330541
C42	C	-0.380837	-0.452404	0.381016
C43	C	-0.330278	-0.031952	0.330619
C44	C	-0.330293	0.022654	0.330628
C45	C	-0.431519	0.022622	0.431559
C46	C	-0.431507	-0.031979	0.431547
C47	C	-0.380880	-0.059264	0.381075
O48	O	-0.474522	-0.118372	0.474405
O49	O	-0.287208	-0.118363	0.287699
C50	C	-0.586230	-0.755527	0.381043
C51	C	-0.674086	-0.755557	0.381064
C52	C	-1.045567	-0.722185	0.431592
C53	C	-1.045557	-0.789103	0.330602
C54	C	-0.963011	-0.789085	0.330595
C55	C	-0.921739	-0.755616	0.381086
C56	C	-0.963014	-0.722164	0.431585
C57	C	-0.921730	-0.822532	0.280091
C58	C	-0.839179	-0.822515	0.280081
C59	C	-0.797906	-0.789047	0.330577
C60	C	-0.839186	-0.755595	0.381079
C61	C	-0.797914	-0.722126	0.431570
C62	C	-0.839192	-0.688676	0.482076
C63	C	-0.921741	-0.688697	0.482081
C64	C	-0.715358	-0.789026	0.330573
C65	C	-0.715361	-0.722105	0.431563
C66	C	-0.174695	-0.755629	0.381088
C67	C	-0.086839	-0.755654	0.381101
C68	C	-0.380798	-0.755593	0.587225
C69	C	-0.380770	-0.755602	0.675082
C70	C	-0.380897	0.108056	0.381104
C71	C	-0.380907	0.049942	0.381095
C72	C	-0.380872	-0.755580	0.175691
C73	C	-0.380677	-0.755672	0.087834
C74	C	-0.431229	-0.722213	1.046538
C75	C	-0.330145	-0.789116	1.046577
C76	C	-0.330162	-0.789103	0.964031
C77	C	-0.380714	-0.755644	0.922735
C78	C	-0.431249	-0.722199	0.963985
C79	C	-0.279633	-0.822550	0.922775
C80	C	-0.279648	-0.822538	0.840224
C81	C	-0.330197	-0.789076	0.798926
C82	C	-0.380734	-0.755630	0.840181
C83	C	-0.431285	-0.722171	0.798885
C84	C	-0.481819	-0.688722	0.840138
C85	C	-0.481797	-0.688738	0.922687
C86	C	-0.330218	-0.789061	0.716378
C87	C	-0.431305	-0.722158	0.716331
H88	H	-0.289007	-0.556523	0.289438
H89	H	-0.289010	-0.457457	0.289450
Br90	Br	-0.783171	-0.643251	0.550591
H91	H	-0.955339	-0.849777	0.238978
Br92	Br	-0.500202	-0.069047	0.500026
H93	H	-0.472731	0.044850	0.472645
Br94	Br	-0.211040	-0.867961	0.978822
Br95	Br	-0.261651	-0.834457	0.660394
Br96	Br	-0.210928	-0.320133	0.211618
Br97	Br	-0.211068	-0.867932	0.784244
H98	H	-0.523285	-0.206333	0.523100
H99	H	-0.472671	-0.556555	0.472544
H100	H	-0.289049	-0.054161	0.289523
Br101	Br	-0.261606	0.059717	0.262132
Br102	Br	-0.550374	-0.643348	0.978678
Br103	Br	-0.550763	-0.320207	0.550479
Br104	Br	-0.977765	-0.643305	0.550618
H105	H	-0.238428	-0.206276	0.239029
Br106	Br	-0.499802	-0.676817	1.102521
H107	H	-0.681763	-0.694852	0.472682
H108	H	-1.079179	-0.694952	0.472715
Br109	Br	-1.101568	-0.834523	0.262080
H110	H	-0.805576	-0.849752	0.238958
Br111	Br	-0.500151	-0.442692	0.499976
Br112	Br	-0.261550	-0.834528	1.102622
H113	H	-0.681753	-0.816258	0.289448
H114	H	-0.472464	-0.694906	0.682714
Br115	Br	-0.550429	-0.643320	0.784084
