data_functionalizedCrystal
_audit_creation_method	'MofGen! by Chris Wilmer'
_symmetry_space_group_name_H-M	'P1'
_symmetry_Int_Tables_number	1
_symmetry_cell_setting	triclinic
loop_
_symmetry_equiv_pos_as_xyz
  x,y,z
_cell_length_a	8.634740
_cell_length_b	11.026607
_cell_length_c	7.681481
_cell_angle_alpha	82.996689
_cell_angle_beta	96.618947
_cell_angle_gamma	104.578162
loop_
_atom_site_label
_atom_site_type_symbol
_atom_site_fract_x
_atom_site_fract_y
_atom_site_fract_z
O1	O	2.147801	0.419033	-0.146415
O2	O	1.689330	0.384744	-0.146420
O3	O	1.880568	0.220792	-0.146411
O4	O	1.956562	0.582985	-0.146423
O5	O	1.904092	0.200559	0.146447
O6	O	1.712853	0.364511	0.146439
O7	O	2.171324	0.398800	0.146444
Zn8	Zn	1.945824	0.378443	0.192939
Zn9	Zn	1.914831	0.405101	-0.192915
O10	O	1.980086	0.562752	0.146435
C11	C	1.641485	0.366859	0.000009
C12	C	1.463873	0.343699	0.000007
C13	C	1.878310	0.163826	0.000016
C14	C	1.836516	0.024226	0.000009
C15	C	1.951915	-0.036087	0.000008
C16	C	1.908721	-0.180371	0.000001
C17	C	2.219169	0.416685	0.000011
C18	C	2.396780	0.439846	0.000002
C19	C	1.982344	0.619718	0.000004
C20	C	2.024137	0.759319	-0.000001
N21	N	1.966987	0.360250	0.456274
N22	N	1.893677	0.423286	-0.456250
H23	H	2.082689	0.019094	0.000020
O24	O	1.680586	-0.041791	0.000079
C25	C	1.495350	-0.245774	-0.000050
C26	C	1.672011	-0.171173	-0.000086
H27	H	1.488356	-0.350390	-0.000221
H28	H	1.443249	-0.229628	0.122540
H29	H	1.423640	-0.212508	-0.122582
H30	H	1.743851	-0.204393	0.122363
H31	H	1.723985	-0.187321	-0.122757
O32	O	1.804600	0.500225	0.454128
C33	C	1.767533	0.711335	0.397469
C34	C	1.868572	0.624347	0.499056
H35	H	1.819196	0.811701	0.433784
H36	H	1.770306	0.709070	0.249894
H37	H	1.638207	0.677605	0.433616
H38	H	1.997941	0.658015	0.463057
H39	H	1.865664	0.626620	0.646606
H40	H	2.041843	0.295916	0.531483
O41	O	2.180088	-0.174682	0.000078
C42	C	2.365312	0.029315	-0.000032
C43	C	2.188643	-0.045276	-0.000076
H44	H	2.372284	0.133955	-0.000194
H45	H	2.437103	-0.003781	0.122557
H46	H	2.417338	0.012988	-0.122565
H47	H	2.136474	-0.028984	0.122374
H48	H	2.116965	-0.012167	-0.122746
H49	H	1.385430	0.243667	-0.000036
H50	H	1.475228	0.539887	0.000010
H51	H	1.777938	-0.235548	-0.000012
