data_functionalizedCrystal
_audit_creation_method	'MofGen! by Chris Wilmer'
_symmetry_space_group_name_H-M	'P1'
_symmetry_Int_Tables_number	1
_symmetry_cell_setting	triclinic
loop_
_symmetry_equiv_pos_as_xyz
  x,y,z
_cell_length_a	15.995350
_cell_length_b	10.723024
_cell_length_c	9.198806
_cell_angle_alpha	89.997723
_cell_angle_beta	89.999688
_cell_angle_gamma	83.980122
loop_
_atom_site_label
_atom_site_type_symbol
_atom_site_fract_x
_atom_site_fract_y
_atom_site_fract_z
O1	O	-1.111909	-0.160840	0.120765
O2	O	-0.868248	-0.180701	0.120795
O3	O	-0.995699	0.010877	0.120774
O4	O	-0.984458	-0.352418	0.120786
O5	O	-0.995689	0.010879	-0.121011
O6	O	-0.868238	-0.180700	-0.120990
O7	O	-1.111899	-0.160838	-0.121020
Cu8	Cu	-0.990067	-0.170769	-0.143082
Cu9	Cu	-0.990079	-0.170771	0.142857
O10	O	-0.984448	-0.352417	-0.120999
C11	C	-0.837043	-0.179880	-0.000094
C12	C	-0.744079	-0.177418	-0.000083
C13	C	-1.143103	-0.161660	-0.000128
C14	C	-1.236068	-0.164122	-0.000129
C15	C	-0.406280	-0.168577	-0.000113
C16	C	-0.452931	-0.032138	-0.000657
C17	C	-0.549635	-0.034601	-0.000102
C18	C	-0.573866	-0.172962	-0.000099
C19	C	-0.533171	-0.240259	0.137969
C20	C	-0.436516	-0.236832	0.138074
C21	C	-0.436182	-0.239649	-0.136881
C22	C	-0.533127	-0.239617	-0.138695
C23	C	-0.668578	-0.175448	-0.000086
C24	C	-0.311568	-0.166096	-0.000116
C25	C	-0.994876	0.057367	-0.000117
C26	C	-0.992428	0.195890	-0.000111
C27	C	-0.985271	-0.398907	-0.000105
C28	C	-0.987718	-0.537430	-0.000101
N29	N	-0.990065	-0.170767	-0.344196
C30	C	-1.063743	0.271783	-0.000118
C31	C	-1.061215	0.414954	-0.000112
C32	C	-1.038887	-0.242505	-0.416397
C33	C	-1.038900	-0.242504	-0.583810
N34	N	-0.990088	-0.170763	0.343971
H35	H	-0.577756	0.018298	-0.099075
H36	H	-0.577191	0.018655	0.099040
Br37	Br	-1.108550	-0.344871	-0.312866
H38	H	-0.929501	0.236910	-0.000094
Br39	Br	-1.108564	-0.344889	-0.687289
H40	H	-1.126670	0.230763	-0.000134
Br41	Br	-0.920407	-0.068397	-0.552559
Br42	Br	-1.162978	0.523636	-0.000139
H43	H	-0.404843	-0.337003	0.144342
H44	H	-0.417930	-0.187757	0.241281
Br45	Br	-0.578061	-0.157596	-0.308940
H46	H	-0.948278	-0.109345	-0.406321
Br47	Br	-0.557711	-0.409673	0.146570
H48	H	-0.434091	0.022400	-0.099671
H49	H	-0.433029	0.022148	0.097807
H50	H	-0.561281	-0.193519	0.240719
H51	H	-0.415386	-0.195044	-0.241533
Br52	Br	-0.384210	-0.407315	-0.138434
H53	H	-0.549071	-0.340515	-0.147033
H54	H	-0.926664	0.397366	-0.000105
