data_functionalizedCrystal
_audit_creation_method	'MofGen! by Chris Wilmer'
_symmetry_space_group_name_H-M	'P1'
_symmetry_Int_Tables_number	1
_symmetry_cell_setting	triclinic
loop_
_symmetry_equiv_pos_as_xyz
  x,y,z
_cell_length_a	15.944551
_cell_length_b	15.944493
_cell_length_c	18.366186
_cell_angle_alpha	89.999635
_cell_angle_beta	89.995445
_cell_angle_gamma	83.486891
loop_
_atom_site_label
_atom_site_type_symbol
_atom_site_fract_x
_atom_site_fract_y
_atom_site_fract_z
O1	O	1.114507	0.108336	-0.060464
O2	O	1.614507	0.608336	0.439536
O3	O	0.869955	0.121693	-0.060481
O4	O	1.369955	0.621693	0.439519
O5	O	0.998934	-0.007264	-0.060478
O6	O	1.498934	0.492736	0.439522
O7	O	0.985527	0.237293	-0.060467
O8	O	1.485527	0.737293	0.439533
O9	O	0.998912	-0.007270	0.060621
O10	O	1.498912	0.492730	0.560621
O11	O	0.869933	0.121686	0.060618
O12	O	1.369933	0.621686	0.560618
O13	O	1.114485	0.108330	0.060635
O14	O	1.614485	0.608330	0.560635
Zn15	Zn	0.992205	0.115007	0.079854
Zn16	Zn	1.492205	0.615007	0.579854
Zn17	Zn	0.992234	0.115016	-0.079700
Zn18	Zn	1.492234	0.615016	0.420300
O19	O	0.985505	0.237286	0.060632
O20	O	1.485505	0.737286	0.560632
C21	C	0.838650	0.121135	0.000066
C22	C	1.338650	0.621135	0.500066
C23	C	0.745404	0.119473	0.000059
C24	C	1.245404	0.619473	0.500059
C25	C	0.998375	-0.038562	0.000068
C26	C	1.498375	0.461438	0.500068
C27	C	0.996733	-0.131810	0.000059
C28	C	1.496733	0.368190	0.500059
C29	C	0.530565	0.035566	0.000070
C30	C	1.030565	0.535566	0.500070
C31	C	0.469547	0.074533	-0.059637
C32	C	0.969547	0.574533	0.440363
C33	C	0.574679	0.116465	0.000068
C34	C	1.074679	0.616465	0.500068
C35	C	0.469548	0.074546	0.059758
C36	C	0.969548	0.574546	0.559758
C37	C	0.409767	0.113555	0.000079
C38	C	0.909767	0.613555	0.500079
C39	C	0.514890	0.155454	-0.059688
C40	C	1.014890	0.655454	0.440312
C41	C	0.514897	0.155456	0.059760
C42	C	1.014897	0.655456	0.559760
C43	C	0.453897	0.194481	0.000039
C44	C	0.953897	0.694481	0.500039
C45	C	0.669681	0.118140	0.000061
C46	C	1.169681	0.618140	0.500061
C47	C	0.314766	0.111886	0.000081
C48	C	0.814766	0.611886	0.500081
C49	C	1.072653	-0.367570	0.000078
C50	C	1.572653	0.132430	0.500078
C51	C	1.031723	-0.418135	-0.059633
C52	C	1.531723	0.081865	0.440367
C53	C	0.993688	-0.302531	0.000068
C54	C	1.493688	0.197469	0.500068
C55	C	1.031683	-0.418117	0.059762
C56	C	1.531683	0.081883	0.559762
C57	C	0.990754	-0.467441	0.000079
C58	C	1.490754	0.032559	0.500079
C59	C	0.952780	-0.351868	-0.059692
C60	C	1.452780	0.148132	0.440308
C61	C	0.952751	-0.351847	0.059756
C62	C	1.452751	0.148153	0.559756
C63	C	0.911763	-0.402379	0.000030
C64	C	1.411763	0.097621	0.500030
C65	C	0.995381	-0.207531	0.000060
C66	C	1.495381	0.292469	0.500060
C67	C	0.989055	-0.562438	0.000081
C68	C	1.489055	-0.062438	0.500081
C69	C	1.145790	0.108887	0.000086
C70	C	1.645790	0.608887	0.500086
C71	C	1.239036	0.110550	0.000089
C72	C	1.739036	0.610550	0.500089
C73	C	0.986064	0.268584	0.000084
C74	C	1.486064	0.768584	0.500084
C75	C	0.987707	0.361833	0.000089
C76	C	1.487707	0.861833	0.500089
N77	N	0.992192	0.115001	0.188745
N78	N	1.492192	0.615001	0.688745
N79	N	0.992255	0.115015	-0.188591
N80	N	1.492255	0.615015	0.311409
C81	C	1.049323	0.057927	0.226847
C82	C	1.549323	0.557927	0.726847
C83	C	1.049328	0.057923	0.303075
C84	C	1.549328	0.557923	0.803075
C85	C	0.992210	0.115008	0.341198
C86	C	1.492210	0.615008	0.841198
C87	C	0.935069	0.172086	0.303087
C88	C	1.435069	0.672086	0.803087
C89	C	0.935059	0.172082	0.226861
C90	C	1.435059	0.672082	0.726861
C91	C	0.981194	0.191508	0.461961
C92	C	1.481194	0.691508	0.961961
C93	C	0.981209	0.191513	0.538186
C94	C	1.481209	0.691513	1.038186
C95	C	0.992234	0.115018	0.576305
C96	C	1.492234	0.615018	1.076305
C97	C	1.003262	0.038516	0.538190
C98	C	1.503262	0.538516	1.038190
C99	C	1.003253	0.038512	0.461964
C100	C	1.503253	0.538512	0.961964
C101	C	0.992214	0.115018	0.423853
C102	C	1.492214	0.615018	0.923853
C103	C	1.049374	0.057936	0.697062
C104	C	1.549374	0.557936	1.197062
C105	C	1.049374	0.057931	0.773291
C106	C	1.549374	0.557931	1.273291
C107	C	0.935118	0.172101	0.773302
C108	C	1.435118	0.672101	1.273302
C109	C	0.935115	0.172099	0.697074
C110	C	1.435115	0.672099	1.197074
C111	C	0.992247	0.115017	0.658959
C112	C	1.492247	0.615017	1.158959
H113	H	0.563912	-0.031574	-0.000007
H114	H	1.063912	0.468426	0.499993
H115	H	1.140671	-0.351942	0.000023
H116	H	1.640671	0.148058	0.500023
H117	H	0.534879	0.189648	-0.110220
H118	H	1.034879	0.689648	0.389780
Br119	Br	0.897219	-0.303557	0.143892
Br120	Br	1.397219	0.196443	0.643892
Br121	Br	1.126907	-0.019540	0.825005
Br122	Br	1.626907	0.480460	1.325005
Br123	Br	1.087317	-0.466377	-0.143765
Br124	Br	1.587317	0.033623	0.356235
H125	H	0.449454	0.040318	-0.110118
H126	H	0.949454	0.540318	0.389882
H127	H	0.919460	-0.323046	-0.110227
H128	H	1.419460	0.176954	0.389773
H129	H	0.843692	-0.417845	-0.000007
H130	H	1.343692	0.082155	0.499993
H131	H	0.420724	0.261690	0.000009
H132	H	0.920724	0.761690	0.500009
H133	H	0.535012	0.189642	0.110243
H134	H	1.035012	0.689642	0.610243
H135	H	1.065038	-0.447051	0.110239
H136	H	1.565038	0.052949	0.610239
H137	H	1.095841	0.011446	0.195815
H138	H	1.595841	0.511446	0.695815
H139	H	0.888597	0.218577	0.666050
H140	H	1.388597	0.718577	1.166050
H141	H	0.449460	0.040311	0.110233
H142	H	0.949460	0.540311	0.610233
H143	H	1.095852	0.011445	0.334103
H144	H	1.595852	0.511445	0.834103
H145	H	1.012230	-0.023778	0.430934
H146	H	1.512230	0.476222	0.930934
Br147	Br	1.018236	-0.065306	0.589913
Br148	Br	1.518236	0.434694	1.089913
Br149	Br	1.126907	-0.019534	0.645332
Br150	Br	1.626907	0.480466	1.145332
H151	H	0.888609	0.218577	0.804341
H152	H	1.388609	0.718577	1.304341
Br153	Br	0.966252	0.295336	0.589906
Br154	Br	1.466252	0.795336	1.089906
Br155	Br	0.966314	0.295335	0.410236
Br156	Br	1.466314	0.795335	0.910236
Br157	Br	0.857545	0.249553	0.354823
Br158	Br	1.357545	0.749553	0.854823
H159	H	0.888535	0.218560	0.195838
H160	H	1.388535	0.718560	0.695838
