data_functionalizedCrystal
_audit_creation_method	'MofGen! by Chris Wilmer'
_symmetry_space_group_name_H-M	'P1'
_symmetry_Int_Tables_number	1
_symmetry_cell_setting	triclinic
loop_
_symmetry_equiv_pos_as_xyz
  x,y,z
_cell_length_a	17.038278
_cell_length_b	17.038272
_cell_length_c	16.098538
_cell_angle_alpha	92.920305
_cell_angle_beta	87.064023
_cell_angle_gamma	91.111028
loop_
_atom_site_label
_atom_site_type_symbol
_atom_site_fract_x
_atom_site_fract_y
_atom_site_fract_z
O1	O	1.052037	0.167251	-0.069264
O2	O	1.552037	0.667251	0.430736
O3	O	0.824226	0.164545	-0.069265
O4	O	1.324226	0.664545	0.430735
O5	O	0.936777	0.051993	-0.069258
O6	O	1.436777	0.551993	0.430742
O7	O	0.939486	0.279803	-0.069271
O8	O	1.439486	0.779803	0.430729
O9	O	0.930201	0.058540	0.069255
O10	O	1.430201	0.558540	0.569255
O11	O	0.817649	0.171092	0.069248
O12	O	1.317649	0.671092	0.569248
O13	O	1.045461	0.173798	0.069248
O14	O	1.545461	0.673798	0.569248
Zn15	Zn	0.930511	0.173485	0.091240
Zn16	Zn	1.430511	0.673485	0.591240
Zn17	Zn	0.939176	0.164859	-0.091256
Zn18	Zn	1.439176	0.664859	0.408744
O19	O	0.932909	0.286351	0.069241
O20	O	1.432909	0.786351	0.569241
C21	C	0.791645	0.165356	-0.000008
C22	C	1.291645	0.665356	0.499992
C23	C	0.704361	0.158009	-0.000008
C24	C	1.204361	0.658009	0.499992
C25	C	0.931026	0.025973	-0.000002
C26	C	1.431026	0.525973	0.499998
C27	C	0.923678	-0.061310	-0.000002
C28	C	1.423678	0.438690	0.499998
C29	C	0.210936	0.112871	-0.000009
C30	C	0.710936	0.612871	0.499991
C31	C	0.292947	0.119781	-0.000004
C32	C	0.792947	0.619781	0.499996
C33	C	0.329347	0.194154	-0.000012
C34	C	0.829347	0.694154	0.499988
C35	C	0.283731	0.261622	-0.000016
C36	C	0.783731	0.761622	0.499984
C37	C	0.201721	0.254712	-0.000015
C38	C	0.701721	0.754712	0.499985
C39	C	0.576735	0.218567	-0.000011
C40	C	1.076735	0.718567	0.499989
C41	C	0.658751	0.225472	-0.000015
C42	C	1.158751	0.725472	0.499985
C43	C	0.667962	0.083630	-0.000001
C44	C	1.167962	0.583630	0.499999
C45	C	0.585950	0.076726	-0.000005
C46	C	1.085950	0.576726	0.499995
C47	C	0.540340	0.144194	-0.000005
C48	C	1.040340	0.644194	0.499995
C49	C	0.413176	0.201219	-0.000010
C50	C	0.913176	0.701219	0.499990
C51	C	0.456513	0.137129	-0.000001
C52	C	0.956513	0.637129	0.499999
C53	C	0.991142	-0.106920	-0.000001
C54	C	1.491142	0.393080	0.499999
C55	C	0.984233	-0.188932	-0.000009
C56	C	1.484233	0.311068	0.499991
C57	C	0.909860	-0.225333	-0.000012
C58	C	1.409860	0.274667	0.499988
C59	C	0.842392	-0.179717	-0.000015
C60	C	1.342392	0.320283	0.499985
C61	C	0.849301	-0.097706	-0.000013
C62	C	1.349301	0.402294	0.499987
C63	C	0.885450	-0.472721	-0.000023
C64	C	1.385450	0.027279	0.499977
C65	C	0.878545	-0.554737	-0.000023
C66	C	1.378545	-0.054737	0.499977
C67	C	1.020388	-0.563947	-0.000018
C68	C	1.520388	-0.063947	0.499982
C69	C	1.027291	-0.481934	-0.000011
C70	C	1.527291	0.018066	0.499989
C71	C	0.959822	-0.436326	-0.000019
C72	C	1.459822	0.063674	0.499981
C73	C	0.902796	-0.309162	-0.000017
C74	C	1.402796	0.190838	0.499983
C75	C	0.966887	-0.352498	-0.000019
C76	C	1.466887	0.147502	0.499981
C77	C	1.078042	0.172987	-0.000010
C78	C	1.578042	0.672987	0.499990
C79	C	1.165326	0.180334	-0.000015
C80	C	1.665326	0.680334	0.499985
C81	C	0.938661	0.312370	-0.000017
C82	C	1.438661	0.812370	0.499983
C83	C	0.946009	0.399653	-0.000022
C84	C	1.446009	0.899653	0.499978
N85	N	0.924603	0.179372	0.215789
N86	N	1.424603	0.679372	0.715789
N87	N	0.945089	0.158966	-0.215805
N88	N	1.445089	0.658966	0.284195
C89	C	0.972394	0.131619	0.259377
C90	C	1.472394	0.631619	0.759377
C91	C	0.968269	0.135745	0.346565
C92	C	1.468269	0.635745	0.846565
C93	C	0.916356	0.187629	0.390165
C94	C	1.416356	0.687629	0.890165
C95	C	0.868560	0.235383	0.346571
C96	C	1.368560	0.735383	0.846571
C97	C	0.872681	0.231252	0.259383
C98	C	1.372681	0.731252	0.759383
C99	C	0.901414	0.202589	0.653414
C100	C	1.401414	0.702589	1.153414
C101	C	0.897298	0.206718	0.740607
C102	C	1.397298	0.706718	1.240607
C103	C	0.997007	0.107079	0.740596
C104	C	1.497007	0.607079	1.240596
C105	C	1.001127	0.102956	0.653407
C106	C	1.501127	0.602956	1.153407
C107	C	0.953328	0.150708	0.609821
C108	C	1.453328	0.650708	1.109821
C109	C	0.912141	0.191849	0.479286
C110	C	1.412141	0.691849	0.979286
C111	C	0.957540	0.146483	0.520701
C112	C	1.457540	0.646483	1.020701
H113	H	0.330080	0.064845	0.000005
H114	H	0.830080	0.564845	0.500005
O115	O	0.762171	-0.218971	-0.000010
O116	O	1.262171	0.281029	0.499990
H117	H	0.768698	-0.283660	0.000001
H118	H	1.268698	0.216340	0.500001
H119	H	0.164586	0.309648	-0.000018
H120	H	0.664586	0.809648	0.499982
O121	O	0.417259	0.056913	0.000013
O122	O	0.917259	0.556913	0.500013
H123	H	0.382798	0.047702	-0.056444
H124	H	0.882798	0.547702	0.443556
H125	H	0.442823	0.261774	-0.000019
H126	H	0.942823	0.761774	0.499981
O127	O	1.028379	0.075644	0.212365
O128	O	1.528379	0.575644	0.712365
H129	H	0.994651	0.033381	0.172663
H130	H	1.494651	0.533381	0.672663
O131	O	0.322992	0.341839	-0.000019
O132	O	0.822992	0.841839	0.499981
H133	H	0.277495	0.387590	-0.000014
H134	H	0.777495	0.887590	0.499986
H135	H	0.556319	0.016164	0.000002
H136	H	1.056319	0.516164	0.500002
O137	O	1.056996	-0.238128	0.000006
O138	O	1.556996	0.261872	0.500006
H139	H	1.109872	-0.199038	0.000023
H140	H	1.609872	0.300962	0.500023
O141	O	1.019830	0.084257	0.393581
O142	O	1.519830	0.584257	0.893581
H143	H	1.056633	0.047498	0.348617
H144	H	1.556633	0.547498	0.848617
O145	O	1.013513	0.090511	0.473674
O146	O	1.513513	0.590511	0.973674
H147	H	1.055757	0.124242	0.433930
H148	H	1.555757	0.624242	0.933930
H149	H	1.051704	-0.077289	0.000006
H150	H	1.551704	0.422711	0.500006
H151	H	0.705105	0.028701	-0.000000
H152	H	1.205105	0.528701	0.500000
H153	H	0.869873	0.234095	0.514791
H154	H	1.369873	0.734095	1.014791
O155	O	1.048554	0.055570	0.787604
O156	O	1.548554	0.555570	1.287604
H157	H	1.036964	0.067151	0.855556
H158	H	1.536964	0.567151	1.355556
H159	H	0.826287	0.277625	0.382074
H160	H	1.326287	0.777625	0.882074
H161	H	0.855022	0.248971	0.776101
H162	H	1.355022	0.748971	1.276101
H163	H	1.075316	-0.601090	-0.000013
H164	H	1.575316	-0.101090	0.499987
H165	H	0.862496	0.241472	0.617933
H166	H	1.362496	0.741472	1.117933
H167	H	1.043399	0.060709	0.617910
H168	H	1.543399	0.560709	1.117910
O169	O	0.821137	0.282750	0.212356
O170	O	1.321137	0.782750	0.712356
H171	H	0.834420	0.345438	0.229061
H172	H	1.334420	0.845438	0.729061
O173	O	0.171676	0.032654	0.000007
O174	O	0.671676	0.532654	0.500007
H175	H	0.217172	-0.013095	0.000022
H176	H	0.717172	0.486905	0.500022
H177	H	0.794365	-0.060572	-0.000014
H178	H	1.294365	0.439428	0.499986
H179	H	0.688385	0.286039	-0.000009
H180	H	1.188385	0.786039	0.499991
O181	O	1.107512	-0.442683	-0.000026
O182	O	1.607512	0.057317	0.499974
H183	H	1.137521	-0.457974	0.056422
H184	H	1.637521	0.042026	0.556422
O185	O	0.812684	-0.423532	-0.000010
O186	O	1.312684	0.076468	0.499990
H187	H	0.759808	-0.462623	0.000002
H188	H	1.259808	0.037377	0.500002
H189	H	0.817978	-0.584371	-0.000012
H190	H	1.317978	-0.084371	0.499988
H191	H	0.539610	0.273504	-0.000015
H192	H	1.039610	0.773504	0.499985
O193	O	1.047104	-0.313246	-0.000020
O194	O	1.547104	0.186754	0.499980
H195	H	1.050961	-0.273441	0.056439
H196	H	1.550961	0.226559	0.556439
O197	O	0.822581	-0.348427	-0.000002
O198	O	1.322581	0.151573	0.499998
H199	H	0.818722	-0.388242	-0.056454
H200	H	1.318722	0.111758	0.443546
