data_functionalizedCrystal
_audit_creation_method	'MofGen! by Chris Wilmer'
_symmetry_space_group_name_H-M	'P1'
_symmetry_Int_Tables_number	1
_symmetry_cell_setting	triclinic
loop_
_symmetry_equiv_pos_as_xyz
  x,y,z
_cell_length_a	10.489741
_cell_length_b	16.098538
_cell_length_c	10.489746
_cell_angle_alpha	87.249480
_cell_angle_beta	84.540238
_cell_angle_gamma	92.763845
loop_
_atom_site_label
_atom_site_type_symbol
_atom_site_fract_x
_atom_site_fract_y
_atom_site_fract_z
O1	O	1.699712	0.069205	0.174323
O2	O	1.328518	0.069218	0.191215
O3	O	1.522557	0.069205	-0.002828
O4	O	1.505673	0.069218	0.368366
O5	O	1.511222	-0.069307	0.008463
O6	O	1.317182	-0.069294	0.202505
O7	O	1.688377	-0.069307	0.185614
Zn8	Zn	1.500980	-0.091292	0.195852
Zn9	Zn	1.515915	0.091204	0.180977
O10	O	1.494337	-0.069294	0.379656
C11	C	1.275319	-0.000036	0.195584
C12	C	1.133689	-0.000031	0.191767
N13	N	1.490797	-0.215841	0.206003
C14	C	1.065546	-0.000044	0.068303
C15	C	0.979009	0.068250	0.121060
C16	C	0.967867	-0.068312	0.132221
C17	C	1.049023	0.068319	0.244570
C18	C	1.037885	-0.068304	0.255718
C19	C	0.951377	0.000006	0.308563
C20	C	1.573185	-0.259431	0.123674
C21	C	1.566074	-0.346620	0.130787
C22	C	1.476579	-0.390216	0.220237
C23	C	1.394181	-0.346619	0.302571
C24	C	1.401287	-0.259433	0.295450
C25	C	1.450817	-0.653464	0.246028
C26	C	1.443719	-0.740657	0.253145
C27	C	1.615611	-0.740652	0.081359
C28	C	1.622715	-0.653463	0.074252
C29	C	1.540313	-0.609874	0.156580
C30	C	1.469310	-0.479337	0.227513
C31	C	1.547576	-0.520755	0.149297
C32	C	1.741576	-0.000051	0.181244
C33	C	1.883206	-0.000050	0.185062
C34	C	1.515613	-0.000051	-0.044714
C35	C	1.511793	-0.000050	-0.186343
N36	N	1.526108	0.215752	0.170815
C37	C	1.386071	-0.000035	-0.339202
C38	C	1.454516	0.068255	-0.267376
C39	C	1.443370	-0.068307	-0.256286
C40	C	1.573503	0.068315	-0.366873
C41	C	1.562334	-0.068309	-0.355783
C42	C	1.630868	-0.000002	-0.284008
C43	C	1.501282	-0.000036	0.421543
C44	C	1.505102	-0.000031	0.563172
H45	H	1.115240	0.000038	-0.033199
H46	H	1.646067	-0.223941	0.050839
H47	H	1.408993	0.125994	-0.228607
C48	C	1.770790	0.000043	-0.250931
H49	H	1.816846	0.048599	-0.289263
H50	H	1.809426	-0.048011	-0.282605
H51	H	1.772416	-0.000414	-0.160505
C52	C	1.360189	-0.605527	0.336597
H53	H	1.305884	-0.643981	0.390898
H54	H	1.309438	-0.571527	0.287421
H55	H	1.409339	-0.571506	0.387373
C56	C	0.943489	0.146248	0.044145
H57	H	0.889431	0.178404	0.097864
H58	H	0.899793	0.129836	-0.026593
H59	H	1.019348	0.178632	0.013727
H60	H	1.633160	-0.382111	0.063747
C61	C	1.345270	-0.788616	0.351540
H62	H	1.352854	-0.846784	0.343997
H63	H	1.261176	-0.774345	0.335688
H64	H	1.361070	-0.774315	0.435648
H65	H	1.695589	-0.617969	0.001414
C66	C	1.623766	-0.146309	-0.408204
H67	H	1.577360	-0.194789	-0.370048
H68	H	1.710213	-0.146805	-0.388327
H69	H	1.621590	-0.145465	-0.498587
C70	C	1.246265	0.000055	-0.372620
H71	H	1.226905	-0.048491	-0.416652
H72	H	1.235371	0.048118	-0.425819
H73	H	1.190266	0.000582	-0.295992
C74	C	1.647718	0.146402	-0.431695
H75	H	1.644805	0.145947	-0.521904
H76	H	1.734416	0.146597	-0.412481
H77	H	1.609692	0.194840	-0.400702
H78	H	1.084582	0.126122	0.292058
H79	H	1.388374	-0.126042	-0.208136
C80	C	1.073458	-0.146298	0.332594
H81	H	1.115754	-0.129892	0.404236
H82	H	1.128806	-0.177898	0.279304
H83	H	0.997747	-0.179219	0.361684
H84	H	0.901959	0.000047	0.410163
H85	H	1.321305	-0.382121	0.375399
H86	H	0.932163	-0.126049	0.084664
H87	H	1.682698	-0.776150	0.014329
H88	H	1.334196	-0.223942	0.362490
H89	H	1.620439	-0.485256	0.076462
H90	H	1.396443	-0.514840	0.300348
