data_functionalizedCrystal
_audit_creation_method	'MofGen! by Chris Wilmer'
_symmetry_space_group_name_H-M	'P1'
_symmetry_Int_Tables_number	1
_symmetry_cell_setting	triclinic
loop_
_symmetry_equiv_pos_as_xyz
  x,y,z
_cell_length_a	6.394989
_cell_length_b	14.971486
_cell_length_c	14.048226
_cell_angle_alpha	89.998499
_cell_angle_beta	89.996714
_cell_angle_gamma	85.055920
loop_
_atom_site_label
_atom_site_type_symbol
_atom_site_fract_x
_atom_site_fract_y
_atom_site_fract_z
O1	O	0.272212	1.189891	-0.079044
O2	O	0.304810	0.929843	-0.079070
O3	O	-0.015544	1.063558	-0.079058
O4	O	0.592566	1.056176	-0.079056
O5	O	-0.015563	1.063542	0.079264
O6	O	0.304791	0.929827	0.079252
O7	O	0.272193	1.189874	0.079277
Zn8	Zn	0.288489	1.059848	0.104401
Zn9	Zn	0.288514	1.059870	-0.104194
O10	O	0.592547	1.056159	0.079265
C11	C	0.303343	0.896494	0.000088
C12	C	0.298974	0.797150	0.000078
C13	C	0.487173	0.741960	0.000080
C14	C	0.483056	0.648616	0.000094
C15	C	0.290737	0.610464	0.000100
C16	C	0.102524	0.665661	0.000101
C17	C	0.106643	0.759003	0.000093
C18	C	0.093951	0.471106	0.000114
C19	C	0.089830	0.377757	0.000119
C20	C	0.470364	0.360719	0.000114
C21	C	0.474483	0.454061	0.000107
C22	C	0.286268	0.509252	0.000106
C23	C	0.670382	1.057627	0.000100
C24	C	0.906628	1.062088	0.000098
C25	C	0.273661	1.223223	0.000117
C26	C	0.278029	1.322567	0.000121
N27	N	0.288471	1.059839	0.246762
N28	N	0.288516	1.059885	-0.246555
C29	C	0.146677	1.119068	0.296585
C30	C	0.146676	1.119074	0.396243
C31	C	0.288480	1.059855	0.446075
C32	C	0.430281	1.000620	0.396245
C33	C	0.430271	1.000610	0.296589
C34	C	0.430296	1.000646	0.603959
C35	C	0.430310	1.000656	0.703622
C36	C	0.146701	1.119110	0.703613
C37	C	0.146691	1.119100	0.603957
C38	C	0.288495	1.059866	0.554134
H39	H	0.631086	0.485121	0.000093
C40	C	-0.007340	1.183492	0.450165
C41	C	-0.131470	1.235375	0.385194
C42	C	-0.273351	1.294741	0.434831
H43	H	-0.094632	1.150457	0.489057
H44	H	0.067925	1.221617	0.489007
H45	H	-0.206730	1.197255	0.346368
H46	H	-0.044235	1.268429	0.346300
H47	H	-0.198086	1.332866	0.473673
H48	H	-0.360629	1.261699	0.473722
H49	H	-0.357577	1.329956	0.390756
H50	H	-0.054066	0.634590	0.000119
H51	H	-0.066773	0.346697	0.000125
C52	C	-0.007512	1.183275	0.757749
C53	C	-0.135617	1.134202	0.814952
C54	C	-0.277707	1.193281	0.864829
H55	H	0.067530	1.221377	0.796696
H56	H	-0.092075	1.218529	0.713825
H57	H	-0.051064	1.098962	0.858871
H58	H	-0.210706	1.096103	0.776030
H59	H	-0.362271	1.228536	0.820905
H60	H	-0.202647	1.231380	0.903770
H61	H	-0.364656	1.159994	0.903640
H62	H	0.623615	0.315778	0.000119
C63	C	-0.097755	0.818885	-0.000110
C64	C	-0.213512	0.801335	-0.081573
C65	C	-0.401805	0.856489	-0.081796
H66	H	-0.176863	0.807142	0.055036
H67	H	-0.067844	0.879952	-0.000165
H68	H	-0.243428	0.740283	-0.081510
H69	H	-0.134468	0.813084	-0.136733
H70	H	-0.371895	0.917556	-0.081850
H71	H	-0.480894	0.844741	-0.026646
H72	H	-0.480360	0.844595	-0.137071
H73	H	-0.059314	0.516040	0.000115
H74	H	0.031212	1.167295	0.256018
C75	C	0.584325	0.936248	0.757556
C76	C	0.708449	0.884344	0.692596
C77	C	0.850321	0.824988	0.742246
H78	H	0.671623	0.969290	0.796432
H79	H	0.509054	0.898136	0.796417
H80	H	0.783715	0.922452	0.653752
H81	H	0.621209	0.851283	0.653719
H82	H	0.775050	0.786876	0.781106
H83	H	0.937604	0.858038	0.781119
H84	H	0.934543	0.789759	0.698178
H85	H	0.031233	1.167325	0.563384
H86	H	0.636307	0.603684	0.000094
H87	H	0.545762	0.952408	0.563396
C88	C	0.584326	0.936220	0.450174
C89	C	0.708460	0.884328	0.385207
C90	C	0.850373	0.824984	0.434848
H91	H	0.671614	0.969270	0.489045
H92	H	0.509087	0.898098	0.489037
H93	H	0.783694	0.922445	0.346359
H94	H	0.621229	0.851259	0.346333
H95	H	0.775133	0.786863	0.473712
H96	H	0.937646	0.858042	0.473717
H97	H	0.934601	0.789763	0.390776
H98	H	0.545731	0.952379	0.256024
H99	H	0.643782	0.773016	0.000074
