data_functionalizedCrystal
_audit_creation_method	'MofGen! by Chris Wilmer'
_symmetry_space_group_name_H-M	'P1'
_symmetry_Int_Tables_number	1
_symmetry_cell_setting	triclinic
loop_
_symmetry_equiv_pos_as_xyz
  x,y,z
_cell_length_a	6.817900
_cell_length_b	19.551136
_cell_length_c	11.168136
_cell_angle_alpha	94.562875
_cell_angle_beta	108.508683
_cell_angle_gamma	101.650842
loop_
_atom_site_label
_atom_site_type_symbol
_atom_site_fract_x
_atom_site_fract_y
_atom_site_fract_z
V1	V	-4.075337	-0.096687	-0.394321
O2	O	-4.071123	0.004635	-0.386175
O3	O	-4.017676	-0.191704	-0.392240
O4	O	-4.052157	-0.095205	-0.566017
O5	O	-4.036403	-0.092532	-0.211194
V6	V	-4.556897	-0.084567	-0.372343
O7	O	-4.340901	-0.123273	-0.442532
O8	O	-4.741529	-0.057981	-0.324132
O9	O	-4.391351	0.010450	-0.374424
O10	O	-4.678508	-0.185890	-0.380489
O11	O	-4.713227	-0.088722	-0.555470
O12	O	-4.356870	-0.086050	-0.200647
C13	C	-3.859608	-0.214867	-0.386178
C14	C	-3.893918	-0.292544	-0.385620
C15	C	-3.853822	-0.319032	-0.269644
C16	C	-3.886126	-0.392016	-0.269082
C17	C	-3.958488	-0.438510	-0.384501
C18	C	-3.998599	-0.412016	-0.500493
C19	C	-3.966314	-0.339033	-0.501053
C20	C	-3.935292	-0.559523	-0.468189
C21	C	-3.967561	-0.632504	-0.467624
C22	C	-4.058076	-0.663614	-0.382779
C23	C	-4.116281	-0.621732	-0.298477
C24	C	-4.083996	-0.548749	-0.299037
C25	C	-3.993503	-0.517649	-0.383907
C26	C	-4.053006	-0.769239	-0.266185
C27	C	-4.085326	-0.842225	-0.265628
C28	C	-4.197779	-0.862223	-0.497042
C29	C	-4.165479	-0.789238	-0.497596
C30	C	-4.093083	-0.742750	-0.382164
C31	C	-3.903591	-0.091771	-0.607847
C32	C	-3.965861	-0.091188	-0.748214
C33	C	-4.167278	-0.094242	-0.816925
C34	C	-4.231641	-0.093639	-0.962002
C35	C	-4.212760	0.033609	-0.380483
C36	C	-4.157689	0.111286	-0.381048
C37	C	-4.168777	-0.089485	-0.158810
C38	C	-4.085746	-0.090065	-0.018442
H39	H	-3.998974	-0.317469	-0.595498
O40	O	-3.879930	-0.087075	-0.948100
C41	C	-3.818051	-0.145609	-0.993882
H42	H	-3.965553	-0.189987	-1.046236
H43	H	-3.729973	-0.129368	-1.062368
C44	C	-3.489024	-0.117032	-0.816352
C45	C	-3.670188	-0.171541	-0.880645
H46	H	-3.397807	-0.133027	-0.746504
H47	H	-3.530707	-0.077595	-0.785509
H48	H	-3.415651	-0.103504	-0.873437
H49	H	-3.743571	-0.185062	-0.823565
H50	H	-3.628513	-0.210981	-0.911476
H51	H	-4.404191	-0.096257	-1.021070
H52	H	-3.841068	-0.088122	-0.796790
H53	H	-3.794888	-0.281185	-0.175651
H54	H	-3.853470	-0.413586	-0.174637
H55	H	-4.131395	-0.514652	-0.230398
H56	H	-4.189967	-0.647059	-0.229381
H57	H	-4.292065	-0.097298	-0.768346
H58	H	-3.994057	-0.731386	-0.172193
H59	H	-4.052684	-0.863789	-0.171183
H60	H	-4.256698	-0.900078	-0.591018
H61	H	-4.198116	-0.767673	-0.592036
H62	H	-3.920158	-0.666599	-0.536264
O63	O	-3.847378	-0.529246	-0.550570
C64	C	-3.976936	-0.558837	-0.677308
H65	H	-4.077299	-0.613264	-0.678351
H66	H	-4.086234	-0.523073	-0.718478
C67	C	-3.711971	-0.499103	-0.757449
C68	C	-3.835226	-0.565954	-0.758731
H69	H	-3.624561	-0.503491	-0.807677
H70	H	-3.624687	-0.479164	-0.672064
H71	H	-3.803074	-0.469307	-0.791754
H72	H	-3.744123	-0.595746	-0.724411
H73	H	-3.922491	-0.585898	-0.844113
O74	O	-4.068985	-0.457080	-0.612729
C75	C	-4.097402	-0.418047	-0.715216
H76	H	-4.121357	-0.364319	-0.683891
H77	H	-3.950468	-0.410244	-0.745291
C78	C	-4.265143	-0.524513	-0.867332
C79	C	-4.294584	-0.458527	-0.828861
H80	H	-4.386767	-0.549484	-0.937436
H81	H	-4.245992	-0.550811	-0.798285
H82	H	-4.142692	-0.518002	-0.892385
H83	H	-4.417016	-0.465039	-0.803793
H84	H	-4.313760	-0.432230	-0.897906
