data_functionalizedCrystal
_audit_creation_method	'MofGen! by Chris Wilmer'
_symmetry_space_group_name_H-M	'P1'
_symmetry_Int_Tables_number	1
_symmetry_cell_setting	triclinic
loop_
_symmetry_equiv_pos_as_xyz
  x,y,z
_cell_length_a	18.050589
_cell_length_b	12.827893
_cell_length_c	12.827885
_cell_angle_alpha	89.980728
_cell_angle_beta	89.970449
_cell_angle_gamma	90.028191
loop_
_atom_site_label
_atom_site_type_symbol
_atom_site_fract_x
_atom_site_fract_y
_atom_site_fract_z
Zn1	Zn	-0.295624	1.597576	-0.590850
Zn2	Zn	-0.419832	1.597431	-0.416111
Zn3	Zn	-0.295660	1.422818	-0.416124
Zn4	Zn	-0.419777	1.422764	-0.590811
O5	O	-0.357723	1.510147	-0.503474
O6	O	-0.312109	1.743793	-0.567682
O7	O	-0.403399	1.574230	-0.269877
O8	O	-0.191731	1.446083	-0.439323
O9	O	-0.403364	1.743687	-0.439302
O10	O	-0.191704	1.574478	-0.567694
O11	O	-0.312170	1.445943	-0.269886
O12	O	-0.312117	1.276575	-0.439286
O13	O	-0.403269	1.445991	-0.737053
O14	O	-0.403304	1.276535	-0.567628
O15	O	-0.312055	1.574425	-0.737081
O16	O	-0.523749	1.574178	-0.439264
O17	O	-0.523709	1.445851	-0.567615
C18	C	-0.357709	1.238638	-0.503454
C19	C	-0.357721	1.122484	-0.503471
C20	C	-0.402914	1.070708	-0.566880
C21	C	-0.402927	0.950657	-0.566899
C22	C	-0.550675	1.510021	-0.503457
C23	C	-0.633221	1.510063	-0.503484
C24	C	-0.832677	1.440347	-0.573257
C25	C	-0.882124	1.414870	-0.477900
C26	C	-0.784351	1.510166	-0.503498
C27	C	-0.881986	1.535694	-0.598866
C28	C	-0.930337	1.510263	-0.503520
C29	C	-0.832712	1.484639	-0.408091
C30	C	-0.832569	1.605506	-0.529120
C31	C	-0.881994	1.580066	-0.433698
C32	C	-0.700253	1.510107	-0.503487
C33	C	-1.014433	1.510322	-0.503520
C34	C	-0.164018	1.510303	-0.503515
C35	C	-0.081472	1.510369	-0.503532
C36	C	-0.357652	1.510219	-0.776045
C37	C	-0.357622	1.510249	-0.892198
C38	C	-0.357738	1.782718	-0.503495
C39	C	-0.357745	1.898871	-0.503504
C40	C	-0.312477	1.573809	-0.943997
C41	C	-0.312444	1.573842	-1.064047
C42	C	-0.357741	1.510137	-0.231964
C43	C	-0.357562	1.510309	-0.115812
H44	H	-0.811021	1.381217	-0.632167
H45	H	-0.319054	0.943391	-0.449210
H46	H	-0.903512	1.639151	-0.374645
N47	N	-0.451471	0.894792	-0.634989
N48	N	-0.451416	0.797350	-0.634903
H49	H	-0.485703	0.757892	-0.682992
N50	N	-0.309181	1.066626	-0.435382
N51	N	-0.240651	1.078776	-0.442464
H52	H	-0.206366	1.039329	-0.394374
N53	N	-0.406051	1.442022	-1.059962
N54	N	-0.448465	1.382288	-1.108576
H55	H	-0.482711	1.334058	-1.069127
H56	H	-0.273848	1.628197	-0.899467
H57	H	-0.396243	1.455850	-0.936728
N58	N	-0.263944	1.642107	-1.119904
N59	N	-0.221523	1.701833	-1.071289
H60	H	-0.187266	1.750047	-1.110739
N61	N	-0.909422	1.313773	-0.450723
N62	N	-0.893636	1.236750	-0.506091
H63	H	-0.912912	1.165346	-0.486903
H64	H	-0.811157	1.462993	-0.327426
N65	N	-0.451442	1.126601	-0.634957
N66	N	-0.498685	1.187491	-0.598010
H67	H	-0.532959	1.226967	-0.646090
N68	N	-0.805250	1.706573	-0.556348
N69	N	-0.820982	1.745448	-0.642910
H70	H	-0.801688	1.816828	-0.662150
H71	H	-0.903630	1.557247	-0.679509
