data_functionalizedCrystal
_audit_creation_method	'MofGen! by Chris Wilmer'
_symmetry_space_group_name_H-M	'P1'
_symmetry_Int_Tables_number	1
_symmetry_cell_setting	triclinic
loop_
_symmetry_equiv_pos_as_xyz
  x,y,z
_cell_length_a	10.540539
_cell_length_b	10.654550
_cell_length_c	9.130313
_cell_angle_alpha	90.000110
_cell_angle_beta	89.998199
_cell_angle_gamma	84.505197
loop_
_atom_site_label
_atom_site_type_symbol
_atom_site_fract_x
_atom_site_fract_y
_atom_site_fract_z
O1	O	-1.685816	-0.176986	-0.121726
O2	O	-1.316397	-0.193663	-0.121744
O3	O	-1.509601	-0.002588	-0.121729
O4	O	-1.492613	-0.368061	-0.121741
O5	O	-1.509598	-0.002593	0.121870
O6	O	-1.316395	-0.193668	0.121855
O7	O	-1.685814	-0.176992	0.121873
Cu8	Cu	-1.501104	-0.185330	0.144106
Cu9	Cu	-1.501107	-0.185324	-0.143978
O10	O	-1.492611	-0.368066	0.121858
C11	C	-1.508352	0.044208	0.000068
C12	C	-1.504620	0.183652	0.000063
C13	C	-1.269094	-0.192415	0.000053
C14	C	-1.128147	-0.188673	0.000046
C15	C	-1.733118	-0.178240	0.000072
C16	C	-1.874064	-0.181981	0.000069
C17	C	-0.944772	-0.045302	0.000620
C18	C	-1.091388	-0.049095	0.000055
C19	C	-1.066451	-0.255841	-0.139057
C20	C	-0.919909	-0.251077	-0.139158
C21	C	-0.919416	-0.253923	0.137859
C22	C	-1.066398	-0.255208	0.139682
C23	C	-1.493859	-0.414862	0.000057
C24	C	-1.497591	-0.554306	0.000053
N25	N	-1.501112	-0.185334	0.346729
C26	C	-1.618375	0.263098	0.000073
C27	C	-1.614861	0.394120	0.000063
C28	C	-1.383827	0.366238	0.000039
C29	C	-1.387343	0.235218	0.000038
C30	C	-1.751761	0.279196	0.000093
C31	C	-1.748247	0.410218	0.000083
N32	N	-1.501110	-0.185311	-0.346600
C33	C	-1.586684	-0.100755	0.423387
C34	C	-1.586681	-0.100740	0.576724
C35	C	-1.415528	-0.269893	0.576731
C36	C	-1.415526	-0.269901	0.423397
C37	C	-1.685501	-0.003099	0.423385
C38	C	-1.685498	-0.003084	0.576722
H39	H	-1.134020	0.003756	0.099771
H40	H	-1.663827	0.093441	0.381767
F41	F	-1.324446	-0.359891	0.658337
F42	F	-0.883057	-0.186184	-0.275064
F43	F	-0.857642	-0.385697	0.139084
F44	F	-1.805963	-0.043135	0.361220
F45	F	-1.813005	-0.031245	0.631130
F46	F	-1.819953	0.240796	-0.133141
F47	F	-0.907428	0.026769	0.131014
H48	H	-1.654656	0.088149	0.624270
H49	H	-0.914585	0.009608	-0.098580
H50	H	-1.288344	0.408239	0.000017
F51	F	-1.807260	0.232598	0.137582
F52	F	-1.324436	-0.359905	0.341811
F53	F	-1.095649	-0.389810	-0.145854
H54	H	-1.798504	0.451959	0.102029
H55	H	-1.788559	0.455849	-0.105095
F56	F	-0.857159	-0.382282	-0.147416
F57	F	-1.145950	0.020196	-0.130707
H58	H	-1.109058	-0.209178	-0.242578
H59	H	-0.887886	-0.208754	0.243299
H60	H	-1.090588	-0.356970	0.148078
F61	F	-1.119833	-0.190970	0.274191
H62	H	-1.294712	0.170537	0.000010
