data_functionalizedCrystal
_audit_creation_method	'MofGen! by Chris Wilmer'
_symmetry_space_group_name_H-M	'P1'
_symmetry_Int_Tables_number	1
_symmetry_cell_setting	triclinic
loop_
_symmetry_equiv_pos_as_xyz
  x,y,z
_cell_length_a	13.101039
_cell_length_b	8.559649
_cell_length_c	8.559649
_cell_angle_alpha	69.778664
_cell_angle_beta	92.890182
_cell_angle_gamma	87.117232
loop_
_atom_site_label
_atom_site_type_symbol
_atom_site_fract_x
_atom_site_fract_y
_atom_site_fract_z
O1	O	0.085198	-2.136903	0.065082
O2	O	0.585198	-1.636903	0.565082
O3	O	0.085203	-1.661418	-0.018699
O4	O	0.585203	-1.161418	0.481301
O5	O	0.085198	-1.941051	0.260934
O6	O	0.585198	-1.441051	0.760934
O7	O	0.085203	-1.857270	-0.214550
O8	O	0.585203	-1.357270	0.285450
O9	O	-0.085232	-1.920984	0.240841
O10	O	0.414768	-1.420984	0.740841
O11	O	-0.085227	-1.641351	-0.038791
O12	O	0.414773	-1.141351	0.461209
O13	O	-0.085231	-2.116836	0.044989
O14	O	0.414769	-1.616836	0.544989
Zn15	Zn	-0.112288	-1.875908	-0.000091
Zn16	Zn	0.387712	-1.375908	0.499909
Zn17	Zn	0.112260	-1.902347	0.026382
Zn18	Zn	0.612260	-1.402347	0.526382
O19	O	-0.085226	-1.837203	-0.234643
O20	O	0.414774	-1.337203	0.265357
C21	C	-0.000011	-1.591076	-0.035094
C22	C	0.499989	-1.091076	0.464906
C23	C	-0.000010	-1.411377	-0.053993
C24	C	0.499990	-0.911377	0.446007
N25	N	-0.265537	-1.857876	-0.018156
N26	N	0.234463	-1.357876	0.481844
C27	C	-0.000016	-1.937367	0.311197
C28	C	0.499984	-1.437367	0.811197
C29	C	-0.000011	-1.956266	0.490896
C30	C	0.499989	-1.456266	0.990896
C31	C	-0.474579	-1.833340	-0.042749
C32	C	0.025421	-1.333340	0.457251
C33	C	-0.525456	-1.944922	0.069048
C34	C	-0.025456	-1.444922	0.569048
C35	C	-0.641775	-1.931271	0.055364
C36	C	-0.141775	-1.431271	0.555364
C37	C	-0.358250	-1.846990	-0.029068
C38	C	0.141750	-1.346990	0.470932
N39	N	0.265508	-1.920393	0.044461
N40	N	0.765508	-1.420393	0.544461
C41	C	-0.000015	-2.187178	0.061385
C42	C	0.499985	-1.687178	0.561385
C43	C	-0.000010	-2.366878	0.080285
C44	C	0.499990	-1.866878	0.580285
C45	C	-0.000011	-1.840888	-0.284906
C46	C	0.499989	-1.340888	0.215094
C47	C	-0.000008	-1.821989	-0.464605
C48	C	0.499992	-1.321989	0.035395
H49	H	-0.481656	-2.050704	0.175036
H50	H	0.018344	-1.550704	0.675036
H51	H	-0.000016	-2.085685	0.590274
H52	H	0.499984	-1.585685	1.090274
C53	C	-0.533736	-1.690418	-0.185896
C54	C	-0.033736	-1.190418	0.314104
H55	H	-0.486521	-1.622182	-0.254232
H56	H	0.013479	-1.122182	0.245768
H57	H	-0.575602	-1.735752	-0.251029
H58	H	-0.075602	-1.235752	0.248971
H59	H	-0.575581	-1.625114	-0.140719
H60	H	-0.075581	-1.125114	0.359281
H61	H	-0.000015	-1.692560	0.436006
H62	H	0.499985	-1.192560	0.936006
H63	H	-0.000003	-1.311989	-0.183420
H64	H	0.499997	-0.811989	0.316580
C65	C	-0.000015	-1.501120	0.255123
C66	C	0.499985	-1.001120	0.755123
H67	H	-0.000024	-1.608338	0.245316
H68	H	0.499976	-1.108338	0.745316
H69	H	0.059415	-1.495931	0.320967
H70	H	0.559415	-0.995931	0.820967
H71	H	-0.059457	-1.481930	0.306941
H72	H	0.440543	-0.981930	0.806941
