data_functionalizedCrystal
_audit_creation_method	'MofGen! by Chris Wilmer'
_symmetry_space_group_name_H-M	'P1'
_symmetry_Int_Tables_number	1
_symmetry_cell_setting	triclinic
loop_
_symmetry_equiv_pos_as_xyz
  x,y,z
_cell_length_a	16.992694
_cell_length_b	15.995350
_cell_length_c	16.053802
_cell_angle_alpha	92.567808
_cell_angle_beta	87.249047
_cell_angle_gamma	87.080299
loop_
_atom_site_label
_atom_site_type_symbol
_atom_site_fract_x
_atom_site_fract_y
_atom_site_fract_z
O1	O	1.043694	0.174244	-0.069318
O2	O	0.815410	0.172295	-0.069342
O3	O	0.935792	0.051799	-0.069329
O4	O	0.923312	0.294739	-0.069332
O5	O	0.929166	0.058403	0.069530
O6	O	0.808784	0.178898	0.069516
O7	O	1.037068	0.180847	0.069540
Zn8	Zn	0.921874	0.180921	0.091575
Zn9	Zn	0.930604	0.172221	-0.091377
O10	O	0.916685	0.301343	0.069527
C11	C	0.782884	0.173091	0.000083
C12	C	0.695841	0.165614	0.000074
C13	C	0.645600	0.237749	0.000074
C14	C	0.563813	0.230720	0.000085
C15	C	0.532268	0.151555	0.000091
C16	C	0.582515	0.079414	0.000094
C17	C	0.664300	0.086444	0.000088
C18	C	0.288669	0.122417	0.000114
C19	C	0.206878	0.115392	0.000117
C20	C	0.188181	0.266699	0.000110
C21	C	0.269969	0.273722	0.000099
C22	C	0.320209	0.201582	0.000106
N23	N	0.448669	0.144368	0.000100
N24	N	0.403806	0.208770	0.000103
C25	C	0.931963	0.023872	0.000099
C26	C	0.930417	-0.069182	0.000094
C27	C	0.924861	-0.407302	0.000096
C28	C	0.839142	-0.365620	-0.000225
C29	C	0.840674	-0.268811	0.000089
C30	C	0.927617	-0.239557	0.000095
C31	C	0.966120	-0.274034	0.079392
C32	C	0.963963	-0.370810	0.079459
C33	C	0.973269	-0.378559	-0.078449
C34	C	0.973299	-0.281665	-0.079497
C35	C	0.929179	-0.144755	0.000096
C36	C	0.923302	-0.502103	0.000100
C37	C	1.069593	0.180051	0.000113
C38	C	1.156637	0.187528	0.000117
C39	C	0.920515	0.329270	0.000097
C40	C	0.922061	0.422324	0.000097
N41	N	0.915921	0.186859	0.216434
N42	N	0.936563	0.166277	-0.216236
C43	C	0.967163	0.135608	0.260134
C44	C	0.963006	0.139770	0.347541
C45	C	0.907611	0.195187	0.391245
C46	C	0.856364	0.246439	0.347539
C47	C	0.860518	0.242273	0.260135
C48	C	0.889469	0.213363	0.652653
C49	C	0.885321	0.217528	0.740064
C50	C	0.991962	0.110857	0.740059
C51	C	0.996114	0.106699	0.652652
C52	C	0.944864	0.157948	0.608954
N53	N	0.903363	0.199444	0.480589
N54	N	0.949109	0.153686	0.519612
H55	H	0.522910	0.289461	0.000084
C56	C	1.102309	-0.321315	0.082303
C57	C	1.052158	-0.249006	0.083386
H58	H	1.155425	-0.305861	0.084762
H59	H	1.089045	-0.353083	0.129064
H60	H	1.096477	-0.354033	0.032339
H61	H	1.057986	-0.216290	0.133354
H62	H	1.065427	-0.217224	0.036621
C63	C	0.744992	0.262086	0.445855
C64	C	0.795474	0.307353	0.395582
H65	H	0.707405	0.299696	0.475517
H66	H	0.718410	0.223711	0.411766
H67	H	0.774926	0.232162	0.484386
H68	H	0.765540	0.337273	0.357047
H69	H	0.822057	0.345743	0.429674
H70	H	1.036506	-0.406115	-0.078977
C71	C	0.967926	-0.444795	0.206192
C72	C	0.918509	-0.394505	0.159466
H73	H	0.939861	-0.459415	0.255586
H74	H	0.984907	-0.494268	0.174011
H75	H	1.012519	-0.414801	0.220679
H76	H	0.873919	-0.424501	0.144973
H77	H	0.901516	-0.345024	0.191652
H78	H	0.671277	0.302214	0.000068
H79	H	1.036930	-0.262288	-0.084280
C80	C	0.387040	0.351677	0.000030
C81	C	0.304644	0.360742	0.000056
H82	H	0.408446	0.405399	-0.000016
H83	H	0.401987	0.324082	0.048462
H84	H	0.406568	0.319413	-0.048385
H85	H	0.285115	0.393001	0.048474
H86	H	0.289690	0.388349	-0.048381
C87	C	0.975374	0.031641	0.445833
C88	C	1.019339	0.083434	0.395569
H89	H	1.010155	-0.003143	0.475477
H90	H	0.941797	0.065235	0.484371
H91	H	0.944362	-0.002305	0.411733
H92	H	1.050346	0.117385	0.429669
H93	H	1.052929	0.049837	0.357026
C94	C	0.763723	0.009966	0.071468
C95	C	0.719526	0.007150	0.000087
H96	H	0.797812	-0.038992	0.071470
H97	H	0.794212	0.058113	0.071458
H98	H	0.729116	0.012673	0.119886
H99	H	0.754133	0.004449	-0.048332
H100	H	0.689035	-0.041010	0.000089
C101	C	0.394878	0.039146	-0.071273
C102	C	0.343885	0.043120	0.000110
H103	H	0.428970	-0.009810	-0.071273
H104	H	0.364886	0.037249	-0.119685
H105	H	0.425370	0.087300	-0.071264
H106	H	0.313388	-0.005031	0.000098
H107	H	0.373880	0.045009	0.048534
H108	H	0.804493	-0.240478	0.057023
C109	C	0.054508	0.323110	0.000123
C110	C	0.132956	0.345993	0.000113
H111	H	0.020416	0.372067	0.000133
H112	H	0.047252	0.288580	-0.048297
H113	H	0.042652	0.293175	0.048550
H114	H	0.144814	0.375923	-0.048317
H115	H	0.140216	0.380537	0.048538
H116	H	0.181198	0.050923	0.000121
H117	H	1.026736	-0.398675	0.083061
C118	C	1.126419	0.072127	0.766956
C119	C	1.048286	0.054515	0.788092
H120	H	1.161188	0.037341	0.796613
H121	H	1.136812	0.061716	0.708653
H122	H	1.134246	0.129266	0.781282
H123	H	1.040457	-0.002623	0.773760
H124	H	1.037888	0.064920	0.846408
H125	H	1.012274	0.090486	0.224555
H126	H	0.802329	-0.384808	0.056318
C127	C	0.783650	0.319227	0.661450
C128	C	0.833142	0.269703	0.604627
H129	H	0.748879	0.354014	0.631796
H130	H	0.753831	0.284093	0.695548
H131	H	0.814678	0.353171	0.695533
H132	H	0.802114	0.235754	0.570548
H133	H	0.862963	0.304841	0.570515
H134	H	1.041221	0.061574	0.617070
C135	C	0.773953	0.233165	0.838389
C136	C	0.824426	0.278440	0.788114
H137	H	0.736366	0.270769	0.868057
H138	H	0.747371	0.194790	0.804301
H139	H	0.803894	0.203240	0.876914
H140	H	0.794485	0.308360	0.749584
H141	H	0.851010	0.316830	0.822205
H142	H	0.818790	0.284005	0.224555
H143	H	0.933934	-0.244811	0.138399
H144	H	0.948107	-0.403833	-0.138552
H145	H	0.556824	0.014956	0.000111
C146	C	0.800786	-0.149623	-0.076522
C147	C	0.799476	-0.237087	-0.076655
H148	H	0.775358	-0.130044	-0.123907
H149	H	0.773978	-0.125821	-0.027115
H150	H	0.853914	-0.133688	-0.078467
H151	H	0.746348	-0.253022	-0.074704
H152	H	0.826282	-0.260897	-0.126075
C153	C	0.846786	-0.454838	-0.124977
C154	C	0.796535	-0.397389	-0.076984
H155	H	0.820477	-0.474459	-0.172363
H156	H	0.892959	-0.428221	-0.142803
H157	H	0.860990	-0.500804	-0.092314
H158	H	0.782335	-0.351420	-0.109645
H159	H	0.750347	-0.424005	-0.059159
C160	C	0.938616	-0.164183	-0.160834
C161	C	0.935402	-0.251364	-0.158694
H162	H	0.915223	-0.145474	-0.209729
H163	H	0.910727	-0.138508	-0.112905
H164	H	0.992083	-0.149442	-0.161334
H165	H	0.881935	-0.266104	-0.158188
H166	H	0.963291	-0.277048	-0.206636
