data_functionalizedCrystal
_audit_creation_method	'MofGen! by Chris Wilmer'
_symmetry_space_group_name_H-M	'P1'
_symmetry_Int_Tables_number	1
_symmetry_cell_setting	triclinic
loop_
_symmetry_equiv_pos_as_xyz
  x,y,z
_cell_length_a	12.996460
_cell_length_b	11.026607
_cell_length_c	11.026607
_cell_angle_alpha	108.586017
_cell_angle_beta	90.004715
_cell_angle_gamma	89.999965
loop_
_atom_site_label
_atom_site_type_symbol
_atom_site_fract_x
_atom_site_fract_y
_atom_site_fract_z
O1	O	-0.085564	-1.726727	-0.533625
O2	O	0.414436	-1.226727	-0.033625
O3	O	-0.085566	-1.360147	-0.472862
O4	O	0.414434	-0.860147	0.027138
O5	O	-0.085562	-1.513056	-0.319954
O6	O	0.414438	-1.013056	0.180046
O7	O	-0.085569	-1.573819	-0.686534
O8	O	0.414431	-1.073819	-0.186534
O9	O	0.085572	-1.513049	-0.319940
O10	O	0.585572	-1.013049	0.180060
O11	O	0.085568	-1.360141	-0.472848
O12	O	0.585568	-0.860141	0.027152
O13	O	0.085569	-1.726721	-0.533612
O14	O	0.585569	-1.226721	-0.033612
Cu15	Cu	0.101195	-1.543431	-0.503229
Cu16	Cu	0.601195	-1.043431	-0.003229
Cu17	Cu	-0.101191	-1.543438	-0.503245
Cu18	Cu	0.398809	-1.043438	-0.003245
O19	O	0.085565	-1.573813	-0.686520
O20	O	0.585565	-1.073813	-0.186520
C21	C	0.000001	-1.312485	-0.461645
C22	C	0.500001	-0.812485	0.038355
C23	C	0.000000	-1.170471	-0.428228
C24	C	0.500000	-0.670471	0.071772
N25	N	-0.243538	-1.543442	-0.503247
N26	N	0.256462	-1.043442	-0.003247
C27	C	0.000004	-1.501843	-0.272287
C28	C	0.500004	-1.001843	0.227713
C29	C	0.000000	-1.468426	-0.130273
C30	C	0.500000	-0.968426	0.369727
C31	C	-0.663352	-1.543433	-0.503233
C32	C	-0.163352	-1.043433	-0.003233
C33	C	-0.546547	-1.543432	-0.503240
C34	C	-0.046547	-1.043432	-0.003240
C35	C	-0.453449	-1.543436	-0.503239
C36	C	0.046551	-1.043436	-0.003239
C37	C	-0.336636	-1.543437	-0.503248
C38	C	0.163364	-1.043437	-0.003248
N39	N	0.243542	-1.543435	-0.503219
N40	N	0.743542	-1.043435	-0.003219
C41	C	0.000001	-1.774384	-0.544828
C42	C	0.500001	-1.274384	-0.044828
C43	C	-0.000006	-1.916398	-0.578245
C44	C	0.499994	-1.416398	-0.078245
C45	C	-0.000002	-1.116821	-0.520498
C46	C	0.499998	-0.616821	-0.020498
C47	C	-0.000003	-0.970043	-0.485962
C48	C	0.499997	-0.470043	0.014038
C49	C	-0.000003	-1.585026	-0.734187
C50	C	0.499997	-1.085026	-0.234187
C51	C	-0.000006	-1.618443	-0.876200
C52	C	0.499994	-1.118443	-0.376200
C53	C	-0.000001	-1.560695	-0.076624
C54	C	0.499999	-1.060695	0.423376
C55	C	-0.000005	-1.526160	0.070155
C56	C	0.499995	-1.026160	0.570155
H57	H	0.000001	-1.179555	-0.625061
H58	H	0.500001	-0.679555	-0.125061
N59	N	-0.000002	-1.087395	-0.289716
N60	N	0.499998	-0.587395	0.210284
H61	H	0.063438	-1.106103	-0.245830
H62	H	0.563438	-0.606103	0.254170
H63	H	-0.000042	-0.994349	-0.284782
H64	H	0.499958	-0.494349	0.215218
H65	H	0.000006	-1.665258	-0.139357
H66	H	0.500006	-1.165258	0.360643
H67	H	-0.000012	-1.421590	0.132884
H68	H	0.499988	-0.921590	0.632884
N69	N	0.000012	-0.886966	-0.347445
N70	N	0.500012	-0.386966	0.152555
H71	H	0.000014	-0.793888	-0.342408
H72	H	0.500014	-0.293888	0.157592
H73	H	-0.063427	-0.905777	-0.303642
H74	H	0.436573	-0.405777	0.196358
N75	N	-0.000013	-1.756961	0.040725
N76	N	0.499987	-1.256961	0.540725
H77	H	-0.000012	-1.762001	-0.052353
H78	H	0.499988	-1.262001	0.447647
H79	H	0.063428	-1.800761	0.059548
H80	H	0.563428	-1.300761	0.559548
N81	N	0.000012	-1.329917	-0.047188
N82	N	0.500012	-0.829917	0.452812
H83	H	0.000016	-1.273085	-0.103156
H84	H	0.500016	-0.773085	0.396844
H85	H	-0.063429	-1.312041	0.008612
H86	H	0.436571	-0.812041	0.508612
H87	H	-0.000001	-0.979125	-0.682816
H88	H	0.499999	-0.479125	-0.182816
