data_functionalizedCrystal
_audit_creation_method	'MofGen! by Chris Wilmer'
_symmetry_space_group_name_H-M	'P1'
_symmetry_Int_Tables_number	1
_symmetry_cell_setting	triclinic
loop_
_symmetry_equiv_pos_as_xyz
  x,y,z
_cell_length_a	21.395364
_cell_length_b	15.299816
_cell_length_c	21.395356
_cell_angle_alpha	99.661488
_cell_angle_beta	89.983617
_cell_angle_gamma	80.365592
loop_
_atom_site_label
_atom_site_type_symbol
_atom_site_fract_x
_atom_site_fract_y
_atom_site_fract_z
Zn1	Zn	1.000953	-0.358731	-0.397438
Zn2	Zn	1.500953	0.141269	0.102562
Zn3	Zn	1.019008	-0.509545	-0.310812
Zn4	Zn	1.519008	-0.009545	0.189188
Zn5	Zn	0.896189	-0.358790	-0.292681
Zn6	Zn	1.396189	0.141210	0.207319
Zn7	Zn	0.914274	-0.509542	-0.415552
Zn8	Zn	1.414274	-0.009542	0.084448
O9	O	0.957606	-0.434152	-0.354121
O10	O	1.457606	0.065848	0.145879
O11	O	1.091023	-0.378714	-0.385953
O12	O	1.591023	0.121286	0.114047
O13	O	1.002703	-0.489572	-0.220732
O14	O	1.502703	0.010428	0.279268
O15	O	0.894962	-0.232575	-0.291409
O16	O	1.394962	0.267425	0.208591
O17	O	1.104288	-0.489516	-0.322310
O18	O	1.604288	0.010484	0.177690
O19	O	0.971931	-0.232533	-0.368373
O20	O	1.471931	0.267467	0.131627
O21	O	0.912469	-0.378813	-0.207412
O22	O	1.412469	0.121187	0.292588
O23	O	0.810913	-0.378811	-0.308974
O24	O	1.310913	0.121189	0.191026
O25	O	0.925785	-0.489511	-0.500824
O26	O	1.425785	0.010489	-0.000824
O27	O	0.824200	-0.489568	-0.399246
O28	O	1.324200	0.010432	0.100754
O29	O	0.989467	-0.378711	-0.487515
O30	O	1.489467	0.121289	0.012485
O31	O	1.020240	-0.635751	-0.339874
O32	O	1.520240	-0.135751	0.160126
O33	O	0.943292	-0.635749	-0.416826
O34	O	1.443292	-0.135749	0.083174
C35	C	0.794824	-0.434196	-0.354108
C36	C	1.294824	0.065804	0.145892
C37	C	0.725187	-0.434236	-0.354120
C38	C	1.225187	0.065764	0.145880
C39	C	0.685601	-0.376636	-0.387333
C40	C	1.185601	0.123364	0.112667
C41	C	0.620162	-0.376612	-0.387333
C42	C	1.120162	0.123388	0.112667
C43	C	0.594315	-0.434205	-0.354128
C44	C	1.094315	0.065795	0.145872
C45	C	0.633910	-0.491809	-0.320908
C46	C	1.133910	0.008191	0.179092
C47	C	0.699346	-0.491825	-0.320904
C48	C	1.199346	0.008175	0.179096
C49	C	0.500360	-0.515425	-0.358866
C50	C	1.000360	-0.015425	0.141134
C51	C	0.434925	-0.515411	-0.358874
C52	C	0.934925	-0.015411	0.141126
C53	C	0.392488	-0.434155	-0.354136
C54	C	0.892488	0.065845	0.145864
C55	C	0.415494	-0.352911	-0.349402
C56	C	0.915494	0.147089	0.150598
C57	C	0.480930	-0.352927	-0.349398
C58	C	0.980930	0.147073	0.150602
C59	C	0.523361	-0.434193	-0.354128
C60	C	1.023361	0.065807	0.145872
C61	C	0.281946	-0.376524	-0.387350
C62	C	0.781946	0.123476	0.112650
C63	C	0.216506	-0.376498	-0.387345
C64	C	0.716506	0.123502	0.112655
C65	C	0.230256	-0.491703	-0.320924
C66	C	0.730256	0.008297	0.179076
C67	C	0.295693	-0.491720	-0.320925
C68	C	0.795693	0.008280	0.179075
C69	C	0.321534	-0.434132	-0.354141
C70	C	0.821534	0.065868	0.145859
C71	C	0.985705	-0.668474	-0.382297
C72	C	1.485705	-0.168474	0.117703
C73	C	0.997783	-0.768718	-0.394372
C74	C	1.497783	-0.268718	0.105628
C75	C	0.871693	-1.051676	-0.268033
C76	C	1.371693	-0.551676	0.231967
C77	C	0.860342	-0.957492	-0.256689
C78	C	1.360342	-0.457492	0.243311
C79	C	0.894701	-0.910294	-0.291109
C80	C	1.394701	-0.410294	0.208891
C81	C	0.940414	-0.957289	-0.336874
C82	C	1.440414	-0.457289	0.163126
C83	C	0.951762	-1.051482	-0.348222
C84	C	1.451762	-0.551482	0.151778
C85	C	0.974770	-0.910100	-0.371298
C86	C	1.474770	-0.410100	0.128702
C87	C	1.020483	-0.957095	-0.417063
C88	C	1.520483	-0.457095	0.082937
C89	C	1.031830	-1.051279	-0.428408
C90	C	1.531830	-0.551279	0.071592
C91	C	0.997470	-1.098477	-0.393989
C92	C	1.497470	-0.598477	0.106011
C93	C	0.963422	-0.815907	-0.359950
C94	C	1.463422	-0.315907	0.140050
C95	C	1.043491	-0.815713	-0.440139
C96	C	1.543491	-0.315713	0.059861
C97	C	1.054842	-0.909897	-0.451482
C98	C	1.554842	-0.409897	0.048518
C99	C	1.121024	-0.434109	-0.354133
C100	C	1.621024	0.065891	0.145867
C101	C	1.190663	-0.434090	-0.354139
C102	C	1.690663	0.065910	0.145861
C103	C	0.957629	-0.434105	-0.517538
C104	C	1.457629	0.065895	-0.017538
C105	C	0.957639	-0.434084	-0.587177
C106	C	1.457639	0.065916	-0.087177
C107	C	0.929415	-0.198915	-0.325848
C108	C	1.429415	0.301085	0.174152
C109	C	0.917401	-0.098671	-0.313800
C110	C	1.417401	0.401329	0.186200
C111	C	1.004671	-0.491568	-1.095887
C112	C	1.504671	0.008432	-0.595887
C113	C	1.004664	-0.491596	-1.030455
C114	C	1.504664	0.008404	-0.530455
C115	C	0.957681	-0.433941	-0.990798
C116	C	1.457681	0.066059	-0.490798
C117	C	0.910694	-0.376270	-1.016580
C118	C	1.410694	0.123730	-0.516580
C119	C	0.910700	-0.376249	-1.082012
C120	C	1.410700	0.123751	-0.582012
C121	C	0.942988	-0.352720	-0.877368
C122	C	1.442988	0.147280	-0.377368
C123	C	0.942986	-0.352739	-0.811937
C124	C	1.442986	0.147261	-0.311937
C125	C	0.957661	-0.434005	-0.788985
C126	C	1.457661	0.065995	-0.288985
C127	C	0.972350	-0.515255	-0.831473
C128	C	1.472350	-0.015255	-0.331473
C129	C	0.972356	-0.515234	-0.896904
C130	C	1.472356	-0.015234	-0.396904
C131	C	0.957670	-0.433958	-0.919848
C132	C	1.457670	0.066042	-0.419848
C133	C	1.004634	-0.491709	-0.692262
C134	C	1.504634	0.008291	-0.192262
C135	C	1.004622	-0.491739	-0.626829
C136	C	1.504622	0.008261	-0.126829
C137	C	0.910655	-0.376404	-0.612955
C138	C	1.410655	0.123596	-0.112955
C139	C	0.910665	-0.376382	-0.678388
C140	C	1.410665	0.123618	-0.178388
C141	C	0.957658	-0.434033	-0.718037
C142	C	1.457658	0.065967	-0.218037
C143	C	0.957611	-0.434134	-0.191331
C144	C	1.457611	0.065866	0.308669
C145	C	0.957692	-0.433900	-0.121662
C146	C	1.457692	0.066100	0.378338
H147	H	0.209212	-0.538595	-0.293889
H148	H	0.709212	-0.038595	0.206111
O149	O	1.055312	-0.553900	-0.735030
O150	O	1.555312	-0.053900	-0.235030
H151	H	1.082360	-0.513517	-0.759987
H152	H	1.582360	-0.013517	-0.259987
O153	O	0.742045	-0.553956	-0.285080
O154	O	1.242045	-0.053956	0.214920
H155	H	0.791888	-0.544288	-0.290654
H156	H	1.291888	-0.044288	0.209346
O157	O	0.834633	-1.102576	-0.230914
O158	O	1.334633	-0.602576	0.269086
H159	H	0.843230	-1.084519	-0.179574
H160	H	1.343230	-0.584519	0.320426
O161	O	0.546125	-0.603073	-0.363964
O162	O	1.046125	-0.103073	0.136036
H163	H	0.595492	-0.589435	-0.363155
H164	H	1.095492	-0.089435	0.136845
O165	O	0.988228	-0.602881	-0.806692
O166	O	1.488228	-0.102881	-0.306692
H167	H	1.036852	-0.636452	-0.823292
H168	H	1.536852	-0.136452	-0.323292
H169	H	0.706636	-0.329743	-0.414380
H170	H	1.206636	0.170257	0.085620
H171	H	0.926202	-0.777652	-0.322688
H172	H	1.426202	-0.277652	0.177312
O173	O	0.309818	-0.314402	-0.423166
O174	O	0.809818	0.185598	0.076834
H175	H	0.361973	-0.324098	-0.417591
H176	H	0.861973	0.175902	0.082409
H177	H	0.872440	-0.329328	-0.984288
H178	H	1.372440	0.170672	-0.484288
O179	O	1.009709	-1.200066	-0.406226
O180	O	1.509709	-0.700066	0.093774
H181	H	1.059958	-1.224836	-0.396586
H182	H	1.559958	-0.724836	0.103414
H183	H	0.587924	-0.329703	-0.414377
H184	H	1.087924	0.170297	0.085623
O185	O	0.369730	-0.265264	-0.344285
O186	O	0.869730	0.234736	0.155715
H187	H	0.378284	-0.231707	-0.384868
H188	H	0.878284	0.268293	0.115132
H189	H	0.823123	-0.919232	-0.219429
H190	H	1.323123	-0.419232	0.280571
O191	O	0.860033	-0.314040	-1.109817
O192	O	1.360033	0.185960	-0.609817
H193	H	0.827362	-0.273948	-1.071251
H194	H	1.327362	0.226052	-0.571251
H195	H	0.416199	-0.581564	-0.362732
H196	H	0.916199	-0.081564	0.137268
H197	H	0.931029	-0.286581	-0.777348
H198	H	1.431029	0.213419	-0.277348
H199	H	1.042928	-0.538546	-1.009464
H200	H	1.542928	-0.038546	-0.509464
H201	H	1.042935	-0.538514	-1.128167
H202	H	1.542935	-0.038514	-0.628167
O203	O	0.927245	-0.265082	-0.902157
O204	O	1.427245	0.234918	-0.402157
H205	H	0.884992	-0.266457	-0.932161
H206	H	1.384992	0.233543	-0.432161
O207	O	0.606038	-0.553928	-0.285093
O208	O	1.106038	-0.053928	0.214907
H209	H	0.553886	-0.544247	-0.290680
H210	H	1.053886	-0.044247	0.209320
H211	H	1.069049	-1.089540	-0.465676
H212	H	1.569049	-0.589540	0.034324
H213	H	0.885457	-0.833605	-0.281870
H214	H	1.385457	-0.333605	0.218130
O215	O	0.988184	-0.602863	-0.942728
O216	O	1.488184	-0.102863	-0.442728
H217	H	1.036789	-0.636514	-0.934222
H218	H	1.536789	-0.136514	-0.434222
O219	O	1.104136	-0.960586	-0.500851
O220	O	1.604136	-0.460586	-0.000851
H221	H	1.106248	-1.034008	-0.502961
H222	H	1.606248	-0.534008	-0.002961
O223	O	1.080559	-0.764821	-0.477264
O224	O	1.580559	-0.264821	0.022736
H225	H	1.064994	-0.691431	-0.461680
H226	H	1.564994	-0.191431	0.038320
H227	H	0.327926	-0.538628	-0.293883
H228	H	0.827926	-0.038628	0.206117
O229	O	1.055301	-0.553929	-0.599023
O230	O	1.555301	-0.053929	-0.099023
H231	H	1.087982	-0.594001	-0.637588
H232	H	1.587982	-0.094001	-0.137588
O233	O	0.173803	-0.314367	-0.423166
O234	O	0.673803	0.185633	0.076834
H235	H	0.202769	-0.274333	-0.446265
H236	H	0.702769	0.225667	0.053735
O237	O	0.505748	-0.265307	-0.344277
O238	O	1.005748	0.234693	0.155723
H239	H	0.465250	-0.208797	-0.340975
H240	H	0.965250	0.291203	0.159025
H241	H	0.872400	-0.329463	-0.580667
H242	H	1.372400	0.170537	-0.080667
H243	H	0.872411	-0.329420	-0.699373
H244	H	1.372411	0.170580	-0.199373
