data_functionalizedCrystal
_audit_creation_method	'MofGen! by Chris Wilmer'
_symmetry_space_group_name_H-M	'P1'
_symmetry_Int_Tables_number	1
_symmetry_cell_setting	triclinic
loop_
_symmetry_equiv_pos_as_xyz
  x,y,z
_cell_length_a	22.010155
_cell_length_b	23.532407
_cell_length_c	23.532407
_cell_angle_alpha	97.151322
_cell_angle_beta	90.000423
_cell_angle_gamma	89.996931
loop_
_atom_site_label
_atom_site_type_symbol
_atom_site_fract_x
_atom_site_fract_y
_atom_site_fract_z
O1	O	0.050455	-0.755264	0.069127
O2	O	0.550455	-0.255264	0.569127
O3	O	0.050474	-0.589400	0.079130
O4	O	0.550474	-0.089400	0.579130
O5	O	0.050453	-0.677334	-0.008803
O6	O	0.550453	-0.177334	0.491197
O7	O	0.050476	-0.667330	0.157060
O8	O	0.550476	-0.167330	0.657060
O9	O	-0.050597	-0.677318	-0.008790
O10	O	0.449403	-0.177318	0.491210
O11	O	-0.050576	-0.589384	0.079143
O12	O	0.449424	-0.089384	0.579143
O13	O	-0.050595	-0.755248	0.069140
O14	O	0.449405	-0.255248	0.569140
Cu15	Cu	-0.059812	-0.672315	0.074143
Cu16	Cu	0.440188	-0.172315	0.574143
Cu17	Cu	0.059691	-0.672333	0.074127
Cu18	Cu	0.559691	-0.172333	0.574127
O19	O	-0.050574	-0.667314	0.157073
O20	O	0.449426	-0.167314	0.657073
C21	C	-0.000049	-0.568176	0.078882
C22	C	0.499951	-0.068176	0.578882
C23	C	-0.000042	-0.504959	0.078116
C24	C	0.499958	-0.004959	0.578116
N25	N	-0.143865	-0.672305	0.074153
N26	N	0.356135	-0.172305	0.574153
C27	C	-0.000074	-0.677071	-0.030013
C28	C	0.499926	-0.177071	0.469987
C29	C	-0.000078	-0.676305	-0.093230
C30	C	0.499922	-0.176305	0.406770
C31	C	-0.563653	-0.711273	0.035196
C32	C	-0.063653	-0.211273	0.535196
C33	C	-0.627261	-0.711275	0.035192
C34	C	-0.127261	-0.211275	0.535192
O35	O	-0.660160	-0.744384	0.002076
O36	O	-0.160160	-0.244384	0.502076
N37	N	-0.659072	-0.672333	0.074115
N38	N	-0.159072	-0.172333	0.574115
C39	C	-0.627272	-0.633382	0.113041
C40	C	-0.127272	-0.133382	0.613041
O41	O	-0.660170	-0.600259	0.146148
O42	O	-0.160170	-0.100259	0.646148
C43	C	-0.563665	-0.633377	0.113042
C44	C	-0.063665	-0.133377	0.613042
C45	C	-0.531858	-0.672326	0.074120
C46	C	-0.031858	-0.172326	0.574120
C47	C	-0.531846	-0.750217	-0.003723
C48	C	-0.031846	-0.250217	0.496277
C49	C	-0.468243	-0.750215	-0.003719
C50	C	0.031757	-0.250215	0.496281
C51	C	-0.436447	-0.711268	0.035205
C52	C	0.063553	-0.211268	0.535205
C53	C	-0.468255	-0.672324	0.074125
C54	C	0.031745	-0.172324	0.574125
C55	C	-0.531866	-0.594424	0.151965
C56	C	-0.031866	-0.094424	0.651965
C57	C	-0.468256	-0.594422	0.151962
C58	C	0.031744	-0.094422	0.651962
C59	C	-0.436448	-0.633370	0.113040
C60	C	0.063552	-0.133370	0.613040
C61	C	-0.372856	-0.633374	0.113054
C62	C	0.127144	-0.133374	0.613054
N63	N	-0.341045	-0.672317	0.074130
N64	N	0.158955	-0.172317	0.574130
C65	C	-0.372841	-0.711263	0.035206
C66	C	0.127159	-0.211263	0.535206
C67	C	-0.760850	-0.633395	0.113036
C68	C	-0.260850	-0.133395	0.613036
C69	C	-0.824455	-0.633402	0.113039
C70	C	-0.324455	-0.133402	0.613039
C71	C	-0.824440	-0.711294	0.035188
C72	C	-0.324440	-0.211294	0.535188
C73	C	-0.760833	-0.711290	0.035189
C74	C	-0.260833	-0.211290	0.535189
C75	C	-0.729039	-0.672337	0.074113
C76	C	-0.229039	-0.172337	0.574113
C77	C	-0.239269	-0.711256	0.035220
C78	C	0.260731	-0.211256	0.535220
C79	C	-0.175660	-0.711252	0.035229
C80	C	0.324340	-0.211252	0.535229
C81	C	-0.175681	-0.633358	0.113077
C82	C	0.324319	-0.133358	0.613077
C83	C	-0.239284	-0.633364	0.113070
C84	C	0.260716	-0.133364	0.613070
C85	C	-0.271077	-0.672315	0.074136
C86	C	0.228923	-0.172315	0.574136
O87	O	-0.339916	-0.600282	0.146151
O88	O	0.160084	-0.100282	0.646151
O89	O	-0.339935	-0.744376	0.002100
O90	O	0.160065	-0.244376	0.502100
N91	N	0.143744	-0.672347	0.074112
N92	N	0.643744	-0.172347	0.574112
C93	C	-0.000071	-0.776472	0.069388
C94	C	0.499929	-0.276472	0.569388
C95	C	-0.000073	-0.839689	0.070154
C96	C	0.499927	-0.339689	0.570154
C97	C	-0.000063	-0.105856	0.125350
C98	C	0.499937	0.394144	0.625350
C99	C	-0.000067	-0.046456	0.124638
C100	C	0.499933	0.453544	0.624638
O101	O	-0.000083	-0.009711	0.168424
O102	O	0.499917	0.490289	0.668424
N103	N	-0.000073	-0.023830	0.072362
N104	N	0.499927	0.476170	0.572362
C105	C	-0.000082	-0.060607	0.020794
C106	C	0.499918	0.439393	0.520794
O107	O	-0.000088	-0.035908	-0.023737
O108	O	0.499912	0.464092	0.476263
C109	C	-0.000082	-0.120006	0.021506
C110	C	0.499918	0.379994	0.521506
C111	C	-0.000070	-0.142629	0.073785
C112	C	0.499930	0.357371	0.573785
C113	C	-0.000051	-0.128479	0.177625
C114	C	0.499949	0.371521	0.677625
C115	C	-0.000046	-0.187876	0.178336
C116	C	0.499954	0.312124	0.678336
C117	C	-0.000053	-0.224649	0.126772
C118	C	0.499947	0.275351	0.626772
C119	C	-0.000065	-0.202025	0.074497
C120	C	0.499935	0.297975	0.574497
C121	C	-0.000096	-0.156783	-0.030062
C122	C	0.499904	0.343217	0.469938
C123	C	-0.000097	-0.216185	-0.029345
C124	C	0.499903	0.283815	0.470655
C125	C	-0.000084	-0.238808	0.022934
C126	C	0.499916	0.261192	0.522934
C127	C	-0.000067	-0.298194	0.023643
C128	C	0.499933	0.201806	0.523643
N129	N	-0.000061	-0.320820	0.075920
N130	N	0.499939	0.179180	0.575920
C131	C	-0.000054	-0.284048	0.127484
C132	C	0.499946	0.215952	0.627484
C133	C	-0.000082	0.064135	0.019302
C134	C	0.499918	0.564135	0.519302
C135	C	-0.000077	0.123533	0.018589
C136	C	0.499923	0.623533	0.518589
C137	C	-0.000063	0.137680	0.122434
C138	C	0.499937	0.637680	0.622434
C139	C	-0.000064	0.078281	0.123146
C140	C	0.499936	0.578281	0.623146
C141	C	-0.000076	0.041509	0.071578
C142	C	0.499924	0.541509	0.571578
C143	C	-0.000043	-0.408784	0.128974
C144	C	0.499957	0.091216	0.628974
C145	C	-0.000035	-0.468186	0.129680
C146	C	0.499965	0.031814	0.629680
C147	C	-0.000052	-0.482329	0.025836
C148	C	0.499948	0.017671	0.525836
C149	C	-0.000057	-0.422932	0.025129
C150	C	0.499943	0.077068	0.525129
C151	C	-0.000054	-0.386160	0.076702
C152	C	0.499946	0.113840	0.576702
O153	O	-0.000054	-0.334974	-0.020119
O154	O	0.499946	0.165026	0.479881
O155	O	-0.000055	-0.308755	0.172007
O156	O	0.499945	0.191245	0.672007
C157	C	-0.000050	-0.723539	-0.492333
C158	C	0.499950	-0.223539	0.007667
C159	C	-0.000046	-0.722827	-0.551733
C160	C	0.499954	-0.222827	-0.051733
O161	O	-0.000028	-0.766613	-0.588478
O162	O	0.499972	-0.266613	-0.088478
N163	N	-0.000040	-0.670551	-0.574359
N164	N	0.499960	-0.170551	-0.074359
C165	C	-0.000033	-0.618983	-0.537582
C166	C	0.499967	-0.118983	-0.037582
O167	O	-0.000027	-0.574452	-0.562281
O168	O	0.499973	-0.074452	-0.062281
C169	C	-0.000033	-0.619695	-0.478182
C170	C	0.499967	-0.119695	0.021818
C171	C	-0.000045	-0.671974	-0.455560
C172	C	0.499955	-0.171974	0.044440
C173	C	-0.000061	-0.775814	-0.469710
C174	C	0.499939	-0.275814	0.030290
C175	C	-0.000067	-0.776525	-0.410313
C176	C	0.499933	-0.276525	0.089687
C177	C	-0.000062	-0.724961	-0.373540
C178	C	0.499938	-0.224961	0.126460
C179	C	-0.000051	-0.672685	-0.396164
C180	C	0.499949	-0.172685	0.103836
C181	C	-0.000022	-0.568127	-0.441406
C182	C	0.499978	-0.068127	0.058594
C183	C	-0.000022	-0.568844	-0.382004
C184	C	0.499978	-0.068844	0.117996
C185	C	-0.000034	-0.621123	-0.359381
C186	C	0.499966	-0.121123	0.140619
C187	C	-0.000052	-0.621832	-0.299995
C188	C	0.499948	-0.121832	0.200005
N189	N	-0.000057	-0.674109	-0.277368
N190	N	0.499943	-0.174109	0.222632
C191	C	-0.000062	-0.725673	-0.314141
C192	C	0.499938	-0.225673	0.185859
C193	C	-0.000031	-0.617491	-0.662324
C194	C	0.499969	-0.117491	-0.162324
C195	C	-0.000035	-0.616778	-0.721722
C196	C	0.499965	-0.116778	-0.221722
C197	C	-0.000047	-0.720623	-0.735869
C198	C	0.499953	-0.220623	-0.235869
C199	C	-0.000047	-0.721335	-0.676470
C200	C	0.499953	-0.221335	-0.176470
C201	C	-0.000037	-0.669767	-0.639698
C202	C	0.499963	-0.169767	-0.139698
C203	C	-0.000075	-0.727163	-0.189405
C204	C	0.499925	-0.227163	0.310595
C205	C	-0.000083	-0.727869	-0.130003
C206	C	0.499917	-0.227869	0.369997
C207	C	-0.000069	-0.624025	-0.115860
C208	C	0.499931	-0.124025	0.384140
C209	C	-0.000064	-0.623318	-0.175257
C210	C	0.499936	-0.123318	0.324743
C211	C	-0.000065	-0.674891	-0.212029
C212	C	0.499935	-0.174891	0.287971
O213	O	-0.000067	-0.578070	-0.263215
O214	O	0.499933	-0.078070	0.236785
O215	O	-0.000060	-0.770196	-0.289433
O216	O	0.499940	-0.270196	0.210567
C217	C	-0.000046	-0.667577	0.178283
C218	C	0.499954	-0.167577	0.678283
C219	C	-0.000037	-0.668343	0.241500
C220	C	0.499963	-0.168343	0.741500
H221	H	-0.149765	-0.742971	0.003534
H222	H	0.350235	-0.242971	0.503534
C223	C	-0.000093	-0.785379	-0.105121
C224	C	0.499907	-0.285379	0.394879
H225	H	-0.000088	-0.815986	-0.135532
H226	H	0.499912	-0.315986	0.364468
H227	H	-0.035333	-0.787813	-0.082246
H228	H	0.464667	-0.287813	0.417754
H229	H	0.035149	-0.787821	-0.082243
H230	H	0.535149	-0.287821	0.417757
C231	C	-0.000041	-0.777344	-0.776327
C232	C	0.499959	-0.277344	-0.276327
H233	H	-0.000031	-0.769428	-0.814942
H234	H	0.499969	-0.269428	-0.314942
H235	H	-0.035279	-0.798796	-0.769508
H236	H	0.464721	-0.298796	-0.269508
H237	H	0.035202	-0.798794	-0.769498
H238	H	0.535202	-0.298794	-0.269498
C239	C	-0.000028	-0.559271	-0.746601
C240	C	0.499972	-0.059271	-0.246601
H241	H	-0.000021	-0.528666	-0.716188
H242	H	0.499979	-0.028666	-0.216188
H243	H	-0.035262	-0.556825	-0.769481
H244	H	0.464738	-0.056825	-0.269481
H245	H	0.035219	-0.556840	-0.769473
H246	H	0.535219	-0.056840	-0.269473
H247	H	-0.000063	-0.817806	-0.499645
H248	H	0.499937	-0.317806	0.000355
C249	C	-0.000080	0.148414	-0.038916
C250	C	0.499920	0.648414	0.461084
H251	H	-0.000076	0.189057	-0.031961
H252	H	0.499924	0.689057	0.468039
H253	H	-0.035319	0.135771	-0.060131
H254	H	0.464681	0.635771	0.439869
H255	H	0.035162	0.135769	-0.060133
H256	H	0.535162	0.635769	0.439867
H257	H	-0.000106	-0.138375	-0.072634
H258	H	0.499894	0.361625	0.427366
C259	C	-0.000004	-0.510618	-0.466278
C260	C	0.499996	-0.010618	0.033722
H261	H	0.000007	-0.480016	-0.435863
H262	H	0.500007	0.019984	0.064137
H263	H	-0.035239	-0.508166	-0.489157
H264	H	0.464761	-0.008166	0.010843
H265	H	0.035242	-0.508189	-0.489151
H266	H	0.535242	-0.008189	0.010849
C267	C	-0.140701	-0.590518	0.155891
C268	C	0.359299	-0.090518	0.655891
H269	H	-0.168750	-0.567324	0.179076
H270	H	0.331250	-0.067324	0.679076
H271	H	-0.115889	-0.566933	0.135521
H272	H	0.384111	-0.066933	0.635521
H273	H	-0.115887	-0.610871	0.179498
H274	H	0.384113	-0.110871	0.679498
H275	H	-0.000073	-0.769159	-0.219337
H276	H	0.499927	-0.269159	0.280663
H277	H	-0.000013	-0.526850	-0.352066
H278	H	0.499987	-0.026850	0.147934
C279	C	-0.000050	-0.565812	-0.200144
C280	C	0.499950	-0.065812	0.299856
H281	H	-0.000043	-0.535205	-0.169733
H282	H	0.499957	-0.035205	0.330267
H283	H	-0.035281	-0.563364	-0.223029
H284	H	0.464719	-0.063364	0.276971
H285	H	0.035201	-0.563386	-0.223013
H286	H	0.535201	-0.063386	0.276987
H287	H	-0.265148	-0.742973	0.003516
H288	H	0.234852	-0.242973	0.503516
C289	C	-0.000103	-0.256632	-0.086072
C290	C	0.499897	0.243368	0.413928
H291	H	-0.000105	-0.234647	-0.117306
H292	H	0.499895	0.265353	0.382694
H293	H	-0.035338	-0.280100	-0.087951
H294	H	0.464662	0.219900	0.412049
H295	H	0.035143	-0.280095	-0.087957
H296	H	0.535143	0.219905	0.412043
C297	C	-0.433285	-0.551576	0.194782
C298	C	0.066715	-0.051576	0.694782
H299	H	-0.461342	-0.528386	0.217963
H300	H	0.038658	-0.028386	0.717963
H301	H	-0.408472	-0.527985	0.174418
H302	H	0.091528	-0.027985	0.674418
H303	H	-0.408474	-0.571928	0.218392
H304	H	0.091526	-0.071928	0.718392
C305	C	-0.000054	-0.778842	-0.651591
C306	C	0.499946	-0.278842	-0.151591
H307	H	-0.000054	-0.809447	-0.682003
H308	H	0.499946	-0.309447	-0.182003
H309	H	-0.035291	-0.781276	-0.628711
H310	H	0.464709	-0.281276	-0.128711
H311	H	0.035190	-0.781286	-0.628717
H312	H	0.535190	-0.281286	-0.128717
C313	C	-0.000068	-0.834033	-0.385436
C314	C	0.499932	-0.334033	0.114564
H315	H	-0.000063	-0.864637	-0.415850
H316	H	0.499937	-0.364637	0.084150
H317	H	-0.035305	-0.836473	-0.362558
H318	H	0.464695	-0.336473	0.137442
H319	H	0.035176	-0.836474	-0.362562
H320	H	0.535176	-0.336474	0.137438
C321	C	-0.000082	0.023690	-0.037426
C322	C	0.499918	0.523690	0.462574
H323	H	-0.000079	0.045677	-0.068658
H324	H	0.499921	0.545677	0.431342
H325	H	-0.035318	0.000223	-0.039310
H326	H	0.464682	0.500223	0.460690
H327	H	0.035163	0.000225	-0.039311
H328	H	0.535163	0.500225	0.460689
C329	C	-0.000025	-0.493068	0.187190
C330	C	0.499975	0.006932	0.687190
H331	H	-0.000028	-0.462657	0.217797
H332	H	0.499972	0.037343	0.717797
H333	H	0.035215	-0.515946	0.189625
H334	H	0.535215	-0.015946	0.689625
H335	H	-0.035267	-0.515944	0.189631
H336	H	0.464733	-0.015944	0.689631
C337	C	-0.433262	-0.793052	-0.046540
C338	C	0.066738	-0.293052	0.453460
H339	H	-0.461316	-0.816240	-0.069723
H340	H	0.038684	-0.316240	0.430277
H341	H	-0.408444	-0.816645	-0.026180
H342	H	0.091556	-0.316645	0.473820
H343	H	-0.408455	-0.772695	-0.070147
H344	H	0.091545	-0.272695	0.429853
H345	H	-0.000058	-0.404512	-0.017441
H346	H	0.499942	0.095488	0.482559
C347	C	-0.000065	-0.522786	-0.030880
C348	C	0.499935	-0.022786	0.469120
H349	H	-0.000068	-0.561400	-0.022964
H350	H	0.499932	-0.061400	0.477036
H351	H	0.035167	-0.515965	-0.052342
H352	H	0.535167	-0.015965	0.447658
H353	H	-0.035315	-0.515957	-0.052320
H354	H	0.464685	-0.015957	0.447680
C355	C	-0.000032	-0.560763	-0.621879
C356	C	0.499968	-0.060763	-0.121879
H357	H	-0.000034	-0.529531	-0.643866
H358	H	0.499966	-0.029531	-0.143866
H359	H	0.035205	-0.558881	-0.598411
H360	H	0.535205	-0.058881	-0.098411
H361	H	-0.035276	-0.558876	-0.598416
H362	H	0.464724	-0.058876	-0.098416
C363	C	-0.000044	-0.212753	0.235844
C364	C	0.499956	0.287247	0.735844
H365	H	-0.000048	-0.182339	0.266448
H366	H	0.499952	0.317661	0.766448
H367	H	0.035192	-0.235634	0.238286
H368	H	0.535192	0.264366	0.738286
H369	H	-0.035289	-0.235625	0.238283
H370	H	0.464711	0.264375	0.738283
C371	C	-0.725881	-0.590552	0.155863
C372	C	-0.225881	-0.090552	0.655863
H373	H	-0.753940	-0.567366	0.179045
H374	H	-0.253940	-0.067366	0.679045
H375	H	-0.701069	-0.566957	0.135502
H376	H	-0.201069	-0.066957	0.635502
H377	H	-0.701069	-0.610905	0.179471
H378	H	-0.201069	-0.110905	0.679471
C379	C	-0.000059	-0.567307	-0.075406
C380	C	0.499941	-0.067307	0.424594
H381	H	-0.000055	-0.536068	-0.097383
H382	H	0.499945	-0.036068	0.402617
H383	H	0.035179	-0.565439	-0.051940
H384	H	0.535179	-0.065439	0.448060
H385	H	-0.035302	-0.565420	-0.051940
H386	H	0.464698	-0.065420	0.448060
H387	H	-0.557728	-0.781933	-0.035423
H388	H	-0.057728	-0.281933	0.464577
C389	C	-0.000038	-0.088038	0.234351
C390	C	0.499962	0.411962	0.734351
H391	H	-0.000027	-0.110027	0.265581
H392	H	0.499973	0.389973	0.765581
H393	H	-0.035274	-0.064565	0.236247
H394	H	0.464726	0.435435	0.736247
H395	H	0.035208	-0.064579	0.236227
H396	H	0.535208	0.435421	0.736227
C397	C	-0.725851	-0.754128	-0.007629
C398	C	-0.225851	-0.254128	0.492371
H399	H	-0.753902	-0.777320	-0.030811
H400	H	-0.253902	-0.277320	0.469189
H401	H	-0.701032	-0.777717	0.012734
H402	H	-0.201032	-0.277717	0.512734
H403	H	-0.701044	-0.733772	-0.031237
H404	H	-0.201044	-0.233772	0.468763
C405	C	-0.566841	-0.551585	0.194785
C406	C	-0.066841	-0.051585	0.694785
H407	H	-0.538786	-0.528390	0.217960
H408	H	-0.038786	-0.028390	0.717960
H409	H	-0.591649	-0.571935	0.218391
H410	H	-0.091649	-0.071935	0.718391
H411	H	-0.591657	-0.527990	0.174420
H412	H	-0.091657	-0.027990	0.674420
H413	H	-0.850339	-0.743006	0.003493
H414	H	-0.350339	-0.243006	0.503493
H415	H	-0.265183	-0.601654	0.144769
H416	H	0.234817	-0.101654	0.644769
C417	C	-0.859439	-0.590565	0.155857
C418	C	-0.359439	-0.090565	0.655857
H419	H	-0.901876	-0.596143	0.150287
H420	H	-0.401876	-0.096143	0.650287
H421	H	-0.849016	-0.552593	0.149866
H422	H	-0.349016	-0.052593	0.649866
H423	H	-0.849014	-0.596538	0.193837
H424	H	-0.349014	-0.096538	0.693837
C425	C	-0.000032	-0.368344	0.185703
C426	C	0.499968	0.131656	0.685703
H427	H	-0.000017	-0.390333	0.216934
H428	H	0.499983	0.109667	0.716934
H429	H	-0.035269	-0.344875	0.187598
H430	H	0.464731	0.155125	0.687598
H431	H	0.035213	-0.344883	0.187578
H432	H	0.535213	0.155117	0.687578
H433	H	-0.000060	0.167632	0.164421
H434	H	0.499940	0.667632	0.664421
C435	C	-0.000055	0.053402	0.180653
C436	C	0.499945	0.553402	0.680653
H437	H	-0.000054	0.083814	0.211258
H438	H	0.499946	0.583814	0.711258
H439	H	0.035182	0.030520	0.183088
H440	H	0.535182	0.530520	0.683088
H441	H	-0.035300	0.030530	0.183096
H442	H	0.464700	0.530530	0.683096
