data_functionalizedCrystal
_audit_creation_method	'MofGen! by Chris Wilmer'
_symmetry_space_group_name_H-M	'P1'
_symmetry_Int_Tables_number	1
_symmetry_cell_setting	triclinic
loop_
_symmetry_equiv_pos_as_xyz
  x,y,z
_cell_length_a	11.169417
_cell_length_b	11.169416
_cell_length_c	21.395355
_cell_angle_alpha	89.989073
_cell_angle_beta	89.979112
_cell_angle_gamma	90.011589
loop_
_atom_site_label
_atom_site_type_symbol
_atom_site_fract_x
_atom_site_fract_y
_atom_site_fract_z
Zn1	Zn	1.834979	-0.477906	-0.354233
Zn2	Zn	1.834863	-0.678577	-0.249470
Zn3	Zn	1.634260	-0.477911	-0.249477
Zn4	Zn	1.634272	-0.678550	-0.354217
O5	O	1.734593	-0.578236	-0.301849
O6	O	2.002913	-0.504535	-0.340340
O7	O	1.808199	-0.651971	-0.161793
O8	O	1.660929	-0.309960	-0.263383
O9	O	2.002828	-0.651967	-0.263371
O10	O	1.808396	-0.309957	-0.340347
O11	O	1.660817	-0.504543	-0.161798
O12	O	1.466312	-0.504517	-0.263367
O13	O	1.660950	-0.651921	-0.441897
O14	O	1.466321	-0.651926	-0.340318
O15	O	1.808408	-0.504509	-0.441909
O16	O	1.808211	-0.846523	-0.263355
O17	O	1.660838	-0.846504	-0.340312
C18	C	1.422769	-0.578220	-0.301842
C19	C	1.289369	-0.578242	-0.301854
C20	C	1.734546	-0.890061	-0.301844
C21	C	1.734635	-1.023461	-0.301863
C22	C	2.047636	-0.578253	-0.301857
C23	C	2.181036	-0.578260	-0.301860
C24	C	1.734693	-0.578212	-0.465272
C25	C	1.734735	-0.578201	-0.534914
C26	C	1.734674	-0.265194	-0.301868
C27	C	1.734708	-0.131794	-0.301875
C28	C	1.811514	-0.501441	-0.567634
C29	C	1.811512	-0.501389	-0.633070
C30	C	1.734745	-0.578120	-0.665782
C31	C	1.657952	-0.654886	-0.633054
C32	C	1.657947	-0.654927	-0.567619
C33	C	1.725252	-0.686185	-0.769455
C34	C	1.725265	-0.686146	-0.834888
C35	C	1.734752	-0.577993	-0.867603
C36	C	1.744252	-0.469875	-0.834876
C37	C	1.744247	-0.469916	-0.769442
C38	C	1.734741	-0.578083	-0.736734
C39	C	1.811533	-0.501169	-0.971276
C40	C	1.811523	-0.501116	-1.036713
C41	C	1.657968	-0.654623	-1.036695
C42	C	1.657972	-0.654666	-0.971260
C43	C	1.734761	-0.577941	-0.938554
C44	C	1.734563	-0.578174	-0.139061
C45	C	1.734753	-0.577846	-0.069421
H46	H	1.874039	-0.438963	-0.541009
H47	H	1.874031	-0.438874	-0.659716
H48	H	1.874052	-0.438688	-0.944645
C49	C	1.573489	-0.739375	-0.531625
C50	C	1.437054	-0.729566	-0.540596
C51	C	1.352597	-0.814018	-0.504601
C52	C	1.404574	-0.908279	-0.459634
C53	C	1.541016	-0.918092	-0.450660
C54	C	1.625474	-0.833640	-0.486656
H55	H	1.398571	-0.659785	-0.573885
H56	H	1.251593	-0.806753	-0.511244
H57	H	1.342054	-0.970795	-0.432988
H58	H	1.579499	-0.987873	-0.417372
H59	H	1.726477	-0.840905	-0.480013
H60	H	1.751979	-0.381883	-0.742799
C61	C	1.573512	-0.739028	-1.072666
C62	C	1.625477	-0.833238	-1.117666
C63	C	1.541009	-0.917640	-1.153638
C64	C	1.404576	-0.907832	-1.144608
C65	C	1.352604	-0.813618	-1.099605
C66	C	1.437071	-0.729216	-1.063634
H67	H	1.726479	-0.840501	-1.124352
H68	H	1.579483	-0.987383	-1.186952
H69	H	1.342048	-0.970312	-1.171236
H70	H	1.251601	-0.806355	-1.092920
H71	H	1.398597	-0.659473	-1.030320
H72	H	1.874043	-0.438601	-1.063353
H73	H	1.717537	-0.774182	-0.861529
H74	H	1.595458	-0.717181	-0.944619
C75	C	1.573508	-0.739293	-0.669034
C76	C	1.573515	-0.739258	-0.741009
C77	C	1.489063	-0.823663	-0.776989
C78	C	1.404605	-0.908104	-0.740993
C79	C	1.404595	-0.908142	-0.669014
C80	C	1.489046	-0.823737	-0.633035
H81	H	1.636038	-0.676747	-0.767659
H82	H	1.489071	-0.823635	-0.830273
H83	H	1.342088	-0.970586	-0.767627
H84	H	1.342071	-0.970653	-0.642365
H85	H	1.489038	-0.823765	-0.579751
H86	H	1.751979	-0.381806	-0.861511
H87	H	1.717205	-0.774234	-0.742825
