data_functionalizedCrystal
_audit_creation_method	'MofGen! by Chris Wilmer'
_symmetry_space_group_name_H-M	'P1'
_symmetry_Int_Tables_number	1
_symmetry_cell_setting	triclinic
loop_
_symmetry_equiv_pos_as_xyz
  x,y,z
_cell_length_a	17.699077
_cell_length_b	8.597304
_cell_length_c	16.176319
_cell_angle_alpha	82.293375
_cell_angle_beta	89.993140
_cell_angle_gamma	84.313138
loop_
_atom_site_label
_atom_site_type_symbol
_atom_site_fract_x
_atom_site_fract_y
_atom_site_fract_z
O1	O	1.005727	0.198423	-0.082865
O2	O	0.785562	0.224254	-0.084709
O3	O	0.899976	-0.017147	-0.067511
O4	O	0.891313	0.439823	-0.100063
O5	O	0.899960	-0.017162	0.069983
O6	O	0.785546	0.224238	0.052786
O7	O	1.005711	0.198408	0.054629
Cu8	Cu	0.895627	0.211322	0.066262
Cu9	Cu	0.895646	0.211340	-0.096341
O10	O	0.891297	0.439808	0.037432
C11	C	0.757349	0.223322	-0.015896
C12	C	0.673308	0.220550	-0.015700
C13	C	0.633821	0.219236	0.059342
C14	C	0.554857	0.216606	0.059530
C15	C	0.515380	0.215302	-0.015326
C16	C	0.554873	0.216612	-0.090373
C17	C	0.633837	0.219231	-0.090560
C18	C	0.236422	0.206051	-0.089622
C19	C	0.157453	0.203437	-0.089430
C20	C	0.157442	0.203426	0.060467
C21	C	0.236406	0.206045	0.060281
C22	C	0.275892	0.207346	-0.014766
C23	C	0.361514	0.210194	-0.014969
C24	C	0.429759	0.212465	-0.015124
C25	C	0.899037	-0.075623	0.005399
C26	C	0.896254	-0.249840	0.017804
C27	C	1.033924	0.199339	-0.014185
C28	C	1.117965	0.202111	-0.014387
C29	C	0.892236	0.498284	-0.035481
C30	C	0.895019	0.672501	-0.047891
N31	N	0.895619	0.211308	0.180628
N32	N	0.895660	0.211341	-0.210707
C33	C	0.946297	0.104459	0.231504
C34	C	0.946301	0.104458	0.318051
C35	C	0.895630	0.211313	0.353720
C36	C	0.844946	0.318167	0.302837
C37	C	0.844939	0.318160	0.216292
C38	C	0.844972	0.318196	0.651864
C39	C	0.844985	0.318198	0.738415
C40	C	0.946334	0.104494	0.753622
C41	C	0.946327	0.104487	0.667077
C42	C	0.895641	0.211334	0.616203
C43	C	0.895637	0.211333	0.522359
C44	C	0.895637	0.211323	0.447562
H45	H	0.125283	0.202359	0.121574
H46	H	0.665956	0.220310	0.120297
C47	C	0.114027	0.201989	-0.171776
C48	C	0.132474	0.066114	-0.223922
C49	C	0.089048	0.064668	-0.306263
C50	C	0.027176	0.199099	-0.336457
C51	C	0.008727	0.334984	-0.284309
C52	C	0.052153	0.336430	-0.201969
H53	H	0.178278	-0.033409	-0.201572
H54	H	0.102706	-0.035924	-0.344865
H55	H	-0.004970	0.198028	-0.397410
H56	H	-0.037077	0.434507	-0.306660
H57	H	0.038495	0.437022	-0.163366
H58	H	0.895173	-0.316639	0.083547
C59	C	0.789238	0.435738	0.777653
C60	C	0.789252	0.435746	0.872849
C61	C	0.733509	0.553279	0.912089
C62	C	0.677753	0.670803	0.856132
C63	C	0.677737	0.670799	0.760930
C64	C	0.733480	0.553267	0.721691
H65	H	0.830528	0.348743	0.914277
H66	H	0.733521	0.553281	0.982564
H67	H	0.636489	0.757808	0.885179
H68	H	0.636462	0.757802	0.719503
H69	H	0.733468	0.553264	0.651216
C70	C	1.002038	-0.013086	0.192273
C71	C	1.002037	-0.013103	0.097078
C72	C	1.057778	-0.130656	0.057850
C73	C	1.113519	-0.248194	0.113819
C74	C	1.113522	-0.248182	0.209020
C75	C	1.057782	-0.130628	0.248247
H76	H	0.960772	0.073909	0.055642
H77	H	1.057775	-0.130664	-0.012624
H78	H	1.154781	-0.335214	0.084780
H79	H	1.154787	-0.335194	0.250456
H80	H	1.057784	-0.130620	0.318721
H81	H	0.522711	0.215509	0.120639
H82	H	0.803685	0.405166	0.331884
H83	H	0.987567	0.017453	0.359475
H84	H	0.896089	-0.260704	-0.113630
H85	H	0.268543	0.207114	0.121235
H86	H	0.268563	0.207105	-0.150729
H87	H	0.803703	0.405198	0.610448
H88	H	0.987591	0.017481	0.638039
H89	H	0.522726	0.215539	-0.151321
H90	H	0.803671	0.405165	0.174869
C91	C	1.002086	-0.013056	0.809587
C92	C	0.999502	-0.191772	0.810422
C93	C	1.055254	-0.309315	0.866383
C94	C	1.113589	-0.248142	0.921509
C95	C	1.116174	-0.069417	0.920676
C96	C	1.060423	0.048126	0.864715
H97	H	0.956318	-0.237065	0.769613
H98	H	1.053340	-0.441620	0.867000
H99	H	1.154859	-0.335155	0.962935
H100	H	1.159359	-0.024125	0.961485
H101	H	1.062337	0.180430	0.864098
H102	H	0.665986	0.220304	-0.151667
