data_functionalizedCrystal
_audit_creation_method	'MofGen! by Chris Wilmer'
_symmetry_space_group_name_H-M	'P1'
_symmetry_Int_Tables_number	1
_symmetry_cell_setting	triclinic
loop_
_symmetry_equiv_pos_as_xyz
  x,y,z
_cell_length_a	14.971486
_cell_length_b	19.188930
_cell_length_c	14.048226
_cell_angle_alpha	89.988446
_cell_angle_beta	89.998499
_cell_angle_gamma	83.379455
loop_
_atom_site_label
_atom_site_type_symbol
_atom_site_fract_x
_atom_site_fract_y
_atom_site_fract_z
O1	O	1.186466	0.090988	-0.079062
O2	O	0.926009	0.101884	-0.079090
O3	O	1.063754	-0.005196	-0.079057
O4	O	1.048721	0.198067	-0.079095
O5	O	1.063737	-0.005202	0.079265
O6	O	0.925992	0.101878	0.079232
O7	O	1.186450	0.090982	0.079259
Zn8	Zn	1.056218	0.096429	0.104382
Zn9	Zn	1.056240	0.096437	-0.104213
O10	O	1.048705	0.198061	0.079226
C11	C	0.892678	0.101393	0.000068
C12	C	0.793389	0.099933	0.000058
C13	C	0.735831	0.162839	0.000048
C14	C	0.642539	0.161463	0.000062
C15	C	0.606806	0.097180	0.000080
C16	C	0.664371	0.034269	0.000094
C17	C	0.757662	0.035646	0.000086
C18	C	0.469924	0.031403	0.000108
C19	C	0.376627	0.030026	0.000113
C20	C	0.354801	0.157221	0.000083
C21	C	0.448092	0.158598	0.000076
C22	C	0.505650	0.095686	0.000088
C23	C	1.063259	-0.031211	0.000107
C24	C	1.061797	-0.108721	0.000115
C25	C	1.142622	-0.153384	0.000128
C26	C	1.141249	-0.226213	0.000112
C27	C	1.059047	-0.254374	0.000103
C28	C	0.978212	-0.209700	0.000085
C29	C	0.979587	-0.136874	0.000091
N30	N	0.996208	-0.362583	0.053976
N31	N	0.994907	-0.431766	0.053973
C32	C	1.054899	-0.473796	0.000084
N33	N	1.116254	-0.444031	-0.053790
N34	N	1.117558	-0.374842	-0.053782
C35	C	1.057547	-0.333341	0.000096
C36	C	1.134240	-0.597429	0.000078
C37	C	1.132864	-0.670258	0.000057
C38	C	0.969825	-0.653744	0.000039
C39	C	0.971203	-0.580916	0.000051
C40	C	1.053413	-0.552763	0.000075
C41	C	1.219780	0.091472	0.000100
C42	C	1.319070	0.092932	0.000103
C43	C	1.049200	0.224077	0.000061
C44	C	1.050661	0.301586	0.000046
N45	N	1.056210	0.096422	0.246743
N46	N	1.056256	0.096437	-0.246573
C47	C	1.117223	0.049027	0.296576
C48	C	1.117229	0.049027	0.396233
C49	C	1.056226	0.096426	0.446057
C50	C	0.995207	0.143823	0.396217
C51	C	0.995197	0.143819	0.296561
C52	C	0.995233	0.143828	0.603931
C53	C	0.995243	0.143833	0.703594
C54	C	1.117264	0.049035	0.703603
C55	C	1.117255	0.049032	0.603948
C56	C	1.056236	0.096430	0.554115
H57	H	0.804525	-0.015579	0.000094
H58	H	1.209564	-0.130467	0.000144
O59	O	0.341766	-0.032357	0.000102
C60	C	0.247083	-0.020078	0.000129
H61	H	0.224965	0.034387	-0.029870
H62	H	0.218592	-0.061220	-0.045812
H63	H	0.221129	-0.023472	0.076088
O64	O	0.770645	0.225242	0.000154
C65	C	0.823943	0.229850	0.082154
H66	H	0.847398	0.174840	0.109503
H67	H	0.884923	0.257735	0.063699
H68	H	0.782606	0.260702	0.139568
H69	H	0.902894	-0.676672	0.000027
H70	H	0.635271	-0.018072	0.000122
O71	O	0.898305	-0.236969	0.000203
C72	C	0.849047	-0.214178	0.082203
H73	H	0.873220	-0.163653	0.109547
H74	H	0.774524	-0.204131	0.063750
H75	H	0.859564	-0.256320	0.139620
O76	O	1.176342	0.002926	0.248098
C77	C	1.128576	-0.040221	0.190524
H78	H	1.058494	-0.012478	0.175572
H79	H	1.165945	-0.051266	0.120454
H80	H	1.122663	-0.091808	0.228989
H81	H	0.945542	0.182423	0.563361
H82	H	0.913768	-0.100507	0.000080
H83	H	1.198683	-0.706623	0.000063
O84	O	1.219847	-0.269510	0.000170
C85	C	1.292701	-0.229044	0.000165
H86	H	1.269783	-0.174714	0.030135
H87	H	1.349305	-0.255870	0.046142
H88	H	1.317928	-0.223827	-0.075784
H89	H	0.945533	0.182414	0.436789
H90	H	1.166909	0.010434	0.436807
H91	H	0.905387	-0.544550	0.000046
H92	H	0.477182	0.210943	0.000052
O93	O	1.176547	0.002923	0.555695
C94	C	1.230419	-0.038900	0.621045
H95	H	1.193764	-0.039738	0.692092
H96	H	1.244283	-0.094641	0.592265
H97	H	1.296772	-0.016143	0.631624
O98	O	0.298767	0.218269	0.000114
C99	C	0.208763	0.203273	0.000103
H100	H	0.205402	0.148432	0.030099
H101	H	0.166340	0.243369	0.046055
H102	H	0.181770	0.205892	-0.075851
H103	H	1.166947	0.010442	0.744183
O104	O	0.935887	0.189891	0.751846
C105	C	0.882033	0.231729	0.686496
H106	H	0.881141	0.203105	0.615464
H107	H	0.810565	0.242270	0.715298
H108	H	0.910845	0.283644	0.675883
O109	O	0.586755	0.222635	0.000008
C110	C	0.638299	0.279668	0.000009
H111	H	0.707996	0.262004	-0.029970
H112	H	0.603706	0.323750	-0.045963
H113	H	0.644872	0.299368	0.075957
O114	O	0.935898	0.189928	0.248298
C115	C	0.882042	0.231754	0.313640
H116	H	0.918716	0.232594	0.384672
H117	H	0.868171	0.287494	0.284827
H118	H	0.815693	0.208996	0.324258
O119	O	1.214173	-0.570191	0.000043
C120	C	1.285219	-0.625234	0.000061
H121	H	1.260341	-0.674722	-0.029917
H122	H	1.342628	-0.609957	-0.045902
H123	H	1.310138	-0.635533	0.076015
O124	O	0.525710	-0.029773	0.000072
C125	C	0.474170	-0.086807	0.000107
H126	H	0.404465	-0.069142	-0.029859
H127	H	0.508754	-0.130883	-0.045858
H128	H	0.467613	-0.106516	0.076065
