data_functionalizedCrystal
_audit_creation_method	'MofGen! by Chris Wilmer'
_symmetry_space_group_name_H-M	'P1'
_symmetry_Int_Tables_number	1
_symmetry_cell_setting	triclinic
loop_
_symmetry_equiv_pos_as_xyz
  x,y,z
_cell_length_a	13.032831
_cell_length_b	18.101397
_cell_length_c	13.033109
_cell_angle_alpha	97.149218
_cell_angle_beta	76.665514
_cell_angle_gamma	82.824609
loop_
_atom_site_label
_atom_site_type_symbol
_atom_site_fract_x
_atom_site_fract_y
_atom_site_fract_z
Zn1	Zn	1.700070	-0.520610	-0.806340
Zn2	Zn	2.200070	-0.020610	-0.306340
Zn3	Zn	1.677393	-0.626434	-0.628709
Zn4	Zn	2.177393	-0.126434	-0.128709
Zn5	Zn	1.499897	-0.484590	-0.606238
Zn6	Zn	1.999897	0.015410	-0.106238
Zn7	Zn	1.522408	-0.626369	-0.783753
Zn8	Zn	2.022408	-0.126369	-0.283753
O9	O	1.599942	-0.564501	-0.706260
O10	O	2.099942	-0.064501	-0.206260
O11	O	1.845696	-0.549750	-0.801634
O12	O	2.345696	-0.049750	-0.301634
O13	O	1.634936	-0.592571	-0.477099
O14	O	2.134936	-0.092571	0.022901
O15	O	1.526520	-0.385746	-0.632830
O16	O	2.026520	0.114254	-0.132830
O17	O	1.829036	-0.627498	-0.671129
O18	O	2.329036	-0.127498	-0.171129
O19	O	1.673586	-0.412210	-0.779845
O20	O	2.173586	0.087790	-0.279845
O21	O	1.504531	-0.488359	-0.460589
O22	O	2.004531	0.011641	0.039411
O23	O	1.354248	-0.488296	-0.610929
O24	O	1.854248	0.011704	-0.110929
O25	O	1.564886	-0.627387	-0.935379
O26	O	2.064886	-0.127387	-0.435379
O27	O	1.370787	-0.592460	-0.741349
O28	O	1.870787	-0.092460	-0.241349
O29	O	1.695414	-0.549686	-0.951974
O30	O	2.195414	-0.049686	-0.451974
O31	O	1.656764	-0.730047	-0.649228
O32	O	2.156764	-0.230047	-0.149228
O33	O	1.542897	-0.730000	-0.763138
O34	O	2.042897	-0.230000	-0.263138
C35	C	1.323978	-0.536463	-0.671250
C36	C	1.823978	-0.036463	-0.171250
C37	C	1.205923	-0.524488	-0.656298
C38	C	1.705923	-0.024488	-0.156298
C39	C	1.599844	-0.756897	-0.706197
C40	C	2.099844	-0.256897	-0.206197
C41	C	1.599904	-0.839218	-0.706218
C42	C	2.099904	-0.339218	-0.206218
C43	C	1.161488	-0.570750	-0.714064
C44	C	1.661488	-0.070750	-0.214064
C45	C	1.039472	-0.558375	-0.698611
C46	C	1.539472	-0.058375	-0.198611
C47	C	1.600052	-1.138333	-0.706332
C48	C	2.100052	-0.638333	-0.206332
C49	C	1.671437	-1.106961	-0.634414
C50	C	2.171437	-0.606961	-0.134414
C51	C	1.671748	-1.021393	-0.634663
C52	C	2.171748	-0.521393	-0.134663
C53	C	1.599979	-0.989938	-0.706275
C54	C	2.099979	-0.489938	-0.206275
C55	C	1.644541	-1.035379	-0.822072
C56	C	2.144541	-0.535379	-0.322072
C57	C	1.645117	-1.121043	-0.821704
C58	C	2.145117	-0.621043	-0.321704
C59	C	1.484010	-1.092520	-0.663394
C60	C	1.984010	-0.592520	-0.163394
C61	C	1.484247	-1.006673	-0.660966
C62	C	1.984247	-0.506673	-0.160966
C63	C	1.599936	-0.906073	-0.706249
C64	C	2.099936	-0.406073	-0.206249
C65	C	1.600098	-1.222199	-0.706366
C66	C	2.100098	-0.722199	-0.206366
C67	C	1.876983	-0.592649	-0.741408
C68	C	2.376983	-0.092649	-0.241408
C69	C	1.995042	-0.604644	-0.756386
C70	C	2.495042	-0.104644	-0.256386
C71	C	1.635191	-0.592547	-0.983292
C72	C	2.135191	-0.092547	-0.483292
C73	C	1.650211	-0.604499	-1.101347
C74	C	2.150211	-0.104499	-0.601347
C75	C	1.600071	-0.371359	-0.706350
C76	C	2.100071	0.128641	-0.206350
C77	C	1.600127	-0.289053	-0.706389
C78	C	2.100127	0.210947	-0.206389
C79	C	1.592386	-0.558265	-1.145811
C80	C	2.092386	-0.058265	-0.645811
C81	C	1.607910	-0.570617	-1.267826
C82	C	2.107910	-0.070617	-0.767826
C83	C	1.564891	-0.536516	-0.430314
C84	C	2.064891	-0.036516	0.069686
C85	C	1.550076	-0.524377	-0.312286
C86	C	2.050076	-0.024377	0.187714
H87	H	1.213779	-0.619516	-0.774963
H88	H	1.713779	-0.119516	-0.274963
N89	N	1.515857	-0.497145	-1.080239
N90	N	2.015857	0.002855	-0.580239
N91	N	1.503351	-0.487201	-0.981214
N92	N	2.003351	0.012799	-0.481214
H93	H	1.449299	-0.444034	-0.934904
H94	H	1.949299	0.055966	-0.434904
N95	N	0.973892	-0.497180	-0.622228
N96	N	1.473892	0.002820	-0.122228
N97	N	0.916774	-0.447591	-0.651942
N98	N	1.416774	0.052409	-0.151942
H99	H	0.870458	-0.404371	-0.597999
H100	H	1.370458	0.095629	-0.097999
H101	H	1.047328	-0.653412	-0.817292
H102	H	1.547328	-0.153412	-0.317292
H103	H	1.668911	-0.619347	-1.320087
H104	H	2.168911	-0.119347	-0.820087
H105	H	1.594754	-1.015537	-0.877710
H106	H	2.094754	-0.515537	-0.377710
H107	H	1.153633	-0.475718	-0.595406
H108	H	1.653633	0.024282	-0.095406
H109	H	1.642221	-0.990087	-0.549247
H110	H	2.142221	-0.490087	-0.049247
N111	N	1.473533	-0.463246	-1.246751
N112	N	1.973533	0.036754	-0.746751
N113	N	1.377076	-0.459437	-1.246624
N114	N	1.877076	0.040563	-0.746624
H115	H	1.323017	-0.416264	-1.200341
H116	H	1.823017	0.083736	-0.700341
H117	H	1.642108	-1.117258	-0.548778
H118	H	2.142108	-0.617258	-0.048778
H119	H	1.711209	-0.653226	-1.153611
H120	H	2.211209	-0.153226	-0.653611
N121	N	1.778245	-1.146875	-0.671628
N122	N	2.278245	-0.646875	-0.171628
N123	N	1.830457	-1.145852	-0.764687
N124	N	2.330457	-0.645852	-0.264687
H125	H	1.905867	-1.174063	-0.791159
H126	H	2.405867	-0.674063	-0.291159
N127	N	1.779223	-1.008647	-0.671715
N128	N	2.279223	-0.508647	-0.171715
N129	N	1.854235	-1.062997	-0.697478
N130	N	2.354235	-0.562997	-0.197478
H131	H	1.930145	-1.053997	-0.723649
H132	H	2.430145	-0.553997	-0.223649
H133	H	1.730362	-1.151768	-0.856421
H134	H	2.230362	-0.651768	-0.356421
N135	N	1.583683	-1.147839	-0.892173
N136	N	2.083683	-0.647839	-0.392173
N137	N	1.540526	-1.103272	-0.941475
N138	N	2.040526	-0.603272	-0.441475
H139	H	1.497141	-1.122194	-0.991246
H140	H	1.997141	-0.622194	-0.491246
H141	H	1.728918	-1.024626	-0.857083
H142	H	2.228918	-0.524626	-0.357083
N143	N	1.436617	-1.105964	-0.558362
N144	N	1.936617	-0.605964	-0.058362
N145	N	1.479533	-1.089984	-0.483785
N146	N	1.979533	-0.589984	0.016215
H147	H	1.446073	-1.099480	-0.409603
H148	H	1.946073	-0.599480	0.090397
N149	N	1.442429	-0.967866	-0.553972
N150	N	1.942429	-0.467866	-0.053972
N151	N	1.497588	-0.928019	-0.511181
N152	N	1.997588	-0.428019	-0.011181
H153	H	1.468059	-0.900609	-0.435615
H154	H	1.968059	-0.400609	0.064385
H155	H	1.430647	-1.112672	-0.715602
H156	H	1.930647	-0.612672	-0.215602
N157	N	1.412497	-0.978723	-0.720436
N158	N	1.912497	-0.478723	-0.220436
N159	N	1.445639	-0.945872	-0.797530
N160	N	1.945639	-0.445872	-0.297530
H161	H	1.394970	-0.926134	-0.839542
H162	H	1.894970	-0.426134	-0.339542
