data_functionalizedCrystal
_audit_creation_method	'MofGen! by Chris Wilmer'
_symmetry_space_group_name_H-M	'P1'
_symmetry_Int_Tables_number	1
_symmetry_cell_setting	triclinic
loop_
_symmetry_equiv_pos_as_xyz
  x,y,z
_cell_length_a	19.188930
_cell_length_b	19.188930
_cell_length_c	13.930277
_cell_angle_alpha	89.990320
_cell_angle_beta	89.978906
_cell_angle_gamma	83.144779
loop_
_atom_site_label
_atom_site_type_symbol
_atom_site_fract_x
_atom_site_fract_y
_atom_site_fract_z
O1	O	0.926148	0.087167	-0.080150
O2	O	1.426148	0.587167	0.419850
O3	O	0.722836	0.098901	-0.080086
O4	O	1.222836	0.598901	0.419914
O5	O	0.830359	-0.008621	-0.080101
O6	O	1.330359	0.491379	0.419899
O7	O	0.818625	0.194690	-0.080135
O8	O	1.318625	0.694690	0.419865
O9	O	0.830344	-0.008624	0.079561
O10	O	1.330344	0.491376	0.579561
O11	O	0.722821	0.098899	0.079576
O12	O	1.222821	0.598899	0.579576
O13	O	0.926133	0.087165	0.079512
O14	O	1.426133	0.587165	0.579512
Zn15	Zn	0.824475	0.093032	0.104894
Zn16	Zn	1.324475	0.593032	0.604894
Zn17	Zn	0.824494	0.093035	-0.105468
Zn18	Zn	1.324494	0.593035	0.394532
O19	O	0.818610	0.194688	0.079527
O20	O	1.318610	0.694688	0.579527
C21	C	0.696818	0.098520	-0.000246
C22	C	1.196818	0.598520	0.499754
C23	C	0.619313	0.097380	-0.000221
C24	C	1.119313	0.597380	0.499779
C25	C	0.574389	0.160470	-0.000247
C26	C	1.074389	0.660470	0.499753
C27	C	0.501566	0.159399	-0.000257
C28	C	1.001566	0.659399	0.499743
C29	C	0.473669	0.095233	-0.000261
C30	C	0.973669	0.595233	0.499739
C31	C	0.518603	0.032133	-0.000230
C32	C	1.018603	0.532133	0.499770
C33	C	0.591425	0.033207	-0.000210
C34	C	1.091425	0.533207	0.499790
N35	N	0.365694	0.046186	-0.054631
N36	N	0.865694	0.546186	0.445369
N37	N	0.296515	0.045171	-0.054652
N38	N	0.796515	0.545171	0.445348
C39	C	0.254260	0.091994	-0.000319
C40	C	0.754260	0.591994	0.499681
N41	N	0.283796	0.139882	0.054024
N42	N	0.783796	0.639882	0.554024
N43	N	0.352981	0.140900	0.054041
N44	N	0.852981	0.640900	0.554041
C45	C	0.394707	0.094062	-0.000282
C46	C	0.894707	0.594062	0.499718
C47	C	0.130372	0.153928	-0.000355
C48	C	0.630372	0.653928	0.499645
C49	C	0.057547	0.152853	-0.000359
C50	C	0.557547	0.652853	0.499641
C51	C	0.074586	0.025586	-0.000342
C52	C	0.574586	0.525586	0.499658
C53	C	0.147409	0.026662	-0.000328
C54	C	0.647409	0.526662	0.499672
C55	C	0.175298	0.090835	-0.000339
C56	C	0.675298	0.590835	0.499661
C57	C	0.829972	-0.034634	-0.000267
C58	C	1.329972	0.465366	0.499733
C59	C	0.828831	-0.112138	-0.000259
C60	C	1.328831	0.387862	0.499741
C61	C	0.891922	-0.157062	-0.000274
C62	C	1.391922	0.342938	0.499726
C63	C	0.890850	-0.229886	-0.000289
C64	C	1.390850	0.270114	0.499711
C65	C	0.826684	-0.257782	-0.000269
C66	C	1.326684	0.242218	0.499731
C67	C	0.763585	-0.212849	-0.000259
C68	C	1.263585	0.287151	0.499741
C69	C	0.764658	-0.140026	-0.000254
C70	C	1.264658	0.359974	0.499746
N71	N	0.777632	-0.365788	0.054082
N72	N	1.277632	0.134212	0.554082
N73	N	0.776616	-0.434967	0.054079
N74	N	1.276616	0.065033	0.554079
C75	C	0.823446	-0.477191	-0.000288
C76	C	1.323446	0.022809	0.499712
N77	N	0.871340	-0.447625	-0.054639
N78	N	1.371340	0.052375	0.445361
N79	N	0.872358	-0.378440	-0.054632
N80	N	1.372358	0.121560	0.445368
C81	C	0.825513	-0.336745	-0.000276
C82	C	1.325513	0.163255	0.499724
C83	C	0.885379	-0.601079	-0.000321
C84	C	1.385379	-0.101079	0.499679
C85	C	0.884305	-0.673904	-0.000342
C86	C	1.384305	-0.173904	0.499658
C87	C	0.757038	-0.656865	-0.000303
C88	C	1.257038	-0.156865	0.499697
C89	C	0.758114	-0.584042	-0.000291
C90	C	1.258114	-0.084042	0.499709
C91	C	0.822286	-0.556154	-0.000296
C92	C	1.322286	-0.056154	0.499704
C93	C	0.952151	0.087546	-0.000330
C94	C	1.452151	0.587546	0.499670
C95	C	1.029656	0.088687	-0.000362
C96	C	1.529656	0.588687	0.499638
C97	C	0.818997	0.220700	-0.000309
C98	C	1.318997	0.720700	0.499691
C99	C	0.820138	0.298204	-0.000324
C100	C	1.320138	0.798204	0.499676
N101	N	0.824467	0.093029	0.248460
N102	N	1.324467	0.593029	0.748460
N103	N	0.824508	0.093031	-0.249034
N104	N	1.324508	0.593031	0.250966
C105	C	0.776882	0.140627	0.700736
C106	C	1.276882	0.640627	1.200736
C107	C	0.872126	0.045437	0.700692
C108	C	1.372126	0.545437	1.200692
C109	C	0.872118	0.045434	0.600196
C110	C	1.372118	0.545434	1.100196
C111	C	0.824492	0.093030	0.549965
C112	C	1.324492	0.593030	1.049965
C113	C	0.776873	0.140628	0.600231
C114	C	1.276873	0.640628	1.100231
C115	C	0.919740	-0.002158	0.549923
C116	C	1.419740	0.497842	1.049923
C117	C	0.919735	-0.002161	0.449421
C118	C	1.419735	0.497839	0.949421
C119	C	0.872104	0.045432	0.399189
C120	C	1.372104	0.545432	0.899189
C121	C	0.824483	0.093031	0.449460
C122	C	1.324483	0.593031	0.949460
C123	C	0.776856	0.140626	0.399230
C124	C	1.276856	0.640626	0.899230
C125	C	0.729232	0.188223	0.449500
C126	C	1.229232	0.688223	0.949500
C127	C	0.729243	0.188221	0.549999
C128	C	1.229243	0.688221	1.049999
C129	C	0.872093	0.045434	0.298690
C130	C	1.372093	0.545434	0.798690
C131	C	0.776848	0.140627	0.298725
C132	C	1.276848	0.640627	0.798725
H133	H	0.051874	-0.026659	-0.000405
H134	H	0.551874	0.473341	0.499595
H135	H	0.183988	-0.024713	-0.000312
H136	H	0.683988	0.475287	0.499688
O137	O	0.488521	-0.037077	-0.000235
O138	O	0.988521	0.462923	0.499765
H139	H	0.430335	-0.027225	-0.000262
H140	H	0.930335	0.472775	0.499738
H141	H	0.020970	0.204232	-0.000374
H142	H	0.520970	0.704232	0.499626
O143	O	0.687830	-0.686947	-0.000275
O144	O	1.187830	-0.186947	0.499725
H145	H	0.657530	-0.668880	-0.065343
H146	H	1.157530	-0.168880	0.434657
H147	H	0.935683	-0.710481	-0.000360
H148	H	1.435683	-0.210481	0.499640
O149	O	0.971107	-0.053487	0.604103
O150	O	1.471107	0.446513	1.104103
H151	H	1.004225	-0.086577	0.552266
H152	H	1.504225	0.413423	1.052266
O153	O	0.677889	0.239560	0.604221
O154	O	1.177889	0.739560	1.104221
H155	H	0.623486	0.230799	0.584986
H156	H	1.123486	0.730799	1.084986
O157	O	0.453098	0.227449	-0.000280
O158	O	0.953098	0.727449	0.499720
H159	H	0.419536	0.229996	-0.065361
H160	H	0.919536	0.729996	0.434639
O161	O	0.725519	0.191966	0.754944
O162	O	1.225519	0.691966	1.254944
H163	H	0.733525	0.183976	0.833267
H164	H	1.233525	0.683976	1.333267
H165	H	0.628003	-0.018171	-0.000190
H166	H	1.128003	0.481829	0.499810
H167	H	0.910906	0.006689	0.741592
H168	H	1.410906	0.506689	1.241592
O169	O	0.160461	0.223137	-0.000347
O170	O	0.660461	0.723137	0.499653
H171	H	0.116984	0.266830	-0.000348
H172	H	0.616984	0.766830	0.499652
H173	H	0.937632	-0.578372	-0.000329
H174	H	1.437632	-0.078372	0.499671
O175	O	0.694375	-0.242930	-0.000227
O176	O	1.194375	0.257070	0.499773
H177	H	0.704227	-0.301116	-0.000220
H178	H	1.204227	0.198884	0.499780
H179	H	0.944176	-0.134360	-0.000281
H180	H	1.444176	0.365640	0.499719
O181	O	0.725471	0.191953	0.244544
O182	O	1.225471	0.691953	0.744544
H183	H	0.754745	0.225815	0.198720
H184	H	1.254745	0.725815	0.698720
H185	H	0.942228	-0.266470	-0.000305
H186	H	1.442228	0.233530	0.499695
O187	O	0.696608	-0.091565	-0.000221
O188	O	1.196608	0.408435	0.499779
H189	H	0.651807	-0.123194	-0.000203
H190	H	1.151807	0.376806	0.499797
O191	O	0.690066	-0.535581	-0.000251
O192	O	1.190066	-0.035581	0.499749
H193	H	0.645266	-0.567211	-0.000228
H194	H	1.145266	-0.067211	0.499772
O195	O	0.677852	0.239547	0.395321
O196	O	1.177852	0.739547	0.895321
H197	H	0.685846	0.231542	0.316994
H198	H	1.185846	0.731542	0.816994
O199	O	0.971090	-0.053501	0.395203
O200	O	1.471090	0.446499	0.895203
H201	H	1.004204	-0.086601	0.447016
H202	H	1.504204	0.413399	0.947016
O203	O	0.923441	-0.005900	0.244456
O204	O	1.423441	0.494100	0.744456
H205	H	0.977845	0.002853	0.263696
H206	H	1.477845	0.502853	0.763696
O207	O	0.604471	0.229682	-0.000231
O208	O	1.104471	0.729682	0.499769
H209	H	0.560993	0.273373	-0.000236
H210	H	1.060993	0.773373	0.499764
