data_functionalizedCrystal
_audit_creation_method	'MofGen! by Chris Wilmer'
_symmetry_space_group_name_H-M	'P1'
_symmetry_Int_Tables_number	1
_symmetry_cell_setting	triclinic
loop_
_symmetry_equiv_pos_as_xyz
  x,y,z
_cell_length_a	10.686220
_cell_length_b	16.625546
_cell_length_c	16.625525
_cell_angle_alpha	89.905447
_cell_angle_beta	94.314779
_cell_angle_gamma	94.404440
loop_
_atom_site_label
_atom_site_type_symbol
_atom_site_fract_x
_atom_site_fract_y
_atom_site_fract_z
Zn1	Zn	1.929461	-0.225888	-0.361433
Zn2	Zn	2.262795	0.107445	-0.028100
Zn3	Zn	2.596128	0.440779	0.305233
Zn4	Zn	1.929160	-0.360897	-0.226610
Zn5	Zn	2.262494	-0.027563	0.106723
Zn6	Zn	2.595827	0.305770	0.440057
Zn7	Zn	1.718311	-0.236420	-0.236951
Zn8	Zn	2.051644	0.096914	0.096382
Zn9	Zn	2.384977	0.430247	0.429715
Zn10	Zn	1.718414	-0.371030	-0.371718
Zn11	Zn	2.051747	-0.037697	-0.038385
Zn12	Zn	2.385081	0.295637	0.294948
O13	O	1.823837	-0.298559	-0.299178
O14	O	2.157170	0.034775	0.034155
O15	O	2.490503	0.368108	0.367488
O16	O	2.105987	-0.235149	-0.334917
O17	O	2.439320	0.098185	-0.001583
O18	O	2.772653	0.431518	0.331750
O19	O	1.901022	-0.344551	-0.115157
O20	O	2.234355	-0.011218	0.218176
O21	O	2.567688	0.322115	0.551509
O22	O	1.746403	-0.122186	-0.253488
O23	O	2.079737	0.211147	0.079846
O24	O	2.413070	0.544480	0.413179
O25	O	2.105766	-0.334339	-0.235862
O26	O	2.439099	-0.001006	0.097471
O27	O	2.772432	0.332328	0.430804
O28	O	1.901535	-0.114448	-0.344944
O29	O	2.234868	0.218885	-0.011611
O30	O	2.568201	0.552218	0.321723
O31	O	1.746111	-0.253099	-0.122755
O32	O	2.079445	0.080235	0.210578
O33	O	2.412778	0.413568	0.543912
O34	O	1.541759	-0.262925	-0.263461
O35	O	1.875092	0.070409	0.069873
O36	O	2.208426	0.403742	0.403206
O37	O	1.746579	-0.351610	-0.483178
O38	O	2.079912	-0.018276	-0.149845
O39	O	2.413246	0.315057	0.183488
O40	O	1.541835	-0.361822	-0.362473
O41	O	1.875168	-0.028489	-0.029140
O42	O	2.208502	0.304845	0.304193
O43	O	1.901635	-0.244974	-0.475622
O44	O	2.234968	0.088359	-0.142289
O45	O	2.568301	0.421692	0.191045
O46	O	1.901122	-0.475077	-0.245835
O47	O	2.234455	-0.141744	0.087498
O48	O	2.567788	0.191589	0.420831
O49	O	1.746287	-0.482522	-0.352446
O50	O	2.079620	-0.149189	-0.019112
O51	O	2.412954	0.184144	0.314221
C52	C	1.496016	-0.314616	-0.315206
C53	C	1.829349	0.018717	0.018128
C54	C	2.162682	0.352050	0.351461
C55	C	1.355772	-0.321505	-0.322081
C56	C	1.689106	0.011828	0.011252
C57	C	2.022439	0.345161	0.344585
C58	C	1.823717	-0.508055	-0.299150
C59	C	2.157051	-0.174722	0.034183
C60	C	2.490384	0.158611	0.367516
C61	C	1.823782	-0.597673	-0.299160
C62	C	2.157115	-0.264340	0.034174
C63	C	2.490448	0.068993	0.367507
C64	C	1.824002	-0.925838	-0.299233
C65	C	2.157335	-0.592505	0.034100
C66	C	2.490668	-0.259171	0.367434
C67	C	1.823936	-0.834533	-0.299215
C68	C	2.157270	-0.501199	0.034118
C69	C	2.490603	-0.167866	0.367452
C70	C	1.823891	-0.761759	-0.299196
C71	C	2.157224	-0.428425	0.034137
C72	C	2.490557	-0.095092	0.367471
C73	C	1.823827	-0.670447	-0.299179
C74	C	2.157161	-0.337114	0.034155
C75	C	2.490494	-0.003781	0.367488
C76	C	2.152938	-0.282439	-0.283089
C77	C	2.486271	0.050895	0.050245
C78	C	2.819604	0.384228	0.383578
C79	C	2.293181	-0.275569	-0.276232
C80	C	2.626514	0.057764	0.057101
C81	C	2.959848	0.391097	0.390434
C82	C	1.824152	-0.298247	-0.509472
C83	C	2.157485	0.035086	-0.176139
C84	C	2.490818	0.368419	0.157194
C85	C	1.824286	-0.298115	-0.599087
C86	C	2.157619	0.035218	-0.265754
C87	C	2.490953	0.368552	0.067580
C88	C	1.823991	-0.088242	-0.299222
C89	C	2.157324	0.245091	0.034111
C90	C	2.490658	0.578425	0.367444
C91	C	1.824057	0.001382	-0.299241
C92	C	2.157390	0.334716	0.034092
C93	C	2.490723	0.668049	0.367426
C94	C	1.823595	-0.298807	-0.089699
C95	C	2.156929	0.034527	0.243635
C96	C	2.490262	0.367860	0.576968
C97	C	1.823705	-0.298700	-0.000072
C98	C	2.157039	0.034633	0.333261
C99	C	2.490372	0.367967	0.666594
C100	C	1.823816	-0.298600	0.072715
C101	C	2.157149	0.034733	0.406049
C102	C	2.490483	0.368067	0.739382
C103	C	1.823951	-0.298467	0.164030
C104	C	2.157284	0.034866	0.497363
C105	C	2.490617	0.368200	0.830697
C106	C	1.824052	-0.298357	0.236811
C107	C	2.157385	0.034976	0.570145
C108	C	2.490719	0.368310	0.903478
C109	C	1.824185	-0.298225	0.328132
C110	C	2.157518	0.035108	0.661465
C111	C	2.490852	0.368442	0.994798
H112	H	1.346884	-0.230972	-0.231718
H113	H	1.680218	0.102361	0.101615
H114	H	2.013551	0.435694	0.434949
O115	O	1.291514	-0.374652	-0.375172
O116	O	1.624847	-0.041318	-0.041839
O117	O	1.958180	0.292015	0.291494
C118	C	1.161095	-0.369946	-0.370439
C119	C	1.494429	-0.036612	-0.037106
C120	C	1.827762	0.296721	0.296227
H121	H	1.143192	-0.308587	-0.345010
H122	H	1.476526	0.024747	-0.011677
H123	H	1.809859	0.358080	0.321657
H124	H	1.123604	-0.419588	-0.329232
H125	H	1.456937	-0.086255	0.004101
H126	H	1.790270	0.247078	0.337435
C127	C	1.115451	-0.455994	-0.486517
C128	C	1.448784	-0.122661	-0.153184
C129	C	1.782118	0.210673	0.180149
C130	C	1.093462	-0.380629	-0.455291
C131	C	1.426795	-0.047296	-0.121958
C132	C	1.760128	0.286038	0.211376
H133	H	1.073729	-0.462587	-0.538857
H134	H	1.407062	-0.129254	-0.205523
H135	H	1.740396	0.204079	0.127810
H136	H	1.203316	-0.459167	-0.489705
H137	H	1.536649	-0.125834	-0.156371
H138	H	1.869983	0.207499	0.176962
H139	H	1.084208	-0.497354	-0.452170
H140	H	1.417541	-0.164021	-0.118837
H141	H	1.750874	0.169312	0.214496
H142	H	1.124719	-0.339270	-0.489633
H143	H	1.458052	-0.005937	-0.156299
H144	H	1.791386	0.327397	0.177034
H145	H	1.005600	-0.377449	-0.452112
H146	H	1.338933	-0.044116	-0.118778
H147	H	1.672267	0.289218	0.214555
