data_functionalizedCrystal
_audit_creation_method	'MofGen! by Chris Wilmer'
_symmetry_space_group_name_H-M	'P1'
_symmetry_Int_Tables_number	1
_symmetry_cell_setting	triclinic
loop_
_symmetry_equiv_pos_as_xyz
  x,y,z
_cell_length_a	12.759401
_cell_length_b	12.759399
_cell_length_c	12.759393
_cell_angle_alpha	89.971029
_cell_angle_beta	89.980446
_cell_angle_gamma	90.015963
loop_
_atom_site_label
_atom_site_type_symbol
_atom_site_fract_x
_atom_site_fract_y
_atom_site_fract_z
Zn1	Zn	1.606258	-0.418211	-0.593992
Zn2	Zn	1.606146	-0.593927	-0.418317
Zn3	Zn	1.430557	-0.418263	-0.418332
Zn4	Zn	1.430546	-0.593849	-0.593959
O5	O	1.518377	-0.506062	-0.506150
O6	O	1.753264	-0.441531	-0.570697
O7	O	1.582812	-0.570678	-0.271298
O8	O	1.453916	-0.271235	-0.441654
O9	O	1.753182	-0.570628	-0.441629
O10	O	1.583003	-0.271197	-0.570711
O11	O	1.453807	-0.441619	-0.271309
O12	O	1.283534	-0.441544	-0.441621
O13	O	1.453896	-0.570496	-0.740984
O14	O	1.283526	-0.570546	-0.570653
O15	O	1.582992	-0.441456	-0.741009
O16	O	1.582800	-0.740937	-0.441596
O17	O	1.453788	-0.740880	-0.570639
C18	C	1.245409	-0.506043	-0.506136
C19	C	1.128633	-0.506060	-0.506155
C20	C	1.073794	-0.573339	-0.573231
C21	C	0.964070	-0.573352	-0.573242
C22	C	0.964033	-0.438805	-0.439092
C23	C	1.073755	-0.438787	-0.439087
C24	C	1.128671	-0.640612	-0.640298
C25	C	1.073832	-0.707898	-0.707379
C26	C	0.964108	-0.707911	-0.707390
C27	C	0.909223	-0.640639	-0.640321
C28	C	1.518309	-0.779030	-0.506135
C29	C	1.518376	-0.895806	-0.506164
C30	C	1.451254	-0.950771	-0.438930
C31	C	1.451326	-1.060495	-0.438947
C32	C	1.585644	-1.060280	-0.573441
C33	C	1.585577	-0.950558	-0.573418
C34	C	1.384054	-0.896020	-0.371677
C35	C	1.316926	-0.950985	-0.304438
C36	C	1.316997	-1.060709	-0.304455
C37	C	1.384196	-1.115468	-0.371710
C38	C	1.792410	-0.506082	-0.506165
C39	C	1.909187	-0.506091	-0.506171
C40	C	1.518455	-0.505961	-0.780184
C41	C	1.518489	-0.505918	-0.896960
C42	C	1.518473	-0.232029	-0.506188
C43	C	1.518514	-0.115252	-0.506204
C44	C	1.585714	-0.438716	-0.951837
C45	C	1.585732	-0.438671	-1.061561
C46	C	1.451296	-0.573039	-1.061522
C47	C	1.451274	-0.573078	-0.951800
C48	C	1.518359	-0.506087	-0.233183
C49	C	1.518529	-0.505834	-0.116407
H50	H	0.919337	-0.384036	-0.384487
H51	H	1.640471	-0.383947	-1.106237
H52	H	1.118406	-0.383994	-0.384476
H53	H	1.396575	-0.627720	-1.106186
H54	H	1.262345	-1.105458	-0.249699
H55	H	1.640353	-1.104873	-0.628198
H56	H	1.396524	-0.627801	-0.907118
H57	H	1.383987	-0.806677	-0.371657
H58	H	0.819878	-0.640646	-0.640345
H59	H	1.118527	-0.762662	-0.761990
H60	H	1.218014	-0.640611	-0.640294
H61	H	0.919461	-0.762691	-0.762018
H62	H	1.262220	-0.906394	-0.249675
H63	H	1.640235	-0.905805	-0.628165
H64	H	1.384256	-1.204812	-0.371712
H65	H	1.640441	-0.384028	-0.907189
