data_functionalizedCrystal
_audit_creation_method	'MofGen! by Chris Wilmer'
_symmetry_space_group_name_H-M	'P1'
_symmetry_Int_Tables_number	1
_symmetry_cell_setting	triclinic
loop_
_symmetry_equiv_pos_as_xyz
  x,y,z
_cell_length_a	10.723022
_cell_length_b	10.723024
_cell_length_c	9.198806
_cell_angle_alpha	89.997736
_cell_angle_beta	89.996604
_cell_angle_gamma	84.467548
loop_
_atom_site_label
_atom_site_type_symbol
_atom_site_fract_x
_atom_site_fract_y
_atom_site_fract_z
O1	O	1.657188	0.175016	-0.120879
O2	O	1.294036	0.191771	-0.120884
O3	O	1.483989	0.001817	-0.120876
O4	O	1.467235	0.364970	-0.120887
O5	O	1.483975	0.001816	0.120909
O6	O	1.294022	0.191769	0.120901
O7	O	1.657174	0.175014	0.120906
Cu8	Cu	1.475597	0.183392	0.142981
Cu9	Cu	1.475613	0.183393	-0.142958
O10	O	1.467221	0.364968	0.120898
C11	C	1.247529	0.190551	0.000008
C12	C	1.108975	0.186904	0.000007
C13	C	1.482763	-0.044683	0.000015
C14	C	1.479115	-0.183238	0.000010
C15	C	1.060414	0.077365	0.000009
C16	C	0.917211	0.073593	0.000007
C17	C	1.585403	-0.258221	0.000009
C18	C	1.581635	-0.401424	0.000004
C19	C	1.703681	0.176234	0.000011
C20	C	1.842235	0.179881	0.000003
C21	C	1.468448	0.411468	0.000004
C22	C	1.472095	0.550023	-0.000000
N23	N	1.475594	0.183390	0.344095
N24	N	1.475626	0.183386	-0.344072
C25	C	1.555547	0.103460	0.583699
C26	C	1.555530	0.103462	0.416286
H27	H	1.124856	-0.013624	0.000005
O28	O	1.697373	-0.208491	0.000200
C29	C	1.765646	-0.248655	0.125439
H30	H	1.730987	-0.339279	0.167191
H31	H	1.869422	-0.265697	0.097271
H32	H	1.751738	-0.173467	0.213123
H33	H	1.044532	0.277893	-0.000003
O34	O	1.394008	0.265201	0.418014
C35	C	1.415367	0.388944	0.380949
H36	H	1.463370	0.389309	0.270392
H37	H	1.322103	0.449573	0.375910
H38	H	1.477899	0.428012	0.466571
O39	O	1.363498	-0.373178	0.000256
C40	C	1.293514	-0.396470	0.125454
H41	H	1.358959	-0.440474	0.212980
H42	H	1.244365	-0.304501	0.167488
H43	H	1.220627	-0.463265	0.097136
O44	O	0.867282	-0.038270	-0.000249
C45	C	0.792771	-0.046936	-0.125453
H46	H	0.824205	0.018491	-0.212977
H47	H	0.803465	-0.147410	-0.167486
H48	H	0.690393	-0.018899	-0.097142
H49	H	0.884039	0.273673	0.000009
O50	O	1.367299	-0.233264	-0.000190
C51	C	1.358614	-0.307722	-0.125436
H52	H	1.456726	-0.339168	-0.167184
H53	H	1.308260	-0.393463	-0.097279
H54	H	1.303833	-0.250747	-0.213119
O55	O	1.393808	0.264972	0.582014
C56	C	1.270070	0.243605	0.619093
H57	H	1.269717	0.195593	0.729645
H58	H	1.209438	0.336867	0.624153
H59	H	1.230997	0.181079	0.533469
H60	H	1.672625	-0.465857	0.000010
O61	O	1.637131	0.021645	0.657618
C62	C	1.615750	-0.102093	0.620570
H63	H	1.567738	-0.102450	0.510025
H64	H	1.709007	-0.162735	0.615514
H65	H	1.553220	-0.141151	0.706212
H66	H	1.623949	0.035030	0.354173
