data_functionalizedCrystal
_audit_creation_method	'MofGen! by Chris Wilmer'
_symmetry_space_group_name_H-M	'P1'
_symmetry_Int_Tables_number	1
_symmetry_cell_setting	triclinic
loop_
_symmetry_equiv_pos_as_xyz
  x,y,z
_cell_length_a	15.995343
_cell_length_b	15.995292
_cell_length_c	16.176319
_cell_angle_alpha	89.996390
_cell_angle_beta	89.996905
_cell_angle_gamma	83.478900
loop_
_atom_site_label
_atom_site_type_symbol
_atom_site_fract_x
_atom_site_fract_y
_atom_site_fract_z
O1	O	1.110970	0.107901	-0.068658
O2	O	0.867191	0.121235	-0.068677
O3	O	0.995770	-0.007323	-0.068668
O4	O	0.982392	0.236459	-0.068666
O5	O	0.995752	-0.007331	0.068825
O6	O	0.867174	0.121227	0.068816
O7	O	1.110953	0.107892	0.068836
Cu8	Cu	0.989062	0.114559	0.081380
Cu9	Cu	0.989083	0.114569	-0.081221
O10	O	0.982374	0.236451	0.068827
C11	C	0.835988	0.120681	0.000067
C12	C	0.743037	0.119032	0.000060
C13	C	0.572852	0.116038	0.000071
C14	C	0.549525	0.023238	0.000070
C15	C	0.452848	0.021493	0.000387
C16	C	0.405292	0.113089	0.000081
C17	C	0.434364	0.159746	0.078440
C18	C	0.531156	0.160846	0.078501
C19	C	0.531087	0.162215	-0.077860
C20	C	0.434593	0.158789	-0.078885
C21	C	0.310595	0.111428	0.000089
C22	C	0.667549	0.117702	0.000068
C23	C	0.995217	-0.038523	0.000077
C24	C	0.993584	-0.131476	0.000070
C25	C	0.987583	-0.469214	0.000077
C26	C	1.080388	-0.445904	0.000392
C27	C	1.082152	-0.349229	0.000079
C28	C	0.990561	-0.301658	0.000074
C29	C	0.944173	-0.330753	-0.078442
C30	C	0.943056	-0.427544	-0.078505
C31	C	0.941141	-0.427410	0.077850
C32	C	0.944580	-0.330918	0.078885
C33	C	0.992239	-0.206962	0.000070
C34	C	0.985902	-0.563910	0.000076
C35	C	1.142156	0.108447	0.000090
C36	C	1.235107	0.110096	0.000092
C37	C	0.982927	0.267650	0.000080
C38	C	0.984560	0.360603	0.000081
N39	N	0.989053	0.114552	0.195745
N40	N	0.989098	0.114569	-0.195587
C41	C	1.046005	0.057649	0.239014
C42	C	1.046009	0.057648	0.325561
C43	C	0.989065	0.114554	0.368838
C44	C	0.932107	0.171460	0.325564
C45	C	0.932099	0.171456	0.239018
C46	C	0.932136	0.171475	0.674592
C47	C	0.932149	0.171476	0.761144
C48	C	1.046045	0.057668	0.761134
C49	C	1.046038	0.057664	0.674589
C50	C	0.989077	0.114566	0.631322
C51	C	0.989072	0.114565	0.537478
C52	C	0.989073	0.114560	0.462681
H53	H	0.577548	-0.012728	-0.056114
H54	H	0.885775	0.217818	0.796379
C55	C	1.108675	-0.004934	0.626983
C56	C	1.171320	-0.067533	0.674575
C57	C	1.233956	-0.130135	0.626970
C58	C	1.233947	-0.130138	0.531774
C59	C	1.171300	-0.067538	0.484176
C60	C	1.108664	-0.004936	0.531781
H61	H	1.171329	-0.067532	0.745050
H62	H	1.280331	-0.176476	0.662205
H63	H	1.280314	-0.176480	0.496534
H64	H	1.171291	-0.067538	0.413701
H65	H	1.062289	0.041405	0.496546
C66	C	0.569287	0.122665	-0.158126
C67	C	0.537870	0.157843	-0.242582
C68	C	0.576072	0.118283	-0.322843
C69	C	0.645691	0.043545	-0.318646
C70	C	0.677111	0.008363	-0.234186
C71	C	0.638909	0.047923	-0.153926
H72	H	0.486331	0.213172	-0.245692
H73	H	0.552812	0.144328	-0.385365
H74	H	0.673970	0.014261	-0.378059
H75	H	0.728650	-0.046966	-0.231077
H76	H	0.662169	0.021879	-0.091403
C77	C	1.108698	-0.004934	0.808729
C78	C	1.076011	-0.068996	0.868233
C79	C	1.138664	-0.131593	0.915825
C80	C	1.234004	-0.130130	0.903912
C81	C	1.266696	-0.066066	0.844404
C82	C	1.204043	-0.003468	0.796813
H83	H	1.005430	-0.070081	0.877055
H84	H	1.114462	-0.179018	0.959876
H85	H	1.280383	-0.176468	0.939142
H86	H	1.337277	-0.064980	0.835583
H87	H	1.228244	0.043957	0.752762
C88	C	0.987710	-0.303660	-0.157379
C89	C	1.080737	-0.335520	-0.173716
C90	C	1.124279	-0.308430	-0.252650
C91	C	1.074794	-0.249480	-0.315247
C92	C	0.981763	-0.217617	-0.298912
C93	C	0.938220	-0.244707	-0.219978
H94	H	1.117373	-0.379161	-0.127376
H95	H	1.193147	-0.332017	-0.264742
H96	H	1.107027	-0.229426	-0.373679
H97	H	0.945127	-0.173976	-0.345252
H98	H	0.869352	-0.221120	-0.207886
H99	H	0.885722	0.217790	0.203790
C100	C	0.854261	-0.286384	0.085284
C101	C	0.778989	-0.338463	0.085537
C102	C	0.688666	-0.293931	0.091926
C103	C	0.673616	-0.197319	0.098062
C104	C	0.748891	-0.145234	0.097810
C105	C	0.839213	-0.189767	0.091421
H106	H	0.790128	-0.409986	0.080994
H107	H	0.632943	-0.332488	0.092113
H108	H	0.606754	-0.164353	0.102792
H109	H	0.737752	-0.073711	0.102353
H110	H	0.894937	-0.151210	0.091234
H111	H	0.872829	-0.441399	0.078376
H112	H	0.433843	-0.015030	-0.055773
C113	C	0.869489	0.234070	0.627002
C114	C	0.806878	0.296693	0.674601
C115	C	0.744230	0.359292	0.627004
C116	C	0.744194	0.359267	0.531808
C117	C	0.806809	0.296641	0.484203
C118	C	0.869456	0.234043	0.531800
H119	H	0.806902	0.296714	0.745076
H120	H	0.697879	0.405651	0.662245
H121	H	0.697819	0.405606	0.496573
H122	H	0.806784	0.296621	0.413728
H123	H	0.915807	0.187683	0.496559
C124	C	0.588679	-0.024571	0.075868
C125	C	0.565124	0.007135	0.163633
C126	C	0.604280	-0.040670	0.239432
C127	C	0.666990	-0.120182	0.227466
C128	C	0.690548	-0.151893	0.139697
C129	C	0.651392	-0.104087	0.063898
H130	H	0.518699	0.065999	0.172495
H131	H	0.586840	-0.017196	0.304405
H132	H	0.695975	-0.155571	0.283577
H133	H	0.736973	-0.210756	0.130835
H134	H	0.668831	-0.127562	-0.001074
C135	C	0.409539	0.112902	-0.157208
C136	C	0.350565	0.159908	-0.221373
C137	C	0.325506	0.114021	-0.299696
C138	C	0.359421	0.021129	-0.313854
C139	C	0.418398	-0.025882	-0.249688
C140	C	0.443457	0.020005	-0.171365
H141	H	0.325456	0.228676	-0.210894
H142	H	0.281846	0.148822	-0.347196
H143	H	0.340870	-0.012839	-0.371834
H144	H	0.443507	-0.094650	-0.260167
H145	H	0.487117	-0.014796	-0.123864
C146	C	0.427932	-0.027622	0.076714
C147	C	0.496046	-0.065370	0.137572
C148	C	0.471131	-0.114486	0.213903
C149	C	0.378102	-0.125854	0.229377
C150	C	0.309981	-0.088104	0.168517
C151	C	0.334896	-0.038988	0.092186
H152	H	0.564918	-0.056956	0.126119
H153	H	0.521559	-0.142431	0.258955
H154	H	0.359658	-0.162212	0.285882
H155	H	0.241110	-0.096518	0.179970
H156	H	0.284468	-0.011043	0.047134
C157	C	0.567348	0.117691	0.157927
C158	C	0.538789	0.153279	0.243087
C159	C	0.574976	0.110120	0.322514
C160	C	0.639722	0.031374	0.316780
C161	C	0.668285	-0.004218	0.231617
C162	C	0.632098	0.038941	0.152190
H163	H	0.490856	0.211576	0.247334
H164	H	0.553831	0.136468	0.385557
H165	H	0.666510	-0.000575	0.375577
H166	H	0.716218	-0.062515	0.227370
H167	H	0.653243	0.012593	0.089147
C168	C	0.550833	0.252777	0.083024
C169	C	0.478500	0.324955	0.086572
C170	C	0.498173	0.416882	0.091102
C171	C	0.590177	0.436632	0.092084
C172	C	0.662516	0.364452	0.088536
C173	C	0.642844	0.272524	0.084006
H174	H	0.410388	0.310337	0.085845
H175	H	0.444623	0.470315	0.093729
H176	H	0.604740	0.504682	0.095438
H177	H	0.730629	0.379070	0.089263
H178	H	0.696394	0.219092	0.081379
H179	H	0.401622	0.225624	-0.083859
H180	H	0.402504	0.227158	0.081135
H181	H	0.885738	0.217791	0.360805
H182	H	0.414272	0.127727	0.136976
H183	H	1.092379	0.011313	0.203783
C184	C	1.128460	-0.485096	-0.075241
C185	C	1.221170	-0.471269	-0.088915
C186	C	1.269240	-0.510464	-0.164548
C187	C	1.224600	-0.563484	-0.226507
C188	C	1.131884	-0.577313	-0.212836
C189	C	1.083814	-0.538119	-0.137203
H190	H	1.254221	-0.432018	-0.043047
H191	H	1.337875	-0.500226	-0.174668
H192	H	1.260184	-0.592498	-0.282496
H193	H	1.098834	-0.616565	-0.258704
H194	H	1.015180	-0.548357	-0.127082
H195	H	1.092383	0.011314	0.360789
H196	H	0.975197	-0.454358	-0.137194
C197	C	0.550006	0.254489	-0.078889
C198	C	0.477217	0.326268	-0.076698
C199	C	0.496143	0.418538	-0.077718
C200	C	0.587857	0.439027	-0.080929
C201	C	0.660651	0.367246	-0.083120
C202	C	0.641726	0.274976	-0.082100
H203	H	0.409319	0.311102	-0.074321
H204	H	0.442255	0.471675	-0.076097
H205	H	0.601867	0.507331	-0.081685
H206	H	0.728549	0.382412	-0.085497
H207	H	0.695614	0.221839	-0.083721
C208	C	1.131241	-0.323531	0.076107
C209	C	1.100861	-0.342634	0.163713
C210	C	1.149959	-0.316945	0.239741
C211	C	1.229437	-0.272153	0.228163
C212	C	1.259821	-0.253048	0.140553
C213	C	1.210723	-0.278737	0.064525
H214	H	1.042022	-0.375794	0.172287
H215	H	1.127466	-0.331088	0.304595
H216	H	1.265783	-0.253137	0.284443
H217	H	1.318660	-0.219889	0.131979
H218	H	1.233216	-0.264594	-0.000329
H219	H	1.116152	-0.473906	0.056699
H220	H	1.118711	-0.330822	-0.056298
C221	C	0.853122	-0.287701	-0.082395
C222	C	0.778980	-0.341268	-0.082073
C223	C	0.687928	-0.298216	-0.086020
C224	C	0.671019	-0.201597	-0.090290
C225	C	0.745163	-0.148024	-0.090613
C226	C	0.836215	-0.191076	-0.086665
H227	H	0.791495	-0.412796	-0.078912
H228	H	0.633042	-0.337874	-0.085782
H229	H	0.603617	-0.169727	-0.093213
H230	H	0.732648	-0.076496	-0.093774
H231	H	0.891101	-0.151418	-0.086904
C232	C	0.980403	-0.465584	0.158250
C233	C	1.055144	-0.535216	0.154308
C234	C	1.094417	-0.573391	0.234702
C235	C	1.058949	-0.541935	0.319039
C236	C	0.984203	-0.472299	0.322984
C237	C	0.944931	-0.434123	0.242590
H238	H	1.081404	-0.558506	0.091874
H239	H	1.149749	-0.624941	0.231781
H240	H	1.088021	-0.570194	0.378552
H241	H	0.957944	-0.449009	0.385418
H242	H	0.889599	-0.382574	0.245511
H243	H	0.875011	-0.442092	-0.082066
H244	H	0.978357	-0.312357	0.136971
