data_functionalizedCrystal
_audit_creation_method	'MofGen! by Chris Wilmer'
_symmetry_space_group_name_H-M	'P1'
_symmetry_Int_Tables_number	1
_symmetry_cell_setting	triclinic
loop_
_symmetry_equiv_pos_as_xyz
  x,y,z
_cell_length_a	21.395362
_cell_length_b	13.032721
_cell_length_c	21.395355
_cell_angle_alpha	82.834036
_cell_angle_beta	90.043940
_cell_angle_gamma	97.222741
loop_
_atom_site_label
_atom_site_type_symbol
_atom_site_fract_x
_atom_site_fract_y
_atom_site_fract_z
Zn1	Zn	0.926247	-0.415745	0.386233
Zn2	Zn	1.426247	0.084255	0.886233
Zn3	Zn	0.912862	-0.590486	0.294757
Zn4	Zn	1.412862	-0.090486	0.794757
Zn5	Zn	0.821458	-0.415794	0.281438
Zn6	Zn	1.321458	0.084206	0.781438
Zn7	Zn	0.808142	-0.590507	0.399463
Zn8	Zn	1.308142	-0.090507	0.899463
O9	O	0.867177	-0.503133	0.340473
O10	O	1.367177	-0.003133	0.840473
O11	O	1.012151	-0.438895	0.374135
O12	O	1.512151	0.061105	0.874135
O13	O	0.900708	-0.567324	0.205313
O14	O	1.400708	-0.067324	0.705313
O15	O	0.846533	-0.269539	0.284228
O16	O	1.346533	0.230461	0.784228
O17	O	1.002318	-0.567277	0.306928
O18	O	1.502318	-0.067277	0.806928
O19	O	0.923520	-0.269504	0.361220
O20	O	1.423520	0.230496	0.861220
O21	O	0.833554	-0.438978	0.195527
O22	O	1.333554	0.061022	0.695527
O23	O	0.732011	-0.438999	0.297057
O24	O	1.232011	0.061001	0.797057
O25	O	0.823837	-0.567313	0.485385
O26	O	1.323837	-0.067313	0.985385
O27	O	0.722228	-0.567361	0.383770
O28	O	1.222228	-0.067361	0.883770
O29	O	0.910608	-0.438916	0.475665
O30	O	1.410608	0.061084	0.975665
O31	O	0.887796	-0.736737	0.319757
O32	O	1.387796	-0.236737	0.819757
O33	O	0.810859	-0.736753	0.396685
O34	O	1.310859	-0.236753	0.896685
C35	C	0.704385	-0.503188	0.340404
C36	C	1.204385	-0.003188	0.840404
C37	C	0.634740	-0.503237	0.340392
C38	C	1.134740	-0.003237	0.840392
C39	C	0.596943	-0.570163	0.385490
C40	C	1.096943	-0.070163	0.885490
C41	C	0.531509	-0.570138	0.385516
C42	C	1.031509	-0.070138	0.885516
C43	C	0.503875	-0.503197	0.340433
C44	C	1.003875	-0.003197	0.840433
C45	C	0.541681	-0.436257	0.295331
C46	C	1.041681	0.063743	0.795331
C47	C	0.607114	-0.436278	0.295311
C48	C	1.107114	0.063722	0.795311
C49	C	0.400790	-0.494778	0.283387
C50	C	0.900790	0.005222	0.783387
C51	C	0.335358	-0.494765	0.283407
C52	C	0.835358	0.005235	0.783407
C53	C	0.302059	-0.503129	0.340497
C54	C	0.802059	-0.003129	0.840497
C55	C	0.334199	-0.511527	0.397570
C56	C	0.834199	-0.011527	0.897570
C57	C	0.399631	-0.511547	0.397549
C58	C	0.899631	-0.011547	0.897549
C59	C	0.432925	-0.503167	0.340451
C60	C	0.932925	-0.003167	0.840451
C61	C	0.193311	-0.570031	0.385627
C62	C	0.693311	-0.070031	0.885627
C63	C	0.127877	-0.569998	0.385654
C64	C	0.627877	-0.069998	0.885654
C65	C	0.138050	-0.436123	0.295464
C66	C	0.638050	0.063877	0.795464
C67	C	0.203483	-0.436150	0.295443
C68	C	0.703483	0.063850	0.795443
C69	C	0.231110	-0.503110	0.340524
C70	C	0.731110	-0.003110	0.840524
C71	C	0.846447	-0.774665	0.361116
C72	C	1.346447	-0.274665	0.861116
C73	C	0.837636	-0.890828	0.369968
C74	C	1.337636	-0.390828	0.869968
C75	C	0.871809	-0.942574	0.335881
C76	C	1.371809	-0.442574	0.835881
C77	C	0.862703	-1.062634	0.345029
C78	C	1.362703	-0.562634	0.845029
C79	C	1.030605	-0.503078	0.340542
C80	C	1.530605	-0.003078	0.840542
C81	C	1.100248	-0.503055	0.340571
C82	C	1.600248	-0.003055	0.840571
C83	C	0.867231	-0.503112	0.503894
C84	C	1.367231	-0.003112	1.003894
C85	C	0.867254	-0.503103	0.573535
C86	C	1.367254	-0.003103	1.073535
C87	C	0.888005	-0.230541	0.319763
C88	C	1.388005	0.269459	0.819763
C89	C	0.896880	-0.114378	0.310937
C90	C	1.396880	0.385622	0.810937
C91	C	0.867165	-0.503079	0.177681
C92	C	1.367165	-0.003079	0.677681
C93	C	0.867286	-0.502793	0.108018
C94	C	1.367286	-0.002793	0.608018
C95	C	0.912434	-0.436244	0.601188
C96	C	1.412434	0.063756	1.101188
C97	C	0.912436	-0.436199	0.666620
C98	C	1.412436	0.063801	1.166620
C99	C	0.867264	-0.503032	0.704398
C100	C	1.367264	-0.003032	1.204398
C101	C	0.822076	-0.569895	0.676738
C102	C	1.322076	-0.069895	1.176738
C103	C	0.822070	-0.569931	0.611306
C104	C	1.322070	-0.069931	1.111306
C105	C	0.855132	-0.597135	0.815225
C106	C	1.355132	-0.097135	1.315225
C107	C	0.855142	-0.597102	0.880656
C108	C	1.355142	-0.097102	1.380656
C109	C	0.867276	-0.502921	0.906210
C110	C	1.367276	-0.002921	1.406210
C111	C	0.879414	-0.408772	0.866327
C112	C	1.379414	0.091228	1.366327
C113	C	0.879409	-0.408807	0.800895
C114	C	1.379409	0.091193	1.300895
C115	C	0.867264	-0.503000	0.775348
C116	C	1.367264	-0.003000	1.275348
C117	C	0.912462	-0.436008	1.004811
C118	C	1.412462	0.063992	1.504811
C119	C	0.912460	-0.435961	1.070245
C120	C	1.412460	0.064039	1.570245
C121	C	0.822102	-0.569667	1.080362
C122	C	1.322102	-0.069667	1.580362
C123	C	0.822101	-0.569704	1.014930
C124	C	1.322101	-0.069704	1.514930
C125	C	0.867284	-0.502876	0.977158
C126	C	1.367284	-0.002876	1.477158
H127	H	0.619432	-0.624686	0.422199
H128	H	1.119432	-0.124686	0.922199
Br129	Br	0.291747	-0.483369	0.205953
Br130	Br	0.791747	0.016631	0.705953
Br131	Br	0.895889	-0.280946	0.900999
Br132	Br	1.395889	0.219054	1.400999
H133	H	0.427897	-0.487962	0.236894
H134	H	0.927897	0.012038	0.736894
H135	H	0.519178	-0.381752	0.258626
H136	H	1.019178	0.118248	0.758626
H137	H	0.949249	-0.381586	0.974056
H138	H	1.449249	0.118414	1.474056
H139	H	0.949251	-0.381510	1.092757
H140	H	1.449251	0.118490	1.592757
Br141	Br	0.838677	-0.724874	0.934777
Br142	Br	1.338677	-0.224874	1.434777
H143	H	0.801641	-0.935409	0.405926
H144	H	1.301641	-0.435409	0.905926
H145	H	0.097103	-0.624495	0.422382
H146	H	0.597103	-0.124495	0.922382
H147	H	0.889291	-0.332148	0.768424
H148	H	1.389291	0.167852	1.268424
Br149	Br	0.973743	-0.345429	0.704156
Br150	Br	1.473743	0.154571	1.204156
H151	H	0.932883	-1.069801	0.274981
H152	H	1.432883	-0.569801	0.774981
Br153	Br	0.802705	-1.136925	0.404969
Br154	Br	1.302705	-0.636925	0.904969
Br155	Br	0.760788	-0.660358	1.131625
Br156	Br	1.260788	-0.160358	1.631625
Br157	Br	0.973751	-0.345545	0.549929
Br158	Br	1.473751	0.154455	1.049929
Br159	Br	0.254784	-0.345317	0.234234
Br160	Br	0.754784	0.154683	0.734234
Br161	Br	0.480202	-0.660971	0.446726
Br162	Br	0.980202	-0.160971	0.946726
H163	H	0.785314	-0.624155	0.992416
H164	H	1.285314	-0.124155	1.492416
Br165	Br	0.100555	-0.345263	0.234284
Br166	Br	0.600555	0.154737	0.734284
Br167	Br	0.838681	-0.724966	0.780551
Br168	Br	1.338681	-0.224966	1.280551
H169	H	0.785294	-0.624308	0.707501
H170	H	1.285294	-0.124308	1.207501
H171	H	0.785276	-0.624375	0.588793
H172	H	1.285276	-0.124375	1.088793
Br173	Br	0.443248	-0.522941	0.475001
Br174	Br	0.943248	-0.022941	0.975001
H175	H	0.637889	-0.381775	0.258586
H176	H	1.137889	0.118225	0.758586
H177	H	0.215806	-0.624548	0.422338
H178	H	0.715806	-0.124548	0.922338
Br179	Br	0.931816	-0.868279	0.275955
Br180	Br	1.431816	-0.368279	0.775955
Br181	Br	0.289016	-0.522876	0.475055
Br182	Br	0.789016	-0.022876	0.975055
