data_functionalizedCrystal
_audit_creation_method	'MofGen! by Chris Wilmer'
_symmetry_space_group_name_H-M	'P1'
_symmetry_Int_Tables_number	1
_symmetry_cell_setting	triclinic
loop_
_symmetry_equiv_pos_as_xyz
  x,y,z
_cell_length_a	17.077404
_cell_length_b	18.050590
_cell_length_c	17.077396
_cell_angle_alpha	89.969391
_cell_angle_beta	89.983895
_cell_angle_gamma	90.016523
loop_
_atom_site_label
_atom_site_type_symbol
_atom_site_fract_x
_atom_site_fract_y
_atom_site_fract_z
Zn1	Zn	1.200061	-0.295694	-0.443812
Zn2	Zn	1.199983	-0.419893	-0.312543
Zn3	Zn	1.068798	-0.295717	-0.312562
Zn4	Zn	1.068770	-0.419842	-0.443769
O5	O	1.134403	-0.357786	-0.378171
O6	O	1.309897	-0.312180	-0.426408
O7	O	1.182560	-0.403451	-0.202698
O8	O	1.086254	-0.191789	-0.329999
O9	O	1.309840	-0.403429	-0.329966
O10	O	1.182692	-0.191772	-0.426427
O11	O	1.086179	-0.312220	-0.202713
O12	O	0.958947	-0.312170	-0.329957
O13	O	1.086208	-0.403342	-0.553622
O14	O	0.958927	-0.403365	-0.426354
O15	O	1.182666	-0.312131	-0.553653
O16	O	1.182533	-0.523810	-0.329924
O17	O	1.086132	-0.523773	-0.426336
C18	C	0.930455	-0.357765	-0.378154
C19	C	0.843205	-0.357774	-0.378165
C20	C	0.802246	-0.310345	-0.428459
C21	C	0.720265	-0.310350	-0.428463
C22	C	0.679246	-0.357788	-0.378176
C23	C	0.720211	-0.405219	-0.327876
C24	C	0.802190	-0.405209	-0.327869
C25	C	0.549341	-0.405235	-0.327895
C26	C	0.467357	-0.405246	-0.327903
C27	C	0.467416	-0.310376	-0.428489
C28	C	0.549395	-0.310367	-0.428482
C29	C	0.590355	-0.357799	-0.378183
C30	C	1.134343	-0.550738	-0.378140
C31	C	1.134389	-0.633284	-0.378153
C32	C	1.186921	-0.832728	-0.325798
C33	C	1.206093	-0.882059	-0.397440
C34	C	1.134433	-0.784414	-0.378184
C35	C	1.115341	-0.882165	-0.306574
C36	C	1.134478	-0.930399	-0.378208
C37	C	1.153642	-0.832658	-0.449864
C38	C	1.062857	-0.832760	-0.358950
C39	C	1.082002	-0.882069	-0.430642
C40	C	1.134410	-0.700316	-0.378170
C41	C	1.134501	-1.014496	-0.378231
C42	C	1.339147	-0.357808	-0.378190
C43	C	1.426397	-0.357817	-0.378197
C44	C	1.134442	-0.357729	-0.582916
C45	C	1.134459	-0.357704	-0.670166
C46	C	1.134485	-0.164081	-0.378220
C47	C	1.134520	-0.081535	-0.378241
C48	C	1.084289	-0.310194	-0.711163
C49	C	1.084302	-0.310177	-0.793143
C50	C	1.134489	-0.357667	-0.834125
C51	C	1.184662	-0.405182	-0.793122
C52	C	1.184645	-0.405202	-0.711143
C53	C	1.184696	-0.405136	-0.963993
C54	C	1.184715	-0.405115	-1.045977
C55	C	1.084353	-0.310111	-1.045992
C56	C	1.084336	-0.310131	-0.964013
C57	C	1.134509	-0.357645	-0.923016
C58	C	1.134409	-0.357790	-0.174224
C59	C	1.134544	-0.357605	-0.086974
H60	H	0.433961	-0.443874	-0.286955
H61	H	1.002325	-0.811088	-0.342645
H62	H	1.043445	-0.271493	-0.826519
Br63	Br	0.664680	-0.245980	-0.496723
H64	H	1.043472	-0.271457	-0.930648
Br65	Br	1.016264	-0.245623	-1.101630
H66	H	0.835638	-0.271718	-0.469411
H67	H	0.582688	-0.443858	-0.286934
Br68	Br	1.252835	-0.469559	-1.101596
Br69	Br	1.016179	-0.245734	-0.655552
Br70	Br	0.664543	-0.469593	-0.259621
Br71	Br	1.180716	-0.796573	-0.550846
H72	H	1.225560	-0.443821	-0.930615
H73	H	1.225522	-0.443853	-0.826496
H74	H	1.225504	-0.443884	-0.677765
Br75	Br	1.088396	-0.918414	-0.205623
Br76	Br	0.605064	-0.245995	-0.496739
Br77	Br	0.857780	-0.469578	-0.259608
H78	H	1.231323	-0.811063	-0.281542
H79	H	1.266642	-0.903715	-0.413724
H80	H	0.434063	-0.271754	-0.469443
Br81	Br	1.008050	-0.917954	-0.504579
