data_functionalizedCrystal
_audit_creation_method	'MofGen! by Chris Wilmer'
_symmetry_space_group_name_H-M	'P1'
_symmetry_Int_Tables_number	1
_symmetry_cell_setting	triclinic
loop_
_symmetry_equiv_pos_as_xyz
  x,y,z
_cell_length_a	13.185408
_cell_length_b	10.489716
_cell_length_c	12.376457
_cell_angle_alpha	101.395919
_cell_angle_beta	82.594262
_cell_angle_gamma	68.251318
loop_
_atom_site_label
_atom_site_type_symbol
_atom_site_fract_x
_atom_site_fract_y
_atom_site_fract_z
O1	O	1.465043	-0.362925	-0.093937
O2	O	1.148552	-0.233984	-0.093950
O3	O	1.314014	-0.486610	-0.093947
O4	O	1.299581	-0.110299	-0.093940
O5	O	1.272663	-0.423525	0.094064
O6	O	1.107201	-0.170899	0.094061
O7	O	1.423692	-0.299840	0.094075
Zn8	Zn	1.258881	-0.225353	0.123919
Zn9	Zn	1.313363	-0.308470	-0.123794
O10	O	1.258230	-0.047214	0.094072
C11	C	1.087350	-0.189370	0.000053
C12	C	0.966594	-0.150436	0.000047
C13	C	0.897802	-0.011803	0.000048
C14	C	0.784341	0.024787	0.000059
C15	C	0.739664	-0.077254	0.000060
C16	C	0.808457	-0.215892	0.000052
C17	C	0.921927	-0.252484	0.000050
C18	C	0.763789	-0.317935	0.000062
C19	C	0.832583	-0.456573	0.000054
C20	C	0.946041	-0.493157	0.000051
C21	C	0.990719	-0.391116	0.000050
C22	C	0.650319	-0.281344	0.000064
C23	C	0.674444	-0.522024	0.000067
C24	C	0.787905	-0.558614	0.000056
C25	C	1.292255	-0.502217	0.000055
C26	C	1.289013	-0.642703	0.000045
C27	C	1.390477	-0.776295	0.000059
C28	C	1.357248	-0.865777	-0.092640
C29	C	1.316455	-0.803536	0.092725
C30	C	1.255843	-0.730360	-0.092731
C31	C	1.215047	-0.668091	0.092717
C32	C	1.181748	-0.757505	-0.000005
C33	C	1.484895	-0.344455	0.000069
C34	C	1.605652	-0.383391	0.000067
C35	C	1.279990	-0.031608	0.000067
C36	C	1.283233	0.108876	0.000070
N37	N	1.221706	-0.168632	0.292976
N38	N	1.350546	-0.365205	-0.292852
C39	C	1.436840	-0.496899	0.647965
C40	C	1.462852	-0.536597	0.529626
C41	C	1.402568	-0.444609	0.470458
C42	C	1.316267	-0.312917	0.529641
C43	C	1.290258	-0.273210	0.647991
C44	C	1.255986	-0.220920	0.470484
C45	C	1.169685	-0.089227	0.529666
C46	C	1.143679	-0.049528	0.648006
C47	C	1.203964	-0.141516	0.707174
C48	C	1.281995	-0.260627	0.352133
C49	C	1.135413	-0.036937	0.352159
C50	C	1.109400	0.002760	0.470498
H51	H	0.728337	0.137666	0.000066
H52	H	0.934188	0.071266	0.000055
H53	H	1.417317	-0.950732	-0.171008
H54	H	1.083106	-0.420900	0.000044
H55	H	1.002048	-0.606041	0.000059
H56	H	1.352261	-0.367851	0.303957
H57	H	0.843932	-0.671495	0.000049
H58	H	1.086325	0.037969	0.303985
H59	H	1.342074	-0.835886	0.171093
H60	H	1.039132	0.109988	0.518699
H61	H	1.230289	-0.698225	-0.171187
H62	H	1.093435	-0.750683	-0.000058
H63	H	1.423751	-0.476937	0.374101
H64	H	1.533118	-0.643819	0.481444
H65	H	0.647278	-0.047454	0.000071
H66	H	1.155014	-0.583125	0.171088
H67	H	1.478755	-0.782897	-0.000031
H68	H	0.594317	-0.168463	0.000073
H69	H	1.485922	-0.571780	0.696148
H70	H	1.182782	-0.109198	0.803536
H71	H	1.073417	0.057710	0.696192
H72	H	0.638080	-0.605132	0.000016
