data_functionalizedCrystal
_audit_creation_method	'MofGen! by Chris Wilmer'
_symmetry_space_group_name_H-M	'P1'
_symmetry_Int_Tables_number	1
_symmetry_cell_setting	triclinic
loop_
_symmetry_equiv_pos_as_xyz
  x,y,z
_cell_length_a	15.944551
_cell_length_b	12.837942
_cell_length_c	11.892095
_cell_angle_alpha	85.697431
_cell_angle_beta	86.096497
_cell_angle_gamma	90.836161
loop_
_atom_site_label
_atom_site_type_symbol
_atom_site_fract_x
_atom_site_fract_y
_atom_site_fract_z
O1	O	1.130065	-0.127061	-0.094114
O2	O	1.463398	0.206272	0.239219
O3	O	1.796732	0.539605	0.572553
O4	O	0.886833	-0.143546	-0.094092
O5	O	1.220166	0.189787	0.239241
O6	O	1.553500	0.523120	0.572574
O7	O	1.003055	0.015599	-0.094096
O8	O	1.336389	0.348932	0.239238
O9	O	1.669722	0.682266	0.572571
O10	O	1.013843	-0.286206	-0.094111
O11	O	1.347176	0.047127	0.239223
O12	O	1.680509	0.380460	0.572556
O13	O	0.993363	0.002350	0.093912
O14	O	1.326697	0.335683	0.427245
O15	O	1.660030	0.669017	0.760579
O16	O	0.877141	-0.156795	0.093915
O17	O	1.210474	0.176538	0.427249
O18	O	1.543808	0.509872	0.760582
O19	O	1.120373	-0.140310	0.093894
O20	O	1.453706	0.193023	0.427227
O21	O	1.787040	0.526357	0.760560
Zn22	Zn	0.997218	-0.150656	0.123755
Zn23	Zn	1.330551	0.182677	0.457088
Zn24	Zn	1.663885	0.516011	0.790421
Zn25	Zn	1.009988	-0.133200	-0.123954
Zn26	Zn	1.343321	0.200133	0.209380
Zn27	Zn	1.676654	0.533466	0.542713
O28	O	1.004151	-0.299455	0.093897
O29	O	1.337484	0.033878	0.427230
O30	O	1.670817	0.367211	0.760564
C31	C	0.994565	0.047595	-0.000092
C32	C	1.327899	0.380929	0.333241
C33	C	1.661232	0.714262	0.666574
C34	C	0.983697	0.162673	-0.000093
C35	C	1.317031	0.496007	0.333240
C36	C	1.650364	0.829340	0.666574
C37	C	0.850638	-0.149486	-0.000086
C38	C	1.183971	0.183847	0.333248
C39	C	1.517305	0.517180	0.666581
C40	C	0.757227	-0.147436	-0.000077
C41	C	1.090561	0.185898	0.333256
C42	C	1.423894	0.519231	0.666590
C43	C	1.156568	-0.134370	-0.000116
C44	C	1.489901	0.198964	0.333218
C45	C	1.823235	0.532297	0.666551
C46	C	1.249979	-0.136420	-0.000131
C47	C	1.583312	0.196913	0.333202
C48	C	1.916646	0.530247	0.666535
C49	C	1.473118	-0.239970	-0.000111
C50	C	1.806451	0.093363	0.333223
C51	C	2.139785	0.426696	0.666556
C52	C	1.535070	-0.185354	-0.092805
C53	C	1.868403	0.147980	0.240528
C54	C	2.201737	0.481313	0.573862
C55	C	1.421001	-0.140132	-0.000115
C56	C	1.754334	0.193201	0.333218
C57	C	2.087668	0.526534	0.666551
C58	C	1.525490	-0.198392	0.092556
C59	C	1.858824	0.134941	0.425889
C60	C	2.192157	0.468274	0.759222
C61	C	1.586200	-0.143726	-0.000095
C62	C	1.919533	0.189607	0.333239
C63	C	2.252867	0.522940	0.666572
C64	C	1.481727	-0.085483	-0.092886
C65	C	1.815060	0.247850	0.240447
C66	C	2.148393	0.581184	0.573781
C67	C	1.472137	-0.098541	0.092558
C68	C	1.805471	0.234792	0.425891
C69	C	2.138804	0.568125	0.759225
C70	C	1.534067	-0.043850	-0.000159
C71	C	1.867401	0.289483	0.333174
C72	C	2.200734	0.622816	0.666508
C73	C	1.325834	-0.138065	-0.000128
C74	C	1.659167	0.195268	0.333205
C75	C	1.992501	0.528602	0.666539
C76	C	1.681366	-0.145785	-0.000090
C77	C	2.014699	0.187548	0.333243
C78	C	2.348032	0.520881	0.666577
C79	C	1.012641	-0.331451	-0.000109
C80	C	1.345974	0.001882	0.333224
C81	C	1.679307	0.335215	0.666558
C82	C	1.023509	-0.446529	-0.000116
C83	C	1.356842	-0.113196	0.333218
C84	C	1.690176	0.220138	0.666551
N85	N	0.988509	-0.162569	0.292809
N86	N	1.321843	0.170765	0.626143
N87	N	1.655176	0.504098	0.959476
C88	C	1.114352	0.403625	-0.000128
C89	C	1.447685	0.736958	0.333205
C90	C	1.781018	1.070292	0.666538
C91	C	1.104144	0.511752	-0.000129
C92	C	1.437478	0.845085	0.333204
C93	C	1.770811	1.178418	0.666537
C94	C	0.953076	0.487056	-0.000104
C95	C	1.286410	0.820389	0.333229
C96	C	1.619743	1.153722	0.666563
C97	C	0.963284	0.378929	-0.000103
C98	C	1.296617	0.712262	0.333230
C99	C	1.629950	1.045596	0.666564
C100	C	1.043924	0.337218	-0.000114
C101	C	1.377257	0.670551	0.333220
C102	C	1.710591	1.003885	0.666553
C103	C	1.054130	0.229089	-0.000105
C104	C	1.387464	0.562422	0.333229
C105	C	1.720797	0.895755	0.666562
C106	C	0.903063	0.204395	-0.000087
C107	C	1.236397	0.537729	0.333246
C108	C	1.569730	0.871062	0.666579
C109	C	0.892856	0.312522	-0.000088
C110	C	1.226189	0.645855	0.333245
C111	C	1.559523	0.979189	0.666578
N112	N	1.018703	-0.121279	-0.293008
N113	N	1.352036	0.212054	0.040325
N114	N	1.685369	0.545387	0.373659
C115	C	1.079298	-0.038327	0.529454
C116	C	1.412632	0.295006	0.862788
C117	C	1.745965	0.628339	1.196121
C118	C	1.073218	-0.046662	0.647796
C119	C	1.406551	0.286672	0.981130
C120	C	1.739884	0.620005	1.314463
C121	C	0.970263	-0.187566	0.647837
C122	C	1.303596	0.145768	0.981171
C123	C	1.636930	0.479101	1.314504
C124	C	0.976344	-0.179232	0.529495
C125	C	1.309677	0.154102	0.862829
C126	C	1.643011	0.487435	1.196162
C127	C	1.030864	-0.104611	0.470308
C128	C	1.364198	0.228722	0.803641
C129	C	1.697531	0.562056	1.136975
C130	C	1.036949	-0.096282	0.351964
C131	C	1.370282	0.237051	0.685297
C132	C	1.703616	0.570384	1.018630
C133	C	0.933990	-0.237181	0.352007
C134	C	1.267324	0.096153	0.685340
C135	C	1.600657	0.429486	1.018674
C136	C	0.927910	-0.245515	0.470349
C137	C	1.261243	0.087818	0.803682
C138	C	1.594576	0.421152	1.137016
H139	H	1.446446	-0.322834	-0.000207
H140	H	1.779780	0.010499	0.333126
H141	H	2.113113	0.343832	0.666460
Br142	Br	1.223786	0.347009	-0.000108
Br143	Br	1.557120	0.680342	0.333226
Br144	Br	1.890453	1.013675	0.666559
H145	H	1.161494	0.565818	-0.000145
H146	H	1.494828	0.899151	0.333188
H147	H	1.828161	1.232484	0.666522
H148	H	1.112656	0.007314	0.695950
H149	H	1.445990	0.340648	1.029283
H150	H	1.779323	0.673981	1.362617
Br151	Br	0.843647	0.543686	-0.000131
Br152	Br	1.176980	0.877019	0.333203
Br153	Br	1.510313	1.210353	0.666536
Br154	Br	1.580947	-0.246522	-0.223436
Br155	Br	1.914280	0.086811	0.109897
Br156	Br	2.247613	0.420145	0.443231
Br157	Br	0.853917	-0.346777	0.550682
Br158	Br	1.187250	-0.013444	0.884015
Br159	Br	1.520583	0.319890	1.217348
Br160	Br	0.807475	0.114264	-0.000047
Br161	Br	1.140809	0.447597	0.333286
Br162	Br	1.474142	0.780930	0.666620
Br163	Br	1.449534	-0.005935	-0.223645
Br164	Br	1.782867	0.327399	0.109688
Br165	Br	2.116201	0.660732	0.443022
Br166	Br	1.153300	0.062927	0.449126
Br167	Br	1.486634	0.396260	0.782459
Br168	Br	1.819967	0.729593	1.115792
H169	H	0.827201	0.346499	-0.000084
H170	H	1.160534	0.679832	0.333249
H171	H	1.493868	1.013166	0.666582
H172	H	1.081344	-0.035525	0.303774
H173	H	1.414678	0.297808	0.637108
H174	H	1.748011	0.631141	0.970441
H175	H	1.119791	0.195129	-0.000109
H176	H	1.453125	0.528463	0.333225
H177	H	1.786458	0.861796	0.666558
H178	H	0.925868	-0.248313	0.696043
H179	H	1.259201	0.085020	1.029377
H180	H	1.592535	0.418353	1.362710
Br181	Br	1.578280	0.094397	-0.000228
Br182	Br	1.911613	0.427730	0.333106
Br183	Br	2.244946	0.761063	0.666439
H184	H	0.894555	-0.291156	0.303837
H185	H	1.227888	0.042177	0.637170
H186	H	1.561221	0.375510	0.970503
H187	H	1.444589	-0.061874	0.170933
H188	H	1.777922	0.271460	0.504266
H189	H	2.111256	0.604793	0.837599
H190	H	1.544915	-0.246160	0.170921
H191	H	1.878248	0.087174	0.504255
H192	H	2.211582	0.420507	0.837588
