data_functionalizedCrystal
_audit_creation_method	'MofGen! by Chris Wilmer'
_symmetry_space_group_name_H-M	'P1'
_symmetry_Int_Tables_number	1
_symmetry_cell_setting	triclinic
loop_
_symmetry_equiv_pos_as_xyz
  x,y,z
_cell_length_a	19.077312
_cell_length_b	12.759394
_cell_length_c	19.076919
_cell_angle_alpha	92.275853
_cell_angle_beta	94.668947
_cell_angle_gamma	87.719771
loop_
_atom_site_label
_atom_site_type_symbol
_atom_site_fract_x
_atom_site_fract_y
_atom_site_fract_z
Zn1	Zn	1.061712	-0.503164	-0.355291
Zn2	Zn	1.066388	-0.672068	-0.237417
Zn3	Zn	0.948568	-0.489634	-0.242158
Zn4	Zn	0.943819	-0.672025	-0.360000
O5	O	1.005122	-0.584223	-0.298716
O6	O	1.160979	-0.531250	-0.335700
O7	O	1.054703	-0.642224	-0.139398
O8	O	0.963608	-0.344410	-0.257178
O9	O	1.164414	-0.655343	-0.249098
O10	O	1.046734	-0.354351	-0.340297
O11	O	0.968141	-0.508191	-0.142881
O12	O	0.849292	-0.508149	-0.261745
O13	O	0.955514	-0.655269	-0.458023
O14	O	0.845802	-0.642150	-0.348323
O15	O	1.042129	-0.531208	-0.454563
O16	O	1.050098	-0.819081	-0.253665
O17	O	0.960047	-0.819049	-0.343726
C18	C	0.821969	-0.573677	-0.306059
C19	C	0.743615	-0.569192	-0.309218
C20	C	0.302371	-0.536940	-0.331876
C21	C	0.375993	-0.541173	-0.328904
C22	C	0.414586	-0.607784	-0.282257
C23	C	0.379554	-0.670174	-0.238583
C24	C	0.305933	-0.665945	-0.241559
C25	C	0.634961	-0.627353	-0.268519
C26	C	0.708587	-0.631574	-0.265546
C27	C	0.705021	-0.502575	-0.355868
C28	C	0.631399	-0.498348	-0.358836
C29	C	0.596373	-0.560741	-0.315165
N30	N	0.489840	-0.612111	-0.279217
N31	N	0.521120	-0.556419	-0.318209
C32	C	1.005083	-0.857187	-0.298706
C33	C	1.005130	-0.973968	-0.298723
C34	C	1.091619	-0.984160	-0.385344
C35	C	1.134886	-1.044119	-0.428660
C36	C	1.134927	-1.153844	-0.428673
C37	C	1.091696	-1.203612	-0.385368
C38	C	1.048429	-1.143653	-0.342053
C39	C	1.048394	-1.033927	-0.342043
C40	C	0.961937	-1.133461	-0.255437
C41	C	0.961898	-1.023736	-0.255418
C42	C	0.918705	-1.183229	-0.212132
C43	C	0.875441	-1.123271	-0.168812
C44	C	0.875402	-1.013539	-0.168800
C45	C	0.918632	-0.963778	-0.212103
C46	C	1.188990	-0.594810	-0.291345
C47	C	1.267343	-0.599322	-0.288204
C48	C	0.997770	-0.594743	-0.482587
C49	C	0.994637	-0.599226	-0.560941
C50	C	1.005179	-0.310194	-0.298741
C51	C	1.005204	-0.193420	-0.298752
C52	C	1.038259	-0.536742	-0.595952
C53	C	1.035307	-0.540950	-0.669575
C54	C	0.988736	-0.607647	-0.708185
C55	C	0.945109	-0.670133	-0.673169
C56	C	0.948058	-0.665919	-0.599548
C57	C	0.975077	-0.627171	-0.928563
C58	C	0.972133	-0.631383	-1.002189
C59	C	1.062330	-0.502198	-0.998590
C60	C	1.065278	-0.497994	-0.924967
C61	C	1.021649	-0.560476	-0.889958
N62	N	0.985719	-0.611952	-0.783440
N63	N	1.024663	-0.556165	-0.814705
C64	C	1.012485	-0.573670	-0.115560
C65	C	1.015755	-0.568899	-0.037200
H66	H	1.091597	-0.894817	-0.385331
H67	H	1.170151	-1.202662	-0.463952
O68	O	0.828734	-0.948871	-0.122082
H69	H	0.861725	-0.898623	-0.084969
O70	O	0.750218	-0.703418	-0.215229
H71	H	0.782512	-0.760660	-0.245363
O72	O	1.091783	-1.321958	-0.385334
H73	H	1.129150	-1.355289	-0.422710
H74	H	0.270953	-0.482691	-0.369857
O75	O	0.597185	-0.694641	-0.221417
H76	H	0.565064	-0.643556	-0.186969
H77	H	0.404509	-0.490379	-0.364469
O78	O	0.894877	-0.742070	-0.714812
H79	H	0.840122	-0.720045	-0.702901
O80	O	0.589773	-0.426501	-0.409147
H81	H	0.626499	-0.383836	-0.439020
H82	H	0.939561	-0.678064	-0.900067
H83	H	0.912530	-0.716789	-0.571043
H84	H	0.410982	-0.724414	-0.200605
O85	O	0.268150	-0.733219	-0.194448
H86	H	0.281796	-0.817202	-0.205864
O87	O	0.742797	-0.435289	-0.402974
H88	H	0.800474	-0.449423	-0.393075
H89	H	1.170084	-1.003588	-0.463919
O90	O	0.828814	-1.176943	-0.122110
H91	H	0.843148	-1.153427	-0.066304
O92	O	0.918810	-1.301578	-0.212124
H93	H	0.902440	-1.332773	-0.265854
O94	O	0.918588	-0.845431	-0.212089
H95	H	0.955913	-0.820902	-0.249481
O96	O	1.088490	-0.464804	-0.554309
H97	H	1.118322	-0.422056	-0.591026
O98	O	1.082360	-0.473565	-0.707340
H99	H	1.115247	-0.426490	-0.668123
O100	O	1.115511	-0.426062	-0.883322
H101	H	1.145347	-0.383316	-0.920037
H102	H	1.097849	-0.451328	-1.027103
H103	H	0.934207	-0.685698	-1.033624
