data_functionalizedCrystal
_audit_creation_method	'MofGen! by Chris Wilmer'
_symmetry_space_group_name_H-M	'P1'
_symmetry_Int_Tables_number	1
_symmetry_cell_setting	triclinic
loop_
_symmetry_equiv_pos_as_xyz
  x,y,z
_cell_length_a	21.295419
_cell_length_b	29.839132
_cell_length_c	21.295411
_cell_angle_alpha	89.977422
_cell_angle_beta	90.024539
_cell_angle_gamma	89.939935
loop_
_atom_site_label
_atom_site_type_symbol
_atom_site_fract_x
_atom_site_fract_y
_atom_site_fract_z
Zn1	Zn	0.962291	0.178727	0.355907
Zn2	Zn	1.212291	0.428727	0.605907
Zn3	Zn	1.462291	0.678727	0.855907
Zn4	Zn	1.712291	0.928727	1.105907
Zn5	Zn	0.962166	0.253843	0.250631
Zn6	Zn	1.212166	0.503843	0.500631
Zn7	Zn	1.462166	0.753843	0.750631
Zn8	Zn	1.712166	1.003843	1.000631
Zn9	Zn	0.857014	0.178747	0.250652
Zn10	Zn	1.107014	0.428747	0.500652
Zn11	Zn	1.357014	0.678747	0.750652
Zn12	Zn	1.607014	0.928747	1.000652
Zn13	Zn	0.856956	0.253850	0.355862
Zn14	Zn	1.106956	0.503850	0.605862
Zn15	Zn	1.356956	0.753850	0.855862
Zn16	Zn	1.606956	1.003850	1.105862
O17	O	0.909607	0.216292	0.303263
O18	O	1.159607	0.466292	0.553263
O19	O	1.409607	0.716292	0.803263
O20	O	1.659607	0.966292	1.053263
O21	O	1.050364	0.188680	0.341952
O22	O	1.300364	0.438680	0.591952
O23	O	1.550364	0.688680	0.841952
O24	O	1.800364	0.938680	1.091952
O25	O	0.948190	0.243886	0.162544
O26	O	1.198190	0.493886	0.412544
O27	O	1.448190	0.743886	0.662544
O28	O	1.698190	0.993886	0.912544
O29	O	0.871056	0.115877	0.264642
O30	O	1.121056	0.365877	0.514642
O31	O	1.371056	0.615877	0.764642
O32	O	1.621056	0.865877	1.014642
O33	O	1.050272	0.243867	0.264606
O34	O	1.300272	0.493867	0.514606
O35	O	1.550272	0.743867	0.764606
O36	O	1.800272	0.993867	1.014606
O37	O	0.948402	0.115863	0.341972
O38	O	1.198402	0.365863	0.591972
O39	O	1.448402	0.615863	0.841972
O40	O	1.698402	0.865863	1.091972
O41	O	0.870935	0.188714	0.162560
O42	O	1.120935	0.438714	0.412560
O43	O	1.370935	0.688714	0.662560
O44	O	1.620935	0.938714	0.912560
O45	O	0.768917	0.188721	0.264599
O46	O	1.018917	0.438721	0.514599
O47	O	1.268917	0.688721	0.764599
O48	O	1.518917	0.938721	1.014599
O49	O	0.870957	0.243880	0.443958
O50	O	1.120957	0.493880	0.693958
O51	O	1.370957	0.743880	0.943958
O52	O	1.620957	0.993880	1.193958
O53	O	0.768875	0.243899	0.341896
O54	O	1.018875	0.493899	0.591896
O55	O	1.268875	0.743899	0.841896
O56	O	1.518875	0.993899	1.091896
O57	O	0.948346	0.188687	0.443991
O58	O	1.198346	0.438687	0.693991
O59	O	1.448346	0.688687	0.943991
O60	O	1.698346	0.938687	1.193991
O61	O	0.948134	0.316711	0.264562
O62	O	1.198134	0.566711	0.514562
O63	O	1.448134	0.816711	0.764562
O64	O	1.698134	1.066711	1.014562
O65	O	0.870836	0.316716	0.341876
O66	O	1.120836	0.566716	0.591876
O67	O	1.370836	0.816716	0.841876
O68	O	1.620836	1.066716	1.091876
C69	C	0.746055	0.216313	0.303245
C70	C	0.996055	0.466313	0.553245
C71	C	1.246055	0.716313	0.803245
C72	C	1.496055	0.966313	1.053245
C73	C	0.676087	0.216333	0.303253
C74	C	0.926087	0.466333	0.553253
C75	C	1.176087	0.716333	0.803253
C76	C	1.426087	0.966333	1.053253
C77	C	0.643291	0.187644	0.343589
C78	C	0.893291	0.437644	0.593589
C79	C	1.143291	0.687644	0.843589
C80	C	1.393291	0.937644	1.093589
C81	C	0.577548	0.187632	0.343592
C82	C	0.827548	0.437632	0.593592
C83	C	1.077548	0.687632	0.843592
C84	C	1.327548	0.937632	1.093592
C85	C	0.544605	0.216317	0.303264
C86	C	0.794605	0.466317	0.553264
C87	C	1.044605	0.716317	0.803264
C88	C	1.294605	0.966317	1.053264
C89	C	0.577409	0.245008	0.262920
C90	C	0.827409	0.495008	0.512920
C91	C	1.077409	0.745008	0.762920
C92	C	1.327409	0.995008	1.012920
C93	C	0.643150	0.245016	0.262914
C94	C	0.893150	0.495016	0.512914
C95	C	1.143150	0.745016	0.762914
C96	C	1.393150	0.995016	1.012914
N97	N	0.441315	0.255624	0.298344
N98	N	0.691315	0.505624	0.548344
N99	N	0.941315	0.755624	0.798344
N100	N	1.191315	1.005624	1.048344
N101	N	0.378864	0.255616	0.298353
N102	N	0.628864	0.505616	0.548353
N103	N	0.878864	0.755616	0.798353
N104	N	1.128864	1.005616	1.048353
C105	C	0.346530	0.216294	0.303278
C106	C	0.596530	0.466294	0.553278
C107	C	0.846530	0.716294	0.803278
C108	C	1.096530	0.966294	1.053278
N109	N	0.379007	0.176981	0.308206
N110	N	0.629007	0.426981	0.558206
N111	N	0.879007	0.676981	0.808206
N112	N	1.129007	0.926981	1.058206
N113	N	0.441464	0.176990	0.308201
N114	N	0.691464	0.426990	0.558201
N115	N	0.941464	0.676990	0.808201
N116	N	1.191464	0.926990	1.058201
C117	C	0.473319	0.216311	0.303266
C118	C	0.723319	0.466311	0.553266
C119	C	0.973319	0.716311	0.803266
C120	C	1.223319	0.966311	1.053266
C121	C	0.242448	0.187590	0.343619
C122	C	0.492448	0.437590	0.593619
C123	C	0.742448	0.687590	0.843619
C124	C	0.992448	0.937590	1.093619
C125	C	0.176704	0.187577	0.343617
C126	C	0.426704	0.437577	0.593617
C127	C	0.676704	0.687577	0.843617
C128	C	0.926704	0.937577	1.093617
C129	C	0.176567	0.244957	0.262949
C130	C	0.426567	0.494957	0.512949
C131	C	0.676567	0.744957	0.762949
C132	C	0.926567	0.994957	1.012949
C133	C	0.242309	0.244965	0.262948
C134	C	0.492309	0.494965	0.512948
C135	C	0.742309	0.744965	0.762948
C136	C	0.992309	0.994965	1.012948
C137	C	0.275246	0.216282	0.303286
C138	C	0.525246	0.466282	0.553286
C139	C	0.775246	0.716282	0.803286
C140	C	1.025246	0.966282	1.053286
C141	C	0.909482	0.333014	0.303226
C142	C	1.159482	0.583014	0.553226
C143	C	1.409482	0.833014	0.803226
C144	C	1.659482	1.083014	1.053226
C145	C	0.909487	0.382949	0.303231
C146	C	1.159487	0.632949	0.553231
C147	C	1.409487	0.882949	0.803231
C148	C	1.659487	1.132949	1.053231
C149	C	0.949884	0.692577	0.263039
C150	C	1.199884	0.942577	0.513039
C151	C	1.449884	1.192577	0.763039
C152	C	1.699884	1.442577	1.013039
C153	C	0.949944	0.880250	0.263053
C154	C	1.199944	1.130250	0.513053
C155	C	1.449944	1.380250	0.763053
C156	C	1.699944	1.630250	1.013053
O157	O	0.984224	0.904501	0.228870
O158	O	1.234224	1.154501	0.478870
O159	O	1.484224	1.404501	0.728870
O160	O	1.734224	1.654501	0.978870
N161	N	0.909673	0.903734	0.303273
N162	N	1.159673	1.153734	0.553273
N163	N	1.409673	1.403734	0.803273
N164	N	1.659673	1.653734	1.053273
C165	C	0.869387	0.880297	0.343495
C166	C	1.119387	1.130297	0.593495
C167	C	1.369387	1.380297	0.843495
C168	C	1.619387	1.630297	1.093495
O169	O	0.835140	0.904578	0.377710
O170	O	1.085140	1.154578	0.627710
O171	O	1.335140	1.404578	0.877710
O172	O	1.585140	1.654578	1.127710
C173	C	0.869330	0.692625	0.343484
C174	C	1.119330	0.942625	0.593484
C175	C	1.369330	1.192625	0.843484
C176	C	1.619330	1.442625	1.093484
C177	C	0.909600	0.669143	0.303257
C178	C	1.159600	0.919143	0.553257
C179	C	1.409600	1.169143	0.803257
C180	C	1.659600	1.419143	1.053257
C181	C	0.990151	0.669095	0.222816
C182	C	1.240151	0.919095	0.472816
C183	C	1.490151	1.169095	0.722816
C184	C	1.740151	1.419095	0.972816
C185	C	0.990133	0.622179	0.222810
C186	C	1.240133	0.872179	0.472810
C187	C	1.490133	1.122179	0.722810
C188	C	1.740133	1.372179	0.972810
C189	C	0.949848	0.598746	0.263028
C190	C	1.199848	0.848746	0.513028
C191	C	1.449848	1.098746	0.763028
C192	C	1.699848	1.348746	1.013028
C193	C	0.909582	0.622227	0.303251
C194	C	1.159582	0.872227	0.553251
C195	C	1.409582	1.122227	0.803251
C196	C	1.659582	1.372227	1.053251
C197	C	0.829048	0.669189	0.383709
C198	C	1.079048	0.919189	0.633709
C199	C	1.329048	1.169189	0.883709
C200	C	1.579048	1.419189	1.133709
C201	C	0.829038	0.622268	0.383704
C202	C	1.079038	0.872268	0.633704
C203	C	1.329038	1.122268	0.883704
C204	C	1.579038	1.372268	1.133704
C205	C	0.869308	0.598786	0.343476
C206	C	1.119308	0.848786	0.593476
C207	C	1.369308	1.098786	0.843476
C208	C	1.619308	1.348786	1.093476
C209	C	0.869280	0.551878	0.343463
C210	C	1.119280	0.801878	0.593463
C211	C	1.369280	1.051878	0.843463
C212	C	1.619280	1.301878	1.093463
N213	N	0.909551	0.528394	0.303243
N214	N	1.159551	0.778394	0.553243
N215	N	1.409551	1.028394	0.803243
N216	N	1.659551	1.278394	1.053243
C217	C	0.949835	0.551828	0.263026
C218	C	1.199835	0.801828	0.513026
C219	C	1.449835	1.051828	0.763026
C220	C	1.699835	1.301828	1.013026
C221	C	0.869418	0.978827	0.343498
C222	C	1.119418	1.228827	0.593498
C223	C	1.369418	1.478827	0.843498
C224	C	1.619418	1.728827	1.093498
C225	C	0.869432	1.025745	0.343500
C226	C	1.119432	1.275745	0.593500
C227	C	1.369432	1.525745	0.843500
C228	C	1.619432	1.775745	1.093500
C229	C	0.949990	1.025695	0.263059
C230	C	1.199990	1.275695	0.513059
C231	C	1.449990	1.525695	0.763059
C232	C	1.699990	1.775695	1.013059
C233	C	0.949973	0.978776	0.263054
C234	C	1.199973	1.228776	0.513054
C235	C	1.449973	1.478776	0.763054
C236	C	1.699973	1.728776	1.013054
C237	C	0.909690	0.955343	0.303278
C238	C	1.159690	1.205343	0.553278
C239	C	1.409690	1.455343	0.803278
C240	C	1.659690	1.705343	1.053278
C241	C	0.949794	0.453302	0.263017
C242	C	1.199794	0.703302	0.513017
C243	C	1.449794	0.953302	0.763017
C244	C	1.699794	1.203302	1.013017
C245	C	0.949771	0.406382	0.263013
C246	C	1.199771	0.656382	0.513013
C247	C	1.449771	0.906382	0.763013
C248	C	1.699771	1.156382	1.013013
C249	C	0.869215	0.406437	0.343456
C250	C	1.119215	0.656437	0.593456
C251	C	1.369215	0.906437	0.843456
C252	C	1.619215	1.156437	1.093456
C253	C	0.869236	0.453352	0.343458
C254	C	1.119236	0.703352	0.593458
C255	C	1.369236	0.953352	0.843458
C256	C	1.619236	1.203352	1.093458
C257	C	0.909531	0.476784	0.303236
C258	C	1.159531	0.726784	0.553236
C259	C	1.409531	0.976784	0.803236
C260	C	1.659531	1.226784	1.053236
O261	O	0.835023	0.527598	0.377634
O262	O	1.085023	0.777598	0.627634
O263	O	1.335023	1.027598	0.877634
O264	O	1.585023	1.277598	1.127634
O265	O	0.984087	0.527539	0.228826
O266	O	1.234087	0.777539	0.478826
O267	O	1.484087	1.027539	0.728826
O268	O	1.734087	1.277539	0.978826
C269	C	0.949902	0.739492	0.263045
C270	C	1.199902	0.989492	0.513045
C271	C	1.449902	1.239492	0.763045
C272	C	1.699902	1.489492	1.013045
C273	C	0.909635	0.762974	0.303268
C274	C	1.159635	1.012974	0.553268
C275	C	1.409635	1.262974	0.803268
C276	C	1.659635	1.512974	1.053268
C277	C	0.869351	0.739540	0.343486
C278	C	1.119351	0.989540	0.593486
C279	C	1.369351	1.239540	0.843486
C280	C	1.619351	1.489540	1.093486
C281	C	0.909649	0.809892	0.303270
C282	C	1.159649	1.059892	0.553270
C283	C	1.409649	1.309892	0.803270
C284	C	1.659649	1.559892	1.053270
C285	C	0.949933	0.833325	0.263052
C286	C	1.199933	1.083325	0.513052
C287	C	1.449933	1.333325	0.763052
C288	C	1.699933	1.583325	1.013052
C289	C	0.990204	0.809841	0.222832
C290	C	1.240204	1.059841	0.472832
C291	C	1.490204	1.309841	0.722832
C292	C	1.740204	1.559841	0.972832
C293	C	0.990186	0.762926	0.222827
C294	C	1.240186	1.012926	0.472827
C295	C	1.490186	1.262926	0.722827
C296	C	1.740186	1.512926	0.972827
C297	C	0.829080	0.763024	0.383706
C298	C	1.079080	1.013024	0.633706
C299	C	1.329080	1.263024	0.883706
C300	C	1.579080	1.513024	1.133706
C301	C	0.829100	0.809940	0.383708
C302	C	1.079100	1.059940	0.633708
C303	C	1.329100	1.309940	0.883708
C304	C	1.579100	1.559940	1.133708
C305	C	0.869385	0.833373	0.343490
C306	C	1.119385	1.083373	0.593490
C307	C	1.369385	1.333373	0.843490
C308	C	1.619385	1.583373	1.093490
C309	C	1.073797	0.216270	0.303281
C310	C	1.323797	0.466270	0.553281
C311	C	1.573797	0.716270	0.803281
C312	C	1.823797	0.966270	1.053281
C313	C	1.143765	0.216261	0.303289
C314	C	1.393765	0.466261	0.553289
C315	C	1.643765	0.716261	0.803289
C316	C	1.893765	0.966261	1.053289
C317	C	0.909726	1.099113	0.303301
C318	C	1.159726	1.349113	0.553301
C319	C	1.409726	1.599113	0.803301
C320	C	1.659726	1.849113	1.053301
C321	C	0.909716	1.049179	0.303282
C322	C	1.159716	1.299179	0.553282
C323	C	1.409716	1.549179	0.803282
C324	C	1.659716	1.799179	1.053282
C325	C	0.909659	0.216282	0.467453
C326	C	1.159659	0.466282	0.717453
C327	C	1.409659	0.716282	0.967453
C328	C	1.659659	0.966282	1.217453
C329	C	0.909682	0.216278	0.537422
C330	C	1.159682	0.466278	0.787422
C331	C	1.409682	0.716278	1.037422
C332	C	1.659682	0.966278	1.287422
C333	C	0.909591	0.216269	0.139711
C334	C	1.159591	0.466269	0.389711
C335	C	1.409591	0.716269	0.639711
C336	C	1.659591	0.966269	0.889711
C337	C	0.909691	0.216146	0.069744
C338	C	1.159691	0.466146	0.319744
C339	C	1.409691	0.716146	0.569744
C340	C	1.659691	0.966146	0.819744
C341	C	0.949976	0.187538	0.570306
C342	C	1.199976	0.437538	0.820306
C343	C	1.449976	0.687538	1.070306
C344	C	1.699976	0.937538	1.320306
C345	C	0.949975	0.187519	0.636049
C346	C	1.199975	0.437519	0.886049
C347	C	1.449975	0.687519	1.136049
C348	C	1.699975	0.937519	1.386049
C349	C	0.909686	0.216247	0.668904
C350	C	1.159686	0.466247	0.918904
C351	C	1.409686	0.716247	1.168904
C352	C	1.659686	0.966247	1.418904
C353	C	0.869384	0.244989	0.636011
C354	C	1.119384	0.494989	0.886011
C355	C	1.369384	0.744989	1.136011
C356	C	1.619384	0.994989	1.386011
C357	C	0.869382	0.245005	0.570270
C358	C	1.119382	0.495005	0.820270
C359	C	1.369382	0.745005	1.070270
C360	C	1.619382	0.995005	1.320270
N361	N	0.904816	0.255549	0.772119
N362	N	1.154816	0.505549	1.022119
N363	N	1.404816	0.755549	1.272119
N364	N	1.654816	1.005549	1.522119
N365	N	0.904822	0.255533	0.834570
N366	N	1.154822	0.505533	1.084570
N367	N	1.404822	0.755533	1.334570
N368	N	1.654822	1.005533	1.584570
C369	C	0.909690	0.216202	0.866979
C370	C	1.159690	0.466202	1.116979
C371	C	1.409690	0.716202	1.366979
C372	C	1.659690	0.966202	1.616979
N373	N	0.914565	0.176886	0.834577
N374	N	1.164565	0.426886	1.084577
N375	N	1.414565	0.676886	1.334577
N376	N	1.664565	0.926886	1.584577
N377	N	0.914563	0.176903	0.772120
N378	N	1.164563	0.426903	1.022120
N379	N	1.414563	0.676903	1.272120
N380	N	1.664563	0.926903	1.522120
C381	C	0.909684	0.216233	0.740190
C382	C	1.159684	0.466233	0.990190
C383	C	1.409684	0.716233	1.240190
C384	C	1.659684	0.966233	1.490190
C385	C	0.949986	0.187438	0.971149
C386	C	1.199986	0.437438	1.221149
C387	C	1.449986	0.687438	1.471149
C388	C	1.699986	0.937438	1.721149
C389	C	0.949981	0.187418	1.036893
C390	C	1.199981	0.437418	1.286893
C391	C	1.449981	0.687418	1.536893
C392	C	1.699981	0.937418	1.786893
C393	C	0.869393	0.244893	1.036854
C394	C	1.119393	0.494893	1.286854
C395	C	1.369393	0.744893	1.536854
C396	C	1.619393	0.994893	1.786854
C397	C	0.869395	0.244909	0.971112
C398	C	1.119395	0.494909	1.221112
C399	C	1.369395	0.744909	1.471112
C400	C	1.619395	0.994909	1.721112
C401	C	0.909695	0.216182	0.938263
C402	C	1.159695	0.466182	1.188263
C403	C	1.409695	0.716182	1.438263
C404	C	1.659695	0.966182	1.688263
H405	H	0.982563	0.387265	0.230253
H406	H	1.232563	0.637265	0.480253
H407	H	1.482563	0.887265	0.730253
H408	H	1.732563	1.137265	0.980253
H409	H	0.150003	0.164212	0.376463
H410	H	0.400003	0.414212	0.626463
H411	H	0.650003	0.664212	0.876463
H412	H	0.900003	0.914212	1.126463
Br413	Br	0.814569	0.485222	0.398037
Br414	Br	1.064569	0.735222	0.648037
Br415	Br	1.314569	0.985222	0.898037
Br416	Br	1.564569	1.235222	1.148037
Br417	Br	1.004666	0.148550	0.525729
Br418	Br	1.254666	0.398550	0.775729
Br419	Br	1.504666	0.648550	1.025729
Br420	Br	1.754666	0.898550	1.275729
H421	H	0.982793	0.164012	1.063667
H422	H	1.232793	0.414012	1.313667
H423	H	1.482793	0.664012	1.563667
H424	H	1.732793	0.914012	1.813667
Br425	Br	0.131865	0.283882	0.208211
Br426	Br	0.381865	0.533882	0.458211
Br427	Br	0.631865	0.783882	0.708211
Br428	Br	0.881865	1.033882	0.958211
H429	H	0.982787	0.164113	0.662829
H430	H	1.232787	0.414113	0.912829
H431	H	1.482787	0.664113	1.162829
H432	H	1.732787	0.914113	1.412829
Br433	Br	0.533029	0.148693	0.398335
Br434	Br	0.783029	0.398693	0.648335
Br435	Br	1.033029	0.648693	0.898335
Br436	Br	1.283029	0.898693	1.148335
Br437	Br	0.286822	0.283899	0.208198
Br438	Br	0.536822	0.533899	0.458198
Br439	Br	0.786822	0.783899	0.708198
Br440	Br	1.036822	1.033899	0.958198
Br441	Br	1.044796	0.590319	0.168222
Br442	Br	1.294796	0.840319	0.418222
Br443	Br	1.544796	1.090319	0.668222
Br444	Br	1.794796	1.340319	0.918222
Br445	Br	1.004675	0.148452	0.926565
Br446	Br	1.254675	0.398452	1.176565
Br447	Br	1.504675	0.648452	1.426565
Br448	Br	1.754675	0.898452	1.676565
Br449	Br	1.004480	0.485094	0.208429
Br450	Br	1.254480	0.735094	0.458429
Br451	Br	1.504480	0.985094	0.708429
Br452	Br	1.754480	1.235094	0.958429
Br453	Br	1.044831	0.700889	0.168228
Br454	Br	1.294831	0.950889	0.418228
Br455	Br	1.544831	1.200889	0.668228
Br456	Br	1.794831	1.450889	0.918228
Br457	Br	0.814769	1.057608	0.398087
Br458	Br	1.064769	1.307608	0.648087
Br459	Br	1.314769	1.557608	0.898087
Br460	Br	1.564769	1.807608	1.148087
Br461	Br	1.004626	0.946913	0.208457
Br462	Br	1.254626	1.196913	0.458457
Br463	Br	1.504626	1.446913	0.708457
Br464	Br	1.754626	1.696913	0.958457
Br465	Br	0.532702	0.283935	0.208185
Br466	Br	0.782702	0.533935	0.458185
Br467	Br	1.032702	0.783935	0.708185
Br468	Br	1.282702	1.033935	0.958185
Br469	Br	0.814691	0.284012	0.525638
Br470	Br	1.064691	0.534012	0.775638
Br471	Br	1.314691	0.784012	1.025638
Br472	Br	1.564691	1.034012	1.275638
Br473	Br	0.814706	0.283877	1.081437
Br474	Br	1.064706	0.533877	1.331437
Br475	Br	1.314706	0.783877	1.581437
Br476	Br	1.564706	1.033877	1.831437
Br477	Br	0.814742	0.947032	0.398093
Br478	Br	1.064742	1.197032	0.648093
Br479	Br	1.314742	1.447032	0.898093
Br480	Br	1.564742	1.697032	1.148093
Br481	Br	0.774400	0.701045	0.438313
Br482	Br	1.024400	0.951045	0.688313
Br483	Br	1.274400	1.201045	0.938313
Br484	Br	1.524400	1.451045	1.188313
Br485	Br	0.814707	0.283916	0.926479
Br486	Br	1.064707	0.533916	1.176479
Br487	Br	1.314707	0.783916	1.426479
Br488	Br	1.564707	1.033916	1.676479
H489	H	0.982791	1.044782	0.230312
H490	H	1.232791	1.294782	0.480312
H491	H	1.482791	1.544782	0.730312
H492	H	1.732791	1.794782	0.980312
H493	H	0.796303	0.829055	0.416465
H494	H	1.046303	1.079055	0.666465
H495	H	1.296303	1.329055	0.916465
H496	H	1.546303	1.579055	1.166465
H497	H	0.669853	0.268379	0.230067
H498	H	0.919853	0.518379	0.480067
H499	H	1.169853	0.768379	0.730067
H500	H	1.419853	1.018379	0.980067
H501	H	0.796235	0.603191	0.416461
H502	H	1.046235	0.853191	0.666461
H503	H	1.296235	1.103191	0.916461
H504	H	1.546235	1.353191	1.166461
H505	H	0.836414	0.387350	0.376199
H506	H	1.086414	0.637350	0.626199
H507	H	1.336414	0.887350	0.876199
H508	H	1.586414	1.137350	1.126199
H509	H	1.022978	0.743810	0.190070
H510	H	1.272978	0.993810	0.440070
H511	H	1.522978	1.243810	0.690070
H512	H	1.772978	1.493810	0.940070
Br513	Br	0.287152	0.148661	0.398359
Br514	Br	0.537152	0.398661	0.648359
Br515	Br	0.787152	0.648661	0.898359
Br516	Br	1.037152	0.898661	1.148359
H517	H	0.670104	0.164288	0.376435
H518	H	0.920104	0.414288	0.626435
H519	H	1.170104	0.664288	0.876435
H520	H	1.420104	0.914288	1.126435
Br521	Br	1.044873	0.841653	0.168249
Br522	Br	1.294873	1.091653	0.418249
Br523	Br	1.544873	1.341653	0.668249
Br524	Br	1.794873	1.591653	0.918249
H525	H	0.796276	0.743948	0.416457
H526	H	1.046276	0.993948	0.666457
H527	H	1.296276	1.243948	0.916457
H528	H	1.546276	1.493948	1.166457
H529	H	0.836579	0.268379	0.662766
H530	H	1.086579	0.518379	0.912766
H531	H	1.336579	0.768379	1.162766
H532	H	1.586579	1.018379	1.412766
