data_functionalizedCrystal
_audit_creation_method	'MofGen! by Chris Wilmer'
_symmetry_space_group_name_H-M	'P1'
_symmetry_Int_Tables_number	1
_symmetry_cell_setting	triclinic
loop_
_symmetry_equiv_pos_as_xyz
  x,y,z
_cell_length_a	14.519731
_cell_length_b	14.519709
_cell_length_c	16.176319
_cell_angle_alpha	89.992256
_cell_angle_beta	89.992497
_cell_angle_gamma	83.684499
loop_
_atom_site_label
_atom_site_type_symbol
_atom_site_fract_x
_atom_site_fract_y
_atom_site_fract_z
O1	O	1.223859	0.120987	-0.068750
O2	O	1.723859	0.620987	0.431250
O3	O	0.955385	0.135203	-0.068752
O4	O	1.455385	0.635203	0.431248
O5	O	1.096740	-0.006143	-0.068743
O6	O	1.596740	0.493857	0.431257
O7	O	1.082504	0.262333	-0.068758
O8	O	1.582504	0.762333	0.431242
O9	O	1.096721	-0.006152	0.068750
O10	O	1.596721	0.493848	0.568750
O11	O	0.955365	0.135194	0.068742
O12	O	1.455365	0.635194	0.568742
O13	O	1.223840	0.120978	0.068743
O14	O	1.723840	0.620978	0.568743
Cu15	Cu	1.089601	0.128085	0.081297
Cu16	Cu	1.589601	0.628085	0.581297
Cu17	Cu	1.089624	0.128096	-0.081305
Cu18	Cu	1.589624	0.628096	0.418695
O19	O	1.082484	0.262324	0.068735
O20	O	1.582484	0.762324	0.568735
C21	C	0.921016	0.134532	-0.000005
C22	C	1.421016	0.634532	0.499995
C23	C	0.818635	0.132536	-0.000005
C24	C	1.318635	0.632536	0.499995
C25	C	0.735491	0.130915	-0.000009
C26	C	1.235491	0.630915	0.499991
C27	C	0.631182	0.128888	-0.000009
C28	C	1.131182	0.628888	0.499991
C29	C	0.548043	0.127280	-0.000009
C30	C	1.048043	0.627280	0.499991
C31	C	0.443728	0.125253	-0.000010
C32	C	0.943728	0.625253	0.499990
C33	C	1.096067	-0.040507	0.000003
C34	C	1.596067	0.459493	0.500003
C35	C	1.094079	-0.142889	0.000004
C36	C	1.594079	0.357111	0.500004
C37	C	1.086759	-0.517785	-0.000018
C38	C	1.586759	-0.017785	0.499982
C39	C	1.088792	-0.413477	-0.000011
C40	C	1.588792	0.086523	0.499989
C41	C	1.090419	-0.330340	-0.000006
C42	C	1.590419	0.169660	0.499994
C43	C	1.092452	-0.226025	-0.000002
C44	C	1.592452	0.273975	0.499998
C45	C	1.258209	0.121649	-0.000005
C46	C	1.758209	0.621649	0.499995
C47	C	1.360589	0.123645	-0.000010
C48	C	1.860589	0.623645	0.499990
C49	C	1.083157	0.296688	-0.000014
C50	C	1.583157	0.796688	0.499986
C51	C	1.085146	0.399070	-0.000020
C52	C	1.585146	0.899070	0.499980
N53	N	1.089591	0.128077	0.195662
N54	N	1.589591	0.628077	0.695662
N55	N	1.089640	0.128097	-0.195670
N56	N	1.589640	0.628097	0.304330
C57	C	1.152202	0.065515	0.238930
C58	C	1.652202	0.565515	0.738930
C59	C	1.152207	0.065514	0.325477
C60	C	1.652207	0.565514	0.825477
C61	C	1.089604	0.128080	0.368754
C62	C	1.589604	0.628080	0.868754
C63	C	1.026986	0.190646	0.325480
C64	C	1.526986	0.690646	0.825480
C65	C	1.026978	0.190641	0.238935
C66	C	1.526978	0.690641	0.738935
C67	C	1.027018	0.190663	0.674509
C68	C	1.527018	0.690663	1.174509
C69	C	1.027033	0.190664	0.761060
C70	C	1.527033	0.690664	1.261060
C71	C	1.152247	0.065535	0.761050
C72	C	1.652247	0.565535	1.261050
C73	C	1.152239	0.065531	0.674505
C74	C	1.652239	0.565531	1.174505
C75	C	1.089618	0.128093	0.631239
C76	C	1.589618	0.628093	1.131239
C77	C	1.089612	0.128092	0.537394
C78	C	1.589612	0.628092	1.037394
C79	C	1.089613	0.128086	0.462597
C80	C	1.589613	0.628086	0.962597
H81	H	1.203184	0.014570	0.203699
H82	H	1.703184	0.514570	0.703699
H83	H	0.976032	0.241604	0.639288
H84	H	1.476032	0.741604	1.139288
H85	H	0.975993	0.241585	0.203707
H86	H	1.475993	0.741585	0.703707
H87	H	1.203233	0.014591	0.796287
H88	H	1.703233	0.514591	1.296287
H89	H	0.976009	0.241585	0.360722
H90	H	1.476009	0.741585	0.860722
C91	C	0.958160	0.259486	0.808668
C92	C	1.458160	0.759486	1.308668
C93	C	0.889276	0.328300	0.761080
C94	C	1.389276	0.828300	1.261080
C95	C	0.820409	0.397118	0.808688
C96	C	1.320409	0.897118	1.308688
C97	C	0.820425	0.397123	0.903885
C98	C	1.320425	0.897123	1.403885
C99	C	0.889312	0.328307	0.951479
C100	C	1.389312	0.828307	1.451479
C101	C	0.958180	0.259489	0.903870
C102	C	1.458180	0.759489	1.403870
H103	H	0.889262	0.328298	0.690605
H104	H	1.389262	0.828298	1.190605
H105	H	0.769414	0.448060	0.773456
H106	H	1.269414	0.948060	1.273456
H107	H	0.769446	0.448066	0.939128
H108	H	1.269446	0.948066	1.439128
H109	H	0.889327	0.328308	1.021954
H110	H	1.389327	0.828308	1.521954
H111	H	1.009174	0.208547	0.939103
H112	H	1.509174	0.708547	1.439103
H113	H	1.203189	0.014570	0.360705
H114	H	1.703189	0.514570	0.860705
H115	H	1.203218	0.014587	0.639271
H116	H	1.703218	0.514587	1.139271
