data_functionalizedCrystal
_audit_creation_method	'MofGen! by Chris Wilmer'
_symmetry_space_group_name_H-M	'P1'
_symmetry_Int_Tables_number	1
_symmetry_cell_setting	triclinic
loop_
_symmetry_equiv_pos_as_xyz
  x,y,z
_cell_length_a	29.839134
_cell_length_b	19.805405
_cell_length_c	19.805399
_cell_angle_alpha	90.029301
_cell_angle_beta	89.971645
_cell_angle_gamma	89.978729
loop_
_atom_site_label
_atom_site_type_symbol
_atom_site_fract_x
_atom_site_fract_y
_atom_site_fract_z
Zn1	Zn	0.686795	0.269572	-0.382870
Zn2	Zn	1.186795	0.769572	0.117130
Zn3	Zn	0.686738	0.382760	-0.269678
Zn4	Zn	1.186738	0.882760	0.230322
Zn5	Zn	0.611669	0.269580	-0.269677
Zn6	Zn	1.111669	0.769580	0.230323
Zn7	Zn	0.611645	0.382714	-0.382808
Zn8	Zn	1.111645	0.882714	0.117192
O9	O	0.649212	0.326156	-0.326258
O10	O	1.149212	0.826156	0.173742
O11	O	0.749654	0.284602	-0.367882
O12	O	1.249654	0.784602	0.132118
O13	O	0.676767	0.367769	-0.174962
O14	O	1.176767	0.867769	0.325038
O15	O	0.621669	0.174862	-0.284718
O16	O	1.121669	0.674862	0.215282
O17	O	0.749613	0.367761	-0.284720
O18	O	1.249613	0.867761	0.215280
O19	O	0.676863	0.174856	-0.367880
O20	O	1.176863	0.674856	0.132120
O21	O	0.621614	0.284617	-0.174961
O22	O	1.121614	0.784617	0.325039
O23	O	0.548799	0.284572	-0.284658
O24	O	1.048799	0.784572	0.215342
O25	O	0.621627	0.367682	-0.477533
O26	O	1.121627	0.867682	0.022467
O27	O	0.548781	0.367691	-0.367774
O28	O	1.048781	0.867691	0.132226
O29	O	0.676840	0.284557	-0.477578
O30	O	1.176840	0.784557	0.022422
O31	O	0.676743	0.477470	-0.284660
O32	O	1.176743	0.977470	0.215340
O33	O	0.621572	0.477437	-0.367775
O34	O	1.121572	0.977437	0.132225
C35	C	0.532489	0.326128	-0.326210
C36	C	1.032489	0.826128	0.173790
C37	C	0.482555	0.326132	-0.326205
C38	C	0.982555	0.826132	0.173795
C39	C	0.649161	0.502012	-0.326226
C40	C	1.149161	1.002012	0.173774
C41	C	0.649181	0.577244	-0.326234
C42	C	1.149181	1.077244	0.173766
C43	C	0.649237	0.326114	-0.502801
C44	C	1.149237	0.826114	-0.002801
C45	C	0.649248	0.326096	-0.578033
C46	C	1.149248	0.826096	-0.078033
C47	C	0.172912	0.369500	-0.369484
C48	C	0.672912	0.869500	0.130516
C49	C	-0.014761	0.369519	-0.369514
C50	C	0.485239	0.869519	0.130486
O51	O	-0.039026	0.406361	-0.406283
O52	O	0.460974	0.906361	0.093717
N53	N	-0.038230	0.326181	-0.326309
N54	N	0.461770	0.826181	0.173691
C55	C	-0.014778	0.282832	-0.283097
C56	C	0.485222	0.782832	0.216903
O57	O	-0.039046	0.245966	-0.246354
O58	O	0.460954	0.745966	0.253646
C59	C	0.172894	0.282810	-0.283071
C60	C	0.672894	0.782810	0.216929
C61	C	0.196361	0.326156	-0.326274
C62	C	0.696361	0.826156	0.173726
C63	C	0.196378	0.412842	-0.412684
C64	C	0.696378	0.912842	0.087316
C65	C	0.243294	0.412840	-0.412673
C66	C	0.743294	0.912840	0.087327
C67	C	0.266743	0.369495	-0.369463
C68	C	0.766743	0.869495	0.130537
C69	C	0.243276	0.326153	-0.326263
C70	C	0.743276	0.826153	0.173737
C71	C	0.196346	0.239458	-0.239863
C72	C	0.696346	0.739458	0.260137
C73	C	0.243267	0.239455	-0.239861
C74	C	0.743267	0.739455	0.260139
C75	C	0.266733	0.282801	-0.283064
C76	C	0.766733	0.782801	0.216936
C77	C	0.313641	0.282806	-0.283042
C78	C	0.813641	0.782806	0.216958
N79	N	0.337109	0.326144	-0.326247
N80	N	0.837109	0.826144	0.173753
C81	C	0.313660	0.369489	-0.369457
C82	C	0.813660	0.869489	0.130543
C83	C	-0.113309	0.282848	-0.283113
C84	C	0.386691	0.782848	0.216887
C85	C	-0.160226	0.282854	-0.283119
C86	C	0.339774	0.782854	0.216881
C87	C	-0.160207	0.369541	-0.369537
C88	C	0.339793	0.869541	0.130463
C89	C	-0.113288	0.369537	-0.369527
C90	C	0.386712	0.869537	0.130473
C91	C	-0.089840	0.326186	-0.326318
C92	C	0.410160	0.826186	0.173682
C93	C	0.412186	0.369481	-0.369432
C94	C	0.912186	0.869481	0.130568
C95	C	0.459106	0.369476	-0.369415
C96	C	0.959106	0.869476	0.130585
C97	C	0.459082	0.282787	-0.283000
C98	C	0.959082	0.782787	0.217000
C99	C	0.412166	0.282794	-0.283013
C100	C	0.912166	0.782794	0.216987
C101	C	0.388720	0.326143	-0.326235
C102	C	0.888720	0.826143	0.173765
O103	O	0.337934	0.245978	-0.246298
O104	O	0.837934	0.745978	0.253702
O105	O	0.337936	0.406339	-0.406205
O106	O	0.837936	0.906339	0.093795
C107	C	0.125996	0.369503	-0.369495
C108	C	0.625996	0.869503	0.130505
C109	C	0.102530	0.326161	-0.326295
C110	C	0.602530	0.826161	0.173705
C111	C	0.125979	0.282817	-0.283084
C112	C	0.625979	0.782817	0.216916
C113	C	0.055612	0.326167	-0.326300
C114	C	0.555612	0.826167	0.173700
C115	C	0.032163	0.369512	-0.369511
C116	C	0.532163	0.869512	0.130489
C117	C	0.055632	0.412850	-0.412716
C118	C	0.555632	0.912850	0.087284
C119	C	0.102547	0.412847	-0.412705
C120	C	0.602547	0.912847	0.087295
C121	C	0.102510	0.239478	-0.239880
C122	C	0.602510	0.739478	0.260120
C123	C	0.055594	0.239485	-0.239893
C124	C	0.555594	0.739485	0.260107
C125	C	0.032145	0.282830	-0.283104
C126	C	0.532145	0.782830	0.216896
C127	C	0.766390	0.326186	-0.326308
C128	C	1.266390	0.826186	0.173692
C129	C	0.816325	0.326198	-0.326329
C130	C	1.316325	0.826198	0.173671
C131	C	0.649275	0.149614	-0.326306
C132	C	1.149275	0.649614	0.173694
C133	C	0.649302	0.074382	-0.326326
C134	C	1.149302	0.574382	0.173674
C135	C	0.677936	0.612584	-0.283001
C136	C	1.177936	1.112584	0.216999
C137	C	0.677955	0.683272	-0.283016
C138	C	1.177955	1.183272	0.216984
C139	C	0.649216	0.718620	-0.326261
C140	C	1.149216	1.218620	0.173739
C141	C	0.620460	0.683276	-0.369499
C142	C	1.120460	1.183276	0.130501
C143	C	0.620443	0.612589	-0.369487
C144	C	1.120443	1.112589	0.130513
C145	C	0.620526	0.968349	-0.369549
C146	C	1.120526	1.468349	0.130451
C147	C	0.620544	1.039041	-0.369557
C148	C	1.120544	1.539041	0.130443
C149	C	0.678038	1.039033	-0.283079
C150	C	1.178038	1.539033	0.216921
C151	C	0.678021	0.968345	-0.283066
C152	C	1.178021	1.468345	0.216934
C153	C	0.649267	0.933007	-0.326306
C154	C	1.149267	1.433007	0.173694
C155	C	0.649247	0.856359	-0.326291
C156	C	1.149247	1.356359	0.173709
C157	C	0.649233	0.795267	-0.326274
C158	C	1.149233	1.295267	0.173726
C159	C	0.677997	0.282810	-0.613402
C160	C	1.177997	0.782810	-0.113402
C161	C	0.678002	0.282791	-0.684091
C162	C	1.178002	0.782791	-0.184091
C163	C	0.649259	0.326060	-0.719409
C164	C	1.149259	0.826060	-0.219409
C165	C	0.620506	0.369348	-0.684035
C166	C	1.120506	0.869348	-0.184035
C167	C	0.620500	0.369363	-0.613348
C168	C	1.120500	0.869363	-0.113348
C169	C	0.620531	0.369284	-0.969108
C170	C	1.120531	0.869284	-0.469108
C171	C	0.620541	0.369267	-1.039801
C172	C	1.120541	0.869267	-0.539801
C173	C	0.678034	0.282712	-1.039851
C174	C	1.178034	0.782712	-0.539851
C175	C	0.678027	0.282727	-0.969164
C176	C	1.178027	0.782727	-0.469164
C177	C	0.649273	0.326012	-0.933796
C178	C	1.149273	0.826012	-0.433796
C179	C	0.649268	0.326032	-0.857148
C180	C	1.149268	0.826032	-0.357148
C181	C	0.649266	0.326044	-0.796056
C182	C	1.149266	0.826044	-0.296056
C183	C	0.649213	0.326150	-0.150402
C184	C	1.149213	0.826150	0.349598
C185	C	0.649289	0.325978	-0.075171
C186	C	1.149289	0.825978	0.424829
H187	H	0.393101	0.404778	-0.404628
H188	H	0.893101	0.904778	0.095372
H189	H	0.177291	0.448139	-0.447875
H190	H	0.677291	0.948139	0.052125
O191	O	0.592487	0.578185	-0.411390
O192	O	1.092487	1.078185	0.088610
C193	C	0.563468	0.537365	-0.372804
C194	C	1.063468	1.037365	0.127196
H195	H	0.579329	0.526790	-0.321533
H196	H	1.079329	1.026790	0.178467
H197	H	0.557426	0.487647	-0.400358
H198	H	1.057426	0.987647	0.099642
H199	H	0.530184	0.564648	-0.365318
H200	H	1.030184	1.064648	0.134682
H201	H	0.036531	0.448145	-0.447897
H202	H	0.536531	0.948145	0.052103
H203	H	0.393059	0.247499	-0.247833
H204	H	0.893059	0.747499	0.252167
O205	O	0.266064	0.454869	-0.454745
O206	O	0.766064	0.954869	0.045255
C207	C	0.254613	0.440169	-0.522227
C208	C	0.754613	0.940169	-0.022227
H209	H	0.241732	0.386099	-0.525736
H210	H	0.741732	0.886099	-0.025736
H211	H	0.285476	0.446042	-0.555661
H212	H	0.785476	0.946042	-0.055661
H213	H	0.227374	0.476476	-0.539853
H214	H	0.727374	0.976476	-0.039853
O215	O	0.592626	0.411513	-0.579014
O216	O	1.092626	0.911513	-0.079014
C217	C	0.602418	0.478969	-0.596285
C218	C	1.102418	0.978969	-0.096285
H219	H	0.638307	0.482385	-0.615742
H220	H	1.138307	0.982385	-0.115742
H221	H	0.598538	0.512417	-0.549785
H222	H	1.098538	1.012417	-0.049785
H223	H	0.578328	0.496652	-0.637293
H224	H	1.078328	0.996652	-0.137293
H225	H	0.701453	1.067813	-0.247873
H226	H	1.201453	1.567813	0.252127
H227	H	0.262356	0.204148	-0.204678
H228	H	0.762356	0.704148	0.295322
H229	H	0.597112	0.939582	-0.404755
H230	H	1.097112	1.439582	0.095245
O231	O	0.705934	0.240714	-0.579202
O232	O	1.205934	0.740714	-0.079202
C233	C	0.731317	0.202516	-0.625581
C234	C	1.231317	0.702516	-0.125581
H235	H	0.712920	0.200158	-0.675960
H236	H	1.212920	0.700158	-0.175960
H237	H	0.736126	0.149193	-0.605177
H238	H	1.236126	0.649193	-0.105177
H239	H	0.765429	0.227309	-0.633111
H240	H	1.265429	0.727309	-0.133111
H241	H	0.597062	0.712062	-0.404713
H242	H	1.097062	1.212062	0.095287
H243	H	0.597124	0.404539	-0.940320
H244	H	1.097124	0.904539	-0.440320
O245	O	0.592613	1.073274	-0.411635
O246	O	1.092613	1.573274	0.088365
C247	C	0.567223	1.026927	-0.449788
C248	C	1.067223	1.526927	0.050212
H249	H	0.585610	0.976516	-0.452154
H250	H	1.085610	1.476516	0.047846
H251	H	0.562419	1.047325	-0.503111
H252	H	1.062419	1.547325	-0.003111
H253	H	0.533109	1.019464	-0.424951
H254	H	1.033109	1.519464	0.075049
O255	O	0.481796	0.240665	-0.240960
O256	O	0.981796	0.740665	0.259040
C257	C	0.451026	0.202395	-0.202839
C258	C	0.951026	0.702395	0.297161
H259	H	0.417573	0.230112	-0.200447
H260	H	0.917573	0.730112	0.299553
H261	H	0.464565	0.195106	-0.149522
H262	H	0.964565	0.695106	0.350478
H263	H	0.446060	0.151022	-0.227719
H264	H	0.946060	0.651022	0.272281
O265	O	-0.182940	0.411610	-0.411609
O266	O	0.317060	0.911610	0.088391
C267	C	-0.171457	0.396885	-0.479094
C268	C	0.328543	0.896885	0.020906
H269	H	-0.137384	0.370870	-0.480539
H270	H	0.362616	0.870870	0.019461
H271	H	-0.169855	0.445769	-0.509363
H272	H	0.330145	0.945769	-0.009363
H273	H	-0.197845	0.362110	-0.501949
H274	H	0.302155	0.862110	-0.001949
H275	H	0.036492	0.204188	-0.204706
H276	H	0.536492	0.704188	0.295294
O277	O	0.481831	0.411605	-0.411450
O278	O	0.981831	0.911605	0.088550
C279	C	0.451070	0.449870	-0.449579
C280	C	0.951070	0.949870	0.050421
H281	H	0.417633	0.422149	-0.451977
H282	H	0.917633	0.922149	0.048023
H283	H	0.464645	0.457160	-0.502893
H284	H	0.964645	0.957160	-0.002893
H285	H	0.446057	0.501244	-0.424701
H286	H	0.946057	1.001244	0.075299
H287	H	0.701414	0.247545	-0.712885
H288	H	1.201414	0.747545	-0.212885
O289	O	0.705962	0.240631	-0.934962
O290	O	1.205962	0.740631	-0.434962
C291	C	0.731347	0.202432	-0.981338
C292	C	1.231347	0.702432	-0.481338
H293	H	0.712952	0.200073	-1.031718
H294	H	1.212952	0.700073	-0.531718
H295	H	0.736155	0.149109	-0.960932
H296	H	1.236155	0.649109	-0.460932
H297	H	0.765459	0.227223	-0.988866
H298	H	1.265459	0.727223	-0.488866
H299	H	0.701370	0.712042	-0.247811
H300	H	1.201370	1.212042	0.252189
H301	H	0.701445	0.247465	-1.068656
H302	H	1.201445	0.747465	-0.568656
O303	O	-0.182949	0.240689	-0.241124
O304	O	0.317051	0.740689	0.258876
C305	C	-0.152186	0.202445	-0.202977
C306	C	0.347814	0.702445	0.297023
H307	H	-0.118731	0.200139	-0.230704
H308	H	0.381269	0.700139	0.269296
H309	H	-0.165731	0.149107	-0.195855
H310	H	0.334269	0.649107	0.304145
H311	H	-0.147220	0.227163	-0.151526
H312	H	0.352780	0.727163	0.348474
O313	O	0.592574	0.411320	-1.074005
O314	O	1.092574	0.911320	-0.574005
C315	C	0.567200	0.449539	-1.027632
C316	C	1.067200	0.949539	-0.527632
H317	H	0.565648	0.421827	-0.977250
H318	H	1.065648	0.921827	-0.477250
H319	H	0.531804	0.456739	-1.048040
H320	H	1.031804	0.956739	-0.548040
H321	H	0.583628	0.500953	-1.020108
H322	H	1.083628	1.000953	-0.520108
O323	O	0.592649	0.411451	-0.718372
O324	O	1.092649	0.911451	-0.218372
C325	C	0.618213	0.455155	-0.759273
C326	C	1.118213	0.955155	-0.259273
H327	H	0.653593	0.459351	-0.737987
H328	H	1.153593	0.959351	-0.237987
H329	H	0.601946	0.507239	-0.760052
H330	H	1.101946	1.007239	-0.260052
H331	H	0.619775	0.434216	-0.812852
H332	H	1.119775	0.934216	-0.312852
O333	O	-0.090445	0.411545	-0.411532
O334	O	0.409555	0.911545	0.088468
C335	C	-0.063293	0.373063	-0.455331
C336	C	0.436707	0.873063	0.044669
H337	H	-0.056260	0.321738	-0.431552
H338	H	0.443740	0.821738	0.068448
H339	H	-0.030303	0.400643	-0.464354
H340	H	0.469697	0.900643	0.035646
H341	H	-0.081358	0.365693	-0.505502
H342	H	0.418642	0.865693	-0.005502
H343	H	-0.094221	0.247545	-0.247923
H344	H	0.405779	0.747545	0.252077
O345	O	0.173627	0.197283	-0.197877
O346	O	0.673627	0.697283	0.302123
C347	C	0.204394	0.159040	-0.159735
C348	C	0.704394	0.659040	0.340265
H349	H	0.237849	0.156743	-0.187463
H350	H	0.737849	0.656743	0.312537
H351	H	0.190853	0.105698	-0.152621
H352	H	0.690853	0.605698	0.347379
H353	H	0.209359	0.183751	-0.108281
H354	H	0.709359	0.683751	0.391719
O355	O	0.125270	0.454972	-0.454740
O356	O	0.625270	0.954972	0.045260
C357	C	0.094504	0.493236	-0.492863
C358	C	0.594504	0.993236	0.007137
H359	H	0.061068	0.465513	-0.495255
H360	H	0.561068	0.965513	0.004745
H361	H	0.108075	0.500526	-0.546179
H362	H	0.608075	1.000526	-0.046179
H363	H	0.089492	0.544610	-0.467985
H364	H	0.589492	1.044610	0.032015
H365	H	0.701336	0.583808	-0.247783
H366	H	1.201336	1.083808	0.252217
O367	O	0.125215	0.197351	-0.197838
O368	O	0.625215	0.697351	0.302162
C369	C	0.094435	0.159092	-0.159724
C370	C	0.594435	0.659092	0.340276
H371	H	0.060985	0.186819	-0.157346
H372	H	0.560985	0.686819	0.342654
H373	H	0.107965	0.151802	-0.106403
H374	H	0.607965	0.651802	0.393597
H375	H	0.089466	0.107719	-0.184603
H376	H	0.589466	0.607719	0.315397
H377	H	0.701422	0.939567	-0.247850
H378	H	1.201422	1.439567	0.252150
