data_functionalizedCrystal
_audit_creation_method	'MofGen! by Chris Wilmer'
_symmetry_space_group_name_H-M	'P1'
_symmetry_Int_Tables_number	1
_symmetry_cell_setting	triclinic
loop_
_symmetry_equiv_pos_as_xyz
  x,y,z
_cell_length_a	12.837943
_cell_length_b	19.288865
_cell_length_c	11.295501
_cell_angle_alpha	94.616591
_cell_angle_beta	94.169432
_cell_angle_gamma	88.982594
loop_
_atom_site_label
_atom_site_type_symbol
_atom_site_fract_x
_atom_site_fract_y
_atom_site_fract_z
O1	O	-1.380819	-0.185096	-0.099034
O2	O	-1.079055	-0.176180	-0.099039
O3	O	-1.238655	-0.080102	-0.099013
O4	O	-1.221219	-0.281174	-0.099060
O5	O	-1.226226	-0.070930	0.099040
O6	O	-1.066627	-0.167007	0.099013
O7	O	-1.368390	-0.175924	0.099019
Cu8	Cu	-1.216374	-0.170628	0.117100
Cu9	Cu	-1.231072	-0.181475	-0.117120
O10	O	-1.208790	-0.272002	0.098992
C11	C	-1.034234	-0.168581	-0.000013
C12	C	-0.919199	-0.159597	-0.000014
C13	C	-1.231879	-0.049601	0.000017
C14	C	-1.230194	0.027618	0.000028
C15	C	-1.413211	-0.183523	-0.000010
C16	C	-1.528247	-0.192507	-0.000016
C17	C	-0.677737	-0.267603	-0.000023
C18	C	-0.569651	-0.259165	-0.000023
C19	C	-0.594937	-0.134283	-0.000006
C20	C	-0.703024	-0.142721	-0.000006
C21	C	-0.744420	-0.209383	-0.000016
C22	C	-0.852509	-0.217821	-0.000025
C23	C	-0.877793	-0.092940	0.000001
C24	C	-0.769706	-0.084501	0.000001
C25	C	-1.215566	-0.302503	-0.000040
C26	C	-1.217252	-0.379722	-0.000058
N27	N	-1.206043	-0.162999	0.281838
C28	C	-1.323841	0.065920	0.000035
C29	C	-1.322259	0.138475	0.000016
C30	C	-1.227025	0.172725	0.000014
C31	C	-1.133367	0.134414	-0.000001
C32	C	-1.134951	0.061860	0.000006
C33	C	-1.147806	0.289337	0.069386
C34	C	-1.146225	0.361890	0.069386
C35	C	-1.222133	0.396503	-0.000013
C36	C	-1.299640	0.358557	-0.069397
C37	C	-1.301225	0.286003	-0.069390
C38	C	-1.225296	0.251397	0.000005
C39	C	-1.314072	0.513477	-0.000028
C40	C	-1.312487	0.586032	-0.000054
C41	C	-1.123591	0.581971	-0.000059
C42	C	-1.125179	0.509416	-0.000044
C43	C	-1.220422	0.475174	-0.000023
N44	N	-1.241411	-0.189100	-0.281858
C45	C	-1.315764	-0.244053	0.531112
C46	C	-1.307965	-0.238282	0.655777
C47	C	-1.182653	-0.145684	0.655834
C48	C	-1.190452	-0.151454	0.531169
C49	C	-1.257008	-0.200641	0.468813
C50	C	-1.264801	-0.206415	0.344146
C51	C	-1.139495	-0.113814	0.344205
C52	C	-1.131696	-0.108043	0.468870
H53	H	-0.886211	-0.272101	-0.000031
H54	H	-1.128477	-0.105631	0.706626
H55	H	-0.735986	-0.030226	0.000023
H56	H	-1.046049	0.609856	-0.000067
F57	F	-0.721797	-0.338549	-0.000048
H58	H	-1.388749	0.617217	-0.000054
H59	H	-1.048921	0.478230	-0.000044
F60	F	-1.060866	-0.055697	0.535247
F61	F	-1.035275	0.021095	-0.000002
F62	F	-1.370504	-0.284485	0.722076
H63	H	-1.369947	-0.284109	0.480340
H64	H	-1.091646	-0.078468	0.293468
F65	F	-1.335635	-0.258763	0.277783
F66	F	-1.032012	0.170866	-0.000011
H67	H	-1.361452	0.386737	-0.125910
F68	F	-0.498685	-0.321130	-0.000027
H69	H	-1.085989	0.261161	0.125906
F70	F	-0.550862	-0.063341	0.000019
H71	H	-1.401395	0.038045	0.000048
F72	F	-1.421935	0.179246	0.000022
F73	F	-0.948770	-0.030975	-0.000007
H74	H	-1.364332	0.255110	-0.125888
H75	H	-1.391625	0.485596	-0.000016
F76	F	-1.063739	0.402269	0.143235
