data_functionalizedCrystal
_audit_creation_method	'MofGen! by Chris Wilmer'
_symmetry_space_group_name_H-M	'P1'
_symmetry_Int_Tables_number	1
_symmetry_cell_setting	triclinic
loop_
_symmetry_equiv_pos_as_xyz
  x,y,z
_cell_length_a	19.288864
_cell_length_b	27.732048
_cell_length_c	18.366186
_cell_angle_alpha	89.988789
_cell_angle_beta	89.977106
_cell_angle_gamma	82.889449
loop_
_atom_site_label
_atom_site_type_symbol
_atom_site_fract_x
_atom_site_fract_y
_atom_site_fract_z
O1	O	0.920977	0.060300	-0.060791
O2	O	0.718665	0.068434	-0.060742
O3	O	0.826104	-0.006011	-0.060754
O4	O	0.813538	0.134745	-0.060779
O5	O	0.826086	-0.006014	0.060345
O6	O	0.718647	0.068430	0.060357
O7	O	0.920959	0.060296	0.060309
Zn8	Zn	0.819800	0.064363	0.079560
Zn9	Zn	0.819824	0.064368	-0.079994
O10	O	0.813520	0.134741	0.060321
C11	C	0.692781	0.068171	-0.000186
C12	C	0.615683	0.067385	-0.000167
C13	C	0.570714	0.111066	-0.000186
C14	C	0.498271	0.110328	-0.000194
C15	C	0.470801	0.065906	-0.000197
C16	C	0.515780	0.022219	-0.000174
C17	C	0.588220	0.022959	-0.000159
C18	C	0.362763	0.030987	-0.042642
C19	C	0.290323	0.030250	-0.042662
C20	C	0.247370	0.063624	-0.000241
C21	C	0.276863	0.097744	0.042190
C22	C	0.349304	0.098483	0.042206
C23	C	0.392252	0.065099	-0.000213
C24	C	0.123850	0.106507	-0.000268
C25	C	0.051406	0.105767	-0.000271
C26	C	0.068916	0.017658	-0.000258
C27	C	0.141358	0.018399	-0.000248
C28	C	0.168820	0.062825	-0.000256
C29	C	0.825831	-0.024020	-0.000202
C30	C	0.825037	-0.077678	-0.000196
C31	C	0.883526	-0.416316	-0.000248
C32	C	0.880579	-0.617985	-0.000257
O33	O	0.934063	-0.649079	-0.000302
N34	N	0.816872	-0.637301	-0.000241
C35	C	0.753897	-0.606196	-0.000227
O36	O	0.699643	-0.627253	-0.000222
C37	C	0.756845	-0.404529	-0.000223
C38	C	0.820556	-0.385216	-0.000232
C39	C	0.947232	-0.397002	-0.000257
C40	C	0.947968	-0.346588	-0.000251
C41	C	0.884998	-0.315488	-0.000235
C42	C	0.821292	-0.334801	-0.000226
C43	C	0.693871	-0.373425	-0.000215
C44	C	0.694614	-0.323006	-0.000216
C45	C	0.758325	-0.303693	-0.000224
C46	C	0.759059	-0.253287	-0.000203
N47	N	0.822766	-0.233971	-0.000219
C48	C	0.885735	-0.265071	-0.000235
C49	C	0.752354	-0.712075	-0.000228
C50	C	0.751617	-0.762492	-0.000228
C51	C	0.878299	-0.774276	-0.000259
C52	C	0.879035	-0.723859	-0.000254
C53	C	0.816061	-0.692759	-0.000244
C54	C	0.887276	-0.159197	-0.000221
C55	C	0.888007	-0.108778	-0.000212
C56	C	0.761325	-0.096998	-0.000185
C57	C	0.760595	-0.147412	-0.000190
C58	C	0.823576	-0.178511	-0.000211
O59	O	0.705603	-0.222164	-0.000167
O60	O	0.939982	-0.244005	-0.000257
C61	C	0.882790	-0.466730	-0.000254
C62	C	0.819084	-0.486044	-0.000245
C63	C	0.756114	-0.454943	-0.000229
C64	C	0.818347	-0.536461	-0.000244
C65	C	0.881317	-0.567561	-0.000260
C66	C	0.945023	-0.548245	-0.000276
C67	C	0.945760	-0.497831	-0.000270
C68	C	0.692407	-0.474260	-0.000213
C69	C	0.691676	-0.524674	-0.000218
C70	C	0.754646	-0.555775	-0.000234
C71	C	0.946842	0.060560	-0.000249
C72	C	1.023941	0.061345	-0.000273
C73	C	0.813792	0.152751	-0.000233
C74	C	0.814587	0.206408	-0.000244
N75	N	0.819789	0.064359	0.188451
N76	N	0.819841	0.064367	-0.188885
C77	C	0.867378	0.031411	0.226546
C78	C	0.867383	0.031409	0.302774
C79	C	0.819804	0.064363	0.340904
C80	C	0.772206	0.097314	0.302800
C81	C	0.772198	0.097312	0.226573
C82	C	0.810231	0.108406	0.461658
C83	C	0.810244	0.108409	0.537883
C84	C	0.819824	0.064369	0.576011
C85	C	0.829406	0.020325	0.537906
C86	C	0.829398	0.020323	0.461679
C87	C	0.819807	0.064369	0.423559
C88	C	0.867421	0.031416	0.696761
C89	C	0.867420	0.031413	0.772991
C90	C	0.772247	0.097322	0.773015
C91	C	0.772244	0.097321	0.696787
C92	C	0.819835	0.064368	0.658665
H93	H	0.046551	-0.018511	-0.000306
C94	C	0.839927	-0.028120	0.419763
H95	H	0.845730	-0.054349	0.453381
H96	H	0.880319	-0.029141	0.389924
H97	H	0.800215	-0.030758	0.390132
C98	C	0.001940	0.153819	-0.000292
H99	H	0.028674	0.180381	-0.000302
H100	H	-0.026706	0.155364	0.041932
H101	H	-0.026659	0.155359	-0.042533
H102	H	0.641991	-0.389141	-0.000212
C103	C	0.799688	0.156851	0.419720
H104	H	0.801048	0.150542	0.368866
H105	H	0.835807	0.175730	0.432184
H106	H	0.755692	0.174163	0.432231
H107	H	0.733495	0.124152	0.665768
H108	H	0.837207	-0.015536	0.568948
C109	C	0.719911	0.133571	0.814948
H110	H	0.726733	0.128856	0.865803
H111	H	0.673612	0.128404	0.802482
H112	H	0.727110	0.165820	0.802441
H113	H	0.593069	0.147241	-0.000194
H114	H	0.266315	0.002469	-0.077215
H115	H	0.701070	-0.686757	-0.000220
C116	C	0.692062	-0.062783	-0.000172
H117	H	0.654011	-0.081504	-0.000163
H118	H	0.689732	-0.042866	-0.042401
H119	H	0.689709	-0.042876	0.042064
C120	C	0.190826	-0.029650	-0.000238
H121	H	0.164092	-0.056213	-0.000247
H122	H	0.219427	-0.031196	0.041997
H123	H	0.219470	-0.031190	-0.042469
C124	C	0.919734	-0.004832	0.344691
H125	H	0.912919	-0.000112	0.395548
H126	H	0.966030	0.000338	0.332172
H127	H	0.912540	-0.037084	0.332218
C128	C	0.719853	0.133560	0.184667
H129	H	0.691518	0.153188	0.218290
H130	H	0.691127	0.116223	0.154948
H131	H	0.744625	0.153639	0.154915
H132	H	0.397731	0.003809	-0.077191
C133	C	0.448797	0.158378	-0.000226
H134	H	0.475528	0.184942	-0.000235
H135	H	0.420144	0.159925	0.041994
H136	H	0.420205	0.159914	-0.042472
C137	C	0.229624	0.134460	0.088851
H138	H	0.182257	0.129132	0.082772
H139	H	0.235150	0.166561	0.073928
H140	H	0.242312	0.130332	0.138643
C141	C	0.919760	-0.004834	0.654824
H142	H	0.948097	-0.024463	0.688433
H143	H	0.948483	0.012501	0.625067
H144	H	0.894984	-0.024913	0.625109
C145	C	0.919773	-0.004831	0.814896
H146	H	0.948117	-0.024451	0.781271
H147	H	0.895013	-0.024911	0.844652
H148	H	0.948498	0.012514	0.844609
C149	C	0.625342	-0.288796	-0.000204
H150	H	0.634900	-0.256003	-0.000209
H151	H	0.599187	-0.294645	0.042028
H152	H	0.599209	-0.294633	-0.042437
C153	C	0.381749	0.136007	0.088879
H154	H	0.431043	0.131668	0.082807
H155	H	0.370695	0.131637	0.138663
H156	H	0.363534	0.167870	0.073952
H157	H	0.493409	-0.013949	-0.000187
H158	H	0.930914	-0.708138	-0.000262
C159	C	0.799705	0.156852	0.579796
H160	H	0.801090	0.150547	0.630654
H161	H	0.755710	0.174164	0.567322
H162	H	0.835825	0.175731	0.567275
H163	H	0.733466	0.124145	0.333849
H164	H	0.146211	0.142682	-0.000263
H165	H	0.639791	-0.540394	-0.000205
H166	H	0.624835	-0.012613	-0.000144
H167	H	0.939890	-0.093056	-0.000217
H168	H	0.938562	-0.184513	-0.000241
H169	H	0.999848	-0.330868	-0.000261
C170	C	1.016505	-0.431206	-0.000269
H171	H	1.054545	-0.412475	-0.000269
H172	H	1.018869	-0.451117	-0.042496
H173	H	1.018845	-0.451120	0.041969
H174	H	0.997640	-0.482111	-0.000277
H175	H	0.708716	-0.163138	-0.000163
C176	C	0.681537	-0.783733	-0.000210
H177	H	0.690110	-0.818214	-0.000207
H178	H	0.655641	-0.773041	-0.042434
H179	H	0.655628	-0.773053	0.042031
C180	C	1.014288	-0.582462	-0.000299
H181	H	1.004718	-0.615252	-0.000308
H182	H	1.040436	-0.576633	0.041922
H183	H	1.040436	-0.576615	-0.042543
C184	C	0.947564	-0.808493	-0.000288
H185	H	0.937994	-0.841284	-0.000294
H186	H	0.973716	-0.802664	0.041930
H187	H	0.973706	-0.802646	-0.042535
C188	C	0.623137	-0.440055	-0.000188
H189	H	0.585095	-0.458784	-0.000173
H190	H	0.620787	-0.420133	-0.042412
H191	H	0.620786	-0.420153	0.042053
H192	H	0.906127	0.004578	0.195509
