data_functionalizedCrystal
_audit_creation_method	'MofGen! by Chris Wilmer'
_symmetry_space_group_name_H-M	'P1'
_symmetry_Int_Tables_number	1
_symmetry_cell_setting	triclinic
loop_
_symmetry_equiv_pos_as_xyz
  x,y,z
_cell_length_a	10.540510
_cell_length_b	10.540539
_cell_length_c	9.616153
_cell_angle_alpha	90.004826
_cell_angle_beta	90.000246
_cell_angle_gamma	95.480599
loop_
_atom_site_label
_atom_site_type_symbol
_atom_site_fract_x
_atom_site_fract_y
_atom_site_fract_z
O1	O	0.178898	-1.685873	-0.115572
O2	O	0.195754	-1.316458	-0.115588
O3	O	0.002617	-1.509613	-0.115579
O4	O	0.372035	-1.492718	-0.115581
O5	O	0.002621	-1.509587	0.115712
O6	O	0.195758	-1.316432	0.115703
O7	O	0.178902	-1.685846	0.115720
Zn8	Zn	0.187330	-1.501135	0.152434
Zn9	Zn	0.187325	-1.501170	-0.152302
O10	O	0.372039	-1.492691	0.115711
C11	C	-0.044685	-1.508341	0.000064
C12	C	-0.185635	-1.504574	0.000055
C13	C	0.194492	-1.269142	0.000055
C14	C	0.190710	-1.128194	0.000049
N15	N	0.187333	-1.501120	0.360408
C16	C	-0.403090	-1.638758	0.000591
C17	C	-0.256495	-1.642776	0.000063
C18	C	-0.230396	-1.433843	-0.132024
C19	C	-0.377157	-1.430804	-0.132127
C20	C	-0.376961	-1.427896	0.130894
C21	C	-0.230619	-1.434451	0.132633
C22	C	0.419340	-1.493964	0.000065
C23	C	0.560290	-1.497731	0.000064
C24	C	0.180164	-1.733163	0.000073
C25	C	0.183946	-1.874110	0.000070
C26	C	0.045791	-0.944783	0.000589
C27	C	0.049624	-1.091401	0.000054
C28	C	0.258604	-1.066530	-0.132025
C29	C	0.253789	-0.919986	-0.132121
C30	C	0.256663	-0.919467	0.130900
C31	C	0.257963	-1.066448	0.132632
N32	N	0.187312	-1.501195	-0.360277
C33	C	0.290302	-1.397479	0.580774
C34	C	0.290688	-1.397708	0.419606
C35	C	0.217467	-1.633840	0.418864
C36	C	0.218196	-1.633276	0.580082
C37	C	0.053893	-1.473362	0.580319
C38	C	0.054758	-1.470316	0.419092
H39	H	-0.227149	-1.698120	0.094740
H40	H	-0.399111	-1.324132	0.131779
Cl41	Cl	0.106761	-1.755987	0.640290
Cl42	Cl	-0.040263	-0.900634	0.146827
H43	H	-0.419141	-1.471803	0.231010
Cl44	Cl	0.104817	-1.755912	0.359665
H45	H	-0.400152	-1.327438	-0.138116
H46	H	-0.022763	-1.548982	0.618439
H47	H	-0.183007	-1.332102	-0.136940
Cl48	Cl	0.366053	-1.672270	0.356511
H49	H	-0.199541	-1.482985	-0.230312
H50	H	-0.202006	-1.485917	0.230344
H51	H	-0.181553	-1.333551	0.140604
Cl52	Cl	-0.032859	-1.157192	0.146224
Cl53	Cl	-0.039911	-0.898167	-0.144823
H54	H	-0.228091	-1.698463	-0.094775
Cl55	Cl	-0.033078	-1.155843	-0.146621
Cl56	Cl	0.181258	-1.129523	0.283486
H57	H	0.272556	-1.299093	0.380087
Cl58	Cl	0.176308	-0.876451	-0.284544
H59	H	0.360823	-1.090663	0.140606
Cl60	Cl	0.019487	-1.319573	0.360110
Cl61	Cl	0.410439	-0.845904	-0.141381
H62	H	0.362213	-1.088872	-0.136940
H63	H	0.315535	-1.657620	0.617670
H64	H	0.389673	-1.415596	0.381027
H65	H	0.211437	-1.109134	-0.230317
H66	H	-0.445044	-1.692589	0.095312
Cl67	Cl	0.413995	-0.846537	0.132279
Cl68	Cl	0.262723	-1.244738	0.640654
H69	H	-0.025564	-1.540851	0.378801
H70	H	-0.446597	-1.692301	-0.093589
Cl71	Cl	-0.439256	-1.505477	-0.284546
Cl72	Cl	0.009637	-1.327074	0.643158
Cl73	Cl	0.186167	-0.870761	0.285466
Cl74	Cl	0.442270	-1.424753	0.643268
