data_functionalizedCrystal
_audit_creation_method	'MofGen! by Chris Wilmer'
_symmetry_space_group_name_H-M	'P1'
_symmetry_Int_Tables_number	1
_symmetry_cell_setting	triclinic
loop_
_symmetry_equiv_pos_as_xyz
  x,y,z
_cell_length_a	6.817900
_cell_length_b	14.125469
_cell_length_c	17.110486
_cell_angle_alpha	96.594463
_cell_angle_beta	99.060439
_cell_angle_gamma	100.398878
loop_
_atom_site_label
_atom_site_type_symbol
_atom_site_fract_x
_atom_site_fract_y
_atom_site_fract_z
V1	V	-3.961356	-0.132828	-0.246415
O2	O	-3.966155	0.006678	-0.242039
O3	O	-3.897893	-0.263659	-0.244427
O4	O	-3.891468	-0.130655	-0.354023
O5	O	-3.972624	-0.127246	-0.131684
V6	V	-4.449720	-0.116157	-0.232729
O7	O	-4.211995	-0.169397	-0.276437
O8	O	-4.649278	-0.079587	-0.202708
O9	O	-4.289976	0.014674	-0.234717
O10	O	-4.562318	-0.255662	-0.237105
O11	O	-4.555848	-0.121738	-0.347460
O12	O	-4.296401	-0.118329	-0.125121
C13	C	-3.739925	-0.295557	-0.240462
C14	C	-3.769180	-0.402512	-0.239554
C15	C	-3.822808	-0.598339	-0.237903
C16	C	-4.007635	-0.650657	-0.241244
C17	C	-4.037476	-0.759622	-0.240325
C18	C	-3.792959	-0.489364	-0.238822
C19	C	-3.731728	-0.125896	-0.380262
C20	C	-3.755771	-0.124986	-0.468230
C21	C	-3.947800	-0.129360	-0.513578
C22	C	-3.970379	-0.128503	-0.596233
C23	C	-3.800928	-0.123280	-0.633540
C24	C	-3.608882	-0.118903	-0.588185
C25	C	-3.586304	-0.119752	-0.505531
C26	C	-3.860056	-0.120469	-0.882901
C27	C	-3.882651	-0.119623	-0.965562
C28	C	-4.244146	-0.129222	-0.973603
C29	C	-4.221552	-0.130077	-0.890948
C30	C	-4.029508	-0.125694	-0.845600
C31	C	-3.824004	-0.122408	-0.718027
C32	C	-4.006433	-0.126560	-0.761114
C33	C	-4.111286	0.046567	-0.238680
C34	C	-4.061268	0.153521	-0.239593
C35	C	-4.119484	-0.123091	-0.098879
C36	C	-4.074680	-0.123997	-0.010910
H37	H	-3.686995	-0.635381	-0.234353
H38	H	-3.744652	-0.115367	-0.995934
H39	H	-4.085792	-0.133619	-0.483210
H40	H	-4.144397	-0.130809	-0.730734
F41	F	-4.174765	-0.133168	-0.644493
H42	H	-3.686041	-0.118159	-0.748412
F43	F	-4.401910	-0.135639	-0.851250
F44	F	-4.448521	-0.133883	-1.021871
H45	H	-3.703696	-0.116935	-0.845993
H46	H	-4.143458	-0.613612	-0.244792
F47	F	-3.428539	-0.113343	-0.627892
H48	H	-3.429928	-0.116167	-0.468606
