data_functionalizedCrystal
_audit_creation_method	'MofGen! by Chris Wilmer'
_symmetry_space_group_name_H-M	'P1'
_symmetry_Int_Tables_number	1
_symmetry_cell_setting	triclinic
loop_
_symmetry_equiv_pos_as_xyz
  x,y,z
_cell_length_a	14.971482
_cell_length_b	17.699083
_cell_length_c	13.448316
_cell_angle_alpha	89.992503
_cell_angle_beta	89.993798
_cell_angle_gamma	83.447811
loop_
_atom_site_label
_atom_site_type_symbol
_atom_site_fract_x
_atom_site_fract_y
_atom_site_fract_z
O1	O	1.186610	0.098620	-0.082681
O2	O	0.926169	0.110434	-0.082686
O3	O	1.063748	-0.005644	-0.082675
O4	O	1.049032	0.214698	-0.082692
O5	O	1.063731	-0.005651	0.082709
O6	O	0.926152	0.110427	0.082698
O7	O	1.186593	0.098613	0.082703
Cu8	Cu	1.056371	0.104519	0.097801
Cu9	Cu	1.056391	0.104528	-0.097784
O10	O	1.049015	0.214691	0.082691
C11	C	0.892838	0.109903	0.000005
C12	C	0.793546	0.108321	0.000004
C13	C	0.746894	0.107572	0.090155
C14	C	0.653601	0.106074	0.090157
C15	C	0.606960	0.105330	0.000005
C16	C	0.653618	0.106076	-0.090154
C17	C	0.746911	0.107569	-0.090154
C18	C	0.459167	0.102967	-0.090147
C19	C	0.365868	0.101475	-0.090147
C20	C	0.365857	0.101471	0.090163
C21	C	0.459150	0.102964	0.090163
C22	C	0.505802	0.103712	0.000004
C23	C	1.063212	-0.033846	0.000017
C24	C	1.061630	-0.117868	0.000018
C25	C	1.142386	-0.166291	0.000021
C26	C	1.140894	-0.245238	0.000012
C27	C	1.058646	-0.275760	0.000007
C28	C	0.977884	-0.227331	0.000001
C29	C	0.979376	-0.148385	0.000003
C30	C	0.971862	-0.545709	-0.000007
C31	C	0.970376	-0.624660	-0.000006
C32	C	1.133380	-0.642561	0.000002
C33	C	1.134873	-0.563616	0.000004
C34	C	1.054111	-0.515193	-0.000007
C35	C	1.055730	-0.429590	0.000000
C36	C	1.057026	-0.361362	0.000007
C37	C	1.219925	0.099144	0.000009
C38	C	1.319217	0.100726	0.000004
C39	C	1.049550	0.242893	-0.000003
C40	C	1.051132	0.326915	-0.000010
N41	N	1.056363	0.104513	0.235365
N42	N	1.056406	0.104528	-0.235349
C43	C	1.117302	0.053135	0.287411
C44	C	1.117307	0.053134	0.391514
C45	C	1.056378	0.104516	0.443570
C46	C	0.995433	0.155897	0.391517
C47	C	0.995424	0.155893	0.287416
C48	C	0.995458	0.155902	0.608497
C49	C	0.995468	0.155907	0.712606
C50	C	1.117341	0.053143	0.712596
C51	C	1.117332	0.053139	0.608494
C52	C	1.056388	0.104521	0.556449
H53	H	0.327869	0.100862	0.163574
Br54	Br	0.858745	-0.666083	-0.000011
H55	H	0.327895	0.100870	-0.163557
Br56	Br	1.200029	-0.016587	0.537843
H57	H	1.209362	-0.141446	0.000031
H58	H	0.497148	0.103576	-0.163564
Br59	Br	0.869775	-0.082667	-0.000009
Br60	Br	1.200054	-0.016585	0.783231
Br61	Br	0.912712	0.225619	0.216783
Br62	Br	1.250496	-0.310953	0.000016
H63	H	0.615637	0.105465	-0.163557
H64	H	1.166921	0.011297	0.245034
H65	H	0.615624	0.105451	0.163567
Br66	Br	0.810183	0.108590	0.212511
H67	H	0.497122	0.103574	0.163573
H68	H	0.906101	-0.506292	-0.000016
Br69	Br	0.810226	0.108579	-0.212508
H70	H	1.166928	0.011297	0.433889
H71	H	0.945852	0.197746	0.754985
H72	H	0.910915	-0.252188	-0.000009
Br73	Br	0.912742	0.225632	0.537867
H74	H	0.945818	0.197730	0.433907
Br75	Br	1.246499	-0.522197	0.000009
H76	H	1.199140	-0.681997	0.000006
