data_functionalizedCrystal
_audit_creation_method	'MofGen! by Chris Wilmer'
_symmetry_space_group_name_H-M	'P1'
_symmetry_Int_Tables_number	1
_symmetry_cell_setting	triclinic
loop_
_symmetry_equiv_pos_as_xyz
  x,y,z
_cell_length_a	14.044220
_cell_length_b	16.992694
_cell_length_c	16.053948
_cell_angle_alpha	87.288422
_cell_angle_beta	92.650765
_cell_angle_gamma	88.071450
loop_
_atom_site_label
_atom_site_type_symbol
_atom_site_fract_x
_atom_site_fract_y
_atom_site_fract_z
O1	O	0.198257	-1.051321	-0.069326
O2	O	0.698257	-0.551321	0.430674
O3	O	0.196039	-0.822880	-0.069351
O4	O	0.696039	-0.322880	0.430649
O5	O	0.058904	-0.933672	-0.069331
O6	O	0.558904	-0.433672	0.430669
O7	O	0.335392	-0.940529	-0.069346
O8	O	0.835392	-0.440529	0.430654
O9	O	0.066516	-0.940076	0.069526
O10	O	0.566516	-0.440076	0.569526
O11	O	0.203651	-0.829284	0.069505
O12	O	0.703651	-0.329284	0.569505
O13	O	0.205869	-1.057726	0.069530
O14	O	0.705869	-0.557726	0.569530
Zn15	Zn	0.205969	-0.944522	0.091564
Zn16	Zn	0.705969	-0.444522	0.591564
Zn17	Zn	0.195939	-0.936083	-0.091385
Zn18	Zn	0.695939	-0.436083	0.408615
O19	O	0.343004	-0.946933	0.069510
O20	O	0.843004	-0.446933	0.569510
C21	C	0.027168	-0.933872	0.000098
C22	C	0.527168	-0.433872	0.500098
C23	C	-0.078736	-0.924918	0.000098
C24	C	0.421264	-0.424918	0.500098
C25	C	0.196993	-0.796670	0.000074
C26	C	0.696993	-0.296670	0.500074
C27	C	0.188484	-0.709030	0.000065
C28	C	0.688484	-0.209030	0.500065
C29	C	0.204915	-1.083935	0.000103
C30	C	0.704915	-0.583935	0.500103
C31	C	0.213424	-1.171575	0.000107
C32	C	0.713424	-0.671575	0.500107
C33	C	-0.272638	-0.908547	0.000084
C34	C	0.227362	-0.408547	0.500084
C35	C	-0.325460	-0.972054	0.000088
C36	C	0.174540	-0.472054	0.500088
C37	C	-0.433354	-0.962945	0.000080
C38	C	0.066646	-0.462945	0.500080
C39	C	-0.164734	-0.917655	0.000091
C40	C	0.335266	-0.417655	0.500091
C41	C	0.374740	-0.946733	0.000080
C42	C	0.874740	-0.446733	0.500080
C43	C	0.480643	-0.955687	0.000074
C44	C	0.980643	-0.455687	0.500074
N45	N	0.212814	-0.950286	0.216422
N46	N	0.712814	-0.450286	0.716422
C47	C	0.270580	-0.664531	0.000061
C48	C	0.770580	-0.164531	0.500061
C49	C	0.262581	-0.582186	0.000073
C50	C	0.762581	-0.082186	0.500073
C51	C	0.172483	-0.544340	0.000083
C52	C	0.672483	-0.044340	0.500083
C53	C	0.090381	-0.588845	0.000090
C54	C	0.590381	-0.088845	0.500090
C55	C	0.098382	-0.671189	0.000084
C56	C	0.598382	-0.171189	0.500084
C57	C	0.139322	-0.298424	0.000107
C58	C	0.639322	0.201576	0.500107
C59	C	0.131327	-0.216073	0.000111
C60	C	0.631327	0.283927	0.500111
C61	C	0.303528	-0.209420	0.000096
C62	C	0.803528	0.290580	0.500096
C63	C	0.311521	-0.291766	0.000085
C64	C	0.811521	0.208234	0.500085
C65	C	0.229419	-0.336264	0.000096
C66	C	0.729419	0.163736	0.500096
N67	N	0.164304	-0.460169	0.000093
N68	N	0.664304	0.039831	0.500093
N69	N	0.237599	-0.420433	0.000092
N70	N	0.737599	0.079567	0.500092
N71	N	0.189087	-0.930325	-0.216243
N72	N	0.689087	-0.430325	0.283757
C73	C	0.153760	-0.900468	0.260138
C74	C	0.653760	-0.400468	0.760138
C75	C	0.158561	-0.904521	0.347543
C76	C	0.658561	-0.404521	0.847543
C77	C	0.222411	-0.958397	0.391230
C78	C	0.722411	-0.458397	0.891230
C79	C	0.281471	-1.008217	0.347508
C80	C	0.781471	-0.508217	0.847508
C81	C	0.276674	-1.004159	0.260104
C82	C	0.776674	-0.504159	0.760104
C83	C	0.243351	-0.976087	0.652632
C84	C	0.743351	-0.476087	1.152632
C85	C	0.248141	-0.980143	0.740041
C86	C	0.748141	-0.480143	1.240041
C87	C	0.125231	-0.876446	0.740070
C88	C	0.625231	-0.376446	1.240070
C89	C	0.120436	-0.872396	0.652665
C90	C	0.620436	-0.372396	1.152665
C91	C	0.179500	-0.922213	0.608951
C92	C	0.679500	-0.422213	1.108951
N93	N	0.227318	-0.962542	0.480572
N94	N	0.727318	-0.462542	0.980572
N95	N	0.174597	-0.918063	0.519610
N96	N	0.674597	-0.418063	1.019610
H97	H	-0.289655	-1.033262	0.000039
H98	H	0.210345	-0.533262	0.500039
C99	C	-0.321005	-0.825863	0.000082
C100	C	0.178995	-0.325863	0.500082
H101	H	-0.388227	-0.830513	0.000087
H102	H	0.111773	-0.330513	0.500087
H103	H	-0.304972	-0.795794	-0.048338
H104	H	0.195028	-0.295794	0.451662
H105	H	-0.299672	-0.800278	0.048512
H106	H	0.200328	-0.300278	0.548512
C107	C	0.369688	-0.706155	0.000050
C108	C	0.869688	-0.206155	0.500050
H109	H	0.417436	-0.667857	0.000056
H110	H	0.917436	-0.167857	0.500056
H111	H	0.373736	-0.735898	-0.048375
H112	H	0.873736	-0.235898	0.451625
H113	H	0.379044	-0.740379	0.048476
H114	H	0.879044	-0.240379	0.548476
H115	H	0.329433	-0.545958	0.000069
H116	H	0.829433	-0.045958	0.500069
H117	H	0.384887	-0.322574	0.000067
H118	H	0.884887	0.177426	0.500067
C119	C	0.393832	-0.160472	0.000094
C120	C	0.893832	0.339528	0.500094
H121	H	0.376168	-0.106011	0.000107
H122	H	0.876168	0.393989	0.500107
H123	H	0.427869	-0.170358	-0.048329
H124	H	0.927869	0.329642	0.451671
H125	H	0.433170	-0.174843	0.048522
H126	H	0.933170	0.325157	0.548522
H127	H	0.057955	-0.185262	0.000118
H128	H	0.557955	0.314738	0.500118
H129	H	0.072468	-0.334644	0.000117
H130	H	0.572468	0.165356	0.500117
H131	H	0.017022	-0.558025	0.000110
H132	H	0.517022	-0.058025	0.500110
H133	H	0.031530	-0.707419	0.000086
H134	H	0.531530	-0.207419	0.500086
H135	H	0.101764	-0.856600	0.224574
H136	H	0.601764	-0.356600	0.724574
H137	H	0.110473	-0.863955	0.383133
H138	H	0.610473	-0.363955	0.883133
H139	H	0.068440	-0.828528	0.617101
H140	H	0.568440	-0.328528	1.117101
H141	H	0.077147	-0.835886	0.775672
H142	H	0.577147	-0.335886	1.275672
H143	H	0.300139	-1.024015	0.775609
H144	H	0.800139	-0.524015	1.275609
H145	H	0.333463	-1.052080	0.383085
H146	H	0.833463	-0.552080	0.883085
H147	H	0.324765	-1.044724	0.224512
H148	H	0.824765	-0.544724	0.724512
C149	C	0.308313	-1.030888	0.604557
C150	C	0.808313	-0.530888	1.104557
H151	H	0.347018	-1.063559	0.643096
H152	H	0.847018	-0.563559	1.143096
H153	H	0.347832	-1.000069	0.570465
H154	H	0.847832	-0.500069	1.070465
H155	H	0.270163	-1.062858	0.570456
H156	H	0.770163	-0.562858	1.070456
