data_functionalizedCrystal
_audit_creation_method	'MofGen! by Chris Wilmer'
_symmetry_space_group_name_H-M	'P1'
_symmetry_Int_Tables_number	1
_symmetry_cell_setting	triclinic
loop_
_symmetry_equiv_pos_as_xyz
  x,y,z
_cell_length_a	10.654550
_cell_length_b	12.503552
_cell_length_c	14.044220
_cell_angle_alpha	93.839943
_cell_angle_beta	91.163096
_cell_angle_gamma	93.554123
loop_
_atom_site_label
_atom_site_type_symbol
_atom_site_fract_x
_atom_site_fract_y
_atom_site_fract_z
O1	O	1.687865	0.089243	-0.127801
O2	O	2.187865	0.589243	0.372199
O3	O	1.323664	0.089263	-0.140493
O4	O	1.823664	0.589263	0.359507
O5	O	1.500297	0.089243	0.003873
O6	O	2.000297	0.589243	0.503873
O7	O	1.511232	0.089263	-0.272167
O8	O	2.011232	0.589263	0.227833
O9	O	1.486997	-0.089398	-0.006994
O10	O	1.986997	0.410602	0.493006
O11	O	1.310364	-0.089378	-0.151360
O12	O	1.810364	0.410622	0.348640
O13	O	1.674566	-0.089398	-0.138668
O14	O	2.174566	0.410602	0.361332
Cu15	Cu	1.491251	-0.105699	-0.146006
Cu16	Cu	1.991251	0.394301	0.353994
Cu17	Cu	1.506979	0.105564	-0.133155
Cu18	Cu	2.006979	0.605564	0.366845
O19	O	1.497932	-0.089378	-0.283034
O20	O	1.997932	0.410622	0.216966
C21	C	1.270122	-0.000055	-0.144994
C22	C	1.770122	0.499945	0.355006
C23	C	1.130400	-0.000048	-0.142205
C24	C	1.630400	0.499952	0.357795
C25	C	1.059456	-0.000044	-0.227206
C26	C	1.559456	0.499956	0.272794
C27	C	0.928170	-0.000063	-0.224582
C28	C	1.428170	0.499937	0.275418
C29	C	0.938783	-0.000084	-0.051948
C30	C	1.438783	0.499916	0.448052
C31	C	1.070066	-0.000073	-0.054574
C32	C	1.570066	0.499927	0.445426
N33	N	1.480197	-0.254291	-0.155044
N34	N	1.980197	0.245709	0.344956
C35	C	1.534294	-0.526730	-0.110810
C36	C	2.034294	-0.026730	0.389190
C37	C	1.463948	-0.473398	-0.168340
C38	C	1.963948	0.026602	0.331660
C39	C	1.472991	-0.351475	-0.160940
C40	C	1.972991	0.148525	0.339060
C41	C	1.525252	-0.648664	-0.118209
C42	C	2.025252	-0.148664	0.381791
C43	C	1.728107	-0.000078	-0.134166
C44	C	2.228107	0.499922	0.365834
C45	C	1.867830	-0.000078	-0.136955
C46	C	2.367830	0.499922	0.363045
C47	C	1.488861	-0.000078	0.033785
C48	C	1.988861	0.499922	0.533785
C49	C	1.474586	-0.000079	0.139105
C50	C	1.974586	0.499921	0.639105
N51	N	1.518041	0.254156	-0.124109
N52	N	2.018041	0.754156	0.375891
C53	C	1.509368	-0.000055	-0.312946
C54	C	2.009368	0.499945	0.187054
C55	C	1.523644	-0.000047	-0.418265
C56	C	2.023644	0.499953	0.081735
C57	C	1.448488	-0.000062	0.331939
C58	C	1.948488	0.499938	0.831939
C59	C	1.549736	-0.000064	0.388906
C60	C	2.049736	0.499936	0.888906
C61	C	1.535215	-0.000055	0.496206
C62	C	2.035215	0.499945	0.996206
C63	C	1.463007	-0.000071	0.224630
C64	C	1.963007	0.499929	0.724630
H65	H	0.889643	-0.000112	0.019399
H66	H	1.389643	0.499888	0.519399
H67	H	1.350909	-0.000054	0.363750
H68	H	1.850909	0.499946	0.863750
H69	H	1.647328	0.000003	0.357098
H70	H	2.147328	0.500003	0.857098
H71	H	0.870413	-0.000063	-0.293798
H72	H	1.370413	0.499937	0.206202
N73	N	1.623078	-0.465928	-0.038225
N74	N	2.123078	0.034072	0.461775
H75	H	1.668775	-0.518505	-0.000861
H76	H	2.168775	-0.018505	0.499139
H77	H	1.573650	-0.419267	0.006813
H78	H	2.073650	0.080733	0.506813
H79	H	1.396932	-0.519306	-0.223150
H80	H	1.896932	-0.019306	0.276850
H81	H	1.108574	-0.000032	-0.298562
H82	H	1.608574	0.499968	0.201438
H83	H	1.127831	-0.000079	0.014649
H84	H	1.627831	0.499921	0.514649
