data_functionalizedCrystal
_audit_creation_method	'MofGen! by Chris Wilmer'
_symmetry_space_group_name_H-M	'P1'
_symmetry_Int_Tables_number	1
_symmetry_cell_setting	triclinic
loop_
_symmetry_equiv_pos_as_xyz
  x,y,z
_cell_length_a	18.050590
_cell_length_b	18.050590
_cell_length_c	18.050583
_cell_angle_alpha	90.040797
_cell_angle_beta	89.999666
_cell_angle_gamma	89.988341
loop_
_atom_site_label
_atom_site_type_symbol
_atom_site_fract_x
_atom_site_fract_y
_atom_site_fract_z
Zn1	Zn	1.135330	0.295821	-0.419578
Zn2	Zn	1.468663	0.629154	-0.086245
Zn3	Zn	1.801997	0.962488	0.247088
Zn4	Zn	1.135251	0.420034	-0.295378
Zn5	Zn	1.468584	0.753367	0.037955
Zn6	Zn	1.801917	1.086701	0.371288
Zn7	Zn	1.011147	0.295839	-0.295436
Zn8	Zn	1.344480	0.629172	0.037897
Zn9	Zn	1.677814	0.962506	0.371230
Zn10	Zn	1.011110	0.419950	-0.419561
Zn11	Zn	1.344443	0.753284	-0.086228
Zn12	Zn	1.677776	1.086617	0.247106
O13	O	1.073209	0.357911	-0.357489
O14	O	1.406543	0.691244	-0.024155
O15	O	1.739876	1.024578	0.309178
O16	O	1.239244	0.312326	-0.403086
O17	O	1.572577	0.645659	-0.069753
O18	O	1.905911	0.978992	0.263581
O19	O	1.118771	0.403602	-0.191462
O20	O	1.452104	0.736935	0.141872
O21	O	1.785437	1.070268	0.475205
O22	O	1.027669	0.191912	-0.311936
O23	O	1.361002	0.525245	0.021398
O24	O	1.694336	0.858579	0.354731
O25	O	1.239186	0.403585	-0.311837
O26	O	1.572519	0.736918	0.021496
O27	O	1.905853	1.070251	0.354830
O28	O	1.118906	0.191899	-0.403142
O29	O	1.452239	0.525232	-0.069809
O30	O	1.785572	0.858566	0.263525
O31	O	1.027592	0.312356	-0.191504
O32	O	1.360925	0.645690	0.141829
O33	O	1.694259	0.979023	0.475163
O34	O	0.907217	0.312275	-0.311919
O35	O	1.240551	0.645608	0.021415
O36	O	1.573884	0.978942	0.354748
O37	O	1.027605	0.403442	-0.523488
O38	O	1.360939	0.736775	-0.190155
O39	O	1.694272	1.070108	0.143179
O40	O	0.907190	0.403459	-0.403113
O41	O	1.240523	0.736792	-0.069779
O42	O	1.573857	1.070126	0.263554
O43	O	1.118870	0.312245	-0.523501
O44	O	1.452203	0.645578	-0.190167
O45	O	1.785536	0.978911	0.143166
O46	O	1.118734	0.523948	-0.311820
O47	O	1.452068	0.857281	0.021513
O48	O	1.785401	1.190614	0.354847
O49	O	1.027529	0.523886	-0.403056
O50	O	1.360862	0.857219	-0.069723
O51	O	1.694195	1.190553	0.263610
C52	C	0.880257	0.357860	-0.357521
C53	C	1.213591	0.691194	-0.024187
C54	C	1.546924	1.024527	0.309146
C55	C	0.797711	0.357857	-0.357552
C56	C	1.131045	0.691190	-0.024218
C57	C	1.464378	1.024523	0.309115
C58	C	0.598267	0.407584	-0.407025
C59	C	0.931601	0.740918	-0.073692
C60	C	1.264934	1.074251	0.259641
C61	C	0.548868	0.339865	-0.425306
C62	C	0.882201	0.673198	-0.091972
C63	C	1.215535	1.006532	0.241361
C64	C	0.646581	0.357898	-0.357516
C65	C	0.979914	0.691231	-0.024182
C66	C	1.313248	1.024565	0.309151
C67	C	0.548899	0.425656	-0.339234
C68	C	0.882232	0.758989	-0.005901
C69	C	1.215566	1.092323	0.327432
C70	C	0.500596	0.357944	-0.357482
C71	C	0.833929	0.691277	-0.024149
C72	C	1.167263	1.024611	0.309185
C73	C	0.598269	0.290143	-0.375831
C74	C	0.931602	0.623476	-0.042498
C75	C	1.264936	0.956809	0.290835
C76	C	0.598304	0.375979	-0.289728
C77	C	0.931637	0.709313	0.043605
C78	C	1.264971	1.042646	0.376938
C79	C	0.548927	0.308213	-0.307983
C80	C	0.882260	0.641547	0.025350
C81	C	1.215594	0.974880	0.358683
C82	C	0.730679	0.357872	-0.357537
C83	C	1.064013	0.691206	-0.024203
C84	C	1.397346	1.024539	0.309130
C85	C	0.416499	0.357962	-0.357461
C86	C	0.749833	0.691295	-0.024127
C87	C	1.083166	1.024629	0.309206
C88	C	1.073139	0.550863	-0.357446
C89	C	1.406472	0.884197	-0.024113
C90	C	1.739806	1.217530	0.309220
C91	C	1.073177	0.633409	-0.357453
C92	C	1.406510	0.966742	-0.024120
C93	C	1.739844	1.300076	0.309214
C94	C	1.122864	0.832866	-0.307895
C95	C	1.456197	1.166199	0.025439
C96	C	1.789531	1.499533	0.358772
C97	C	1.140998	0.882192	-0.375667
C98	C	1.474331	1.215525	-0.042333
C99	C	1.807664	1.548859	0.291000
C100	C	1.073209	0.784539	-0.357473
C101	C	1.406542	1.117873	-0.024139
C102	C	1.739875	1.451206	0.309194
C103	C	1.055141	0.882295	-0.289722
C104	C	1.388474	1.215628	0.043612
C105	C	1.721807	1.548962	0.376945
C106	C	1.073241	0.930524	-0.357486
C107	C	1.406574	1.263858	-0.024152
C108	C	1.739907	1.597191	0.309181
C109	C	1.091377	0.832778	-0.425280
C110	C	1.424710	1.166111	-0.091947
C111	C	1.758044	1.499445	0.241386
C112	C	1.005489	0.832877	-0.339289
C113	C	1.338822	1.166210	-0.005956
C114	C	1.672155	1.499543	0.327377
C115	C	1.023596	0.882180	-0.407108
C116	C	1.356930	1.215514	-0.073775
C117	C	1.690263	1.548847	0.259558
C118	C	1.073192	0.700441	-0.357464
C119	C	1.406525	1.033774	-0.024131
C120	C	1.739859	1.367108	0.309202
C121	C	1.073257	1.014621	-0.357502
C122	C	1.406591	1.347954	-0.024169
C123	C	1.739924	1.681288	0.309165
C124	C	1.266915	0.357963	-0.357457
C125	C	1.600248	0.691296	-0.024124
C126	C	1.933582	1.024629	0.309210
C127	C	1.349461	0.357984	-0.357443
C128	C	1.682794	0.691318	-0.024110
C129	C	2.016127	1.024651	0.309223
C130	C	1.073242	0.357832	-0.551194
C131	C	1.406576	0.691165	-0.217861
C132	C	1.739909	1.024498	0.115472
C133	C	1.073256	0.357798	-0.633740
C134	C	1.406590	0.691131	-0.300407
C135	C	1.739923	1.024465	0.032927
C136	C	1.073283	1.164205	-0.357531
C137	C	1.406616	1.497539	-0.024197
C138	C	1.739950	1.830872	0.309136
C139	C	1.073270	1.081660	-0.357507
C140	C	1.406604	1.414993	-0.024173
C141	C	1.739937	1.748326	0.309160
C142	C	1.122935	0.308181	-0.833198
C143	C	1.456269	0.641514	-0.499864
C144	C	1.789602	0.974848	-0.166531
C145	C	1.055200	0.289992	-0.882613
C146	C	1.388533	0.623325	-0.549279
C147	C	1.721867	0.956659	-0.215946
C148	C	1.073286	0.357785	-0.784870
C149	C	1.406619	0.691119	-0.451537
C150	C	1.739953	1.024452	-0.118204
C151	C	1.141049	0.375927	-0.882537
C152	C	1.474382	0.709261	-0.549204
C153	C	1.807715	1.042594	-0.215871
C154	C	1.073321	0.357772	-0.930856
C155	C	1.406654	0.691105	-0.597522
C156	C	1.739987	1.024438	-0.264189
C157	C	1.005515	0.339561	-0.833198
C158	C	1.338848	0.672895	-0.499865
C159	C	1.672181	1.006228	-0.166531
C160	C	1.091409	0.425528	-0.833119
C161	C	1.424742	0.758861	-0.499785
C162	C	1.758076	1.092195	-0.166452
C163	C	1.023627	0.407365	-0.882511
C164	C	1.356960	0.740698	-0.549178
C165	C	1.690294	1.074031	-0.215844
C166	C	1.073267	0.357791	-0.700772
C167	C	1.406600	0.691125	-0.367439
C168	C	1.739934	1.024458	-0.034105
C169	C	1.073332	0.357766	-1.014952
C170	C	1.406665	0.691099	-0.681619
C171	C	1.739999	1.024432	-0.348286
C172	C	1.073219	0.357936	-0.164536
C173	C	1.406553	0.691270	0.168797
C174	C	1.739886	1.024603	0.502130
C175	C	1.073349	0.357761	-0.081991
C176	C	1.406683	0.691094	0.251342
C177	C	1.740016	1.024428	0.584676
H178	H	0.527153	0.324587	-0.482617
H179	H	0.860487	0.657920	-0.149284
H180	H	1.193820	0.991253	0.184049
C181	C	0.627441	0.212734	-0.396796
C182	C	0.960774	0.546068	-0.063463
C183	C	1.294108	0.879401	0.269870
N184	N	0.649415	0.154433	-0.412590
N185	N	0.982748	0.487766	-0.079257
N186	N	1.316082	0.821099	0.254076
C187	C	0.966884	0.911249	-0.463820
C188	C	1.300217	1.244582	-0.130487
C189	C	1.633550	1.577916	0.202847
N190	N	0.924170	0.933144	-0.506537
N191	N	1.257503	1.266477	-0.173204
N192	N	1.590837	1.599811	0.160130
C193	C	0.627536	0.464253	-0.463649
C194	C	0.960870	0.797586	-0.130315
C195	C	1.294203	1.130920	0.203018
N196	N	0.649581	0.506933	-0.506299
N197	N	0.982915	0.840266	-0.172965
N198	N	1.316248	1.173600	0.160368
H199	H	1.198340	0.391276	-0.904214
H200	H	1.531673	0.724610	-0.570880
H201	H	1.865007	1.057943	-0.237547
H202	H	0.981606	0.449308	-0.904027
H203	H	1.314940	0.782641	-0.570694
H204	H	1.648273	1.115974	-0.237361
H205	H	1.106747	0.482806	-0.811364
H206	H	1.440081	0.816140	-0.478031
H207	H	1.773414	1.149473	-0.144698
H208	H	1.198281	0.903856	-0.391057
H209	H	1.531614	1.237189	-0.057723
H210	H	1.864947	1.570522	0.275610
C211	C	0.519836	0.251410	-0.251404
C212	C	0.853169	0.584744	0.081929
C213	C	1.186503	0.918077	0.415262
N214	N	0.497922	0.208624	-0.208793
N215	N	0.831255	0.541958	0.124540
N216	N	1.164589	0.875291	0.457874
H217	H	1.039882	0.232698	-0.904353
H218	H	1.373215	0.566031	-0.571019
H219	H	1.706549	0.899364	-0.237686
H220	H	1.106615	0.811120	-0.482631
H221	H	1.439948	1.144453	-0.149298
H222	H	1.773282	1.477787	0.184035
H223	H	0.620035	0.391278	-0.232433
H224	H	0.953369	0.724611	0.100900
H225	H	1.286702	1.057945	0.434233
C226	C	0.928095	0.318728	-0.804044
C227	C	1.261428	0.652062	-0.470710
C228	C	1.594761	0.985395	-0.137377
N229	N	0.869784	0.303034	-0.782082
N230	N	1.203118	0.636367	-0.448749
N231	N	1.536451	0.969701	-0.115416
H232	H	1.164853	0.266206	-0.811542
H233	H	1.498187	0.599539	-0.478209
H234	H	1.831520	0.932873	-0.144876
C235	C	1.179618	0.803602	-0.251323
C236	C	1.512951	1.136936	0.082010
C237	C	1.846284	1.470269	0.415344
N238	N	1.222366	0.781557	-0.208718
N239	N	1.555700	1.114891	0.124615
N240	N	1.889033	1.448224	0.457948
C241	C	0.519611	0.503044	-0.318356
C242	C	0.852944	0.836378	0.014977
C243	C	1.186278	1.169711	0.348310
N244	N	0.497557	0.561336	-0.302635
N245	N	0.830891	0.894669	0.030699
N246	N	1.164224	1.228002	0.364032
H247	H	0.948222	0.811197	-0.323879
H248	H	1.281555	1.144531	0.009454
H249	H	1.614889	1.477864	0.342787
C250	C	1.034474	0.911674	-0.212309
C251	C	1.367807	1.245007	0.121024
C252	C	1.701141	1.578340	0.454357
N253	N	1.018913	0.933798	-0.154001
N254	N	1.352246	1.267132	0.179333
N255	N	1.685580	1.600465	0.512666
