data_functionalizedCrystal
_audit_creation_method	'MofGen! by Chris Wilmer'
_symmetry_space_group_name_H-M	'P1'
_symmetry_Int_Tables_number	1
_symmetry_cell_setting	triclinic
loop_
_symmetry_equiv_pos_as_xyz
  x,y,z
_cell_length_a	6.817900
_cell_length_b	10.943624
_cell_length_c	14.125369
_cell_angle_alpha	94.575607
_cell_angle_beta	100.397648
_cell_angle_gamma	108.838799
loop_
_atom_site_label
_atom_site_type_symbol
_atom_site_fract_x
_atom_site_fract_y
_atom_site_fract_z
V1	V	-4.072444	-0.402044	-0.133088
O2	O	-4.075281	-0.394913	0.006421
O3	O	-4.008074	-0.398792	-0.263917
O4	O	-4.051072	-0.577618	-0.131030
O5	O	-4.031985	-0.214848	-0.127385
V6	V	-4.554639	-0.379715	-0.116403
O7	O	-4.336615	-0.451024	-0.169689
O8	O	-4.740665	-0.330734	-0.079801
O9	O	-4.395802	-0.382967	0.014426
O10	O	-4.669198	-0.386846	-0.255912
O11	O	-4.712494	-0.566910	-0.122105
O12	O	-4.352804	-0.204140	-0.118461
C13	C	-3.848315	-0.392320	-0.295810
C14	C	-3.877152	-0.390831	-0.402764
C15	C	-4.116399	-0.393609	-0.650904
C16	C	-3.930063	-0.388155	-0.598587
C17	C	-3.900624	-0.389644	-0.489621
C18	C	-4.145846	-0.392119	-0.759880
C19	C	-3.903163	-0.620429	-0.126298
C20	C	-3.966867	-0.763958	-0.125481
C21	C	-3.813478	-0.841127	-0.119976
C22	C	-3.976406	-0.946805	-0.201682
C23	C	-3.917472	-0.914026	-0.042328
C24	C	-4.128981	-0.867760	-0.207263
C25	C	-4.069991	-0.834958	-0.047837
C26	C	-4.233048	-0.940606	-0.129566
C27	C	-4.218902	-0.389435	0.046314
C28	C	-4.169304	-0.390932	0.153267
C29	C	-4.164054	-0.161323	-0.123196
C30	C	-4.079589	-0.017792	-0.124008
H31	H	-4.253806	-0.399395	-0.613861
Cl32	Cl	-3.538779	-0.774059	-0.113883
Cl33	Cl	-3.780363	-0.946424	0.065296
Cl34	Cl	-3.916353	-1.022000	-0.302098
H35	H	-4.108808	-0.786222	0.017206
H36	H	-4.217791	-0.846949	-0.277046
Cl37	Cl	-3.717893	-0.379213	-0.655777
H38	H	-4.411045	-0.983835	-0.133640
