data_functionalizedCrystal
_audit_creation_method	'MofGen! by Chris Wilmer'
_symmetry_space_group_name_H-M	'P1'
_symmetry_Int_Tables_number	1
_symmetry_cell_setting	triclinic
loop_
_symmetry_equiv_pos_as_xyz
  x,y,z
_cell_length_a	14.395555
_cell_length_b	23.196402
_cell_length_c	23.196401
_cell_angle_alpha	60.008822
_cell_angle_beta	90.015017
_cell_angle_gamma	60.000171
loop_
_atom_site_label
_atom_site_type_symbol
_atom_site_fract_x
_atom_site_fract_y
_atom_site_fract_z
Zr1	Zr	0.894913	0.630974	-0.075598
O2	O	0.746552	0.751245	-0.167649
O3	O	0.940390	0.510707	-0.047383
O4	O	0.940349	0.630974	-0.167648
O5	O	0.746630	0.630976	0.047487
O6	O	1.093223	0.630970	-0.167643
O7	O	0.746593	0.630978	-0.047384
O8	O	1.093296	0.415834	0.047490
O9	O	0.746557	0.846112	-0.167645
O10	O	1.073878	0.560170	-0.035341
O11	O	0.959817	0.560172	0.035456
O12	O	0.959768	0.701771	-0.106140
O13	O	0.845708	0.701773	-0.035343
Zr14	Zr	1.138788	0.630965	0.075719
Zr15	Zr	1.138730	0.630967	-0.075590
Zr16	Zr	0.894971	0.630972	0.075711
Zr17	Zr	0.894920	0.782276	-0.075591
Zr18	Zr	1.138781	0.479662	0.075713
O19	O	1.093311	0.751232	0.047504
O20	O	1.093228	0.751235	-0.167638
O21	O	0.746635	0.751241	0.047493
O22	O	1.287148	0.510694	0.167771
O23	O	1.287065	0.510697	-0.047371
O24	O	0.940473	0.510704	0.167759
O25	O	1.287071	0.630962	-0.047366
O26	O	1.093352	0.630965	0.167769
O27	O	0.940478	0.630969	0.167764
O28	O	1.287107	0.630961	0.047505
O29	O	0.940358	0.846107	-0.167639
O30	O	1.093343	0.415832	0.167760
O31	O	1.287144	0.415827	0.167766
O32	O	1.287098	0.415828	0.047496
O33	O	0.746603	0.846110	-0.047375
O34	O	0.940405	0.846105	-0.047368
O35	O	1.073932	0.560168	0.106262
O36	O	1.187993	0.560166	0.035464
O37	O	1.073884	0.701767	-0.035335
O38	O	0.959823	0.701769	0.035463
C39	C	1.016842	0.441713	0.000053
C40	C	1.016839	0.377481	0.000050
C41	C	1.076370	0.347310	-0.036908
C42	C	1.076381	0.286949	-0.036903
C43	C	1.016839	0.256773	0.000052
C44	C	0.957306	0.286948	0.037018
C45	C	0.957306	0.347303	0.037017
C46	C	0.917084	0.194747	-0.005226
C47	C	0.917081	0.134397	-0.005230
C48	C	1.016840	0.070618	0.000059
C49	C	1.116602	0.067204	0.005338
C50	C	1.116602	0.127558	0.005337
C51	C	1.016833	0.191329	0.000057
C52	C	1.076388	-0.025004	-0.036895
C53	C	1.076403	-0.085370	-0.036884
C54	C	0.957316	-0.085363	0.037032
C55	C	0.957313	-0.025005	0.037026
C56	C	1.016847	0.005174	0.000058
C57	C	0.711873	0.630978	0.000051
C58	C	0.608367	0.630981	0.000047
C59	C	0.485560	0.708188	-0.038550
C60	C	0.454712	0.669593	-0.066525
C61	C	0.454791	0.669573	0.028018
C62	C	0.578882	0.592385	-0.027967
C63	C	0.578958	0.592376	0.066612
C64	C	0.548183	0.553725	0.038653
C65	C	1.321828	0.630961	0.000071
C66	C	1.425334	0.630958	0.000074
C67	C	1.016777	0.630972	-0.189204
C68	C	1.016753	0.630973	-0.253438
C69	C	1.016859	0.820226	0.000069
C70	C	1.016862	0.884457	0.000072
C71	C	0.957194	0.704885	-0.320568
C72	C	0.957223	0.704886	-0.380923
C73	C	1.016795	0.630971	-0.374145
C74	C	1.076366	0.557049	-0.307003
C75	C	1.076345	0.557050	-0.246650
C76	C	1.008333	0.574343	-0.441464
C77	C	1.008346	0.574346	-0.501818
C78	C	1.016867	0.630965	-0.560292
C79	C	1.025352	0.687596	-0.558412
C80	C	1.025331	0.687597	-0.498059
C81	C	1.016825	0.630962	-0.439583
C82	C	0.957337	0.704883	-0.692868
C83	C	0.957374	0.704881	-0.753223
C84	C	1.076510	0.557042	-0.679301
C85	C	1.076480	0.557046	-0.618948
C86	C	1.016888	0.630969	-0.625737
C87	C	1.016923	0.630966	0.189325
C88	C	1.016948	0.630965	0.253560
C89	C	1.321819	0.441704	0.000063
C90	C	1.425323	0.377470	0.000063
C91	C	1.016915	0.441710	0.189317
C92	C	1.016937	0.377477	0.253549
C93	C	1.321892	0.441702	0.189327
C94	C	1.425421	0.377466	0.253562
C95	C	0.711809	0.820237	-0.189206
C96	C	0.608280	0.884473	-0.253441
C97	C	0.711881	0.820234	0.000059
C98	C	0.608378	0.884469	0.000058
C99	C	1.016786	0.820228	-0.189196
C100	C	1.016764	0.884461	-0.253427
C101	C	1.414362	0.347307	-0.036902
C102	C	1.511606	0.286960	-0.036916
C103	C	1.619809	0.256773	0.000041
C104	C	1.630767	0.286942	0.037008
C105	C	1.533525	0.347292	0.037016
C106	C	1.076514	0.347311	0.320679
C107	C	1.076531	0.286966	0.381037
C108	C	1.016975	0.256784	0.374264
C109	C	0.957391	0.286957	0.307127
C110	C	0.957368	0.347305	0.246770
C111	C	1.533588	0.347299	0.246772
C112	C	1.630873	0.286951	0.307122
C113	C	1.619989	0.256767	0.374262
C114	C	1.511811	0.286940	0.381050
C115	C	1.414528	0.347291	0.320701
C116	C	0.500113	0.914647	-0.246651
C117	C	0.402828	0.975014	-0.307001
C118	C	0.413712	1.005201	-0.374140
C119	C	0.521890	0.975024	-0.380929
C120	C	0.619173	0.914663	-0.320580
C121	C	0.619338	0.914638	0.037017
C122	C	0.522095	0.975002	0.037014
C123	C	0.413892	1.005191	0.000055
C124	C	0.402934	0.975019	-0.036908
C125	C	0.500176	0.914661	-0.036909
C126	C	1.076331	0.914624	-0.246632
C127	C	1.076332	0.974969	-0.306979
C128	C	1.016760	1.005155	-0.374121
C129	C	0.957191	0.974987	-0.380915
C130	C	0.957197	0.914639	-0.320569
H131	H	1.197832	0.124773	0.009637
H132	H	0.908857	0.371859	0.192112
H133	H	0.908686	0.890087	-0.326112
C134	C	0.807335	0.264901	-0.011043
N135	N	0.724674	0.317740	-0.015423
C136	C	0.738353	0.881446	0.077674
N137	N	0.827993	0.856453	0.108295
C138	C	1.226348	-0.002954	0.011159
N139	N	1.309006	-0.055798	0.015544
H140	H	0.908832	-0.000436	0.067118
C141	C	1.142094	0.253779	0.454881
N142	N	1.191480	0.228783	0.510498
C143	C	1.727015	0.190373	0.440641
N144	N	1.807631	0.140362	0.490636
C145	C	0.807345	0.138154	-0.011029
N146	N	0.724691	0.140984	-0.015392
H147	H	1.698980	0.207631	0.000028
H148	H	1.124846	0.496860	-0.191988
H149	H	0.314822	0.999608	-0.066999
H150	H	0.908689	0.999574	-0.435590
H151	H	0.908827	0.262375	0.067107
C152	C	0.306686	1.071594	-0.440520
N153	N	0.226070	1.121598	-0.490515
H154	H	1.124849	0.371877	-0.067007
C155	C	1.749858	0.253765	0.299639
N156	N	1.839475	0.228768	0.294000
H157	H	1.542465	0.371843	0.067122
H158	H	1.124860	0.262378	-0.067000
C159	C	0.382531	0.713672	0.059964
N160	N	0.328104	0.746893	0.084021
H161	H	1.718879	0.262355	0.067096
C162	C	1.017023	0.190391	0.440666
N163	N	1.017069	0.140380	0.490682
C164	C	0.382343	0.713685	-0.142552
N165	N	0.327820	0.746904	-0.199813
C166	C	1.545588	0.380495	0.172924
N167	N	1.554636	0.405498	0.117303
C168	C	0.533844	1.008232	-0.454789
N169	N	0.542844	1.033240	-0.510423
H170	H	0.491236	0.890098	-0.067004
C171	C	0.891655	0.786203	-0.328040
N172	N	0.842295	0.847452	-0.333667
C173	C	1.295546	0.380466	0.328182
N174	N	1.205930	0.405452	0.333822
H175	H	0.491229	0.890072	-0.191988
C176	C	1.141889	0.008186	-0.077551
N177	N	1.191227	0.033182	-0.108172
H178	H	0.908879	0.765072	-0.807885
H179	H	0.908814	0.765076	-0.698396
H180	H	0.531040	0.999558	0.067117
C181	C	0.651299	0.548349	0.142622
N182	N	0.705788	0.515200	0.199871
H183	H	1.124842	0.890055	-0.191967
H184	H	1.001386	0.528237	-0.393856
C185	C	0.891702	0.786199	-0.454777
N186	N	0.842350	0.847443	-0.510401
H187	H	1.016764	1.054295	-0.423253
H188	H	0.334720	1.054339	0.000062
H189	H	1.326267	0.371884	-0.067006
C190	C	1.141859	1.008147	-0.299489
N191	N	1.191212	1.033135	-0.293846
C192	C	1.034730	0.749881	-0.622731
N193	N	1.041793	0.796792	-0.671178
H194	H	1.502661	0.262403	-0.067018
H195	H	1.124887	-0.109940	-0.066977
C196	C	1.499857	0.253722	0.454911
N197	N	1.490857	0.228695	0.510544
H198	H	1.032242	0.733707	-0.496531
H199	H	0.707245	0.890095	-0.326117
H200	H	0.908826	0.371869	0.067113
C201	C	0.451188	0.796382	-0.082712
N202	N	0.425303	0.862808	-0.115977
H203	H	0.908836	-0.109932	0.067121
H204	H	1.125016	0.496859	-0.673781
C205	C	0.650946	0.548340	-0.060003
N206	N	0.705223	0.515169	-0.084134
H207	H	0.573850	0.488386	0.071297
C208	C	1.141987	0.475736	-0.545101
N209	N	1.191330	0.414489	-0.489478
H210	H	1.001431	0.528236	-0.503344
H211	H	1.124871	0.496867	-0.301488
H212	H	1.125012	0.371878	0.326207
H213	H	0.908902	0.262374	0.301623
H214	H	0.314754	0.999573	-0.301460
