data_functionalizedCrystal
_audit_creation_method	'MofGen! by Chris Wilmer'
_symmetry_space_group_name_H-M	'P1'
_symmetry_Int_Tables_number	1
_symmetry_cell_setting	triclinic
loop_
_symmetry_equiv_pos_as_xyz
  x,y,z
_cell_length_a	10.968023
_cell_length_b	10.967829
_cell_length_c	10.065875
_cell_angle_alpha	86.921207
_cell_angle_beta	86.882649
_cell_angle_gamma	92.753451
loop_
_atom_site_label
_atom_site_type_symbol
_atom_site_fract_x
_atom_site_fract_y
_atom_site_fract_z
O1	O	-1.622266	0.209994	0.218566
O2	O	-1.122266	0.709994	0.718566
O3	O	-1.272379	0.213446	0.135483
O4	O	-0.772379	0.713446	0.635483
O5	O	-1.449069	0.036800	0.218580
O6	O	-0.949069	0.536800	0.718580
O7	O	-1.445577	0.386640	0.135470
O8	O	-0.945577	0.886640	0.635470
O9	O	-1.415383	0.070626	0.429691
O10	O	-0.915383	0.570626	0.929691
O11	O	-1.238693	0.247272	0.346594
O12	O	-0.738693	0.747272	0.846594
O13	O	-1.588580	0.243819	0.429678
O14	O	-1.088580	0.743819	0.929678
Zn15	Zn	-1.408288	0.250916	0.421655
Zn16	Zn	-0.908288	0.750916	0.921655
Zn17	Zn	-1.452671	0.206349	0.143506
Zn18	Zn	-0.952671	0.706349	0.643506
O19	O	-1.411891	0.420465	0.346581
O20	O	-0.911891	0.920465	0.846581
C21	C	-1.210618	0.227555	0.231136
C22	C	-0.710618	0.727555	0.731136
C23	C	-1.076774	0.219184	0.201633
C24	C	-0.576774	0.719184	0.701633
C25	C	-0.861312	0.224310	0.267344
C26	C	-0.361312	0.724310	0.767344
C27	C	-0.999644	0.232972	0.297847
C28	C	-0.499644	0.732972	0.797847
C29	C	-1.429427	0.008800	0.334039
C30	C	-0.929427	0.508800	0.834039
C31	C	-1.421071	-0.125028	0.363544
C32	C	-0.921071	0.374972	0.863544
C33	C	-1.434797	-0.202210	0.267335
C34	C	-0.934797	0.297790	0.767335
C35	C	-1.426162	-0.340528	0.297828
C36	C	-0.926162	0.159472	0.797828
C37	C	-0.650341	0.229714	0.334029
C38	C	-0.150341	0.729714	0.834029
C39	C	-0.784181	0.238095	0.363545
C40	C	-0.284181	0.738095	0.863545
C41	C	-1.431533	0.448465	0.231119
C42	C	-0.931533	0.948465	0.731119
C43	C	-1.439890	0.582292	0.201606
C44	C	-0.939890	1.082292	0.701606
N45	N	-1.378007	0.281331	0.611486
N46	N	-0.878007	0.781331	1.111486
N47	N	-1.482962	0.175925	-0.046321
N48	N	-0.982962	0.675925	0.453679
C49	C	-1.442127	0.216924	0.709491
C50	C	-0.942127	0.716924	1.209491
C51	C	-1.418832	0.240342	0.855673
C52	C	-0.918832	0.740342	1.355673
H53	H	-0.824938	0.206088	0.162403
H54	H	-0.324938	0.706088	0.662403
Br55	Br	-1.298571	0.361144	0.896177
Br56	Br	-0.798571	0.861144	1.396177
Br57	Br	-1.603509	0.055407	0.913180
Br58	Br	-1.103509	0.555407	1.413180
H59	H	-1.458021	-0.381391	0.096652
H60	H	-0.958021	0.118609	0.596652
Br61	Br	-1.257751	0.402128	0.651997
Br62	Br	-0.757751	0.902128	1.151997
H63	H	-1.036014	0.251182	0.402799
H64	H	-0.536014	0.751182	0.902799
Br65	Br	-1.016168	0.188850	0.026698
Br66	Br	-0.516168	0.688850	0.526698
Br67	Br	-0.844796	0.268441	0.538468
Br68	Br	-0.344796	0.768441	1.038468
Br69	Br	-1.465066	-0.141685	0.092424
Br70	Br	-0.965066	0.358315	0.592424
H71	H	-1.402920	-0.161351	0.468485
H72	H	-0.902920	0.338649	0.968485
H73	H	-1.408009	-0.376845	0.402776
H74	H	-0.908009	0.123155	0.902776
H75	H	-1.514266	0.144440	0.685179
H76	H	-1.014266	0.644440	1.185179
