data_functionalizedCrystal
_audit_creation_method	'MofGen! by Chris Wilmer'
_symmetry_space_group_name_H-M	'P1'
_symmetry_Int_Tables_number	1
_symmetry_cell_setting	triclinic
loop_
_symmetry_equiv_pos_as_xyz
  x,y,z
_cell_length_a	14.519731
_cell_length_b	13.596369
_cell_length_c	10.654541
_cell_angle_alpha	89.994252
_cell_angle_beta	95.913609
_cell_angle_gamma	90.005416
loop_
_atom_site_label
_atom_site_type_symbol
_atom_site_fract_x
_atom_site_fract_y
_atom_site_fract_z
O1	O	1.224710	0.081793	-0.164753
O2	O	0.956336	0.081795	-0.184112
O3	O	1.096694	0.081788	0.008366
O4	O	1.084351	0.081800	-0.357230
O5	O	1.096680	-0.081795	0.008376
O6	O	0.956321	-0.081788	-0.184101
O7	O	1.224695	-0.081790	-0.164743
Zn8	Zn	1.090506	-0.107761	-0.174420
Zn9	Zn	1.090525	0.107766	-0.174434
O10	O	1.084337	-0.081783	-0.357220
C11	C	0.921964	0.000003	-0.183199
C12	C	0.819570	0.000004	-0.180481
C13	C	0.736414	0.000008	-0.178273
C14	C	0.632091	0.000008	-0.175513
C15	C	0.548941	0.000008	-0.173323
C16	C	0.444611	0.000010	-0.170563
N17	N	1.090500	-0.254853	-0.174410
C18	C	1.090524	-0.656144	-0.174435
C19	C	1.090514	-0.544493	-0.174433
C20	C	1.090512	-0.455502	-0.174424
C21	C	1.090502	-0.343844	-0.174419
C22	C	1.259067	0.000004	-0.165655
C23	C	1.361461	0.000010	-0.168373
C24	C	1.095781	-0.000003	0.055161
C25	C	1.093071	-0.000001	0.194578
N26	N	1.090538	0.254858	-0.174434
C27	C	1.085250	0.000010	-0.404015
C28	C	1.087960	0.000015	-0.543433
C29	C	1.260908	-0.000015	0.224145
C30	C	1.343549	-0.000023	0.304426
C31	C	1.340997	-0.000020	0.435419
C32	C	1.255795	-0.000006	0.486134
C33	C	1.173153	0.000003	0.405854
C34	C	1.175714	-0.000003	0.274859
C35	C	1.005318	0.000023	0.376287
C36	C	1.007868	0.000013	0.245293
C37	C	0.920116	0.000038	0.427002
C38	C	0.837472	0.000040	0.346721
C39	C	0.840028	0.000036	0.215720
C40	C	0.925227	0.000022	0.165013
H41	H	1.262994	-0.000031	0.117485
Br42	Br	1.453153	-0.000019	0.544377
Br43	Br	1.252332	0.000076	0.663913
H44	H	0.918044	0.000047	0.533665
Br45	Br	0.721853	0.000076	0.415555
H46	H	0.772731	0.000047	0.150362
H47	H	0.927316	0.000013	0.058353
Br48	Br	1.459176	-0.000033	0.235594
