data_functionalizedCrystal
_audit_creation_method	'MofGen! by Chris Wilmer'
_symmetry_space_group_name_H-M	'P1'
_symmetry_Int_Tables_number	1
_symmetry_cell_setting	triclinic
loop_
_symmetry_equiv_pos_as_xyz
  x,y,z
_cell_length_a	16.120530
_cell_length_b	17.077402
_cell_length_c	17.077396
_cell_angle_alpha	89.970216
_cell_angle_beta	92.916610
_cell_angle_gamma	92.881663
loop_
_atom_site_label
_atom_site_type_symbol
_atom_site_fract_x
_atom_site_fract_y
_atom_site_fract_z
Zn1	Zn	1.274550	0.373441	0.504614
Zn2	Zn	1.274451	0.504712	0.373340
Zn3	Zn	1.135133	0.366803	0.366714
Zn4	Zn	1.135099	0.498002	0.497919
O5	O	1.204808	0.435740	0.435647
O6	O	1.391202	0.396441	0.492775
O7	O	1.255943	0.486447	0.262613
O8	O	1.153682	0.257840	0.385035
O9	O	1.391130	0.492884	0.396329
O10	O	1.256111	0.262717	0.486350
O11	O	1.153587	0.385127	0.257744
O12	O	1.018463	0.378621	0.378543
O13	O	1.153624	0.481449	0.608655
O14	O	1.018438	0.475013	0.474939
O15	O	1.256078	0.389935	0.613574
O16	O	1.255910	0.613666	0.389837
O17	O	1.153529	0.608737	0.481364
C18	C	0.988200	0.425369	0.425296
C19	C	0.895534	0.420951	0.420886
C20	C	1.204859	0.435684	0.640393
C21	C	1.204880	0.435661	0.727644
C22	C	1.204728	0.639684	0.435611
C23	C	1.204769	0.726935	0.435626
C24	C	0.725872	0.412868	0.412842
C25	C	0.684584	0.458669	0.458508
C26	C	0.590179	0.454172	0.454033
C27	C	0.820286	0.417364	0.417317
C28	C	1.422262	0.446151	0.446038
C29	C	1.514928	0.450588	0.450467
C30	C	1.204912	0.231000	0.435700
C31	C	1.204956	0.143753	0.435723
C32	C	1.258134	0.770469	0.388025
C33	C	1.258175	0.852451	0.388047
C34	C	1.204846	0.890898	0.435667
C35	C	1.151479	0.847359	0.483274
C36	C	1.151443	0.765379	0.483255
C37	C	1.151557	1.018233	0.483307
C38	C	1.151591	1.100219	0.483325
C39	C	1.258288	1.105305	0.388098
C40	C	1.258252	1.023325	0.388080
C41	C	1.204884	0.979791	0.435686
C42	C	1.204806	0.435740	0.231699
C43	C	1.204946	0.435551	0.144456
C44	C	1.258230	0.388005	0.771197
C45	C	1.258240	0.387979	0.853178
C46	C	1.204904	0.435614	0.891605
C47	C	1.151548	0.483272	0.848046
C48	C	1.151534	0.483292	0.766066
C49	C	1.151582	0.483226	1.018918
C50	C	1.151596	0.483206	1.100903
C51	C	1.258287	0.387913	1.106030
C52	C	1.258273	0.387934	1.024050
C53	C	1.204919	0.435593	0.980497
H54	H	0.720138	0.501259	0.500966
O55	O	1.310015	0.733250	0.341742
C56	C	1.415811	0.746955	0.247258
C57	C	1.357110	0.789202	0.299649
H58	H	1.453891	0.792173	0.213199
H59	H	1.459422	0.710620	0.285366
H60	H	1.377529	0.706784	0.204380
H61	H	1.395326	0.829413	0.342535
H62	H	1.313497	0.825488	0.261491
H63	H	1.108122	0.522022	0.983458
O64	O	1.099739	0.529515	0.723637
C65	C	1.052468	0.571813	0.595070
C66	C	1.111159	0.519417	0.643023
H67	H	1.061693	0.563680	0.529886
H68	H	0.985235	0.554803	0.607916
H69	H	1.067068	0.635796	0.611916
H70	H	1.096634	0.455420	0.626205
H71	H	1.178375	0.536494	0.630172
H72	H	1.301672	0.992021	0.349300
H73	H	1.301629	0.887893	0.349284
O74	O	1.099704	0.529495	1.138107
C75	C	0.993906	0.624042	1.124378
C76	C	1.052617	0.571644	1.082144
H77	H	0.955834	0.658145	1.079151
H78	H	0.950290	0.585937	1.160661
H79	H	1.032181	0.666878	1.164599
H80	H	1.014410	0.528800	1.041883
H81	H	1.096236	0.609799	1.045911
H82	H	1.107990	0.729934	0.522019
H83	H	0.690321	0.370281	0.370388
H84	H	1.301665	0.349218	0.739916
O85	O	1.310194	1.147714	0.342015
C86	C	1.357709	1.276272	0.300005
C87	C	1.298847	1.228335	0.352190
H88	H	1.348543	1.341462	0.308202
H89	H	1.424893	1.263296	0.317158
H90	H	1.343224	1.259535	0.235972
H91	H	1.313256	1.245045	0.416239
H92	H	1.231680	1.241315	0.334971
O93	O	1.310026	0.341574	0.895391
C94	C	1.350542	0.209978	0.922461
C95	C	1.291853	0.262447	0.874595
H96	H	1.335858	0.145992	0.905676
H97	H	1.417769	0.226926	0.909539
H98	H	1.341409	0.218175	0.987653
H99	H	1.300911	0.254277	0.809389
H100	H	1.224647	0.245486	0.887583
H101	H	1.108062	0.878670	0.522050
H102	H	1.108182	1.131521	0.522117
H103	H	1.108118	0.522054	0.879340
O104	O	1.099760	0.976029	0.529665
C105	C	1.059239	0.948900	0.661220
C106	C	1.117934	0.996762	0.608816
H107	H	1.073923	0.965634	0.725226
H108	H	0.992014	0.961877	0.644243
H109	H	1.068364	0.883707	0.652986
H110	H	1.108883	1.061969	0.617023
H111	H	1.185138	0.983719	0.625806
O112	O	1.310157	0.341771	0.986681
C113	C	1.422639	0.336597	0.899441
C114	C	1.363959	0.388976	0.941735
H115	H	1.466141	0.374739	0.863079
H116	H	1.460836	0.302534	0.944608
H117	H	1.384335	0.293725	0.859281
H118	H	1.402198	0.431892	0.981893
H119	H	1.325759	0.422983	0.896526
H120	H	1.301729	0.349106	1.141494
