data_functionalizedCrystal
_audit_creation_method	'MofGen! by Chris Wilmer'
_symmetry_space_group_name_H-M	'P1'
_symmetry_Int_Tables_number	1
_symmetry_cell_setting	triclinic
loop_
_symmetry_equiv_pos_as_xyz
  x,y,z
_cell_length_a	12.759401
_cell_length_b	17.077396
_cell_length_c	12.759399
_cell_angle_alpha	89.973998
_cell_angle_beta	90.015542
_cell_angle_gamma	89.983471
loop_
_atom_site_label
_atom_site_type_symbol
_atom_site_fract_x
_atom_site_fract_y
_atom_site_fract_z
Zn1	Zn	1.606231	-0.443794	-0.418254
Zn2	Zn	1.939564	-0.110461	-0.084921
Zn3	Zn	2.272897	0.222873	0.248412
Zn4	Zn	1.606130	-0.312534	-0.593955
Zn5	Zn	1.939463	0.020800	-0.260622
Zn6	Zn	2.272797	0.354133	0.072712
Zn7	Zn	1.430539	-0.312549	-0.418292
Zn8	Zn	1.763872	0.020785	-0.084959
Zn9	Zn	2.097206	0.354118	0.248375
Zn10	Zn	1.430520	-0.443764	-0.593893
Zn11	Zn	1.763853	-0.110431	-0.260560
Zn12	Zn	2.097187	0.222903	0.072773
O13	O	1.518355	-0.378160	-0.506099
O14	O	1.851688	-0.044827	-0.172765
O15	O	2.185022	0.288507	0.160568
O16	O	1.753238	-0.426388	-0.441572
O17	O	2.086572	-0.093055	-0.108238
O18	O	2.419905	0.240278	0.225095
O19	O	1.582804	-0.202689	-0.570694
O20	O	1.916137	0.130645	-0.237361
O21	O	2.249470	0.463978	0.095972
O22	O	1.453895	-0.329978	-0.271266
O23	O	1.787228	0.003356	0.062067
O24	O	2.120562	0.336689	0.395401
O25	O	1.753164	-0.329952	-0.570658
O26	O	2.086498	0.003381	-0.237325
O27	O	2.419831	0.336715	0.096009
O28	O	1.582975	-0.426403	-0.271238
O29	O	1.916308	-0.093070	0.062095
O30	O	2.249642	0.240264	0.395428
O31	O	1.453797	-0.202700	-0.441635
O32	O	1.787131	0.130634	-0.108302
O33	O	2.120464	0.463967	0.225031
O34	O	1.283516	-0.329949	-0.441576
O35	O	1.616849	0.003385	-0.108242
O36	O	1.950182	0.336718	0.225091
O37	O	1.453863	-0.553615	-0.570553
O38	O	1.787196	-0.220282	-0.237219
O39	O	2.120529	0.113052	0.096114
O40	O	1.283502	-0.426352	-0.570589
O41	O	1.616835	-0.093019	-0.237256
O42	O	1.950168	0.240315	0.096078
O43	O	1.582956	-0.553637	-0.441512
O44	O	1.916290	-0.220304	-0.108178
O45	O	2.249623	0.113030	0.225155
O46	O	1.582785	-0.329923	-0.740968
O47	O	1.916118	0.003410	-0.407634
O48	O	2.249452	0.336744	-0.074301
O49	O	1.453765	-0.426337	-0.740922
O50	O	1.787098	-0.093004	-0.407589
O51	O	2.120432	0.240329	-0.074256
C52	C	1.245388	-0.378149	-0.506081
C53	C	1.578721	-0.044816	-0.172747
C54	C	1.912054	0.288518	0.160586
C55	C	1.128611	-0.378163	-0.506098
C56	C	1.461944	-0.044830	-0.172765
C57	C	1.795278	0.288504	0.160569
C58	C	1.073788	-0.428455	-0.439004
C59	C	1.407121	-0.095121	-0.105671
C60	C	1.740455	0.238212	0.227662
C61	C	0.964064	-0.428460	-0.439015
C62	C	1.297397	-0.095127	-0.105682
C63	C	1.630731	0.238207	0.227652
C64	C	0.963995	-0.327879	-0.573222
C65	C	1.297329	0.005454	-0.239889
C66	C	1.630662	0.338787	0.093444
C67	C	1.073717	-0.327871	-0.573206
C68	C	1.407051	0.005463	-0.239872
C69	C	1.740384	0.338796	0.093461
C70	C	1.518419	-0.582904	-0.506021
C71	C	1.851752	-0.249571	-0.172688
C72	C	2.185085	0.083762	0.160645
C73	C	1.518446	-0.670154	-0.505988
C74	C	1.851779	-0.336821	-0.172655
C75	C	2.185112	-0.003488	0.160678
C76	C	1.585667	-0.711157	-0.438791
C77	C	1.919001	-0.377824	-0.105458
C78	C	2.252334	-0.044491	0.227876
C79	C	1.585680	-0.793138	-0.438756
C80	C	1.919013	-0.459804	-0.105423
C81	C	2.252347	-0.126471	0.227911
C82	C	1.518475	-0.834114	-0.505924
C83	C	1.851809	-0.500781	-0.172591
C84	C	2.185142	-0.167447	0.160742
C85	C	1.451246	-0.793105	-0.573125
C86	C	1.784580	-0.459772	-0.239791
C87	C	2.117913	-0.126439	0.093542
C88	C	1.451229	-0.711126	-0.573153
C89	C	1.784563	-0.377793	-0.239820
C90	C	2.117896	-0.044460	0.093513
C91	C	1.451289	-0.963975	-0.573061
C92	C	1.784622	-0.630642	-0.239728
C93	C	2.117955	-0.297309	0.093605
C94	C	1.451307	-1.045960	-0.573034
C95	C	1.784640	-0.712627	-0.239701
C96	C	2.117974	-0.379293	0.093633
C97	C	1.585739	-1.045987	-0.438664
C98	C	1.919073	-0.712654	-0.105331
C99	C	2.252406	-0.379320	0.228003
C100	C	1.585722	-0.964008	-0.438693
C101	C	1.919055	-0.630675	-0.105359
C102	C	2.252389	-0.297341	0.227974
C103	C	1.518494	-0.923005	-0.505895
C104	C	1.851828	-0.589672	-0.172561
C105	C	2.185161	-0.256338	0.160772
C106	C	1.792388	-0.378172	-0.506117
C107	C	2.125722	-0.044838	-0.172784
C108	C	2.459055	0.288495	0.160549
C109	C	1.909165	-0.378177	-0.506126
C110	C	2.242498	-0.044843	-0.172792
C111	C	2.575832	0.288490	0.160541
C112	C	1.518291	-0.378142	-0.779066
C113	C	1.851624	-0.044809	-0.445733
C114	C	2.184957	0.288524	-0.112399
C115	C	1.518359	-0.378161	-0.895843
C116	C	1.851692	-0.044828	-0.562509
C117	C	2.185026	0.288506	-0.229176
C118	C	1.518352	-0.174212	-0.506100
C119	C	1.851685	0.159121	-0.172767
C120	C	2.185019	0.492454	0.160567
C121	C	1.518529	-0.086963	-0.505837
C122	C	1.851862	0.246370	-0.172504
C123	C	2.185195	0.579704	0.160830
C124	C	1.585617	-0.328015	-0.950693
C125	C	1.918950	0.005318	-0.617360
C126	C	2.252283	0.338652	-0.284027
C127	C	1.585684	-0.328041	-1.060417
C128	C	1.919017	0.005292	-0.727084
C129	C	2.252351	0.338625	-0.393751
C130	C	1.451228	-0.428362	-1.060430
C131	C	1.784561	-0.095028	-0.727097
C132	C	2.117894	0.238305	-0.393764
C133	C	1.451166	-0.428339	-0.950708
C134	C	1.784500	-0.095005	-0.617375
C135	C	2.117833	0.238328	-0.284042
C136	C	1.518448	-0.378195	-0.232065
C137	C	1.851782	-0.044862	0.101268
C138	C	2.185115	0.288471	0.434601
C139	C	1.518488	-0.378210	-0.115289
C140	C	1.851821	-0.044877	0.218045
C141	C	2.185155	0.288456	0.551378
H142	H	1.118479	-0.469403	-0.384358
H143	H	1.451812	-0.136070	-0.051024
H144	H	1.785146	0.197263	0.282309
H145	H	1.396520	-0.469213	-1.105115
H146	H	1.729853	-0.135880	-0.771782
H147	H	2.063187	0.197453	-0.438449
H148	H	1.396581	-1.079321	-0.627726
H149	H	1.729914	-0.745987	-0.294393
H150	H	2.063248	-0.412654	0.038940
Cl151	Cl	1.366613	-0.491389	-0.881748
Cl152	Cl	1.699946	-0.158056	-0.548414
Cl153	Cl	2.033279	0.175278	-0.215081
H154	H	1.640396	-0.677800	-0.384098
H155	H	1.973730	-0.344467	-0.050764
H156	H	2.307063	-0.011134	0.282569
Cl157	Cl	0.895148	-0.491686	-0.354663
Cl158	Cl	1.228482	-0.158353	-0.021330
Cl159	Cl	1.561815	0.174981	0.312004
H160	H	0.919288	-0.286934	-0.627860
H161	H	1.252621	0.046399	-0.294527
H162	H	1.585954	0.379733	0.038807
H163	H	1.640452	-0.930647	-0.384004
H164	H	1.973785	-0.597314	-0.050671
H165	H	2.307119	-0.263981	0.282662
H166	H	1.118355	-0.286913	-0.627842
H167	H	1.451689	0.046421	-0.294509
H168	H	1.785022	0.379754	0.038824
H169	H	1.640331	-0.287158	-0.906024
H170	H	1.973664	0.046175	-0.572691
H171	H	2.306997	0.379508	-0.239357
Cl172	Cl	1.670238	-0.844681	-0.354322
Cl173	Cl	2.003571	-0.511347	-0.020988
Cl174	Cl	2.336904	-0.178014	0.312345
H175	H	1.640477	-1.079375	-0.383944
H176	H	1.973810	-0.746042	-0.050611
H177	H	2.307144	-0.412709	0.282723
Cl178	Cl	1.366771	-0.912430	-0.657544
Cl179	Cl	1.700104	-0.579097	-0.324211
Cl180	Cl	2.033437	-0.245763	0.009123
Cl181	Cl	1.366756	-0.844618	-0.657562
Cl182	Cl	1.700090	-0.511285	-0.324228
Cl183	Cl	2.033423	-0.177952	0.009105
Cl184	Cl	1.366715	-0.659579	-0.657630
Cl185	Cl	1.700048	-0.326246	-0.324297
Cl186	Cl	2.033382	0.007087	0.009036
Cl187	Cl	1.670243	-0.265000	-1.129368
Cl188	Cl	2.003576	0.068334	-0.796034
Cl189	Cl	2.336910	0.401667	-0.462701
