data_functionalizedCrystal
_audit_creation_method	'MofGen! by Chris Wilmer'
_symmetry_space_group_name_H-M	'P1'
_symmetry_Int_Tables_number	1
_symmetry_cell_setting	triclinic
loop_
_symmetry_equiv_pos_as_xyz
  x,y,z
_cell_length_a	16.120484
_cell_length_b	19.805407
_cell_length_c	19.805399
_cell_angle_alpha	89.983114
_cell_angle_beta	92.869501
_cell_angle_gamma	92.925608
loop_
_atom_site_label
_atom_site_type_symbol
_atom_site_fract_x
_atom_site_fract_y
_atom_site_fract_z
Zn1	Zn	-0.331915	1.021057	-0.396377
Zn2	Zn	0.168085	1.521057	0.103623
Zn3	Zn	-0.471337	1.015239	-0.288925
Zn4	Zn	0.028663	1.515239	0.211075
Zn5	Zn	-0.331942	0.907876	-0.283202
Zn6	Zn	0.168058	1.407876	0.216798
Zn7	Zn	-0.471289	0.902099	-0.402070
Zn8	Zn	0.028711	1.402099	0.097930
O9	O	-0.401621	0.961568	-0.342643
O10	O	0.098379	1.461568	0.157357
O11	O	-0.350419	1.115002	-0.382135
O12	O	0.149581	1.615002	0.117865
O13	O	-0.452877	1.000980	-0.193450
O14	O	0.047123	1.500980	0.306550
O15	O	-0.215272	0.927742	-0.293437
O16	O	0.284728	1.427742	0.206563
O17	O	-0.452851	1.110727	-0.303191
O18	O	0.047149	1.610727	0.196809
O19	O	-0.215253	1.010896	-0.376586
O20	O	0.284747	1.510896	0.123414
O21	O	-0.350464	0.922101	-0.189246
O22	O	0.149536	1.422101	0.310754
O23	O	-0.350418	0.812394	-0.298958
O24	O	0.149582	1.312394	0.201042
O25	O	-0.452770	0.917896	-0.496030
O26	O	0.047230	1.417896	0.003970
O27	O	-0.452796	0.808149	-0.386289
O28	O	0.047204	1.308149	0.113711
O29	O	-0.350373	1.005294	-0.491847
O30	O	0.149627	1.505294	0.008153
O31	O	-0.587997	0.995378	-0.308711
O32	O	-0.087997	1.495378	0.191289
O33	O	-0.587962	0.912255	-0.391838
O34	O	-0.087962	1.412255	0.108162
C35	C	-0.401605	0.785713	-0.342621
C36	C	0.098395	1.285713	0.157379
C37	C	-0.401618	0.710480	-0.342628
C38	C	0.098382	1.210480	0.157372
C39	C	-0.618229	0.952577	-0.351528
C40	C	-0.118229	1.452577	0.148472
C41	C	-0.710895	0.948792	-0.355352
C42	C	-0.210895	1.448792	0.144648
C43	C	-0.455007	0.672940	-0.388035
C44	C	0.044993	1.172940	0.111965
C45	C	-0.455008	0.602252	-0.388044
C46	C	0.044992	1.102252	0.111956
C47	C	-0.401625	0.569104	-0.342643
C48	C	0.098375	1.069104	0.157357
C49	C	-0.348230	0.606649	-0.297235
C50	C	0.151770	1.106649	0.202765
C51	C	-0.348225	0.677336	-0.297229
C52	C	0.151775	1.177336	0.202771
C53	C	-0.348249	0.321575	-0.297258
C54	C	0.151751	0.821575	0.202742
C55	C	-0.348260	0.250882	-0.297266
C56	C	0.151740	0.750882	0.202734
C57	C	-0.455032	0.246490	-0.388073
C58	C	0.044968	0.746490	0.111927
C59	C	-0.455027	0.317178	-0.388067
C60	C	0.044973	0.817178	0.111933
C61	C	-0.401630	0.354717	-0.342661
C62	C	0.098370	0.854717	0.157339
C63	C	-0.401628	0.431365	-0.342652
C64	C	0.098372	0.931365	0.157348
C65	C	-0.401630	0.492457	-0.342649
C66	C	0.098370	0.992457	0.157351
C67	C	-0.880557	0.941887	-0.362347
C68	C	-0.380557	1.441887	0.137653
C69	C	-0.921844	0.981370	-0.322951
C70	C	-0.421844	1.481370	0.177049
C71	C	-1.016250	0.977528	-0.326843
C72	C	-0.516250	1.477528	0.173157
C73	C	-0.786143	0.945728	-0.358456
C74	C	-0.286143	1.445728	0.141544
C75	C	-0.184167	0.970612	-0.333738
C76	C	0.315833	1.470612	0.166262
C77	C	-0.091501	0.974467	-0.329944
C78	C	0.408499	1.474467	0.170056
C79	C	-0.401563	0.961600	-0.519184
C80	C	0.098437	1.461600	-0.019184
C81	C	-0.401538	0.961614	-0.594415
C82	C	0.098462	1.461614	-0.094415
C83	C	-0.401638	1.138110	-0.342666
C84	C	0.098362	1.638110	0.157334
C85	C	-0.401645	1.213342	-0.342676
C86	C	0.098355	1.713342	0.157324
C87	C	-0.348207	0.920554	-0.627569
C88	C	0.151793	1.420554	-0.127569
C89	C	-0.348191	0.920564	-0.698257
C90	C	0.151809	1.420564	-0.198257
C91	C	-0.401502	0.961638	-0.735789
C92	C	0.098498	1.461638	-0.235789
C93	C	-0.454840	1.002699	-0.702630
C94	C	0.045160	1.502699	-0.202630
C95	C	-0.454860	1.002685	-0.631944
C96	C	0.045140	1.502685	-0.131944
C97	C	-0.454762	1.002756	-0.987700
C98	C	0.045238	1.502756	-0.487700
C99	C	-0.454736	1.002768	-1.058391
C100	C	0.045264	1.502768	-0.558391
C101	C	-0.348093	0.920635	-1.054013
C102	C	0.151907	1.420635	-0.554013
C103	C	-0.348113	0.920621	-0.983327
C104	C	0.151887	1.420621	-0.483327
C105	C	-0.401453	0.961679	-0.950174
C106	C	0.098547	1.461679	-0.450174
C107	C	-0.401471	0.961667	-0.873527
C108	C	0.098529	1.461667	-0.373527
C109	C	-0.401481	0.961654	-0.812435
C110	C	0.098519	1.461654	-0.312435
C111	C	-0.401618	0.961577	-0.166787
C112	C	0.098382	1.461577	0.333213
C113	C	-0.401408	0.961705	-0.091547
C114	C	0.098592	1.461705	0.408453
H115	H	-0.498483	0.571690	-0.425018
H116	H	0.001517	1.071690	0.074982
H117	H	-0.498481	0.699924	-0.425003
H118	H	0.001519	1.199924	0.074997
H119	H	-0.498251	1.036139	-0.733195
H120	H	0.001749	1.536139	-0.233195
H121	H	-0.304783	0.223896	-0.260295
H122	H	0.195217	0.723896	0.239705
O123	O	-0.512254	1.047059	-1.098878
O124	O	-0.012254	1.547059	-0.598878
H125	H	-0.549358	1.075599	-1.063950
H126	H	-0.049358	1.575599	-0.563950
O127	O	-0.927653	0.893285	-0.410884
O128	O	-0.427653	1.393285	0.089116
H129	H	-0.910954	0.905520	-0.463347
H130	H	-0.410954	1.405520	0.036653
O131	O	-0.874755	1.029970	-0.274401
O132	O	-0.374755	1.529970	0.225599
H133	H	-0.891475	1.017729	-0.221945
H134	H	-0.391475	1.517729	0.278055
O135	O	-0.290699	0.876253	-0.587094
O136	O	0.209301	1.376253	-0.087094
H137	H	-0.299664	0.883146	-0.532370
H138	H	0.200336	1.383146	-0.032370
O139	O	-0.290608	0.876320	-0.942849
O140	O	0.209392	1.376320	-0.442849
H141	H	-0.299576	0.883213	-0.888126
H142	H	0.200424	1.383213	-0.388126
H143	H	-0.498204	1.036181	-0.960716
H144	H	0.001796	1.536181	-0.460716
O145	O	-0.290662	0.876284	-0.734018
O146	O	0.209338	1.376284	-0.234018
H147	H	-0.253585	0.847729	-0.696044
H148	H	0.246415	1.347729	-0.196044
H149	H	-0.304776	0.352131	-0.260280
H150	H	0.195224	0.852131	0.239720
O151	O	-0.512373	1.046978	-0.596179
O152	O	-0.012373	1.546978	-0.096179
H153	H	-0.549434	1.075548	-0.634151
H154	H	-0.049434	1.575548	-0.134151
O155	O	-0.290555	0.876355	-1.089775
O156	O	0.209445	1.376355	-0.589775
H157	H	-0.327844	0.840364	-1.123502
H158	H	0.172156	1.340364	-0.623502
H159	H	-0.498507	0.215918	-0.425048
H160	H	0.001493	0.715918	0.074952
O161	O	-0.512599	0.352932	-0.437039
O162	O	-0.012599	0.852932	0.062961
H163	H	-0.549718	0.314952	-0.468621
H164	H	-0.049718	0.814952	0.031379
H165	H	-0.304761	0.579655	-0.260271
H166	H	0.195239	1.079655	0.239729
O167	O	-0.290652	0.717831	-0.248248
O168	O	0.209348	1.217831	0.251752
H169	H	-0.253540	0.682907	-0.216672
H170	H	0.246460	1.182907	0.283328
