data_functionalizedCrystal
_audit_creation_method	'MofGen! by Chris Wilmer'
_symmetry_space_group_name_H-M	'P1'
_symmetry_Int_Tables_number	1
_symmetry_cell_setting	triclinic
loop_
_symmetry_equiv_pos_as_xyz
  x,y,z
_cell_length_a	14.971486
_cell_length_b	14.971486
_cell_length_c	13.448316
_cell_angle_alpha	89.992514
_cell_angle_beta	90.003552
_cell_angle_gamma	83.614129
loop_
_atom_site_label
_atom_site_type_symbol
_atom_site_fract_x
_atom_site_fract_y
_atom_site_fract_z
O1	O	-1.186940	-0.116566	0.082578
O2	O	-0.853607	0.216767	0.415911
O3	O	-0.520274	0.550100	0.749245
O4	O	-0.926540	-0.130525	0.082605
O5	O	-0.593207	0.202808	0.415938
O6	O	-0.259873	0.536141	0.749272
O7	O	-1.063720	0.006654	0.082584
O8	O	-0.730386	0.339988	0.415917
O9	O	-0.397053	0.673321	0.749250
O10	O	-1.049761	-0.253746	0.082599
O11	O	-0.716427	0.079587	0.415933
O12	O	-0.383094	0.412921	0.749266
O13	O	-1.063717	0.006666	-0.082800
O14	O	-0.730383	0.339999	0.250533
O15	O	-0.397050	0.673333	0.583867
O16	O	-0.926537	-0.130513	-0.082779
O17	O	-0.593204	0.202820	0.250555
O18	O	-0.259870	0.536153	0.583888
O19	O	-1.186937	-0.116555	-0.082806
O20	O	-0.853604	0.216779	0.250527
O21	O	-0.520271	0.550112	0.583861
Cu22	Cu	-1.056737	-0.123533	-0.097893
Cu23	Cu	-0.723404	0.209800	0.235440
Cu24	Cu	-0.390070	0.543134	0.568774
Cu25	Cu	-1.056740	-0.123547	0.097692
Cu26	Cu	-0.723407	0.209786	0.431026
Cu27	Cu	-0.390074	0.543120	0.764359
O28	O	-1.049758	-0.253734	-0.082784
O29	O	-0.716424	0.079599	0.250549
O30	O	-0.383091	0.412933	0.583882
C31	C	-1.063094	0.039985	-0.000108
C32	C	-0.729761	0.373318	0.333226
C33	C	-0.396427	0.706652	0.666559
C34	C	-1.061223	0.139282	-0.000107
C35	C	-0.727890	0.472615	0.333227
C36	C	-0.394556	0.805949	0.666560
C37	C	-0.893214	-0.129895	-0.000083
C38	C	-0.559881	0.203438	0.333250
C39	C	-0.226547	0.536772	0.666583
C40	C	-0.793917	-0.128024	-0.000073
C41	C	-0.460583	0.205309	0.333260
C42	C	-0.127250	0.538642	0.666593
C43	C	-1.220263	-0.117185	-0.000115
C44	C	-0.886930	0.216149	0.333218
C45	C	-0.553597	0.549482	0.666552
C46	C	-1.319561	-0.119056	-0.000119
C47	C	-0.986227	0.214278	0.333215
C48	C	-0.652894	0.547611	0.666548
C49	C	-0.736692	-0.208614	-0.000070
C50	C	-0.403358	0.124720	0.333264
C51	C	-0.070025	0.458053	0.666597
C52	C	-0.643392	-0.206850	-0.000085
C53	C	-0.310059	0.126483	0.333249
C54	C	0.023275	0.459816	0.666582
C55	C	-0.607320	-0.124497	-0.000096
C56	C	-0.273986	0.208836	0.333237
C57	C	0.059347	0.542169	0.666571
C58	C	-0.664552	-0.043902	-0.000102
C59	C	-0.331219	0.289431	0.333231
C60	C	0.002114	0.622765	0.666564
C61	C	-0.757850	-0.045666	-0.000095
C62	C	-0.424517	0.287667	0.333239
C63	C	-0.091183	0.621001	0.666572
C64	C	-0.470090	-0.040231	-0.000116
C65	C	-0.136757	0.293103	0.333217
C66	C	0.196577	0.626436	0.666550
C67	C	-0.376786	-0.038466	-0.000122
C68	C	-0.043453	0.294867	0.333211
C69	C	0.289881	0.628200	0.666544
C70	C	-0.355632	-0.201415	-0.000106
C71	C	-0.022299	0.131918	0.333227
C72	C	0.311035	0.465251	0.666560
C73	C	-0.448930	-0.203179	-0.000099
C74	C	-0.115596	0.130154	0.333235
C75	C	0.217737	0.463487	0.666568
C76	C	-0.506156	-0.122584	-0.000103
C77	C	-0.172822	0.210750	0.333230
C78	C	0.160511	0.544083	0.666564
C79	C	-1.050384	-0.287065	-0.000091
C80	C	-0.717050	0.046269	0.333243
C81	C	-0.383717	0.379602	0.666576
C82	C	-1.052254	-0.386362	-0.000085
C83	C	-0.718921	-0.053028	0.333248
C84	C	-0.385588	0.280305	0.666581
N85	N	-1.056741	-0.123523	-0.235457
N86	N	-0.723408	0.209811	0.097876
N87	N	-0.390074	0.543144	0.431209
C88	C	-1.141812	0.196507	-0.000116
C89	C	-0.808479	0.529841	0.333217
C90	C	-0.475146	0.863174	0.666551
C91	C	-1.140049	0.289807	-0.000106
C92	C	-0.806716	0.623140	0.333228
C93	C	-0.473383	0.956473	0.666561
C94	C	-1.057696	0.325879	-0.000093
C95	C	-0.724363	0.659212	0.333240
C96	C	-0.391029	0.992546	0.666573
C97	C	-0.977101	0.268646	-0.000081
C98	C	-0.643767	0.601980	0.333252
C99	C	-0.310434	0.935313	0.666585
C100	C	-0.978865	0.175349	-0.000084
C101	C	-0.645531	0.508682	0.333249
C102	C	-0.312198	0.842015	0.666582
C103	C	-0.973430	0.463109	-0.000077
C104	C	-0.640096	0.796442	0.333256
C105	C	-0.306763	1.129776	0.666589
C106	C	-0.971665	0.556413	-0.000076
C107	C	-0.638332	0.889746	0.333257
C108	C	-0.304998	1.223080	0.666591
C109	C	-1.134614	0.577567	-0.000099
C110	C	-0.801281	0.910900	0.333235
C111	C	-0.467947	1.244233	0.666568
C112	C	-1.136378	0.484269	-0.000102
C113	C	-0.803045	0.817603	0.333232
C114	C	-0.469712	1.150936	0.666565
C115	C	-1.055782	0.427043	-0.000091
C116	C	-0.722449	0.760376	0.333242
C117	C	-0.389116	1.093710	0.666575
N118	N	-1.056744	-0.123550	0.235257
N119	N	-0.723410	0.209783	0.568590
N120	N	-0.390077	0.543116	0.901923
C121	C	-1.117600	-0.062927	0.287288
C122	C	-0.784267	0.270406	0.620621
C123	C	-0.450933	0.603740	0.953954
C124	C	-1.117604	-0.062924	0.391391
C125	C	-0.784270	0.270409	0.724724
C126	C	-0.450937	0.603742	1.058058
C127	C	-1.056746	-0.123542	0.443461
C128	C	-0.723413	0.209792	0.776795
C129	C	-0.390079	0.543125	1.110128
C130	C	-0.995887	-0.184171	0.391423
C131	C	-0.662553	0.149162	0.724756
C132	C	-0.329220	0.482495	1.058090
C133	C	-0.995888	-0.184177	0.287322
C134	C	-0.662555	0.149156	0.620655
C135	C	-0.329221	0.482489	0.953988
C136	C	-0.995887	-0.184153	0.608403
C137	C	-0.662554	0.149180	0.941736
C138	C	-0.329220	0.482514	1.275070
C139	C	-0.995884	-0.184146	0.712512
C140	C	-0.662551	0.149187	1.045845
C141	C	-0.329218	0.482521	1.379178
C142	C	-1.117603	-0.062900	0.712472
C143	C	-0.784270	0.270433	1.045806
C144	C	-0.450936	0.603767	1.379139
C145	C	-1.117604	-0.062906	0.608371
C146	C	-0.784271	0.270427	0.941704
C147	C	-0.450937	0.603761	1.275038
C148	C	-1.056743	-0.123535	0.556340
C149	C	-0.723410	0.209799	0.889673
C150	C	-0.390077	0.543132	1.223007
H151	H	-0.766054	-0.275675	-0.000060
H152	H	-0.432720	0.057658	0.333273
H153	H	-0.099387	0.390992	0.666607
F154	F	-1.182369	0.001614	0.552953
F155	F	-0.849036	0.334947	0.886286
F156	F	-0.515703	0.668280	1.219620
F157	F	-1.182370	0.001596	0.231880
F158	F	-0.849037	0.334929	0.565213
F159	F	-0.515704	0.668262	0.898547
F160	F	-0.338397	0.049183	-0.000160
F161	F	-0.005064	0.382516	0.333174
F162	F	0.328270	0.715850	0.666507
F163	F	-0.530993	0.045549	-0.000124
F164	F	-0.197659	0.378882	0.333209
F165	F	0.135674	0.712216	0.666542
H166	H	-0.946338	-0.233531	0.433825
H167	H	-0.613005	0.099802	0.767158
H168	H	-0.279671	0.433135	1.100491
H169	H	-1.167158	-0.013561	0.433754
H170	H	-0.833825	0.319772	0.767087
H171	H	-0.500492	0.653106	1.100421
F172	F	-1.225824	0.350707	-0.000117
F173	F	-0.892490	0.684040	0.333216
F174	F	-0.559157	1.017373	0.666549
F175	F	-1.224028	0.445880	-0.000112
F176	F	-0.890694	0.779214	0.333221
F177	F	-0.557361	1.112547	0.666554
H178	H	-0.596802	-0.272474	-0.000081
H179	H	-0.263469	0.060859	0.333253
H180	H	0.069864	0.394192	0.666586
H181	H	-0.904606	0.585780	-0.000082
H182	H	-0.571273	0.919113	0.333251
H183	H	-0.237939	1.252446	0.666584
H184	H	-0.946334	-0.233544	0.244959
H185	H	-0.613000	0.099789	0.578292
H186	H	-0.279667	0.433123	0.911626
H187	H	-0.309033	-0.267039	-0.000107
H188	H	0.024300	0.066294	0.333226
H189	H	0.357633	0.399627	0.666560
H190	H	-1.200238	0.624165	-0.000104
H191	H	-0.866905	0.957499	0.333230
H192	H	-0.533572	1.290832	0.666563
H193	H	-1.167158	-0.013534	0.754842
H194	H	-0.833824	0.319799	1.088175
H195	H	-0.500491	0.653132	1.421509
H196	H	-0.478296	-0.270239	-0.000080
H197	H	-0.144963	0.063095	0.333253
H198	H	0.188370	0.396428	0.666587
H199	H	-0.907800	0.416517	-0.000066
H200	H	-0.574466	0.749850	0.333267
H201	H	-0.241133	1.083184	0.666600
F202	F	-0.931114	-0.248685	0.553032
F203	F	-0.597780	0.084648	0.886366
F204	F	-0.264447	0.417982	1.219699
H205	H	-0.635175	0.023152	-0.000126
H206	H	-0.301842	0.356485	0.333208
H207	H	0.031492	0.689818	0.666541
H208	H	-0.946329	-0.233508	0.754902
H209	H	-0.612995	0.099826	1.088236
H210	H	-0.279662	0.433159	1.421569
H211	H	-0.804443	0.019958	-0.000097
H212	H	-0.471109	0.353292	0.333237
H213	H	-0.137776	0.686625	0.666570
F214	F	-1.229465	0.158125	-0.000138
F215	F	-0.896132	0.491459	0.333195
F216	F	-0.562799	0.824792	0.666528
F217	F	-0.889454	0.307040	-0.000057
F218	F	-0.556120	0.640373	0.333276
F219	F	-0.222787	0.973706	0.666610
F220	F	-0.893090	0.114445	-0.000072
F221	F	-0.559757	0.447778	0.333262
F222	F	-0.226424	0.781112	0.666595
