data_functionalizedCrystal
_audit_creation_method	'MofGen! by Chris Wilmer'
_symmetry_space_group_name_H-M	'P1'
_symmetry_Int_Tables_number	1
_symmetry_cell_setting	triclinic
loop_
_symmetry_equiv_pos_as_xyz
  x,y,z
_cell_length_a	12.827893
_cell_length_b	21.295417
_cell_length_c	12.827885
_cell_angle_alpha	89.961900
_cell_angle_beta	89.980538
_cell_angle_gamma	90.030477
loop_
_atom_site_label
_atom_site_type_symbol
_atom_site_fract_x
_atom_site_fract_y
_atom_site_fract_z
Zn1	Zn	1.597562	-0.250579	-0.590788
Zn2	Zn	1.597409	-0.355861	-0.416023
Zn3	Zn	1.422803	-0.250610	-0.416062
Zn4	Zn	1.422742	-0.355814	-0.590723
O5	O	1.510129	-0.303216	-0.503399
O6	O	1.743778	-0.264552	-0.567616
O7	O	1.574209	-0.341932	-0.269792
O8	O	1.446074	-0.162516	-0.439283
O9	O	1.743665	-0.341902	-0.439217
O10	O	1.574469	-0.162494	-0.567654
O11	O	1.445926	-0.264604	-0.269821
O12	O	1.276559	-0.264559	-0.439220
O13	O	1.445971	-0.341822	-0.736968
O14	O	1.276514	-0.341852	-0.567543
O15	O	1.574410	-0.264506	-0.737016
O16	O	1.574150	-0.443944	-0.439154
O17	O	1.445823	-0.443910	-0.567505
C18	C	1.238619	-0.303204	-0.503379
C19	C	1.122466	-0.303214	-0.503396
C20	C	1.509992	-0.466768	-0.503341
C21	C	1.510029	-0.536736	-0.503351
C22	C	1.070687	-0.341521	-0.566796
C23	C	0.950637	-0.341532	-0.566814
C24	C	1.576908	-0.569600	-0.436587
C25	C	1.576957	-0.635342	-0.436611
C26	C	1.510108	-0.668218	-0.503387
C27	C	1.443224	-0.635347	-0.570165
C28	C	1.443185	-0.569606	-0.570147
N29	N	1.418692	-0.771484	-0.511347
N30	N	1.418732	-0.833935	-0.511358
C31	C	1.510225	-0.866293	-0.503447
N32	N	1.601678	-0.833840	-0.495504
N33	N	1.601636	-0.771383	-0.495488
C34	C	1.510144	-0.739504	-0.503415
C35	C	1.577163	-0.970442	-0.436705
C36	C	1.577214	-1.036186	-0.436736
C37	C	1.443472	-1.036189	-0.570284
C38	C	1.443431	-0.970447	-0.570259
C39	C	1.510275	-0.937577	-0.503464
C40	C	1.782699	-0.303229	-0.503420
C41	C	1.898852	-0.303234	-0.503428
C42	C	1.510201	-0.303156	-0.775969
C43	C	1.510232	-0.303130	-0.892123
C44	C	1.510295	-0.139026	-0.503480
C45	C	1.510366	-0.069058	-0.503515
C46	C	1.446774	-0.264858	-0.943921
C47	C	1.446804	-0.264831	-1.063972
C48	C	1.510117	-0.303231	-0.231889
C49	C	1.510289	-0.303079	-0.115737
H50	H	1.115234	-0.374306	-0.621065
F51	F	0.957044	-0.260367	-0.432470
H52	H	1.389047	-1.062957	-0.624660
F53	F	1.375741	-0.222050	-0.885723
H54	H	1.388723	-0.542847	-0.624515
F55	F	1.372243	-0.935470	-0.641315
F56	F	1.064246	-0.260353	-0.432469
H57	H	1.564582	-0.335876	-0.936653
F58	F	0.892438	-0.384404	-0.637759
H59	H	1.631422	-0.662105	-0.382244
F60	F	1.372083	-0.670337	-0.641237
F61	F	1.648062	-0.534621	-0.365509
F62	F	1.648303	-0.935458	-0.365617
H63	H	1.631682	-1.062942	-0.382371
F64	F	1.375795	-0.221999	-1.122193
F65	F	1.581312	-0.345907	-1.057523
