data_functionalizedCrystal
_audit_creation_method	'MofGen! by Chris Wilmer'
_symmetry_space_group_name_H-M	'P1'
_symmetry_Int_Tables_number	1
_symmetry_cell_setting	triclinic
loop_
_symmetry_equiv_pos_as_xyz
  x,y,z
_cell_length_a	11.026607
_cell_length_b	11.792241
_cell_length_c	9.482900
_cell_angle_alpha	99.398500
_cell_angle_beta	78.636152
_cell_angle_gamma	96.389716
loop_
_atom_site_label
_atom_site_type_symbol
_atom_site_fract_x
_atom_site_fract_y
_atom_site_fract_z
O1	O	1.632118	0.461983	-0.120906
O2	O	1.278456	0.407791	-0.120907
O3	O	1.463868	0.271422	-0.120897
O4	O	1.446706	0.598353	-0.120917
O5	O	1.426207	0.299264	0.120894
O6	O	1.240795	0.435633	0.120883
O7	O	1.594458	0.489825	0.120884
Cu8	Cu	1.414188	0.465271	0.142961
Cu9	Cu	1.458726	0.432345	-0.142984
O10	O	1.409046	0.626195	0.120873
C11	C	1.214349	0.411715	-0.000012
C12	C	1.079439	0.381912	-0.000012
C13	C	1.006176	0.464202	-0.000018
C14	C	0.866739	0.433401	-0.000018
C15	C	1.443960	0.242838	-0.000002
C16	C	1.440733	0.116183	-0.000003
C17	C	1.434802	-0.115710	-0.000028
C18	C	1.438097	0.013331	-0.000014
C19	C	1.658565	0.485901	-0.000014
C20	C	1.793477	0.515703	-0.000024
C21	C	1.428955	0.654778	-0.000025
C22	C	1.432183	0.781432	-0.000033
N23	N	1.382871	0.488431	0.344079
N24	N	1.490052	0.409178	-0.344102
C25	C	1.449480	0.439169	0.416282
C26	C	1.423433	0.458448	0.583698
H27	H	0.826244	0.340138	-0.000049
O28	O	1.540680	0.371931	0.342371
C29	C	1.655419	0.419038	0.379442
H30	H	1.638535	0.475505	0.489981
H31	H	1.706813	0.473410	0.293796
C32	C	1.754877	0.251412	0.250546
C33	C	1.734139	0.320759	0.386318
H34	H	1.803439	0.190791	0.254781
H35	H	1.677577	0.219677	0.225565
H36	H	1.797700	0.296735	0.179188
H37	H	1.691304	0.275439	0.457668
H38	H	1.811435	0.352485	0.411311
H39	H	1.306557	0.544875	0.406205
O40	O	1.332229	0.525641	0.657732
C41	C	1.217476	0.478597	0.620645
H42	H	1.222508	0.382655	0.578708
H43	H	1.196033	0.524283	0.532415
C44	C	1.108114	0.612935	0.807473
C45	C	1.114291	0.495094	0.755978
H46	H	1.044462	0.623115	0.890950
H47	H	1.185425	0.644633	0.832457
H48	H	1.090249	0.650992	0.733936
H49	H	1.132170	0.457042	0.829509
H50	H	1.036980	0.463390	0.731010
O51	O	1.054386	0.575503	0.000233
C52	C	0.995566	0.644325	0.125435
H53	H	0.955073	0.587882	0.212964
H54	H	0.917867	0.687626	0.097116
C55	C	1.140704	0.806579	0.074709
C56	C	1.090980	0.737256	0.182218
H57	H	1.199557	0.863908	0.109733
H58	H	1.180330	0.760215	-0.009645
H59	H	1.075945	0.842652	0.051120
H60	H	1.155737	0.701173	0.205792
H61	H	1.051367	0.783617	0.266578
O62	O	0.841659	0.626984	-0.000230
C63	C	0.821892	0.666941	-0.125482
H64	H	0.740234	0.613292	-0.167226
H65	H	0.908799	0.658578	-0.213169
C66	C	0.893506	0.860247	-0.036191
C67	C	0.793204	0.794361	-0.087454
H68	H	0.875815	0.938847	-0.012738
H69	H	0.906828	0.833328	0.048192
H70	H	0.965919	0.853265	-0.109272
H71	H	0.720798	0.801332	-0.014368
H72	H	0.779870	0.821284	-0.171824
O73	O	1.031111	0.270645	-0.000265
C74	C	0.978069	0.234106	-0.125471
H75	H	1.022156	0.289513	-0.212999
H76	H	0.873905	0.243287	-0.097158
C77	C	0.947137	0.038893	-0.074745
C78	C	1.001293	0.106939	-0.182253
H79	H	0.961456	-0.039551	-0.109769
H80	H	0.982868	0.063510	0.009612
H81	H	0.860337	0.046556	-0.051161
H82	H	1.088092	0.099286	-0.205822
H83	H	0.965577	0.082317	-0.266615
O84	O	1.581153	0.341888	0.581814
C85	C	1.696032	0.388821	0.618629
H86	H	1.679382	0.445234	0.729222
H87	H	1.747353	0.443212	0.532967
C88	C	1.795137	0.221125	0.489332
C89	C	1.774687	0.290405	0.625171
H90	H	1.843658	0.160419	0.493361
H91	H	1.717742	0.189506	0.464524
H92	H	1.837899	0.266463	0.417961
H93	H	1.731913	0.245070	0.696535
H94	H	1.852077	0.322014	0.649991
