data_functionalizedCrystal
_audit_creation_method	'MofGen! by Chris Wilmer'
_symmetry_space_group_name_H-M	'P1'
_symmetry_Int_Tables_number	1
_symmetry_cell_setting	triclinic
loop_
_symmetry_equiv_pos_as_xyz
  x,y,z
_cell_length_a	13.897449
_cell_length_b	16.625545
_cell_length_c	16.625539
_cell_angle_alpha	90.026370
_cell_angle_beta	90.021254
_cell_angle_gamma	90.023964
loop_
_atom_site_label
_atom_site_type_symbol
_atom_site_fract_x
_atom_site_fract_y
_atom_site_fract_z
Zn1	Zn	-1.474614	0.321017	-0.456000
Zn2	Zn	-1.141281	0.654350	-0.122667
Zn3	Zn	-0.807948	0.987683	0.210667
Zn4	Zn	-1.474504	0.455855	-0.321167
Zn5	Zn	-1.141171	0.789189	0.012166
Zn6	Zn	-0.807837	1.122522	0.345499
Zn7	Zn	-1.313317	0.321040	-0.321171
Zn8	Zn	-0.979984	0.654374	0.012163
Zn9	Zn	-0.646650	0.987707	0.345496
Zn10	Zn	-1.313267	0.455811	-0.455947
Zn11	Zn	-0.979934	0.789144	-0.122614
Zn12	Zn	-0.646601	1.122477	0.210719
O13	O	-1.393926	0.388431	-0.388571
O14	O	-1.060592	0.721764	-0.055238
O15	O	-0.727259	1.055097	0.278095
O16	O	-1.609581	0.338912	-0.438135
O17	O	-1.276248	0.672245	-0.104802
O18	O	-0.942915	1.005579	0.228532
O19	O	-1.453097	0.438000	-0.208335
O20	O	-1.119763	0.771334	0.124998
O21	O	-0.786430	1.104667	0.458331
O22	O	-1.334780	0.208205	-0.339080
O23	O	-1.001447	0.541538	-0.005746
O24	O	-0.668114	0.874871	0.327587
O25	O	-1.609500	0.437977	-0.339074
O26	O	-1.276167	0.771311	-0.005741
O27	O	-0.942834	1.104644	0.327593
O28	O	-1.453285	0.208187	-0.438138
O29	O	-1.119951	0.541521	-0.104805
O30	O	-0.786618	0.874854	0.228529
O31	O	-1.334673	0.338952	-0.208338
O32	O	-1.001340	0.672286	0.124996
O33	O	-0.668007	1.005619	0.458329
O34	O	-1.178329	0.338909	-0.339028
O35	O	-0.844995	0.672242	-0.005695
O36	O	-0.511662	1.005576	0.327638
O37	O	-1.334696	0.437901	-0.568787
O38	O	-1.001362	0.771235	-0.235454
O39	O	-0.668029	1.104568	0.097880
O40	O	-1.178292	0.437924	-0.438048
O41	O	-0.844959	0.771258	-0.104715
O42	O	-0.511626	1.104591	0.228618
O43	O	-1.453237	0.338869	-0.568826
O44	O	-1.119903	0.672202	-0.235492
O45	O	-0.786570	1.005535	0.097841
O46	O	-1.453049	0.568682	-0.339023
O47	O	-1.119715	0.902015	-0.005690
O48	O	-0.786382	1.235348	0.327644
O49	O	-1.334589	0.568649	-0.438045
O50	O	-1.001255	0.901982	-0.104712
O51	O	-0.667922	1.235316	0.228621
C52	C	-1.143311	0.388415	-0.388534
C53	C	-0.809978	0.721748	-0.055200
C54	C	-0.476645	1.055082	0.278133
C55	C	-1.036097	0.388428	-0.388536
C56	C	-0.702764	0.721761	-0.055203
C57	C	-0.369431	1.055094	0.278130
C58	C	-1.393827	0.597922	-0.388546
C59	C	-1.060494	0.931255	-0.055212
C60	C	-0.727161	1.264588	0.278121
C61	C	-1.393874	0.687543	-0.388561
C62	C	-1.060540	1.020876	-0.055228
C63	C	-0.727207	1.354209	0.278105
C64	C	-0.949028	0.388429	-0.388546
C65	C	-0.615694	0.721763	-0.055213
C66	C	-0.282361	1.055096	0.278120
C67	C	-0.839795	0.388433	-0.388567
C68	C	-0.506462	0.721767	-0.055233
C69	C	-0.173128	1.055100	0.278100
C70	C	-0.645519	0.388444	-0.388600
C71	C	-0.312185	0.721777	-0.055267
C72	C	0.021148	1.055110	0.278067
C73	C	-0.752732	0.388441	-0.388587
C74	C	-0.419399	0.721774	-0.055254
C75	C	-0.086066	1.055108	0.278079
C76	C	-1.394031	1.015718	-0.388658
C77	C	-1.060698	1.349052	-0.055325
C78	C	-0.727365	1.682385	0.278009
C79	C	-1.393984	0.924410	-0.388633
C80	C	-1.060651	1.257743	-0.055300
C81	C	-0.727318	1.591076	0.278033
C82	C	-1.393952	0.851633	-0.388609
C83	C	-1.060618	1.184967	-0.055276
C84	C	-0.727285	1.518300	0.278057
C85	C	-1.393906	0.760319	-0.388585
C86	C	-1.060573	1.093652	-0.055252
C87	C	-0.727240	1.426986	0.278081
C88	C	-1.393973	0.388377	-0.598880
C89	C	-1.060640	0.721711	-0.265547
C90	C	-0.727306	1.055044	0.067786
C91	C	-1.393993	0.388355	-0.688502
C92	C	-1.060660	0.721688	-0.355168
C93	C	-0.727326	1.055021	-0.021835
C94	C	-1.394042	1.178122	-0.388624
C95	C	-1.060709	1.511455	-0.055291
C96	C	-0.727376	1.844788	0.278042
C97	C	-1.394071	1.088501	-0.388671
C98	C	-1.060738	1.421834	-0.055338
C99	C	-0.727404	1.755167	0.277995
C100	C	-1.394009	0.388337	-0.761284
C101	C	-1.060675	0.721670	-0.427951
C102	C	-0.727342	1.055004	-0.094617
C103	C	-1.394031	0.388307	-0.852593
C104	C	-1.060698	0.721640	-0.519259
C105	C	-0.727365	1.054974	-0.185926
C106	C	-1.394054	0.388279	-0.925369
C107	C	-1.060721	0.721612	-0.592036
C108	C	-0.727387	1.054945	-0.258702
C109	C	-1.394078	0.388249	-1.016683
C110	C	-1.060745	0.721583	-0.683350
C111	C	-0.727411	1.054916	-0.350017
C112	C	-1.393934	0.388426	-0.179081
C113	C	-1.060601	0.721759	0.154253
C114	C	-0.727267	1.055092	0.487586
C115	C	-1.394101	0.388221	-0.089460
C116	C	-1.060767	0.721554	0.243873
C117	C	-0.727434	1.054888	0.577207
