data_functionalizedCrystal
_audit_creation_method	'MofGen! by Chris Wilmer'
_symmetry_space_group_name_H-M	'P1'
_symmetry_Int_Tables_number	1
_symmetry_cell_setting	triclinic
loop_
_symmetry_equiv_pos_as_xyz
  x,y,z
_cell_length_a	17.077404
_cell_length_b	19.077068
_cell_length_c	17.077396
_cell_angle_alpha	92.267122
_cell_angle_beta	89.980499
_cell_angle_gamma	92.327269
loop_
_atom_site_label
_atom_site_type_symbol
_atom_site_fract_x
_atom_site_fract_y
_atom_site_fract_z
Zn1	Zn	1.187475	-0.280197	-0.456376
Zn2	Zn	1.182097	-0.397901	-0.330375
Zn3	Zn	1.056205	-0.280222	-0.325125
Zn4	Zn	1.050892	-0.397859	-0.461596
O5	O	1.119167	-0.339045	-0.393368
O6	O	1.296608	-0.295818	-0.439674
O7	O	1.165371	-0.382318	-0.219833
O8	O	1.078093	-0.181727	-0.338154
O9	O	1.292657	-0.382294	-0.347101
O10	O	1.174536	-0.181709	-0.434583
O11	O	1.072878	-0.295860	-0.215976
O12	O	0.945654	-0.295819	-0.343216
O13	O	1.069036	-0.382223	-0.570750
O14	O	0.941750	-0.382247	-0.443481
O15	O	1.169383	-0.295777	-0.566914
O16	O	1.160218	-0.496386	-0.352163
O17	O	1.063822	-0.496356	-0.448571
C18	C	0.915220	-0.339032	-0.393346
C19	C	0.827970	-0.339043	-0.393356
C20	C	0.784964	-0.384114	-0.445486
C21	C	0.702984	-0.384116	-0.445499
C22	C	0.664010	-0.339050	-0.393376
C23	C	0.707021	-0.293974	-0.341243
C24	C	0.789000	-0.293969	-0.341235
C25	C	0.536151	-0.293988	-0.341263
C26	C	0.454166	-0.293993	-0.341270
C27	C	0.450134	-0.384134	-0.445526
C28	C	0.532113	-0.384130	-0.445518
C29	C	0.575119	-0.339055	-0.393384
C30	C	1.110881	-0.521909	-0.401521
C31	C	1.107408	-0.600139	-0.405035
C32	C	1.156004	-0.636884	-0.356533
C33	C	1.152742	-0.710389	-0.359843
C34	C	1.100880	-0.747148	-0.411651
C35	C	1.052283	-0.710398	-0.460158
C36	C	1.055549	-0.636894	-0.456852
C37	C	1.085729	-0.966982	-0.426921
C38	C	1.082465	-1.040491	-0.430222
C39	C	1.182926	-1.040478	-0.329907
C40	C	1.186184	-0.966973	-0.326602
C41	C	1.137590	-0.930229	-0.375112
N42	N	1.097543	-0.822282	-0.415033
N43	N	1.140931	-0.855096	-0.371733
C44	C	1.323911	-0.339058	-0.393391
C45	C	1.411160	-0.339064	-0.393400
C46	C	1.119217	-0.338993	-0.598110
C47	C	1.119238	-0.338971	-0.685359
C48	C	1.127507	-0.155467	-0.385201
C49	C	1.131061	-0.077237	-0.381720
C50	C	1.171491	-0.293955	-0.724353
C51	C	1.171501	-0.293931	-0.806332
C52	C	1.119262	-0.338928	-0.849316
C53	C	1.067004	-0.383946	-0.810317
C54	C	1.066990	-0.383965	-0.728339
C55	C	1.067038	-0.383904	-0.981185
C56	C	1.067052	-0.383885	-1.063169
C57	C	1.171549	-0.293870	-1.059179
C58	C	1.171535	-0.293889	-0.977201
C59	C	1.119277	-0.338908	-0.938207
C60	C	1.119165	-0.339046	-0.189420
C61	C	1.119305	-0.338869	-0.102163
H62	H	0.415115	-0.420834	-0.487978
H63	H	1.214052	-0.257276	-0.838078
O64	O	0.661300	-0.427872	-0.496240
C65	C	0.634698	-0.462189	-0.631231
C66	C	0.681965	-0.412597	-0.573852
H67	H	0.651376	-0.449848	-0.693993
H68	H	0.648262	-0.518932	-0.619922
H69	H	0.569413	-0.454468	-0.622251
H70	H	0.747263	-0.420255	-0.582799
H71	H	0.668334	-0.355872	-0.585176
H72	H	0.422436	-0.257288	-0.298836
H73	H	0.675282	-0.257277	-0.298808
O74	O	1.032105	-1.076309	-0.480484
C75	C	0.982584	-1.189554	-0.530055
C76	C	1.039638	-1.149079	-0.473093
H77	H	0.988666	-1.248396	-0.524111
H78	H	0.919915	-1.175209	-0.515570
H79	H	0.996971	-1.175016	-0.592702
H80	H	1.025322	-1.163596	-0.410426
H81	H	1.102289	-1.163428	-0.487646
O82	O	1.016370	-0.427560	-1.105045
C83	C	0.970032	-0.467365	-1.233105
C84	C	1.027489	-0.417887	-1.185778
H85	H	0.978991	-0.459551	-1.298386
H86	H	0.981214	-0.524144	-1.219581
H87	H	0.907310	-0.454995	-1.216375
H88	H	1.090233	-0.430194	-1.202481
H89	H	1.016240	-0.361122	-1.199306
O90	O	1.016260	-0.427713	-0.943430
C91	C	0.912617	-0.516996	-0.956034
C92	C	0.970080	-0.467421	-0.998891
H93	H	0.875255	-0.549103	-1.000854
H94	H	0.946958	-0.553850	-0.919331
H95	H	0.873061	-0.484694	-0.916178
H96	H	1.009650	-0.499666	-1.038787
H97	H	0.935691	-0.430565	-1.035544
H98	H	1.214077	-0.257253	-0.942205
H99	H	1.222490	-1.070403	-0.290414
O100	O	1.038436	-0.931404	-0.474060
C101	C	0.938461	-0.939181	-0.573920
C102	C	0.991972	-0.979564	-0.520569
H103	H	0.900893	-0.978101	-0.611548
H104	H	0.898913	-0.904845	-0.536330
H105	H	0.976010	-0.904693	-0.613421
H106	H	0.954484	-1.014090	-0.481060
H107	H	1.031524	-1.013857	-0.558207
H108	H	1.214097	-0.257212	-1.090932
H109	H	1.192313	-0.740304	-0.320346
H110	H	1.010059	-0.740332	-0.502345
O111	O	1.016214	-0.427769	-0.690582
C112	C	0.912556	-0.517038	-0.703185
C113	C	0.970030	-0.467474	-0.746043
H114	H	0.875190	-0.549142	-0.748006
H115	H	0.946887	-0.553895	-0.666477
H116	H	0.873003	-0.484728	-0.663334
H117	H	1.009597	-0.499728	-0.785934
H118	H	0.935651	-0.430615	-0.782701
O119	O	1.222265	-0.250178	-0.682720
C120	C	1.325940	-0.160919	-0.687426
C121	C	1.268468	-0.210452	-0.734667
H122	H	1.363322	-0.128798	-0.729405
H123	H	1.291606	-0.124076	-0.647422
H124	H	1.365478	-0.193254	-0.650470
H125	H	1.228917	-0.178173	-0.771668
H126	H	1.302851	-0.247296	-0.774622
O127	O	1.008420	-0.601088	-0.503935
C128	C	0.968898	-0.487855	-0.543268
C129	C	1.022326	-0.528315	-0.489911
H130	H	0.980110	-0.429011	-0.531937
H131	H	0.982010	-0.502204	-0.607239
H132	H	0.904971	-0.502403	-0.530089
H133	H	1.086270	-0.513789	-0.503020
H134	H	1.009146	-0.513962	-0.425957
H135	H	1.228414	-0.937045	-0.284416
H136	H	1.024468	-0.420581	-0.845321
H137	H	0.816690	-0.420815	-0.487928
H138	H	0.563843	-0.420830	-0.487957
H139	H	0.824015	-0.257264	-0.298789
H140	H	0.571164	-0.257277	-0.298816
H141	H	1.198232	-0.606960	-0.314342
