data_functionalizedCrystal
_audit_creation_method	'MofGen! by Chris Wilmer'
_symmetry_space_group_name_H-M	'P1'
_symmetry_Int_Tables_number	1
_symmetry_cell_setting	triclinic
loop_
_symmetry_equiv_pos_as_xyz
  x,y,z
_cell_length_a	16.959454
_cell_length_b	17.077404
_cell_length_c	17.077396
_cell_angle_alpha	89.980499
_cell_angle_beta	90.018257
_cell_angle_gamma	89.996935
loop_
_atom_site_label
_atom_site_type_symbol
_atom_site_fract_x
_atom_site_fract_y
_atom_site_fract_z
Zn1	Zn	0.314677	1.200164	-0.443899
Zn2	Zn	0.446865	1.200117	-0.312656
Zn3	Zn	0.314704	1.068896	-0.312646
Zn4	Zn	0.446818	1.068910	-0.443880
O5	O	0.380766	1.134522	-0.378270
O6	O	0.332220	1.310005	-0.426501
O7	O	0.429364	1.182685	-0.202808
O8	O	0.204090	1.086323	-0.330061
O9	O	0.429338	1.309970	-0.330077
O10	O	0.204070	1.182765	-0.426492
O11	O	0.332267	1.086277	-0.202801
O12	O	0.332222	0.959051	-0.330043
O13	O	0.429258	1.086346	-0.553729
O14	O	0.429285	0.959061	-0.426459
O15	O	0.332174	1.182778	-0.553743
O16	O	0.557469	1.182698	-0.330059
O17	O	0.557435	1.086301	-0.426468
C18	C	0.380752	0.930574	-0.378248
C19	C	0.380764	0.843324	-0.378258
C20	C	0.174598	1.134547	-0.378278
C21	C	0.086741	1.134558	-0.378281
C22	C	0.431381	0.802360	-0.428381
C23	C	0.431383	0.720379	-0.428394
C24	C	0.380771	0.679365	-0.378278
C25	C	0.330149	0.720335	-0.328153
C26	C	0.330144	0.802314	-0.328145
C27	C	0.330164	0.549465	-0.328172
C28	C	0.330170	0.467480	-0.328178
C29	C	0.431404	0.467530	-0.428421
C30	C	0.431399	0.549509	-0.428413
C31	C	0.380777	0.590474	-0.378286
C32	C	0.045455	1.184778	-0.428488
C33	C	0.045474	1.084345	-0.328081
C34	C	-0.037072	1.084351	-0.328085
C35	C	-0.078358	1.134570	-0.378292
C36	C	-0.037099	1.184783	-0.428495
C37	C	-0.078338	1.034133	-0.277888
C38	C	-0.160889	1.034136	-0.277891
C39	C	-0.202177	1.084360	-0.328094
C40	C	-0.160912	1.134576	-0.378299
C41	C	-0.202198	1.184795	-0.428506
C42	C	-0.160935	1.235015	-0.478708
C43	C	-0.078386	1.235007	-0.478699
C44	C	-0.284725	1.084368	-0.328103
C45	C	-0.284752	1.184800	-0.428513
C46	C	0.586132	1.134517	-0.378280
C47	C	0.673989	1.134587	-0.378310
C48	C	0.380708	1.134569	-0.583014
C49	C	0.380683	1.134589	-0.670264
C50	C	0.380781	1.339266	-0.378292
C51	C	0.380787	1.426516	-0.378302
C52	C	0.330127	1.184803	-0.711263
C53	C	0.330101	1.184813	-0.793244
C54	C	0.380635	1.134612	-0.834224
C55	C	0.431192	1.084392	-0.793219
C56	C	0.431214	1.084379	-0.711240
C57	C	0.431145	1.084424	-0.964090
C58	C	0.431124	1.084437	-1.046074
C59	C	0.330032	1.184857	-1.046093
C60	C	0.330053	1.184844	-0.964114
C61	C	0.380612	1.134626	-0.923115
C62	C	0.380767	1.134519	-0.174322
C63	C	0.380569	1.134651	-0.087073
H64	H	0.472598	0.835748	-0.469189
H65	H	0.472335	1.043515	-0.826592
Cl66	Cl	-0.026508	1.298131	-0.541807
Cl67	Cl	0.266524	0.600961	-0.265154
H68	H	0.079055	1.225668	-0.469358
H69	H	0.288935	1.225704	-0.826621
H70	H	0.472601	0.687030	-0.469209
Cl71	Cl	0.266517	0.668773	-0.265155
Cl72	Cl	0.266506	0.853812	-0.265131
Cl73	Cl	0.495031	0.601070	-0.491411
H74	H	0.288979	1.225685	-0.677903
H75	H	-0.194481	0.993245	-0.237014
H76	H	0.472619	0.434173	-0.469238
H77	H	0.288948	0.434088	-0.287379
Cl78	Cl	-0.336647	1.247941	-0.491631
H79	H	-0.194559	1.275901	-0.519590
Cl80	Cl	0.097377	1.021205	-0.264978
H81	H	0.472272	1.043557	-1.079438
Cl82	Cl	-0.336596	1.021238	-0.265000
Cl83	Cl	-0.026433	0.970989	-0.214790
H84	H	0.288909	1.225727	-0.930750
H85	H	0.288863	1.225746	-1.079478
Cl86	Cl	0.494705	1.021290	-0.912549
H87	H	0.472374	1.043482	-0.677860
