data_functionalizedCrystal
_audit_creation_method	'MofGen! by Chris Wilmer'
_symmetry_space_group_name_H-M	'P1'
_symmetry_Int_Tables_number	1
_symmetry_cell_setting	triclinic
loop_
_symmetry_equiv_pos_as_xyz
  x,y,z
_cell_length_a	10.967926
_cell_length_b	15.537862
_cell_length_c	10.065875
_cell_angle_alpha	95.290622
_cell_angle_beta	93.120479
_cell_angle_gamma	66.438525
loop_
_atom_site_label
_atom_site_type_symbol
_atom_site_fract_x
_atom_site_fract_y
_atom_site_fract_z
O1	O	1.542270	0.161794	0.249235
O2	O	1.191069	0.164444	0.166632
O3	O	1.435045	0.028387	0.224027
O4	O	1.298294	0.297850	0.191840
O5	O	1.388474	0.054440	0.440060
O6	O	1.144499	0.190497	0.382665
O7	O	1.495699	0.187847	0.465268
Zn8	Zn	1.312705	0.193308	0.458266
Zn9	Zn	1.374064	0.158982	0.173634
O10	O	1.251724	0.323903	0.407873
C11	C	1.123934	0.175309	0.264335
C12	C	0.993280	0.168857	0.233605
C13	C	0.910905	0.179478	0.331816
C14	C	0.775866	0.172810	0.300058
C15	C	1.426068	0.006819	0.335409
C16	C	1.468690	-0.096261	0.345434
C17	C	1.641453	-0.248817	0.386068
C18	C	1.601390	-0.151956	0.376645
C19	C	1.376001	-0.137414	0.323626
C20	C	1.416046	-0.234277	0.333038
C21	C	1.548773	-0.289971	0.364260
C22	C	1.323366	-0.275430	0.311231
C23	C	1.363407	-0.372283	0.320649
C24	C	1.496127	-0.427983	0.351874
C25	C	1.588814	-0.386824	0.373678
C26	C	1.190637	-0.219733	0.280018
C27	C	1.097957	-0.260887	0.258210
C28	C	1.138000	-0.357743	0.267619
C29	C	1.270720	-0.413443	0.298844
C30	C	1.045313	-0.398902	0.245814
C31	C	1.085354	-0.495755	0.255232
C32	C	1.310761	-0.510296	0.308262
C33	C	1.562835	0.176982	0.367562
C34	C	1.693491	0.183432	0.398283
C35	C	1.260701	0.345471	0.296488
C36	C	1.218081	0.448551	0.286455
N37	N	1.270838	0.216735	0.652523
N38	N	1.415943	0.135549	-0.020620
C39	C	1.359492	0.167127	0.741157
C40	C	1.327276	0.185164	0.890746
H41	H	1.418845	-0.555648	0.333667
O42	O	1.535018	-0.522091	0.360775
C43	C	1.554711	-0.670577	0.247841
C44	C	1.510639	-0.564019	0.237571
H45	H	1.534991	-0.704504	0.148253
H46	H	1.665508	-0.703371	0.273816
H47	H	1.496169	-0.682731	0.329105
H48	H	1.569085	-0.551780	0.156301
H49	H	1.399824	-0.531277	0.211663
H50	H	0.722934	0.197458	0.505885
O51	O	1.770347	-0.303070	0.416324
C52	C	1.931898	-0.458717	0.454413
C53	C	1.785902	-0.397391	0.420107
H54	H	1.944516	-0.534984	0.457510
H55	H	1.999147	-0.454238	0.375214
H56	H	1.960098	-0.432308	0.556017
H57	H	1.757577	-0.423757	0.318538
H58	H	1.718737	-0.401873	0.499388
H59	H	1.158038	-0.140869	0.272359
O60	O	0.969096	-0.206653	0.227835
C61	C	0.807495	-0.050993	0.189903
C62	C	0.953477	-0.112302	0.224287
H63	H	0.794814	0.025306	0.187050
H64	H	0.779247	-0.077282	0.088236
H65	H	0.740324	-0.055611	0.269068
H66	H	1.020747	-0.107711	0.145209
H67	H	0.981617	-0.085995	0.325991
H68	H	0.937244	-0.353540	0.220405
H69	H	1.171086	0.272556	0.687382
O70	O	0.946248	0.196086	0.460143
C71	C	1.104019	0.139513	0.640704
C72	C	1.064167	0.120596	0.495350
H73	H	1.199344	0.078483	0.669223
H74	H	1.121194	0.207521	0.650855
H75	H	1.020952	0.146514	0.709680
H76	H	1.147186	0.113549	0.426285
H77	H	1.046947	0.052606	0.485307
O78	O	0.740592	0.156240	0.171686
C79	C	0.582731	0.212759	-0.008821
C80	C	0.622545	0.231651	0.136556
H81	H	0.487272	0.273707	-0.037260
H82	H	0.665676	0.205852	-0.077902
H83	H	0.565729	0.144687	-0.018897
H84	H	0.639529	0.299728	0.146761
H85	H	0.539580	0.238500	0.205567
H86	H	0.963832	0.154827	0.126012
O87	O	0.995174	-0.535596	0.233942
C88	C	0.767364	-0.510953	0.180414
C89	C	0.869365	-0.465717	0.204459
H90	H	0.665619	-0.454474	0.156600
H91	H	0.799885	-0.566805	0.093046
H92	H	0.761066	-0.545068	0.273902
H93	H	0.875713	-0.431550	0.111047
H94	H	0.836803	-0.409913	0.291881
H95	H	1.696898	-0.432176	0.399083
O96	O	1.208178	0.251773	0.932083
C97	C	0.997143	0.369924	0.867710
C98	C	1.131953	0.294507	0.820710
H99	H	0.935488	0.404510	0.777693
H100	H	0.941530	0.335573	0.921505
H101	H	1.014653	0.425572	0.938752
H102	H	1.114563	0.238837	0.749621
H103	H	1.187523	0.328926	0.766990
H104	H	1.459240	0.111299	0.706299
H105	H	1.676871	-0.118454	0.394407
H106	H	1.515697	0.079717	0.944526
H107	H	1.267933	-0.092055	0.298209
