data_functionalizedCrystal
_audit_creation_method	'MofGen! by Chris Wilmer'
_symmetry_space_group_name_H-M	'P1'
_symmetry_Int_Tables_number	1
_symmetry_cell_setting	triclinic
loop_
_symmetry_equiv_pos_as_xyz
  x,y,z
_cell_length_a	13.339070
_cell_length_b	11.804610
_cell_length_c	9.065218
_cell_angle_alpha	76.863838
_cell_angle_beta	79.677407
_cell_angle_gamma	99.432965
loop_
_atom_site_label
_atom_site_type_symbol
_atom_site_fract_x
_atom_site_fract_y
_atom_site_fract_z
O1	O	-1.330539	0.099078	0.708172
O2	O	-1.035121	0.099067	0.610733
O3	O	-1.188937	0.099070	0.447192
O4	O	-1.176724	0.099075	0.871713
O5	O	-1.225994	-0.098974	0.515576
O6	O	-1.072178	-0.098978	0.679117
O7	O	-1.367596	-0.098966	0.776556
Cu8	Cu	-1.223271	-0.117055	0.734080
Cu9	Cu	-1.179447	0.117156	0.653208
O10	O	-1.213781	-0.098970	0.940097
C11	C	-1.015810	0.000043	0.628465
C12	C	-0.903060	0.000039	0.579403
N13	N	-1.254102	-0.281786	0.790964
C14	C	-0.541759	0.000053	0.960890
C15	C	-0.647693	0.000061	1.006989
C16	C	-0.711540	0.000055	0.900097
C17	C	-0.669443	0.000042	0.747097
C18	C	-0.563497	0.000044	0.700989
C19	C	-0.733277	0.000046	0.640196
C20	C	-0.691180	0.000033	0.487196
C21	C	-0.585245	0.000033	0.441097
C22	C	-0.521398	0.000039	0.547989
C23	C	-0.839223	0.000044	0.686304
C24	C	-0.860960	0.000034	0.426403
C25	C	-0.755027	0.000027	0.380304
C26	C	-1.328177	-0.344109	0.927554
C27	C	-1.351531	-0.468763	0.970573
C28	C	-1.300806	-0.531107	0.877013
C29	C	-1.226723	-0.468784	0.740426
C30	C	-1.203373	-0.344117	0.697395
C31	C	-1.176002	-0.531115	0.646855
C32	C	-1.101920	-0.468792	0.510267
C33	C	-1.078573	-0.344138	0.467245
C34	C	-1.129298	-0.281794	0.560805
C35	C	-1.199352	-0.655782	0.689885
C36	C	-1.074548	-0.655790	0.459726
C37	C	-1.051195	-0.531136	0.416707
C38	C	-0.386908	0.000054	0.758824
C39	C	-0.499660	0.000049	0.807890
C40	C	-1.206291	0.000050	0.425939
C41	C	-1.202781	0.000056	0.260725
N42	N	-1.148624	0.281887	0.596317
C43	C	-1.196426	0.000053	0.961349
C44	C	-1.199935	0.000055	1.126559
H45	H	-0.873489	0.000050	0.810879
C46	C	-1.033009	0.000018	0.381674
C47	C	-0.931132	0.000024	0.308894
H48	H	-1.076333	0.000007	0.309134
H49	H	-1.032980	0.069076	0.418765
H50	H	-1.058813	-0.069049	0.466468
H51	H	-0.905326	0.069096	0.224106
H52	H	-0.931157	-0.069041	0.271779
H53	H	-0.489765	0.000068	1.047901
H54	H	-1.411850	-0.519498	1.081780
C55	C	-0.497748	-0.101766	0.273626
C56	C	-0.538960	0.000035	0.272916
H57	H	-0.469169	-0.101758	0.169797
H58	H	-0.551543	-0.170818	0.320842
H59	H	-0.444570	-0.101751	0.330700
H60	H	-0.592143	0.000015	0.215851
H61	H	-0.485160	0.069104	0.225678
H62	H	-1.259670	-0.706513	0.801095
H63	H	-1.369475	-0.293338	1.003709
H64	H	-0.720734	0.000026	0.255725
C65	C	-0.957549	-0.356670	0.244069
C66	C	-0.997146	-0.275630	0.317103
H67	H	-0.907275	-0.314375	0.151384
H68	H	-1.012826	-0.405269	0.219332
H69	H	-0.925675	-0.405313	0.311956
H70	H	-1.029027	-0.226992	0.249220
H71	H	-0.941859	-0.227011	0.341835
H72	H	-1.033243	-0.706550	0.383541
H73	H	-0.797795	0.000064	0.937639
H74	H	-1.319825	-0.632606	0.912048
H75	H	-0.990876	-0.480375	0.305494
C76	C	-0.356508	0.101841	0.376046
C77	C	-0.404948	0.000036	0.497314
H78	H	-0.284618	0.101833	0.344762
H79	H	-0.363539	0.170890	0.410631
H80	H	-0.388508	0.101829	0.290490
H81	H	-0.372953	0.000052	0.582875
H82	H	-0.397911	-0.069031	0.462733
H83	H	-0.681959	0.000081	1.131558
H84	H	-1.110285	-0.180290	0.525786
