data_functionalizedCrystal
_audit_creation_method	'MofGen! by Chris Wilmer'
_symmetry_space_group_name_H-M	'P1'
_symmetry_Int_Tables_number	1
_symmetry_cell_setting	triclinic
loop_
_symmetry_equiv_pos_as_xyz
  x,y,z
_cell_length_a	6.817900
_cell_length_b	16.417823
_cell_length_c	12.200875
_cell_angle_alpha	94.313526
_cell_angle_beta	107.143593
_cell_angle_gamma	103.385419
loop_
_atom_site_label
_atom_site_type_symbol
_atom_site_fract_x
_atom_site_fract_y
_atom_site_fract_z
V1	V	-4.067880	-0.116075	-0.358058
V2	V	-3.567880	0.383925	0.141942
O3	O	-4.055060	0.005382	-0.350834
O4	O	-3.555060	0.505382	0.149166
O5	O	-4.018684	-0.229969	-0.356002
O6	O	-3.518684	0.270031	0.143998
O7	O	-4.037610	-0.114376	-0.514041
O8	O	-3.537610	0.385624	-0.014041
O9	O	-4.036003	-0.111012	-0.191701
O10	O	-3.536003	0.388988	0.308299
V11	V	-4.549262	-0.101537	-0.338113
V12	V	-4.049262	0.398463	0.161887
O13	O	-4.333835	-0.147965	-0.401810
O14	O	-3.833835	0.352035	0.098190
O15	O	-4.733504	-0.069647	-0.294361
O16	O	-4.233504	0.430353	0.205639
O17	O	-4.375251	0.012357	-0.340169
O18	O	-3.875251	0.512357	0.159831
O19	O	-4.679479	-0.222995	-0.345337
O20	O	-4.179479	0.277005	0.154663
O21	O	-4.698536	-0.106601	-0.504470
O22	O	-4.198536	0.393399	-0.004470
O23	O	-4.356326	-0.103237	-0.182131
O24	O	-3.856326	0.396763	0.317869
C25	C	-3.862905	-0.257732	-0.350455
C26	C	-3.362905	0.242268	0.149545
C27	C	-3.904089	-0.350842	-0.349814
C28	C	-3.404089	0.149158	0.150186
C29	C	-3.985231	-0.640551	-0.242704
C30	C	-3.485231	-0.140551	0.257296
C31	C	-3.946505	-0.553061	-0.243288
C32	C	-3.446505	-0.053061	0.256712
C33	C	-4.051285	-0.577074	-0.453480
C34	C	-3.551285	-0.077074	0.046520
C35	C	-4.089996	-0.664562	-0.452894
C36	C	-3.589996	-0.164562	0.047106
C37	C	-4.056977	-0.696298	-0.347503
C38	C	-3.556977	-0.196298	0.152497
C39	C	-3.979540	-0.521320	-0.348673
C40	C	-3.479540	-0.021320	0.151327
C41	C	-3.937551	-0.426460	-0.349307
C42	C	-3.437551	0.073540	0.150693
C43	C	-4.098964	-0.791164	-0.346868
C44	C	-3.598964	-0.291164	0.153132
C45	C	-3.887045	-0.110279	-0.552048
C46	C	-3.387045	0.389721	-0.052048
C47	C	-3.943574	-0.109643	-0.679567
C48	C	-3.443574	0.390357	-0.179567
C49	C	-4.047030	-0.108480	-0.913037
C50	C	-3.547030	0.391520	-0.413037
C51	C	-3.989451	-0.109127	-0.783117
C52	C	-3.489451	0.390873	-0.283117
C53	C	-4.194373	0.040115	-0.345713
C54	C	-3.694373	0.540115	0.154287
C55	C	-4.132427	0.133224	-0.346362
C56	C	-3.632427	0.633224	0.153638
C57	C	-4.170232	-0.107336	-0.144118
C58	C	-3.670232	0.392664	0.355882
C59	C	-4.092942	-0.107968	-0.016598
C60	C	-3.592942	0.392032	0.483402
H61	H	-3.958335	-0.666387	-0.156887
H62	H	-3.458335	-0.166387	0.343113
H63	H	-4.148413	-0.709954	-0.538239
H64	H	-3.648413	-0.209954	-0.038239
H65	H	-3.888082	-0.507674	-0.157950
H66	H	-3.388082	-0.007674	0.342050
C67	C	-4.087644	-0.542162	-0.569402
C68	C	-3.587644	-0.042162	-0.069402
H69	H	-4.054342	-0.482074	-0.554744
H70	H	-3.554342	0.017926	-0.054744
H71	H	-3.998606	-0.558700	-0.608822
H72	H	-3.498606	-0.058700	-0.108822
H73	H	-4.232456	-0.564167	-0.616151
H74	H	-3.732456	-0.064167	-0.116151
