data_functionalizedCrystal
_audit_creation_method	'MofGen! by Chris Wilmer'
_symmetry_space_group_name_H-M	'P1'
_symmetry_Int_Tables_number	1
_symmetry_cell_setting	triclinic
loop_
_symmetry_equiv_pos_as_xyz
  x,y,z
_cell_length_a	15.995300
_cell_length_b	15.072220
_cell_length_c	19.288865
_cell_angle_alpha	90.006383
_cell_angle_beta	83.304027
_cell_angle_gamma	90.014083
loop_
_atom_site_label
_atom_site_type_symbol
_atom_site_fract_x
_atom_site_fract_y
_atom_site_fract_z
O1	O	1.110685	0.073825	0.089360
O2	O	1.610685	0.573825	0.589360
O3	O	0.866862	0.073821	0.100452
O4	O	1.366862	0.573821	0.600452
O5	O	0.995819	0.073806	-0.006207
O6	O	1.495819	0.573806	0.493793
O7	O	0.981728	0.073841	0.196019
O8	O	1.481728	0.573841	0.696019
O9	O	0.995787	-0.073759	-0.006201
O10	O	1.495787	0.426241	0.493799
O11	O	0.866830	-0.073744	0.100458
O12	O	1.366830	0.426256	0.600458
O13	O	1.110653	-0.073740	0.089366
O14	O	1.610653	0.426260	0.589366
Zn15	Zn	0.988737	-0.097171	0.094913
Zn16	Zn	1.488737	0.402829	0.594913
Zn17	Zn	0.988779	0.097253	0.094905
Zn18	Zn	1.488779	0.597253	0.594905
O19	O	0.981697	-0.073724	0.196025
O20	O	1.481697	0.426276	0.696025
C21	C	0.835653	0.000038	0.100003
C22	C	1.335653	0.500038	0.600003
C23	C	0.742705	0.000036	0.098646
C24	C	1.242705	0.500036	0.598646
N25	N	0.988714	-0.229860	0.094918
N26	N	1.488714	0.270140	0.594918
C27	C	0.572531	0.000042	0.096141
C28	C	1.072531	0.500042	0.596141
C29	C	0.524779	0.000053	0.172085
C30	C	1.024779	0.500053	0.672085
C31	C	0.428097	0.000390	0.170700
C32	C	0.928097	0.500390	0.670700
C33	C	0.404984	0.000047	0.093676
C34	C	0.904984	0.500047	0.593676
C35	C	0.446277	0.084142	0.055994
C36	C	0.946277	0.584142	0.555994
C37	C	0.542903	0.084210	0.057916
C38	C	1.042903	0.584210	0.557916
C39	C	0.543150	-0.083605	0.056798
C40	C	1.043150	0.416395	0.556798
C41	C	0.446206	-0.084708	0.056805
C42	C	0.946206	0.415292	0.556805
C43	C	0.310294	0.000053	0.092279
C44	C	0.810294	0.500053	0.592279
C45	C	0.667222	0.000042	0.097536
C46	C	1.167222	0.500042	0.597536
C47	C	0.988777	-0.589061	0.094902
C48	C	1.488777	-0.089061	0.594902
C49	C	0.919544	-0.551446	0.151782
C50	C	1.419544	-0.051446	0.651782
C51	C	0.919702	-0.448620	0.151990
C52	C	1.419702	0.051380	0.651990
C53	C	0.988745	-0.410857	0.094910
C54	C	1.488745	0.089143	0.594910
C55	C	1.076052	-0.448144	0.110726
C56	C	1.576052	0.051856	0.610726
C57	C	1.075664	-0.551001	0.111130
C58	C	1.575664	-0.051001	0.611130
C59	C	0.971482	-0.551175	0.022037
C60	C	1.471482	-0.051175	0.522037
C61	C	0.969475	-0.448311	0.022524
C62	C	1.469475	0.051689	0.522524
C63	C	0.988733	-0.310144	0.094913
C64	C	1.488733	0.189856	0.594913
C65	C	0.988795	-0.689775	0.094901
C66	C	1.488795	-0.189775	0.594901
C67	C	1.141863	0.000046	0.089815
C68	C	1.641863	0.500046	0.589815
C69	C	1.234810	0.000054	0.091171
C70	C	1.734810	0.500054	0.591171
C71	C	0.995350	0.000021	-0.032082
C72	C	1.495350	0.500021	0.467918
C73	C	0.993989	0.000013	-0.109189
C74	C	1.493989	0.500013	0.390811
N75	N	0.988808	0.229941	0.094894
N76	N	1.488808	0.729941	0.594894
C77	C	1.069655	0.000010	-0.153700
C78	C	1.569655	0.500010	0.346300
C79	C	1.068376	0.000024	-0.226150
C80	C	1.568376	0.500024	0.273850
C81	C	0.991427	0.000023	-0.254086
C82	C	1.491427	0.500023	0.245914
C83	C	0.915751	0.000031	-0.209565
C84	C	1.415751	0.500031	0.290435
C85	C	0.917032	0.000026	-0.137116
C86	C	1.417032	0.500026	0.362884
C87	C	0.930925	-0.051667	-0.362519
C88	C	1.430925	0.448333	0.137481
C89	C	0.929647	-0.051667	-0.434967
C90	C	1.429647	0.448333	0.065033
C91	C	0.987474	0.000043	-0.477541
C92	C	1.487474	0.500043	0.022459
C93	C	1.046591	0.051742	-0.447661
C94	C	1.546591	0.551742	0.052339
C95	C	1.047872	0.051737	-0.375212
C96	C	1.547872	0.551737	0.124788
C97	C	0.990030	0.000029	-0.332643
C98	C	1.490030	0.500029	0.167357
C99	C	1.061758	0.000056	-0.600612
C100	C	1.561758	0.500056	-0.100612
C101	C	1.060476	0.000076	-0.673063
C102	C	1.560476	0.500076	-0.173063
C103	C	0.907849	0.000074	-0.656476
C104	C	1.407849	0.500074	-0.156476
C105	C	0.909133	0.000064	-0.584027
C106	C	1.409133	0.500064	-0.084027
C107	C	0.986090	0.000050	-0.556099
C108	C	1.486090	0.500050	-0.056099
C109	C	0.982166	0.000063	0.221899
C110	C	1.482166	0.500063	0.721899
C111	C	0.983527	0.000077	0.299006
C112	C	1.483527	0.500077	0.799006
H113	H	0.399509	-0.059878	0.200308
H114	H	0.899509	0.440122	0.700308
H115	H	0.431078	-0.090045	0.000650
H116	H	0.931078	0.409955	0.500650
H117	H	1.093679	0.093850	-0.482324
H118	H	1.593679	0.593850	0.017676
N119	N	1.142228	-0.417458	0.060151
N120	N	1.642228	0.082542	0.560151
N121	N	1.216547	-0.440455	0.064339
N122	N	1.716547	0.059545	0.564339
H123	H	1.263284	-0.418783	0.028620
H124	H	1.763284	0.081217	0.528620
N125	N	1.137781	0.000065	-0.718521
N126	N	1.637781	0.500065	-0.218521
N127	N	1.188999	-0.062145	-0.715987
N128	N	1.688999	0.437855	-0.215987
H129	H	1.243598	-0.062154	-0.748092
H130	H	1.743598	0.437846	-0.248092
N131	N	0.893343	-0.583729	0.002967
N132	N	1.393343	-0.083729	0.502967
N133	N	0.836017	-0.530627	-0.007220
N134	N	1.336017	-0.030627	0.492780
H135	H	0.780827	-0.553615	-0.020682
H136	H	1.280827	-0.053615	0.479318
N137	N	0.838199	-0.417151	0.140251
N138	N	1.338199	0.082849	0.640251
N139	N	0.829918	-0.369377	0.088528
N140	N	1.329918	0.130623	0.588528
H141	H	0.772320	-0.347222	0.080269
H142	H	1.272320	0.152778	0.580269
N143	N	0.888902	-0.417756	0.007469
N144	N	1.388902	0.082244	0.507469
N145	N	0.824327	-0.436529	0.047713
N146	N	1.324327	0.063471	0.547713
H147	H	0.767420	-0.414946	0.037084
H148	H	1.267420	0.085054	0.537084
N149	N	0.933532	-0.417707	0.219814
N150	N	1.433532	0.082293	0.719814
N151	N	0.936053	-0.336294	0.231754
N152	N	1.436053	0.163706	0.731754
H153	H	0.945825	-0.314460	0.279657
H154	H	1.445825	0.185540	0.779657
N155	N	1.142248	-0.582236	0.061176
N156	N	1.642248	-0.082236	0.561176
N157	N	1.153840	-0.663704	0.052592
N158	N	1.653840	-0.163704	0.552592
H159	H	1.200879	-0.685762	0.017326
H160	H	1.700879	-0.185762	0.517326
H161	H	1.091707	-0.422365	0.163260
H162	H	1.591707	0.077635	0.663260
H163	H	0.543142	-0.060241	0.202607
H164	H	1.043142	0.439759	0.702607
H165	H	0.544287	0.060277	0.202148
H166	H	1.044287	0.560277	0.702148
N167	N	1.028649	-0.416057	-0.033059
N168	N	1.528649	0.083943	0.466941
N169	N	1.086248	-0.364717	-0.020169
N170	N	1.586248	0.135283	0.479831
H171	H	1.128046	-0.341936	-0.059423
H172	H	1.628046	0.158064	0.440577
N173	N	0.411745	-0.162756	0.091313
N174	N	0.911745	0.337244	0.591313
N175	N	0.374167	-0.218654	0.058411
N176	N	0.874167	0.281346	0.558411
H177	H	0.349822	-0.273774	0.082784
H178	H	0.849822	0.226226	0.582784
N179	N	0.568725	-0.163603	0.088154
N180	N	1.068725	0.336397	0.588154
N181	N	0.616074	-0.217096	0.053064
N182	N	1.116074	0.282904	0.553064
H183	H	0.634135	-0.273592	0.075214
H184	H	1.134135	0.226408	0.575214
H185	H	1.129994	0.000025	-0.262398
H186	H	1.629994	0.500025	0.237602
H187	H	1.021973	-0.575499	-0.020291
H188	H	1.521973	-0.075499	0.479709
N189	N	1.148269	-0.000001	-0.125185
N190	N	1.648269	0.499999	0.374815
N191	N	1.215823	-0.000001	-0.164942
N192	N	1.715823	0.499999	0.335058
H193	H	1.271346	-0.000007	-0.144803
H194	H	1.771346	0.499993	0.355197
H195	H	1.096006	0.093833	-0.350886
H196	H	1.596006	0.593833	0.149114
N197	N	1.140370	0.000041	-0.572090
N198	N	1.640370	0.500041	-0.072090
N199	N	1.207927	0.000043	-0.611845
N200	N	1.707927	0.500043	-0.111845
H201	H	1.263448	0.000031	-0.591704
H202	H	1.763448	0.500031	-0.091704
N203	N	0.829254	0.000084	-0.685014
N204	N	1.329254	0.500084	-0.185014
N205	N	0.828119	0.000093	-0.749700
N206	N	1.328119	0.500093	-0.249700
H207	H	0.772609	0.000104	-0.769859
H208	H	1.272609	0.500104	-0.269859
H209	H	0.847518	0.000061	-0.547784
H210	H	1.347518	0.500061	-0.047784
H211	H	0.854428	-0.576211	0.142516
H212	H	1.354428	-0.076211	0.642516
N213	N	0.869286	-0.104514	-0.465478
N214	N	1.369286	0.395486	0.034522
N215	N	0.817668	-0.150689	-0.427461
N216	N	1.317668	0.349311	0.072539
H217	H	0.775044	-0.188025	-0.449008
H218	H	1.275044	0.311975	0.050992
N219	N	0.933158	-0.583856	0.219233
N220	N	1.433158	-0.083856	0.719233
N221	N	0.932122	-0.665443	0.230918
N222	N	1.432122	-0.165443	0.730918
H223	H	0.941739	-0.688335	0.278555
H224	H	1.441739	-0.188335	0.778555
N225	N	1.094839	-0.581066	0.177793
N226	N	1.594839	-0.081066	0.677793
N227	N	1.108413	-0.526084	0.223697
N228	N	1.608413	-0.026084	0.723697
H229	H	1.121956	-0.547313	0.270780
H230	H	1.621956	-0.047313	0.770780
N231	N	0.871838	-0.104486	-0.319043
N232	N	1.371838	0.395514	0.180957
N233	N	0.819064	-0.150642	-0.345728
N234	N	1.319064	0.349358	0.154272
H235	H	0.777332	-0.187941	-0.315025
H236	H	1.277332	0.312059	0.184975
N237	N	0.837157	0.000038	-0.238108
N238	N	1.337157	0.500038	0.261892
N239	N	0.836023	0.000042	-0.302795
N240	N	1.336023	0.500042	0.197205
H241	H	0.780513	0.000052	-0.322954
H242	H	1.280513	0.500052	0.177046
N243	N	0.839730	0.000034	-0.091655
N244	N	1.339730	0.500034	0.408345
N245	N	0.771028	0.000042	-0.116602
N246	N	1.271028	0.500042	0.383398
H247	H	0.716431	0.000047	-0.084494
H248	H	1.216431	0.500047	0.415506
H249	H	0.561133	0.147320	0.085068
H250	H	1.061133	0.647320	0.585068
N251	N	0.393041	0.076452	0.207699
N252	N	0.893041	0.576452	0.707699
N253	N	0.439990	0.129458	0.234622
N254	N	0.939990	0.629458	0.734622
H255	H	0.415232	0.183176	0.260761
H256	H	0.915232	0.683176	0.760761
N257	N	0.583648	0.088688	-0.012044
N258	N	1.083648	0.588688	0.487956
N259	N	0.540693	0.091759	-0.062131
N260	N	1.040693	0.591759	0.437869
H261	H	0.569464	0.094924	-0.111540
H262	H	1.069464	0.594924	0.388460
H263	H	0.432391	0.087023	-0.000601
H264	H	0.932391	0.587023	0.499399
N265	N	0.410586	0.162954	0.088420
N266	N	0.910586	0.662954	0.588420
N267	N	0.354750	0.157407	0.139272
N268	N	0.854750	0.657407	0.639272
H269	H	0.329543	0.213066	0.162176
H270	H	0.829543	0.713066	0.662176
N271	N	0.583300	-0.084653	-0.013437
N272	N	1.083300	0.415347	0.486563
N273	N	0.629291	-0.148443	-0.034601
N274	N	1.129291	0.351557	0.465399
H275	H	0.657650	-0.149178	-0.084203
H276	H	1.157650	0.350822	0.415797
