data_functionalizedCrystal
_audit_creation_method	'MofGen! by Chris Wilmer'
_symmetry_space_group_name_H-M	'P1'
_symmetry_Int_Tables_number	1
_symmetry_cell_setting	triclinic
loop_
_symmetry_equiv_pos_as_xyz
  x,y,z
_cell_length_a	11.792241
_cell_length_b	10.654550
_cell_length_c	9.130313
_cell_angle_alpha	89.993276
_cell_angle_beta	90.002925
_cell_angle_gamma	95.660841
loop_
_atom_site_label
_atom_site_type_symbol
_atom_site_fract_x
_atom_site_fract_y
_atom_site_fract_z
O1	O	0.159417	-1.667388	0.121920
O2	O	0.174605	-1.301867	0.121897
O3	O	0.001861	-1.493498	0.121899
O4	O	0.332161	-1.475757	0.121918
O5	O	0.001861	-1.493485	-0.121700
O6	O	0.174606	-1.301854	-0.121702
O7	O	0.159417	-1.667376	-0.121678
Cu8	Cu	0.167012	-1.484614	-0.143933
Cu9	Cu	0.167011	-1.484629	0.144151
O10	O	0.332162	-1.475745	-0.121680
C11	C	0.173490	-1.255066	0.000095
C12	C	0.170154	-1.115632	0.000085
C13	C	-0.040432	-1.492377	0.000100
C14	C	-0.166454	-1.489042	0.000101
N15	N	0.167011	-1.484612	-0.346555
C16	C	-0.397180	-1.482908	0.000125
C17	C	-0.268787	-1.486316	0.000112
C18	C	0.374455	-1.476865	0.000122
C19	C	0.500476	-1.480201	0.000130
C20	C	0.160532	-1.714177	0.000127
C21	C	0.163869	-1.853611	0.000146
C22	C	0.271863	-1.035858	0.000113
C23	C	0.268721	-0.904847	0.000138
C24	C	0.062152	-0.933394	0.000114
C25	C	0.065295	-1.064404	0.000079
C26	C	0.376722	-1.087087	0.000119
C27	C	0.478439	-1.007312	0.000148
C28	C	0.475297	-0.876300	0.000173
C29	C	0.370438	-0.825063	0.000170
C30	C	0.090539	-1.569503	-0.576544
C31	C	0.090546	-1.569493	-0.423207
C32	C	0.243483	-1.399745	-0.423248
C33	C	0.243480	-1.399763	-0.576582
C34	C	0.014061	-1.654381	-0.653188
C35	C	-0.062410	-1.739250	-0.576506
C36	C	-0.062403	-1.739239	-0.423170
C37	C	0.014075	-1.654360	-0.346515
N38	N	0.167002	-1.484640	0.346774
H39	H	0.563812	-1.049039	0.000139
H40	H	0.014081	-1.654367	-0.221658
H41	H	0.379291	-1.193762	0.000106
C42	C	0.326446	-1.307387	-0.340215
C43	C	0.307020	-1.183862	-0.377578
C44	C	0.383433	-1.098746	-0.301134
H45	H	0.315575	-1.319354	-0.237890
H46	H	0.402337	-1.321463	-0.365364
H47	H	0.231148	-1.169792	-0.352419
H48	H	0.317900	-1.171856	-0.479890
H49	H	0.459324	-1.112821	-0.326284
H50	H	0.372555	-1.110724	-0.198813
H51	H	0.370270	-1.014925	-0.326485
C52	C	0.585764	-0.789749	0.000502
C53	C	0.648817	-0.813021	0.125850
C54	C	0.750582	-0.733306	0.126220
H55	H	0.628857	-0.805261	-0.084344
H56	H	0.568928	-0.704367	0.000597
H57	H	0.665656	-0.898383	0.125742
H58	H	0.605759	-0.797501	0.210717
H59	H	0.733746	-0.647924	0.126316
H60	H	0.793664	-0.748824	0.041369
H61	H	0.793370	-0.749076	0.211274
C62	C	-0.051802	-0.878011	0.000055
C63	C	-0.140205	-0.975916	-0.000012
C64	C	-0.245197	-0.924947	-0.000079
H65	H	-0.057480	-0.827543	0.084996
H66	H	-0.057384	-0.827504	-0.084911
H67	H	-0.134626	-1.026401	0.084946
H68	H	-0.134565	-1.026392	-0.084947
H69	H	-0.250779	-0.874441	-0.085045
H70	H	-0.250863	-0.874480	0.084864
H71	H	-0.305190	-0.991367	-0.000138
H72	H	-0.124669	-1.808363	-0.638927
H73	H	0.367888	-0.718383	0.000167
H74	H	-0.124660	-1.808351	-0.360737
H75	H	0.014046	-1.654394	-0.778043
H76	H	0.305745	-1.330660	-0.639017
H77	H	-0.017526	-1.129358	0.000060
