data_functionalizedCrystal
_audit_creation_method	'MofGen! by Chris Wilmer'
_symmetry_space_group_name_H-M	'P1'
_symmetry_Int_Tables_number	1
_symmetry_cell_setting	triclinic
loop_
_symmetry_equiv_pos_as_xyz
  x,y,z
_cell_length_a	19.805407
_cell_length_b	16.959454
_cell_length_c	19.805399
_cell_angle_alpha	89.977613
_cell_angle_beta	89.980427
_cell_angle_gamma	90.020075
loop_
_atom_site_label
_atom_site_type_symbol
_atom_site_fract_x
_atom_site_fract_y
_atom_site_fract_z
Zn1	Zn	1.034765	-0.314700	-0.382744
Zn2	Zn	1.034693	-0.446882	-0.269566
Zn3	Zn	0.921580	-0.314722	-0.269569
Zn4	Zn	0.921556	-0.446840	-0.382713
O5	O	0.978149	-0.380786	-0.326148
O6	O	1.129472	-0.332243	-0.367743
O7	O	1.019668	-0.429378	-0.174850
O8	O	0.936635	-0.204108	-0.284596
O9	O	1.129419	-0.429356	-0.284591
O10	O	1.019792	-0.204092	-0.367745
O11	O	0.936564	-0.332280	-0.174852
O12	O	0.826860	-0.332239	-0.284565
O13	O	0.936594	-0.429285	-0.477434
O14	O	0.826843	-0.429306	-0.367692
O15	O	1.019768	-0.332202	-0.477457
O16	O	1.019645	-0.557488	-0.284561
O17	O	0.936524	-0.557457	-0.367690
C18	C	0.802293	-0.380771	-0.326126
C19	C	0.727061	-0.380783	-0.326133
C20	C	0.691725	-0.431402	-0.369347
C21	C	0.621037	-0.431404	-0.369356
C22	C	0.585685	-0.380790	-0.326148
C23	C	0.621026	-0.330165	-0.282932
C24	C	0.691713	-0.330160	-0.282926
C25	C	0.335952	-0.330183	-0.282954
C26	C	0.265260	-0.330193	-0.282962
C27	C	0.265276	-0.431426	-0.369384
C28	C	0.335963	-0.431421	-0.369379
C29	C	0.371298	-0.380794	-0.326166
C30	C	0.447946	-0.380792	-0.326157
C31	C	0.509038	-0.380795	-0.326153
C32	C	0.978092	-0.586152	-0.326136
C33	C	0.978130	-0.674009	-0.326154
C34	C	0.934930	-1.045498	-0.369428
C35	C	1.021555	-1.045470	-0.282937
C36	C	1.021532	-0.962925	-0.282930
C37	C	0.978206	-0.921662	-0.326173
C38	C	0.934904	-0.962945	-0.369422
C39	C	1.064828	-0.921635	-0.239677
C40	C	1.064806	-0.839085	-0.239669
C41	C	1.021483	-0.797820	-0.282915
C42	C	0.978180	-0.839108	-0.326167
C43	C	0.934854	-0.797845	-0.369409
C44	C	0.891553	-0.839132	-0.412665
C45	C	0.891581	-0.921680	-0.412669
C46	C	1.021455	-0.715272	-0.282911
C47	C	0.934827	-0.715292	-0.369403
C48	C	1.154691	-0.380802	-0.326170
C49	C	1.229923	-0.380808	-0.326180
C50	C	0.978187	-0.380736	-0.502691
C51	C	0.978203	-0.380715	-0.577923
C52	C	0.978224	-0.174618	-0.326174
C53	C	0.978256	-0.086761	-0.326186
C54	C	1.021513	-0.330161	-0.613280
C55	C	1.021520	-0.330138	-0.683968
C56	C	0.978220	-0.380674	-0.719298
C57	C	0.934905	-0.431230	-0.683936
C58	C	0.934895	-0.431248	-0.613249
C59	C	0.934943	-0.431156	-0.969010
C60	C	0.934958	-0.431135	-1.039702
C61	C	1.021568	-0.330046	-1.039729
C62	C	1.021558	-0.330065	-0.969042
C63	C	0.978241	-0.380617	-0.933686
C64	C	0.978233	-0.380641	-0.857037
C65	C	0.978230	-0.380655	-0.795946
C66	C	0.978150	-0.380779	-0.150292
C67	C	0.978265	-0.380577	-0.075060
H68	H	0.720482	-0.288937	-0.247741
H69	H	1.056775	-0.289012	-0.584519
H70	H	0.364713	-0.288965	-0.247763
O71	O	0.888220	-1.090020	-0.416073
H72	H	0.895510	-1.154354	-0.408812
O73	O	0.888089	-0.670787	-0.416036
H74	H	0.857981	-0.713366	-0.446106
O75	O	0.844819	-0.794629	-0.459303
H76	H	0.875079	-0.756974	-0.493765
H77	H	0.856327	-0.955303	-0.447884
H78	H	0.899647	-0.472373	-0.712708
H79	H	1.056707	-0.681660	-0.247691
O80	O	1.068303	-1.089969	-0.236316
H81	H	1.061055	-1.154306	-0.243595
H82	H	0.720503	-0.472621	-0.404530
H83	H	1.056788	-0.288974	-0.712753
O84	O	0.582887	-0.275584	-0.236328
H85	H	0.596460	-0.213560	-0.248024
O86	O	0.888248	-0.485640	-1.077809
H87	H	0.853840	-0.450242	-1.110017
O88	O	1.111581	-0.966136	-0.193063
H89	H	1.104339	-1.030473	-0.200350
O90	O	1.111513	-0.794555	-0.193027
H91	H	1.141648	-0.837117	-0.162963
O92	O	1.068260	-0.275561	-0.930934
H93	H	1.098374	-0.240398	-0.967396
O94	O	0.582857	-0.486004	-0.415908
H95	H	0.550638	-0.526112	-0.385488
O96	O	1.068272	-0.275496	-1.077861
H97	H	1.060997	-0.283957	-1.132950
H98	H	0.899682	-0.472330	-0.940231
O99	O	0.888174	-0.485762	-0.575108
H100	H	0.858066	-0.520901	-0.611550
H101	H	0.364743	-0.472639	-0.404561
H102	H	0.236498	-0.472646	-0.404573
H103	H	0.236479	-0.288972	-0.247776
