data_functionalizedCrystal
_audit_creation_method	'MofGen! by Chris Wilmer'
_symmetry_space_group_name_H-M	'P1'
_symmetry_Int_Tables_number	1
_symmetry_cell_setting	triclinic
loop_
_symmetry_equiv_pos_as_xyz
  x,y,z
_cell_length_a	10.654550
_cell_length_b	14.519731
_cell_length_c	12.996460
_cell_angle_alpha	90.007128
_cell_angle_beta	90.009092
_cell_angle_gamma	84.086878
loop_
_atom_site_label
_atom_site_type_symbol
_atom_site_fract_x
_atom_site_fract_y
_atom_site_fract_z
O1	O	1.666611	0.129533	0.085654
O2	O	2.166611	0.629533	0.585654
O3	O	1.301015	0.141874	0.085638
O4	O	1.801015	0.641874	0.585638
O5	O	1.493492	0.001516	0.085637
O6	O	1.993492	0.501516	0.585637
O7	O	1.474134	0.269890	0.085655
O8	O	1.974134	0.769890	0.585655
O9	O	1.493472	0.001508	-0.085497
O10	O	1.993472	0.501508	0.414503
O11	O	1.300995	0.141866	-0.085496
O12	O	1.800995	0.641866	0.414504
O13	O	1.666591	0.129525	-0.085480
O14	O	2.166591	0.629525	0.414520
Cu15	Cu	1.483791	0.135694	-0.101114
Cu16	Cu	1.983791	0.635694	0.398886
Cu17	Cu	1.483815	0.135704	0.101272
Cu18	Cu	1.983815	0.635704	0.601272
O19	O	1.474114	0.269882	-0.085479
O20	O	1.974114	0.769882	0.414521
C21	C	1.254216	0.140964	0.000069
C22	C	1.754216	0.640964	0.500069
C23	C	1.114798	0.138253	0.000062
C24	C	1.614798	0.638253	0.500062
C25	C	1.034527	0.220893	0.000083
C26	C	1.534527	0.720893	0.500083
C27	C	0.903530	0.218340	0.000100
C28	C	1.403530	0.718340	0.500100
C29	C	0.933090	0.050499	0.000081
C30	C	1.433090	0.550499	0.500081
C31	C	1.064084	0.053053	0.000056
C32	C	1.564084	0.553053	0.500056
C33	C	1.085241	0.306092	0.000089
C34	C	1.585241	0.806092	0.500089
C35	C	1.004968	0.388739	0.000110
C36	C	1.504968	0.888739	0.500110
C37	C	0.873971	0.386186	0.000128
C38	C	1.373971	0.886186	0.500128
C39	C	0.823248	0.300986	0.000124
C40	C	1.323248	0.800986	0.500124
C41	C	1.492575	-0.032852	0.000070
C42	C	1.992575	0.467148	0.500070
C43	C	1.489857	-0.135246	0.000069
C44	C	1.989857	0.364754	0.500069
C45	C	1.487649	-0.218402	0.000071
C46	C	1.987649	0.281598	0.500071
C47	C	1.484889	-0.322725	0.000079
C48	C	1.984889	0.177275	0.500079
C49	C	1.482699	-0.405875	0.000086
C50	C	1.982699	0.094125	0.500086
C51	C	1.479939	-0.510205	0.000091
C52	C	1.979939	-0.010205	0.500091
C53	C	1.713390	0.130435	0.000092
C54	C	2.213390	0.630435	0.500092
C55	C	1.852808	0.133146	0.000105
C56	C	2.352808	0.633146	0.500105
C57	C	1.475031	0.304250	0.000090
C58	C	1.975031	0.804250	0.500090
C59	C	1.477749	0.406645	0.000098
C60	C	1.977749	0.906645	0.500098
N61	N	1.483784	0.135687	-0.243461
N62	N	1.983784	0.635687	0.256539
C63	C	1.483813	0.135705	-0.663275
C64	C	1.983813	0.635705	-0.163275
C65	C	1.483801	0.135703	-0.546470
C66	C	1.983801	0.635703	-0.046470
C67	C	1.483799	0.135697	-0.453372
C68	C	1.983799	0.635697	0.046628
C69	C	1.483786	0.135694	-0.336559
C70	C	1.983786	0.635694	0.163441
N71	N	1.483832	0.135704	0.243619
N72	N	1.983832	0.635704	0.743619
H73	H	1.046276	0.458106	0.000105
H74	H	1.546276	0.958106	0.500105
C75	C	0.660043	0.456799	0.000163
C76	C	1.160043	0.956799	0.500163
C77	C	0.785732	0.477027	0.000148
C78	C	1.285732	0.977027	0.500148
H79	H	0.605572	0.512884	0.000174
H80	H	1.105572	1.012884	0.500174
H81	H	0.644679	0.421905	0.059835
H82	H	1.144679	0.921905	0.559835
H83	H	0.644633	0.421902	-0.059522
H84	H	1.144633	0.921902	0.440478
H85	H	0.801145	0.511919	0.059838
H86	H	1.301145	1.011919	0.559838
H87	H	0.801102	0.511936	-0.059530
H88	H	1.301102	1.011936	0.440470
C89	C	0.745406	-0.027936	0.000125
C90	C	1.245406	0.472064	0.500125
C91	C	0.877336	-0.043147	0.000091
C92	C	1.377336	0.456853	0.500091
H93	H	0.710991	-0.085752	0.000141
H94	H	1.210991	0.414248	0.500141
H95	H	0.717845	0.006114	-0.059544
H96	H	1.217845	0.506114	0.440456
H97	H	0.717911	0.006133	0.059812
H98	H	1.217911	0.506133	0.559812
H99	H	0.904831	-0.077211	-0.059601
H100	H	1.404831	0.422789	0.440399
H101	H	0.904909	-0.077213	0.059766
H102	H	1.404909	0.422787	0.559766
C103	C	1.080155	-0.113107	0.000064
C104	C	1.580155	0.386893	0.500064
C105	C	1.152328	-0.037785	0.000047
C106	C	1.652328	0.462215	0.500047
H107	H	1.134637	-0.169186	0.000063
H108	H	1.634637	0.330814	0.500063
H109	H	1.028427	-0.110621	-0.059603
H110	H	1.528427	0.389379	0.440397
H111	H	1.028469	-0.110602	0.059754
H112	H	1.528469	0.389398	0.559754
H113	H	1.204008	-0.040287	-0.059648
H114	H	1.704008	0.459713	0.440352
H115	H	1.204079	-0.040273	0.059719
H116	H	1.704079	0.459727	0.559719
H117	H	0.716581	0.298914	0.000122
H118	H	1.216581	0.798914	0.500122
H119	H	1.191903	0.308180	0.000079
H120	H	1.691903	0.808180	0.500079
