data_functionalizedCrystal
_audit_creation_method	'MofGen! by Chris Wilmer'
_symmetry_space_group_name_H-M	'P1'
_symmetry_Int_Tables_number	1
_symmetry_cell_setting	triclinic
loop_
_symmetry_equiv_pos_as_xyz
  x,y,z
_cell_length_a	10.489716
_cell_length_b	16.109301
_cell_length_c	14.586319
_cell_angle_alpha	89.994786
_cell_angle_beta	89.996864
_cell_angle_gamma	83.995308
loop_
_atom_site_label
_atom_site_type_symbol
_atom_site_fract_x
_atom_site_fract_y
_atom_site_fract_z
O1	O	1.692370	0.117201	-0.076236
O2	O	1.321010	0.128232	-0.076240
O3	O	1.516891	0.001748	-0.076229
O4	O	1.496488	0.243685	-0.076248
O5	O	1.516878	0.001746	0.076252
O6	O	1.320996	0.128230	0.076241
O7	O	1.692356	0.117199	0.076245
Cu8	Cu	1.506675	0.122714	0.090165
Cu9	Cu	1.506691	0.122717	-0.090161
O10	O	1.496475	0.243683	0.076233
C11	C	1.516058	-0.029233	0.000012
C12	C	1.513580	-0.121544	0.000013
C13	C	1.273483	0.127402	0.000000
C14	C	1.131888	0.124923	-0.000001
C15	C	1.624051	-0.343141	0.000000
C16	C	1.621713	-0.429876	-0.000008
C17	C	1.389306	-0.411421	-0.000006
C18	C	1.391646	-0.324688	-0.000005
C19	C	1.509022	-0.290551	0.000003
C20	C	1.504344	-0.464018	-0.000006
C21	C	1.501808	-0.558060	-0.000014
C22	C	1.511559	-0.196503	0.000009
C23	C	1.033089	0.202487	-0.000009
C24	C	0.956331	0.161499	0.075179
C25	C	0.956351	0.161483	-0.075155
C26	C	1.056995	0.083967	0.075249
C27	C	1.057021	0.083962	-0.075152
C28	C	0.980312	0.042918	0.000054
C29	C	1.739883	0.118028	0.000003
C30	C	1.881478	0.120508	-0.000002
C31	C	1.497308	0.274664	-0.000010
C32	C	1.499786	0.366974	-0.000017
N33	N	1.506673	0.122712	0.216997
N34	N	1.506703	0.122712	-0.216993
C35	C	1.593438	0.066724	0.452009
C36	C	1.593442	0.066722	0.547990
C37	C	1.419929	0.178703	0.547989
C38	C	1.419920	0.178700	0.452010
C39	C	1.506682	0.122712	0.404022
C40	C	1.506694	0.122712	0.595983
C41	C	1.506698	0.122711	0.700050
C42	C	1.506677	0.122712	0.299948
H43	H	1.719626	-0.315350	0.000004
H44	H	1.664085	0.021131	0.587058
H45	H	0.912398	0.194243	-0.138712
H46	H	1.349291	0.224289	0.587071
H47	H	0.912368	0.194242	0.138739
H48	H	1.349267	0.224293	0.412936
O49	O	1.733538	-0.480877	-0.000129
C50	C	1.931432	-0.523207	-0.079152
C51	C	1.804847	-0.465389	-0.079116
H52	H	1.989109	-0.510718	-0.143016
H53	H	1.989277	-0.510701	-0.015381
H54	H	1.909575	-0.591056	-0.079113
H55	H	1.826587	-0.397520	-0.079187
H56	H	1.747039	-0.477967	-0.142881
O57	O	1.275404	-0.444722	0.000035
C58	C	1.168798	-0.570159	-0.000013
C59	C	1.297883	-0.532560	-0.000043
H60	H	1.186928	-0.641180	-0.000096
H61	H	1.111936	-0.548619	0.063816
H62	H	1.111958	-0.548501	-0.063810
H63	H	1.354828	-0.554200	0.063711
H64	H	1.354648	-0.554095	-0.063914
O65	O	1.677755	0.012254	0.405534
C66	C	1.849900	-0.098787	0.415670
C67	C	1.754462	-0.037154	0.468412
H68	H	1.911960	-0.138737	0.466483
H69	H	1.794913	-0.140725	0.370771
H70	H	1.913542	-0.062478	0.370699
H71	H	1.690796	-0.073394	0.513432
H72	H	1.809528	0.004785	0.513253
O73	O	1.109420	0.044993	0.151135
C74	C	1.302527	0.003586	0.236239
C75	C	1.243319	0.047761	0.150273
H76	H	1.410795	0.005794	0.235561
H77	H	1.260209	0.036410	0.300263
H78	H	1.280405	-0.064209	0.236504
H79	H	1.265419	0.115558	0.149919
H80	H	1.285639	0.014872	0.086288
O81	O	0.952385	-0.037641	0.000271
C82	C	0.972479	-0.169524	0.079705
C83	C	1.004174	-0.078309	0.079580
H84	H	1.014358	-0.202436	0.143810
H85	H	0.864042	-0.170903	0.079161
H86	H	1.015649	-0.202780	0.016191
H87	H	0.961086	-0.044998	0.143084
H88	H	1.112622	-0.076990	0.080077
H89	H	1.100997	0.051245	-0.138715
H90	H	1.297969	-0.281866	-0.000006
H91	H	1.056779	0.269956	0.000056
