data_functionalizedCrystal
_audit_creation_method	'MofGen! by Chris Wilmer'
_symmetry_space_group_name_H-M	'P1'
_symmetry_Int_Tables_number	1
_symmetry_cell_setting	triclinic
loop_
_symmetry_equiv_pos_as_xyz
  x,y,z
_cell_length_a	15.995350
_cell_length_b	15.995350
_cell_length_c	14.472310
_cell_angle_alpha	90.001162
_cell_angle_beta	89.990621
_cell_angle_gamma	83.492375
loop_
_atom_site_label
_atom_site_type_symbol
_atom_site_fract_x
_atom_site_fract_y
_atom_site_fract_z
O1	O	1.110997	0.107921	-0.076758
O2	O	0.867221	0.121248	-0.076776
O3	O	0.995773	-0.007303	-0.076766
O4	O	0.982445	0.236472	-0.076769
O5	O	0.995740	-0.007296	0.076916
O6	O	0.867188	0.121256	0.076906
O7	O	1.110963	0.107928	0.076924
Cu8	Cu	0.989073	0.114593	0.090947
Cu9	Cu	0.989112	0.114584	-0.090800
O10	O	0.982412	0.236480	0.076913
C11	C	0.836010	0.120701	0.000062
C12	C	0.743060	0.119049	0.000055
C13	C	0.405312	0.113117	0.000074
C14	C	0.452746	0.021565	0.000418
C15	C	0.549436	0.023217	0.000065
C16	C	0.572873	0.116060	0.000065
C17	C	0.531804	0.161212	-0.087692
C18	C	0.435169	0.158912	-0.087759
C19	C	0.434792	0.160812	0.087007
C20	C	0.531737	0.160790	0.088160
C21	C	0.667570	0.117727	0.000057
C22	C	0.310614	0.111452	0.000076
C23	C	0.995205	-0.038494	0.000073
C24	C	0.993553	-0.131444	0.000068
C25	C	0.987621	-0.469192	0.000071
C26	C	0.896069	-0.421758	-0.000281
C27	C	0.897721	-0.325068	0.000066
C28	C	0.990564	-0.301631	0.000069
C29	C	1.035701	-0.342705	0.087831
C30	C	1.033401	-0.439340	0.087904
C31	C	1.035330	-0.439707	-0.086861
C32	C	1.035309	-0.342762	-0.088021
C33	C	0.992231	-0.206934	0.000071
C34	C	0.985956	-0.563890	0.000075
C35	C	1.142175	0.108476	0.000083
C36	C	1.235125	0.110127	0.000084
C37	C	0.982980	0.267671	0.000072
C38	C	0.984631	0.360621	0.000071
N39	N	0.989051	0.114598	0.218778
N40	N	0.989140	0.114572	-0.218631
C41	C	0.989111	0.114581	0.592869
C42	C	0.920095	0.183135	0.553698
C43	C	0.920254	0.183385	0.446610
C44	C	0.989081	0.114590	0.407278
C45	C	1.076445	0.133671	0.446122
C46	C	1.076057	0.134159	0.553243
C47	C	0.971542	0.026741	0.553398
C48	C	0.969538	0.027327	0.446270
C49	C	0.989069	0.114593	0.302390
C50	C	0.989128	0.114579	0.697757
H51	H	0.577308	-0.012521	-0.062951
H52	H	0.931473	0.248569	0.420976
C53	C	1.147885	0.069548	0.587971
C54	C	1.218280	0.098600	0.648552
C55	C	1.290286	0.034126	0.683139
C56	C	1.291896	-0.059400	0.657145
C57	C	1.221499	-0.088457	0.596561
C58	C	1.149493	-0.023983	0.561974
H59	H	1.217090	0.167838	0.667797
H60	H	1.342398	0.055637	0.727987
H61	H	1.345199	-0.107127	0.682748
H62	H	1.222689	-0.157694	0.577316
H63	H	1.097381	-0.045493	0.517126
H64	H	0.862239	-0.296649	-0.062846
C65	C	0.990719	-0.305915	-0.175708
C66	C	0.951449	-0.364186	-0.243943
C67	C	0.906823	-0.327346	-0.331614
C68	C	0.901465	-0.232235	-0.351049
C69	C	0.940736	-0.173958	-0.282811
C70	C	0.985363	-0.210798	-0.195140
H71	H	0.955414	-0.434598	-0.229558
H72	H	0.877752	-0.370488	-0.382128
H73	H	0.868430	-0.204964	-0.415948
H74	H	0.936771	-0.103546	-0.297196
H75	H	1.014433	-0.167657	-0.144627
H76	H	0.859626	-0.441349	0.062299
C77	C	1.033040	-0.044825	0.410121
C78	C	1.025523	-0.136116	0.439828
C79	C	1.089036	-0.208265	0.403684
C80	C	1.160068	-0.189123	0.337833
C81	C	1.167588	-0.097828	0.308122
C82	C	1.104075	-0.025679	0.344266
H83	H	0.972938	-0.150290	0.488578
H84	H	1.083469	-0.275848	0.425679
H85	H	1.207084	-0.242533	0.311077
H86	H	1.220173	-0.083655	0.259372
H87	H	1.109642	0.041904	0.322272
H88	H	0.416874	0.125979	-0.153359
H89	H	0.402921	0.226128	-0.091741
C90	C	0.550885	0.253358	-0.092110
C91	C	0.604106	0.288761	-0.015901
C92	C	0.623187	0.380907	-0.020316
C93	C	0.589047	0.437650	-0.100942
C94	C	0.535822	0.402247	-0.177157
C95	C	0.516742	0.310101	-0.172742
H96	H	0.629382	0.246756	0.043788
H97	H	0.662588	0.407114	0.036104
H98	H	0.603172	0.505862	-0.104211
H99	H	0.510547	0.444252	-0.236846
H100	H	0.477341	0.283894	-0.229162
C101	C	1.126775	-0.322010	-0.095186
C102	C	1.162599	-0.267110	-0.020839
C103	C	1.254068	-0.246357	-0.027997
C104	C	1.309715	-0.280504	-0.109503
C105	C	1.273892	-0.335406	-0.183856
C106	C	1.182423	-0.356159	-0.176697
H107	H	1.121405	-0.241830	0.039501
H108	H	1.280586	-0.205715	0.027044
H109	H	1.377426	-0.265141	-0.114802
H110	H	1.315086	-0.360686	-0.244196
H111	H	1.155905	-0.396802	-0.231738
C112	C	0.832524	0.168036	0.411125
C113	C	0.815484	0.165262	0.306510
C114	C	0.727749	0.149916	0.271031
C115	C	0.657055	0.137344	0.340166
C116	C	0.674093	0.140118	0.444788
C117	C	0.761828	0.155464	0.480267
H118	H	0.867818	0.174569	0.255326
H119	H	0.715136	0.147862	0.193583
H120	H	0.592108	0.125983	0.313902
H121	H	0.621759	0.130811	0.495972
H122	H	0.774440	0.157517	0.557715
H123	H	1.129029	0.085068	0.420643
C124	C	0.994913	-0.467451	-0.176726
C125	C	1.031334	-0.445399	-0.270994
C126	C	0.990906	-0.473142	-0.360853
C127	C	0.914056	-0.522936	-0.356444
C128	C	0.877630	-0.544991	-0.262172
C129	C	0.918059	-0.517248	-0.172314
H130	H	1.088227	-0.408536	-0.274261
H131	H	1.017871	-0.456815	-0.430639
H132	H	0.884128	-0.543473	-0.422963
H133	H	0.820738	-0.581854	-0.258905
H134	H	0.891094	-0.533575	-0.102528
C135	C	0.570145	0.118838	-0.175927
C136	C	0.539966	0.151969	-0.271553
C137	C	0.578305	0.109589	-0.359785
C138	C	0.646822	0.034079	-0.352391
C139	C	0.677005	0.000944	-0.256761
C140	C	0.638666	0.043324	-0.168529
H141	H	0.489242	0.207869	-0.277030
H142	H	0.555961	0.134118	-0.430577
H143	H	0.675203	0.002707	-0.417706
H144	H	0.727729	-0.054957	-0.251284
H145	H	0.661009	0.018795	-0.097737
H146	H	1.091540	0.198219	0.578220
C147	C	1.097865	0.219228	0.409878
C148	C	1.036241	0.271843	0.345087
C149	C	1.057655	0.357403	0.308845
C150	C	1.140693	0.390348	0.337394
C151	C	1.202322	0.337732	0.402188
C152	C	1.180908	0.252173	0.438430
H153	H	0.974767	0.247456	0.323950
H154	H	1.012033	0.396352	0.260880
H155	H	1.156545	0.453684	0.310566
H156	H	1.263797	0.362120	0.423325
H157	H	1.226531	0.213224	0.486395
H158	H	0.909219	0.008392	0.580461
C159	C	0.882721	0.007761	0.411966
C160	C	0.865776	0.001177	0.307626
C161	C	0.778960	-0.018384	0.273310
C162	C	0.709089	-0.031360	0.343334
C163	C	0.726031	-0.024776	0.447681
C164	C	0.812848	-0.005215	0.481997
H165	H	0.917501	0.010783	0.255783
H166	H	0.766419	-0.023257	0.196065
H167	H	0.644822	-0.045840	0.317932
H168	H	0.674306	-0.034382	0.499523
H169	H	0.825389	-0.000342	0.559242
C170	C	1.124199	-0.482916	0.093302
C171	C	1.151214	-0.541594	0.174926
C172	C	1.242008	-0.585166	0.180331
C173	C	1.305786	-0.570062	0.104111
C174	C	1.278772	-0.511381	0.022480
C175	C	1.187978	-0.467808	0.017076
H176	H	1.104001	-0.552778	0.231355
H177	H	1.262006	-0.628606	0.240760
H178	H	1.372997	-0.602317	0.108111
H179	H	1.325985	-0.500197	-0.033948
H180	H	1.167980	-0.424369	-0.043353
H181	H	0.577852	-0.012275	0.062973
H182	H	1.021872	-0.024275	0.578728
H183	H	0.434210	-0.015027	0.063352
H184	H	0.414242	0.130885	0.153524
C185	C	0.849463	-0.287499	0.085253
C186	C	0.878837	-0.315276	0.182979
C187	C	0.830592	-0.277749	0.268200
C188	C	0.752973	-0.212446	0.255694
C189	C	0.723596	-0.184665	0.157964
C190	C	0.771841	-0.222191	0.072743
H191	H	0.936298	-0.363621	0.192240
H192	H	0.852340	-0.298315	0.340546
H193	H	0.717260	-0.184666	0.318779
H194	H	0.666134	-0.136320	0.148703
H195	H	0.750093	-0.201626	0.000397
C196	C	0.552486	0.252257	0.095320
C197	C	0.600197	0.280542	0.180108
C198	C	0.620945	0.372013	0.187258
C199	C	0.593981	0.435199	0.109619
C200	C	0.546267	0.406916	0.024825
C201	C	0.525519	0.315445	0.017675
H202	H	0.620160	0.233767	0.237586
H203	H	0.656266	0.392950	0.250029
H204	H	0.609340	0.502911	0.114912
H205	H	0.526304	0.453691	-0.032653
H206	H	0.490198	0.294507	-0.045096
H207	H	0.859490	-0.440293	-0.063217
H208	H	1.000459	-0.457639	0.153505
H209	H	1.004324	-0.314320	0.153137
H210	H	0.433166	-0.014865	-0.062168
H211	H	0.559040	0.127830	0.153082
H212	H	1.102831	-0.471468	-0.087449
H213	H	0.403031	0.228313	0.087600
H214	H	1.103909	-0.328579	0.091097
H215	H	0.854945	0.171953	0.579481
H216	H	0.931159	0.247952	0.580608
