data_functionalizedCrystal
_audit_creation_method	'MofGen! by Chris Wilmer'
_symmetry_space_group_name_H-M	'P1'
_symmetry_Int_Tables_number	1
_symmetry_cell_setting	triclinic
loop_
_symmetry_equiv_pos_as_xyz
  x,y,z
_cell_length_a	13.032831
_cell_length_b	12.759400
_cell_length_c	12.759393
_cell_angle_alpha	90.030210
_cell_angle_beta	97.193208
_cell_angle_gamma	82.819639
loop_
_atom_site_label
_atom_site_type_symbol
_atom_site_fract_x
_atom_site_fract_y
_atom_site_fract_z
Zn1	Zn	1.597745	-0.622510	0.797713
Zn2	Zn	1.597641	-0.798211	0.622020
Zn3	Zn	1.422978	-0.600214	0.599768
Zn4	Zn	1.422966	-0.775799	0.775389
O5	O	1.510333	-0.699183	0.698723
O6	O	1.743973	-0.664527	0.793063
O7	O	1.574433	-0.771995	0.472042
O8	O	1.446210	-0.456157	0.626056
O9	O	1.743897	-0.793614	0.663982
O10	O	1.574610	-0.472537	0.771486
O11	O	1.446109	-0.626527	0.455694
O12	O	1.276734	-0.604796	0.604409
O13	O	1.446189	-0.755417	0.925376
O14	O	1.276726	-0.733798	0.733436
O15	O	1.574599	-0.642795	0.941778
O16	O	1.574421	-0.942253	0.642335
O17	O	1.446088	-0.925787	0.755014
C18	C	1.238811	-0.664446	0.664086
C19	C	1.122653	-0.649610	0.649293
C20	C	1.070889	-0.706926	0.706443
C21	C	0.950834	-0.691595	0.691155
C22	C	1.510271	-0.972143	0.698693
C23	C	1.510340	-1.088928	0.698727
C24	C	1.577237	-1.152339	0.640139
C25	C	1.577301	-1.262071	0.640180
C26	C	1.443562	-1.244972	0.757398
C27	C	1.443504	-1.135242	0.757363
C28	C	1.644072	-1.106025	0.581503
C29	C	1.710974	-1.169436	0.522909
C30	C	1.711038	-1.279168	0.522950
C31	C	1.644201	-1.325489	0.581584
C32	C	1.782914	-0.734057	0.733495
C33	C	1.899073	-0.748918	0.748313
C34	C	1.510404	-0.699093	0.972765
C35	C	1.510435	-0.699055	1.089546
C36	C	1.510423	-0.425162	0.698779
C37	C	1.510462	-0.308390	0.698803
C38	C	1.510321	-0.699205	0.425754
C39	C	1.510493	-0.698974	0.308999
C40	C	1.577291	-0.774728	1.262654
C41	C	1.577260	-0.774771	1.152926
C42	C	1.443629	-0.623296	1.135898
C43	C	1.443656	-0.623258	1.245623
C44	C	1.644128	-0.850444	1.326031
C45	C	1.710933	-0.926204	1.279686
C46	C	1.710901	-0.926247	1.169958
C47	C	1.644065	-0.850530	1.106574
H48	H	1.644025	-1.016676	0.581460
H49	H	0.906274	-0.631165	0.630910
H50	H	0.943631	-0.809338	0.808569
H51	H	1.644266	-1.414842	0.581622
O52	O	1.644192	-0.850697	1.000004
C53	C	1.717456	-0.933820	0.972682
H54	H	1.778531	-0.956318	1.043698
H55	H	1.675985	-1.005131	0.947922
C56	C	1.695993	-0.870265	0.793130
C57	C	1.771011	-0.897892	0.880351
H58	H	1.729025	-0.848106	0.736173
H59	H	1.646630	-0.814265	0.811536
H60	H	1.661440	-0.929696	0.772511
H61	H	1.805553	-0.838457	0.900977
H62	H	1.820381	-0.953880	0.861947
O63	O	1.069540	-0.577387	0.577535
C64	C	1.096170	-0.476076	0.604016
H65	H	1.126290	-0.474682	0.691762
H66	H	1.159416	-0.456565	0.555725
C67	C	0.962144	-0.395362	0.471871
C68	C	0.999130	-0.393647	0.579645
H69	H	0.902287	-0.344514	0.456834
H70	H	0.944205	-0.463617	0.454027
H71	H	1.014858	-0.379105	0.431642
H72	H	0.946421	-0.409917	0.619872
H73	H	1.017058	-0.325393	0.597496
O74	O	1.775748	-1.124377	0.465826
C75	C	1.716248	-1.053389	0.390331
H76	H	1.633963	-1.076009	0.373289
H77	H	1.712583	-0.969740	0.422320
C78	C	1.868424	-1.030502	0.308602
C79	C	1.767362	-1.058290	0.287665
H80	H	1.899955	-1.033521	0.245274
H81	H	1.908512	-1.078325	0.359467
H82	H	1.865356	-0.960797	0.335262
H83	H	1.770432	-1.127998	0.261018
H84	H	1.727276	-1.010478	0.236793
O85	O	1.378669	-1.290132	0.814251
C86	C	1.393083	-1.400581	0.801738
H87	H	1.427362	-1.419983	0.725062
H88	H	1.448718	-1.438741	0.871205
C89	C	1.245267	-1.419645	0.891980
C90	C	1.287361	-1.443474	0.797801
H91	H	1.180054	-1.446105	0.889556
H92	H	1.235557	-1.345233	0.900414
H93	H	1.291639	-1.451446	0.949859
H94	H	1.240995	-1.411662	0.739925
H95	H	1.297060	-1.517882	0.789356
H96	H	1.389031	-1.083613	0.805072
H97	H	1.765520	-1.330795	0.475248
H98	H	1.644163	-0.850415	1.415378
O99	O	1.775964	-0.999616	1.341312
C100	C	1.843482	-0.948411	1.413415
H101	H	1.849952	-0.866506	1.381184
H102	H	1.811198	-0.940629	1.492455
C103	C	1.944162	-1.114230	1.468534
C104	C	1.952115	-1.013636	1.428942
H105	H	2.011171	-1.154465	1.478116
H106	H	1.898671	-1.148729	1.419959
H107	H	1.917254	-1.107730	1.534396
H108	H	1.979010	-1.020136	1.363075
H109	H	1.997613	-0.979140	1.477506
H110	H	1.765291	-0.987939	1.132227
O111	O	1.378629	-0.549703	1.290519
C112	C	1.274454	-0.559363	1.250438
H113	H	1.272250	-0.599492	1.170482
H114	H	1.239257	-0.608857	1.307690
C115	C	1.213889	-0.399560	1.335526
C116	C	1.211182	-0.448839	1.237319
H117	H	1.174857	-0.331385	1.327438
H118	H	1.284073	-0.393053	1.362533
H119	H	1.184560	-0.440816	1.383227
H120	H	1.240522	-0.407590	1.189625
H121	H	1.141001	-0.455336	1.210303
O122	O	1.124159	-0.778879	0.778384
C123	C	1.187316	-0.727150	0.854347
H124	H	1.203549	-0.649544	0.819483
H125	H	1.145353	-0.710381	0.926920
C126	C	1.271126	-0.893447	0.929207
C127	C	1.291071	-0.798134	0.886383
H128	H	1.335125	-0.937234	0.948973
H129	H	1.228574	-0.928299	0.878032
H130	H	1.236155	-0.879459	0.989679
H131	H	1.326030	-0.812122	0.825904
H132	H	1.333632	-0.763286	0.937548
H133	H	1.389216	-0.561650	1.084283
