data_functionalizedCrystal
_audit_creation_method	'MofGen! by Chris Wilmer'
_symmetry_space_group_name_H-M	'P1'
_symmetry_Int_Tables_number	1
_symmetry_cell_setting	triclinic
loop_
_symmetry_equiv_pos_as_xyz
  x,y,z
_cell_length_a	16.992694
_cell_length_b	23.532407
_cell_length_c	15.455313
_cell_angle_alpha	92.643560
_cell_angle_beta	87.142206
_cell_angle_gamma	86.758451
loop_
_atom_site_label
_atom_site_type_symbol
_atom_site_fract_x
_atom_site_fract_y
_atom_site_fract_z
O1	O	1.042902	0.118384	-0.072037
O2	O	1.542902	0.618384	0.427963
O3	O	0.814628	0.117059	-0.072062
O4	O	1.314628	0.617059	0.427938
O5	O	0.935648	0.035132	-0.072033
O6	O	1.435648	0.535132	0.427967
O7	O	0.921882	0.200311	-0.072066
O8	O	1.421882	0.700311	0.427934
O9	O	0.928727	0.039796	0.072228
O10	O	1.428727	0.539796	0.572228
O11	O	0.807707	0.121723	0.072198
O12	O	1.307707	0.621723	0.572198
O13	O	1.035981	0.123049	0.072224
O14	O	1.535981	0.623049	0.572224
Cu15	Cu	0.921212	0.122812	0.085383
Cu16	Cu	1.421212	0.622812	0.585383
Cu17	Cu	0.929397	0.117296	-0.085222
Cu18	Cu	1.429397	0.617296	0.414778
O19	O	0.914962	0.204976	0.072194
O20	O	1.414962	0.704976	0.572194
C21	C	0.781968	0.117688	0.000065
C22	C	1.281968	0.617688	0.500065
C23	C	0.694964	0.112604	0.000056
C24	C	1.194964	0.612604	0.500056
C25	C	0.644342	0.161650	0.000047
C26	C	1.144342	0.661650	0.500047
C27	C	0.562592	0.156871	0.000060
C28	C	1.062592	0.656871	0.500060
C29	C	0.531466	0.103045	0.000076
C30	C	1.031466	0.603045	0.500076
C31	C	0.582095	0.053995	0.000088
C32	C	1.082095	0.553995	0.500088
C33	C	0.663843	0.058775	0.000081
C34	C	1.163843	0.558775	0.500081
C35	C	0.288022	0.083234	0.000103
C36	C	0.788022	0.583234	0.500103
C37	C	0.206267	0.078457	0.000107
C38	C	0.706267	0.578457	0.500107
C39	C	0.186770	0.181334	0.000081
C40	C	0.686770	0.681334	0.500081
C41	C	0.268521	0.186109	0.000069
C42	C	0.768521	0.686109	0.500069
C43	C	0.319142	0.137059	0.000085
C44	C	0.819142	0.637059	0.500085
N45	N	0.447905	0.098158	0.000086
N46	N	0.947905	0.598158	0.500086
N47	N	0.402701	0.141946	0.000081
N48	N	0.902701	0.641946	0.500081
C49	C	0.931837	0.016231	0.000100
C50	C	1.431837	0.516231	0.500100
C51	C	0.930782	-0.047038	0.000106
C52	C	1.430782	0.452962	0.500106
C53	C	0.995791	-0.442917	0.000066
C54	C	1.495791	0.057083	0.500066
C55	C	0.994812	-0.502366	0.000059
C56	C	1.494812	-0.002366	0.500059
O57	O	1.055075	-0.536121	0.000034
O58	O	1.555075	-0.036121	0.500034
N59	N	0.922865	-0.528562	0.000052
N60	N	1.422865	-0.028562	0.500052
C61	C	0.851893	-0.495307	0.000042
C62	C	1.351893	0.004693	0.500042
O63	O	0.790607	-0.523048	0.000035
O64	O	1.290607	-0.023048	0.500035
C65	C	0.852873	-0.435859	0.000043
C66	C	1.352873	0.064141	0.500043
C67	C	0.924824	-0.409666	0.000059
C68	C	1.424824	0.090334	0.500059
C69	C	1.067736	-0.416723	0.000081
C70	C	1.567736	0.083277	0.500081
C71	C	1.068714	-0.357278	0.000089
C72	C	1.568714	0.142722	0.500089
C73	C	0.997748	-0.324027	0.000083
C74	C	1.497748	0.175973	0.500083
C75	C	0.925803	-0.350221	0.000067
C76	C	1.425803	0.149779	0.500067
C77	C	0.781902	-0.402605	0.000027
C78	C	1.281902	0.097395	0.500027
C79	C	0.782889	-0.343154	0.000027
C80	C	1.282889	0.156846	0.500027
C81	C	0.854839	-0.316960	0.000043
C82	C	1.354839	0.183040	0.500043
C83	C	0.855814	-0.257525	0.000069
C84	C	1.355814	0.242475	0.500069
N85	N	0.927761	-0.231328	0.000076
N86	N	1.427761	0.268672	0.500076
C87	C	0.998728	-0.264579	0.000083
C88	C	1.498728	0.235421	0.500083
C89	C	0.849841	-0.620151	0.000040
C90	C	1.349841	-0.120151	0.500040
C91	C	0.848860	-0.679598	0.000046
C92	C	1.348860	-0.179598	0.500046
C93	C	0.991779	-0.686653	0.000061
C94	C	1.491779	-0.186653	0.500061
C95	C	0.992759	-0.627205	0.000061
C96	C	1.492759	-0.127205	0.500061
C97	C	0.921788	-0.593955	0.000047
C98	C	1.421788	-0.093955	0.500047
C99	C	1.000777	-0.139740	0.000101
C100	C	1.500777	0.360260	0.500101
C101	C	1.001749	-0.080289	0.000113
C102	C	1.501749	0.419711	0.500113
C103	C	0.858831	-0.073240	0.000093
C104	C	1.358831	0.426760	0.500093
C105	C	0.857858	-0.132685	0.000086
C106	C	1.357858	0.367315	0.500086
C107	C	0.928838	-0.165934	0.000087
C108	C	1.428838	0.334066	0.500087
O109	O	0.795583	-0.223733	0.000090
O110	O	1.295583	0.276267	0.500090
O111	O	1.060004	-0.236831	0.000079
O112	O	1.560004	0.263169	0.500079
C113	C	1.068641	0.122420	0.000095
C114	C	1.568641	0.622420	0.500095
C115	C	1.155645	0.127504	0.000098
C116	C	1.655645	0.627504	0.500098
C117	C	0.918772	0.223877	0.000060
C118	C	1.418772	0.723877	0.500060
C119	C	0.919827	0.287146	0.000048
C120	C	1.419827	0.787146	0.500048
N121	N	0.915462	0.126692	0.205377
N122	N	1.415462	0.626692	0.705377
N123	N	0.935153	0.113412	-0.205216
N124	N	1.435153	0.613412	0.294784
C125	C	0.966893	0.091901	0.250784
C126	C	1.466893	0.591901	0.750784
C127	C	0.962551	0.094840	0.341591
C128	C	1.462551	0.594840	0.841591
C129	C	0.906782	0.132574	0.386989
C130	C	1.406782	0.632574	0.886989
C131	C	0.855345	0.167366	0.341576
C132	C	1.355345	0.667366	0.841576
C133	C	0.859684	0.164424	0.250771
C134	C	1.359684	0.664424	0.750771
C135	C	0.888055	0.145261	0.658566
C136	C	1.388055	0.645261	1.158566
C137	C	0.883722	0.148203	0.749378
C138	C	1.383722	0.648203	1.249378
C139	C	0.990928	0.075676	0.749386
C140	C	1.490928	0.575676	1.249386
C141	C	0.995265	0.072738	0.658579
C142	C	1.495265	0.572738	1.158579
C143	C	0.943825	0.107529	0.613174
C144	C	1.443825	0.607529	1.113174
N145	N	0.902344	0.135581	0.479808
N146	N	1.402344	0.635581	0.979808
N147	N	0.948260	0.104518	0.520356
N148	N	1.448260	0.604518	1.020356
H149	H	1.058576	-0.166805	0.000099
H150	H	1.558576	0.333195	0.500099
N151	N	0.832573	0.182780	0.609600
N152	N	1.332573	0.682780	1.109600
H153	H	0.796587	0.207130	0.652141
H154	H	1.296587	0.707130	1.152141
H155	H	0.864174	0.208107	0.571905
H156	H	1.364174	0.708107	1.071905
H157	H	0.521379	0.196809	0.000051
H158	H	1.021379	0.696809	0.500051
H159	H	0.817802	0.192753	0.213802
H160	H	1.317802	0.692753	0.713802
H161	H	1.127304	-0.335957	0.000099
H162	H	1.627304	0.164043	0.500099
N163	N	0.795187	0.208062	0.390537
N164	N	1.295187	0.708062	0.890537
H165	H	0.800243	0.204649	0.454952
H166	H	1.300243	0.704649	0.954952
H167	H	0.804680	0.248350	0.374647
H168	H	1.304680	0.748350	0.874647
N169	N	0.548527	-0.004061	0.000119
N170	N	1.048527	0.495939	0.500119
H171	H	0.489058	0.000353	0.000121
H172	H	0.989058	0.500353	0.500121
H173	H	0.569632	-0.027420	-0.053353
H174	H	1.069632	0.472580	0.446647
H175	H	1.032806	0.047350	0.786363
H176	H	1.532806	0.547350	1.286363
N177	N	0.823576	0.188909	0.798347
N178	N	1.323576	0.688909	1.298347
H179	H	0.791648	0.210503	0.755805
H180	H	1.291648	0.710503	1.255805
H181	H	0.787299	0.166746	0.836044
H182	H	1.287299	0.666746	1.336044
N183	N	0.342613	0.030333	0.000126
N184	N	0.842613	0.530333	0.500126
H185	H	0.310488	-0.004489	0.000136
H186	H	0.810488	0.495511	0.500136
H187	H	0.379519	0.028341	-0.053351
H188	H	0.879519	0.528341	0.446649
N189	N	0.677915	0.219705	0.000034
N190	N	1.177915	0.719705	0.500034
H191	H	0.713954	0.222252	-0.053448
H192	H	1.213954	0.722252	0.446552
H193	H	0.633395	0.250017	0.000065
H194	H	1.133395	0.750017	0.500065
H195	H	1.040677	0.042013	0.621617
H196	H	1.540677	0.542013	1.121617
N197	N	0.172684	0.020403	0.000141
N198	N	0.672684	0.520403	0.500141
H199	H	0.141759	0.014395	-0.053333
H200	H	0.641759	0.514395	0.446667
H201	H	0.217192	-0.009912	0.000188
H202	H	0.717192	0.490088	0.500188
H203	H	1.125529	-0.443790	0.000084
H204	H	1.625529	0.056210	0.500084
N205	N	0.780257	-0.160942	0.000072
N206	N	1.280257	0.339058	0.500072
H207	H	0.774097	-0.183731	0.053542
H208	H	1.274097	0.316269	0.553542
H209	H	0.735496	-0.130822	0.000039
H210	H	1.235496	0.369178	0.500039
N211	N	0.773292	-0.584285	0.000039
N212	N	1.273292	-0.084285	0.500039
H213	H	0.744443	-0.594813	-0.053439
H214	H	1.244443	-0.094813	0.446561
H215	H	0.739381	-0.591381	0.053551
H216	H	1.239381	-0.091381	0.553551
N217	N	0.302092	0.244163	0.000036
N218	N	0.802092	0.744163	0.500036
H219	H	0.257618	0.274509	0.000028
H220	H	0.757618	0.774509	0.500028
H221	H	0.333033	0.250124	0.053506
H222	H	0.833033	0.750124	0.553506
N223	N	0.782290	-0.037370	0.000109
N224	N	1.282290	0.462630	0.500109
H225	H	0.793834	0.004264	0.000119
H226	H	1.293834	0.504264	0.500119
H227	H	0.753469	-0.047935	-0.053371
H228	H	1.253469	0.452065	0.446629
N229	N	1.070361	-0.598955	0.000079
N230	N	1.570361	-0.098955	0.500079
H231	H	1.115166	-0.629046	0.000086
H232	H	1.615166	-0.129046	0.500086
H233	H	1.076452	-0.576170	-0.053400
H234	H	1.576452	-0.076170	0.446600
N235	N	0.718440	0.005873	0.000088
N236	N	1.218440	0.505873	0.500088
H237	H	0.755352	0.003832	-0.053389
H238	H	1.255352	0.503832	0.446611
H239	H	0.750179	0.007325	0.053601
H240	H	1.250179	0.507325	0.553601
H241	H	1.049564	-0.713737	0.000063
H242	H	1.549564	-0.213737	0.500063
N243	N	0.704297	-0.430847	0.000021
N244	N	1.204297	0.069153	0.500021
H245	H	0.659496	-0.400754	0.000015
H246	H	1.159496	0.099246	0.500015
H247	H	0.703335	-0.457082	-0.053459
H248	H	1.203335	0.042918	0.446541
N249	N	1.027031	0.051196	0.201812
N250	N	1.527031	0.551196	0.701812
H251	H	1.063366	0.073319	0.164119
H252	H	1.563366	0.573319	0.664119
H253	H	1.058898	0.029605	0.244407
H254	H	1.558898	0.529605	0.744407
H255	H	1.060342	-0.058966	0.000129
H256	H	1.560342	0.441034	0.500129
N257	N	0.132173	0.234234	0.000065
N258	N	0.632173	0.734234	0.500065
H259	H	0.075663	0.223041	0.000072
H260	H	0.575663	0.723041	0.500072
H261	H	0.139648	0.259261	0.053538
H262	H	0.639648	0.759261	0.553538
H263	H	0.725094	-0.316084	0.000014
H264	H	1.225094	0.183916	0.500014
N265	N	0.771255	-0.707846	0.000052
N266	N	1.271255	-0.207846	0.500052
H267	H	0.726451	-0.677755	0.000052
H268	H	1.226451	-0.177755	0.500052
H269	H	0.770292	-0.734080	-0.053428
H270	H	1.270292	-0.234080	0.446572
H271	H	1.004430	0.066510	0.378560
H272	H	1.504430	0.566510	0.878560
