data_functionalizedCrystal
_audit_creation_method	'MofGen! by Chris Wilmer'
_symmetry_space_group_name_H-M	'P1'
_symmetry_Int_Tables_number	1
_symmetry_cell_setting	triclinic
loop_
_symmetry_equiv_pos_as_xyz
  x,y,z
_cell_length_a	12.645331
_cell_length_b	13.897448
_cell_length_c	13.897441
_cell_angle_alpha	90.029627
_cell_angle_beta	89.980056
_cell_angle_gamma	89.983329
loop_
_atom_site_label
_atom_site_type_symbol
_atom_site_fract_x
_atom_site_fract_y
_atom_site_fract_z
Zn1	Zn	1.620703	0.384020	-0.545416
Zn2	Zn	1.620593	0.545339	-0.384117
Zn3	Zn	1.443426	0.384056	-0.384130
Zn4	Zn	1.443399	0.545272	-0.545366
O5	O	1.532030	0.464672	-0.464757
O6	O	1.769035	0.405432	-0.524035
O7	O	1.597056	0.523988	-0.249137
O8	O	1.466999	0.249070	-0.405552
O9	O	1.768955	0.523952	-0.405529
O10	O	1.597244	0.249043	-0.524047
O11	O	1.466892	0.405494	-0.249147
O12	O	1.295075	0.405429	-0.405503
O13	O	1.466954	0.523838	-0.680354
O14	O	1.295055	0.523873	-0.523962
O15	O	1.597218	0.405367	-0.680391
O16	O	1.597030	0.680311	-0.405481
O17	O	1.466847	0.680262	-0.523950
C18	C	1.256600	0.464649	-0.464729
C19	C	1.138770	0.464662	-0.464740
C20	C	1.531953	0.715286	-0.464729
C21	C	1.532017	0.822500	-0.464750
C22	C	1.532095	0.464591	-0.716350
C23	C	1.532123	0.464556	-0.823564
C24	C	0.971183	0.389806	-0.390629
C25	C	1.093743	0.390000	-0.390302
C26	C	1.094251	0.566275	-0.436969
C27	C	0.971653	0.565866	-0.436463
C28	C	0.971616	0.438872	-0.566909
C29	C	1.094221	0.436602	-0.566342
C30	C	1.808535	0.464695	-0.464786
C31	C	1.926365	0.464705	-0.464798
C32	C	1.532137	0.213079	-0.464807
C33	C	1.532182	0.105865	-0.464827
C34	C	1.532128	1.018795	-0.464810
C35	C	1.532063	0.909562	-0.464780
C36	C	1.532144	0.464529	-0.910634
C37	C	1.532175	0.464485	-1.019867
C38	C	1.532026	0.464683	-0.214143
C39	C	1.532204	0.464445	-0.106930
H40	H	0.941718	0.314229	-0.407850
H41	H	1.123324	0.361826	-0.587283
N42	N	0.932466	0.410967	-0.296266
N43	N	0.835206	0.410735	-0.280173
H44	H	0.807857	0.425683	-0.213530
N45	N	0.935257	0.507286	-0.636256
N46	N	0.962458	0.499548	-0.722393
H47	H	0.936775	0.547867	-0.771364
N48	N	0.934434	0.638250	-0.501255
N49	N	0.837333	0.650846	-0.512421
H50	H	0.811048	0.701969	-0.558176
N51	N	1.130841	0.638148	-0.502617
N52	N	1.190281	0.615226	-0.570764
H53	H	1.216125	0.665984	-0.617131
H54	H	0.943011	0.587774	-0.361815
N55	N	1.131494	0.295464	-0.412111
N56	N	1.067295	0.228881	-0.427678
H57	H	1.093951	0.162107	-0.443068
H58	H	0.940718	0.366069	-0.592165
N59	N	1.130469	0.411421	-0.295374
N60	N	1.065556	0.426282	-0.229159
H61	H	1.091492	0.441414	-0.162111
H62	H	1.124911	0.588559	-0.363122
H63	H	1.124876	0.487175	-0.624560
