data_functionalizedCrystal
_audit_creation_method	'MofGen! by Chris Wilmer'
_symmetry_space_group_name_H-M	'P1'
_symmetry_Int_Tables_number	1
_symmetry_cell_setting	triclinic
loop_
_symmetry_equiv_pos_as_xyz
  x,y,z
_cell_length_a	10.654550
_cell_length_b	10.654551
_cell_length_c	9.730223
_cell_angle_alpha	90.003397
_cell_angle_beta	90.007790
_cell_angle_gamma	84.485132
loop_
_atom_site_label
_atom_site_type_symbol
_atom_site_fract_x
_atom_site_fract_y
_atom_site_fract_z
O1	O	1.667841	0.176401	0.114394
O2	O	1.302363	0.193207	0.114371
O3	O	1.493504	0.002065	0.114383
O4	O	1.476700	0.367544	0.114381
O5	O	1.493489	0.002054	-0.114197
O6	O	1.302347	0.193196	-0.114209
O7	O	1.667826	0.176390	-0.114186
Zn8	Zn	1.485084	0.184791	-0.150490
Zn9	Zn	1.485104	0.184806	0.150674
O10	O	1.476684	0.367532	-0.114199
C11	C	1.255557	0.191968	0.000078
C12	C	1.116114	0.188276	0.000069
C13	C	1.036629	0.300817	0.000089
C14	C	0.905608	0.297341	0.000113
C15	C	0.933570	0.068771	0.000104
C16	C	1.064589	0.072249	0.000070
C17	C	1.088154	0.416844	0.000088
C18	C	1.008667	0.529395	0.000109
C19	C	0.877647	0.525918	0.000133
C20	C	0.826112	0.409891	0.000136
C21	C	1.492263	-0.044739	0.000096
C22	C	1.488570	-0.184182	0.000105
C23	C	1.486846	-0.249687	0.124702
C24	C	1.483366	-0.380708	0.124695
C25	C	1.483339	-0.380706	-0.124515
C26	C	1.486810	-0.249687	-0.124507
C27	C	1.488606	-0.184182	0.249314
C28	C	1.486884	-0.249688	0.373921
C29	C	1.483404	-0.380709	0.373914
C30	C	1.481646	-0.446223	0.249301
C31	C	1.714632	0.177629	0.000109
C32	C	1.854075	0.181321	0.000127
C33	C	1.477926	0.414336	0.000091
C34	C	1.481619	0.553779	0.000091
N35	N	1.485080	0.184780	-0.356026
C36	C	1.408282	0.107920	-0.571894
C37	C	1.408265	0.107903	-0.428011
C38	C	1.561925	0.261670	-0.427932
C39	C	1.561948	0.261680	-0.571812
N40	N	1.485119	0.184808	0.356211
H41	H	1.050636	0.623860	0.000095
H42	H	0.719425	0.407069	0.000134
C43	C	1.323737	0.023330	-0.348927
C44	C	1.340991	-0.120693	-0.368738
C45	C	1.256459	-0.205270	-0.289656
C46	C	1.154673	-0.145825	-0.190762
C47	C	1.137414	-0.001795	-0.170946
C48	C	1.221946	0.082783	-0.250028
H49	H	1.416344	-0.164704	-0.441949
H50	H	1.269236	-0.311891	-0.304325
H51	H	1.092098	-0.208435	-0.132220
H52	H	1.062062	0.042216	-0.097735
H53	H	1.209169	0.189404	-0.235359
H54	H	1.624525	0.324292	-0.630352
H55	H	1.194836	0.419687	0.000075
H56	H	1.624475	0.324259	-0.369311
H57	H	0.891600	-0.025693	0.000129
C58	C	1.152035	-0.051544	0.000056
C59	C	1.245913	-0.080582	-0.118664
C60	C	1.333362	-0.204376	-0.118684
C61	C	1.326933	-0.299132	0.000017
C62	C	1.233052	-0.270096	0.118746
C63	C	1.145603	-0.146302	0.118766
H64	H	1.250675	-0.010436	-0.206542
H65	H	1.402859	-0.225870	-0.206576
H66	H	1.391668	-0.390772	0.000003
H67	H	1.228290	-0.340243	0.206624
H68	H	1.076106	-0.124808	0.206658
C69	C	1.481416	-0.452774	-0.261579
C70	C	1.370165	-0.529540	-0.295850
C71	C	1.368246	-0.601609	-0.432915
C72	C	1.477578	-0.596911	-0.535709
C73	C	1.588837	-0.520142	-0.501440
C74	C	1.590756	-0.448073	-0.364375
H75	H	1.289224	-0.533021	-0.219754
H76	H	1.285884	-0.658439	-0.458283
H77	H	1.476157	-0.650261	-0.637172
H78	H	1.669778	-0.516662	-0.577536
H79	H	1.673118	-0.391243	-0.339007
H80	H	0.812931	0.617562	0.000136
H81	H	1.491443	-0.077499	0.249334
H82	H	1.488303	-0.196336	0.475376
H83	H	1.481988	-0.434038	0.475375
H84	H	1.478794	-0.552906	0.249306
H85	H	1.488187	-0.196348	-0.225964
H86	H	1.345724	0.045325	-0.630493
