data_functionalizedCrystal
_audit_creation_method	'MofGen! by Chris Wilmer'
_symmetry_space_group_name_H-M	'P1'
_symmetry_Int_Tables_number	1
_symmetry_cell_setting	triclinic
loop_
_symmetry_equiv_pos_as_xyz
  x,y,z
_cell_length_a	8.497374
_cell_length_b	11.169417
_cell_length_c	11.169416
_cell_angle_alpha	90.011219
_cell_angle_beta	89.994900
_cell_angle_gamma	89.999788
loop_
_atom_site_label
_atom_site_type_symbol
_atom_site_fract_x
_atom_site_fract_y
_atom_site_fract_z
Zn1	Zn	0.891929	-1.834730	0.477987
Zn2	Zn	1.391929	-1.334730	0.977987
Zn3	Zn	0.628147	-1.834688	0.678637
Zn4	Zn	1.128147	-1.334688	1.178637
Zn5	Zn	0.628164	-1.634085	0.477970
Zn6	Zn	1.128164	-1.134085	0.977970
Zn7	Zn	0.891886	-1.634023	0.678630
Zn8	Zn	1.391886	-1.134023	1.178630
O9	O	0.760031	-1.734381	0.578306
O10	O	1.260031	-1.234381	1.078306
O11	O	0.856949	-2.002674	0.504614
O12	O	1.356949	-1.502674	1.004614
O13	O	0.407387	-1.808086	0.652014
O14	O	0.907387	-1.308086	1.152014
O15	O	0.663178	-1.660744	0.310023
O16	O	1.163178	-1.160744	0.810023
O17	O	0.663150	-2.002643	0.652031
O18	O	1.163150	-1.502643	1.152031
O19	O	0.856965	-1.808157	0.310035
O20	O	1.356965	-1.308157	0.810035
O21	O	0.407399	-1.660703	0.504585
O22	O	0.907399	-1.160703	1.004585
O23	O	0.663135	-1.466127	0.504578
O24	O	1.163135	-0.966127	1.004578
O25	O	1.112654	-1.660639	0.652018
O26	O	1.612654	-1.160639	1.152018
O27	O	0.856891	-1.466082	0.652002
O28	O	1.356891	-0.966082	1.152002
O29	O	1.112686	-1.808098	0.504607
O30	O	1.612686	-1.308098	1.004607
O31	O	0.663108	-1.808026	0.846586
O32	O	1.163108	-1.308026	1.346586
O33	O	0.856875	-1.660599	0.846581
O34	O	1.356875	-1.160599	1.346581
C35	C	0.760011	-1.422557	0.578288
C36	C	1.260011	-0.922557	1.078288
C37	C	0.760040	-1.289157	0.578309
C38	C	1.260040	-0.789157	1.078309
C39	C	0.760019	-1.734334	0.890131
C40	C	1.260019	-1.234334	1.390131
C41	C	0.760067	-1.734423	1.023531
C42	C	1.260067	-1.234423	1.523531
C43	C	0.760053	-2.047424	0.578325
C44	C	1.260053	-1.547424	1.078325
C45	C	0.760062	-2.180824	0.578333
C46	C	1.260062	-1.680824	1.078333
C47	C	1.171512	-1.734373	0.578308
C48	C	1.671512	-1.234373	1.078308
C49	C	1.350156	-1.734375	0.578321
C50	C	1.850156	-1.234375	1.078321
C51	C	0.760078	-1.734462	0.265264
C52	C	1.260078	-1.234462	0.765264
C53	C	0.760098	-1.734496	0.131864
C54	C	1.260098	-1.234496	0.631864
