data_functionalizedCrystal
_audit_creation_method	'MofGen! by Chris Wilmer'
_symmetry_space_group_name_H-M	'P1'
_symmetry_Int_Tables_number	1
_symmetry_cell_setting	triclinic
loop_
_symmetry_equiv_pos_as_xyz
  x,y,z
_cell_length_a	11.792254
_cell_length_b	23.532357
_cell_length_c	10.868271
_cell_angle_alpha	89.989339
_cell_angle_beta	89.995741
_cell_angle_gamma	83.513444
loop_
_atom_site_label
_atom_site_type_symbol
_atom_site_fract_x
_atom_site_fract_y
_atom_site_fract_z
O1	O	1.505034	0.078091	-0.102337
O2	O	1.838367	0.411424	0.230996
O3	O	2.171700	0.744758	0.564329
O4	O	1.174503	0.086128	-0.102342
O5	O	1.507836	0.419461	0.230991
O6	O	1.841169	0.752795	0.564325
O7	O	1.349765	-0.000765	-0.102314
O8	O	1.683098	0.332569	0.231019
O9	O	2.016432	0.665902	0.564352
O10	O	1.329772	0.164984	-0.102365
O11	O	1.663105	0.498317	0.230968
O12	O	1.996438	0.831650	0.564302
O13	O	1.349751	-0.000768	0.102330
O14	O	1.683084	0.332565	0.435664
O15	O	2.016417	0.665898	0.768997
O16	O	1.174488	0.086125	0.102303
O17	O	1.507822	0.419458	0.435636
O18	O	1.841155	0.752791	0.768969
O19	O	1.505020	0.078088	0.102307
O20	O	1.838353	0.411421	0.435641
O21	O	2.171686	0.744754	0.768974
Zn22	Zn	1.339752	0.082105	0.134797
Zn23	Zn	1.673085	0.415439	0.468130
Zn24	Zn	2.006418	0.748772	0.801463
Zn25	Zn	1.339770	0.082110	-0.134831
Zn26	Zn	1.673104	0.415443	0.198502
Zn27	Zn	2.006437	0.748777	0.531835
O28	O	1.329757	0.164980	0.102280
O29	O	1.663091	0.498314	0.435613
O30	O	1.996424	0.831647	0.768946
C31	C	1.132217	0.085620	-0.000020
C32	C	1.465550	0.418953	0.333314
C33	C	1.798884	0.752287	0.666647
C34	C	1.006240	0.084105	-0.000020
C35	C	1.339573	0.417438	0.333313
C36	C	1.672907	0.750771	0.666646
C37	C	0.903933	0.082873	-0.000025
C38	C	1.237266	0.416207	0.333308
C39	C	1.570600	0.749540	0.666642
C40	C	0.775583	0.081334	-0.000025
C41	C	1.108916	0.414667	0.333308
C42	C	1.442250	0.748000	0.666641
C43	C	1.349258	-0.021986	0.000012
C44	C	1.682591	0.311347	0.333345
C45	C	2.015924	0.644681	0.666679
C46	C	1.347754	-0.085214	0.000023
C47	C	1.681087	0.248120	0.333357
C48	C	2.014421	0.581453	0.666690
C49	C	1.338323	-0.477279	-0.111595
C50	C	1.671656	-0.143946	0.221738
C51	C	2.004989	0.189388	0.555072
C52	C	1.336893	-0.536687	-0.111602
C53	C	1.670227	-0.203354	0.221731
C54	C	2.003560	0.129980	0.555065
O55	O	1.336122	-0.567406	-0.206472
O56	O	1.669456	-0.234073	0.126861
O57	O	2.002789	0.099260	0.460194
N58	N	1.336177	-0.566404	-0.000052
N59	N	1.669510	-0.233071	0.333282
N60	N	2.002844	0.100262	0.666615
C61	C	1.336878	-0.536710	0.111513
C62	C	1.670211	-0.203377	0.444846
C63	C	2.003545	0.129957	0.778180
O64	O	1.336136	-0.567442	0.206394
O65	O	1.669470	-0.234108	0.539728
O66	O	2.002803	0.099225	0.873061
C67	C	1.338299	-0.477303	0.111519
C68	C	1.671633	-0.143969	0.444852
C69	C	2.004966	0.189364	0.778185
C70	C	1.339027	-0.447589	-0.000039
C71	C	1.672361	-0.114256	0.333294
C72	C	2.005694	0.219078	0.666628
C73	C	1.339049	-0.447566	-0.223143
C74	C	1.672383	-0.114232	0.110190
C75	C	2.005716	0.219101	0.443523
C76	C	1.340481	-0.388162	-0.223136
C77	C	1.673814	-0.054828	0.110197
C78	C	2.007147	0.278505	0.443531
C79	C	1.341185	-0.358472	-0.111580
C80	C	1.674519	-0.025138	0.221753
C81	C	2.007852	0.308195	0.555087
C82	C	1.340459	-0.388185	-0.000031
C83	C	1.673792	-0.054852	0.333302
C84	C	2.007125	0.278481	0.666635
C85	C	1.338992	-0.447609	0.223082
C86	C	1.672326	-0.114275	0.556415
C87	C	2.005659	0.219058	0.889749
C88	C	1.340413	-0.388197	0.223078
C89	C	1.673746	-0.054864	0.556411
C90	C	2.007079	0.278470	0.889745
C91	C	1.341141	-0.358484	0.111521
C92	C	1.674474	-0.025150	0.444854
C93	C	2.007807	0.308183	0.778187
C94	C	1.342595	-0.299092	0.111532
C95	C	1.675928	0.034242	0.444865
C96	C	2.009261	0.367575	0.778199
N97	N	1.343311	-0.269374	-0.000018
N98	N	1.676644	0.063959	0.333315
N99	N	2.009978	0.397292	0.666648
C100	C	1.342606	-0.299064	-0.111574
C101	C	1.675940	0.034269	0.221759
C102	C	2.009273	0.367602	0.555093
C103	C	1.333892	-0.661469	0.111492
C104	C	1.667225	-0.328136	0.444826
C105	C	2.000558	0.005197	0.778159
C106	C	1.332479	-0.720876	0.111488
C107	C	1.665812	-0.387543	0.444821
C108	C	1.999145	-0.054209	0.778155
C109	C	1.332492	-0.720849	-0.111627
C110	C	1.665825	-0.387516	0.221706
C111	C	1.999159	-0.054182	0.555039
C112	C	1.333913	-0.661442	-0.111622
C113	C	1.667246	-0.328108	0.221712
C114	C	2.000580	0.005225	0.555045
C115	C	1.334608	-0.631752	-0.000058
C116	C	1.667942	-0.298419	0.333275
C117	C	2.001275	0.034915	0.666609
C118	C	1.345613	-0.174312	-0.111550
C119	C	1.678947	0.159021	0.221783
C120	C	2.012280	0.492354	0.555117
C121	C	1.347050	-0.114904	-0.111533
C122	C	1.680383	0.218430	0.221801
C123	C	2.013716	0.551763	0.555134
C124	C	1.347030	-0.114936	0.111582
C125	C	1.680364	0.218398	0.444915
C126	C	2.013697	0.551731	0.778249
C127	C	1.345600	-0.174339	0.111565
C128	C	1.678933	0.158994	0.444899
C129	C	2.012267	0.492327	0.778232
C130	C	1.344888	-0.204026	-0.000011
C131	C	1.678221	0.129307	0.333323
C132	C	2.011555	0.462641	0.666656
O133	O	1.343362	-0.268334	0.206354
O134	O	1.676695	0.064999	0.539687
O135	O	2.010028	0.398333	0.873021
O136	O	1.343333	-0.268324	-0.206440
O137	O	1.676667	0.065009	0.126894
O138	O	2.010000	0.398342	0.460227
C139	C	1.547305	0.078596	-0.000018
C140	C	1.880639	0.411929	0.333316
C141	C	2.213972	0.745262	0.666649
C142	C	1.673282	0.080111	-0.000025
C143	C	2.006615	0.413444	0.333308
C144	C	2.339949	0.746778	0.666641
C145	C	1.330264	0.186202	-0.000049
C146	C	1.663598	0.519535	0.333284
C147	C	1.996931	0.852868	0.666617
C148	C	1.331768	0.249429	-0.000069
C149	C	1.665101	0.582762	0.333264
C150	C	1.998435	0.916096	0.666598
N151	N	1.339747	0.082102	0.318811
N152	N	1.673080	0.415435	0.652144
N153	N	2.006414	0.748769	0.985477
N154	N	1.339784	0.082109	-0.318846
N155	N	1.673117	0.415442	0.014488
N156	N	2.006451	0.748776	0.347821
C157	C	1.339765	0.082109	0.569817
C158	C	1.673098	0.415442	0.903150
C159	C	2.006431	0.748775	1.236484
C160	C	1.339751	0.082107	0.430139
C161	C	1.673085	0.415440	0.763473
C162	C	2.006418	0.748773	1.096806
H163	H	1.347645	-0.090714	-0.202380
H164	H	1.680978	0.242620	0.130953
H165	H	2.014312	0.575953	0.464287
H166	H	1.347609	-0.090751	0.202408
H167	H	1.680942	0.242582	0.535741
H168	H	2.014276	0.575915	0.869075
H169	H	1.331903	-0.745065	0.202329
H170	H	1.665237	-0.411731	0.535663
H171	H	1.998570	-0.078398	0.868996
H172	H	1.345018	-0.198534	0.202405
H173	H	1.678351	0.134799	0.535738
H174	H	2.011684	0.468133	0.869071
H175	H	1.341069	-0.363974	-0.313978
H176	H	1.674403	-0.030641	0.019356
H177	H	2.007736	0.302693	0.352689
H178	H	1.338472	-0.471733	-0.313991
H179	H	1.671805	-0.138399	0.019343
H180	H	2.005138	0.194934	0.352676
H181	H	1.345028	-0.198476	-0.202406
H182	H	1.678361	0.134857	0.130928
H183	H	2.011694	0.468191	0.464261
H184	H	1.334504	-0.637253	-0.202462
H185	H	1.667838	-0.303919	0.130872
H186	H	2.001171	0.029414	0.464205
H187	H	1.340962	-0.364026	0.313929
H188	H	1.674295	-0.030693	0.647262
H189	H	2.007628	0.302641	0.980596
H190	H	1.331914	-0.745033	-0.202463
H191	H	1.665248	-0.411700	0.130871
H192	H	1.998581	-0.078367	0.464204
F193	F	1.338213	-0.479219	0.341819
F194	F	1.671546	-0.145886	0.675152
F195	F	2.004879	0.187448	1.008486
F196	F	1.334641	-0.629877	0.230242
F197	F	1.667974	-0.296544	0.563575
F198	F	2.001307	0.036790	0.896909
