data_functionalizedCrystal
_audit_creation_method	'MofGen! by Chris Wilmer'
_symmetry_space_group_name_H-M	'P1'
_symmetry_Int_Tables_number	1
_symmetry_cell_setting	triclinic
loop_
_symmetry_equiv_pos_as_xyz
  x,y,z
_cell_length_a	8.497374
_cell_length_b	8.497374
_cell_length_c	18.050591
_cell_angle_alpha	89.990347
_cell_angle_beta	90.009569
_cell_angle_gamma	90.000078
loop_
_atom_site_label
_atom_site_type_symbol
_atom_site_fract_x
_atom_site_fract_y
_atom_site_fract_z
Zn1	Zn	0.892378	-0.628498	1.135384
Zn2	Zn	0.628619	-0.892243	1.135393
Zn3	Zn	0.628569	-0.628453	1.011228
Zn4	Zn	0.892315	-0.892211	1.011225
O5	O	0.760470	-0.760351	1.073308
O6	O	0.857437	-0.663516	1.239310
O7	O	0.407850	-0.857246	1.118927
O8	O	0.663570	-0.407696	1.027695
O9	O	0.663655	-0.857289	1.239316
O10	O	0.857389	-0.407729	1.118912
O11	O	0.407814	-0.663440	1.027704
O12	O	0.663508	-0.663408	0.907303
O13	O	1.113085	-0.857234	1.027690
O14	O	0.857281	-0.857191	0.907301
O15	O	1.113132	-0.663485	1.118909
O16	O	0.663593	-1.113001	1.118924
O17	O	0.857329	-1.112978	1.027698
C18	C	0.760383	-0.760292	0.880355
C19	C	0.760383	-0.760305	0.797810
C20	C	1.171951	-0.760353	1.073302
C21	C	1.350595	-0.760370	1.073304
C22	C	0.760465	-0.170231	1.073305
C23	C	0.760474	-0.348875	1.073308
C24	C	0.655252	-0.654804	0.598339
C25	C	0.616458	-0.798685	0.548963
C26	C	0.760455	-0.760353	0.646679
C27	C	0.799245	-0.616522	0.548974
C28	C	0.760521	-0.760387	0.500694
C29	C	0.721585	-0.904309	0.598390
C30	C	0.904439	-0.722050	0.598406
C31	C	0.865699	-0.866030	0.549052
C32	C	0.760413	-0.760332	0.730778
C33	C	0.760563	-0.760424	0.416598
C34	C	0.760559	-0.760411	1.267013
C35	C	0.760597	-0.760437	1.349559
H36	H	0.566190	-0.565641	0.619980
H37	H	0.494721	-0.831108	0.527245
C38	C	0.842752	-0.454180	0.520133
C39	C	0.732203	-0.344148	0.545121
C40	C	0.772228	-0.194578	0.518578
H41	H	0.843377	-0.455378	0.467513
H42	H	0.944268	-0.426147	0.537810
H43	H	0.630714	-0.372173	0.527439
H44	H	0.731562	-0.342900	0.597737
H45	H	0.873744	-0.166546	0.536256
H46	H	0.772853	-0.195794	0.465959
H47	H	0.697236	-0.119902	0.535534
H48	H	0.954693	-0.955406	0.527547
H49	H	0.688669	-1.025996	0.620006
C50	C	1.066658	-0.678444	0.627353
C51	C	1.106632	-0.527652	0.602374
C52	C	1.256046	-0.487403	0.629035
H53	H	1.141841	-0.752236	0.609761
H54	H	1.065704	-0.679609	0.679981
H55	H	1.107598	-0.526499	0.549756
H56	H	1.031489	-0.453826	0.619964
H57	H	1.255091	-0.488568	0.681663
H58	H	1.331216	-0.561205	0.611441
H59	H	1.283181	-0.385082	0.612096
