data_functionalizedCrystal
_audit_creation_method	'MofGen! by Chris Wilmer'
_symmetry_space_group_name_H-M	'P1'
_symmetry_Int_Tables_number	1
_symmetry_cell_setting	triclinic
loop_
_symmetry_equiv_pos_as_xyz
  x,y,z
_cell_length_a	23.532407
_cell_length_b	23.532407
_cell_length_c	8.140239
_cell_angle_alpha	89.991844
_cell_angle_beta	90.002624
_cell_angle_gamma	82.848678
loop_
_atom_site_label
_atom_site_type_symbol
_atom_site_fract_x
_atom_site_fract_y
_atom_site_fract_z
O1	O	0.755258	0.069134	-0.136425
O2	O	0.589395	0.079137	-0.136476
O3	O	0.677328	-0.008796	-0.136419
O4	O	0.667325	0.157067	-0.136482
O5	O	0.677323	-0.008797	0.136808
O6	O	0.589390	0.079136	0.136752
O7	O	0.755253	0.069133	0.136802
Zn8	Zn	0.672321	0.074134	0.180158
Zn9	Zn	0.672327	0.074136	-0.179831
O10	O	0.667320	0.157066	0.136745
C11	C	0.568176	0.078882	0.000132
C12	C	0.504959	0.078116	0.000114
C13	C	0.105856	0.125350	0.000170
C14	C	0.046456	0.124638	0.000181
O15	O	0.009711	0.168424	0.000224
N16	N	0.023830	0.072362	0.000198
C17	C	0.060607	0.020794	0.000221
O18	O	0.035908	-0.023737	0.000239
C19	C	0.120006	0.021506	0.000223
C20	C	0.142629	0.073785	0.000189
C21	C	0.128479	0.177625	0.000138
C22	C	0.187876	0.178336	0.000125
C23	C	0.224649	0.126772	0.000144
C24	C	0.202025	0.074496	0.000176
C25	C	0.156783	-0.030062	0.000258
C26	C	0.216185	-0.029345	0.000261
C27	C	0.238808	0.022934	0.000227
C28	C	0.298194	0.023643	0.000181
N29	N	0.320820	0.075920	0.000164
C30	C	0.284048	0.127484	0.000145
C31	C	-0.064135	0.019302	0.000221
C32	C	-0.123533	0.018589	0.000208
C33	C	-0.137680	0.122434	0.000170
C34	C	-0.078281	0.123146	0.000172
C35	C	-0.041509	0.071578	0.000204
C36	C	0.408784	0.128974	0.000116
C37	C	0.468186	0.129680	0.000095
C38	C	0.482329	0.025836	0.000142
C39	C	0.422932	0.025129	0.000153
C40	C	0.386160	0.076702	0.000146
O41	O	0.334974	-0.020119	0.000145
O42	O	0.308755	0.172007	0.000150
C43	C	0.677071	-0.030013	0.000199
C44	C	0.676305	-0.093230	0.000211
C45	C	0.723539	-0.492333	0.000136
C46	C	0.722827	-0.551733	0.000123
O47	O	0.766613	-0.588478	0.000076
N48	N	0.670551	-0.574359	0.000108
C49	C	0.618983	-0.537582	0.000090
O50	O	0.574452	-0.562281	0.000074
C51	C	0.619695	-0.478182	0.000091
C52	C	0.671974	-0.455560	0.000122
C53	C	0.775814	-0.469710	0.000165
C54	C	0.776525	-0.410313	0.000181
C55	C	0.724961	-0.373540	0.000167
C56	C	0.672685	-0.396164	0.000138
C57	C	0.568127	-0.441406	0.000060
C58	C	0.568844	-0.382004	0.000060
C59	C	0.621123	-0.359381	0.000091
C60	C	0.621832	-0.299995	0.000140
N61	N	0.674109	-0.277368	0.000154
C62	C	0.725673	-0.314141	0.000168
C63	C	0.617491	-0.662324	0.000085
C64	C	0.616778	-0.721722	0.000096
C65	C	0.720623	-0.735869	0.000126
C66	C	0.721335	-0.676470	0.000127
C67	C	0.669767	-0.639698	0.000100
C68	C	0.727163	-0.189405	0.000203
C69	C	0.727869	-0.130003	0.000225
C70	C	0.624025	-0.115860	0.000186
C71	C	0.623318	-0.175257	0.000172
C72	C	0.674891	-0.212029	0.000175
O73	O	0.578070	-0.263215	0.000180
O74	O	0.770196	-0.289433	0.000162
C75	C	0.776472	0.069388	0.000191
C76	C	0.839689	0.070154	0.000198
C77	C	0.667577	0.178283	0.000124
C78	C	0.668343	0.241500	0.000101
N79	N	0.672321	0.074133	0.425840
N80	N	0.672332	0.074132	-0.425514
H81	H	0.206289	0.220908	0.000097
O82	O	0.825960	-0.505345	0.000257
C83	C	0.929034	-0.513088	0.000221
C84	C	0.872281	-0.472671	0.000138
H85	H	0.966499	-0.486688	0.000089
H86	H	0.931337	-0.541244	0.114598
H87	H	0.931277	-0.541259	-0.114092
H88	H	0.870000	-0.444464	0.114373
H89	H	0.870002	-0.444555	-0.114315
O90	O	-0.173351	0.172562	0.000384
C91	C	-0.203653	0.261078	0.141967
C92	C	-0.163213	0.204340	0.141913
H93	H	-0.195479	0.286781	0.256398
H94	H	-0.195466	0.286866	0.027692
H95	H	-0.249986	0.251568	0.141899
H96	H	-0.116866	0.213798	0.142039
H97	H	-0.171450	0.178569	0.256178
O98	O	0.517392	-0.463467	0.000081
C99	C	0.470253	-0.548690	-0.000102
C100	C	0.527754	-0.523785	-0.000075
H101	H	0.478610	-0.597460	-0.000263
H102	H	0.444771	-0.533568	0.114249
H103	H	0.444803	-0.533473	-0.114441
H104	H	0.553250	-0.538990	0.114187
H105	H	0.553192	-0.538904	-0.114502
H106	H	0.526850	-0.352066	0.000035
O107	O	0.092787	0.227734	-0.000178
C108	C	0.062565	0.316287	-0.141747
C109	C	0.103004	0.259549	-0.141593
H110	H	0.070819	0.342030	-0.256051
H111	H	0.016209	0.306845	-0.141854
H112	H	0.070757	0.342008	-0.027366
H113	H	0.094863	0.233800	-0.255954
H114	H	0.149346	0.269031	-0.141401
H115	H	0.769159	-0.219337	0.000199
H116	H	0.574207	-0.740136	0.000098
O117	O	0.572485	-0.197142	0.000075
C118	C	0.469561	-0.176833	0.000118
C119	C	0.527089	-0.151979	0.000216
H120	H	0.432843	-0.140331	0.000266
H121	H	0.466597	-0.204254	-0.114274
H122	H	0.466656	-0.204322	0.114417
H123	H	0.530032	-0.124465	-0.114006
H124	H	0.530028	-0.124591	0.114683
O125	O	0.778707	-0.108123	0.000176
C126	C	0.881630	-0.128435	0.000300
C127	C	0.824101	-0.153287	0.000322
H128	H	0.918347	-0.164938	0.000453
H129	H	0.884602	-0.100992	-0.114064
H130	H	0.884529	-0.100969	0.114626
H131	H	0.821163	-0.180779	-0.113926
H132	H	0.821154	-0.180697	0.114762
O133	O	-0.028440	-0.030810	-0.000065
C134	C	0.001788	-0.119361	-0.141553
C135	C	-0.038656	-0.062626	-0.141453
H136	H	-0.006466	-0.145106	-0.255835
H137	H	0.048142	-0.109915	-0.141663
H138	H	-0.006399	-0.145083	-0.027150
H139	H	-0.030520	-0.036876	-0.255836
H140	H	-0.084996	-0.072113	-0.141257
H141	H	0.582043	-0.085909	0.000181
O142	O	-0.056377	0.173966	-0.000069
C143	C	-0.050283	0.262927	-0.141708
C144	C	-0.075133	0.205397	-0.141623
H145	H	-0.065427	0.288349	-0.256159
H146	H	-0.065471	0.288429	-0.027453
H147	H	-0.001512	0.254573	-0.141619
H148	H	-0.123904	0.213699	-0.141770
H149	H	-0.059900	0.179913	-0.255868
H150	H	0.486602	0.172255	0.000067
H151	H	-0.141947	-0.023982	0.000210
H152	H	0.138375	-0.072634	0.000287
O153	O	0.373151	0.179124	0.000024
C154	C	0.365404	0.282197	0.000051
C155	C	0.405823	0.225446	0.000132
H156	H	0.391803	0.319664	0.000173
H157	H	0.337249	0.284501	-0.114321
H158	H	0.337232	0.284437	0.114369
H159	H	0.434031	0.223168	-0.114109
H160	H	0.433939	0.223166	0.114580
O161	O	0.400887	-0.025619	0.000392
C162	C	0.342080	-0.086709	0.142056
C163	C	0.366990	-0.029210	0.141949
H164	H	0.314680	-0.089636	0.256510
H165	H	0.314580	-0.089651	0.027804
H166	H	0.378580	-0.123429	0.141980
H167	H	0.330527	0.007543	0.142083
H168	H	0.394506	-0.026319	0.256191
H169	H	0.246123	-0.071339	0.000288
H170	H	0.512280	-0.016146	0.000151
O171	O	0.827260	-0.388247	0.000258
C172	C	0.874396	-0.303022	0.000146
C173	C	0.816896	-0.327929	0.000110
H174	H	0.866037	-0.254252	-0.000009
H175	H	0.899870	-0.318157	0.114517
H176	H	0.899854	-0.318224	-0.114174
H177	H	0.791392	-0.312739	0.114352
H178	H	0.791465	-0.312797	-0.114337
O179	O	0.772133	-0.654524	-0.000150
C180	C	0.861124	-0.648478	-0.141631
C181	C	0.803608	-0.673355	-0.141534
H182	H	0.886593	-0.663703	-0.255910
H183	H	0.852816	-0.599705	-0.141745
H184	H	0.886562	-0.663642	-0.027226
H185	H	0.778141	-0.658235	-0.255920
H186	H	0.811957	-0.722126	-0.141335
H187	H	0.762610	-0.765821	0.000131
H188	H	0.575496	-0.632386	0.000077
