data_functionalizedCrystal
_audit_creation_method	'MofGen! by Chris Wilmer'
_symmetry_space_group_name_H-M	'P1'
_symmetry_Int_Tables_number	1
_symmetry_cell_setting	triclinic
loop_
_symmetry_equiv_pos_as_xyz
  x,y,z
_cell_length_a	17.639617
_cell_length_b	21.295417
_cell_length_c	17.640968
_cell_angle_alpha	78.766059
_cell_angle_beta	70.333968
_cell_angle_gamma	101.213894
loop_
_atom_site_label
_atom_site_type_symbol
_atom_site_fract_x
_atom_site_fract_y
_atom_site_fract_z
Zn1	Zn	1.354403	0.083268	-0.721258
Zn2	Zn	1.326407	-0.048705	-0.583393
Zn3	Zn	1.188681	0.029917	-0.555520
Zn4	Zn	1.216497	-0.048643	-0.693275
O5	O	1.271497	0.003959	-0.638362
O6	O	1.466042	0.088064	-0.726346
O7	O	1.284781	-0.060629	-0.464347
O8	O	1.210740	0.125103	-0.577552
O9	O	1.445474	-0.008896	-0.625057
O10	O	1.332494	0.164300	-0.699319
O11	O	1.183594	-0.002865	-0.443869
O12	O	1.077018	-0.002806	-0.550418
O13	O	1.258147	-0.008792	-0.812336
O14	O	1.097454	-0.060524	-0.651626
O15	O	1.359466	0.088123	-0.832894
O16	O	1.311752	-0.136805	-0.597923
O17	O	1.231002	-0.136760	-0.678653
C18	C	1.057327	-0.037448	-0.594961
C19	C	0.965707	-0.055174	-0.576414
C20	C	0.717973	0.138672	-0.779467
C21	C	0.631880	0.121997	-0.762022
C22	C	0.610454	0.021137	-0.656398
C23	C	0.696548	0.037802	-0.673837
C24	C	0.750301	0.096570	-0.735371
C25	C	0.728875	-0.004300	-0.629741
C26	C	0.814961	0.012366	-0.647176
C27	C	0.868720	0.071133	-0.708706
C28	C	0.836387	0.113236	-0.752806
C29	C	0.675120	-0.063066	-0.568203
C30	C	0.707447	-0.105167	-0.524107
C31	C	0.793536	-0.088504	-0.541545
C32	C	0.847294	-0.029738	-0.603075
C33	C	0.825868	-0.130608	-0.497445
C34	C	0.911954	-0.113942	-0.514880
C35	C	0.933380	-0.013072	-0.620510
C36	C	1.271384	-0.159621	-0.638299
C37	C	1.271416	-0.229581	-0.638314
C38	C	1.334791	-0.241979	-0.701750
C39	C	1.334824	-0.307712	-0.701776
C40	C	1.271488	-0.361045	-0.638354
C41	C	1.208102	-0.348642	-0.574913
C42	C	1.208066	-0.282910	-0.574893
N43	N	1.250671	-0.479474	-0.564958
N44	N	1.250711	-0.541915	-0.564980
C45	C	1.271592	-0.559094	-0.638411
N46	N	1.292448	-0.511469	-0.711824
N47	N	1.292413	-0.449022	-0.711801
C48	C	1.271520	-0.432323	-0.638369
C49	C	1.335007	-0.642766	-0.701880
C50	C	1.335034	-0.708501	-0.701906
C51	C	1.208315	-0.749431	-0.575036
C52	C	1.208284	-0.683696	-0.575016
C53	C	1.271634	-0.630367	-0.638438
C54	C	1.486504	0.045528	-0.681932
C55	C	1.578127	0.063242	-0.700499
C56	C	1.315032	0.045624	-0.853360
C57	C	1.333584	0.063379	-0.944979
C58	C	1.271637	0.168186	-0.638447
C59	C	1.271697	0.238170	-0.638484
C60	C	1.130875	-0.130519	-1.192791
C61	C	1.148325	-0.113824	-1.278885
C62	C	1.253819	-0.012915	-1.300281
C63	C	1.236375	-0.029600	-1.214186
C64	C	1.174903	-0.088403	-1.160448
C65	C	1.280403	0.012516	-1.181843
C66	C	1.262964	-0.004169	-1.095757
C67	C	1.201496	-0.062971	-1.042014
C68	C	1.157463	-0.105088	-1.074362
C69	C	1.341879	0.071316	-1.235584
C70	C	1.385907	0.113432	-1.203241
C71	C	1.368464	0.096749	-1.117152
C72	C	1.306996	0.037948	-1.063409
C73	C	1.412496	0.138867	-1.084804
C74	C	1.395057	0.122182	-0.998718
C75	C	1.289556	0.021263	-0.977322
C76	C	1.228179	-0.037488	-0.424209
C77	C	1.209786	-0.055035	-0.332623
H78	H	0.938275	-0.148226	-0.478973
H79	H	1.187301	-0.076557	-0.971918
H80	H	1.386373	-0.198560	-0.753393
H81	H	1.386427	-0.317809	-0.753442
O82	O	0.591469	-0.079341	-0.551135
C83	C	0.550959	-0.140244	-0.487379
H84	H	0.590805	-0.148734	-0.449244
H85	H	0.542270	-0.182833	-0.516853
C86	C	0.415682	-0.127345	-0.476272
C87	C	0.464618	-0.137769	-0.429429
H88	H	0.362421	-0.125820	-0.440527
H89	H	0.442974	-0.086315	-0.519228
H90	H	0.408450	-0.162837	-0.500831
H91	H	0.471858	-0.102273	-0.404880
H92	H	0.437326	-0.178794	-0.386468
H93	H	1.239480	-0.026609	-0.933561
H94	H	1.156741	-0.792854	-0.523400
O95	O	1.396427	-0.590903	-0.763506
C96	C	1.360201	-0.551679	-0.807182
H97	H	1.291854	-0.559608	-0.765398
H98	H	1.363473	-0.566920	-0.866424
C99	C	1.492482	-0.467797	-0.882630
C100	C	1.408538	-0.477531	-0.831307
H101	H	1.522300	-0.422060	-0.897515
H102	H	1.516890	-0.494224	-0.853207
H103	H	1.495197	-0.480503	-0.931992
H104	H	1.405824	-0.464834	-0.781942
H105	H	1.384131	-0.451101	-0.860722
H106	H	1.156532	-0.392070	-0.523275
O107	O	1.146397	-0.270947	-0.513283
C108	C	1.067869	-0.299455	-0.514598
H109	H	1.072573	-0.341367	-0.545947
H110	H	1.048630	-0.259631	-0.551310
C111	C	0.995944	-0.276300	-0.385593
C112	C	1.001721	-0.327780	-0.424090
H113	H	0.955140	-0.293769	-0.329764
H114	H	1.048850	-0.257091	-0.384708
H115	H	0.979915	-0.243117	-0.416195
H116	H	1.017760	-0.360958	-0.393494
H117	H	0.948816	-0.346996	-0.424968
O118	O	1.396686	-0.720428	-0.763572
C119	C	1.452578	-0.659262	-0.819550
H120	H	1.448593	-0.618401	-0.786358
H121	H	1.435020	-0.645988	-0.876006
C122	C	1.547628	-0.715759	-0.890040
C123	C	1.542738	-0.665574	-0.849270
H124	H	1.603243	-0.719652	-0.908376
H125	H	1.509971	-0.756968	-0.852328
H126	H	1.532992	-0.704691	-0.937081
H127	H	1.557364	-0.676646	-0.802224
H128	H	1.580400	-0.624366	-0.886974
O129	O	1.358827	0.087413	-1.319210
C130	C	1.385788	0.036743	-1.352235
H131	H	1.361619	-0.011863	-1.299757
H132	H	1.457277	0.051588	-1.381359
C133	C	1.381003	0.086701	-1.484312
C134	C	1.351311	0.027000	-1.419858
H135	H	1.359740	0.080692	-1.526028
H136	H	1.362842	0.120839	-1.462064
H137	H	1.440575	0.099065	-1.508572
H138	H	1.291740	0.014641	-1.395592
H139	H	1.369462	-0.007141	-1.442104
O140	O	1.146685	-0.671767	-0.513304
C141	C	1.090777	-0.732933	-0.457341
H142	H	1.123995	-0.773785	-0.461373
H143	H	1.034251	-0.746229	-0.474783
C144	C	1.020392	-0.676428	-0.362250
C145	C	1.061193	-0.726602	-0.367197
H146	H	1.002140	-0.672522	-0.306645
H147	H	1.058056	-0.635218	-0.399955
H148	H	0.973292	-0.687514	-0.376790
H149	H	1.108298	-0.715511	-0.352667
H150	H	1.023536	-0.767810	-0.329488
H151	H	1.107387	-0.152960	-1.030600
O152	O	0.655327	-0.162316	-0.464396
C153	C	0.679951	-0.217544	-0.486537
H154	H	0.748874	-0.200644	-0.530879
H155	H	0.640071	-0.239969	-0.519055
C156	C	0.582963	-0.291168	-0.352431
C157	C	0.667618	-0.270411	-0.406888
H158	H	0.575352	-0.323780	-0.303301
H159	H	0.566371	-0.253960	-0.337516
H160	H	0.549739	-0.309850	-0.379540
H161	H	0.700839	-0.251722	-0.379783
H162	H	0.684216	-0.307617	-0.421798
H163	H	1.080799	-0.178391	-1.149030
H164	H	1.112468	-0.148124	-1.305214
H165	H	0.566676	-0.026711	-0.606294
O166	O	1.313419	0.044255	-1.352498
C167	C	1.276612	0.085489	-1.392825
H168	H	1.206438	0.071796	-1.353735
H169	H	1.286976	0.078117	-1.457484
C170	C	1.403391	0.175804	-1.450350
C171	C	1.317202	0.158990	-1.402335
H172	H	1.428430	0.221143	-1.456219
H173	H	1.428190	0.148023	-1.423183
H174	H	1.412016	0.169655	-1.504226
H175	H	1.308578	0.165130	-1.348456
H176	H	1.292402	0.186773	-1.429492
H177	H	1.435960	0.161308	-1.247006
O178	O	0.773746	-0.187753	-0.437730
C179	C	0.798361	-0.242987	-0.459861
H180	H	0.867283	-0.226093	-0.504205
H181	H	0.758476	-0.265413	-0.492374
C182	C	0.701372	-0.316598	-0.325749
C183	C	0.786026	-0.295849	-0.380208
H184	H	0.693759	-0.349208	-0.276615
H185	H	0.684785	-0.279387	-0.310839
H186	H	0.668144	-0.335283	-0.352853
H187	H	0.819250	-0.277158	-0.353107
H188	H	0.802617	-0.333059	-0.395111
H189	H	1.462553	0.186741	-1.128571
H190	H	1.430907	0.156477	-0.972384
H191	H	0.977150	0.034782	-0.670620
H192	H	0.938815	0.084702	-0.722897
H193	H	0.761744	0.186526	-0.829578
O194	O	0.888668	0.170256	-0.812680
C195	C	0.949234	0.154286	-0.875898
H196	H	0.924278	0.100641	-0.875611
H197	H	1.009307	0.159833	-0.863611
C198	C	0.998609	0.267706	-0.962291
C199	C	0.967954	0.201819	-0.961943
H200	H	1.010160	0.297027	-1.015367
H201	H	0.957807	0.278466	-0.919699
H202	H	1.048666	0.272318	-0.952048
H203	H	0.917893	0.197206	-0.972175
H204	H	1.008749	0.191059	-1.004539
H205	H	0.605563	0.156288	-0.797931
