data_functionalizedCrystal
_audit_creation_method	'MofGen! by Chris Wilmer'
_symmetry_space_group_name_H-M	'P1'
_symmetry_Int_Tables_number	1
_symmetry_cell_setting	triclinic
loop_
_symmetry_equiv_pos_as_xyz
  x,y,z
_cell_length_a	10.654583
_cell_length_b	10.654550
_cell_length_c	9.130313
_cell_angle_alpha	90.000110
_cell_angle_beta	90.005937
_cell_angle_gamma	84.491717
loop_
_atom_site_label
_atom_site_type_symbol
_atom_site_fract_x
_atom_site_fract_y
_atom_site_fract_z
O1	O	-1.667810	-0.176592	-0.121989
O2	O	-1.302337	-0.193355	-0.121949
O3	O	-1.493476	-0.002235	-0.121965
O4	O	-1.476670	-0.367712	-0.121974
O5	O	-1.493474	-0.002240	0.121634
O6	O	-1.302334	-0.193360	0.121650
O7	O	-1.667807	-0.176597	0.121610
Cu8	Cu	-1.485071	-0.184979	0.143872
Cu9	Cu	-1.485073	-0.184973	-0.144212
O10	O	-1.476668	-0.367717	0.121625
C11	C	-1.255538	-0.192118	-0.000145
C12	C	-1.116097	-0.188409	-0.000129
C13	C	-1.050565	-0.186682	0.132649
C14	C	-0.919544	-0.183208	0.132632
C15	C	-0.919597	-0.183193	-0.132953
C16	C	-1.050617	-0.186658	-0.132935
C17	C	-1.050533	-0.186696	0.285982
C18	C	-0.919512	-0.183222	0.285966
C19	C	-1.492241	0.044560	-0.000167
C20	C	-1.488549	0.184004	-0.000172
C21	C	-0.714608	-0.177816	-0.000183
C22	C	-0.854056	-0.181469	-0.000164
C23	C	-1.477903	-0.414512	-0.000176
C24	C	-1.481595	-0.553956	-0.000181
N25	N	-1.485078	-0.184983	0.346495
C26	C	-1.601089	0.263476	-0.000179
C27	C	-1.597612	0.394497	-0.000189
C28	C	-1.369046	0.366561	-0.000177
C29	C	-1.372524	0.235543	-0.000178
C30	C	-1.733050	0.279606	-0.000180
C31	C	-1.729573	0.410627	-0.000190
N32	N	-1.485076	-0.184960	-0.346834
C33	C	-1.569736	-0.100384	0.423140
C34	C	-1.569733	-0.100369	0.576477
C35	C	-1.400408	-0.269562	0.576510
C36	C	-1.400407	-0.269570	0.423176
C37	C	-1.667498	-0.002705	0.423122
C38	C	-1.667495	-0.002690	0.576459
H39	H	-0.866267	-0.181767	-0.241078
H40	H	-1.274583	0.408541	-0.000184
O41	O	-1.639109	0.125152	0.367943
H42	H	-1.545135	0.146076	0.408482
H43	H	-1.331460	-0.338446	0.360773
O44	O	-1.795422	0.465965	0.134827
H45	H	-1.746962	0.425295	0.234047
O46	O	-1.251144	0.149820	-0.000191
H47	H	-1.247256	0.089450	0.099088
H48	H	-1.758681	-0.033304	0.375553
H49	H	-1.331471	-0.338430	0.638960
H50	H	-1.636982	0.088536	0.624012
O51	O	-1.795322	-0.031217	0.631592
H52	H	-1.857901	-0.045208	0.536980
H53	H	-1.769455	0.456268	-0.105373
O54	O	-1.801402	0.240702	-0.135223
H55	H	-1.885119	0.193061	-0.102049
H56	H	-1.080107	-0.278295	0.333555
O57	O	-1.121305	-0.188509	-0.276143
H58	H	-1.053756	-0.186720	-0.368488
H59	H	-1.096792	-0.099907	0.344865
H60	H	-0.873226	-0.270016	0.344831
O61	O	-0.880297	-0.061909	0.349012
H62	H	-0.965463	-0.000403	0.382458
O63	O	-1.788729	0.232388	0.139119
H64	H	-1.815439	0.313311	0.212970
