data_functionalizedCrystal
_audit_creation_method	'MofGen! by Chris Wilmer'
_symmetry_space_group_name_H-M	'P1'
_symmetry_Int_Tables_number	1
_symmetry_cell_setting	triclinic
loop_
_symmetry_equiv_pos_as_xyz
  x,y,z
_cell_length_a	27.440280
_cell_length_b	16.704494
_cell_length_c	16.704495
_cell_angle_alpha	54.477050
_cell_angle_beta	85.840603
_cell_angle_gamma	63.425370
loop_
_atom_site_label
_atom_site_type_symbol
_atom_site_fract_x
_atom_site_fract_y
_atom_site_fract_z
Zr1	Zr	0.503610	0.878466	-0.150436
O2	O	0.437072	1.045927	-0.287229
O3	O	0.520114	0.711013	-0.102526
O4	O	0.533130	0.878459	-0.278591
O5	O	0.418217	0.878485	0.020923
O6	O	0.613331	0.878443	-0.278574
O7	O	0.424055	0.878482	-0.111164
O8	O	0.590048	0.578913	0.036374
O9	O	0.441501	1.178014	-0.294026
O10	O	0.591710	0.779874	-0.089299
O11	O	0.527499	0.779888	0.009263
O12	O	0.542824	0.977033	-0.198031
O13	O	0.478614	0.977047	-0.099469
Zr14	Zr	0.622211	0.878446	0.060255
Zr15	Zr	0.631522	0.878441	-0.150408
Zr16	Zr	0.494298	0.878470	0.060228
Zr17	Zr	0.510674	1.089129	-0.161275
Zr18	Zr	0.615147	0.667783	0.071095
O19	O	0.605707	1.045899	0.012346
O20	O	0.618946	1.045892	-0.287190
O21	O	0.423832	1.045934	0.012307
O22	O	0.688749	0.710984	0.197049
O23	O	0.701988	0.710978	-0.102487
O24	O	0.506874	0.711019	0.197010
O25	O	0.707603	0.878427	-0.111103
O26	O	0.592690	0.878453	0.188411
O27	O	0.512489	0.878469	0.188394
O28	O	0.701765	0.878430	0.020984
O29	O	0.543174	1.177995	-0.294004
O30	O	0.582646	0.578917	0.203823
O31	O	0.684319	0.578897	0.203845
O32	O	0.691721	0.578894	0.036396
O33	O	0.434099	1.178018	-0.126577
O34	O	0.535773	1.177998	-0.126555
O35	O	0.582996	0.779878	0.107851
O36	O	0.647206	0.779865	0.009289
O37	O	0.598321	0.977024	-0.099443
O38	O	0.534110	0.977038	-0.000881
C39	C	0.554074	0.614948	-0.031532
C40	C	0.551075	0.525516	-0.026930
C41	C	0.612490	0.357433	-0.121175
C42	C	0.609674	0.273404	-0.116854
C43	C	0.542631	0.273420	-0.013961
C44	C	0.545447	0.357450	-0.018282
C45	C	0.580377	0.399455	-0.071892
C46	C	0.583189	0.483491	-0.076219
C47	C	0.516150	0.483501	0.026680
C48	C	0.513334	0.399471	0.031001
C49	C	0.402912	0.878487	-0.045125
C50	C	0.348609	0.878497	-0.045136
C51	C	0.037424	0.775522	0.011695
C52	C	-0.013595	0.775516	0.011704
O53	O	-0.018282	0.687990	0.060004
N54	N	-0.064629	0.878430	-0.045054
C55	C	-0.064644	0.981357	-0.101816
O56	O	-0.112738	1.068892	-0.150092
C57	C	-0.013626	0.981362	-0.101819
C58	C	0.037408	0.878441	-0.045066
C59	C	0.088456	0.672610	0.068445
C60	C	0.139472	0.672616	0.068434
C61	C	0.139455	0.775535	0.011673
C62	C	0.088424	0.878448	-0.045076
C63	C	-0.013641	1.084288	-0.158575
C64	C	0.037382	1.084284	-0.158572
C65	C	0.088416	0.981363	-0.101819
C66	C	0.139423	0.981374	-0.101848
N67	N	0.190457	0.878460	-0.045090
C68	C	0.190473	0.775540	0.011671
C69	C	-0.171784	0.981338	-0.101805
C70	C	-0.222801	0.981334	-0.101809
C71	C	-0.171748	0.775493	0.011713
C72	C	-0.120730	0.775498	0.011711
C73	C	-0.120749	0.878424	-0.045047
C74	C	0.297608	0.775562	0.011643
C75	C	0.348626	0.775578	0.011624
C76	C	0.297568	0.981419	-0.101893
C77	C	0.246555	0.981404	-0.101879
C78	C	0.246578	0.878466	-0.045103
O79	O	0.144153	1.068854	-0.150119
O80	O	0.238569	0.688019	0.059949
C81	C	0.722909	0.878425	-0.045056
C82	C	0.777211	0.878415	-0.045044
C83	C	0.574557	0.878450	-0.308598
C84	C	0.578510	0.878448	-0.398030
C85	C	0.571746	1.141964	-0.058649
C86	C	0.574745	1.231396	-0.063250
C87	C	0.497555	0.878482	-0.566114
C88	C	0.501267	0.878481	-0.650144
C89	C	0.589643	0.878451	-0.650124
C90	C	0.585932	0.878453	-0.566095
C91	C	0.539886	0.878467	-0.524092
C92	C	0.536177	0.878460	-0.440056
C93	C	0.624551	0.878439	-0.440043
C94	C	0.628263	0.878437	-0.524072
C95	C	0.551263	0.878462	0.218417
C96	C	0.547310	0.878464	0.307849
C97	C	0.714073	0.614917	-0.031497
C98	C	0.765376	0.525475	-0.026884
C99	C	0.542427	0.614954	0.231976
C100	C	0.535475	0.525524	0.326010
C101	C	0.702426	0.614923	0.232011
C102	C	0.749776	0.525482	0.326056
C103	C	0.423395	1.141989	-0.322191
C104	C	0.376044	1.231429	-0.416236
C105	C	0.411747	1.141994	-0.058683
C106	C	0.360444	1.231437	-0.063297
C107	C	0.583393	1.141958	-0.322156
C108	C	0.590345	1.231388	-0.416190
C109	C	0.760500	0.483476	-0.076188
C110	C	0.808702	0.399447	-0.071873
C111	C	0.861777	0.357412	-0.018248
C112	C	0.866652	0.399419	0.031057
C113	C	0.818452	0.483452	0.026736
C114	C	0.561179	0.483522	0.421640
C115	C	0.554645	0.399504	0.510002
C116	C	0.522410	0.357485	0.502732
C117	C	0.496703	0.399495	0.407092
C118	C	0.503234	0.483517	0.318732
C119	C	0.805535	0.483473	0.318772
C120	C	0.850031	0.399446	0.407129
C121	C	0.838767	0.357424	0.502769
C122	C	0.783003	0.399441	0.510051
C123	C	0.738508	0.483473	0.421694
C124	C	0.320286	1.273449	-0.408953
C125	C	0.275791	1.357502	-0.497312
C126	C	0.287055	1.399529	-0.592952
C127	C	0.342819	1.357506	-0.600233
C128	C	0.387313	1.273460	-0.511876
C129	C	0.365321	1.273444	-0.014002
C130	C	0.317121	1.357496	-0.018341
C131	C	0.264046	1.399534	-0.071969
C132	C	0.259171	1.357524	-0.121270
C133	C	0.307370	1.273479	-0.116937
C134	C	0.622583	1.273381	-0.408887
C135	C	0.629126	1.357399	-0.497233
C136	C	0.603427	1.399428	-0.592881
C137	C	0.571187	1.357427	-0.600181
C138	C	0.564648	1.273405	-0.511836
H139	H	0.484897	0.365256	0.074652
H140	H	0.550265	1.391661	-0.678070
H141	H	0.635824	0.239191	-0.156984
H142	H	0.611629	0.517694	-0.119874
H143	H	0.466797	0.878496	-0.684357
H144	H	0.224803	1.467969	-0.075489
C145	C	0.678912	0.878418	-0.570275
C146	C	0.690554	0.976437	-0.612772
C147	C	0.741206	0.976414	-0.658970
C148	C	0.780214	0.878371	-0.662671
C149	C	0.768573	0.780344	-0.620173
C150	C	0.717921	0.780368	-0.573975
H151	H	0.661677	1.049021	-0.610033
H152	H	0.749823	1.048980	-0.690429
H153	H	0.817710	0.878354	-0.696869
H154	H	0.797450	0.707761	-0.622911
H155	H	0.709304	0.707802	-0.542515
H156	H	0.482304	0.517704	0.240869
H157	H	0.655378	1.391587	-0.491270
C158	C	0.529179	1.227227	-0.519880
C159	C	0.521977	1.134809	-0.422717
C160	C	0.486507	1.088635	-0.430769
C161	C	0.458238	1.134879	-0.535984
C162	C	0.465439	1.227303	-0.633155
C163	C	0.500909	1.273477	-0.625102
H164	H	0.542904	1.100571	-0.344823
H165	H	0.481176	1.020217	-0.358836
H166	H	0.431981	1.100699	-0.541945
H167	H	0.444512	1.261541	-0.711048
H168	H	0.506240	1.341895	-0.697035
H169	H	0.432714	1.239248	-0.517817
C170	C	0.355202	1.403738	-0.705443
C171	C	0.331494	1.392195	-0.776763
C172	C	0.343875	1.438426	-0.881976
C173	C	0.379964	1.496199	-0.915868
C174	C	0.403674	1.507744	-0.844546
C175	C	0.391293	1.461514	-0.739333
H176	H	0.304777	1.349426	-0.751676
H177	H	0.326323	1.429879	-0.934773
H178	H	0.389128	1.530421	-0.993753
H179	H	0.430391	1.550513	-0.869634
H180	H	0.408845	1.470061	-0.686536
C181	C	0.423700	1.227220	0.044987
C182	C	0.429053	1.273453	0.099194
C183	C	0.487432	1.227242	0.158180
C184	C	0.540457	1.134798	0.162959
C185	C	0.535106	1.088560	0.108750
C186	C	0.476728	1.134771	0.049764
H187	H	0.389799	1.341891	0.095659
H188	H	0.491392	1.261472	0.198309
H189	H	0.583672	1.100590	0.206623
H190	H	0.574361	1.020123	0.112285
H191	H	0.472767	1.100542	0.009635
H192	H	0.489999	0.517728	0.066805
C193	C	0.702121	0.529710	-0.135187
C194	C	0.696771	0.483506	-0.189425
C195	C	0.638394	0.529739	-0.248434
C196	C	0.585368	0.622175	-0.253203
C197	C	0.590717	0.668383	-0.198963
C198	C	0.649093	0.622150	-0.139955
H199	H	0.736026	0.415075	-0.185896
H200	H	0.634435	0.495532	-0.288586
H201	H	0.542154	0.656399	-0.296885
H202	H	0.551462	0.736814	-0.202492
H203	H	0.653052	0.656357	-0.099802
C204	C	0.914795	0.264967	-0.013493
C205	C	0.951851	0.149413	0.090077
C206	C	1.004865	0.056965	0.094832
C207	C	1.020824	0.080071	-0.003982
C208	C	0.983768	0.195630	-0.107559
C209	C	0.930753	0.288078	-0.112314
H210	H	0.940038	0.132305	0.163232
H211	H	1.032297	-0.028579	0.171507
H212	H	1.060069	0.011635	-0.000462
H213	H	0.995581	0.212739	-0.180714
H214	H	0.903322	0.373622	-0.188989
H215	H	0.321101	1.391687	0.021811
H216	H	0.390179	0.691764	0.057843
H217	H	0.460066	0.878483	-0.531909
C218	C	0.677173	0.529665	0.429717
C219	C	0.664789	0.483425	0.534923
C220	C	0.603454	0.529610	0.542955
C221	C	0.554503	0.622036	0.445780
C222	C	0.566885	0.668281	0.340566
C223	C	0.628220	0.622095	0.332534
H224	H	0.701027	0.415001	0.606865
H225	H	0.594289	0.495376	0.620842
H226	H	0.509099	0.656225	0.451726
H227	H	0.530647	0.736704	0.268624
H228	H	0.637385	0.656329	0.254647
C229	C	0.817935	0.529690	0.213576
C230	C	0.879274	0.483474	0.205585
C231	C	0.891680	0.529690	0.100391
C232	C	0.842747	0.622122	0.003188
C233	C	0.781404	0.668344	0.011176
C234	C	0.768998	0.622128	0.116369
H235	H	0.915501	0.415045	0.277543
H236	H	0.937091	0.495473	0.094479
H237	H	0.851931	0.656334	-0.074682
H238	H	0.745177	0.736773	-0.060783
H239	H	0.723587	0.656345	0.122281
H240	H	0.215950	1.391764	-0.164933
H241	H	0.608756	1.467845	-0.664810
H242	H	-0.171807	1.065158	-0.148029
C243	C	0.911367	0.353233	0.399103
C244	C	0.930568	0.295459	0.348075
C245	C	0.991902	0.249249	0.340045
C246	C	1.034035	0.260813	0.383042
C247	C	1.014835	0.318589	0.434074
C248	C	0.953501	0.364799	0.442104
H249	H	0.899377	0.286897	0.316243
H250	H	1.006114	0.206480	0.302268
H251	H	1.079438	0.226606	0.377098
H252	H	1.046026	0.327152	0.465906
H253	H	0.939289	0.407569	0.479881
C254	C	0.088485	0.559384	0.130890
C255	C	0.119626	0.474484	0.108388
C256	C	0.119663	0.361249	0.170834
C257	C	0.088559	0.332914	0.255782
C258	C	0.057415	0.417815	0.278289
C259	C	0.057378	0.531051	0.215843
H260	H	0.142654	0.495458	0.045501
H261	H	0.142718	0.298399	0.154173
H262	H	0.088586	0.249090	0.302008
H263	H	0.034388	0.396842	0.341176
H264	H	0.034324	0.593900	0.232504
C265	C	0.770620	0.353191	0.615263
C266	C	0.794321	0.364715	0.686607
C267	C	0.781942	0.318450	0.791823
C268	C	0.745862	0.260660	0.825695
C269	C	0.722159	0.249132	0.754350
C270	C	0.734538	0.295398	0.649134
H271	H	0.821032	0.407497	0.661534
H272	H	0.799489	0.326983	0.844637
H273	H	0.736698	0.226411	0.903583
H274	H	0.695448	0.206350	0.779423
H275	H	0.716991	0.286864	0.596319
C276	C	0.925038	0.353162	0.090051
C277	C	0.947718	0.433999	0.059045
C278	C	1.006105	0.387731	0.118045
C279	C	1.041813	0.260626	0.208052
C280	C	1.019134	0.179781	0.239062
C281	C	0.960747	0.226049	0.180062
H282	H	0.921284	0.528097	-0.007587
H283	H	1.022894	0.447579	0.095089
H284	H	1.085035	0.226376	0.251727
H285	H	1.045568	0.085683	0.305694
H286	H	0.943959	0.166201	0.203018
H287	H	0.804721	0.365256	-0.112024
H288	H	0.303391	1.239279	-0.157076
C289	C	0.037360	1.197507	-0.221012
C290	C	0.012344	1.282414	-0.337156
C291	C	0.012321	1.395636	-0.399597
C292	C	0.037314	1.423950	-0.345893
C293	C	0.062332	1.339041	-0.229742
C294	C	0.062355	1.225819	-0.167302
H295	H	-0.006160	1.261456	-0.376917
H296	H	-0.006199	1.458491	-0.485580
H297	H	0.037297	1.507763	-0.392116
H298	H	0.080836	1.359999	-0.189982
H299	H	0.080875	1.162964	-0.081319
H300	H	0.822429	0.517636	0.066892
C301	C	0.307886	1.227238	-0.303757
C302	C	0.246548	1.273485	-0.295768
C303	C	0.234142	1.227286	-0.190575
C304	C	0.283075	1.134841	-0.093371
C305	C	0.344417	1.088589	-0.101357
C306	C	0.356823	1.134787	-0.206550
H307	H	0.210321	1.341923	-0.367727
H308	H	0.188732	1.261525	-0.184664
H309	H	0.273892	1.100642	-0.015501
H310	H	0.380644	1.020151	-0.029398
H311	H	0.402233	1.100548	-0.212461
C312	C	0.214454	1.403705	-0.489285
C313	C	0.195252	1.461440	-0.438223
C314	C	0.133917	1.507638	-0.430194
C315	C	0.091785	1.496101	-0.473226
C316	C	0.110986	1.438364	-0.524292
C317	C	0.172321	1.392166	-0.532321
H318	H	0.226441	1.469983	-0.406365
H319	H	0.119703	1.550379	-0.392391
H320	H	0.046381	1.530299	-0.467282
H321	H	0.079796	1.429821	-0.556150
H322	H	0.186535	1.349424	-0.570124
H323	H	0.587427	0.517724	0.427578
H324	H	0.575581	0.365309	0.587867
C325	C	0.640289	0.878443	-0.696335
C326	C	0.679300	0.780408	-0.700045
C327	C	0.729946	0.780401	-0.746255
C328	C	0.741582	0.878430	-0.788756
C329	C	0.702570	0.976472	-0.785047
C330	C	0.651924	0.976479	-0.738837
H331	H	0.670687	0.707835	-0.668582
H332	H	0.758825	0.707823	-0.749000
H333	H	0.779073	0.878424	-0.822963
H334	H	0.711182	1.049045	-0.816510
H335	H	0.623045	1.049057	-0.736093
H336	H	0.640927	0.391642	-0.164835
H337	H	0.514200	0.239193	0.029699
H338	H	0.297635	0.691741	0.057877
H339	H	0.181022	0.588808	0.114644
H340	H	0.517096	0.289069	0.574688
H341	H	-0.079180	0.691691	0.057933
H342	H	-0.171743	0.691690	0.057928
H343	H	0.250819	1.467964	-0.664890
H344	H	0.643512	1.239173	-0.331014
H345	H	-0.055187	1.168097	-0.204789
H346	H	-0.264350	1.065143	-0.148036
H347	H	0.205001	1.065210	-0.148105
H348	H	0.659021	0.878422	-0.405816
H349	H	0.297565	1.065213	-0.148110
H350	H	0.498686	0.878467	-0.405856
H351	H	0.470458	0.365271	0.401188
H352	H	0.875003	0.289000	0.574707
