data_functionalizedCrystal
_audit_creation_method	'MofGen! by Chris Wilmer'
_symmetry_space_group_name_H-M	'P1'
_symmetry_Int_Tables_number	1
_symmetry_cell_setting	triclinic
loop_
_symmetry_equiv_pos_as_xyz
  x,y,z
_cell_length_a	16.109301
_cell_length_b	16.109301
_cell_length_c	9.130313
_cell_angle_alpha	89.999196
_cell_angle_beta	89.994060
_cell_angle_gamma	83.461481
loop_
_atom_site_label
_atom_site_type_symbol
_atom_site_fract_x
_atom_site_fract_y
_atom_site_fract_z
O1	O	0.106867	1.103131	-0.121711
O2	O	0.606867	1.603131	0.378289
O3	O	0.120166	0.861069	-0.121735
O4	O	0.620166	1.361069	0.378265
O5	O	-0.007514	0.988749	-0.121708
O6	O	0.492486	1.488749	0.378292
O7	O	0.234548	0.975450	-0.121739
O8	O	0.734548	1.475450	0.378261
O9	O	-0.007518	0.988741	0.121891
O10	O	0.492482	1.488741	0.621891
O11	O	0.120163	0.861060	0.121864
O12	O	0.620163	1.361060	0.621864
O13	O	0.106863	1.103122	0.121887
O14	O	0.606863	1.603122	0.621887
Cu15	Cu	0.113513	0.982090	0.144118
Cu16	Cu	0.613513	1.482090	0.644118
Cu17	Cu	0.113517	0.982101	-0.143966
Cu18	Cu	0.613517	1.482101	0.356034
O19	O	0.234544	0.975441	0.121860
O20	O	0.734544	1.475441	0.621860
C21	C	0.119626	0.830090	0.000061
C22	C	0.619626	1.330090	0.500061
C23	C	0.118011	0.737794	0.000053
C24	C	0.618011	1.237794	0.500053
C25	C	-0.038491	0.988206	0.000092
C26	C	0.461509	1.488206	0.500092
C27	C	-0.130786	0.986591	0.000094
C28	C	0.369214	1.486591	0.500094
C29	C	0.190018	0.515522	0.000060
C30	C	0.690018	1.015522	0.500060
C31	C	0.188494	0.428801	0.000070
C32	C	0.688494	0.928801	0.500070
C33	C	0.037006	0.448676	0.000083
C34	C	0.537006	0.948676	0.500083
C35	C	0.038530	0.535394	0.000084
C36	C	0.538530	1.035394	0.500084
C37	C	0.115039	0.568815	0.000065
C38	C	0.615039	1.068815	0.500065
C39	C	0.111990	0.395376	0.000074
C40	C	0.611990	0.895376	0.500074
C41	C	0.110337	0.301350	0.000084
C42	C	0.610337	0.801350	0.500084
C43	C	0.116693	0.662847	0.000058
C44	C	0.616693	1.162847	0.500058
C45	C	-0.353059	1.058599	0.000078
C46	C	0.146941	1.558599	0.500078
C47	C	-0.439779	1.057075	0.000066
C48	C	0.060221	1.557075	0.500066
C49	C	-0.419905	0.905586	0.000057
C50	C	0.080095	1.405586	0.500057
C51	C	-0.333186	0.907111	0.000058
C52	C	0.166814	1.407111	0.500058
C53	C	-0.299766	0.983620	0.000077
C54	C	0.200234	1.483620	0.500077
C55	C	-0.473205	0.980571	0.000063
C56	C	0.026795	1.480571	0.500063
C57	C	-0.567231	0.978918	0.000050
C58	C	-0.067231	1.478918	0.500050
C59	C	-0.205734	0.985273	0.000087
C60	C	0.294266	1.485273	0.500087
C61	C	0.265521	0.975984	0.000057
C62	C	0.765521	1.475984	0.500057
C63	C	0.357816	0.977600	0.000045
C64	C	0.857816	1.477600	0.500045
C65	C	0.107404	1.134101	0.000088
C66	C	0.607404	1.634101	0.500088
C67	C	0.109019	1.226397	0.000087
C68	C	0.609019	1.726397	0.500087
N69	N	0.113509	0.982089	0.346741
N70	N	0.613509	1.482089	0.846741
N71	N	0.113514	0.982108	-0.346588
N72	N	0.613514	1.482108	0.153412
C73	C	0.056996	1.038645	0.423405
C74	C	0.556996	1.538645	0.923405
C75	C	0.056996	1.038653	0.576742
C76	C	0.556996	1.538653	1.076742
C77	C	0.170030	0.925546	0.576737
C78	C	0.670030	1.425546	1.076737
C79	C	0.170025	0.925535	0.423403
C80	C	0.670025	1.425535	0.923403
H81	H	0.252317	0.542730	0.000056
H82	H	0.752317	1.042730	0.500056
O83	O	0.224964	0.870709	0.348763
O84	O	0.724964	1.370709	0.848763
C85	C	0.276281	0.915210	0.260069
C86	C	0.776281	1.415210	0.760069
H87	H	0.243187	0.980274	0.237094
H88	H	0.743187	1.480274	0.737094
H89	H	0.289418	0.880499	0.152247
H90	H	0.789418	1.380499	0.652247
H91	H	0.337733	0.920842	0.319141
H92	H	0.837733	1.420842	0.819141
O93	O	-0.452233	0.831197	-0.000016
O94	O	0.047767	1.331197	0.499984
C95	C	-0.386596	0.765345	0.000015
C96	C	0.113404	1.265345	0.500015
H97	H	-0.327691	0.788638	-0.046101
H98	H	0.172309	1.288638	0.453899
H99	H	-0.404698	0.711932	-0.070712
H100	H	0.095302	1.211932	0.429288
H101	H	-0.374325	0.742215	0.116880
H102	H	0.125675	1.242215	0.616880
O103	O	0.002214	1.093628	0.651374
O104	O	0.502214	1.593628	1.151374
C105	C	0.046760	1.144919	0.740020
C106	C	0.546760	1.644919	1.240020
H107	H	0.111807	1.111784	0.762985
H108	H	0.611807	1.611784	1.262985
H109	H	0.012062	1.158091	0.847849
H110	H	0.512062	1.658091	1.347849
H111	H	0.052432	1.206356	0.680910
H112	H	0.552432	1.706356	1.180910
O113	O	-0.034386	0.587051	0.000022
O114	O	0.465614	1.087051	0.500022
C115	C	-0.102241	0.538960	0.000063
C116	C	0.397759	1.038960	0.500063
H117	H	-0.081126	0.474231	-0.046061
H118	H	0.418874	0.974231	0.453939
H119	H	-0.154772	0.570970	-0.070654
H120	H	0.345228	1.070970	0.429346
H121	H	-0.125696	0.532792	0.116931
H122	H	0.374304	1.032792	0.616931
O123	O	-0.281377	0.834294	-0.000202
O124	O	0.218623	1.334294	0.499798
C125	C	-0.230601	0.830659	-0.126348
C126	C	0.269399	1.330659	0.373652
H127	H	-0.262372	0.873183	-0.214523
H128	H	0.237628	1.373183	0.285477
H129	H	-0.220824	0.763687	-0.168703
H130	H	0.279176	1.263687	0.331297
H131	H	-0.167551	0.852166	-0.097825
H132	H	0.332449	1.352166	0.402175
H133	H	-0.325851	1.120897	0.000090
H134	H	0.174149	1.620897	0.500090
O135	O	0.261406	0.377151	-0.000005
O136	O	0.761406	0.877151	0.499995
C137	C	0.329257	0.425249	0.000018
C138	C	0.829257	0.925249	0.500018
H139	H	0.308138	0.489977	-0.046101
H140	H	0.808138	0.989977	0.453899
H141	H	0.381792	0.393244	-0.070710
H142	H	0.881792	0.893244	0.429290
H143	H	0.352706	0.431419	0.116881
H144	H	0.852706	0.931419	0.616881
O145	O	-0.037239	0.416071	0.000025
O146	O	0.462761	0.916071	0.500025
C147	C	-0.022509	0.328102	0.000056
C148	C	0.477491	0.828102	0.500056
H149	H	0.042379	0.307719	-0.046067
H150	H	0.542379	0.807719	0.453933
H151	H	-0.071459	0.301493	-0.070666
H152	H	0.428541	0.801493	0.429334
H153	H	-0.026537	0.303962	0.116921
H154	H	0.473463	0.803962	0.616921
H155	H	-0.483168	1.118130	0.000064
H156	H	0.016832	1.618130	0.500064
H157	H	0.010976	1.084693	0.360990
H158	H	0.510976	1.584693	0.860990
H159	H	0.216045	0.879502	0.639170
H160	H	0.716045	1.379502	1.139170
