data_functionalizedCrystal
_audit_creation_method	'MofGen! by Chris Wilmer'
_symmetry_space_group_name_H-M	'P1'
_symmetry_Int_Tables_number	1
_symmetry_cell_setting	triclinic
loop_
_symmetry_equiv_pos_as_xyz
  x,y,z
_cell_length_a	15.995350
_cell_length_b	15.995350
_cell_length_c	14.472310
_cell_angle_alpha	90.001162
_cell_angle_beta	89.990621
_cell_angle_gamma	83.492375
loop_
_atom_site_label
_atom_site_type_symbol
_atom_site_fract_x
_atom_site_fract_y
_atom_site_fract_z
O1	O	1.110997	0.107921	-0.076758
O2	O	1.610997	0.607921	0.423242
O3	O	0.867221	0.121248	-0.076776
O4	O	1.367221	0.621248	0.423224
O5	O	0.995773	-0.007303	-0.076766
O6	O	1.495773	0.492697	0.423234
O7	O	0.982445	0.236472	-0.076769
O8	O	1.482445	0.736472	0.423231
O9	O	0.995740	-0.007296	0.076916
O10	O	1.495740	0.492704	0.576916
O11	O	0.867188	0.121256	0.076906
O12	O	1.367188	0.621256	0.576906
O13	O	1.110963	0.107928	0.076924
O14	O	1.610963	0.607928	0.576924
Cu15	Cu	0.989073	0.114593	0.090947
Cu16	Cu	1.489073	0.614593	0.590947
Cu17	Cu	0.989112	0.114584	-0.090800
Cu18	Cu	1.489112	0.614584	0.409200
O19	O	0.982412	0.236480	0.076913
O20	O	1.482412	0.736480	0.576913
C21	C	0.836010	0.120701	0.000062
C22	C	1.336010	0.620701	0.500062
C23	C	0.743060	0.119049	0.000055
C24	C	1.243060	0.619049	0.500055
C25	C	0.405312	0.113117	0.000074
C26	C	0.905312	0.613117	0.500074
C27	C	0.452746	0.021565	0.000418
C28	C	0.952746	0.521565	0.500418
C29	C	0.549436	0.023217	0.000065
C30	C	1.049436	0.523217	0.500065
C31	C	0.572873	0.116060	0.000065
C32	C	1.072873	0.616060	0.500065
C33	C	0.531804	0.161212	-0.087692
C34	C	1.031804	0.661212	0.412308
C35	C	0.435169	0.158912	-0.087759
C36	C	0.935169	0.658912	0.412241
C37	C	0.434792	0.160812	0.087007
C38	C	0.934792	0.660812	0.587007
C39	C	0.531737	0.160790	0.088160
C40	C	1.031737	0.660790	0.588160
C41	C	0.667570	0.117727	0.000057
C42	C	1.167570	0.617727	0.500057
C43	C	0.310614	0.111452	0.000076
C44	C	0.810614	0.611452	0.500076
C45	C	0.995205	-0.038494	0.000073
C46	C	1.495205	0.461506	0.500073
C47	C	0.993553	-0.131444	0.000068
C48	C	1.493553	0.368556	0.500068
C49	C	0.987621	-0.469192	0.000071
C50	C	1.487621	0.030808	0.500071
C51	C	0.896069	-0.421758	-0.000281
C52	C	1.396069	0.078242	0.499719
C53	C	0.897721	-0.325068	0.000066
C54	C	1.397721	0.174932	0.500066
C55	C	0.990564	-0.301631	0.000069
C56	C	1.490564	0.198369	0.500069
C57	C	1.035701	-0.342705	0.087831
C58	C	1.535701	0.157295	0.587831
C59	C	1.033401	-0.439340	0.087904
C60	C	1.533401	0.060660	0.587904
C61	C	1.035330	-0.439707	-0.086861
C62	C	1.535330	0.060293	0.413139
C63	C	1.035309	-0.342762	-0.088021
C64	C	1.535309	0.157238	0.411979
C65	C	0.992231	-0.206934	0.000071
C66	C	1.492231	0.293066	0.500071
C67	C	0.985956	-0.563890	0.000075
C68	C	1.485956	-0.063890	0.500075
C69	C	1.142175	0.108476	0.000083
C70	C	1.642175	0.608476	0.500083
C71	C	1.235125	0.110127	0.000084
C72	C	1.735125	0.610127	0.500084
C73	C	0.982980	0.267671	0.000072
C74	C	1.482980	0.767671	0.500072
C75	C	0.984631	0.360621	0.000071
C76	C	1.484631	0.860621	0.500071
N77	N	0.989051	0.114598	0.218778
N78	N	1.489051	0.614598	0.718778
N79	N	0.989140	0.114572	-0.218631
N80	N	1.489140	0.614572	0.281369
C81	C	0.989111	0.114581	0.592869
C82	C	1.489111	0.614581	1.092869
C83	C	0.920095	0.183135	0.553698
C84	C	1.420095	0.683135	1.053698
C85	C	0.920254	0.183385	0.446610
C86	C	1.420254	0.683385	0.946610
C87	C	0.989081	0.114590	0.407278
C88	C	1.489081	0.614590	0.907278
C89	C	1.076445	0.133671	0.446122
C90	C	1.576445	0.633671	0.946122
C91	C	1.076057	0.134159	0.553243
C92	C	1.576057	0.634159	1.053243
C93	C	0.971542	0.026741	0.553398
C94	C	1.471542	0.526741	1.053398
C95	C	0.969538	0.027327	0.446270
C96	C	1.469538	0.527327	0.946270
C97	C	0.989069	0.114593	0.302390
C98	C	1.489069	0.614593	0.802390
C99	C	0.989128	0.114579	0.697757
C100	C	1.489128	0.614579	1.197757
H101	H	0.577308	-0.012521	-0.062951
H102	H	1.077308	0.487479	0.437049
O103	O	0.567898	0.117123	0.174156
O104	O	1.067898	0.617123	0.674156
H105	H	0.516561	0.093108	0.214374
H106	H	1.016561	0.593108	0.714374
H107	H	0.859626	-0.441349	0.062299
H108	H	1.359626	0.058651	0.562299
O109	O	1.038163	-0.040848	0.587020
O110	O	1.538163	0.459152	1.087020
H111	H	1.025314	-0.102669	0.558880
H112	H	1.525314	0.397331	1.058880
H113	H	0.416874	0.125979	-0.153359
H114	H	0.916874	0.625979	0.346641
H115	H	0.931473	0.248569	0.420976
H116	H	1.431473	0.748569	0.920976
H117	H	1.129018	0.086196	0.579154
H118	H	1.629018	0.586196	1.079154
H119	H	0.577852	-0.012275	0.062973
H120	H	1.077852	0.487725	0.562973
H121	H	0.547101	0.228494	0.093461
H122	H	1.047101	0.728494	0.593461
H123	H	0.859490	-0.440293	-0.063217
H124	H	1.359490	0.059707	0.436783
H125	H	0.909219	0.008392	0.580461
H126	H	1.409219	0.508392	1.080461
H127	H	1.002307	-0.315516	-0.152945
H128	H	1.502307	0.184484	0.347055
O129	O	0.426810	-0.026699	-0.082478
O130	O	0.926810	0.473301	0.417522
H131	H	0.398132	-0.082994	-0.058828
H132	H	0.898132	0.417006	0.441172
O133	O	0.428195	-0.026913	0.083779
O134	O	0.928195	0.473087	0.583779
H135	H	0.381918	0.013721	0.125855
H136	H	0.881918	0.513721	0.625855
O137	O	0.850388	-0.288144	0.083543
O138	O	1.350388	0.211856	0.583543
H139	H	0.826234	-0.339360	0.123827
H140	H	1.326234	0.160640	0.623827
O141	O	0.392438	0.247939	-0.093045
O142	O	0.892438	0.747939	0.406955
H143	H	0.411865	0.278025	-0.157495
H144	H	0.911865	0.778025	0.342505
H145	H	1.016541	-0.026079	0.419500
H146	H	1.516541	0.473921	0.919500
H147	H	1.000459	-0.457639	0.153505
H148	H	1.500459	0.042361	0.653505
O149	O	1.146108	0.069297	0.412378
O150	O	1.646108	0.569297	0.912378
H151	H	1.119136	0.022912	0.367452
H152	H	1.619136	0.522912	0.867452
H153	H	0.905272	0.012845	0.420883
H154	H	1.405272	0.512845	0.920883
H155	H	0.545930	0.229421	-0.090955
H156	H	1.045930	0.729421	0.409045
O157	O	0.850720	-0.287411	-0.083262
O158	O	1.350720	0.212589	0.416738
H159	H	0.797195	-0.241983	-0.060124
H160	H	1.297195	0.258017	0.439876
O161	O	0.569391	0.119659	-0.174208
O162	O	1.069391	0.619659	0.325792
H163	H	0.638188	0.123782	-0.175218
H164	H	1.138188	0.623782	0.324782
O165	O	0.407590	0.121159	0.175118
O166	O	0.907590	0.621159	0.675118
H167	H	0.337947	0.123949	0.176384
H168	H	0.837947	0.623949	0.676384
H169	H	1.091540	0.198219	0.578220
H170	H	1.591540	0.698219	1.078220
H171	H	0.403031	0.228313	0.087600
H172	H	0.903031	0.728313	0.587600
O173	O	1.122429	-0.482067	0.093204
O174	O	1.622429	0.017933	0.593204
H175	H	1.166933	-0.433679	0.095711
H176	H	1.666933	0.066321	0.595711
H177	H	0.931159	0.247952	0.580608
H178	H	1.431159	0.747952	1.080608
O179	O	0.833795	0.168336	0.587864
O180	O	1.333795	0.668336	1.087864
H181	H	0.819320	0.105360	0.564867
H182	H	1.319320	0.605360	1.064867
H183	H	1.103014	-0.327400	-0.093317
H184	H	1.603014	0.172600	0.406683
O185	O	0.834232	0.168344	0.411812
O186	O	1.334232	0.668344	0.911812
H187	H	0.792142	0.160828	0.471497
H188	H	1.292142	0.660828	0.971497
O189	O	1.126049	-0.323990	0.092176
O190	O	1.626049	0.176010	0.592176
H191	H	1.139770	-0.285119	0.031687
H192	H	1.639770	0.214881	0.531687
H193	H	1.004324	-0.314320	0.153137
H194	H	1.504324	0.185680	0.653137
H195	H	1.005412	-0.460250	-0.153379
H196	H	1.505412	0.039750	0.346621
O197	O	1.124741	-0.481780	-0.087655
O198	O	1.624741	0.018220	0.412345
H199	H	1.135190	-0.523493	-0.026471
H200	H	1.635190	-0.023493	0.473529
O201	O	1.097448	0.217564	0.410593
O202	O	1.597448	0.717564	0.910593
H203	H	1.045804	0.245797	0.365281
H204	H	1.545804	0.745797	0.865281
