data_functionalizedCrystal
_audit_creation_method	'MofGen! by Chris Wilmer'
_symmetry_space_group_name_H-M	'P1'
_symmetry_Int_Tables_number	1
_symmetry_cell_setting	triclinic
loop_
_symmetry_equiv_pos_as_xyz
  x,y,z
_cell_length_a	19.121424
_cell_length_b	10.686285
_cell_length_c	10.685880
_cell_angle_alpha	89.638885
_cell_angle_beta	92.152090
_cell_angle_gamma	91.742748
loop_
_atom_site_label
_atom_site_type_symbol
_atom_site_fract_x
_atom_site_fract_y
_atom_site_fract_z
Zn1	Zn	1.118826	0.461881	0.592673
Zn2	Zn	1.117410	0.655735	0.366945
Zn3	Zn	0.992555	0.456235	0.391766
Zn4	Zn	1.010354	0.680495	0.584165
O5	O	1.059786	0.563587	0.483887
O6	O	1.216287	0.479597	0.555903
O7	O	1.092805	0.616546	0.195249
O8	O	1.002449	0.282002	0.432365
O9	O	1.215246	0.622021	0.390061
O10	O	1.095220	0.286150	0.579971
O11	O	1.001075	0.469974	0.213486
O12	O	0.897267	0.493983	0.424115
O13	O	1.032785	0.664221	0.760282
O14	O	0.910344	0.658746	0.565470
O15	O	1.112479	0.503606	0.766533
O16	O	1.110065	0.834001	0.381811
O17	O	1.031411	0.852193	0.541402
C18	C	0.878487	0.578440	0.496564
C19	C	0.800928	0.584826	0.502014
C20	C	0.362620	0.625222	0.536626
C21	C	0.435494	0.619229	0.531481
C22	C	0.465100	0.530330	0.455456
C23	C	0.421829	0.447428	0.384561
C24	C	0.348956	0.453427	0.389700
C25	C	0.684785	0.507923	0.436258
C26	C	0.757663	0.501927	0.431127
C27	C	0.771323	0.673731	0.578046
C28	C	0.698449	0.679718	0.583184
C29	C	0.655184	0.596819	0.512285
C30	C	0.539588	0.524200	0.450198
C31	C	0.580697	0.602957	0.517536
C32	C	1.072536	0.888468	0.458016
C33	C	1.078056	1.027452	0.446985
C34	C	1.074776	0.587305	0.810048
C35	C	1.081163	0.597412	0.949039
C36	C	1.241794	0.548677	0.471162
C37	C	1.319354	0.542323	0.465740
C38	C	1.047007	0.237437	0.509886
C39	C	1.041561	0.098451	0.520965
C40	C	1.044892	0.539867	0.159000
C41	C	1.038625	0.529397	0.020029
H42	H	0.338521	0.697606	0.598542
H43	H	0.445940	0.375050	0.322653
H44	H	0.997315	0.463436	0.974475
O45	O	0.669806	0.766204	0.657038
C46	C	0.723621	0.838077	0.718518
H47	H	0.773372	0.834306	0.663302
H48	H	0.707048	0.939313	0.725301
H49	H	0.733958	0.798733	0.816664
O50	O	0.999356	1.044075	0.606737
C51	C	1.039794	0.971033	0.690699
H52	H	1.096651	1.006450	0.691572
H53	H	1.018872	0.978496	0.788791
H54	H	1.036558	0.869091	0.659632
O55	O	1.120473	1.081819	0.361530
C56	C	1.171733	1.158772	0.423748
H57	H	1.178944	1.126114	0.525050
H58	H	1.223452	1.152590	0.374767
H59	H	1.154253	1.259836	0.421738
O60	O	0.477421	0.699813	0.600464
C61	C	0.435663	0.779578	0.668649
H62	H	0.381910	0.732960	0.680808
H63	H	0.461796	0.798502	0.764589
H64	H	0.429518	0.871771	0.615690
O65	O	0.813424	0.754084	0.646975
C66	C	0.856505	0.685440	0.730572
H67	H	0.861669	0.586513	0.693416
H68	H	0.910520	0.733396	0.739570
H69	H	0.832164	0.680904	0.826325
H70	H	1.122474	0.663383	0.994598
H71	H	0.649567	0.440426	0.378521
O72	O	0.786393	0.415705	0.357072
C73	C	0.763891	0.435235	0.231496
H74	H	0.747477	0.536294	0.218489
H75	H	0.808544	0.415955	0.167228
H76	H	0.717459	0.369249	0.207226
O77	O	0.306998	0.372939	0.320658
C78	C	0.320107	0.389562	0.192566
H79	H	0.374783	0.433075	0.182340
H80	H	0.316470	0.294958	0.143664
H81	H	0.279670	0.454090	0.148118
O82	O	0.551907	0.689140	0.591537
C83	C	0.510679	0.627412	0.681018
H84	H	0.529140	0.527710	0.695196
H85	H	0.516064	0.679841	0.773625
H86	H	0.453497	0.624770	0.646594
H87	H	0.563702	0.451817	0.388300
