data_functionalizedCrystal
_audit_creation_method	'MofGen! by Chris Wilmer'
_symmetry_space_group_name_H-M	'P1'
_symmetry_Int_Tables_number	1
_symmetry_cell_setting	triclinic
loop_
_symmetry_equiv_pos_as_xyz
  x,y,z
_cell_length_a	10.723024
_cell_length_b	13.101039
_cell_length_c	10.723024
_cell_angle_alpha	86.604576
_cell_angle_beta	84.467869
_cell_angle_gamma	93.389393
loop_
_atom_site_label
_atom_site_type_symbol
_atom_site_fract_x
_atom_site_fract_y
_atom_site_fract_z
O1	O	1.663994	0.085205	0.168199
O2	O	2.163994	0.585205	0.668199
O3	O	1.300842	0.085208	0.184952
O4	O	1.800842	0.585208	0.684952
O5	O	1.490794	0.085203	-0.005000
O6	O	1.990794	0.585203	0.495000
O7	O	1.474041	0.085211	0.358152
O8	O	1.974041	0.585211	0.858152
O9	O	1.477165	-0.085226	0.008651
O10	O	1.977165	0.414774	0.508651
O11	O	1.287213	-0.085221	0.198604
O12	O	1.787213	0.414779	0.698604
O13	O	1.650365	-0.085224	0.181851
O14	O	2.150365	0.414776	0.681851
Zn15	Zn	1.466625	-0.112282	0.192395
Zn16	Zn	1.966625	0.387718	0.692395
Zn17	Zn	1.484582	0.112266	0.174408
Zn18	Zn	1.984582	0.612266	0.674408
O19	O	1.460413	-0.085219	0.371803
O20	O	1.960413	0.414781	0.871803
C21	C	1.247528	-0.000006	0.190559
C22	C	1.747528	0.499994	0.690559
C23	C	1.108974	-0.000005	0.186911
C24	C	1.608974	0.499995	0.686911
C25	C	1.033991	-0.000002	0.293198
C26	C	1.533991	0.499998	0.793198
C27	C	0.890788	-0.000000	0.289431
C28	C	1.390788	0.500000	0.789431
N29	N	1.454380	-0.265530	0.204669
N30	N	1.954380	0.234470	0.704669
C31	C	1.437719	-0.474572	0.221381
C32	C	1.937719	0.025428	0.721381
C33	C	1.513494	-0.525450	0.145416
C34	C	2.013494	-0.025450	0.645416
C35	C	1.504223	-0.641768	0.154715
C36	C	2.004223	-0.141768	0.654715
C37	C	1.446988	-0.358244	0.212084
C38	C	1.946988	0.141756	0.712084
C39	C	1.703679	-0.000008	0.176244
C40	C	2.203679	0.499992	0.676244
C41	C	1.842234	-0.000002	0.179891
C42	C	2.342234	0.499998	0.679891
C43	C	1.482761	-0.000011	-0.044674
C44	C	1.982761	0.499989	0.455326
C45	C	1.479113	-0.000007	-0.183229
C46	C	1.979113	0.499993	0.316771
N47	N	1.496837	0.265514	0.162124
N48	N	1.996837	0.765514	0.662124
C49	C	1.585401	-0.000006	-0.258211
C50	C	2.085401	0.499994	0.241789
C51	C	1.581634	-0.000003	-0.401415
C52	C	2.081634	0.499997	0.098585
C53	C	1.468446	-0.000003	0.411477
C54	C	1.968446	0.499997	0.911477
C55	C	1.472094	0.000000	0.550031
C56	C	1.972094	0.500000	1.050031
H57	H	1.075813	-0.000006	0.386985
H58	H	1.575813	0.499994	0.886985
Br59	Br	0.783405	0.000016	0.441097
Br60	Br	1.283405	0.500016	0.941097
H61	H	1.067153	0.000020	0.093123
H62	H	1.567153	0.500020	0.593123
Br63	Br	1.322789	0.000009	-0.252922
Br64	Br	1.822789	0.500009	0.247078
H65	H	0.906659	0.000002	0.088895
H66	H	1.406659	0.500002	0.588895
H67	H	1.585329	-0.481650	0.073398
H68	H	2.085329	0.018350	0.573398
Br69	Br	1.317996	-0.547569	0.341414
Br70	Br	1.817996	-0.047569	0.841414
H71	H	1.679186	-0.000014	-0.216389
H72	H	2.179186	0.499986	0.283611
H73	H	1.672624	-0.000007	-0.465847
H74	H	2.172624	0.499993	0.034153
H75	H	1.381098	-0.000007	-0.385543
H76	H	1.881098	0.499993	0.114457
