data_functionalizedCrystal
_audit_creation_method	'MofGen! by Chris Wilmer'
_symmetry_space_group_name_H-M	'P1'
_symmetry_Int_Tables_number	1
_symmetry_cell_setting	triclinic
loop_
_symmetry_equiv_pos_as_xyz
  x,y,z
_cell_length_a	27.732046
_cell_length_b	15.021413
_cell_length_c	15.944551
_cell_angle_alpha	89.996935
_cell_angle_beta	96.929642
_cell_angle_gamma	89.998829
loop_
_atom_site_label
_atom_site_type_symbol
_atom_site_fract_x
_atom_site_fract_y
_atom_site_fract_z
O1	O	-0.641363	0.073907	0.099927
O2	O	-0.500635	0.073937	0.115125
O3	O	-0.574842	0.073914	-0.014799
O4	O	-0.567156	0.073931	0.229851
O5	O	-0.574830	-0.074151	-0.014781
O6	O	-0.500624	-0.074127	0.115143
O7	O	-0.641351	-0.074157	0.099945
Zn8	Zn	-0.570986	-0.097650	0.107547
Zn9	Zn	-0.571001	0.097431	0.107523
O10	O	-0.567145	-0.074133	0.229869
C11	C	-0.482621	-0.000091	0.114815
C12	C	-0.428962	-0.000080	0.113855
N13	N	-0.570979	-0.230788	0.107563
C14	C	-0.574517	-0.000119	-0.046080
C15	C	-0.573561	-0.000119	-0.139313
C16	C	-0.090453	-0.000107	0.184588
C17	C	0.111222	-0.000112	0.181026
O18	O	0.142198	-0.000145	0.245703
N19	N	0.130680	-0.000115	0.103987
C20	C	0.099715	-0.000124	0.027833
O21	O	0.120892	-0.000136	-0.037775
C22	C	-0.101960	-0.000125	0.031396
C23	C	-0.121414	-0.000113	0.108440
C24	C	-0.109908	-0.000096	0.261625
C25	C	-0.160324	-0.000090	0.262515
C26	C	-0.191285	-0.000095	0.186367
C27	C	-0.171830	-0.000107	0.109329
C28	C	-0.132923	-0.000140	-0.044757
C29	C	-0.183345	-0.000143	-0.043860
C30	C	-0.202799	-0.000130	0.033184
C31	C	-0.253207	-0.000107	0.034071
N32	N	-0.272664	-0.000103	0.111110
C33	C	-0.241703	-0.000097	0.187258
C34	C	0.205597	-0.000121	0.025968
C35	C	0.256015	-0.000119	0.025077
C36	C	0.267519	-0.000108	0.178270
C37	C	0.217100	-0.000104	0.179160
C38	C	0.186140	-0.000117	0.103007
C39	C	-0.347580	-0.000084	0.189120
C40	C	-0.398001	-0.000074	0.190003
C41	C	-0.409501	-0.000089	0.036811
C42	C	-0.359084	-0.000094	0.035927
C43	C	-0.328125	-0.000095	0.112089
O44	O	-0.284211	-0.000083	-0.030571
O45	O	-0.262890	-0.000105	0.252856
C46	C	-0.040037	-0.000113	0.183698
C47	C	-0.020582	-0.000125	0.106660
C48	C	-0.051543	-0.000130	0.030512
C49	C	0.029836	-0.000123	0.105770
C50	C	0.060797	-0.000117	0.181918
C51	C	0.041339	-0.000114	0.258957
C52	C	-0.009076	-0.000108	0.259846
C53	C	-0.032086	-0.000134	-0.046527
C54	C	0.018331	-0.000139	-0.047410
C55	C	0.049291	-0.000133	0.028738
C56	C	0.340635	-0.000122	0.100257
C57	C	0.286976	-0.000113	0.101225
C58	C	-0.536660	-0.470460	0.167612
C59	C	-0.580337	-0.529803	0.183348
C60	C	-0.570991	-0.412395	0.107542
C61	C	-0.527325	-0.529794	0.091825
C62	C	-0.570999	-0.587819	0.107524
C63	C	-0.614690	-0.470431	0.123315
C64	C	-0.561650	-0.470417	0.031760
C65	C	-0.605358	-0.529733	0.047463
C66	C	-0.570986	-0.311337	0.107555
C67	C	-0.571009	-0.688874	0.107510
N68	N	-0.571012	0.230568	0.107500
C69	C	-0.525277	-0.000097	-0.353538
C70	C	-0.547693	-0.073106	-0.414840
C71	C	-0.571830	-0.000112	-0.310017
C72	C	-0.547715	0.072874	-0.414842
C73	C	-0.570155	-0.000101	-0.474907
C74	C	-0.594258	-0.073181	-0.370090
C75	C	-0.594274	0.072864	-0.370086
C76	C	-0.616724	-0.000163	-0.431370
C77	C	-0.572794	-0.000119	-0.215027
C78	C	-0.569195	-0.000100	-0.569896
C79	C	-0.567470	-0.000099	0.261150
C80	C	-0.568426	-0.000093	0.354383
H81	H	-0.413838	-0.000064	0.252744
H82	H	-0.634426	-0.555594	-0.003348
Br83	Br	-0.676259	-0.427159	0.145581
H84	H	-0.553728	-0.444312	-0.032298
H85	H	-0.322379	-0.000087	0.251139
H86	H	-0.490395	-0.555872	0.078541
H87	H	-0.486636	-0.000161	-0.319725
H88	H	-0.527998	-0.134821	-0.434683
H89	H	-0.613927	-0.134973	-0.350349
H90	H	-0.655398	-0.000213	-0.465035
H91	H	-0.613952	0.134583	-0.350220
Br92	Br	0.044726	-0.000141	-0.151980
H93	H	-0.528024	0.134602	-0.434668
Br94	Br	-0.186718	-0.000077	0.367080
H95	H	0.201264	-0.000099	0.241896
Br96	Br	-0.067898	-0.000088	0.364984
H97	H	0.292736	-0.000104	0.240273
H98	H	0.180393	-0.000131	-0.036049
Br99	Br	0.282411	-0.000109	-0.079487
Br100	Br	-0.106534	-0.000138	-0.149324
H101	H	-0.343244	-0.000091	-0.026808
Br102	Br	-0.225360	-0.000165	-0.147217
H103	H	-0.434718	-0.000091	-0.025187
H104	H	-0.024911	-0.000099	0.322583
Br105	Br	-0.488319	-0.427078	0.252343
H106	H	-0.588246	-0.555887	0.247427
Br107	Br	0.083368	-0.000099	0.362299
H108	H	-0.057290	-0.000141	-0.108537
