data_functionalizedCrystal
_audit_creation_method	'MofGen! by Chris Wilmer'
_symmetry_space_group_name_H-M	'P1'
_symmetry_Int_Tables_number	1
_symmetry_cell_setting	triclinic
loop_
_symmetry_equiv_pos_as_xyz
  x,y,z
_cell_length_a	15.298068
_cell_length_b	19.121111
_cell_length_c	15.298431
_cell_angle_alpha	97.714904
_cell_angle_beta	91.585376
_cell_angle_gamma	77.495090
loop_
_atom_site_label
_atom_site_type_symbol
_atom_site_fract_x
_atom_site_fract_y
_atom_site_fract_z
Zn1	Zn	1.252700	0.012922	-0.727995
Zn2	Zn	1.752700	0.512922	-0.227995
Zn3	Zn	1.269547	0.147063	-0.587399
Zn4	Zn	1.769547	0.647063	-0.087399
Zn5	Zn	1.129073	0.052511	-0.557884
Zn6	Zn	1.629073	0.552511	-0.057884
Zn7	Zn	1.097374	0.153834	-0.708730
Zn8	Zn	1.597374	0.653834	-0.208730
O9	O	1.187174	0.091583	-0.645502
O10	O	1.687174	0.591583	-0.145502
O11	O	1.378728	0.011314	-0.729759
O12	O	1.878728	0.511314	-0.229759
O13	O	1.271229	0.148255	-0.461514
O14	O	1.771229	0.648255	0.038486
O15	O	1.151689	-0.051283	-0.576159
O16	O	1.651689	0.448717	-0.076159
O17	O	1.391105	0.109867	-0.626464
O18	O	1.891105	0.609867	-0.126464
O19	O	1.242517	-0.080369	-0.701139
O20	O	1.742517	0.419631	-0.201139
O21	O	1.168024	0.078788	-0.439829
O22	O	1.668024	0.578788	0.060171
O23	O	1.001075	0.085354	-0.557479
O24	O	1.501075	0.585354	-0.057479
O25	O	1.097662	0.121408	-0.833255
O26	O	1.597662	0.621408	-0.333255
O27	O	0.977786	0.159796	-0.668306
O28	O	1.477786	0.659796	-0.168306
O29	O	1.211779	0.017880	-0.847409
O30	O	1.711779	0.517880	-0.347409
O31	O	1.240491	0.246504	-0.607784
O32	O	1.740491	0.746504	-0.107784
O33	O	1.113997	0.251479	-0.696926
O34	O	1.613997	0.751479	-0.196926
C35	C	0.957332	0.127606	-0.607600
C36	C	1.457332	0.627606	-0.107600
C37	C	0.859001	0.143031	-0.591406
C38	C	1.359001	0.643031	-0.091406
C39	C	0.555970	-0.018490	-0.761248
C40	C	1.055970	0.481510	-0.261248
C41	C	0.648357	-0.032981	-0.776467
C42	C	1.148357	0.467019	-0.276467
C43	C	0.701022	0.011020	-0.730203
C44	C	1.201022	0.511020	-0.230203
C45	C	0.661292	0.069517	-0.668717
C46	C	1.161292	0.569517	-0.168717
C47	C	0.568896	0.084013	-0.653501
C48	C	1.068896	0.584013	-0.153501
C49	C	0.713948	0.113523	-0.622457
C50	C	1.213948	0.613523	-0.122457
C51	C	0.674218	0.172019	-0.560971
C52	C	1.174218	0.672019	-0.060971
C53	C	0.581830	0.186513	-0.545757
C54	C	1.081830	0.686513	-0.045757
C55	C	0.529165	0.142511	-0.592021
C56	C	1.029165	0.642511	-0.092021
C57	C	0.806344	0.099027	-0.637673
C58	C	1.306344	0.599027	-0.137673
C59	C	0.819270	0.201529	-0.529926
C60	C	1.319270	0.701529	-0.029926
C61	C	0.726883	0.216021	-0.514707
C62	C	1.226883	0.716021	-0.014707
C63	C	1.175653	0.274537	-0.653490
C64	C	1.675653	0.774537	-0.153490
C65	C	1.170801	0.352789	-0.656950
C66	C	1.670801	0.852789	-0.156950
C67	C	1.234416	0.386927	-0.612218
C68	C	1.734416	0.886927	-0.112218
C69	C	1.229857	0.460452	-0.615478
C70	C	1.729857	0.960452	-0.115478
C71	C	1.161678	0.499840	-0.663466
C72	C	1.661678	0.999840	-0.163466
C73	C	1.098059	0.465696	-0.708204
C74	C	1.598059	0.965696	-0.208204
C75	C	1.102623	0.392171	-0.704948
C76	C	1.602623	0.892171	-0.204948
C77	C	1.144605	0.721968	-0.675619
C78	C	1.644605	1.221968	-0.175619
C79	C	1.140045	0.795499	-0.678869
C80	C	1.640045	1.295499	-0.178869
C81	C	1.271844	0.790249	-0.586145
C82	C	1.771844	1.290249	-0.086145
C83	C	1.276399	0.716724	-0.582889
C84	C	1.776399	1.216724	-0.082889
C85	C	1.212783	0.682586	-0.627631
C86	C	1.712783	1.182586	-0.127631
C87	C	1.157014	0.574995	-0.666797
C88	C	1.657014	1.074995	-0.166797
C89	C	1.217451	0.607431	-0.624304
C90	C	1.717451	1.107431	-0.124304
C91	C	1.417912	0.055419	-0.683553
C92	C	1.917912	0.555419	-0.183553
C93	C	1.516239	0.040008	-0.699768
C94	C	2.016239	0.540008	-0.199768
C95	C	1.149305	0.065983	-0.872842
C96	C	1.649305	0.565983	-0.372842
C97	C	1.133168	0.055074	-0.969720
C98	C	1.633168	0.555074	-0.469720
C99	C	1.198751	0.907908	-0.637515
C100	C	1.698751	1.407908	-0.137515
C101	C	1.203660	0.829637	-0.634137
C102	C	1.703660	1.329637	-0.134137
C103	C	1.071852	0.013779	-1.003937
C104	C	1.571852	0.513779	-0.503937
C105	C	1.056679	0.003532	-1.094957
C106	C	1.556679	0.503532	-0.594957
C107	C	1.102825	0.034575	-1.151771
C108	C	1.602825	0.534575	-0.651771
C109	C	1.164147	0.075867	-1.117555
C110	C	1.664147	0.575867	-0.617555
C111	C	1.179317	0.086119	-1.026525
C112	C	1.679317	0.586119	-0.526525
C113	C	1.210290	0.106915	-1.174359
C114	C	1.710290	0.606915	-0.674359
C115	C	1.271612	0.148206	-1.140144
C116	C	1.771612	0.648206	-0.640144
C117	C	1.286780	0.158457	-1.049122
C118	C	1.786780	0.658457	-0.549122
C119	C	1.240633	0.127414	-0.992309
C120	C	1.740633	0.627414	-0.492309
C121	C	1.195121	0.096662	-1.265389
C122	C	1.695121	0.596662	-0.765389
C123	C	1.302586	0.169002	-1.287978
C124	C	1.802586	0.669002	-0.787978
C125	C	1.317759	0.179249	-1.196957
C126	C	1.817759	0.679249	-0.696957
C127	C	1.224949	0.117024	-0.419053
C128	C	1.724949	0.617024	0.080947
C129	C	1.241269	0.127707	-0.322194
C130	C	1.741269	0.627707	0.177806
H131	H	0.513081	-0.054306	-0.798914
H132	H	1.013081	0.445694	-0.298914
N133	N	1.075988	0.685156	-0.723865
N134	N	1.575988	1.185156	-0.223865
H135	H	1.032102	0.721268	-0.754752
H136	H	1.532102	1.221268	-0.254752
H137	H	1.042887	0.665103	-0.680255
H138	H	1.542887	1.165103	-0.180255
N139	N	0.684020	0.279109	-0.448393
N140	N	1.184020	0.779109	0.051607
H141	H	0.637751	0.313815	-0.478862
H142	H	1.137751	0.813815	0.021138
H143	H	0.731449	0.304731	-0.421405
H144	H	1.231449	0.804731	0.078595
N145	N	0.876056	0.248996	-0.480018
N146	N	1.376056	0.748996	0.019982
H147	H	0.906458	0.271675	-0.523113
H148	H	1.406458	0.771675	-0.023113
H149	H	0.922848	0.218815	-0.444743
H150	H	1.422848	0.718815	0.055257
H151	H	1.252987	0.135752	-0.918192
H152	H	1.752987	0.635752	-0.418192
H153	H	1.042549	0.497771	-0.747281
H154	H	1.542549	0.997771	-0.247281
H155	H	0.838683	0.051398	-0.687734
H156	H	1.338683	0.551398	-0.187734
N157	N	1.383898	0.223783	-1.160049
N158	N	1.883898	0.723783	-0.660049
H159	H	1.386403	0.225654	-1.093753
H160	H	1.886403	0.725654	-0.593753
H161	H	1.364378	0.274413	-1.175988
H162	H	1.864378	0.774413	-0.675988
N163	N	1.034012	0.355347	-0.753198
N164	N	1.534012	0.855347	-0.253198
H165	H	0.990127	0.391454	-0.784091
H166	H	1.490127	0.891454	-0.284091
H167	H	1.000908	0.335291	-0.709593
H168	H	1.500908	0.835291	-0.209593
H169	H	0.453934	0.154311	-0.579639
H170	H	0.953934	0.654311	-0.079639
N171	N	1.307951	0.344448	-0.560456
N172	N	1.807951	0.844448	-0.060456
H173	H	1.347560	0.377233	-0.532616
H174	H	1.847560	0.877233	-0.032616
H175	H	1.344840	0.303490	-0.601363
H176	H	1.844840	0.803490	-0.101363
H177	H	1.006747	-0.030085	-1.122808
H178	H	1.506747	0.469915	-0.622808
H179	H	1.272965	0.575359	-0.585236
H180	H	1.772965	1.075359	-0.085236
N181	N	1.298470	0.497273	-0.567231
N182	N	1.798470	0.997273	-0.067231
H183	H	1.342350	0.461165	-0.536333
H184	H	1.842350	0.961165	-0.036333
H185	H	1.267319	0.538004	-0.522290
H186	H	1.767319	1.038004	-0.022290
H187	H	1.336700	0.192090	-1.021266
H188	H	1.836700	0.692090	-0.521266
N189	N	0.800662	-0.004590	-0.746640
N190	N	1.300662	0.495410	-0.246640
H191	H	0.817839	-0.048318	-0.792618
H192	H	1.317839	0.451682	-0.292618
H193	H	0.833636	-0.014335	-0.689942
H194	H	1.333636	0.485665	-0.189942
N195	N	0.691207	-0.096066	-0.842781
N196	N	1.191207	0.403934	-0.342781
H197	H	0.643827	-0.121742	-0.869779
H198	H	1.143827	0.378258	-0.369779
H199	H	0.737483	-0.130724	-0.812257
H200	H	1.237483	0.369276	-0.312257
N201	N	0.538974	0.249603	-0.479443
N202	N	1.038974	0.749603	0.020557
H203	H	0.492708	0.284313	-0.509913
H204	H	0.992708	0.784313	-0.009913
H205	H	0.586409	0.275221	-0.452460
H206	H	1.086409	0.775221	0.047540
H207	H	1.034281	-0.011486	-0.957671
H208	H	1.534281	0.488514	-0.457671
N209	N	1.066509	0.837983	-0.730635
N210	N	1.566509	1.337983	-0.230635
H211	H	1.029551	0.878940	-0.689775
H212	H	1.529551	1.378940	-0.189775
H213	H	1.026966	0.805148	-0.758482
H214	H	1.526966	1.305148	-0.258482
H215	H	1.331916	0.684656	-0.543814
H216	H	1.831916	1.184656	-0.043814
H217	H	1.323638	0.818052	-0.549720
H218	H	1.823638	1.318052	-0.049720
H219	H	1.101501	0.607073	-0.705867
H220	H	1.601501	1.107073	-0.205867
H221	H	1.145193	0.063041	-1.293238
H222	H	1.645193	0.563041	-0.793238
N223	N	1.086462	0.023526	-1.249943
N224	N	1.586462	0.523526	-0.749943
H225	H	1.040614	-0.007342	-1.262998
H226	H	1.540614	0.492658	-0.762998
H227	H	1.144349	-0.001375	-1.281253
H228	H	1.644349	0.498625	-0.781253
H229	H	1.340164	0.194278	-1.334236
H230	H	1.840164	0.694278	-0.834236
