data_functionalizedCrystal
_audit_creation_method	'MofGen! by Chris Wilmer'
_symmetry_space_group_name_H-M	'P1'
_symmetry_Int_Tables_number	1
_symmetry_cell_setting	triclinic
loop_
_symmetry_equiv_pos_as_xyz
  x,y,z
_cell_length_a	13.635800
_cell_length_b	19.551136
_cell_length_c	19.551833
_cell_angle_alpha	83.647517
_cell_angle_beta	101.663477
_cell_angle_gamma	78.349158
loop_
_atom_site_label
_atom_site_type_symbol
_atom_site_fract_x
_atom_site_fract_y
_atom_site_fract_z
V1	V	1.998606	-0.097410	0.218205
O2	O	1.997306	0.003927	0.213697
O3	O	1.969982	-0.192423	0.217053
O4	O	1.970008	-0.096243	0.313216
O5	O	1.997280	-0.092919	0.116868
V6	V	2.241563	-0.085250	0.206043
O7	O	2.126612	-0.124085	0.244883
O8	O	2.338656	-0.058576	0.179364
O9	O	2.158584	0.009763	0.207194
O10	O	2.301562	-0.186588	0.210550
O11	O	2.301588	-0.089741	0.307379
O12	O	2.158558	-0.086418	0.111031
V13	V	2.498606	-0.097410	0.218205
O14	O	2.497306	0.003927	0.213697
O15	O	2.469982	-0.192423	0.217053
O16	O	2.470008	-0.096243	0.313216
O17	O	2.497280	-0.092919	0.116868
V18	V	2.741563	-0.085250	0.206043
O19	O	2.626612	-0.124085	0.244883
O20	O	2.838656	-0.058576	0.179364
O21	O	2.658584	0.009763	0.207194
O22	O	2.801562	-0.186588	0.210550
O23	O	2.801588	-0.089741	0.307379
O24	O	2.658558	-0.086418	0.111031
C25	C	1.891548	-0.215575	0.213698
C26	C	1.908759	-0.293252	0.213390
C27	C	1.900200	-0.319526	0.149212
C28	C	1.916407	-0.392509	0.148901
C29	C	1.941154	-0.439215	0.212770
C30	C	1.949719	-0.412933	0.276957
C31	C	1.933522	-0.339952	0.277266
C32	C	1.921266	-0.560382	0.259081
C33	C	1.937457	-0.633362	0.258768
C34	C	1.991119	-0.664316	0.211818
C35	C	2.028573	-0.622279	0.165168
C36	C	2.012375	-0.549298	0.165478
C37	C	1.958721	-0.518353	0.212442
C38	C	2.000134	-0.769727	0.147298
C39	C	2.016349	-0.842712	0.146990
C40	C	2.049652	-0.863135	0.275047
C41	C	2.033447	-0.790151	0.275354
C42	C	2.008684	-0.743451	0.211477
C43	C	1.891581	-0.092886	0.336363
C44	C	1.908811	-0.092560	0.414037
C45	C	2.068689	0.032911	0.210547
C46	C	2.041097	0.110587	0.210860
C47	C	2.068656	-0.089776	0.087881
C48	C	2.041046	-0.090099	0.010205
C49	C	2.391548	-0.215575	0.213698
C50	C	2.408759	-0.293252	0.213390
C51	C	2.007629	-0.095915	0.454097
C52	C	2.023819	-0.095608	0.527080
C53	C	1.941188	-0.091962	0.560004
C54	C	1.842355	-0.088603	0.519934
C55	C	1.826166	-0.088902	0.446951
C56	C	1.908018	-0.129955	0.679451
C57	C	1.924211	-0.129661	0.752433
C58	C	1.991115	-0.091036	0.785107
C59	C	2.041843	-0.052715	0.744791
C60	C	2.025654	-0.053015	0.671808
C61	C	1.958732	-0.091637	0.639141
C62	C	2.107494	-0.094057	0.904303
C63	C	2.123679	-0.093747	0.977287
C64	C	1.942214	-0.086748	0.970141
C65	C	1.926030	-0.087052	0.897158
C66	C	2.008674	-0.090710	0.864244
C67	C	2.391581	-0.092886	0.336363
C68	C	2.408811	-0.092560	0.414037
C69	C	2.568689	0.032911	0.210547
C70	C	2.541097	0.110587	0.210860
C71	C	2.568656	-0.089776	0.087881
C72	C	2.541046	-0.090099	0.010205
C73	C	2.507576	-0.333304	0.216749
C74	C	2.523764	-0.406291	0.216470
C75	C	2.441132	-0.439224	0.212827
C76	C	2.342307	-0.399167	0.209470
C77	C	2.326122	-0.326182	0.209754
C78	C	2.507635	-0.095903	0.454088
C79	C	2.523837	-0.095588	0.527071
C80	C	2.441213	-0.091934	0.560002
C81	C	2.342380	-0.088589	0.519945
C82	C	2.326179	-0.088900	0.446963
C83	C	2.614773	0.150639	0.207503
C84	C	2.588857	0.223626	0.207785
C85	C	2.489266	0.256558	0.211430
C86	C	2.415584	0.216501	0.214785
C87	C	2.441499	0.143517	0.214498
C88	C	2.441439	-0.093744	-0.022708
C89	C	2.415478	-0.094039	-0.095692
C90	C	2.489129	-0.090693	-0.135762
C91	C	2.588744	-0.087045	-0.102845
C92	C	2.614700	-0.086746	-0.029862
H93	H	1.880044	-0.281507	0.097199
C94	C	1.868389	-0.171793	0.796770
H95	H	1.826204	-0.194823	0.766856
H96	H	1.917693	-0.206098	0.831876
H97	H	1.826805	-0.140439	0.818920
C98	C	2.669756	-0.083375	-0.146923
H99	H	2.732801	-0.081158	-0.116874
H100	H	2.680078	-0.124308	-0.169011
H101	H	2.646371	-0.042386	-0.182072
H102	H	2.245652	-0.293575	0.207015
C103	C	2.006932	-0.871614	0.076391
H104	H	1.989854	-0.833346	0.038396
H105	H	2.070595	-0.901929	0.075841
H106	H	1.954515	-0.897389	0.071375
C107	C	1.906987	-0.421423	0.078305
H108	H	1.920186	-0.471577	0.087271
H109	H	1.839451	-0.402995	0.049813
H110	H	1.955532	-0.407541	0.054283
C111	C	2.669914	0.267677	0.204100
H112	H	2.640223	0.315864	0.204785
H113	H	2.726625	0.250657	0.243577
H114	H	2.692889	0.263696	0.161654
H115	H	2.604238	-0.438896	0.219202
C116	C	2.360451	0.099463	0.218193
H117	H	2.390135	0.051279	0.217494
H118	H	2.337479	0.103445	0.260636
H119	H	2.303736	0.116487	0.178713
C120	C	2.053588	-0.503062	0.114178
H121	H	2.087877	-0.531946	0.086174
H122	H	1.997863	-0.468418	0.084310
H123	H	2.100476	-0.480308	0.140409
C124	C	2.724277	-0.082749	0.006337
H125	H	2.764418	-0.080807	-0.027983
H126	H	2.721162	-0.041531	0.028137
H127	H	2.754862	-0.123454	0.041181
H128	H	2.334496	0.243327	0.217752
C129	C	2.460775	0.336840	0.211752
H130	H	2.518927	0.355970	0.209238
H131	H	2.406044	0.358564	0.172154
H132	H	2.439799	0.345511	0.254077
C133	C	2.460573	-0.091031	-0.216040
H134	H	2.518698	-0.088514	-0.235196
H135	H	2.439565	-0.133350	-0.224695
H136	H	2.405843	-0.051428	-0.237758
H137	H	2.381455	-0.096468	0.009908
C138	C	1.896244	-0.679596	0.310069
H139	H	1.913559	-0.727493	0.303152
H140	H	1.926174	-0.675858	0.357393
H141	H	1.823557	-0.663965	0.301297
C142	C	2.087621	-0.656321	0.113531
H143	H	2.091922	-0.705808	0.120034
H144	H	2.052392	-0.636152	0.066306
H145	H	2.154995	-0.648016	0.122409
C146	C	1.817335	-0.083383	0.853090
H147	H	1.819528	-0.084081	0.804909
H148	H	1.793360	-0.122857	0.870115
H149	H	1.772060	-0.040935	0.857052
C150	C	2.724323	0.114423	0.203491
H151	H	2.729221	0.065218	0.203805
H152	H	2.738791	0.134373	0.161139
H153	H	2.772546	0.121331	0.243062
H154	H	1.979970	-0.731702	0.095286
C155	C	2.251421	-0.435399	0.205456
H156	H	2.275221	-0.484601	0.205759
H157	H	2.222126	-0.428500	0.245019
H158	H	2.200847	-0.415456	0.163097
C159	C	2.305907	-0.098061	-0.131887
H160	H	2.265773	-0.100024	-0.097564
H161	H	2.275303	-0.057367	-0.166735
H162	H	2.309050	-0.139288	-0.153680
C163	C	2.076860	-0.914502	0.345302
H164	H	2.085273	-0.961731	0.335926
H165	H	2.139083	-0.909011	0.373905
H166	H	2.022995	-0.904462	0.369413
C167	C	2.632557	-0.099279	0.571121
H168	H	2.679442	-0.101513	0.541054
H169	H	2.632027	-0.058348	0.593209
H170	H	2.653283	-0.140269	0.606271
C171	C	2.251507	-0.084580	0.556178
H172	H	2.275323	-0.084883	0.605380
H173	H	2.200920	-0.042238	0.536229
H174	H	2.222227	-0.124161	0.549288
C175	C	2.042845	-0.761246	0.345949
H176	H	2.059896	-0.799513	0.383944
H177	H	2.095254	-0.735470	0.350973
H178	H	1.979171	-0.730931	0.346490
C179	C	2.458942	-0.519506	0.212510
H180	H	2.395580	-0.533390	0.209864
H181	H	2.485466	-0.530809	0.172780
H182	H	2.506761	-0.543850	0.254703
C183	C	2.598527	-0.099918	0.417874
H184	H	2.574739	-0.099630	0.368672
H185	H	2.627812	-0.060345	0.424770
H186	H	2.649105	-0.142267	0.437835
H187	H	2.245704	-0.086179	0.414359
H188	H	1.969871	-0.450966	0.328959
C189	C	1.862228	-0.526338	0.310725
H190	H	1.842228	-0.561823	0.338454
H191	H	1.905315	-0.504035	0.340836
H192	H	1.802704	-0.492162	0.284739
C193	C	2.232384	-0.097435	1.021353
H194	H	2.279282	-0.099663	0.991296
H195	H	2.231837	-0.056505	1.043444
H196	H	2.253105	-0.138426	1.056500
C197	C	1.942927	-0.311048	0.347864
H198	H	1.959982	-0.349314	0.385860
H199	H	1.995333	-0.285269	0.352886
H200	H	1.879251	-0.280735	0.348405
H201	H	2.096324	-0.021265	0.771393
H202	H	2.074926	-0.098890	0.427303
H203	H	2.104292	-0.098344	0.559703
C204	C	2.459049	-0.091601	0.640282
H205	H	2.529744	-0.094122	0.659414
H206	H	2.418569	-0.049283	0.648954
H207	H	2.439855	-0.131205	0.662007
H208	H	2.066957	-0.021812	0.638986
H209	H	2.174787	-0.097033	0.877503
H210	H	1.874932	-0.083773	0.996946
C211	C	1.834418	-0.172441	0.643513
H212	H	1.832032	-0.167126	0.594272
H213	H	1.858360	-0.221016	0.663510
H214	H	1.767444	-0.155378	0.650575
C215	C	2.598481	-0.297091	0.220755
H216	H	2.659648	-0.331407	0.222722
H217	H	2.585301	-0.262250	0.180053
H218	H	2.606594	-0.275288	0.261976
H219	H	1.775077	-0.085632	0.546745
H220	H	1.745694	-0.086166	0.414334
