data_functionalizedCrystal
_audit_creation_method	'MofGen! by Chris Wilmer'
_symmetry_space_group_name_H-M	'P1'
_symmetry_Int_Tables_number	1
_symmetry_cell_setting	triclinic
loop_
_symmetry_equiv_pos_as_xyz
  x,y,z
_cell_length_a	13.032831
_cell_length_b	12.594516
_cell_length_c	13.032268
_cell_angle_alpha	97.152436
_cell_angle_beta	90.886977
_cell_angle_gamma	82.821304
loop_
_atom_site_label
_atom_site_type_symbol
_atom_site_fract_x
_atom_site_fract_y
_atom_site_fract_z
Zn1	Zn	1.498496	-0.718822	-0.780872
Zn2	Zn	1.998496	-0.218822	-0.280872
Zn3	Zn	1.520242	-0.877407	-0.608900
Zn4	Zn	2.020242	-0.377407	-0.108900
Zn5	Zn	1.348353	-0.674358	-0.587111
Zn6	Zn	1.848353	-0.174358	-0.087111
Zn7	Zn	1.326490	-0.871652	-0.759025
Zn8	Zn	1.826490	-0.371652	-0.259025
O9	O	1.423395	-0.785560	-0.683977
O10	O	1.923395	-0.285560	-0.183977
O11	O	1.645302	-0.760876	-0.776322
O12	O	2.145302	-0.260876	-0.276322
O13	O	1.515691	-0.834272	-0.462092
O14	O	2.015691	-0.334272	0.037908
O15	O	1.368319	-0.531320	-0.612838
O16	O	1.868319	-0.031320	-0.112838
O17	O	1.661279	-0.877387	-0.649975
O18	O	2.161279	-0.377387	-0.149975
O19	O	1.478628	-0.563987	-0.755193
O20	O	1.978628	-0.063987	-0.255193
O21	O	1.389406	-0.685093	-0.446084
O22	O	1.889406	-0.185093	0.053916
O23	O	1.201532	-0.679512	-0.591654
O24	O	1.701532	-0.179512	-0.091654
O25	O	1.331056	-0.867579	-0.905841
O26	O	1.831056	-0.367579	-0.405841
O27	O	1.185469	-0.824463	-0.717958
O28	O	1.685469	-0.324463	-0.217958
O29	O	1.457428	-0.755295	-0.921892
O30	O	1.957428	-0.255295	-0.421892
O31	O	1.494491	-1.025580	-0.628791
O32	O	1.994491	-0.525580	-0.128791
O33	O	1.352143	-1.021351	-0.739087
O34	O	1.852143	-0.521351	-0.239087
C35	C	1.156183	-0.746539	-0.650071
C36	C	1.656183	-0.246539	-0.150071
C37	C	1.041866	-0.729875	-0.635591
C38	C	1.541866	-0.229875	-0.135591
C39	C	0.982991	-0.794257	-0.691535
C40	C	1.482991	-0.294257	-0.191535
C41	C	0.864838	-0.777035	-0.676569
C42	C	1.364838	-0.277035	-0.176569
C43	C	1.423329	-1.062090	-0.683958
C44	C	1.923329	-0.562090	-0.183958
C45	C	1.423391	-1.180408	-0.683997
C46	C	1.923391	-0.680408	-0.183997
C47	C	1.345967	-1.247394	-0.743938
C48	C	1.845967	-0.747394	-0.243938
C49	C	1.332833	-1.304009	-0.646920
C50	C	1.832833	-0.804009	-0.146920
C51	C	1.436617	-1.334607	-0.781043
C52	C	1.936617	-0.834607	-0.281043
C53	C	1.410213	-1.235453	-0.586923
C54	C	1.910213	-0.735453	-0.086923
C55	C	1.514033	-1.266057	-0.721115
C56	C	2.014033	-0.766057	-0.221115
C57	C	1.500943	-1.322639	-0.624037
C58	C	2.000943	-0.822639	-0.124037
C59	C	1.691651	-0.824733	-0.718016
C60	C	2.191651	-0.324733	-0.218016
C61	C	1.805965	-0.841426	-0.732521
C62	C	2.305965	-0.341426	-0.232521
C63	C	1.389378	-0.815755	-0.952226
C64	C	1.889378	-0.315755	-0.452226
C65	C	1.374882	-0.828622	-1.066537
C66	C	1.874882	-0.328622	-0.566537
C67	C	1.423487	-0.507956	-0.684022
C68	C	1.923487	-0.007956	-0.184022
C69	C	1.423526	-0.389658	-0.684041
C70	C	1.923526	0.110342	-0.184041
C71	C	1.430945	-0.778803	-1.125443
C72	C	1.930945	-0.278803	-0.625443
C73	C	1.415964	-0.792101	-1.243590
C74	C	1.915964	-0.292101	-0.743590
C75	C	1.457340	-0.755414	-0.416779
C76	C	1.957340	-0.255414	0.083221
C77	C	1.472035	-0.742276	-0.302494
C78	C	1.972035	-0.242276	0.197506
H79	H	1.020059	-0.862124	-0.750512
H80	H	1.520059	-0.362124	-0.250512
N81	N	1.236753	-1.325630	-0.607560
N82	N	1.736753	-0.825630	-0.107560
N83	N	1.221739	-1.420568	-0.600570
N84	N	1.721739	-0.920568	-0.100570
H85	H	1.153880	-1.435837	-0.572777
H86	H	1.653880	-0.935837	-0.072777
N87	N	0.995358	-0.644726	-0.561619
N88	N	1.495358	-0.144726	-0.061619
N89	N	0.899443	-0.630852	-0.549571
N90	N	1.399443	-0.130852	-0.049571
H91	H	0.866597	-0.570712	-0.497328
H92	H	1.366597	-0.070712	0.002672
N93	N	1.300748	-0.894485	-1.112972
N94	N	1.800748	-0.394485	-0.612972
N95	N	1.248030	-0.941328	-1.057652
N96	N	1.748030	-0.441328	-0.557652
H97	H	1.195668	-0.987844	-1.090442
H98	H	1.695668	-0.487844	-0.590442
N99	N	0.818335	-0.691881	-0.602593
N100	N	1.318335	-0.191881	-0.102593
N101	N	0.722420	-0.678008	-0.590546
N102	N	1.222420	-0.178008	-0.090546
H103	H	0.689574	-0.617868	-0.538303
H104	H	1.189574	-0.117868	-0.038303
N105	N	0.852465	-0.926571	-0.806509
N106	N	1.352465	-0.426571	-0.306509
N107	N	0.948379	-0.940443	-0.818562
N108	N	1.448379	-0.440443	-0.318562
H109	H	0.981222	-1.000577	-0.870813
H110	H	1.481222	-0.500577	-0.370813
N111	N	1.263734	-1.206006	-0.807423
N112	N	1.763734	-0.706006	-0.307423
N113	N	1.260353	-1.241586	-0.901174
N114	N	1.760353	-0.741586	-0.401174
H115	H	1.202276	-1.212353	-0.946007
H116	H	1.702276	-0.712353	-0.446007
H117	H	1.398991	-1.192486	-0.504836
H118	H	1.898991	-0.692486	-0.004836
H119	H	1.356864	-0.844593	-1.280621
H120	H	1.856864	-0.344593	-0.780621
N121	N	1.583160	-1.363737	-0.560380
N122	N	2.083160	-0.863737	-0.060380
N123	N	1.585578	-1.329046	-0.466351
N124	N	2.085578	-0.829046	0.033649
H125	H	1.643641	-1.358071	-0.421390
H126	H	2.143641	-0.858071	0.078610
N127	N	1.546155	-0.676404	-1.256031
N128	N	2.046155	-0.176404	-0.756031
N129	N	1.558217	-0.665687	-1.160122
N130	N	2.058217	-0.165687	-0.660122
H131	H	1.610561	-0.619165	-1.127305
H132	H	2.110561	-0.119165	-0.627305
H133	H	1.447750	-1.377685	-0.863096
H134	H	1.947750	-0.877685	-0.363096
N135	N	1.610087	-1.244444	-0.760521
N136	N	2.110087	-0.744444	-0.260521
N137	N	1.637527	-1.282194	-0.850561
N138	N	2.137527	-0.782194	-0.350561
H139	H	1.705366	-1.266931	-0.878403
H140	H	2.205366	-0.766931	-0.378403
H141	H	1.490030	-0.726303	-1.088406
H142	H	1.990030	-0.226303	-0.588406
