data_functionalizedCrystal
_audit_creation_method	'MofGen! by Chris Wilmer'
_symmetry_space_group_name_H-M	'P1'
_symmetry_Int_Tables_number	1
_symmetry_cell_setting	triclinic
loop_
_symmetry_equiv_pos_as_xyz
  x,y,z
_cell_length_a	15.995350
_cell_length_b	11.792241
_cell_length_c	10.868271
_cell_angle_alpha	90.000107
_cell_angle_beta	89.997096
_cell_angle_gamma	96.157105
loop_
_atom_site_label
_atom_site_type_symbol
_atom_site_fract_x
_atom_site_fract_y
_atom_site_fract_z
O1	O	0.114763	-1.505951	-0.102196
O2	O	0.126591	-1.175511	-0.102224
O3	O	-0.001170	-1.349764	-0.102208
O4	O	0.242524	-1.331698	-0.102212
O5	O	-0.001175	-1.349750	0.102436
O6	O	0.126586	-1.175497	0.102420
O7	O	0.114758	-1.505937	0.102448
Zn8	Zn	0.120671	-1.340715	0.134926
Zn9	Zn	0.120678	-1.340734	-0.134702
O10	O	0.242519	-1.331684	0.102432
C11	C	0.125845	-1.133220	0.000094
C12	C	0.123621	-1.007224	0.000084
C13	C	-0.032370	-1.349010	0.000112
C14	C	-0.125331	-1.346771	0.000104
C15	C	0.115504	-1.548229	0.000127
C16	C	0.117727	-1.674224	0.000130
C17	C	-0.463115	-1.338730	0.000108
C18	C	-0.416244	-1.214630	-0.000362
C19	C	-0.319544	-1.216870	0.000100
C20	C	-0.295536	-1.342718	0.000105
C21	C	-0.336339	-1.403921	0.116971
C22	C	-0.432989	-1.400803	0.117068
C23	C	-0.433329	-1.403383	-0.115651
C24	C	-0.336384	-1.403354	-0.117195
C25	C	-0.200829	-1.344979	0.000108
C26	C	-0.557823	-1.336473	0.000113
C27	C	0.273719	-1.332438	0.000110
C28	C	0.366680	-1.334677	0.000109
N29	N	0.120666	-1.340710	0.318940
C30	C	0.119532	-0.776546	0.000119
C31	C	0.121804	-0.904913	0.000099
N32	N	0.120676	-1.340747	-0.318716
C33	C	0.120676	-1.340728	0.569946
C34	C	0.120673	-1.340714	0.430269
H35	H	-0.291338	-1.168760	-0.083674
H36	H	-0.320605	-1.495128	-0.124247
H37	H	-0.464675	-1.494881	-0.116432
C38	C	-0.475998	-1.523888	0.124256
N39	N	-0.508389	-1.616594	0.129678
C40	C	-0.441590	-1.147619	-0.113572
N41	N	-0.460688	-1.097143	-0.198843
H42	H	-0.309336	-1.358607	-0.203649
H43	H	-0.436064	-1.165243	0.082970
H44	H	-0.321793	-1.496378	0.121321
H45	H	-0.454051	-1.362815	-0.204227
H46	H	-0.308152	-1.361401	0.203934
C47	C	-0.457991	-1.340482	0.235072
N48	N	-0.476817	-1.295043	0.323953
C49	C	-0.282196	-1.151427	0.113460
N50	N	-0.254067	-1.102134	0.198850
