data_functionalizedCrystal
_audit_creation_method	'MofGen! by Chris Wilmer'
_symmetry_space_group_name_H-M	'P1'
_symmetry_Int_Tables_number	1
_symmetry_cell_setting	triclinic
loop_
_symmetry_equiv_pos_as_xyz
  x,y,z
_cell_length_a	6.817900
_cell_length_b	17.253796
_cell_length_c	16.255661
_cell_angle_alpha	99.043104
_cell_angle_beta	103.488922
_cell_angle_gamma	102.657420
loop_
_atom_site_label
_atom_site_type_symbol
_atom_site_fract_x
_atom_site_fract_y
_atom_site_fract_z
V1	V	-4.027631	-0.111964	-0.271954
O2	O	-4.014152	0.004712	-0.258508
O3	O	-3.980080	-0.221363	-0.278047
O4	O	-3.979181	-0.110535	-0.386934
O5	O	-4.015057	-0.106883	-0.148867
V6	V	-4.511155	-0.097974	-0.256266
O7	O	-4.288886	-0.142653	-0.306368
O8	O	-4.700097	-0.067285	-0.221852
O9	O	-4.335499	0.011425	-0.250173
O10	O	-4.642030	-0.214649	-0.269712
O11	O	-4.641125	-0.103055	-0.379353
O12	O	-4.336398	-0.099403	-0.141286
C13	C	-3.825289	-0.248023	-0.275809
C14	C	-3.867697	-0.337460	-0.281557
C15	C	-4.110857	-0.842149	-0.322312
C16	C	-4.071000	-0.758114	-0.316912
C17	C	-4.010734	-0.704413	-0.235864
C18	C	-3.990345	-0.734753	-0.160212
C19	C	-4.030216	-0.818787	-0.165614
C20	C	-3.887179	-0.451833	-0.211307
C21	C	-3.847302	-0.367794	-0.205911
C22	C	-3.927964	-0.391161	-0.362612
C23	C	-3.967820	-0.475195	-0.368006
C24	C	-3.947438	-0.505528	-0.292354
N25	N	-3.969987	-0.618515	-0.230341
N26	N	-3.988199	-0.591425	-0.297878
C27	C	-3.824141	-0.106650	-0.414704
C28	C	-3.865817	-0.106206	-0.508753
C29	C	-3.776330	-0.100898	-0.731189
C30	C	-3.933308	-0.169400	-0.805610
C31	C	-3.942195	-0.105373	-0.680942
C32	C	-3.859501	-0.036087	-0.774101
C33	C	-4.015956	-0.104564	-0.847267
C34	C	-4.098655	-0.173936	-0.754138
C35	C	-4.024785	-0.040562	-0.722609
C36	C	-4.181900	-0.109083	-0.797012
C37	C	-3.899698	-0.105839	-0.585126
C38	C	-4.058470	-0.104104	-0.943082
C39	C	-4.153632	0.038081	-0.252409
C40	C	-4.090462	0.127517	-0.246666
C41	C	-4.154780	-0.103290	-0.113511
C42	C	-4.092342	-0.103731	-0.019461
H43	H	-3.870576	-0.476519	-0.149707
H44	H	-4.353801	-0.112562	-0.825610
H45	H	-3.941286	-0.691024	-0.094221
H46	H	-3.944556	-0.366454	-0.424203
N47	N	-4.224980	-0.247093	-0.742518
N48	N	-4.213069	-0.259265	-0.667929
H49	H	-4.302280	-0.310931	-0.659720
N50	N	-3.560847	-0.096684	-0.695149
N51	N	-3.512136	-0.152318	-0.660932
H52	H	-3.359956	-0.149346	-0.635478
N53	N	-4.029370	-0.530054	-0.450790
N54	N	-3.919765	-0.576382	-0.467793
H55	H	-3.963227	-0.615127	-0.526261
N56	N	-4.009400	-0.849763	-0.088335
N57	N	-3.955602	-0.801810	-0.015976
H58	H	-3.940912	-0.823685	0.038605
H59	H	-4.087592	-0.733420	-0.378510
N60	N	-3.785720	-0.312949	-0.123111
N61	N	-3.767518	-0.340040	-0.055572
H62	H	-3.724018	-0.301307	0.002904
N63	N	-3.885320	-0.237721	-0.850798
N64	N	-3.750471	-0.226752	-0.891387
H65	H	-3.716561	-0.275001	-0.923296
H66	H	-4.062933	0.013911	-0.686567
H67	H	-3.758788	0.022155	-0.783506
H68	H	-4.159913	-0.885867	-0.388310
