data_functionalizedCrystal
_audit_creation_method	'MofGen! by Chris Wilmer'
_symmetry_space_group_name_H-M	'P1'
_symmetry_Int_Tables_number	1
_symmetry_cell_setting	triclinic
loop_
_symmetry_equiv_pos_as_xyz
  x,y,z
_cell_length_a	11.169417
_cell_length_b	18.050590
_cell_length_c	11.169417
_cell_angle_alpha	90.011088
_cell_angle_beta	90.003400
_cell_angle_gamma	90.019802
loop_
_atom_site_label
_atom_site_type_symbol
_atom_site_fract_x
_atom_site_fract_y
_atom_site_fract_z
Zn1	Zn	1.834703	-0.295772	0.678485
Zn2	Zn	2.084703	-0.045772	0.928485
Zn3	Zn	2.334703	0.204228	1.178485
Zn4	Zn	2.584703	0.454228	1.428485
Zn5	Zn	1.834620	-0.419928	0.477782
Zn6	Zn	2.084620	-0.169928	0.727782
Zn7	Zn	2.334620	0.080072	0.977782
Zn8	Zn	2.584620	0.330072	1.227782
Zn9	Zn	1.634045	-0.295759	0.477821
Zn10	Zn	1.884045	-0.045759	0.727821
Zn11	Zn	2.134045	0.204241	0.977821
Zn12	Zn	2.384045	0.454241	1.227821
Zn13	Zn	1.633968	-0.419927	0.678428
Zn14	Zn	1.883968	-0.169927	0.928428
Zn15	Zn	2.133968	0.080073	1.178428
Zn16	Zn	2.383968	0.330073	1.428428
O17	O	1.734334	-0.357847	0.578129
O18	O	1.984334	-0.107847	0.828129
O19	O	2.234334	0.142153	1.078129
O20	O	2.484334	0.392153	1.328129
O21	O	2.002642	-0.312247	0.651869
O22	O	2.252642	-0.062247	0.901869
O23	O	2.502642	0.187753	1.151869
O24	O	2.752642	0.437753	1.401869
O25	O	1.808011	-0.403453	0.309838
O26	O	2.058011	-0.153453	0.559838
O27	O	2.308011	0.096547	0.809838
O28	O	2.558011	0.346547	1.059838
O29	O	1.660730	-0.191836	0.504479
O30	O	1.910730	0.058164	0.754479
O31	O	2.160730	0.308164	1.004479
O32	O	2.410730	0.558164	1.254479
O33	O	2.002581	-0.403464	0.504414
O34	O	2.252581	-0.153464	0.754414
O35	O	2.502581	0.096536	1.004414
O36	O	2.752581	0.346536	1.254414
O37	O	1.808152	-0.191845	0.651906
O38	O	2.058152	0.058155	0.901906
O39	O	2.308152	0.308155	1.151906
O40	O	2.558152	0.558155	1.401906
O41	O	1.660650	-0.312226	0.309866
O42	O	1.910650	-0.062226	0.559866
O43	O	2.160650	0.187774	0.809866
O44	O	2.410650	0.437774	1.059866
O45	O	1.466085	-0.312225	0.504424
O46	O	1.716085	-0.062225	0.754424
O47	O	1.966085	0.187775	1.004424
O48	O	2.216085	0.437775	1.254424
O49	O	1.660598	-0.403462	0.846385
O50	O	1.910598	-0.153462	1.096385
O51	O	2.160598	0.096538	1.346385
O52	O	2.410598	0.346538	1.596385
O53	O	1.466028	-0.403450	0.651809
O54	O	1.716028	-0.153450	0.901809
O55	O	1.966028	0.096550	1.151809
O56	O	2.216028	0.346550	1.401809
O57	O	1.808077	-0.312246	0.846427
O58	O	2.058077	-0.062246	1.096427
O59	O	2.308077	0.187754	1.346427
O60	O	2.558077	0.437754	1.596427
O61	O	1.807936	-0.523853	0.504359
O62	O	2.057936	-0.273853	0.754359
O63	O	2.307936	-0.023853	1.004359
O64	O	2.557936	0.226147	1.254359
O65	O	1.660517	-0.523852	0.651772
O66	O	1.910517	-0.273852	0.901772
O67	O	2.160517	-0.023852	1.151772
O68	O	2.410517	0.226148	1.401772
C69	C	1.422509	-0.357837	0.578115
C70	C	1.672509	-0.107837	0.828115
C71	C	1.922509	0.142163	1.078115
C72	C	2.172509	0.392163	1.328115
C73	C	1.289109	-0.357850	0.578138
C74	C	1.539109	-0.107850	0.828138
C75	C	1.789109	0.142150	1.078138
C76	C	2.039109	0.392150	1.328138
C77	C	1.734242	-0.550799	0.578081
C78	C	1.984242	-0.300799	0.828081
C79	C	2.234242	-0.050799	1.078081
C80	C	2.484242	0.199201	1.328081
C81	C	1.734312	-0.633345	0.578101
C82	C	1.984312	-0.383345	0.828101
C83	C	2.234312	-0.133345	1.078101
C84	C	2.484312	0.116655	1.328101
C85	C	1.814645	-0.832769	0.498049
C86	C	2.064645	-0.582769	0.748049
C87	C	2.314645	-0.332769	0.998049
C88	C	2.564645	-0.082769	1.248049
C89	C	1.843938	-0.882121	0.607585
C90	C	2.093938	-0.632121	0.857585
C91	C	2.343938	-0.382121	1.107585
C92	C	2.593938	-0.132121	1.357585
C93	C	1.734380	-0.784475	0.578149
C94	C	1.984380	-0.534475	0.828149
C95	C	2.234380	-0.284475	1.078149
C96	C	2.484380	-0.034475	1.328149
C97	C	1.705209	-0.882204	0.468662
C98	C	1.955209	-0.632204	0.718662
C99	C	2.205209	-0.382204	0.968662
C100	C	2.455209	-0.132204	1.218662
C101	C	1.734448	-0.930460	0.578185
C102	C	1.984448	-0.680460	0.828185
C103	C	2.234448	-0.430460	1.078185
C104	C	2.484448	-0.180460	1.328185
C105	C	1.763730	-0.832740	0.687742
C106	C	2.013730	-0.582740	0.937742
C107	C	2.263730	-0.332740	1.187742
C108	C	2.513730	-0.082740	1.437742
C109	C	1.624950	-0.832818	0.548745
C110	C	1.874950	-0.582818	0.798745
C111	C	2.124950	-0.332818	1.048745
C112	C	2.374950	-0.082818	1.298745
C113	C	1.654201	-0.882149	0.658357
C114	C	1.904201	-0.632149	0.908357
C115	C	2.154201	-0.382149	1.158357
C116	C	2.404201	-0.132149	1.408357
C117	C	1.734344	-0.700377	0.578126
C118	C	1.984344	-0.450377	0.828126
C119	C	2.234344	-0.200377	1.078126
C120	C	2.484344	0.049623	1.328126
C121	C	1.734484	-1.014556	0.578220
C122	C	1.984484	-0.764556	0.828220
C123	C	2.234484	-0.514556	1.078220
C124	C	2.484484	-0.264556	1.328220
C125	C	2.047376	-0.357857	0.578144
C126	C	2.297376	-0.107857	0.828144
C127	C	2.547376	0.142143	1.078144
C128	C	2.797376	0.392143	1.328144
C129	C	2.180776	-0.357862	0.578150
C130	C	2.430776	-0.107862	0.828150
C131	C	2.680776	0.142138	1.078150
C132	C	2.930776	0.392138	1.328150
C133	C	1.734338	-0.357855	0.891171
C134	C	1.984338	-0.107855	1.141171
C135	C	2.234338	0.142145	1.391171
C136	C	2.484338	0.392145	1.641171
C137	C	1.734340	-0.357859	1.024571
C138	C	1.984340	-0.107859	1.274571
C139	C	2.234340	0.142141	1.524571
C140	C	2.484340	0.392141	1.774571
C141	C	1.734459	-0.164141	0.578203
C142	C	1.984459	0.085859	0.828203
C143	C	2.234459	0.335859	1.078203
C144	C	2.484459	0.585859	1.328203
C145	C	1.734513	-0.081595	0.578235
C146	C	1.984513	0.168405	0.828235
C147	C	2.234513	0.418405	1.078235
C148	C	2.484513	0.668405	1.328235
C149	C	1.734325	-0.357857	1.266304
C150	C	1.984325	-0.107857	1.516304
C151	C	2.234325	0.142143	1.766304
C152	C	2.484325	0.392143	2.016304
C153	C	1.734335	-0.357862	1.132904
C154	C	1.984335	-0.107862	1.382904
C155	C	2.234335	0.142138	1.632904
C156	C	2.484335	0.392138	1.882904
H157	H	1.882545	-0.811087	0.430382
H158	H	2.132545	-0.561087	0.680382
H159	H	2.382545	-0.311087	0.930382
H160	H	2.632545	-0.061087	1.180382
H161	H	1.680508	-0.903931	0.376056
H162	H	1.930508	-0.653931	0.626056
H163	H	2.180508	-0.403931	0.876056
H164	H	2.430508	-0.153931	1.126056
H165	H	1.788339	-0.811105	0.780428
H166	H	2.038339	-0.561105	1.030428
H167	H	2.288339	-0.311105	1.280428
H168	H	2.538339	-0.061105	1.530428
H169	H	1.936510	-0.903780	0.632478
H170	H	2.186510	-0.653780	0.882478
H171	H	2.436510	-0.403780	1.132478
H172	H	2.686510	-0.153780	1.382478
N173	N	1.564309	-0.910679	0.748192
N174	N	1.814309	-0.660679	0.998192
N175	N	2.064309	-0.410679	1.248192
N176	N	2.314309	-0.160679	1.498192
H177	H	1.586518	-0.892582	0.830834
H178	H	1.836518	-0.642582	1.080834
H179	H	2.086518	-0.392582	1.330834
H180	H	2.336518	-0.142582	1.580834
H181	H	1.564349	-0.966627	0.747135
H182	H	1.814349	-0.716627	0.997135
H183	H	2.064349	-0.466627	1.247135
H184	H	2.314349	-0.216627	1.497135
H185	H	1.532404	-0.811144	0.523820
H186	H	1.782404	-0.561144	0.773820
H187	H	2.032404	-0.311144	1.023820
H188	H	2.282404	-0.061144	1.273820
