data_functionalizedCrystal
_audit_creation_method	'MofGen! by Chris Wilmer'
_symmetry_space_group_name_H-M	'P1'
_symmetry_Int_Tables_number	1
_symmetry_cell_setting	triclinic
loop_
_symmetry_equiv_pos_as_xyz
  x,y,z
_cell_length_a	15.297475
_cell_length_b	16.120484
_cell_length_c	15.292386
_cell_angle_alpha	83.531716
_cell_angle_beta	69.225118
_cell_angle_gamma	83.687474
loop_
_atom_site_label
_atom_site_type_symbol
_atom_site_fract_x
_atom_site_fract_y
_atom_site_fract_z
Zn1	Zn	1.491616	-0.442487	-0.792658
Zn2	Zn	1.991616	0.057513	-0.292658
Zn3	Zn	1.457270	-0.600412	-0.644405
Zn4	Zn	1.957270	-0.100412	-0.144405
Zn5	Zn	1.309263	-0.442851	-0.610188
Zn6	Zn	1.809263	0.057149	-0.110188
Zn7	Zn	1.330582	-0.559544	-0.771189
Zn8	Zn	1.830582	-0.059544	-0.271189
O9	O	1.397183	-0.511324	-0.704610
O10	O	1.897183	-0.011324	-0.204610
O11	O	1.616395	-0.480388	-0.796297
O12	O	2.116395	0.019612	-0.296297
O13	O	1.414341	-0.596767	-0.510442
O14	O	1.914341	-0.096767	-0.010442
O15	O	1.338905	-0.327874	-0.629058
O16	O	1.838905	0.172126	-0.129058
O17	O	1.591161	-0.596415	-0.687376
O18	O	2.091161	-0.096415	-0.187376
O19	O	1.472879	-0.327607	-0.763118
O20	O	1.972879	0.172393	-0.263118
O21	O	1.305600	-0.481007	-0.485303
O22	O	1.805600	0.018993	0.014697
O23	O	1.182756	-0.441379	-0.608241
O24	O	1.682756	0.058621	-0.108241
O25	O	1.375239	-0.526760	-0.903460
O26	O	1.875239	-0.026760	-0.403460
O27	O	1.198419	-0.527113	-0.726527
O28	O	1.698419	-0.027113	-0.226527
O29	O	1.493551	-0.440759	-0.919234
O30	O	1.993551	0.059241	-0.419234
O31	O	1.435013	-0.709920	-0.666558
O32	O	1.935013	-0.209920	-0.166558
O33	O	1.341935	-0.679894	-0.759706
O34	O	1.841935	-0.179894	-0.259706
C35	C	1.157052	-0.479851	-0.661342
C36	C	1.657052	0.020149	-0.161342
C37	C	1.054326	-0.466404	-0.642854
C38	C	1.554326	0.033596	-0.142854
C39	C	0.797398	-0.607439	-0.836746
C40	C	1.297398	-0.107439	-0.336746
C41	C	0.893914	-0.620080	-0.854113
C42	C	1.393914	-0.120080	-0.354113
C43	C	0.934022	-0.581662	-0.801300
C44	C	1.434022	-0.081662	-0.301300
C45	C	0.877604	-0.530601	-0.731116
C46	C	1.377604	-0.030601	-0.231116
C47	C	0.781078	-0.517964	-0.713742
C48	C	1.281078	-0.017964	-0.213742
C49	C	0.917702	-0.492187	-0.678297
C50	C	1.417702	0.007813	-0.178297
C51	C	0.861285	-0.441126	-0.608112
C52	C	1.361285	0.058874	-0.108112
C53	C	0.764769	-0.428491	-0.590742
C54	C	1.264769	0.071509	-0.090742
C55	C	0.724661	-0.466909	-0.643555
C56	C	1.224661	0.033091	-0.143555
C57	C	1.014228	-0.504824	-0.695671
C58	C	1.514228	-0.004824	-0.195671
C59	C	0.997908	-0.415349	-0.572667
C60	C	1.497908	0.084651	-0.072667
C61	C	0.901393	-0.402708	-0.555299
C62	C	1.401393	0.097292	-0.055299
C63	C	1.387089	-0.724707	-0.714540
C64	C	1.887089	-0.224707	-0.214540
C65	C	1.382861	-0.816001	-0.718834
C66	C	1.882861	-0.316001	-0.218834
C67	C	1.375150	-0.983155	-0.726694
C68	C	1.875150	-0.483155	-0.226694
C69	C	1.419384	-1.038671	-0.682571
C70	C	1.919384	-0.538671	-0.182571
C71	C	1.415093	-1.131682	-0.686944
C72	C	1.915093	-0.631682	-0.186944
C73	C	1.379439	-0.890136	-0.722322
C74	C	1.879439	-0.390136	-0.222322
C75	C	1.638251	-0.542920	-0.748048
C76	C	2.138251	-0.042920	-0.248048
C77	C	1.740980	-0.556384	-0.766559
C78	C	2.240980	-0.056384	-0.266559
C79	C	1.440604	-0.479160	-0.945844
C80	C	1.940604	0.020840	-0.445844
C81	C	1.459108	-0.465454	-1.048643
C82	C	1.959108	0.034546	-0.548643
C83	C	1.407345	-0.297107	-0.694666
C84	C	1.907345	0.202893	-0.194666
C85	C	1.411675	-0.205821	-0.690429
C86	C	1.911675	0.294179	-0.190429
C87	C	1.353986	-0.543309	-0.464322
C88	C	1.853986	-0.043309	0.035678
C89	C	1.335672	-0.556807	-0.361544
C90	C	1.835672	-0.056807	0.138456
C91	C	1.265836	-0.608397	-0.304896
C92	C	1.765836	-0.108397	0.195104
C93	C	1.248617	-0.621077	-0.208329
C94	C	1.748617	-0.121077	0.291671
C95	C	1.301238	-0.582173	-0.168403
C96	C	1.801238	-0.082173	0.331597
C97	C	1.371081	-0.530586	-0.225053
C98	C	1.871081	-0.030586	0.274947
C99	C	1.388297	-0.517900	-0.321628
C100	C	1.888297	-0.017900	0.178372
C101	C	1.423699	-0.491676	-0.185135
C102	C	1.923699	0.008324	0.314865
C103	C	1.493542	-0.440089	-0.241785
C104	C	1.993542	0.059911	0.258215
C105	C	1.510755	-0.427406	-0.338350
C106	C	2.010755	0.072594	0.161650
C107	C	1.458133	-0.466310	-0.378276
C108	C	1.958133	0.033690	0.121724
C109	C	1.406484	-0.504362	-0.088560
C110	C	1.906484	-0.004362	0.411440
C111	C	1.528945	-0.413864	-0.105292
C112	C	2.028945	0.086136	0.394708
C113	C	1.546164	-0.401185	-0.201858
C114	C	2.046164	0.098815	0.298142
H115	H	1.012609	-0.591957	-0.815446
H116	H	1.512609	-0.091957	-0.315446
N117	N	1.470922	-1.010688	-0.631040
N118	N	1.970922	-0.510688	-0.131040
N119	N	1.512504	-1.062832	-0.589545
N120	N	2.012504	-0.562832	-0.089545
H121	H	1.548899	-1.043067	-0.553148
H122	H	2.048899	-0.543067	-0.053148
H123	H	1.603030	-0.359182	-0.247996
H124	H	2.103030	0.140818	0.252004
H125	H	1.334061	-1.005477	-0.767750
H126	H	1.834061	-0.505477	-0.267750
H127	H	1.349611	-0.546358	-0.042443
H128	H	1.849611	-0.046358	0.457557
N129	N	1.283638	-0.595129	-0.069761
N130	N	1.783638	-0.095129	0.430239
N131	N	1.221278	-0.641190	-0.019192
N132	N	1.721278	-0.141190	0.480808
H133	H	1.208846	-0.650345	0.050478
H134	H	1.708846	-0.150345	0.550478
H135	H	1.571791	-0.382182	-0.072784
H136	H	2.071791	0.117818	0.427216
N137	N	1.177274	-0.673766	-0.150479
N138	N	1.677274	-0.173766	0.349521
N139	N	1.130296	-0.708497	-0.186135
N140	N	1.630296	-0.208497	0.313865
H141	H	1.079906	-0.745712	-0.145278
H142	H	1.579906	-0.245712	0.354722
N143	N	1.212090	-0.648116	-0.345692
N144	N	1.712090	-0.148116	0.154308
N145	N	1.227468	-0.636776	-0.431915
N146	N	1.727468	-0.136776	0.068085
H147	H	1.189505	-0.664828	-0.460729
H148	H	1.689505	-0.164828	0.039271
N149	N	1.475715	-0.453371	-0.476919
N150	N	1.975715	0.046629	0.023081
N151	N	1.428729	-0.488119	-0.512551
N152	N	1.928729	0.011881	-0.012551
H153	H	1.441144	-0.478984	-0.582219
H154	H	1.941144	0.021016	-0.082219
H155	H	1.060154	-0.546397	-0.752816
H156	H	1.560154	-0.046397	-0.252816
N157	N	1.582079	-0.374694	-0.396212
N158	N	2.082079	0.125306	0.103788
N159	N	1.577032	-0.299457	-0.380896
N160	N	2.077032	0.200543	0.119104
H161	H	1.627405	-0.262228	-0.421760
H162	H	2.127405	0.237772	0.078240
N163	N	0.951524	-0.672238	-0.925799
N164	N	1.451524	-0.172238	-0.425799
N165	N	0.915706	-0.706536	-0.972947
N166	N	1.415706	-0.206536	-0.472947
H167	H	0.956394	-0.743376	-1.023580
H168	H	1.456394	-0.243376	-0.523580
N169	N	0.756412	-0.646679	-0.890670
N170	N	1.256412	-0.146679	-0.390670
N171	N	0.670232	-0.635392	-0.875142
N172	N	1.170232	-0.135392	-0.375142
H173	H	0.641283	-0.663108	-0.913228
H174	H	1.141283	-0.163108	-0.413228
H175	H	0.646071	-0.456618	-0.629419
H176	H	1.146071	0.043382	-0.129419
H177	H	0.718834	-0.386924	-0.533584
H178	H	1.218834	0.113076	-0.033584
N179	N	0.843762	-0.350543	-0.483619
N180	N	1.343762	0.149457	0.016381
N181	N	0.798255	-0.286851	-0.504139
N182	N	1.298255	0.213149	-0.004139
H183	H	0.757553	-0.250008	-0.453516
H184	H	1.257553	0.249992	0.046484
N185	N	1.038880	-0.376113	-0.518718
N186	N	1.538880	0.123887	-0.018718
N187	N	1.125059	-0.387403	-0.534238
N188	N	1.625059	0.112597	-0.034238
H189	H	1.154002	-0.359698	-0.496138
H190	H	1.654002	0.140302	0.003862
