data_functionalizedCrystal
_audit_creation_method	'MofGen! by Chris Wilmer'
_symmetry_space_group_name_H-M	'P1'
_symmetry_Int_Tables_number	1
_symmetry_cell_setting	triclinic
loop_
_symmetry_equiv_pos_as_xyz
  x,y,z
_cell_length_a	11.026607
_cell_length_b	13.930277
_cell_length_c	11.026607
_cell_angle_alpha	90.001745
_cell_angle_beta	108.586017
_cell_angle_gamma	90.006516
loop_
_atom_site_label
_atom_site_type_symbol
_atom_site_fract_x
_atom_site_fract_y
_atom_site_fract_z
O1	O	1.726738	0.079829	0.533624
O2	O	2.226738	0.579829	1.033624
O3	O	1.360158	0.079830	0.472860
O4	O	1.860158	0.579830	0.972860
O5	O	1.513067	0.079826	0.319952
O6	O	2.013067	0.579826	0.819952
O7	O	1.573830	0.079833	0.686532
O8	O	2.073830	0.579833	1.186532
O9	O	1.513038	-0.079836	0.319942
O10	O	2.013038	0.420164	0.819942
O11	O	1.360130	-0.079832	0.472850
O12	O	1.860130	0.420168	0.972850
O13	O	1.726710	-0.079833	0.533614
O14	O	2.226710	0.420167	1.033614
Zn15	Zn	1.543416	-0.105182	0.503230
Zn16	Zn	2.043416	0.394818	1.003230
Zn17	Zn	1.543453	0.105179	0.503244
Zn18	Zn	2.043453	0.605179	1.003244
O19	O	1.573802	-0.079829	0.686522
O20	O	2.073802	0.420171	1.186522
C21	C	1.312485	-0.000001	0.461645
C22	C	1.812485	0.499999	0.961645
C23	C	1.170471	-0.000000	0.428228
C24	C	1.670471	0.500000	0.928228
N25	N	1.543400	-0.248748	0.503222
N26	N	2.043400	0.251252	1.003222
C27	C	1.116821	0.000002	0.520498
C28	C	1.616821	0.500002	1.020498
C29	C	0.970043	0.000003	0.485962
C30	C	1.470043	0.500003	0.985962
C31	C	1.475734	-0.701016	0.570917
C32	C	1.975734	-0.201016	1.070917
C33	C	1.611204	-0.700989	0.435568
C34	C	2.111204	-0.200989	0.935568
C35	C	1.611188	-0.600493	0.435561
C36	C	2.111188	-0.100493	0.935561
C37	C	1.543446	-0.550254	0.503234
C38	C	2.043446	-0.050254	1.003234
C39	C	1.475719	-0.600511	0.570914
C40	C	1.975719	-0.100511	1.070914
C41	C	1.678924	-0.550229	0.367892
C42	C	2.178924	-0.050229	0.867892
C43	C	1.678912	-0.449727	0.367883
C44	C	2.178912	0.050273	0.867883
C45	C	1.611161	-0.399486	0.435550
C46	C	2.111161	0.100514	0.935550
C47	C	1.543431	-0.449749	0.503232
C48	C	2.043431	0.050251	1.003232
C49	C	1.475688	-0.399510	0.570905
C50	C	1.975688	0.100490	1.070905
C51	C	1.407950	-0.449771	0.638580
C52	C	1.907950	0.050229	1.138580
C53	C	1.407969	-0.550270	0.638581
C54	C	1.907969	-0.050270	1.138581
C55	C	1.611142	-0.298987	0.435549
C56	C	2.111142	0.201013	0.935549
C57	C	1.475673	-0.299005	0.570903
C58	C	1.975673	0.200995	1.070903
C59	C	1.774384	-0.000001	0.544828
C60	C	2.274384	0.499999	1.044828
C61	C	1.916398	0.000005	0.578245
C62	C	2.416398	0.500005	1.078245
C63	C	1.501843	-0.000004	0.272287
C64	C	2.001843	0.499996	0.772287
C65	C	1.468426	-0.000000	0.130273
C66	C	1.968426	0.500000	0.630273
N67	N	1.543477	0.248745	0.503244
N68	N	2.043477	0.748745	1.003244
C69	C	1.560695	0.000001	0.076624
C70	C	2.060695	0.500001	0.576624
C71	C	1.526160	0.000004	-0.070155
C72	C	2.026160	0.500004	0.429845
C73	C	1.585026	0.000003	0.734187
C74	C	2.085026	0.500003	1.234187
C75	C	1.618443	0.000005	0.876200
C76	C	2.118443	0.500005	1.376200
H77	H	1.179555	-0.000001	0.625061
H78	H	1.679555	0.499999	1.125061
H79	H	0.907314	0.000026	0.381393
H80	H	1.407314	0.500026	0.881393
H81	H	1.666301	-0.258069	0.380456
H82	H	2.166301	0.241931	0.880456
N83	N	0.999472	-0.000002	0.716763
N84	N	1.499472	0.499998	1.216763
H85	H	1.092550	-0.000004	0.721804
H86	H	1.592550	0.499996	1.221804
H87	H	0.980670	0.059188	0.760571
H88	H	1.480670	0.559188	1.260571
H89	H	1.107738	0.000023	0.323666
H90	H	1.607738	0.500023	0.823666
N91	N	1.402594	-0.244821	0.643882
N92	N	1.902594	0.255179	1.143882
H93	H	1.359687	-0.291913	0.686748
H94	H	1.859687	0.208087	1.186748
H95	H	1.463677	-0.203113	0.710908
H96	H	1.963677	0.296887	1.210908
N97	N	1.334885	-0.395587	0.711573
N98	N	1.834885	0.104413	1.211573
H99	H	1.395906	-0.353881	0.778662
H100	H	1.895906	0.146119	1.278662
H101	H	1.267826	-0.353953	0.650429
H102	H	1.767826	0.146047	1.150429
H103	H	1.352820	-0.591199	0.693681
H104	H	1.852820	-0.091199	1.193681
H105	H	1.734066	-0.408811	0.312778
H106	H	2.234066	0.091189	0.812778
H107	H	1.363863	0.000006	0.067540
H108	H	1.863863	0.500006	0.567540
H109	H	1.420578	-0.741941	0.626013
H110	H	1.920578	-0.241941	1.126013
H111	H	1.421590	0.000011	-0.132884
H112	H	1.921590	0.500011	0.367116
H113	H	1.666366	-0.741897	0.380478
H114	H	2.166366	-0.241897	0.880478
N115	N	1.751997	-0.604411	0.294919
N116	N	2.251997	-0.104411	0.794919
H117	H	1.741723	-0.675703	0.305187
H118	H	2.241723	-0.175703	0.805187
H119	H	1.717538	-0.586852	0.201292
H120	H	2.217538	-0.086852	0.701292
N121	N	1.756963	0.000005	-0.040733
N122	N	2.256963	0.500005	0.459267
H123	H	1.774964	0.059191	0.015090
H124	H	2.274964	0.559191	0.515090
H125	H	1.774853	-0.059221	0.014996
H126	H	2.274853	0.440779	0.514996
H127	H	1.665258	-0.000006	0.139357
H128	H	2.165258	0.499994	0.639357
