data_functionalizedCrystal
_audit_creation_method	'MofGen! by Chris Wilmer'
_symmetry_space_group_name_H-M	'P1'
_symmetry_Int_Tables_number	1
_symmetry_cell_setting	triclinic
loop_
_symmetry_equiv_pos_as_xyz
  x,y,z
_cell_length_a	19.188925
_cell_length_b	19.188928
_cell_length_c	18.266242
_cell_angle_alpha	89.986251
_cell_angle_beta	90.009988
_cell_angle_gamma	96.856819
loop_
_atom_site_label
_atom_site_type_symbol
_atom_site_fract_x
_atom_site_fract_y
_atom_site_fract_z
O1	O	0.926151	-0.087151	0.060909
O2	O	1.176151	0.162849	0.310909
O3	O	1.426151	0.412849	0.560909
O4	O	1.676151	0.662849	0.810909
O5	O	0.722839	-0.098889	0.060908
O6	O	0.972839	0.151111	0.310908
O7	O	1.222839	0.401111	0.560908
O8	O	1.472839	0.651111	0.810908
O9	O	0.830363	0.008636	0.060890
O10	O	1.080363	0.258636	0.310890
O11	O	1.330363	0.508636	0.560890
O12	O	1.580363	0.758636	0.810890
O13	O	0.818627	-0.194676	0.060927
O14	O	1.068627	0.055324	0.310927
O15	O	1.318627	0.305324	0.560927
O16	O	1.568627	0.555324	0.810927
O17	O	0.830345	0.008642	-0.060872
O18	O	1.080345	0.258642	0.189128
O19	O	1.330345	0.508642	0.439128
O20	O	1.580345	0.758642	0.689128
O21	O	0.722821	-0.098883	-0.060854
O22	O	0.972821	0.151117	0.189146
O23	O	1.222821	0.401117	0.439146
O24	O	1.472821	0.651117	0.689146
O25	O	0.926133	-0.087145	-0.060853
O26	O	1.176133	0.162855	0.189147
O27	O	1.426133	0.412855	0.439147
O28	O	1.676133	0.662855	0.689147
Zn29	Zn	0.824474	-0.093013	-0.080186
Zn30	Zn	1.074474	0.156987	0.169814
Zn31	Zn	1.324474	0.406987	0.419814
Zn32	Zn	1.574474	0.656987	0.669814
Zn33	Zn	0.824498	-0.093021	0.080241
Zn34	Zn	1.074498	0.156979	0.330241
Zn35	Zn	1.324498	0.406979	0.580241
Zn36	Zn	1.574498	0.656979	0.830241
O37	O	0.818609	-0.194670	-0.060835
O38	O	1.068609	0.055330	0.189165
O39	O	1.318609	0.305330	0.439165
O40	O	1.568609	0.555330	0.689165
C41	C	0.696819	-0.098507	0.000027
C42	C	0.946819	0.151493	0.250027
C43	C	1.196819	0.401493	0.500027
C44	C	1.446819	0.651493	0.750027
C45	C	0.619314	-0.097367	0.000026
C46	C	0.869314	0.152633	0.250026
C47	C	1.119314	0.402633	0.500026
C48	C	1.369314	0.652633	0.750026
C49	C	0.057543	-0.152832	0.000038
C50	C	0.307543	0.097168	0.250038
C51	C	0.557543	0.347168	0.500038
C52	C	0.807543	0.597168	0.750038
C53	C	0.130367	-0.153908	0.000042
C54	C	0.380367	0.096092	0.250042
C55	C	0.630367	0.346092	0.500042
C56	C	0.880367	0.596092	0.750042
C57	C	0.175302	-0.090816	0.000029
C58	C	0.425302	0.159184	0.250029
C59	C	0.675302	0.409184	0.500029
C60	C	0.925302	0.659184	0.750029
C61	C	0.147408	-0.026642	0.000031
C62	C	0.397408	0.223358	0.250031
C63	C	0.647408	0.473358	0.500031
C64	C	0.897408	0.723358	0.750031
C65	C	0.074586	-0.025568	0.000034
C66	C	0.324586	0.224432	0.250034
C67	C	0.574586	0.474432	0.500034
C68	C	0.824586	0.724432	0.750034
N69	N	0.295973	-0.045138	-0.041428
N70	N	0.545973	0.204862	0.208572
N71	N	0.795973	0.454862	0.458572
N72	N	1.045973	0.704862	0.708572
N73	N	0.365150	-0.046163	-0.041433
N74	N	0.615150	0.203837	0.208567
N75	N	0.865150	0.453837	0.458567
N76	N	1.115150	0.703837	0.708567
C77	C	0.394711	-0.094050	0.000021
C78	C	0.644711	0.155950	0.250021
C79	C	0.894711	0.405950	0.500021
C80	C	1.144711	0.655950	0.750021
N81	N	0.352479	-0.140884	0.041470
N82	N	0.602479	0.109116	0.291470
N83	N	0.852479	0.359116	0.541470
N84	N	1.102479	0.609116	0.791470
N85	N	0.283295	-0.139860	0.041471
N86	N	0.533295	0.110140	0.291471
N87	N	0.783295	0.360140	0.541471
N88	N	1.033295	0.610140	0.791471
C89	C	0.254266	-0.091974	0.000026
C90	C	0.504266	0.158026	0.250026
C91	C	0.754266	0.408026	0.500026
C92	C	1.004266	0.658026	0.750026
C93	C	0.501559	-0.159387	0.000029
C94	C	0.751559	0.090613	0.250029
C95	C	1.001559	0.340613	0.500029
C96	C	1.251559	0.590613	0.750029
C97	C	0.574384	-0.160460	0.000037
C98	C	0.824384	0.089540	0.250037
C99	C	1.074384	0.339540	0.500037
C100	C	1.324384	0.589540	0.750037
C101	C	0.591424	-0.033193	0.000019
C102	C	0.841424	0.216807	0.250019
C103	C	1.091424	0.466807	0.500019
C104	C	1.341424	0.716807	0.750019
C105	C	0.518601	-0.032121	0.000018
C106	C	0.768601	0.217879	0.250018
C107	C	1.018601	0.467879	0.500018
C108	C	1.268601	0.717879	0.750018
C109	C	0.473672	-0.095220	0.000019
C110	C	0.723672	0.154780	0.250019
C111	C	0.973672	0.404780	0.500019
C112	C	1.223672	0.654780	0.750019
C113	C	0.829974	0.034650	0.000006
C114	C	1.079974	0.284650	0.250006
C115	C	1.329974	0.534650	0.500006
C116	C	1.579974	0.784650	0.750006
C117	C	0.828834	0.112154	-0.000004
C118	C	1.078834	0.362154	0.249996
C119	C	1.328834	0.612154	0.499996
C120	C	1.578834	0.862154	0.749996
C121	C	0.891925	0.157080	-0.000009
C122	C	1.141925	0.407080	0.249991
C123	C	1.391925	0.657080	0.499991
C124	C	1.641925	0.907080	0.749991
C125	C	0.890854	0.229904	-0.000000
C126	C	1.140854	0.479904	0.250000
C127	C	1.390854	0.729904	0.500000
C128	C	1.640854	0.979904	0.750000
C129	C	0.826688	0.257799	-0.000001
C130	C	1.076688	0.507799	0.249999
C131	C	1.326688	0.757799	0.499999
C132	C	1.576688	1.007799	0.749999
C133	C	0.763589	0.212864	0.000008
C134	C	1.013589	0.462864	0.250008
C135	C	1.263589	0.712864	0.500008
C136	C	1.513589	0.962864	0.750008
C137	C	0.764662	0.140042	0.000007
C138	C	1.014662	0.390042	0.250007
C139	C	1.264662	0.640042	0.500007
C140	C	1.514662	0.890042	0.750007
N141	N	0.777636	0.365805	-0.041444
N142	N	1.027636	0.615805	0.208556
N143	N	1.277636	0.865805	0.458556
N144	N	1.527636	1.115805	0.708556
N145	N	0.776621	0.434984	-0.041444
N146	N	1.026621	0.684984	0.208556
N147	N	1.276621	0.934984	0.458556
N148	N	1.526621	1.184984	0.708556
C149	C	0.823452	0.477208	0.000004
C150	C	1.073452	0.727208	0.250004
C151	C	1.323452	0.977208	0.500004
C152	C	1.573452	1.227208	0.750004
N153	N	0.871347	0.447641	0.041444
N154	N	1.121347	0.697641	0.291444
N155	N	1.371347	0.947641	0.541444
N156	N	1.621347	1.197641	0.791444
N157	N	0.872364	0.378457	0.041441
N158	N	1.122364	0.628457	0.291441
N159	N	1.372364	0.878457	0.541441
N160	N	1.622364	1.128457	0.791441
C161	C	0.825518	0.336761	0.000001
C162	C	1.075518	0.586761	0.250001
C163	C	1.325518	0.836761	0.500001
C164	C	1.575518	1.086761	0.750001
C165	C	0.885387	0.601097	0.000010
C166	C	1.135387	0.851097	0.250010
C167	C	1.385387	1.101097	0.500010
C168	C	1.635387	1.351097	0.750010
C169	C	0.884313	0.673922	0.000023
C170	C	1.134313	0.923922	0.250023
C171	C	1.384313	1.173922	0.500023
C172	C	1.634313	1.423922	0.750023
C173	C	0.757045	0.656881	0.000024
C174	C	1.007045	0.906881	0.250024
C175	C	1.257045	1.156881	0.500024
C176	C	1.507045	1.406881	0.750024
C177	C	0.758121	0.584058	0.000018
C178	C	1.008121	0.834058	0.250018
C179	C	1.258121	1.084058	0.500018
C180	C	1.508121	1.334058	0.750018
C181	C	0.822293	0.556171	0.000008
C182	C	1.072293	0.806171	0.250008
C183	C	1.322293	1.056171	0.500008
C184	C	1.572293	1.306171	0.750008
C185	C	0.952153	-0.087527	0.000029
C186	C	1.202153	0.162473	0.250029
C187	C	1.452153	0.412473	0.500029
C188	C	1.702153	0.662473	0.750029
C189	C	1.029658	-0.088667	0.000035
C190	C	1.279658	0.161333	0.250035
C191	C	1.529658	0.411333	0.500035
C192	C	1.779658	0.661333	0.750035
C193	C	0.819000	0.779316	0.000040
C194	C	1.069000	1.029316	0.250040
C195	C	1.319000	1.279316	0.500040
C196	C	1.569000	1.529316	0.750040
C197	C	0.820146	0.701813	0.000023
C198	C	1.070146	0.951813	0.250023
C199	C	1.320146	1.201813	0.500023
C200	C	1.570146	1.451813	0.750023
N201	N	0.824463	-0.093008	-0.189673
N202	N	1.074463	0.156992	0.060327
N203	N	1.324463	0.406992	0.310327
N204	N	1.574463	0.656992	0.560327
C205	C	0.872090	-0.045419	-0.227990
C206	C	1.122090	0.204581	0.022010
C207	C	1.372090	0.454581	0.272010
C208	C	1.622090	0.704581	0.522010
C209	C	0.872094	-0.045416	-0.304635
C210	C	1.122094	0.204584	-0.054635
C211	C	1.372094	0.454584	0.195365
C212	C	1.622094	0.704584	0.445365
C213	C	0.824478	-0.093014	-0.342960
C214	C	1.074478	0.156986	-0.092960
C215	C	1.324478	0.406986	0.157040
C216	C	1.574478	0.656986	0.407040
C217	C	0.776842	-0.140606	-0.304634
C218	C	1.026842	0.109394	-0.054634
C219	C	1.276842	0.359394	0.195366
C220	C	1.526842	0.609394	0.445366
C221	C	0.776834	-0.140603	-0.227990
C222	C	1.026834	0.109397	0.022010
C223	C	1.276834	0.359397	0.272010
C224	C	1.526834	0.609397	0.522010
N225	N	0.815402	-0.154821	-0.463281
N226	N	1.065402	0.095179	-0.213281
N227	N	1.315402	0.345179	0.036719
N228	N	1.565402	0.595179	0.286719
N229	N	0.815414	-0.154822	-0.536089
N230	N	1.065414	0.095178	-0.286089
N231	N	1.315414	0.345178	-0.036089
N232	N	1.565414	0.595178	0.213911
C233	C	0.824498	-0.093024	-0.573882
C234	C	1.074498	0.156976	-0.323882
C235	C	1.324498	0.406976	-0.073882
C236	C	1.574498	0.656976	0.176118
N237	N	0.833584	-0.031223	-0.536117
N238	N	1.083584	0.218777	-0.286117
N239	N	1.333584	0.468777	-0.036117
N240	N	1.583584	0.718777	0.213883
N241	N	0.833576	-0.031223	-0.463302
N242	N	1.083576	0.218777	-0.213302
N243	N	1.333576	0.468777	0.036698
N244	N	1.583576	0.718777	0.286698
C245	C	0.824481	-0.093022	-0.426067
C246	C	1.074481	0.156978	-0.176067
C247	C	1.324481	0.406978	0.073933
C248	C	1.574481	0.656978	0.323933
C249	C	0.872132	-0.045427	-0.695306
C250	C	1.122132	0.204573	-0.445306
C251	C	1.372132	0.454573	-0.195306
C252	C	1.622132	0.704573	0.054694
C253	C	0.872132	-0.045423	-0.771953
C254	C	1.122132	0.204577	-0.521953
C255	C	1.372132	0.454577	-0.271953
C256	C	1.622132	0.704577	-0.021953
C257	C	0.776883	-0.140619	-0.771950
C258	C	1.026883	0.109381	-0.521950
C259	C	1.276883	0.359381	-0.271950
C260	C	1.526883	0.609381	-0.021950
C261	C	0.776880	-0.140617	-0.695305
C262	C	1.026880	0.109383	-0.445305
C263	C	1.276880	0.359383	-0.195305
C264	C	1.526880	0.609383	0.054695
C265	C	0.824509	-0.093022	-0.656988
C266	C	1.074509	0.156978	-0.406988
C267	C	1.324509	0.406978	-0.156988
C268	C	1.574509	0.656978	0.093012
N269	N	0.824515	-0.093020	0.189728
N270	N	1.074515	0.156980	0.439728
N271	N	1.324515	0.406980	0.689728
N272	N	1.574515	0.656980	0.939728
H273	H	0.464976	-0.210765	0.000031
H274	H	0.714976	0.039235	0.250031
H275	H	0.964976	0.289235	0.500031
H276	H	1.214976	0.539235	0.750031
H277	H	0.910870	-0.006663	-0.196794
H278	H	1.160870	0.243337	0.053206
H279	H	1.410870	0.493337	0.303206
H280	H	1.660870	0.743337	0.553206
H281	H	0.495897	0.020129	0.000011
H282	H	0.745897	0.270129	0.250011
H283	H	0.995897	0.520129	0.500011
H284	H	1.245897	0.770129	0.750011
H285	H	0.910914	-0.006667	-0.803151
H286	H	1.160914	0.243333	-0.553151
H287	H	1.410914	0.493333	-0.303151
H288	H	1.660914	0.743333	-0.053151
F289	F	0.044908	0.042729	0.000034
F290	F	0.294908	0.292729	0.250034
F291	F	0.544908	0.542729	0.500034
F292	F	0.794908	0.792729	0.750034
F293	F	0.726202	-0.191272	-0.812735
F294	F	0.976202	0.058728	-0.562735
F295	F	1.226202	0.308728	-0.312735
F296	F	1.476202	0.558728	-0.062735
F297	F	0.922788	0.005237	-0.345421
F298	F	1.172788	0.255237	-0.095421
F299	F	1.422788	0.505237	0.154579
F300	F	1.672788	0.755237	0.404579
F301	F	0.604061	-0.228757	0.000047
F302	F	0.854061	0.021243	0.250047
F303	F	1.104061	0.271243	0.500047
F304	F	1.354061	0.521243	0.750047
H305	H	0.937640	0.578391	0.000005
H306	H	1.187640	0.828391	0.250005
H307	H	1.437640	1.078391	0.500005
H308	H	1.687640	1.328391	0.750005
F309	F	0.922820	0.005230	-0.654526
F310	F	1.172820	0.255230	-0.404526
F311	F	1.422820	0.505230	-0.154526
F312	F	1.672820	0.755230	0.095474
F313	F	0.639243	0.033955	0.000015
F314	F	0.889243	0.283955	0.250015
F315	F	1.139243	0.533955	0.500015
F316	F	1.389243	0.783955	0.750015
H317	H	0.183999	0.024728	0.000022
H318	H	0.433999	0.274728	0.250022
H319	H	0.683999	0.524728	0.500022
H320	H	0.933999	0.774728	0.750022
F321	F	0.688754	0.686564	0.000027
F322	F	0.938754	0.936564	0.250027
F323	F	1.188754	1.186564	0.500027
F324	F	1.438754	1.436564	0.750027
F325	F	0.960224	0.127404	-0.000004
F326	F	1.210224	0.377404	0.249996
F327	F	1.460224	0.627404	0.499996
F328	F	1.710224	0.877404	0.749996
F329	F	0.958008	0.277725	-0.000005
F330	F	1.208008	0.527725	0.249995
F331	F	1.458008	0.777725	0.499995
F332	F	1.708008	1.027725	0.749995
F333	F	0.695299	0.242553	0.000012
F334	F	0.945299	0.492553	0.250012
F335	F	1.195299	0.742553	0.500012
F336	F	1.445299	0.992553	0.750012
H337	H	0.713283	0.103463	0.000011
H338	H	0.963283	0.353463	0.250011
H339	H	1.213283	0.603463	0.500011
H340	H	1.463283	0.853463	0.750011
F341	F	0.726192	-0.191271	-0.654522
F342	F	0.976192	0.058729	-0.404522
F343	F	1.226192	0.308729	-0.154522
F344	F	1.476192	0.558729	0.095478
H345	H	0.706745	0.547478	0.000018
H346	H	0.956745	0.797478	0.250018
H347	H	1.206745	1.047478	0.500018
H348	H	1.456745	1.297478	0.750018
F349	F	0.009731	-0.219987	0.000046
F350	F	0.259731	0.030013	0.250046
F351	F	0.509731	0.280013	0.500046
F352	F	0.759731	0.530013	0.750046
F353	F	0.726163	-0.191261	-0.345422
F354	F	0.976163	0.058739	-0.095422
F355	F	1.226163	0.308739	0.154578
F356	F	1.476163	0.558739	0.404578
F357	F	0.160052	-0.222204	0.000043
F358	F	0.410052	0.027796	0.250043
F359	F	0.660052	0.277796	0.500043
F360	F	0.910052	0.527796	0.750043
H361	H	0.935692	0.710501	0.000023
H362	H	1.185692	0.960501	0.250023
H363	H	1.435692	1.210501	0.500023
H364	H	1.685692	1.460501	0.750023
F365	F	0.726141	-0.191256	-0.187209
F366	F	0.976141	0.058744	0.062791
F367	F	1.226141	0.308744	0.312791
F368	F	1.476141	0.558744	0.562791
