data_functionalizedCrystal
_audit_creation_method	'MofGen! by Chris Wilmer'
_symmetry_space_group_name_H-M	'P1'
_symmetry_Int_Tables_number	1
_symmetry_cell_setting	triclinic
loop_
_symmetry_equiv_pos_as_xyz
  x,y,z
_cell_length_a	10.723024
_cell_length_b	15.995343
_cell_length_c	9.798715
_cell_angle_alpha	89.992131
_cell_angle_beta	89.996609
_cell_angle_gamma	83.978527
loop_
_atom_site_label
_atom_site_type_symbol
_atom_site_fract_x
_atom_site_fract_y
_atom_site_fract_z
O1	O	1.655684	0.117435	-0.113498
O2	O	1.292388	0.128676	-0.113504
O3	O	1.483972	0.001224	-0.113476
O4	O	1.464100	0.244886	-0.113527
O5	O	1.483958	0.001224	0.113507
O6	O	1.292374	0.128676	0.113478
O7	O	1.655670	0.117435	0.113484
Zn8	Zn	1.474020	0.123055	0.149519
Zn9	Zn	1.474038	0.123056	-0.149539
O10	O	1.464086	0.244886	0.113456
C11	C	1.245892	0.127858	-0.000014
C12	C	1.107369	0.125410	-0.000015
C13	C	1.483145	-0.029975	0.000019
C14	C	1.480687	-0.122940	0.000030
C15	C	1.031473	0.196725	-0.000031
C16	C	0.888302	0.194197	-0.000032
C17	C	1.476226	-0.293152	-0.000001
C18	C	1.337932	-0.317292	-0.000007
C19	C	1.335330	-0.413985	-0.000537
C20	C	1.471832	-0.460737	-0.000031
C21	C	1.541377	-0.431239	-0.129387
C22	C	1.543017	-0.334437	-0.129480
C23	C	1.545025	-0.334530	0.128650
C24	C	1.539920	-0.431054	0.130335
C25	C	1.469356	-0.555450	-0.000052
C26	C	1.478706	-0.198440	0.000010
C27	C	1.702166	0.118253	-0.000010
C28	C	1.840689	0.120700	-0.000017
C29	C	1.464913	0.276086	-0.000042
C30	C	1.467371	0.369051	-0.000062
N31	N	1.474016	0.123054	0.353619
N32	N	1.474052	0.123050	-0.353639
C33	C	1.554460	0.069305	0.421408
C34	C	1.554480	0.069302	0.578571
H35	H	0.823088	0.255249	-0.000051
H36	H	0.905896	0.059646	-0.000012
H37	H	1.285207	-0.288605	-0.092634
H38	H	1.405181	0.169072	0.588074
C39	C	1.051978	0.040396	0.000003
H40	H	1.118160	-0.004019	0.000023
H41	H	1.001810	0.036375	-0.079147
H42	H	1.001807	0.036377	0.079170
C43	C	1.647480	0.007140	0.342642
H44	H	1.635268	0.015300	0.247344
H45	H	1.633724	-0.048797	0.366008
H46	H	1.730847	0.016577	0.365969
C47	C	1.086871	0.281737	-0.000050
H48	H	1.175831	0.272284	-0.000056
H49	H	1.059478	0.312689	0.079094
H50	H	1.059491	0.312683	-0.079224
C51	C	1.261782	-0.440113	0.124696
H52	H	1.233223	-0.391591	0.176351
H53	H	1.314864	-0.477581	0.179731
H54	H	1.191858	-0.467271	0.095258
H55	H	1.284322	-0.289597	0.092744
C56	C	1.682532	-0.314804	0.130355
H57	H	1.697991	-0.281516	0.053089
H58	H	1.736475	-0.365830	0.127707
H59	H	1.697952	-0.284874	0.211310
C60	C	1.647524	0.007133	0.657308
H61	H	1.697986	-0.026583	0.594389
H62	H	1.602443	-0.027870	0.713069
H63	H	1.699568	0.037503	0.713028
C64	C	1.262157	-0.439312	-0.126546
H65	H	1.233918	-0.390478	-0.177619
H66	H	1.192055	-0.466554	-0.097906
H67	H	1.315370	-0.476519	-0.181874
C68	C	1.478722	-0.298608	-0.260597
H69	H	1.451842	-0.343233	-0.313300
H70	H	1.536362	-0.270240	-0.312204
H71	H	1.408271	-0.260256	-0.237170
C72	C	1.380974	0.185208	0.432379
H73	H	1.330490	0.218923	0.369468
H74	H	1.426051	0.220214	0.488118
H75	H	1.328952	0.154824	0.488123
C76	C	1.680011	-0.313956	-0.137000
H77	H	1.734416	-0.364779	-0.139990
H78	H	1.698744	-0.282484	-0.058793
H79	H	1.691389	-0.281981	-0.216907
H80	H	1.501387	-0.306516	0.226733
C81	C	1.677088	-0.473481	-0.135418
H82	H	1.717409	-0.454762	-0.214397
H83	H	1.676375	-0.532769	-0.139312
H84	H	1.721212	-0.458960	-0.056266
C85	C	1.476930	-0.458731	-0.259940
H86	H	1.407652	-0.488177	-0.235892
H87	H	1.535073	-0.494451	-0.312168
H88	H	1.448276	-0.410516	-0.312290
H89	H	1.639525	-0.463431	0.138537
C90	C	1.471536	-0.456549	0.259622
H91	H	1.401783	-0.485167	0.234273
H92	H	1.443155	-0.407654	0.310438
H93	H	1.527489	-0.492582	0.313907
