data_functionalizedCrystal
_audit_creation_method	'MofGen! by Chris Wilmer'
_symmetry_space_group_name_H-M	'P1'
_symmetry_Int_Tables_number	1
_symmetry_cell_setting	triclinic
loop_
_symmetry_equiv_pos_as_xyz
  x,y,z
_cell_length_a	14.395555
_cell_length_b	14.446369
_cell_length_c	14.446369
_cell_angle_alpha	60.000250
_cell_angle_beta	90.003244
_cell_angle_gamma	60.000723
loop_
_atom_site_label
_atom_site_type_symbol
_atom_site_fract_x
_atom_site_fract_y
_atom_site_fract_z
Zr1	Zr	0.894923	1.013195	-0.121472
O2	O	0.746595	1.206313	-0.269290
O3	O	0.940393	0.820076	-0.076152
O4	O	0.940395	1.013185	-0.269271
O5	O	0.746593	1.013212	0.076157
O6	O	1.093269	1.013178	-0.269263
O7	O	0.746593	1.013204	-0.076171
O8	O	1.093265	0.667742	0.076192
O9	O	0.746596	1.358648	-0.269297
O10	O	1.073875	0.899504	-0.056825
O11	O	0.959786	0.899515	0.056850
O12	O	0.959789	1.126876	-0.170523
O13	O	0.845700	1.126887	-0.056848
Zr14	Zr	1.138740	1.013197	0.121487
Zr15	Zr	1.138740	1.013184	-0.121460
Zr16	Zr	0.894923	1.013208	0.121474
Zr17	Zr	0.894926	1.256153	-0.121484
Zr18	Zr	1.138738	0.770239	0.121498
O19	O	1.093270	1.206316	0.076167
O20	O	1.093271	1.206297	-0.269272
O21	O	0.746595	1.206331	0.076149
O22	O	1.287068	0.820079	0.269305
O23	O	1.287069	0.820060	-0.076134
O24	O	0.940392	0.820095	0.269287
O25	O	1.287070	1.013180	-0.076143
O26	O	1.093268	1.013207	0.269286
O27	O	0.940394	1.013214	0.269278
O28	O	1.287070	1.013188	0.076186
O29	O	0.940398	1.358640	-0.269287
O30	O	1.093265	0.667752	0.269302
O31	O	1.287067	0.667744	0.269312
O32	O	1.287067	0.667733	0.076202
O33	O	0.746596	1.358659	-0.076187
O34	O	0.940398	1.358650	-0.076177
O35	O	1.073874	0.899516	0.170538
O36	O	1.187963	0.899505	0.056862
O37	O	1.073877	1.126877	-0.056835
O38	O	0.959788	1.126888	0.056840
C39	C	1.016829	0.709293	0.000021
C40	C	1.016828	0.606151	0.000026
C41	C	0.945217	0.459148	0.072049
C42	C	0.944828	0.566768	0.071758
C43	C	0.964337	0.655142	-0.123512
C44	C	0.963799	0.547910	-0.123138
C45	C	1.140980	0.372690	0.050477
C46	C	1.140798	0.478841	0.052998
C47	C	0.711854	1.013210	-0.000009
C48	C	0.608348	1.013214	-0.000014
C49	C	0.485554	1.137187	-0.061997
C50	C	0.454718	1.075209	-0.106910
C51	C	0.454761	1.075188	0.044890
C52	C	0.578875	0.951235	-0.044990
C53	C	0.578914	0.951232	0.106870
C54	C	0.548152	0.889163	0.061984
C55	C	1.321809	1.013182	0.000024
C56	C	1.425315	1.013178	0.000029
C57	C	1.016832	1.013179	-0.303882
C58	C	1.016832	1.013174	-0.407019
C59	C	1.016834	1.317099	-0.000007
C60	C	1.016835	1.420241	-0.000011
C61	C	1.089144	0.869785	-0.481991
C62	C	1.088831	0.869689	-0.374663
C63	C	0.892867	1.084407	-0.481589
C64	C	0.893264	1.083497	-0.588448
C65	C	1.067483	1.086442	-0.590012
C66	C	1.069991	1.083739	-0.481340
C67	C	1.016831	1.013213	0.303897
C68	C	1.016831	1.013218	0.407034
C69	C	1.321806	0.709279	0.000038
C70	C	1.425312	0.606132	0.000048
C71	C	1.016828	0.709309	0.303911
C72	C	1.016827	0.606173	0.407053
C73	C	1.321806	0.709296	0.303927
C74	C	1.425311	0.606155	0.407074
C75	C	0.711857	1.317096	-0.303912
C76	C	0.608352	1.420237	-0.407060
C77	C	0.711857	1.317113	-0.000023
C78	C	0.608351	1.420260	-0.000033
C79	C	1.016835	1.317083	-0.303896
C80	C	1.016836	1.420219	-0.407038
C81	C	1.644449	0.459813	0.071390
C82	C	1.536840	0.566741	0.071790
C83	C	1.428651	0.479276	0.052350
C84	C	1.536799	0.371894	0.052874
C85	C	1.535422	0.546864	-0.123685
C86	C	1.429081	0.655340	-0.123491
C87	C	0.944523	0.459862	0.482038
C88	C	0.944829	0.566783	0.374705
C89	C	1.140794	0.479314	0.481619
C90	C	1.140405	0.371939	0.588482
C91	C	0.966187	0.546920	0.590051
C92	C	0.963672	0.655390	0.481375
C93	C	1.500561	0.459821	0.625442
C94	C	1.392849	0.566764	0.518205
C95	C	1.500116	0.479302	0.410395
C96	C	1.607357	0.371905	0.518169
C97	C	1.608978	0.546850	0.516822
C98	C	1.499919	0.655341	0.410848
H99	H	0.873857	0.747452	-0.164205
N100	N	1.209743	0.795660	-0.302752
H101	H	1.263726	0.762795	-0.340650
H102	H	1.227090	0.718936	-0.225658
N103	N	1.717524	0.341044	0.191539
H104	H	1.678381	0.355667	0.245678
H105	H	1.793521	0.326240	0.209404
N106	N	1.603753	0.251754	0.173480
H107	H	1.555511	0.219357	0.204917
H108	H	1.626028	0.274625	0.221163
H109	H	1.527451	0.501547	0.332135
H110	H	0.836452	1.188731	-0.667035
H111	H	1.613123	0.586407	0.566848
H112	H	1.013995	0.683922	-0.179524
N113	N	1.501375	0.332197	-0.011521
H114	H	1.534486	0.235827	0.040357
H115	H	1.530266	0.349783	-0.077936
N116	N	1.497461	0.509130	0.696929
H117	H	1.499482	0.588343	0.653050
H118	H	1.565508	0.437987	0.768806
H119	H	0.573808	0.784246	0.114407
H120	H	1.022797	1.188418	-0.506863
H121	H	0.460112	1.242018	-0.114495
H122	H	0.979965	0.529312	0.320922
H123	H	1.686217	0.341939	0.491521
N124	N	1.215279	0.508768	0.517684
H125	H	1.245250	0.454885	0.603173
H126	H	1.169203	0.604879	0.485885
H127	H	1.448341	0.745801	0.411409
N128	N	1.538978	0.685091	0.025373
H129	H	1.469727	0.763663	-0.044213
H130	H	1.610038	0.668012	0.004520
H131	H	1.525536	0.687463	0.331696
N132	N	1.540110	0.517101	0.192669
H133	H	1.541994	0.435307	0.229064
H134	H	1.470140	0.586504	0.193357
H135	H	1.184836	0.278946	0.140046
N136	N	1.606975	0.251708	0.584859
H137	H	1.676491	0.180882	0.655397
H138	H	1.607922	0.219462	0.536661
H139	H	1.198654	0.500338	0.005973
H140	H	0.980240	0.370284	0.163244
H141	H	1.180955	0.281184	0.588214
H142	H	0.854184	0.494913	0.037340
N143	N	0.823534	0.684409	0.025390
H144	H	0.770112	0.666480	0.005052
H145	H	0.813422	0.763109	-0.044517
H146	H	0.872446	0.588609	-0.163556
H147	H	1.012594	0.525936	-0.179745
H148	H	1.499511	0.370163	0.680415
N149	N	1.498949	0.514028	-0.194462
H150	H	1.449863	0.595761	-0.273842
H151	H	1.454168	0.477715	-0.159371
H152	H	1.157390	1.040539	-0.594122
H153	H	0.836648	1.189907	-0.508827
N154	N	1.321334	0.517162	0.521425
H155	H	1.250986	0.586506	0.451699
H156	H	1.298311	0.496357	0.591486
H157	H	0.979330	0.370194	0.481009
N158	N	1.192783	0.426432	0.173525
H159	H	1.136273	0.484897	0.193744
H160	H	1.263643	0.424432	0.180843
H161	H	1.181629	0.440752	0.430016
H162	H	0.876281	0.586496	0.594161
H163	H	1.194591	0.346710	-0.001759
H164	H	1.054334	0.813773	-0.480957
H165	H	1.010870	0.687515	0.506898
H166	H	1.053702	0.813442	-0.320876
H167	H	0.401201	1.127601	-0.197284
N168	N	0.823919	0.685138	0.302774
H169	H	0.814328	0.763703	0.293791
H170	H	0.770003	0.668057	0.340714
N171	N	1.425838	0.428185	0.171791
H172	H	1.428025	0.346545	0.204720
H173	H	1.353713	0.497109	0.170686
H174	H	0.632234	0.898873	-0.083053
N175	N	1.215658	0.332231	0.692590
H176	H	1.185677	0.410865	0.694588
H177	H	1.295713	0.296958	0.690117
H178	H	0.401255	1.127612	0.082850
H179	H	1.698596	0.497050	0.036488
H180	H	0.632428	0.898885	0.197225
H181	H	1.161324	1.031790	-0.429916
H182	H	1.350107	0.501523	0.002869
N183	N	1.601902	0.599282	-0.181565
H184	H	1.682258	0.541452	-0.128176
H185	H	1.564306	0.691254	-0.203354
N186	N	0.838763	1.018888	-0.413247
H187	H	0.894343	0.943079	-0.334000
H188	H	0.817640	0.985651	-0.450634
N189	N	1.210377	0.795199	-0.478872
H190	H	1.219605	0.853656	-0.549366
H191	H	1.228990	0.716002	-0.475444
N192	N	0.839566	1.016437	-0.588097
H193	H	0.758804	1.065542	-0.589102
H194	H	0.884714	0.923667	-0.517574
H195	H	1.015044	1.192115	-0.668218
H196	H	1.349643	0.687467	-0.181142
N197	N	1.429782	0.775193	-0.175234
H198	H	1.358682	0.846827	-0.177963
H199	H	1.432256	0.806286	-0.254653
H200	H	0.853004	0.497105	0.479697
N201	N	1.431502	0.428255	0.407531
H202	H	1.351980	0.487087	0.404087
H203	H	1.469001	0.336579	0.478141
H204	H	1.687473	0.522049	0.489383
H205	H	0.980037	0.530061	0.162727
N206	N	0.842688	0.775236	0.413252
H207	H	0.841895	0.846869	0.344338
H208	H	0.809000	0.806338	0.461568
H209	H	1.018609	0.522131	0.668270
H210	H	1.338396	0.656110	0.519824
