data_functionalizedCrystal
_audit_creation_method	'MofGen! by Chris Wilmer'
_symmetry_space_group_name_H-M	'P1'
_symmetry_Int_Tables_number	1
_symmetry_cell_setting	triclinic
loop_
_symmetry_equiv_pos_as_xyz
  x,y,z
_cell_length_a	17.699083
_cell_length_b	14.853567
_cell_length_c	16.776229
_cell_angle_alpha	89.997147
_cell_angle_beta	89.998886
_cell_angle_gamma	83.458972
loop_
_atom_site_label
_atom_site_type_symbol
_atom_site_fract_x
_atom_site_fract_y
_atom_site_fract_z
O1	O	1.004374	0.114008	-0.066170
O2	O	0.784034	0.128841	-0.066195
O3	O	0.900090	-0.009827	-0.066184
O4	O	0.888319	0.252676	-0.066181
O5	O	0.900075	-0.009835	0.066392
O6	O	0.784019	0.128832	0.066381
O7	O	1.004359	0.114000	0.066407
Zn8	Zn	0.894187	0.121415	0.087443
Zn9	Zn	0.894207	0.121426	-0.087232
O10	O	0.888303	0.252667	0.066396
C11	C	0.755828	0.128305	0.000090
C12	C	0.671806	0.126711	0.000080
C13	C	0.623396	0.208106	0.000081
C14	C	0.544449	0.206602	0.000092
C15	C	0.513913	0.123703	0.000095
C16	C	0.562329	0.042301	0.000096
C17	C	0.641275	0.043806	0.000091
C18	C	0.243950	0.036232	0.000116
C19	C	0.164999	0.034734	0.000118
C20	C	0.147125	0.199028	0.000116
C21	C	0.226070	0.200533	0.000111
C22	C	0.274479	0.119132	0.000116
C23	C	0.360083	0.120763	0.000107
C24	C	0.428311	0.122070	0.000099
C25	C	0.899549	-0.043418	0.000102
C26	C	0.897951	-0.143496	0.000095
C27	C	0.822255	-0.555751	0.000101
C28	C	0.960131	-0.577539	0.000117
C29	C	0.961634	-0.483511	0.000112
C30	C	0.893446	-0.425598	0.000103
C31	C	0.823756	-0.461714	0.000099
C32	C	1.031324	-0.447389	0.000125
C33	C	1.032829	-0.353355	0.000121
C34	C	0.964641	-0.295441	0.000107
C35	C	0.894947	-0.331561	0.000101
C36	C	0.826759	-0.273648	0.000092
C37	C	0.757065	-0.309767	0.000081
C38	C	0.755567	-0.403799	0.000084
C39	C	0.966139	-0.201409	0.000104
C40	C	0.828260	-0.179611	0.000090
C41	C	1.032565	0.114535	0.000120
C42	C	1.116587	0.116130	0.000125
C43	C	0.888844	0.286258	0.000108
C44	C	0.890443	0.386336	0.000110
N45	N	0.894178	0.121406	0.206655
N46	N	0.894221	0.121427	-0.206443
C47	C	0.945583	0.060029	0.248377
C48	C	0.945587	0.060029	0.331829
C49	C	0.894190	0.121410	0.373558
C50	C	0.842779	0.182790	0.331830
C51	C	0.842772	0.182786	0.248379
C52	C	0.842806	0.182808	0.668377
C53	C	0.842819	0.182809	0.751834
C54	C	0.945622	0.060051	0.751827
C55	C	0.945615	0.060046	0.668376
C56	C	0.894202	0.121423	0.626656
C57	C	0.894197	0.121422	0.536167
C58	C	0.894198	0.121416	0.464044
H59	H	0.680690	-0.022475	0.000090
C60	C	0.297193	-0.053307	0.000118
C61	C	0.384032	-0.051665	0.000120
C62	C	0.437279	-0.141208	0.000123
C63	C	0.403688	-0.232393	0.000123
C64	C	0.316845	-0.234038	0.000121
C65	C	0.263598	-0.144495	0.000118
H66	H	0.408902	0.015839	0.000120
H67	H	0.501567	-0.139990	0.000125
H68	H	0.443105	-0.298679	0.000126
H69	H	0.291975	-0.301542	0.000121
H70	H	0.199311	-0.145713	0.000116
H71	H	0.765511	-0.585163	0.000089
C72	C	0.678906	-0.443526	0.000079
C73	C	0.622247	-0.421612	-0.068772
C74	C	0.545586	-0.461340	-0.068775
C75	C	0.525586	-0.522982	0.000072
C76	C	0.582247	-0.544899	0.068928
C77	C	0.658907	-0.505171	0.068931
H78	H	0.637051	-0.375978	-0.119741
H79	H	0.503642	-0.445115	-0.119747
H80	H	0.468837	-0.552392	0.000070
H81	H	0.567442	-0.590533	0.119897
H82	H	0.700851	-0.521396	0.119903
C83	C	1.106324	-0.511095	0.000133
C84	C	1.124237	-0.578747	0.068974
C85	C	1.199240	-0.642461	0.068980
C86	C	1.256329	-0.638522	0.000144
C87	C	1.238418	-0.570867	-0.068702
C88	C	1.163415	-0.507154	-0.068708
H89	H	1.081975	-0.581665	0.119935
H90	H	1.212499	-0.692543	0.119945
H91	H	1.311851	-0.685687	0.000148
H92	H	1.280681	-0.567949	-0.119663
H93	H	1.150157	-0.457071	-0.119673
C94	C	0.786239	0.250312	0.377727
C95	C	0.786279	0.250367	0.469520
C96	C	0.729739	0.317894	0.515414
C97	C	0.673160	0.385365	0.469516
C98	C	0.673118	0.385312	0.377718
C99	C	0.729658	0.317786	0.331824
H100	H	0.828164	0.200419	0.503501
H101	H	0.729771	0.317932	0.583369
H102	H	0.631306	0.435352	0.503490
H103	H	0.631233	0.435261	0.343737
H104	H	0.729626	0.317747	0.263869
H105	H	0.648252	0.275612	0.000078
H106	H	1.015647	-0.624697	0.000131
C107	C	0.491195	0.296136	0.000088
C108	C	0.434467	0.317696	0.068936
C109	C	0.381211	0.407233	0.068933
C110	C	0.384683	0.475209	0.000083
C111	C	0.441412	0.453650	-0.068770
C112	C	0.494668	0.364113	-0.068767
H113	H	0.431896	0.267375	0.119907
H114	H	0.339216	0.423192	0.119903
H115	H	0.345259	0.541489	0.000081
H116	H	0.443984	0.503972	-0.119742
H117	H	0.536663	0.348155	-0.119737
H118	H	0.250928	0.268038	0.000105
H119	H	0.107700	0.265309	0.000116
C120	C	1.002123	-0.007493	0.202479
C121	C	1.058664	-0.075010	0.248377
C122	C	1.115204	-0.142536	0.202483
C123	C	1.115202	-0.142546	0.110690
C124	C	1.058659	-0.075026	0.064787
C125	C	1.002120	-0.007500	0.110682
H126	H	1.058667	-0.075005	0.316332
H127	H	1.157060	-0.192518	0.236464
H128	H	1.157056	-0.192533	0.076717
H129	H	1.058656	-0.075031	-0.003168
H130	H	0.960263	0.042483	0.076701
C131	C	1.002152	-0.007475	0.622474
C132	C	1.058695	-0.074995	0.668365
C133	C	1.115230	-0.142520	0.622464
C134	C	1.115222	-0.142524	0.530671
C135	C	1.058676	-0.075001	0.484775
C136	C	1.002141	-0.007476	0.530676
H137	H	1.058703	-0.074994	0.736320
H138	H	1.157089	-0.192505	0.656440
H139	H	1.157073	-0.192510	0.496692
H140	H	1.058668	-0.075002	0.416820
H141	H	0.960282	0.042509	0.496700
H142	H	1.089579	-0.323956	0.000129
C143	C	1.002173	-0.007474	0.797720
C144	C	0.972542	-0.076384	0.855096
C145	C	1.029093	-0.143904	0.900986
C146	C	1.115275	-0.142514	0.889502
C147	C	1.144910	-0.073601	0.832124
C148	C	1.088359	-0.006081	0.786233
H149	H	0.908741	-0.077416	0.863599
H150	H	1.007154	-0.194918	0.943461
H151	H	1.157137	-0.192497	0.923473
H152	H	1.208712	-0.072570	0.823620
H153	H	1.110298	0.044933	0.743758
C154	C	0.786273	0.250327	0.797738
C155	C	0.729718	0.317837	0.751850
C156	C	0.673177	0.385351	0.797754
C157	C	0.673191	0.385356	0.889547
C158	C	0.729748	0.317844	0.935440
C159	C	0.786290	0.250330	0.889535
H160	H	0.729706	0.317835	0.683895
H161	H	0.631309	0.435328	0.763781
H162	H	0.631335	0.435335	0.923528
H163	H	0.729761	0.317846	1.003395
H164	H	0.828157	0.200353	0.923509
H165	H	0.140140	-0.032777	0.000121
H166	H	1.022883	-0.172005	0.000118
H167	H	0.537461	-0.025197	0.000110
H168	H	0.772732	-0.132463	0.000079
H169	H	0.701546	-0.262602	0.000080
H170	H	0.987445	0.010050	0.365798
H171	H	0.800946	0.232784	0.634415
H172	H	0.800912	0.232764	0.214410
