data_functionalizedCrystal
_audit_creation_method	'MofGen! by Chris Wilmer'
_symmetry_space_group_name_H-M	'P1'
_symmetry_Int_Tables_number	1
_symmetry_cell_setting	triclinic
loop_
_symmetry_equiv_pos_as_xyz
  x,y,z
_cell_length_a	17.077404
_cell_length_b	12.594516
_cell_length_c	17.077396
_cell_angle_alpha	90.023494
_cell_angle_beta	89.981638
_cell_angle_gamma	89.975299
loop_
_atom_site_label
_atom_site_type_symbol
_atom_site_fract_x
_atom_site_fract_y
_atom_site_fract_z
Zn1	Zn	1.200034	0.423800	-0.443846
Zn2	Zn	1.533367	0.757133	-0.110513
Zn3	Zn	1.866700	1.090466	0.222821
Zn4	Zn	1.199932	0.601801	-0.312591
Zn5	Zn	1.533265	0.935134	0.020742
Zn6	Zn	1.866599	1.268467	0.354075
Zn7	Zn	1.068765	0.423830	-0.312597
Zn8	Zn	1.402099	0.757163	0.020737
Zn9	Zn	1.735432	1.090497	0.354070
Zn10	Zn	1.068725	0.601730	-0.443818
Zn11	Zn	1.402058	0.935064	-0.110484
Zn12	Zn	1.735391	1.268397	0.222849
O13	O	1.134364	0.512790	-0.378213
O14	O	1.467697	0.846124	-0.044880
O15	O	1.801031	1.179457	0.288454
O16	O	1.309867	0.447429	-0.426445
O17	O	1.643200	0.780762	-0.093111
O18	O	1.976534	1.114095	0.240222
O19	O	1.182507	0.578234	-0.202745
O20	O	1.515840	0.911568	0.130588
O21	O	1.849174	1.244901	0.463922
O22	O	1.086238	0.274880	-0.330021
O23	O	1.419571	0.608214	0.003312
O24	O	1.752905	0.941547	0.336646
O25	O	1.309792	0.578205	-0.330012
O26	O	1.643126	0.911538	0.003321
O27	O	1.976459	1.244872	0.336654
O28	O	1.182680	0.274858	-0.426450
O29	O	1.516014	0.608191	-0.093116
O30	O	1.849347	0.941525	0.240217
O31	O	1.086139	0.447480	-0.202749
O32	O	1.419473	0.780814	0.130584
O33	O	1.752806	1.114147	0.463918
O34	O	0.958913	0.447412	-0.329994
O35	O	1.292246	0.780746	0.003340
O36	O	1.625580	1.114079	0.336673
O37	O	1.086169	0.578085	-0.553668
O38	O	1.419502	0.911419	-0.220335
O39	O	1.752835	1.244752	0.112998
O40	O	0.958883	0.578115	-0.426401
O41	O	1.292216	0.911448	-0.093068
O42	O	1.625550	1.244782	0.240266
O43	O	1.182641	0.447361	-0.553689
O44	O	1.515974	0.780694	-0.220356
O45	O	1.849307	1.114027	0.112977
O46	O	1.182467	0.750737	-0.329985
O47	O	1.515801	1.084070	0.003348
O48	O	1.849134	1.417404	0.336682
O49	O	1.086070	0.750686	-0.426396
O50	O	1.419403	1.084019	-0.093063
O51	O	1.752737	1.417352	0.240270
C52	C	0.930416	0.512760	-0.378195
C53	C	1.263749	0.846093	-0.044862
C54	C	1.597083	1.179427	0.288471
C55	C	0.843166	0.512773	-0.378206
C56	C	1.176500	0.846106	-0.044873
C57	C	1.509833	1.179439	0.288460
C58	C	0.802216	0.444799	-0.428495
C59	C	1.135549	0.778132	-0.095162
C60	C	1.468882	1.111465	0.238171
C61	C	0.720235	0.444805	-0.428499
C62	C	1.053569	0.778139	-0.095166
C63	C	1.386902	1.111472	0.238168
C64	C	0.679207	0.512793	-0.378217
C65	C	1.012540	0.846126	-0.044884
C66	C	1.345874	1.179459	0.288450
C67	C	0.720163	0.580770	-0.327923
C68	C	1.053496	0.914103	0.005411
C69	C	1.386830	1.247437	0.338744
C70	C	0.802142	0.580757	-0.327916
C71	C	1.135475	0.914090	0.005418
C72	C	1.468809	1.247423	0.338751
C73	C	0.549293	0.580794	-0.327942
C74	C	0.882626	0.914127	0.005391
C75	C	1.215960	1.247461	0.338725
C76	C	0.467308	0.580809	-0.327950
C77	C	0.800642	0.914142	0.005383
C78	C	1.133975	1.247475	0.338717
C79	C	0.467386	0.444843	-0.428525
C80	C	0.800720	0.778176	-0.095192
C81	C	1.134053	1.111509	0.238141
C82	C	0.549365	0.444830	-0.428518
C83	C	0.882699	0.778163	-0.095185
C84	C	1.216032	1.111496	0.238148
C85	C	0.590316	0.512808	-0.378225
C86	C	0.923649	0.846142	-0.044891
C87	C	1.256983	1.179475	0.288442
C88	C	1.134274	0.789331	-0.378204
C89	C	1.467608	1.122665	-0.044871
C90	C	1.800941	1.455998	0.288463
C91	C	1.134308	0.907637	-0.378226
C92	C	1.467641	1.240970	-0.044893
C93	C	1.800975	1.574303	0.288440
C94	C	1.081863	0.976900	-0.430627
C95	C	1.415196	1.310234	-0.097294
C96	C	1.748529	1.643567	0.236039
C97	C	1.062729	1.047760	-0.359000
C98	C	1.396062	1.381093	-0.025666
C99	C	1.729396	1.714426	0.307667
C100	C	1.153484	1.047576	-0.449865
C101	C	1.486818	1.380910	-0.116532
C102	C	1.820151	1.714243	0.216801
C103	C	1.115137	0.976938	-0.306561
C104	C	1.448470	1.310271	0.026773
C105	C	1.781803	1.643604	0.360106
C106	C	1.205925	0.976748	-0.397475
C107	C	1.539258	1.310081	-0.064142
C108	C	1.872592	1.643415	0.269192
C109	C	1.186819	1.047575	-0.325798
C110	C	1.520152	1.380909	0.007536
C111	C	1.853485	1.714242	0.340869
C112	C	1.339108	0.512821	-0.378231
C113	C	1.672441	0.846155	-0.044898
C114	C	2.005775	1.179488	0.288436
C115	C	1.426358	0.512835	-0.378239
C116	C	1.759691	0.846168	-0.044905
C117	C	2.093025	1.179501	0.288428
C118	C	1.134411	0.512712	-0.582957
C119	C	1.467745	0.846045	-0.249624
C120	C	1.801078	1.179378	0.083709
C121	C	1.134432	0.512678	-0.670207
C122	C	1.467765	0.846012	-0.336874
C123	C	1.801098	1.179345	-0.003540
C124	C	1.134441	1.235169	-0.378238
C125	C	1.467774	1.568503	-0.044905
C126	C	1.801107	1.901836	0.288429
C127	C	1.134385	1.116864	-0.378246
C128	C	1.467718	1.450197	-0.044912
C129	C	1.801052	1.783531	0.288421
C130	C	1.184667	0.444604	-0.711209
C131	C	1.518000	0.777938	-0.377876
C132	C	1.851333	1.111271	-0.044543
C133	C	1.184676	0.444569	-0.793190
C134	C	1.518009	0.777902	-0.459857
C135	C	1.851343	1.111236	-0.126523
C136	C	1.134454	0.512614	-0.834167
C137	C	1.467787	0.845947	-0.500833
C138	C	1.801121	1.179280	-0.167500
C139	C	1.084214	0.580691	-0.793159
C140	C	1.417547	0.914024	-0.459825
C141	C	1.750880	1.247357	-0.126492
C142	C	1.084201	0.580720	-0.711180
C143	C	1.417534	0.914053	-0.377846
C144	C	1.750867	1.247387	-0.044513
C145	C	1.084245	0.580627	-0.964029
C146	C	1.417578	0.913960	-0.630695
C147	C	1.750912	1.247293	-0.297362
C148	C	1.084259	0.580599	-1.046013
C149	C	1.417592	0.913933	-0.712680
C150	C	1.750925	1.247266	-0.379347
C151	C	1.184720	0.444476	-1.046039
C152	C	1.518054	0.777809	-0.712706
C153	C	1.851387	1.111142	-0.379372
C154	C	1.184708	0.444505	-0.964060
C155	C	1.518041	0.777838	-0.630727
C156	C	1.851374	1.111172	-0.297393
C157	C	1.134468	0.512584	-0.923058
C158	C	1.467801	0.845917	-0.589724
C159	C	1.801135	1.179250	-0.256391
C160	C	1.134362	0.512792	-0.174265
C161	C	1.467695	0.846125	0.159068
C162	C	1.801028	1.179458	0.492402
C163	C	1.134494	0.512525	-0.087016
C164	C	1.467827	0.845858	0.246318
C165	C	1.801160	1.179192	0.579651
H166	H	0.433905	0.636171	-0.287006
H167	H	0.767239	0.969504	0.046327
H168	H	1.100572	1.302837	0.379660
H169	H	0.582632	0.636147	-0.286986
H170	H	0.915966	0.969480	0.046348
H171	H	1.249299	1.302814	0.379681
Cl172	Cl	0.668584	0.666234	-0.264706
Cl173	Cl	1.001918	0.999568	0.068627
Cl174	Cl	1.335251	1.332901	0.401960
Cl175	Cl	0.853786	0.359328	-0.491714
Cl176	Cl	1.187120	0.692662	-0.158381
Cl177	Cl	1.520453	1.025995	0.174952
H178	H	1.043362	0.636005	-1.079374
H179	H	1.376695	0.969338	-0.746041
H180	H	1.710028	1.302672	-0.412708
Cl181	Cl	1.021043	0.666299	-0.659634
Cl182	Cl	1.354376	0.999633	-0.326300
Cl183	Cl	1.687710	1.332966	0.007033
Cl184	Cl	1.021085	0.666212	-0.912484
Cl185	Cl	1.354418	0.999545	-0.579151
Cl186	Cl	1.687751	1.332878	-0.245818
H187	H	0.582768	0.389475	-0.469467
H188	H	0.916102	0.722808	-0.136134
H189	H	1.249435	1.056141	0.197200
Cl190	Cl	0.668758	0.359351	-0.491725
Cl191	Cl	1.002091	0.692685	-0.158391
Cl192	Cl	1.335425	1.026018	0.174942
Cl193	Cl	0.853623	0.666215	-0.264693
Cl194	Cl	1.186956	0.999548	0.068640
Cl195	Cl	1.520290	1.332881	0.401973
H196	H	0.434040	0.389490	-0.469475
H197	H	0.767374	0.722823	-0.136142
H198	H	1.100707	1.056156	0.197192
H199	H	1.169673	1.078605	-0.510442
H200	H	1.503006	1.411939	-0.177109
H201	H	1.836340	1.745272	0.156225
H202	H	1.266440	0.945536	-0.413774
H203	H	1.599773	1.278869	-0.080440
H204	H	1.933106	1.612203	0.252893
H205	H	1.231203	1.078412	-0.281441
H206	H	1.564536	1.411746	0.051892
H207	H	1.897869	1.745079	0.385226
Cl208	Cl	1.021074	0.666230	-0.844672
Cl209	Cl	1.354407	0.999563	-0.511339
Cl210	Cl	1.687741	1.332896	-0.178006
H211	H	1.225566	0.389197	-0.677852
H212	H	1.558899	0.722531	-0.344519
H213	H	1.892232	1.055864	-0.011185
Cl214	Cl	1.013289	0.928983	-0.498946
Cl215	Cl	1.346622	1.262316	-0.165613
Cl216	Cl	1.679955	1.595649	0.167720
H217	H	1.002201	1.078975	-0.342735
H218	H	1.335534	1.412308	-0.009402
H219	H	1.668867	1.745641	0.323931
H220	H	1.098878	0.946037	-0.245968
H221	H	1.432211	1.279370	0.087366
H222	H	1.765545	1.612704	0.420699
Cl223	Cl	1.247866	0.359033	-0.844732
Cl224	Cl	1.581199	0.692366	-0.511399
Cl225	Cl	1.914533	1.025700	-0.178066
H226	H	1.225607	0.389103	-0.930699
H227	H	1.558941	0.722436	-0.597366
H228	H	1.892274	1.055769	-0.264032
Cl229	Cl	1.247880	0.358892	-1.097584
Cl230	Cl	1.581213	0.692225	-0.764251
Cl231	Cl	1.914546	1.025559	-0.430918
