data_functionalizedCrystal
_audit_creation_method	'MofGen! by Chris Wilmer'
_symmetry_space_group_name_H-M	'P1'
_symmetry_Int_Tables_number	1
_symmetry_cell_setting	triclinic
loop_
_symmetry_equiv_pos_as_xyz
  x,y,z
_cell_length_a	17.019284
_cell_length_b	17.699083
_cell_length_c	16.176319
_cell_angle_alpha	89.998611
_cell_angle_beta	86.124207
_cell_angle_gamma	96.663576
loop_
_atom_site_label
_atom_site_type_symbol
_atom_site_fract_x
_atom_site_fract_y
_atom_site_fract_z
O1	O	-0.099757	1.004143	-0.061524
O2	O	-0.112735	0.783773	-0.060626
O3	O	0.008598	0.900110	-0.069251
O4	O	-0.221090	0.887805	-0.052900
O5	O	0.008606	0.900094	0.068242
O6	O	-0.112727	0.783757	0.076866
O7	O	-0.099749	1.004127	0.075969
Cu8	Cu	-0.106237	0.893940	0.088972
Cu9	Cu	-0.106247	0.893959	-0.073629
O10	O	-0.221082	0.887789	0.084593
C11	C	-0.112266	0.755567	0.008083
C12	C	-0.110871	0.671548	0.007974
C13	C	-0.182091	0.622973	0.013044
C14	C	-0.180776	0.544029	0.012961
C15	C	-0.108239	0.513662	0.007802
C16	C	-0.037013	0.562243	0.002734
C17	C	-0.038330	0.641186	0.002823
C18	C	-0.031703	0.243877	0.002376
C19	C	-0.030392	0.164928	0.002285
C20	C	-0.174149	0.146720	0.012514
C21	C	-0.175465	0.225662	0.012603
C22	C	-0.104240	0.274237	0.007540
C23	C	-0.105667	0.359837	0.007631
C24	C	-0.106811	0.428063	0.007704
C25	C	-0.250474	0.888262	0.017939
C26	C	-0.338042	0.889657	0.024173
C27	C	-0.379183	0.890321	-0.047846
C28	C	-0.461460	0.891641	-0.041988
C29	C	-0.502596	0.892291	0.035889
C30	C	-0.461450	0.891629	0.107914
C31	C	-0.379173	0.890314	0.102055
C32	C	-0.751019	0.896266	0.057328
C33	C	-0.833301	0.897578	0.063181
C34	C	-0.833306	0.897592	-0.086722
C35	C	-0.751028	0.896272	-0.092573
C36	C	-0.709888	0.895614	-0.020549
C37	C	-0.586698	0.893638	0.041879
C38	C	-0.625788	0.894273	-0.026539
C39	C	0.037990	0.899637	-0.002598
C40	C	0.125558	0.898243	-0.008838
C41	C	-0.100218	1.032332	0.007257
C42	C	-0.101613	1.116351	0.007361
N43	N	-0.106231	0.893932	0.203336
N44	N	-0.106247	0.893973	-0.187995
C45	C	-0.052526	0.945462	0.242783
C46	C	-0.052525	0.945466	0.329330
C47	C	-0.106233	0.893943	0.376429
C48	C	-0.159940	0.842408	0.336976
C49	C	-0.159937	0.842401	0.250431
C50	C	-0.159955	0.842434	0.686006
C51	C	-0.159956	0.842446	0.772557
C52	C	-0.052543	0.945499	0.764905
C53	C	-0.052540	0.945492	0.678360
C54	C	-0.106244	0.893954	0.638914
C55	C	-0.106243	0.893950	0.545070
C56	C	-0.106238	0.893951	0.470272
H57	H	0.019665	0.680736	-0.001306
Cl58	Cl	-0.227452	0.777615	0.200841
Cl59	Cl	0.054176	0.524067	-0.003747
H60	H	0.026293	0.283417	-0.001746
H61	H	-0.494949	0.892163	0.171323
H62	H	-0.345677	0.889773	0.160701
Cl63	Cl	-0.638419	0.894452	0.139779
Cl64	Cl	-0.885027	0.898436	-0.177260
H65	H	-0.238770	0.504481	0.017089
Cl66	Cl	-0.227470	0.777648	0.636423
Cl67	Cl	-0.574072	0.893461	-0.124439
H68	H	-0.008794	0.987421	0.204441
Cl69	Cl	-0.227457	0.777631	0.396184
Cl70	Cl	-0.885013	0.898407	0.161092
H71	H	-0.345696	0.889785	-0.111262
H72	H	-0.008808	0.987449	0.640014
Cl73	Cl	-0.263691	0.085649	0.018884
Cl74	Cl	0.014991	1.010247	0.378922
Cl75	Cl	0.014975	1.010288	0.814498
Cl76	Cl	-0.227479	0.777668	0.831767
Cl77	Cl	-0.699320	0.895457	-0.190481
Cl78	Cl	0.060804	0.126754	-0.004201
Cl79	Cl	-0.513176	0.892479	-0.132531
H80	H	-0.241159	0.647691	0.017244
H81	H	-0.717532	0.895730	0.115975
Cl82	Cl	-0.266657	0.263834	0.019085
