data_functionalizedCrystal
_audit_creation_method	'MofGen! by Chris Wilmer'
_symmetry_space_group_name_H-M	'P1'
_symmetry_Int_Tables_number	1
_symmetry_cell_setting	triclinic
loop_
_symmetry_equiv_pos_as_xyz
  x,y,z
_cell_length_a	16.992694
_cell_length_b	16.992695
_cell_length_c	15.455301
_cell_angle_alpha	87.173129
_cell_angle_beta	92.821270
_cell_angle_gamma	89.331777
loop_
_atom_site_label
_atom_site_type_symbol
_atom_site_fract_x
_atom_site_fract_y
_atom_site_fract_z
O1	O	1.054114	-0.170180	0.072023
O2	O	0.825715	-0.168350	0.072049
O3	O	0.938999	-0.055064	0.072029
O4	O	0.940831	-0.283465	0.072043
O5	O	0.932451	-0.048524	-0.072233
O6	O	0.819168	-0.161809	-0.072214
O7	O	1.047566	-0.163639	-0.072239
Cu8	Cu	0.932769	-0.162127	-0.085399
Cu9	Cu	0.940513	-0.169862	0.085208
O10	O	0.934283	-0.276925	-0.072220
C11	C	0.793081	-0.162724	-0.000079
C12	C	0.705597	-0.155696	-0.000070
N13	N	0.927328	-0.156687	-0.205394
C14	C	0.933369	-0.022434	-0.000102
C15	C	0.926341	0.065051	-0.000101
C16	C	0.659607	-0.223514	-0.000066
C17	C	0.577405	-0.216904	-0.000079
C18	C	0.541197	-0.142476	-0.000088
C19	C	0.587193	-0.074653	-0.000094
C20	C	0.669393	-0.081263	-0.000088
C21	C	0.295881	-0.115080	-0.000113
C22	C	0.213676	-0.108476	-0.000116
C23	C	0.203893	-0.250728	-0.000103
C24	C	0.286095	-0.257331	-0.000091
C25	C	0.332084	-0.189508	-0.000102
N26	N	0.457174	-0.135718	-0.000098
N27	N	0.416105	-0.196266	-0.000098
C28	C	1.080200	-0.169265	-0.000109
C29	C	1.167685	-0.176294	-0.000113
C30	C	0.939913	-0.309555	-0.000087
C31	C	0.946942	-0.397040	-0.000082
C32	C	0.994158	0.111042	-0.000109
C33	C	0.987550	0.193242	-0.000100
C34	C	0.913122	0.229450	-0.000089
C35	C	0.845300	0.183452	-0.000078
C36	C	0.851910	0.101253	-0.000081
C37	C	0.885729	0.474764	-0.000074
C38	C	0.879124	0.556969	-0.000074
C39	C	1.021375	0.566753	-0.000094
C40	C	1.027977	0.484552	-0.000102
C41	C	0.960155	0.438562	-0.000087
N42	N	0.906366	0.313472	-0.000082
N43	N	0.966913	0.354541	-0.000087
C44	C	0.976004	-0.205394	-0.250787
C45	C	0.971900	-0.201276	-0.341595
C46	C	0.919115	-0.148453	-0.387009
C47	C	0.870437	-0.099741	-0.341609
C48	C	0.874546	-0.103856	-0.250803
C49	C	0.901390	-0.130699	-0.658590
C50	C	0.897283	-0.126589	-0.749403
C51	C	0.998748	-0.228123	-0.749383
C52	C	1.002849	-0.232237	-0.658575
C53	C	0.954174	-0.183522	-0.613183
N54	N	0.914917	-0.144244	-0.479829
N55	N	0.958376	-0.187728	-0.520365
N56	N	0.945959	-0.175296	0.205204
H57	H	0.689081	-0.284121	-0.000058
Br58	Br	1.113414	0.629172	-0.000116
H59	H	0.784700	0.212939	-0.000063
H60	H	1.038377	-0.267784	-0.786350
Br61	Br	1.074451	-0.303964	-0.596949
H62	H	0.796685	0.063808	-0.000073
Br63	Br	0.514992	-0.308948	-0.000071
Br64	Br	0.778109	0.606108	-0.000067
H65	H	0.315570	-0.317939	-0.000074
Br66	Br	0.798802	-0.028049	-0.403240
H67	H	0.333316	-0.059853	-0.000122
Br68	Br	1.037964	-0.267381	-0.403197
Br69	Br	0.731810	0.010780	-0.000100
Br70	Br	1.095171	0.061912	-0.000137
H71	H	0.184198	-0.047864	-0.000123
H72	H	0.166440	-0.305945	-0.000096
H73	H	0.557705	-0.014051	-0.000114
Br74	Br	0.808494	-0.037740	-0.189197
H75	H	1.042774	0.230685	-0.000109
Br76	Br	0.793683	0.412358	-0.000047
H77	H	1.088584	0.455078	-0.000112
H78	H	1.018983	-0.248412	-0.213818
H79	H	0.854295	-0.083574	-0.786376
H80	H	0.861756	-0.091031	-0.621644
