data_functionalizedCrystal
_audit_creation_method	'MofGen! by Chris Wilmer'
_symmetry_space_group_name_H-M	'P1'
_symmetry_Int_Tables_number	1
_symmetry_cell_setting	triclinic
loop_
_symmetry_equiv_pos_as_xyz
  x,y,z
_cell_length_a	27.732048
_cell_length_b	27.732048
_cell_length_c	12.996460
_cell_angle_alpha	89.988908
_cell_angle_beta	89.999906
_cell_angle_gamma	82.642655
loop_
_atom_site_label
_atom_site_type_symbol
_atom_site_fract_x
_atom_site_fract_y
_atom_site_fract_z
O1	O	0.640928	0.057518	-0.085445
O2	O	0.890928	0.307518	0.164555
O3	O	1.140928	0.557518	0.414555
O4	O	1.390928	0.807518	0.664555
O5	O	0.500134	0.066263	-0.085478
O6	O	0.750134	0.316263	0.164522
O7	O	1.000134	0.566263	0.414522
O8	O	1.250134	0.816263	0.664522
O9	O	0.574904	-0.008506	-0.085441
O10	O	0.824904	0.241494	0.164559
O11	O	1.074904	0.491494	0.414559
O12	O	1.324904	0.741494	0.664559
O13	O	0.566158	0.132287	-0.085482
O14	O	0.816158	0.382287	0.164518
O15	O	1.066158	0.632287	0.414518
O16	O	1.316158	0.882287	0.664518
O17	O	0.574896	-0.008510	0.085693
O18	O	0.824896	0.241490	0.335693
O19	O	1.074896	0.491490	0.585693
O20	O	1.324896	0.741490	0.835693
O21	O	0.500127	0.066259	0.085656
O22	O	0.750127	0.316259	0.335656
O23	O	1.000127	0.566259	0.585656
O24	O	1.250127	0.816259	0.835656
O25	O	0.640920	0.057514	0.085689
O26	O	0.890920	0.307514	0.335689
O27	O	1.140920	0.557514	0.585689
O28	O	1.390920	0.807514	0.835689
Cu29	Cu	0.570523	0.061886	0.101298
Cu30	Cu	0.820523	0.311886	0.351298
Cu31	Cu	1.070523	0.561886	0.601298
Cu32	Cu	1.320523	0.811886	0.851298
Cu33	Cu	0.570532	0.061891	-0.101087
Cu34	Cu	0.820532	0.311891	0.148913
Cu35	Cu	1.070532	0.561891	0.398913
Cu36	Cu	1.320532	0.811891	0.648913
O37	O	0.566151	0.132283	0.085652
O38	O	0.816151	0.382283	0.335652
O39	O	1.066151	0.632283	0.585652
O40	O	1.316151	0.882283	0.835652
C41	C	0.482124	0.066078	0.000085
C42	C	0.732124	0.316078	0.250085
C43	C	0.982124	0.566078	0.500085
C44	C	1.232124	0.816078	0.750085
C45	C	0.428469	0.065525	0.000073
C46	C	0.678469	0.315525	0.250073
C47	C	0.928469	0.565525	0.500073
C48	C	1.178469	0.815525	0.750073
C49	C	0.089654	0.106229	0.000106
C50	C	0.339654	0.356229	0.250106
C51	C	0.589654	0.606229	0.500106
C52	C	0.839654	0.856229	0.750106
C53	C	-0.112006	0.104178	0.000116
C54	C	0.137994	0.354178	0.250116
C55	C	0.387994	0.604178	0.500116
C56	C	0.637994	0.854178	0.750116
O57	O	-0.143262	0.141398	0.000150
O58	O	0.106738	0.391398	0.250150
O59	O	0.356738	0.641398	0.500150
O60	O	0.606738	0.891398	0.750150
N61	N	-0.131130	0.059843	0.000127
N62	N	0.118870	0.309843	0.250127
N63	N	0.368870	0.559843	0.500127
N64	N	0.618870	0.809843	0.750127
C65	C	-0.099835	0.016017	0.000143
C66	C	0.150165	0.266017	0.250143
C67	C	0.400165	0.516017	0.500143
C68	C	0.650165	0.766017	0.750143
O69	O	-0.120728	-0.021740	0.000163
O70	O	0.129272	0.228260	0.250163
O71	O	0.379272	0.478260	0.500163
O72	O	0.629272	0.728260	0.750163
C73	C	0.101824	0.018068	0.000140
C74	C	0.351824	0.268068	0.250140
C75	C	0.601824	0.518068	0.500140
C76	C	0.851824	0.768068	0.750140
C77	C	0.120944	0.062407	0.000119
C78	C	0.370944	0.312407	0.250119
C79	C	0.620944	0.562407	0.500119
C80	C	0.870944	0.812407	0.750119
C81	C	0.108775	0.150563	0.000086
C82	C	0.358775	0.400563	0.250086
C83	C	0.608775	0.650563	0.500086
C84	C	0.858775	0.900563	0.750086
C85	C	0.159187	0.151075	0.000078
C86	C	0.409187	0.401075	0.250078
C87	C	0.659187	0.651075	0.500078
C88	C	0.909187	0.901075	0.750078
C89	C	0.190477	0.107253	0.000090
C90	C	0.440477	0.357253	0.250090
C91	C	0.690477	0.607253	0.500090
C92	C	0.940477	0.857253	0.750090
C93	C	0.171356	0.062919	0.000110
C94	C	0.421356	0.312919	0.250110
C95	C	0.671356	0.562919	0.500110
C96	C	0.921356	0.812919	0.750110
C97	C	0.133117	-0.025757	0.000163
C98	C	0.383117	0.224243	0.250163
C99	C	0.633117	0.474243	0.500163
C100	C	0.883117	0.724243	0.750163
C101	C	0.183535	-0.025240	0.000165
C102	C	0.433535	0.224760	0.250165
C103	C	0.683535	0.474760	0.500165
C104	C	0.933535	0.724760	0.750165
C105	C	0.202655	0.019098	0.000143
C106	C	0.452655	0.269098	0.250143
C107	C	0.702655	0.519098	0.500143
C108	C	0.952655	0.769098	0.750143
C109	C	0.253059	0.019609	0.000115
C110	C	0.503059	0.269609	0.250115
C111	C	0.753059	0.519609	0.500115
C112	C	1.003059	0.769609	0.750115
N113	N	0.272183	0.063944	0.000104
N114	N	0.522183	0.313944	0.250104
N115	N	0.772183	0.563944	0.500104
N116	N	1.022183	0.813944	0.750104
C117	C	0.240892	0.107766	0.000091
C118	C	0.490892	0.357766	0.250091
C119	C	0.740892	0.607766	0.500091
C120	C	0.990892	0.857766	0.750091
C121	C	-0.205709	0.014943	0.000142
C122	C	0.044291	0.264943	0.250142
C123	C	0.294291	0.514943	0.500142
C124	C	0.544291	0.764943	0.750142
C125	C	-0.256124	0.014430	0.000141
C126	C	-0.006124	0.264430	0.250141
C127	C	0.243876	0.514430	0.500141
C128	C	0.493876	0.764430	0.750141
C129	C	-0.268291	0.102591	0.000116
C130	C	-0.018291	0.352591	0.250116
C131	C	0.231709	0.602591	0.500116
C132	C	0.481709	0.852591	0.750116
C133	C	-0.217876	0.103104	0.000110
C134	C	0.032124	0.353104	0.250110
C135	C	0.282124	0.603104	0.500110
C136	C	0.532124	0.853104	0.750110
C137	C	-0.186585	0.059278	0.000131
C138	C	0.063415	0.309278	0.250131
C139	C	0.313415	0.559278	0.500131
C140	C	0.563415	0.809278	0.750131
C141	C	0.346761	0.108839	0.000073
C142	C	0.596761	0.358839	0.250073
C143	C	0.846761	0.608839	0.500073
C144	C	1.096761	0.858839	0.750073
C145	C	0.397178	0.109347	0.000061
C146	C	0.647178	0.359347	0.250061
C147	C	0.897178	0.609347	0.500061
C148	C	1.147178	0.859347	0.750061
C149	C	0.409341	0.021186	0.000091
C150	C	0.659341	0.271186	0.250091
C151	C	0.909341	0.521186	0.500091
C152	C	1.159341	0.771186	0.750091
C153	C	0.358929	0.020678	0.000098
C154	C	0.608929	0.270678	0.250098
C155	C	0.858929	0.520678	0.500098
C156	C	1.108929	0.770678	0.750098
C157	C	0.327639	0.064508	0.000093
C158	C	0.577639	0.314508	0.250093
C159	C	0.827639	0.564508	0.500093
C160	C	1.077639	0.814508	0.750093
O161	O	0.284343	-0.017592	0.000093
O162	O	0.534343	0.232408	0.250093
O163	O	0.784343	0.482408	0.500093
O164	O	1.034343	0.732408	0.750093
O165	O	0.261794	0.145518	0.000094
O166	O	0.511794	0.395518	0.250094
O167	O	0.761794	0.645518	0.500094
O168	O	1.011794	0.895518	0.750094
C169	C	0.039242	0.105716	0.000114
C170	C	0.289242	0.355716	0.250114
C171	C	0.539242	0.605716	0.500114
C172	C	0.789242	0.855716	0.750114
C173	C	0.020120	0.061382	0.000135
C174	C	0.270120	0.311382	0.250135
C175	C	0.520120	0.561382	0.500135
C176	C	0.770120	0.811382	0.750135
C177	C	0.051411	0.017560	0.000147
C178	C	0.301411	0.267560	0.250147
C179	C	0.551411	0.517560	0.500147
C180	C	0.801411	0.767560	0.750147
C181	C	-0.030294	0.060869	0.000133
C182	C	0.219706	0.310869	0.250133
C183	C	0.469706	0.560869	0.500133
C184	C	0.719706	0.810869	0.750133
C185	C	-0.061585	0.104691	0.000121
C186	C	0.188415	0.354691	0.250121
C187	C	0.438415	0.604691	0.500121
C188	C	0.688415	0.854691	0.750121
C189	C	-0.042461	0.149026	0.000110
C190	C	0.207539	0.399026	0.250110
C191	C	0.457539	0.649026	0.500110
C192	C	0.707539	0.899026	0.750110
C193	C	0.007951	0.149539	0.000102
C194	C	0.257951	0.399539	0.250102
C195	C	0.507951	0.649539	0.500102
C196	C	0.757951	0.899539	0.750102
C197	C	0.032287	-0.026775	0.000158
C198	C	0.282287	0.223225	0.250158
C199	C	0.532287	0.473225	0.500158
C200	C	0.782287	0.723225	0.750158
C201	C	-0.018125	-0.027284	0.000165
C202	C	0.231875	0.222716	0.250165
C203	C	0.481875	0.472716	0.500165
C204	C	0.731875	0.722716	0.750165
C205	C	-0.049416	0.016538	0.000153
C206	C	0.200584	0.266538	0.250153
C207	C	0.450584	0.516538	0.500153
C208	C	0.700584	0.766538	0.750153
C209	C	0.574716	-0.026515	0.000129
C210	C	0.824716	0.223485	0.250129
C211	C	1.074716	0.473485	0.500129
C212	C	1.324716	0.723485	0.750129
C213	C	0.574164	-0.080170	0.000137
C214	C	0.824164	0.169830	0.250137
C215	C	1.074164	0.419830	0.500137
C216	C	1.324164	0.669830	0.750137
C217	C	0.614867	-0.418985	0.000094
C218	C	0.864867	-0.168985	0.250094
C219	C	1.114867	0.081015	0.500094
C220	C	1.364867	0.331015	0.750094
C221	C	0.612816	-0.620645	0.000079
C222	C	0.862816	-0.370645	0.250079
C223	C	1.112816	-0.120645	0.500079
C224	C	1.362816	0.129355	0.750079
O225	O	0.650037	-0.651900	0.000042
O226	O	0.900037	-0.401900	0.250042
O227	O	1.150037	-0.151900	0.500042
O228	O	1.400037	0.098100	0.750042
N229	N	0.568481	-0.639768	0.000070
N230	N	0.818481	-0.389768	0.250070
N231	N	1.068481	-0.139768	0.500070
N232	N	1.318481	0.110232	0.750070
C233	C	0.524656	-0.608474	0.000057
C234	C	0.774656	-0.358474	0.250057
C235	C	1.024656	-0.108474	0.500057
C236	C	1.274656	0.141526	0.750057
O237	O	0.486899	-0.629367	0.000038
O238	O	0.736899	-0.379367	0.250038
O239	O	0.986899	-0.129367	0.500038
O240	O	1.236899	0.120633	0.750038
C241	C	0.526707	-0.406815	0.000065
C242	C	0.776707	-0.156815	0.250065
C243	C	1.026707	0.093185	0.500065
C244	C	1.276707	0.343185	0.750065
C245	C	0.571045	-0.387694	0.000084
C246	C	0.821045	-0.137694	0.250084
C247	C	1.071045	0.112306	0.500084
C248	C	1.321045	0.362306	0.750084
C249	C	0.659202	-0.399864	0.000112
C250	C	0.909202	-0.149864	0.250112
C251	C	1.159202	0.100136	0.500112
C252	C	1.409202	0.350136	0.750112
C253	C	0.659714	-0.349452	0.000122
C254	C	0.909714	-0.099452	0.250122
C255	C	1.159714	0.150548	0.500122
C256	C	1.409714	0.400548	0.750122
C257	C	0.615892	-0.318161	0.000112
C258	C	0.865892	-0.068161	0.250112
C259	C	1.115892	0.181839	0.500112
C260	C	1.365892	0.431839	0.750112
C261	C	0.571557	-0.337282	0.000094
C262	C	0.821557	-0.087282	0.250094
C263	C	1.071557	0.162718	0.500094
C264	C	1.321557	0.412718	0.750094
C265	C	0.482882	-0.375521	0.000045
C266	C	0.732882	-0.125521	0.250045
C267	C	0.982882	0.124479	0.500045
C268	C	1.232882	0.374479	0.750045
C269	C	0.483399	-0.325104	0.000044
C270	C	0.733399	-0.075104	0.250044
C271	C	0.983399	0.174896	0.500044
C272	C	1.233399	0.424896	0.750044
C273	C	0.527737	-0.305983	0.000064
C274	C	0.777737	-0.055983	0.250064
C275	C	1.027737	0.194017	0.500064
C276	C	1.277737	0.444017	0.750064
C277	C	0.528247	-0.255580	0.000094
C278	C	0.778247	-0.005580	0.250094
C279	C	1.028247	0.244420	0.500094
C280	C	1.278247	0.494420	0.750094
N281	N	0.572583	-0.236456	0.000103
N282	N	0.822583	0.013544	0.250103
N283	N	1.072583	0.263544	0.500103
N284	N	1.322583	0.513544	0.750103
C285	C	0.616405	-0.267747	0.000112
C286	C	0.866405	-0.017747	0.250112
C287	C	1.116405	0.232253	0.500112
C288	C	1.366405	0.482253	0.750112
C289	C	0.523582	-0.714348	0.000055
C290	C	0.773582	-0.464348	0.250055
C291	C	1.023582	-0.214348	0.500055
C292	C	1.273582	0.035652	0.750055
C293	C	0.523069	-0.764762	0.000055
C294	C	0.773069	-0.514762	0.250055
C295	C	1.023069	-0.264762	0.500055
C296	C	1.273069	-0.014762	0.750055
C297	C	0.611230	-0.776930	0.000075
C298	C	0.861230	-0.526930	0.250075
C299	C	1.111230	-0.276930	0.500075
C300	C	1.361230	-0.026930	0.750075
C301	C	0.611742	-0.726514	0.000082
C302	C	0.861742	-0.476514	0.250082
C303	C	1.111742	-0.226514	0.500082
C304	C	1.361742	0.023486	0.750082
C305	C	0.567917	-0.695224	0.000065
C306	C	0.817917	-0.445224	0.250065
C307	C	1.067917	-0.195224	0.500065
C308	C	1.317917	0.054776	0.750065
C309	C	0.617477	-0.161878	0.000133
C310	C	0.867477	0.088122	0.250133
C311	C	1.117477	0.338122	0.500133
C312	C	1.367477	0.588122	0.750133
C313	C	0.617986	-0.111461	0.000146
C314	C	0.867986	0.138539	0.250146
C315	C	1.117986	0.388539	0.500146
C316	C	1.367986	0.638539	0.750146
C317	C	0.529825	-0.099298	0.000121
C318	C	0.779825	0.150702	0.250121
C319	C	1.029825	0.400702	0.500121
C320	C	1.279825	0.650702	0.750121
C321	C	0.529316	-0.149710	0.000113
C322	C	0.779316	0.100290	0.250113
C323	C	1.029316	0.350290	0.500113
C324	C	1.279316	0.600290	0.750113
C325	C	0.573147	-0.180999	0.000115
C326	C	0.823147	0.069001	0.250115
C327	C	1.073147	0.319001	0.500115
C328	C	1.323147	0.569001	0.750115
O329	O	0.491047	-0.224296	0.000119
O330	O	0.741047	0.025704	0.250119
O331	O	0.991047	0.275704	0.500119
O332	O	1.241047	0.525704	0.750119
O333	O	0.654156	-0.246844	0.000108
O334	O	0.904156	0.003156	0.250108
O335	O	1.154156	0.253156	0.500108
O336	O	1.404156	0.503156	0.750108
C337	C	0.614355	-0.469397	0.000084
C338	C	0.864355	-0.219397	0.250084
C339	C	1.114355	0.030603	0.500084
C340	C	1.364355	0.280603	0.750084
C341	C	0.570021	-0.488518	0.000066
C342	C	0.820021	-0.238518	0.250066
C343	C	1.070021	0.011482	0.500066
C344	C	1.320021	0.261482	0.750066
C345	C	0.526198	-0.457228	0.000056
C346	C	0.776198	-0.207228	0.250056
C347	C	1.026198	0.042772	0.500056
C348	C	1.276198	0.292772	0.750056
C349	C	0.569508	-0.538933	0.000066
C350	C	0.819508	-0.288933	0.250066
C351	C	1.069508	-0.038933	0.500066
C352	C	1.319508	0.211067	0.750066
C353	C	0.613330	-0.570223	0.000075
C354	C	0.863330	-0.320223	0.250075
C355	C	1.113330	-0.070223	0.500075
C356	C	1.363330	0.179777	0.750075
C357	C	0.657665	-0.551100	0.000084
C358	C	0.907665	-0.301100	0.250084
C359	C	1.157665	-0.051100	0.500084
C360	C	1.407665	0.198900	0.750084
C361	C	0.658177	-0.500688	0.000094
C362	C	0.908177	-0.250688	0.250094
C363	C	1.158177	-0.000688	0.500094
C364	C	1.408177	0.249312	0.750094
C365	C	0.481863	-0.476351	0.000047
C366	C	0.731863	-0.226351	0.250047
C367	C	0.981863	0.023649	0.500047
C368	C	1.231863	0.273649	0.750047
C369	C	0.481355	-0.526764	0.000039
C370	C	0.731355	-0.276764	0.250039
C371	C	0.981355	-0.026764	0.500039
C372	C	1.231355	0.223236	0.750039
C373	C	0.525177	-0.558054	0.000048
C374	C	0.775177	-0.308054	0.250048
C375	C	1.025177	-0.058054	0.500048
C376	C	1.275177	0.191946	0.750048
C377	C	0.658931	0.057699	0.000123
C378	C	0.908931	0.307699	0.250123
C379	C	1.158931	0.557699	0.500123
C380	C	1.408931	0.807699	0.750123
C381	C	0.712586	0.058252	0.000128
C382	C	0.962586	0.308252	0.250128
C383	C	1.212586	0.558252	0.500128
C384	C	1.462586	0.808252	0.750128
C385	C	0.566338	0.150292	0.000080
C386	C	0.816338	0.400292	0.250080
C387	C	1.066338	0.650292	0.500080
C388	C	1.316338	0.900292	0.750080
C389	C	0.566891	0.203947	0.000065
C390	C	0.816891	0.453947	0.250065
C391	C	1.066891	0.703947	0.500065
C392	C	1.316891	0.953947	0.750065
N393	N	0.570520	0.061883	0.243645
N394	N	0.820520	0.311883	0.493645
N395	N	1.070520	0.561883	0.743645
N396	N	1.320520	0.811883	0.993645
N397	N	0.570538	0.061891	-0.243435
N398	N	0.820538	0.311891	0.006565
N399	N	1.070538	0.561891	0.256565
N400	N	1.320538	0.811891	0.506565
C401	C	0.570531	0.061891	0.663460
C402	C	0.820531	0.311891	0.913460
C403	C	1.070531	0.561891	1.163460
C404	C	1.320531	0.811891	1.413460
C405	C	0.570526	0.061891	0.546654
C406	C	0.820526	0.311891	0.796654
C407	C	1.070526	0.561891	1.046654
C408	C	1.320526	0.811891	1.296654
C409	C	0.570526	0.061887	0.453556
C410	C	0.820526	0.311887	0.703556
C411	C	1.070526	0.561887	0.953556
C412	C	1.320526	0.811887	1.203556
C413	C	0.570521	0.061886	0.336744
C414	C	0.820521	0.311886	0.586744
C415	C	1.070521	0.561886	0.836744
C416	C	1.320521	0.811886	1.086744
H417	H	0.174750	0.187180	0.000060
H418	H	0.424750	0.437180	0.250060
H419	H	0.674750	0.687180	0.500060
H420	H	0.924750	0.937180	0.750060
H421	H	0.445246	-0.542327	0.000032
H422	H	0.695246	-0.292327	0.250032
H423	H	0.945246	-0.042327	0.500032
H424	H	1.195246	0.207673	0.750032
H425	H	-0.033688	-0.063392	0.000174
H426	H	0.216312	0.186608	0.250174
H427	H	0.466312	0.436608	0.500174
H428	H	0.716312	0.686608	0.750174
C429	C	0.066701	-0.074986	0.000167
C430	C	0.316701	0.175014	0.250167
C431	C	0.566701	0.425014	0.500167
C432	C	0.816701	0.675014	0.750167
N433	N	0.092620	-0.111302	0.000167
N434	N	0.342620	0.138698	0.250167
N435	N	0.592620	0.388698	0.500167
N436	N	0.842620	0.638698	0.750167
H437	H	0.695819	-0.333889	0.000134
H438	H	0.945819	-0.083889	0.250134
H439	H	1.195819	0.166111	0.500134
H440	H	1.445819	0.416111	0.750134
H441	H	0.209009	-0.060929	0.000183
H442	H	0.459009	0.189071	0.250183
H443	H	0.709009	0.439071	0.500183
H444	H	0.959009	0.689071	0.750183
H445	H	0.493213	-0.165279	0.000126
H446	H	0.743213	0.084721	0.250126
H447	H	0.993213	0.334721	0.500126
H448	H	1.243213	0.584721	0.750126
H449	H	0.023514	0.185643	0.000086
H450	H	0.273514	0.435643	0.250086
H451	H	0.523514	0.685643	0.500086
H452	H	0.773514	0.935643	0.750086
H453	H	-0.293777	0.138273	0.000106
H454	H	-0.043777	0.388273	0.250106
H455	H	0.206223	0.638273	0.500106
H456	H	0.456223	0.888273	0.750106
C457	C	0.707414	-0.434277	0.000134
C458	C	0.957414	-0.184277	0.250134
C459	C	1.207414	0.065723	0.500134
C460	C	1.457414	0.315723	0.750134
N461	N	0.743731	-0.460194	0.000161
N462	N	0.993731	-0.210194	0.250161
N463	N	1.243731	0.039806	0.500161
N464	N	1.493731	0.289806	0.750161
H465	H	0.321291	0.144530	0.000072
H466	H	0.571291	0.394530	0.250072
H467	H	0.821291	0.644530	0.500072
H468	H	1.071291	0.894530	0.750072
C469	C	0.475367	-0.679934	0.000037
C470	C	0.725367	-0.429934	0.250037
C471	C	0.975367	-0.179934	0.500037
C472	C	1.225367	0.070066	0.750037
N473	N	0.439051	-0.654016	0.000025
N474	N	0.689051	-0.404016	0.250025
N475	N	0.939051	-0.154016	0.500025
N476	N	1.189051	0.095984	0.750025
H477	H	0.446177	-0.450879	0.000037
H478	H	0.696177	-0.200879	0.250037
H479	H	0.946177	0.049121	0.500037
H480	H	1.196177	0.299121	0.750037
C481	C	-0.196848	0.151878	0.000097
C482	C	0.053152	0.401878	0.250097
C483	C	0.303152	0.651878	0.500097
C484	C	0.553152	0.901878	0.750097
N485	N	-0.181013	0.188618	0.000092
N486	N	0.068987	0.438618	0.250092
N487	N	0.318987	0.688618	0.500092
N488	N	0.568987	0.938618	0.750092
H489	H	0.694282	-0.485125	0.000109
H490	H	0.944282	-0.235125	0.250109
H491	H	1.194282	0.014875	0.500109
H492	H	1.444282	0.264875	0.750109
C493	C	0.434106	-0.396542	0.000016
C494	C	0.684106	-0.146542	0.250016
C495	C	0.934106	0.103458	0.500016
C496	C	1.184106	0.353458	0.750016
N497	N	0.397365	-0.412374	-0.000009
N498	N	0.647365	-0.162374	0.249991
N499	N	0.897365	0.087626	0.499991
N500	N	1.147365	0.337626	0.749991
H501	H	0.647846	-0.710950	0.000098
H502	H	0.897846	-0.460950	0.250098
H503	H	1.147846	-0.210950	0.500098
H504	H	1.397846	0.039050	0.750098
H505	H	0.412743	0.145454	0.000043
H506	H	0.662743	0.395454	0.250043
H507	H	0.912743	0.645454	0.500043
H508	H	1.162743	0.895454	0.750043
C509	C	0.435186	-0.290687	0.000028
C510	C	0.685186	-0.040687	0.250028
C511	C	0.935186	0.209313	0.500028
C512	C	1.185186	0.459313	0.750028
N513	N	0.398872	-0.264766	0.000020
N514	N	0.648872	-0.014766	0.250020
N515	N	0.898872	0.235234	0.500020
N516	N	1.148872	0.485234	0.750020
H517	H	0.494146	-0.073812	0.000117
H518	H	0.744146	0.176188	0.250117
H519	H	0.994146	0.426188	0.500117
H520	H	1.244146	0.676188	0.750117
C521	C	0.705870	-0.585529	0.000093
C522	C	0.955870	-0.335529	0.250093
C523	C	1.205870	-0.085529	0.500093
C524	C	1.455870	0.164471	0.750093
N525	N	0.742175	-0.611464	0.000093
N526	N	0.992175	-0.361464	0.250093
N527	N	1.242175	-0.111464	0.500093
N528	N	1.492175	0.138536	0.750093
H529	H	0.653168	-0.187348	0.000131
H530	H	0.903168	0.062652	0.250131
H531	H	1.153168	0.312652	0.500131
H532	H	1.403168	0.562652	0.750131
H533	H	0.083302	0.186251	0.000079
H534	H	0.333302	0.436251	0.250079
H535	H	0.583302	0.686251	0.500079
H536	H	0.833302	0.936251	0.750079
C537	C	-0.277150	-0.034345	0.000157
C538	C	-0.027150	0.215655	0.250157
C539	C	0.222850	0.465655	0.500157
C540	C	0.472850	0.715655	0.750157
N541	N	-0.292986	-0.071085	0.000179
N542	N	-0.042986	0.178915	0.250179
N543	N	0.207014	0.428915	0.500179
N544	N	0.457014	0.678915	0.750179
C545	C	-0.171295	-0.033272	0.000157
C546	C	0.078705	0.216728	0.250157
C547	C	0.328705	0.466728	0.500157
C548	C	0.578705	0.716728	0.750157
N549	N	-0.145377	-0.069587	0.000163
N550	N	0.104623	0.180413	0.250163
N551	N	0.354623	0.430413	0.500163
N552	N	0.604623	0.680413	0.750163
C553	C	0.474293	-0.785789	0.000046
C554	C	0.724293	-0.535789	0.250046
C555	C	0.974293	-0.285789	0.500046
C556	C	1.224293	-0.035789	0.750046
N557	N	0.437554	-0.801624	0.000033
N558	N	0.687554	-0.551624	0.250033
N559	N	0.937554	-0.301624	0.500033
N560	N	1.187554	-0.051624	0.750033
H561	H	-0.067947	0.184708	0.000096
H562	H	0.182053	0.434708	0.250096
H563	H	0.432053	0.684708	0.500096
H564	H	0.682053	0.934708	0.750096
H565	H	0.646911	-0.802415	0.000083
H566	H	0.896911	-0.552415	0.250083
H567	H	1.146911	-0.302415	0.500083
H568	H	1.396911	-0.052415	0.750083
C569	C	0.337895	-0.028096	0.000109
C570	C	0.587895	0.221904	0.250109
C571	C	0.837895	0.471904	0.500109
C572	C	1.087895	0.721904	0.750109
N573	N	0.322056	-0.064833	0.000125
N574	N	0.572056	0.185167	0.250125
N575	N	0.822056	0.435167	0.500125
N576	N	1.072056	0.685167	0.750125
H577	H	0.434827	-0.014492	0.000097
H578	H	0.684827	0.235508	0.250097
H579	H	0.934827	0.485508	0.500097
H580	H	1.184827	0.735508	0.750097
H581	H	0.117558	-0.061861	0.000181
H582	H	0.367558	0.188139	0.250181
H583	H	0.617558	0.438139	0.500181
H584	H	0.867558	0.688139	0.750181
H585	H	0.654093	-0.095896	0.000165
H586	H	0.904093	0.154104	0.250165
H587	H	1.154093	0.404104	0.500165
H588	H	1.404093	0.654104	0.750165
