data_functionalizedCrystal
_audit_creation_method	'MofGen! by Chris Wilmer'
_symmetry_space_group_name_H-M	'P1'
_symmetry_Int_Tables_number	1
_symmetry_cell_setting	triclinic
loop_
_symmetry_equiv_pos_as_xyz
  x,y,z
_cell_length_a	16.992701
_cell_length_b	14.519709
_cell_length_c	15.455313
_cell_angle_alpha	92.669068
_cell_angle_beta	87.136501
_cell_angle_gamma	87.173657
loop_
_atom_site_label
_atom_site_type_symbol
_atom_site_fract_x
_atom_site_fract_y
_atom_site_fract_z
O1	O	1.044098	0.191778	-0.072140
O2	O	0.815809	0.189634	-0.072141
O3	O	0.936006	0.056902	-0.072133
O4	O	0.923901	0.324510	-0.072148
O5	O	0.929132	0.064459	0.072129
O6	O	0.808936	0.197191	0.072121
O7	O	1.037224	0.199334	0.072121
Cu8	Cu	0.922452	0.198953	0.085293
Cu9	Cu	0.930581	0.190016	-0.085313
O10	O	0.917028	0.332067	0.072113
C11	C	0.783156	0.190653	-0.000010
C12	C	0.696100	0.182419	-0.000010
C13	C	0.932005	0.026280	-0.000002
C14	C	0.930314	-0.076222	-0.000001
C15	C	0.207063	0.127091	-0.000010
C16	C	0.288860	0.134835	-0.000005
C17	C	0.320526	0.222039	-0.000014
C18	C	0.270390	0.301504	-0.000019
C19	C	0.188594	0.293759	-0.000017
C20	C	0.564168	0.254139	-0.000013
C21	C	0.645971	0.261878	-0.000017
C22	C	0.664435	0.095208	-0.000002
C23	C	0.582637	0.087470	-0.000005
C24	C	0.532508	0.166935	-0.000006
N25	N	0.404136	0.229957	-0.000012
N26	N	0.448900	0.159017	-0.000002
C27	C	0.924092	-0.451566	-0.000024
C28	C	0.925820	-0.347133	-0.000017
C29	C	0.927203	-0.263897	-0.000012
C30	C	0.928931	-0.159458	-0.000007
C31	C	1.069877	0.198316	-0.000011
C32	C	1.156933	0.206550	-0.000017
C33	C	0.921029	0.362688	-0.000019
C34	C	0.922720	0.465191	-0.000026
N35	N	0.916741	0.205238	0.205289
N36	N	0.936299	0.183724	-0.205308
C37	C	0.967822	0.148873	0.250686
C38	C	0.963510	0.153635	0.341494
C39	C	0.908120	0.214769	0.386902
C40	C	0.857033	0.271137	0.341498
C41	C	0.861342	0.266369	0.250692
C42	C	0.889521	0.235324	0.658482
C43	C	0.885217	0.240089	0.749295
C44	C	0.991694	0.122586	0.749284
C45	C	0.996001	0.117827	0.658476
C46	C	0.944912	0.174192	0.613080
N47	N	0.903712	0.219640	0.479722
N48	N	0.949316	0.169315	0.520262
H49	H	0.181288	0.056080	-0.000008
N50	N	0.137384	0.374925	-0.000009
N51	N	0.137440	0.434772	0.060799
H52	H	0.101272	0.492099	0.060811
H53	H	0.329673	0.070131	0.000005
H54	H	0.840109	0.289876	0.786262
N55	N	1.052628	0.055372	0.612177
N56	N	1.030180	-0.006456	0.561526
H57	H	1.070197	-0.050562	0.528857
N58	N	0.678319	0.350959	-0.000004
N59	N	0.719009	0.377051	0.060805
H60	H	0.741857	0.439961	0.060814
H61	H	0.523362	0.318845	-0.000018
H62	H	0.296178	0.372508	-0.000021
H63	H	0.705259	0.030512	-0.000000
N64	N	1.024366	0.086368	0.204320
N65	N	1.069937	0.036006	0.244869
H66	H	1.109855	-0.008164	0.212126
N67	N	0.809166	0.323935	0.204303
N68	N	0.762858	0.288387	0.153651
H69	H	0.726006	0.329042	0.120888
H70	H	1.005104	0.107737	0.378456
H71	H	0.556862	0.016459	0.000002
N72	N	1.043872	0.065021	0.795669
N73	N	1.040021	0.069283	0.876744
H74	H	1.076872	0.028624	0.909505
N75	N	0.837327	0.292900	0.612133
N76	N	0.787876	0.347477	0.652690
H77	H	0.751010	0.388143	0.619953
N78	N	0.800451	0.333572	0.387892
N79	N	0.796610	0.337822	0.468968
H80	H	0.756649	0.381919	0.501734
