data_functionalizedCrystal
_audit_creation_method	'MofGen! by Chris Wilmer'
_symmetry_space_group_name_H-M	'P1'
_symmetry_Int_Tables_number	1
_symmetry_cell_setting	triclinic
loop_
_symmetry_equiv_pos_as_xyz
  x,y,z
_cell_length_a	23.532407
_cell_length_b	23.532407
_cell_length_c	10.268362
_cell_angle_alpha	89.990068
_cell_angle_beta	90.000752
_cell_angle_gamma	82.848678
loop_
_atom_site_label
_atom_site_type_symbol
_atom_site_fract_x
_atom_site_fract_y
_atom_site_fract_z
O1	O	0.755260	0.069135	-0.108151
O2	O	1.088593	0.402469	0.225183
O3	O	1.421926	0.735802	0.558516
O4	O	0.589396	0.079138	-0.108191
O5	O	0.922729	0.412472	0.225142
O6	O	1.256063	0.745805	0.558476
O7	O	0.677329	-0.008795	-0.108146
O8	O	1.010663	0.324538	0.225188
O9	O	1.343996	0.657872	0.558521
O10	O	0.667326	0.157069	-0.108196
O11	O	1.000660	0.490402	0.225137
O12	O	1.333993	0.823735	0.558471
O13	O	0.677322	-0.008798	0.108455
O14	O	1.010655	0.324535	0.441788
O15	O	1.343989	0.657868	0.775121
O16	O	0.589389	0.079135	0.108410
O17	O	0.922722	0.412468	0.441743
O18	O	1.256055	0.745802	0.775076
O19	O	0.755252	0.069132	0.108450
O20	O	1.088585	0.402465	0.441783
O21	O	1.421919	0.735798	0.775116
Cu22	Cu	0.672320	0.074133	0.128207
Cu23	Cu	1.005653	0.407466	0.461540
Cu24	Cu	1.338986	0.740800	0.794874
Cu25	Cu	0.672329	0.074137	-0.127948
Cu26	Cu	1.005662	0.407470	0.205385
Cu27	Cu	1.338995	0.740804	0.538718
O28	O	0.667319	0.157065	0.108405
O29	O	1.000652	0.490398	0.441738
O30	O	1.333985	0.823732	0.775071
C31	C	0.568176	0.078882	0.000105
C32	C	0.901510	0.412215	0.333438
C33	C	1.234843	0.745549	0.666771
C34	C	0.504959	0.078116	0.000090
C35	C	0.838293	0.411449	0.333424
C36	C	1.171626	0.744783	0.666757
C37	C	0.105856	0.125350	0.000135
C38	C	0.439190	0.458683	0.333468
C39	C	0.772523	0.792016	0.666802
C40	C	0.046456	0.124638	0.000143
C41	C	0.379789	0.457971	0.333477
C42	C	0.713123	0.791305	0.666810
O43	O	0.009711	0.168424	0.000177
O44	O	0.343045	0.501757	0.333511
O45	O	0.676378	0.835091	0.666844
N46	N	0.023830	0.072362	0.000157
N47	N	0.357163	0.405695	0.333490
N48	N	0.690496	0.739028	0.666824
C49	C	0.060607	0.020794	0.000176
C50	C	0.393941	0.354127	0.333509
C51	C	0.727274	0.687460	0.666842
O52	O	0.035908	-0.023737	0.000189
O53	O	0.369241	0.309596	0.333523
O54	O	0.702574	0.642930	0.666856
C55	C	0.120006	0.021506	0.000177
C56	C	0.453340	0.354839	0.333510
C57	C	0.786673	0.688172	0.666843
C58	C	0.142629	0.073785	0.000150
C59	C	0.475962	0.407119	0.333483
C60	C	0.809296	0.740452	0.666817
C61	C	0.128479	0.177625	0.000110
C62	C	0.461813	0.510958	0.333443
C63	C	0.795146	0.844292	0.666776
C64	C	0.187876	0.178336	0.000099
C65	C	0.521209	0.511670	0.333432
C66	C	0.854542	0.845003	0.666766
C67	C	0.224649	0.126772	0.000114
C68	C	0.557982	0.460105	0.333447
C69	C	0.891315	0.793439	0.666781
C70	C	0.202025	0.074496	0.000139
C71	C	0.535359	0.407830	0.333473
C72	C	0.868692	0.741163	0.666806
C73	C	0.156783	-0.030062	0.000205
C74	C	0.490116	0.303271	0.333538
C75	C	0.823450	0.636605	0.666871
C76	C	0.216185	-0.029345	0.000207
C77	C	0.549519	0.303988	0.333540
C78	C	0.882852	0.637321	0.666874
C79	C	0.238808	0.022934	0.000180
C80	C	0.572141	0.356268	0.333513
C81	C	0.905475	0.689601	0.666847
C82	C	0.298194	0.023643	0.000143
C83	C	0.631528	0.356977	0.333477
C84	C	0.964861	0.690310	0.666810
N85	N	0.320820	0.075920	0.000130
N86	N	0.654154	0.409253	0.333463
N87	N	0.987487	0.742586	0.666796
C88	C	0.284048	0.127484	0.000115
C89	C	0.617381	0.460817	0.333448
C90	C	0.950714	0.794151	0.666782
C91	C	-0.064135	0.019302	0.000175
C92	C	0.269198	0.352635	0.333509
C93	C	0.602532	0.685969	0.666842
C94	C	-0.123533	0.018589	0.000165
C95	C	0.209800	0.351923	0.333498
C96	C	0.543134	0.685256	0.666832
C97	C	-0.137680	0.122434	0.000135
C98	C	0.195653	0.455768	0.333468
C99	C	0.528986	0.789101	0.666802
C100	C	-0.078281	0.123146	0.000136
C101	C	0.255052	0.456480	0.333470
C102	C	0.588385	0.789813	0.666803
C103	C	-0.041509	0.071578	0.000162
C104	C	0.291824	0.404912	0.333495
C105	C	0.625158	0.738245	0.666829
C106	C	0.408784	0.128974	0.000092
C107	C	0.742118	0.462307	0.333425
C108	C	1.075451	0.795640	0.666758
C109	C	0.468186	0.129680	0.000076
C110	C	0.801520	0.463014	0.333409
C111	C	1.134853	0.796347	0.666742
C112	C	0.482329	0.025836	0.000112
C113	C	0.815662	0.359169	0.333446
C114	C	1.148995	0.692503	0.666779
C115	C	0.422932	0.025129	0.000121
C116	C	0.756265	0.358462	0.333455
C117	C	1.089598	0.691796	0.666788
C118	C	0.386160	0.076702	0.000116
C119	C	0.719494	0.410036	0.333449
C120	C	1.052827	0.743369	0.666782
O121	O	0.334974	-0.020119	0.000115
O122	O	0.668307	0.313214	0.333448
O123	O	1.001640	0.646547	0.666781
O124	O	0.308755	0.172007	0.000119
O125	O	0.642089	0.505340	0.333452
O126	O	0.975422	0.838674	0.666785
C127	C	0.677071	-0.030013	0.000158
C128	C	1.010404	0.303321	0.333491
C129	C	1.343738	0.636654	0.666824
C130	C	0.676305	-0.093230	0.000168
C131	C	1.009638	0.240104	0.333501
C132	C	1.342972	0.573437	0.666834
C133	C	0.723539	-0.492333	0.000108
C134	C	1.056872	-0.158999	0.333441
C135	C	1.390205	0.174334	0.666774
C136	C	0.722827	-0.551733	0.000098
C137	C	1.056160	-0.218400	0.333431
C138	C	1.389494	0.114934	0.666764
O139	O	0.766613	-0.588478	0.000060
O140	O	1.099946	-0.255144	0.333393
O141	O	1.433280	0.078189	0.666727
N142	N	0.670551	-0.574359	0.000086
N143	N	1.003884	-0.241026	0.333419
N144	N	1.337217	0.092307	0.666753
C145	C	0.618983	-0.537582	0.000071
C146	C	0.952316	-0.204248	0.333404
C147	C	1.285649	0.129085	0.666738
O148	O	0.574452	-0.562281	0.000059
O149	O	0.907785	-0.228948	0.333392
O150	O	1.241119	0.104385	0.666726
C151	C	0.619695	-0.478182	0.000072
C152	C	0.953028	-0.144849	0.333405
C153	C	1.286361	0.188484	0.666738
C154	C	0.671974	-0.455560	0.000097
C155	C	1.005308	-0.122227	0.333430
C156	C	1.338641	0.211107	0.666763
C157	C	0.775814	-0.469710	0.000131
C158	C	1.109147	-0.136376	0.333464
C159	C	1.442481	0.196957	0.666798
C160	C	0.776525	-0.410313	0.000144
C161	C	1.109859	-0.076980	0.333477
C162	C	1.443192	0.256353	0.666810
C163	C	0.724961	-0.373540	0.000133
C164	C	1.058294	-0.040207	0.333466
C165	C	1.391628	0.293126	0.666799
C166	C	0.672685	-0.396164	0.000109
C167	C	1.006019	-0.062830	0.333442
C168	C	1.339352	0.270503	0.666776
C169	C	0.568127	-0.441406	0.000048
C170	C	0.901460	-0.108073	0.333381
C171	C	1.234794	0.225261	0.666714
C172	C	0.568844	-0.382004	0.000047
C173	C	0.902177	-0.048670	0.333381
C174	C	1.235510	0.284663	0.666714
C175	C	0.621123	-0.359381	0.000072
C176	C	0.954457	-0.026048	0.333406
C177	C	1.287790	0.307286	0.666739
C178	C	0.621832	-0.299995	0.000111
C179	C	0.955166	0.033339	0.333444
C180	C	1.288499	0.366672	0.666777
N181	N	0.674109	-0.277368	0.000122
N182	N	1.007442	0.055965	0.333456
N183	N	1.340775	0.389298	0.666789
C184	C	0.725673	-0.314141	0.000133
C185	C	1.059006	0.019192	0.333467
C186	C	1.392340	0.352525	0.666800
C187	C	0.617491	-0.662324	0.000067
C188	C	0.950824	-0.328991	0.333401
C189	C	1.284158	0.004343	0.666734
C190	C	0.616778	-0.721722	0.000076
C191	C	0.950112	-0.388389	0.333409
C192	C	1.283445	-0.055055	0.666742
C193	C	0.720623	-0.735869	0.000100
C194	C	1.053957	-0.402536	0.333433
C195	C	1.387290	-0.069203	0.666767
C196	C	0.721335	-0.676470	0.000101
C197	C	1.054669	-0.343137	0.333434
C198	C	1.388002	-0.009804	0.666767
C199	C	0.669767	-0.639698	0.000079
C200	C	1.003101	-0.306365	0.333412
C201	C	1.336434	0.026969	0.666746
C202	C	0.727163	-0.189405	0.000161
C203	C	1.060496	0.143929	0.333494
C204	C	1.393829	0.477262	0.666827
C205	C	0.727869	-0.130003	0.000179
C206	C	1.061203	0.203331	0.333512
C207	C	1.394536	0.536664	0.666845
C208	C	0.624025	-0.115860	0.000148
C209	C	0.957358	0.217473	0.333481
C210	C	1.290692	0.550806	0.666814
C211	C	0.623318	-0.175257	0.000137
C212	C	0.956651	0.158076	0.333470
C213	C	1.289985	0.491409	0.666803
C214	C	0.674891	-0.212029	0.000139
C215	C	1.008225	0.121305	0.333472
C216	C	1.341558	0.454638	0.666805
O217	O	0.578070	-0.263215	0.000143
O218	O	0.911403	0.070118	0.333476
O219	O	1.244736	0.403451	0.666809
O220	O	0.770196	-0.289433	0.000128
O221	O	1.103529	0.043900	0.333462
O222	O	1.436863	0.377233	0.666795
C223	C	0.776472	0.069388	0.000151
C224	C	1.109805	0.402722	0.333485
C225	C	1.443138	0.736055	0.666818
C226	C	0.839689	0.070154	0.000157
C227	C	1.173022	0.403487	0.333490
C228	C	1.506355	0.736821	0.666824
C229	C	0.667577	0.178283	0.000098
C230	C	1.000910	0.511616	0.333432
C231	C	1.334244	0.844949	0.666765
C232	C	0.668343	0.241500	0.000080
C233	C	1.001676	0.574833	0.333413
C234	C	1.335010	0.908167	0.666747
N235	N	0.672317	0.074130	0.308373
N236	N	1.005651	0.407463	0.641706
N237	N	1.338984	0.740796	0.975040
N238	N	0.672335	0.074136	-0.308114
N239	N	1.005669	0.407469	0.025219
N240	N	1.339002	0.740803	0.358553
C241	C	0.672326	0.074136	0.574044
C242	C	1.005659	0.407469	0.907377
C243	C	1.338992	0.740803	1.240710
C244	C	0.672319	0.074134	0.426206
C245	C	1.005653	0.407468	0.759539
C246	C	1.338986	0.740801	1.092872
H247	H	0.206289	0.220908	0.000077
H248	H	0.539622	0.554241	0.333410
H249	H	0.872956	0.887574	0.666743
O250	O	0.490256	0.180417	-0.000017
O251	O	0.823589	0.513751	0.333316
O252	O	1.156922	0.847084	0.666650
C253	C	0.550569	0.169994	0.000002
C254	C	0.883902	0.503327	0.333335
C255	C	1.217235	0.836660	0.666668
H256	H	0.564762	0.125468	-0.040982
H257	H	0.898096	0.458801	0.292352
H258	H	1.231429	0.792134	0.625685
H259	H	0.568618	0.203423	-0.062911
H260	H	0.901952	0.536756	0.270422
H261	H	1.235285	0.870089	0.603756
H262	H	0.567096	0.172662	0.103909
H263	H	0.900430	0.505995	0.437242
H264	H	1.233763	0.839328	0.770575
H265	H	-0.059867	0.165717	0.000122
H266	H	0.273467	0.499050	0.333455
H267	H	0.606800	0.832384	0.666788
O268	O	-0.173327	0.172578	0.000076
O269	O	0.160006	0.505911	0.333409
O270	O	0.493340	0.839245	0.666742
C271	C	-0.140628	0.218877	0.000096
C272	C	0.192706	0.552210	0.333429
C273	C	0.526039	0.885543	0.666762
H274	H	-0.096212	0.204171	-0.040916
H275	H	0.237121	0.537504	0.292418
H276	H	0.570455	0.870838	0.625751
H277	H	-0.162745	0.254985	-0.062791
H278	H	0.170588	0.588319	0.270542
H279	H	0.503921	0.921652	0.603876
H280	H	-0.136484	0.234913	0.104007
H281	H	0.196849	0.568246	0.437340
H282	H	0.530183	0.901579	0.770674
H283	H	0.575496	-0.632386	0.000061
H284	H	0.908829	-0.299053	0.333394
H285	H	1.242162	0.034280	0.666727
H286	H	-0.141947	-0.023982	0.000167
H287	H	0.191387	0.309352	0.333500
H288	H	0.524720	0.642685	0.666833
O289	O	0.251824	-0.079493	0.000167
O290	O	0.585158	0.253841	0.333500
O291	O	0.918491	0.587174	0.666833
C292	C	0.219114	-0.125783	0.000223
C293	C	0.552447	0.207550	0.333556
C294	C	0.885781	0.540884	0.666889
H295	H	0.174697	-0.111065	-0.040781
H296	H	0.508030	0.222268	0.292553
H297	H	0.841363	0.555602	0.625886
H298	H	0.241219	-0.161892	-0.062653
H299	H	0.574552	0.171442	0.270680
H300	H	0.907886	0.504775	0.604014
H301	H	0.214976	-0.141824	0.104144
H302	H	0.548309	0.191509	0.437477
H303	H	0.881642	0.524843	0.770811
H304	H	0.762610	-0.765821	0.000104
H305	H	1.095943	-0.432488	0.333437
H306	H	1.429276	-0.099154	0.666770
H307	H	0.763906	-0.658056	0.000120
H308	H	1.097239	-0.324722	0.333453
H309	H	1.430573	0.008611	0.666786
H310	H	0.580748	-0.193677	0.000152
H311	H	0.914081	0.139656	0.333486
H312	H	1.247414	0.472989	0.666819
O313	O	0.573922	-0.080158	0.000360
O314	O	0.907255	0.253175	0.333693
O315	O	1.240589	0.586509	0.667026
C316	C	0.542141	-0.090381	0.112502
C317	C	0.875475	0.242952	0.445836
C318	C	1.208808	0.576286	0.779169
H319	H	0.572315	-0.110857	0.190930
H320	H	0.905648	0.222476	0.524263
H321	H	1.238982	0.555809	0.857596
H322	H	0.519058	-0.048109	0.150141
H323	H	0.852391	0.285224	0.483474
H324	H	1.185724	0.618558	0.816808
H325	H	0.509353	-0.120443	0.087120
H326	H	0.842686	0.212891	0.420453
H327	H	1.176019	0.546224	0.753786
O328	O	0.401047	-0.025704	0.000188
O329	O	0.734381	0.307629	0.333521
O330	O	1.067714	0.640962	0.666854
C331	C	0.446245	-0.071063	0.000153
C332	C	0.779578	0.262270	0.333487
C333	C	1.112911	0.595604	0.666820
H334	H	0.486514	-0.055334	0.041144
H335	H	0.819848	0.277999	0.374478
H336	H	1.153181	0.611332	0.707811
H337	H	0.434036	-0.107585	0.063051
H338	H	0.767370	0.225748	0.396384
H339	H	1.100703	0.559082	0.729718
H340	H	0.454731	-0.086948	-0.103759
H341	H	0.788064	0.246385	0.229574
H342	H	1.121397	0.579719	0.562907
O343	O	0.092844	0.227771	0.000033
O344	O	0.426177	0.561105	0.333366
O345	O	0.759511	0.894438	0.666700
C346	C	0.125562	0.274056	0.000046
C347	C	0.458895	0.607389	0.333379
C348	C	0.792229	0.940723	0.666712
H349	H	0.169977	0.259331	-0.040947
H350	H	0.503310	0.592665	0.292386
H351	H	0.836644	0.925998	0.625720
H352	H	0.103460	0.310166	-0.062861
H353	H	0.436794	0.643499	0.270472
H354	H	0.770127	0.976833	0.603805
H355	H	0.129705	0.290098	0.103952
H356	H	0.463038	0.623431	0.437286
H357	H	0.796371	0.956764	0.770619
O358	O	0.565944	-0.743599	0.000008
O359	O	0.899277	-0.410266	0.333342
O360	O	1.232611	-0.076933	0.666675
C361	C	0.520589	-0.698398	0.000037
C362	C	0.853922	-0.365065	0.333370
C363	C	1.187256	-0.031732	0.666703
H364	H	0.536324	-0.658129	-0.040958
H365	H	0.869658	-0.324795	0.292376
H366	H	1.202991	0.008538	0.625709
H367	H	0.484070	-0.710600	-0.062861
H368	H	0.817403	-0.377267	0.270473
H369	H	1.150736	-0.043934	0.603806
H370	H	0.504697	-0.689915	0.103948
H371	H	0.838030	-0.356582	0.437282
H372	H	1.171364	-0.023248	0.770615
H373	H	0.817806	-0.499645	0.000135
H374	H	1.151140	-0.166312	0.333469
H375	H	1.484473	0.167022	0.666802
H376	H	-0.034198	-0.022693	0.000185
H377	H	0.299136	0.310640	0.333518
H378	H	0.632469	0.643973	0.666851
O379	O	0.517292	-0.463277	-0.000040
O380	O	0.850625	-0.129944	0.333293
O381	O	1.183958	0.203389	0.666626
C382	C	0.471940	-0.418073	-0.000026
C383	C	0.805274	-0.084739	0.333307
C384	C	1.138607	0.248594	0.666641
H385	H	0.487682	-0.377805	-0.041017
H386	H	0.821015	-0.044472	0.292316
H387	H	1.154348	0.288861	0.625650
H388	H	0.435423	-0.430272	-0.062934
H389	H	0.768756	-0.096939	0.270400
H390	H	1.102090	0.236395	0.603733
H391	H	0.456043	-0.409587	0.103881
H392	H	0.789377	-0.076254	0.437214
H393	H	1.122710	0.257080	0.770548
H394	H	0.526850	-0.352066	0.000028
H395	H	0.860183	-0.018732	0.333361
H396	H	1.193516	0.314601	0.666694
H397	H	0.138375	-0.072634	0.000228
H398	H	0.471708	0.260700	0.333561
H399	H	0.805041	0.594033	0.666894
H400	H	0.512280	-0.016146	0.000119
H401	H	0.845613	0.317187	0.333453
H402	H	1.178946	0.650520	0.666786
H403	H	0.770443	-0.111587	0.000202
H404	H	1.103777	0.221746	0.333536
H405	H	1.437110	0.555080	0.666869
H406	H	0.769159	-0.219337	0.000157
H407	H	1.102492	0.113996	0.333491
H408	H	1.435826	0.447329	0.666824
O409	O	0.373151	0.179124	0.000019
O410	O	0.706485	0.512457	0.333352
O411	O	1.039818	0.845790	0.666686
C412	C	0.405867	0.225410	0.000024
C413	C	0.739200	0.558743	0.333357
C414	C	1.072534	0.892077	0.666691
H415	H	0.450281	0.210687	-0.040977
H416	H	0.783614	0.544020	0.292357
H417	H	1.116948	0.877354	0.625690
H418	H	0.383762	0.261519	-0.062880
H419	H	0.717095	0.594853	0.270453
H420	H	1.050429	0.928186	0.603787
H421	H	0.410013	0.241452	0.103929
H422	H	0.743346	0.574786	0.437263
H423	H	1.076680	0.908119	0.770596
H424	H	0.819097	-0.391900	0.000159
H425	H	1.152430	-0.058567	0.333492
H426	H	1.485763	0.274767	0.666825
