data_functionalizedCrystal
_audit_creation_method	'MofGen! by Chris Wilmer'
_symmetry_space_group_name_H-M	'P1'
_symmetry_Int_Tables_number	1
_symmetry_cell_setting	triclinic
loop_
_symmetry_equiv_pos_as_xyz
  x,y,z
_cell_length_a	21.295418
_cell_length_b	13.032721
_cell_length_c	13.032268
_cell_angle_alpha	76.710373
_cell_angle_beta	97.141274
_cell_angle_gamma	82.777348
loop_
_atom_site_label
_atom_site_type_symbol
_atom_site_fract_x
_atom_site_fract_y
_atom_site_fract_z
Zn1	Zn	0.874106	0.498740	-0.654662
Zn2	Zn	0.874037	0.653825	-0.499610
Zn3	Zn	0.784152	0.476270	-0.477034
Zn4	Zn	0.753512	0.676346	-0.677088
O5	O	0.821452	0.576295	-0.577098
O6	O	0.962183	0.519291	-0.634156
O7	O	0.874908	0.611443	-0.348002
O8	O	0.808936	0.330616	-0.481763
O9	O	0.962132	0.633231	-0.520240
O10	O	0.875025	0.347124	-0.612266
O11	O	0.808870	0.480995	-0.331416
O12	O	0.692001	0.502832	-0.503509
O13	O	0.756715	0.671615	-0.822726
O14	O	0.669490	0.649827	-0.650488
O15	O	0.845314	0.541129	-0.806250
O16	O	0.845197	0.805448	-0.541986
O17	O	0.756648	0.821994	-0.672379
C18	C	0.797605	0.852263	-0.612089
C19	C	0.787458	0.970328	-0.627093
C20	C	0.657906	0.576336	-0.576983
C21	C	0.587936	0.576382	-0.576962
C22	C	0.797604	0.611391	-0.854099
C23	C	0.787442	0.626346	-0.972141
C24	C	0.543365	0.652999	-0.653404
C25	C	0.477621	0.652979	-0.653449
C26	C	0.456450	0.576350	-0.577034
C27	C	0.501030	0.499719	-0.500585
C28	C	0.566773	0.499735	-0.500550
N29	N	0.361905	0.556260	-0.483091
N30	N	0.299451	0.556252	-0.483128
C31	C	0.258372	0.576297	-0.577138
N32	N	0.282103	0.596371	-0.671113
N33	N	0.344562	0.596385	-0.671075
C34	C	0.385164	0.576324	-0.577064
C35	C	0.142512	0.652896	-0.653634
C36	C	0.076767	0.652869	-0.653679
C37	C	0.100179	0.499614	-0.500807
C38	C	0.165922	0.499637	-0.500771
C39	C	0.187085	0.576284	-0.577183
C40	C	0.985636	0.576256	-0.577215
C41	C	1.055602	0.576239	-0.577264
C42	C	0.845406	0.299253	-0.541995
C43	C	0.855614	0.181194	-0.527036
C44	C	0.826777	1.014750	-0.569315
C45	C	0.816290	1.136776	-0.584822
C46	C	0.826749	0.568452	-1.016615
C47	C	0.816247	0.583908	-1.138616
C48	C	0.845249	0.541260	-0.301165
C49	C	0.855559	0.526005	-0.183087
H50	H	0.441324	0.715370	-0.715701
O51	O	0.209136	0.425170	-0.426403
C52	C	0.225417	0.273123	-0.274823
C53	C	0.176408	0.357417	-0.358968
H54	H	0.198975	0.218309	-0.220294
H55	H	0.256730	0.314703	-0.225290
H56	H	0.256834	0.223904	-0.316647
H57	H	0.144949	0.406662	-0.317232
H58	H	0.145140	0.315771	-0.408495
O59	O	0.905115	1.118866	-0.454440
C60	C	1.019564	1.078074	-0.398745
C61	C	0.963567	1.148717	-0.481045
H62	H	1.066835	1.102198	-0.420212
H63	H	1.019272	0.990765	-0.399196
H64	H	1.014032	1.089011	-0.315844
H65	H	0.969062	1.137873	-0.563985
H66	H	0.963876	1.236000	-0.480500
O67	O	0.876160	0.495751	-0.954146
C68	C	0.931642	0.413987	-0.775583
C69	C	0.875666	0.496375	-0.846202
H70	H	0.931253	0.414449	-0.688294
H71	H	0.978947	0.435360	-0.799648
H72	H	0.926140	0.331096	-0.786529
H73	H	0.881107	0.579295	-0.835291
H74	H	0.828383	0.474910	-0.822120
H75	H	0.774813	0.644913	-1.190857
H76	H	0.868204	0.962445	-0.508373
O77	O	0.766881	1.199317	-0.657458
C78	C	0.711422	1.377973	-0.739217
C79	C	0.767392	1.307269	-0.656904
H80	H	0.711825	1.465268	-0.738812
H81	H	0.664113	1.354035	-0.717738
H82	H	0.716921	1.366957	-0.822102
H83	H	0.761954	1.318249	-0.573989
H84	H	0.814680	1.331223	-0.678475
O85	O	0.738052	1.032873	-0.699726
C86	C	0.682593	1.211529	-0.781484
C87	C	0.738563	1.140824	-0.699171
H88	H	0.682996	1.298824	-0.781079
H89	H	0.635284	1.187591	-0.760005
H90	H	0.688092	1.200513	-0.864369
H91	H	0.733125	1.151805	-0.616257
H92	H	0.785851	1.164779	-0.720742
O93	O	0.480548	0.425317	-0.426211
C94	C	0.480361	0.350638	-0.239086
C95	C	0.503611	0.434939	-0.323202
H96	H	0.498987	0.358403	-0.155785
H97	H	0.499122	0.267375	-0.246924
H98	H	0.425717	0.363775	-0.252288
H99	H	0.558252	0.421902	-0.310053
H100	H	0.484802	0.518173	-0.315342
H101	H	0.746012	0.687347	-1.024385
O102	O	0.563812	0.727492	-0.727739
C103	C	0.533651	0.879538	-0.879323
C104	C	0.510405	0.795224	-0.795215
H105	H	0.490483	0.934335	-0.933886
H106	H	0.563859	0.837975	-0.928826
H107	H	0.563828	0.928771	-0.837468
H108	H	0.480203	0.745965	-0.836984
H109	H	0.480230	0.836853	-0.745718
O110	O	0.610134	0.425452	-0.426252
C111	C	0.697864	0.392802	-0.280968
C112	C	0.648801	0.477038	-0.365077
H113	H	0.729131	0.434476	-0.231471
H114	H	0.729319	0.343547	-0.322710
H115	H	0.671430	0.338007	-0.226405
H116	H	0.675183	0.531903	-0.419665
H117	H	0.617349	0.526214	-0.323266
O118	O	0.904908	0.453133	-1.120658
C119	C	0.936470	0.293892	-0.977218
C120	C	0.880529	0.376366	-1.047821
H121	H	0.916779	0.231792	-0.918328
H122	H	0.969618	0.336022	-0.931402
H123	H	0.964431	0.252762	-1.029719
H124	H	0.852519	0.417522	-0.995400
H125	H	0.847426	0.334177	-1.093646
O126	O	0.162966	0.727384	-0.727970
C127	C	0.132809	0.879418	-0.879568
C128	C	0.109560	0.795110	-0.795457
H129	H	0.089642	0.934210	-0.934139
H130	H	0.163021	0.837848	-0.929062
H131	H	0.162982	0.928657	-0.837716
H132	H	0.079361	0.745845	-0.837222
H133	H	0.079382	0.836745	-0.745969
O134	O	0.033383	0.727194	-0.727893
C135	C	-0.078272	0.795128	-0.795660
C136	C	-0.029208	0.710879	-0.711567
H137	H	-0.128887	0.781980	-0.782476
H138	H	-0.071122	0.787475	-0.878995
H139	H	-0.071124	0.878357	-0.787721
H140	H	-0.036326	0.627613	-0.719408
H141	H	-0.036370	0.718625	-0.628267
O142	O	0.079513	0.425303	-0.426601
C143	C	-0.011391	0.357367	-0.358894
C144	C	0.011928	0.441590	-0.442992
H145	H	-0.066036	0.370492	-0.372131
H146	H	0.007225	0.365072	-0.275565
H147	H	0.007381	0.274125	-0.366773
H148	H	-0.006835	0.524869	-0.435211
H149	H	-0.006682	0.433791	-0.526287
