data_functionalizedCrystal
_audit_creation_method	'MofGen! by Chris Wilmer'
_symmetry_space_group_name_H-M	'P1'
_symmetry_Int_Tables_number	1
_symmetry_cell_setting	triclinic
loop_
_symmetry_equiv_pos_as_xyz
  x,y,z
_cell_length_a	21.395362
_cell_length_b	10.686285
_cell_length_c	21.395356
_cell_angle_alpha	85.612989
_cell_angle_beta	89.964230
_cell_angle_gamma	85.645931
loop_
_atom_site_label
_atom_site_type_symbol
_atom_site_fract_x
_atom_site_fract_y
_atom_site_fract_z
Zn1	Zn	0.977030	-0.501856	-0.335535
Zn2	Zn	1.477030	-0.001856	0.164465
Zn3	Zn	0.985028	-0.712853	-0.222748
Zn4	Zn	1.485028	-0.212853	0.277252
Zn5	Zn	0.872263	-0.501941	-0.230733
Zn6	Zn	1.372263	-0.001941	0.269267
Zn7	Zn	0.880295	-0.712853	-0.327453
Zn8	Zn	1.380295	-0.212853	0.172547
O9	O	0.928654	-0.607376	-0.279117
O10	O	1.428654	-0.107376	0.220883
O11	O	1.065767	-0.529810	-0.320614
O12	O	1.565767	-0.029810	0.179386
O13	O	0.970056	-0.684911	-0.136128
O14	O	1.470056	-0.184911	0.363872
O15	O	0.879452	-0.325359	-0.251360
O16	O	1.379452	0.174641	0.248640
O17	O	1.071644	-0.684828	-0.237750
O18	O	1.571644	-0.184828	0.262250
O19	O	0.956423	-0.325296	-0.328357
O20	O	1.456423	0.174704	0.171643
O21	O	0.887207	-0.529954	-0.141995
O22	O	1.387207	-0.029954	0.358005
O23	O	0.785652	-0.529954	-0.243523
O24	O	1.285652	-0.029954	0.256477
O25	O	0.893141	-0.684828	-0.416204
O26	O	1.393141	-0.184828	0.083796
O27	O	0.791553	-0.684910	-0.314582
O28	O	1.291553	-0.184910	0.185418
O29	O	0.964212	-0.529809	-0.422142
O30	O	1.464212	-0.029809	0.077858
O31	O	0.977844	-0.889423	-0.229913
O32	O	1.477844	-0.389423	0.270087
O33	O	0.900897	-0.889423	-0.306840
O34	O	1.400897	-0.389423	0.193160
C35	C	0.765869	-0.607442	-0.279042
C36	C	1.265869	-0.107442	0.220958
C37	C	0.696230	-0.607501	-0.279024
C38	C	1.196230	-0.107501	0.220976
C39	C	0.666610	-0.688294	-0.315960
C40	C	1.166610	-0.188294	0.184040
C41	C	0.601173	-0.688263	-0.315990
C42	C	1.101173	-0.188263	0.184010
C43	C	0.565360	-0.607453	-0.279070
C44	C	1.065360	-0.107453	0.220930
C45	C	0.594987	-0.526644	-0.242131
C46	C	1.094987	-0.026644	0.257869
C47	C	0.660422	-0.526669	-0.242108
C48	C	1.160422	-0.026669	0.257892
C49	C	0.461254	-0.597302	-0.223050
C50	C	0.961254	-0.097302	0.276950
C51	C	0.395821	-0.597286	-0.223072
C52	C	0.895821	-0.097286	0.276928
C53	C	0.363536	-0.607370	-0.279143
C54	C	0.863536	-0.107370	0.220857
C55	C	0.396694	-0.617496	-0.335192
C56	C	0.896694	-0.117496	0.164808
C57	C	0.462129	-0.617520	-0.335169
C58	C	0.962129	-0.117520	0.164831
C59	C	0.494406	-0.607417	-0.279092
C60	C	0.994406	-0.107417	0.220908
C61	C	0.262962	-0.688134	-0.316114
C62	C	0.762962	-0.188134	0.183886
C63	C	0.197524	-0.688094	-0.316144
C64	C	0.697524	-0.188094	0.183856
C65	C	0.191339	-0.526482	-0.242280
C66	C	0.691339	-0.026482	0.257720
C67	C	0.256776	-0.526515	-0.242256
C68	C	0.756776	-0.026515	0.257744
C69	C	0.292584	-0.607348	-0.279171
C70	C	0.792584	-0.107348	0.220829
C71	C	0.941127	-0.935206	-0.266647
C72	C	1.441127	-0.435206	0.233353
C73	C	0.946520	-1.075453	-0.261333
C74	C	1.446520	-0.575453	0.238667
C75	C	1.092075	-0.607309	-0.279193
C76	C	1.592075	-0.107309	0.220807
C77	C	1.161715	-0.607281	-0.279226
C78	C	1.661715	-0.107281	0.220774
C79	C	0.928680	-0.607309	-0.442543
C80	C	1.428680	-0.107309	0.057457
C81	C	0.928691	-0.607281	-0.512186
C82	C	1.428691	-0.107281	-0.012186
C83	C	0.916149	-0.278265	-0.291651
C84	C	1.416149	0.221735	0.208349
C85	C	0.910821	-0.138017	-0.296992
C86	C	1.410821	0.361983	0.203008
C87	C	0.971891	-0.687702	-1.010938
C88	C	1.471891	-0.187702	-0.510938
C89	C	0.971881	-0.687742	-0.945501
C90	C	1.471881	-0.187742	-0.445501
C91	C	0.928743	-0.607081	-0.915832
C92	C	1.428743	-0.107081	-0.415832
C93	C	0.885602	-0.526396	-0.951604
C94	C	1.385602	-0.026396	-0.451604
C95	C	0.885609	-0.526368	-1.017040
C96	C	1.385609	-0.026368	-0.517040
C97	C	0.919466	-0.493448	-0.816488
C98	C	1.419466	0.006552	-0.316488
C99	C	0.919463	-0.493474	-0.751054
C100	C	1.419463	0.006526	-0.251054
C101	C	0.928719	-0.607170	-0.714008
C102	C	1.428719	-0.107170	-0.214008
C103	C	0.937990	-0.720843	-0.742403
C104	C	1.437990	-0.220843	-0.242403
C105	C	0.937997	-0.720814	-0.807838
C106	C	1.437997	-0.220814	-0.307838
C107	C	0.928731	-0.607104	-0.844879
C108	C	1.428731	-0.107104	-0.344879
C109	C	0.971844	-0.687899	-0.607289
C110	C	1.471844	-0.187899	-0.107289
C111	C	0.971830	-0.687942	-0.541850
C112	C	1.471830	-0.187942	-0.041850
C113	C	0.885554	-0.526584	-0.547955
C114	C	1.385554	-0.026584	-0.047955
C115	C	0.885565	-0.526554	-0.613392
C116	C	1.385565	-0.026554	-0.113392
C117	C	0.928713	-0.607209	-0.643055
C118	C	1.428713	-0.107209	-0.143055
C119	C	0.928660	-0.607351	-0.116331
C120	C	1.428660	-0.107351	0.383669
C121	C	0.928757	-0.607023	-0.046702
C122	C	1.428757	-0.107023	0.453298
H123	H	0.280893	-0.460731	-0.212175
H124	H	0.780893	0.039269	0.287825
H125	H	0.487535	-0.589085	-0.177388
H126	H	0.987535	-0.089085	0.322612
H127	H	0.695761	-0.754112	-0.346021
H128	H	1.195761	-0.254112	0.153979
O129	O	0.864870	-1.066844	-0.342817
O130	O	1.364870	-0.566844	0.157183
H131	H	0.816666	-1.092177	-0.331053
H132	H	1.316666	-0.592177	0.168947
H133	H	0.981208	-1.129190	-0.226731
H134	H	1.481208	-0.629190	0.273269
O135	O	0.909487	-0.370811	-0.856445
O136	O	1.409487	0.129189	-0.356445
H137	H	0.903051	-0.291774	-0.825709
H138	H	1.403051	0.208226	-0.325709
H139	H	1.006952	-0.753652	-0.512731
H140	H	1.506952	-0.253652	-0.012731
O141	O	1.018411	-0.774726	-1.042932
O142	O	1.518411	-0.274726	-0.542932
H143	H	1.048395	-0.830851	-1.007064
H144	H	1.548395	-0.330851	-0.507064
H145	H	0.368829	-0.589049	-0.177433
H146	H	0.868829	-0.089049	0.322567
O147	O	1.018407	-0.774760	-0.906916
O148	O	1.518407	-0.274760	-0.406916
H149	H	1.048124	-0.718267	-0.879269
H150	H	1.548124	-0.218267	-0.379269
O151	O	0.947981	-0.843408	-0.838467
O152	O	1.447981	-0.343408	-0.338467
H153	H	0.954410	-0.922480	-0.801718
H154	H	1.454410	-0.422480	-0.301718
O155	O	0.947968	-0.843488	-0.702456
O156	O	1.447968	-0.343488	-0.202456
H157	H	0.946397	-0.824419	-0.652185
H158	H	1.446397	-0.324419	-0.152185
O159	O	1.018370	-0.774905	-0.639289
O160	O	1.518370	-0.274905	-0.139289
H161	H	1.048355	-0.831033	-0.603423
H162	H	1.548355	-0.331033	-0.103423
H163	H	0.850429	-0.460911	-0.523799
H164	H	1.350429	0.039089	-0.023799
H165	H	0.850443	-0.460851	-0.642512
H166	H	1.350443	0.039149	-0.142512
O167	O	0.909475	-0.370877	-0.720429
O168	O	1.409475	0.129123	-0.220429
H169	H	0.903031	-0.291814	-0.757181
H170	H	1.403031	0.208186	-0.257181
H171	H	0.370409	-0.625705	-0.380850
H172	H	0.870409	-0.125705	0.119150
H173	H	0.565823	-0.460846	-0.212073
H174	H	1.065823	0.039154	0.287927
O175	O	0.692376	-0.439549	-0.202255
O176	O	1.192376	0.060451	0.297745
H177	H	0.656483	-0.383358	-0.176581
H178	H	1.156483	0.116642	0.323419
O179	O	0.839077	-0.439386	-0.919610
O180	O	1.339077	0.060614	-0.419610
H181	H	0.846323	-0.452948	-0.868100
H182	H	1.346323	0.047052	-0.368100
H183	H	0.850484	-0.460666	-1.046159
H184	H	1.350484	0.039334	-0.546159
O185	O	0.301593	-0.775266	-0.355948
O186	O	0.801593	-0.275266	0.144052
H187	H	0.333805	-0.839412	-0.325414
H188	H	0.833805	-0.339412	0.174586
O189	O	0.569229	-0.775458	-0.355813
O190	O	1.069229	-0.275458	0.144187
H191	H	0.581023	-0.754007	-0.405822
H192	H	1.081023	-0.254007	0.094178
O193	O	0.497894	-0.628415	-0.395617
O194	O	0.997894	-0.128415	0.104383
H195	H	0.464456	-0.635411	-0.434615
H196	H	0.964456	-0.135411	0.065385
H197	H	0.173409	-0.753883	-0.346227
H198	H	0.673409	-0.253883	0.153773
H199	H	0.162180	-0.460679	-0.212223
H200	H	0.662180	0.039321	0.287777
