data_functionalizedCrystal
_audit_creation_method	'MofGen! by Chris Wilmer'
_symmetry_space_group_name_H-M	'P1'
_symmetry_Int_Tables_number	1
_symmetry_cell_setting	triclinic
loop_
_symmetry_equiv_pos_as_xyz
  x,y,z
_cell_length_a	16.109301
_cell_length_b	16.109304
_cell_length_c	14.586319
_cell_angle_alpha	90.000282
_cell_angle_beta	89.998857
_cell_angle_gamma	96.537896
loop_
_atom_site_label
_atom_site_type_symbol
_atom_site_fract_x
_atom_site_fract_y
_atom_site_fract_z
O1	O	1.103132	-0.106867	-0.076183
O2	O	1.603132	0.393133	0.423817
O3	O	0.861070	-0.120166	-0.076195
O4	O	1.361070	0.379834	0.423805
O5	O	0.988749	0.007514	-0.076191
O6	O	1.488749	0.507514	0.423809
O7	O	0.975452	-0.234547	-0.076187
O8	O	1.475452	0.265453	0.423813
O9	O	0.988740	0.007516	0.076290
O10	O	1.488740	0.507516	0.576290
O11	O	0.861061	-0.120164	0.076286
O12	O	1.361061	0.379836	0.576286
O13	O	1.103123	-0.106865	0.076298
O14	O	1.603123	0.393135	0.576298
Cu15	Cu	0.982091	-0.113514	0.090215
Cu16	Cu	1.482091	0.386486	0.590215
Cu17	Cu	0.982102	-0.113517	-0.090111
Cu18	Cu	1.482102	0.386483	0.409889
O19	O	0.975444	-0.234545	0.076294
O20	O	1.475444	0.265455	0.576294
C21	C	0.830091	-0.119626	0.000044
C22	C	1.330091	0.380374	0.500044
C23	C	0.737795	-0.118011	0.000039
C24	C	1.237795	0.381989	0.500039
C25	C	0.428798	-0.188494	0.000056
C26	C	0.928798	0.311506	0.500056
C27	C	0.515518	-0.190020	0.000051
C28	C	1.015518	0.309980	0.500051
C29	C	0.535390	-0.038531	0.000036
C30	C	1.035390	0.461469	0.500036
C31	C	0.448671	-0.037007	0.000035
C32	C	0.948671	0.462993	0.500035
C33	C	0.395377	-0.111991	0.000050
C34	C	0.895377	0.388009	0.500050
C35	C	0.568816	-0.115040	0.000046
C36	C	1.068816	0.384960	0.500046
C37	C	0.662842	-0.116694	0.000040
C38	C	1.162842	0.383306	0.500040
C39	C	0.301345	-0.110338	0.000054
C40	C	0.801345	0.389662	0.500054
C41	C	0.988206	0.038490	0.000047
C42	C	1.488206	0.538490	0.500047
C43	C	0.986590	0.130785	0.000040
C44	C	1.486590	0.630785	0.500040
C45	C	1.134102	-0.107405	0.000057
C46	C	1.634102	0.392595	0.500057
C47	C	1.226397	-0.109020	0.000056
C48	C	1.726397	0.390980	0.500056
N49	N	0.982090	-0.113512	0.217047
N50	N	1.482090	0.386488	0.717047
C51	C	0.982861	0.343122	-0.083077
C52	C	1.482861	0.843122	0.416923
C53	C	0.981335	0.429842	-0.083078
C54	C	1.481335	0.929842	0.416922
C55	C	0.981329	0.429841	0.083165
C56	C	1.481329	0.929841	0.583165
C57	C	0.982850	0.343122	0.083165
C58	C	1.482850	0.843122	0.583165
C59	C	0.983620	0.299765	0.000041
C60	C	1.483620	0.799765	0.500041
C61	C	0.980573	0.473204	0.000041
C62	C	1.480573	0.973204	0.500041
C63	C	0.978919	0.567230	0.000041
C64	C	1.478919	1.067230	0.500041
C65	C	0.985273	0.205733	0.000040
C66	C	1.485273	0.705733	0.500040
C67	C	0.975987	0.734479	0.000051
C68	C	1.475987	1.234479	0.500051
C69	C	0.977603	0.642184	0.000042
C70	C	1.477603	1.142184	0.500042
N71	N	0.982110	-0.113512	-0.216943
N72	N	1.482110	0.386488	0.283057
C73	C	1.038645	-0.056994	0.452055
C74	C	1.538645	0.443006	0.952055
C75	C	1.038647	-0.056992	0.548036
C76	C	1.538647	0.443008	1.048036
C77	C	0.925548	-0.170033	0.548042
C78	C	1.425548	0.329967	1.048042
C79	C	0.925543	-0.170030	0.452062
C80	C	1.425543	0.329970	0.952062
C81	C	0.982096	-0.113512	0.404071
C82	C	1.482096	0.386488	0.904071
C83	C	0.982104	-0.113513	0.596032
C84	C	1.482104	0.386487	1.096032
C85	C	0.982106	-0.113511	0.700099
C86	C	1.482106	0.386489	1.200099
C87	C	0.982093	-0.113512	0.299998
C88	C	1.482093	0.386488	0.799998
H89	H	0.578792	0.022518	0.000027
H90	H	1.078792	0.522518	0.500027
H91	H	0.542724	-0.252316	0.000055
H92	H	1.042724	0.247684	0.500055
C93	C	0.875318	-0.220218	0.304932
C94	C	1.375318	0.279782	0.804932
C95	C	0.863381	-0.232161	0.399310
C96	C	1.363381	0.267839	0.899310
H97	H	0.836939	-0.258570	0.272367
H98	H	1.336939	0.241430	0.772367
H99	H	0.930794	-0.229263	0.289205
H100	H	1.430794	0.270737	0.789205
H101	H	0.866301	-0.164724	0.289218
H102	H	1.366301	0.335276	0.789218
H103	H	0.872404	-0.287654	0.415026
H104	H	1.372404	0.212346	0.915026
H105	H	0.807892	-0.223123	0.415044
H106	H	1.307892	0.276877	0.915044
C107	C	0.362683	0.052586	-0.078365
C108	C	0.862683	0.552586	0.421635
C109	C	0.411931	0.047094	0.000025
C110	C	0.911931	0.547094	0.500025
H111	H	0.340006	0.104507	-0.078376
H112	H	0.840006	0.604507	0.421624
H113	H	0.318537	0.008154	-0.078354
H114	H	0.818537	0.508154	0.421646
H115	H	0.396112	0.048837	-0.131529
H116	H	0.896112	0.548837	0.368471
H117	H	0.378500	0.050837	0.053189
H118	H	0.878500	0.550837	0.553189
H119	H	0.456083	0.091539	0.000022
H120	H	0.956083	0.591539	0.500022
H121	H	0.385408	-0.249551	0.000067
H122	H	0.885408	0.250449	0.500067
H123	H	0.983486	0.307823	-0.150762
H124	H	1.483486	0.807823	0.349238
C125	C	0.982698	0.351825	0.247496
C126	C	1.482698	0.851825	0.747496
C127	C	0.983685	0.295457	0.174536
C128	C	1.483685	0.795457	0.674536
H129	H	0.983217	0.322397	0.303900
H130	H	1.483217	0.822397	0.803900
H131	H	0.933655	0.379295	0.244040
H132	H	1.433655	0.879295	0.744040
H133	H	1.030564	0.392004	0.244036
H134	H	1.530564	0.892004	0.744036
H135	H	0.935816	0.255282	0.177992
H136	H	1.435816	0.755282	0.677992
H137	H	1.032734	0.267974	0.177993
H138	H	1.532734	0.767974	0.677993
C139	C	0.981503	0.421128	-0.247399
C140	C	1.481503	0.921128	0.252601
C141	C	0.980505	0.477500	-0.174444
C142	C	1.480505	0.977500	0.325556
H143	H	0.980995	0.450552	-0.303806
H144	H	1.480995	0.950552	0.196194
H145	H	0.933646	0.380951	-0.243943
H146	H	1.433646	0.880951	0.256057
H147	H	1.030555	0.393659	-0.243931
H148	H	1.530555	0.893659	0.256069
H149	H	0.931450	0.504965	-0.177908
H150	H	1.431450	1.004965	0.322092
H151	H	1.028367	0.517692	-0.177901
H152	H	1.528367	1.017692	0.322099
H153	H	0.879505	-0.216050	0.587126
H154	H	1.379505	0.283950	1.087126
C155	C	0.979013	0.562778	0.156982
C156	C	1.479013	1.062778	0.656982
C157	C	0.980500	0.477504	0.174532
C158	C	1.480500	0.977504	0.674532
H159	H	0.978510	0.592201	0.213391
H160	H	1.478510	1.092201	0.713391
H161	H	0.930312	0.570636	0.122842
H162	H	1.430312	1.070636	0.622842
H163	H	1.027221	0.583331	0.122824
H164	H	1.527221	1.083331	0.622824
H165	H	0.932289	0.456949	0.208685
H166	H	1.432289	0.956949	0.708685
H167	H	1.029206	0.469641	0.208687
H168	H	1.529206	0.969641	0.708687
C169	C	1.150431	0.054748	0.461693
C170	C	1.650431	0.554748	0.961693
C171	C	1.100799	0.005137	0.399302
C172	C	1.600799	0.505137	0.899302
H173	H	1.188797	0.093110	0.429126
H174	H	1.688797	0.593110	0.929126
H175	H	1.180329	0.020131	0.499121
H176	H	1.680329	0.520131	0.999121
H177	H	1.115823	0.084657	0.499136
H178	H	1.615823	0.584657	0.999136
H179	H	1.135406	-0.024778	0.361864
H180	H	1.635406	0.475222	0.861864
H181	H	1.070899	0.039758	0.361859
H182	H	1.570899	0.539758	0.861859
H183	H	1.084694	-0.010970	0.587102
H184	H	1.584694	0.489030	1.087102
