data_functionalizedCrystal
_audit_creation_method	'MofGen! by Chris Wilmer'
_symmetry_space_group_name_H-M	'P1'
_symmetry_Int_Tables_number	1
_symmetry_cell_setting	triclinic
loop_
_symmetry_equiv_pos_as_xyz
  x,y,z
_cell_length_a	12.759401
_cell_length_b	19.121063
_cell_length_c	12.759393
_cell_angle_alpha	92.404035
_cell_angle_beta	89.980404
_cell_angle_gamma	92.469135
loop_
_atom_site_label
_atom_site_type_symbol
_atom_site_fract_x
_atom_site_fract_y
_atom_site_fract_z
Zn1	Zn	1.588332	-0.279574	-0.611773
Zn2	Zn	2.088332	0.220426	-0.111773
Zn3	Zn	1.580688	-0.397040	-0.443568
Zn4	Zn	2.080688	0.102960	0.056432
Zn5	Zn	1.412629	-0.279609	-0.436114
Zn6	Zn	1.912629	0.220391	0.063886
Zn7	Zn	1.405091	-0.396989	-0.619206
Zn8	Zn	1.905091	0.103011	-0.119206
O9	O	1.496685	-0.338303	-0.527665
O10	O	1.996685	0.161697	-0.027665
O11	O	1.734339	-0.295163	-0.589469
O12	O	2.234339	0.204837	-0.089469
O13	O	1.558350	-0.381499	-0.295560
O14	O	2.058350	0.118501	0.204440
O15	O	1.442290	-0.181320	-0.453186
O16	O	1.942290	0.318680	0.046814
O17	O	1.728723	-0.381465	-0.465889
O18	O	2.228723	0.118535	0.034111
O19	O	1.571378	-0.181294	-0.582241
O20	O	2.071378	0.318706	-0.082241
O21	O	1.434878	-0.295222	-0.290084
O22	O	1.934878	0.204778	0.209916
O23	O	1.264608	-0.295172	-0.460393
O24	O	1.764608	0.204828	0.039607
O25	O	1.429443	-0.381377	-0.765239
O26	O	1.929443	0.118623	-0.265239
O27	O	1.259070	-0.381411	-0.594910
O28	O	1.759070	0.118589	-0.094910
O29	O	1.564069	-0.295113	-0.759778
O30	O	2.064069	0.204887	-0.259778
O31	O	1.551041	-0.495318	-0.473097
O32	O	2.051041	0.004682	0.026903
O33	O	1.422030	-0.495280	-0.602137
O34	O	1.922030	0.004720	-0.102137
C35	C	1.223718	-0.338290	-0.527650
C36	C	1.723718	0.161710	-0.027650
C37	C	1.106941	-0.338302	-0.527669
C38	C	1.606941	0.161698	-0.027669
C39	C	0.939487	-0.383285	-0.597619
C40	C	1.439487	0.116715	-0.097619
C41	C	1.049211	-0.383278	-0.597607
C42	C	1.549211	0.116722	-0.097607
C43	C	1.054940	-0.293336	-0.457731
C44	C	1.554940	0.206664	0.042269
C45	C	0.945218	-0.293348	-0.457738
C46	C	1.445218	0.206652	0.042262
C47	C	1.484917	-0.520783	-0.539255
C48	C	1.984917	-0.020783	-0.039255
C49	C	1.479978	-0.598849	-0.544249
C50	C	1.979978	-0.098849	-0.044249
C51	C	1.544880	-0.635520	-0.479466
C52	C	2.044880	-0.135520	0.020534
C53	C	1.540241	-0.708871	-0.484168
C54	C	2.040241	-0.208871	0.015832
C55	C	1.470696	-0.745549	-0.553649
C56	C	1.970696	-0.245549	-0.053649
C57	C	1.405792	-0.708872	-0.618439
C58	C	1.905792	-0.208872	-0.118439
C59	C	1.410436	-0.635523	-0.613741
C60	C	1.910436	-0.135523	-0.113741
C61	C	1.453315	-0.967018	-0.571197
C62	C	1.953315	-0.467018	-0.071197
C63	C	1.448673	-1.040373	-0.575887
C64	C	1.948673	-0.540373	-0.075887
C65	C	1.583124	-1.040367	-0.441617
C66	C	2.083124	-0.540367	0.058383
C67	C	1.587758	-0.967016	-0.436921
C68	C	2.087758	-0.467016	0.063079
C69	C	1.522858	-0.930345	-0.501715
C70	C	2.022858	-0.430345	-0.001715
C71	C	1.465951	-0.820526	-0.558455
C72	C	1.965951	-0.320526	-0.058455
C73	C	1.527609	-0.855370	-0.496914
C74	C	2.027609	-0.355370	0.003086
C75	C	1.770717	-0.338316	-0.527681
C76	C	2.270717	0.161684	-0.027681
C77	C	1.887494	-0.338322	-0.527688
C78	C	2.387494	0.161678	-0.027688
C79	C	1.496768	-0.338235	-0.801694
C80	C	1.996768	0.161765	-0.301694
C81	C	1.496803	-0.338207	-0.918469
C82	C	1.996803	0.161793	-0.418469
C83	C	1.508528	-0.155110	-0.516053
C84	C	2.008528	0.344890	-0.016053
C85	C	1.513574	-0.077045	-0.511105
C86	C	2.013574	0.422955	-0.011105
C87	C	1.566909	-0.293282	-0.970489
C88	C	2.066909	0.206718	-0.470489
C89	C	1.566928	-0.293251	-1.080211
C90	C	2.066928	0.206749	-0.580211
C91	C	1.426734	-0.383077	-1.085885
C92	C	1.926734	0.116923	-0.585885
C93	C	1.426710	-0.383103	-0.976164
C94	C	1.926710	0.116897	-0.476164
C95	C	1.496666	-0.338319	-0.254699
C96	C	1.996666	0.161681	0.245301
C97	C	1.496847	-0.338150	-0.137912
C98	C	1.996847	0.161850	0.362088
H99	H	1.101953	-0.256719	-0.400782
H100	H	1.601953	0.243281	0.099218
H101	H	1.357589	-0.605665	-0.666496
H102	H	1.857589	-0.105665	-0.166496
H103	H	1.584237	-0.825505	-0.440346
H104	H	2.084237	-0.325505	0.059654
N105	N	1.642509	-0.244859	-0.908264
N106	N	2.142509	0.255141	-0.408264
H107	H	1.689342	-0.273421	-0.864567
H108	H	2.189342	0.226579	-0.364567
H109	H	1.686850	-0.216409	-0.957945
H110	H	2.186850	0.283591	-0.457945
H111	H	0.902884	-0.256732	-0.400787
H112	H	1.402884	0.243268	0.099213
H113	H	1.369669	-0.419632	-1.132873
H114	H	1.869669	0.080368	-0.632873
N115	N	1.619886	-0.595963	-0.404522
N116	N	2.119886	-0.095963	0.095478
H117	H	1.660298	-0.630328	-0.364199
H118	H	2.160298	-0.130328	0.135801
H119	H	1.670413	-0.565481	-0.445379
H120	H	2.170413	-0.065481	0.054621
H121	H	1.593090	-0.738726	-0.431414
H122	H	2.093090	-0.238726	0.068586
H123	H	1.635963	-1.070232	-0.388868
H124	H	2.135963	-0.570232	0.111132
N125	N	1.662783	-0.927457	-0.361997
N126	N	2.162783	-0.427457	0.138003
H127	H	1.703201	-0.961820	-0.321676
H128	H	2.203201	-0.461820	0.178324
H129	H	1.713303	-0.896980	-0.402871
H130	H	2.213303	-0.396980	0.097129
N131	N	1.642530	-0.244789	-1.136319
N132	N	2.142530	0.255211	-0.636319
H133	H	1.686924	-0.216351	-1.083117
H134	H	2.186924	0.283649	-0.583117
H135	H	1.689313	-0.273363	-1.183670
H136	H	2.189313	0.226637	-0.683670
H137	H	1.392054	-1.070234	-0.632485
H138	H	1.892054	-0.570234	-0.132485
H139	H	1.400469	-0.937167	-0.623953
H140	H	1.900469	-0.437167	-0.123953
H141	H	1.369614	-0.419686	-0.933809
H142	H	1.869614	0.080314	-0.433809
H143	H	1.091539	-0.419892	-0.654551
H144	H	1.591539	0.080108	-0.154551
N145	N	0.877225	-0.431793	-0.673055
N146	N	1.377225	0.068207	-0.173055
H147	H	0.926816	-0.460278	-0.717351
H148	H	1.426816	0.039722	-0.217351
H149	H	0.829596	-0.464266	-0.632271
H150	H	1.329596	0.035734	-0.132271
H151	H	1.349171	-0.738741	-0.675016
H152	H	1.849171	-0.238741	-0.175016
H153	H	1.409325	-0.850397	-0.615024
H154	H	1.909325	-0.350397	-0.115024
