data_functionalizedCrystal
_audit_creation_method	'MofGen! by Chris Wilmer'
_symmetry_space_group_name_H-M	'P1'
_symmetry_Int_Tables_number	1
_symmetry_cell_setting	triclinic
loop_
_symmetry_equiv_pos_as_xyz
  x,y,z
_cell_length_a	25.639242
_cell_length_b	25.639239
_cell_length_c	25.639234
_cell_angle_alpha	89.975095
_cell_angle_beta	89.970648
_cell_angle_gamma	90.034213
loop_
_atom_site_label
_atom_site_type_symbol
_atom_site_fract_x
_atom_site_fract_y
_atom_site_fract_z
Zn1	Zn	0.799262	-0.208245	-0.295742
Zn2	Zn	1.299262	0.291755	0.204258
Zn3	Zn	0.799175	-0.295673	-0.208307
Zn4	Zn	1.299175	0.204327	0.291693
Zn5	Zn	0.711827	-0.208247	-0.208306
Zn6	Zn	1.211827	0.291753	0.291694
Zn7	Zn	0.711784	-0.295644	-0.295696
Zn8	Zn	1.211784	0.204356	0.204304
O9	O	0.755512	-0.251952	-0.252013
O10	O	1.255512	0.248048	0.247987
O11	O	0.872416	-0.219854	-0.284163
O12	O	1.372416	0.280146	0.215837
O13	O	0.787570	-0.284089	-0.135141
O14	O	1.287570	0.215911	0.364859
O15	O	0.723481	-0.135081	-0.219924
O16	O	1.223481	0.364919	0.280076
O17	O	0.872351	-0.284087	-0.219924
O18	O	1.372351	0.215913	0.280076
O19	O	0.787719	-0.135080	-0.284163
O20	O	1.287719	0.364920	0.215837
O21	O	0.723396	-0.219857	-0.135141
O22	O	1.223396	0.280143	0.364859
O23	O	0.638656	-0.219829	-0.219880
O24	O	1.138656	0.280171	0.280120
O25	O	0.723406	-0.284038	-0.368868
O26	O	1.223406	0.215962	0.131132
O27	O	0.638624	-0.284040	-0.284085
O28	O	1.138624	0.215960	0.215915
O29	O	0.787676	-0.219826	-0.368901
O30	O	1.287676	0.280174	0.131099
O31	O	0.787527	-0.368835	-0.219880
O32	O	1.287527	0.131165	0.280120
O33	O	0.723321	-0.368813	-0.284085
O34	O	1.223321	0.131187	0.215915
C35	C	0.619669	-0.251932	-0.251977
C36	C	1.119669	0.248068	0.248023
C37	C	0.561555	-0.251935	-0.251975
C38	C	1.061555	0.248065	0.248025
C39	C	0.201184	-0.285443	-0.285413
C40	C	0.701184	0.214557	0.214587
C41	C	0.146580	-0.285446	-0.285421
C42	C	0.646580	0.214554	0.214579
O43	O	0.118337	-0.313909	-0.313821
O44	O	0.618337	0.186091	0.186179
N45	N	0.119273	-0.251967	-0.252047
N46	N	0.619273	0.248033	0.247953
C47	C	0.146573	-0.218478	-0.218666
C48	C	0.646573	0.281522	0.281334
O49	O	0.118332	-0.190002	-0.190280
O50	O	0.618332	0.309998	0.309720
C51	C	0.201176	-0.218473	-0.218661
C52	C	0.701176	0.281527	0.281339
C53	C	0.228481	-0.251958	-0.252034
C54	C	0.728481	0.248042	0.247966
C55	C	0.228489	-0.318925	-0.318783
C56	C	0.728489	0.181075	0.181217
C57	C	0.283089	-0.318922	-0.318774
C58	C	0.783089	0.181078	0.181226
C59	C	0.310385	-0.285437	-0.285395
C60	C	0.810385	0.214563	0.214605
C61	C	0.283081	-0.251955	-0.252024
C62	C	0.783081	0.248045	0.247976
C63	C	0.228475	-0.184982	-0.185283
C64	C	0.728475	0.315018	0.314717
C65	C	0.283082	-0.184980	-0.185281
C66	C	0.783082	0.315020	0.314719
C67	C	0.310387	-0.218465	-0.218654
C68	C	0.810387	0.281535	0.281346
C69	C	0.364978	-0.218468	-0.218636
C70	C	0.864978	0.281532	0.281364
N71	N	0.392285	-0.251947	-0.252010
N72	N	0.892285	0.248053	0.247990
C73	C	0.364989	-0.285432	-0.285389
C74	C	0.864989	0.214568	0.214611
C75	C	0.031902	-0.218492	-0.218680
C76	C	0.531902	0.281508	0.281320
C77	C	-0.022700	-0.218499	-0.218683
C78	C	0.477300	0.281501	0.281317
C79	C	-0.022689	-0.285466	-0.285438
C80	C	0.477311	0.214534	0.214562
C81	C	0.031914	-0.285461	-0.285433
C82	C	0.531914	0.214539	0.214567
C83	C	0.059209	-0.251971	-0.252054
C84	C	0.559209	0.248029	0.247946
C85	C	0.479654	-0.285424	-0.285368
C86	C	0.979654	0.214576	0.214632
C87	C	0.534259	-0.285420	-0.285354
C88	C	1.034259	0.214580	0.214646
C89	C	0.534243	-0.218451	-0.218601
C90	C	1.034243	0.281549	0.281399
C91	C	0.479643	-0.218457	-0.218612
C92	C	0.979643	0.281543	0.281388
C93	C	0.452349	-0.251945	-0.252000
C94	C	0.952349	0.248055	0.248000
O95	O	0.393256	-0.190018	-0.190252
O96	O	0.893256	0.309982	0.309748
O97	O	0.393236	-0.313899	-0.313776
O98	O	0.893236	0.186101	0.186224
C99	C	0.755424	-0.387795	-0.251989
C100	C	1.255424	0.112205	0.248011
C101	C	0.755434	-0.445909	-0.251996
C102	C	1.255434	0.054091	0.248004
C103	C	0.789031	-0.806270	-0.218638
C104	C	1.289031	-0.306270	0.281362
C105	C	0.789051	-0.860875	-0.218645
C106	C	1.289051	-0.360875	0.281355
O107	O	0.817526	-0.889110	-0.190257
O108	O	1.317526	-0.389110	0.309743
N109	N	0.755604	-0.888191	-0.252048
N110	N	1.255604	-0.388191	0.247952
C111	C	0.722138	-0.860901	-0.285449
C112	C	1.222138	-0.360901	0.214551
O113	O	0.693690	-0.889150	-0.313861
O114	O	1.193690	-0.389150	0.186139
C115	C	0.722120	-0.806298	-0.285444
C116	C	1.222120	-0.306298	0.214556
C117	C	0.755566	-0.778984	-0.252036
C118	C	1.255566	-0.278984	0.247964
C119	C	0.822475	-0.778957	-0.185233
C120	C	1.322475	-0.278957	0.314767
C121	C	0.822454	-0.724356	-0.185226
C122	C	1.322454	-0.224356	0.314774
C123	C	0.788989	-0.697069	-0.218623
C124	C	1.288989	-0.197069	0.281377
C125	C	0.755545	-0.724383	-0.252028
C126	C	1.255545	-0.224383	0.247972
C127	C	0.688657	-0.779008	-0.318847
C128	C	1.188657	-0.279008	0.181153
C129	C	0.688643	-0.724401	-0.318840
C130	C	1.188643	-0.224401	0.181160
C131	C	0.722089	-0.697087	-0.285432
C132	C	1.222089	-0.197087	0.214568
C133	C	0.722059	-0.642496	-0.285418
C134	C	1.222059	-0.142496	0.214582
N135	N	0.755507	-0.615179	-0.252016
N136	N	1.255507	-0.115179	0.247984
C137	C	0.788972	-0.642466	-0.218619
C138	C	1.288972	-0.142466	0.281381
C139	C	0.722177	-0.975571	-0.285457
C140	C	1.222177	-0.475571	0.214543
C141	C	0.722191	-1.030174	-0.285459
C142	C	1.222191	-0.530174	0.214541
C143	C	0.789106	-1.030144	-0.218656
C144	C	1.289106	-0.530144	0.281344
C145	C	0.789089	-0.975541	-0.218652
C146	C	1.289089	-0.475541	0.281348
C147	C	0.755625	-0.948255	-0.252055
C148	C	1.255625	-0.448255	0.247945
C149	C	0.788925	-0.527801	-0.218605
C150	C	1.288925	-0.027801	0.281395
C151	C	0.788899	-0.473196	-0.218599
C152	C	1.288899	0.026804	0.281401
C153	C	0.721987	-0.473230	-0.285403
C154	C	1.221987	0.026770	0.214597
C155	C	0.722010	-0.527831	-0.285408
C156	C	1.222010	-0.027831	0.214592
C157	C	0.755483	-0.555115	-0.252007
C158	C	1.255483	-0.055115	0.247993
O159	O	0.693601	-0.614226	-0.313794
O160	O	1.193601	-0.114226	0.186206
O161	O	0.817419	-0.614210	-0.190216
O162	O	1.317419	-0.114210	0.309784
C163	C	0.891885	-0.251973	-0.252049
C164	C	1.391885	0.248027	0.247951
C165	C	0.949999	-0.251982	-0.252064
C166	C	1.449999	0.248018	0.247936
C167	C	0.755546	-0.251928	-0.388386
C168	C	1.255546	0.248072	0.111614
C169	C	0.755560	-0.251918	-0.446500
C170	C	1.255560	0.248082	0.053500
C171	C	0.755614	-0.115579	-0.252048
C172	C	1.255614	0.384421	0.247952
C173	C	0.755658	-0.057465	-0.252064
C174	C	1.255658	0.442535	0.247936
C175	C	0.722160	-0.218411	-0.806869
C176	C	1.222160	0.281589	-0.306869
C177	C	0.722163	-0.218401	-0.861473
C178	C	1.222163	0.281599	-0.361473
O179	O	0.693738	-0.189969	-0.889714
O180	O	1.193738	0.310031	-0.389714
N181	N	0.755578	-0.251836	-0.888783
N182	N	1.255578	0.248164	-0.388783
C183	C	0.788988	-0.285287	-0.861485
C184	C	1.288988	0.214713	-0.361485
O185	O	0.817411	-0.313726	-0.889728
O186	O	1.317411	0.186274	-0.389728
C187	C	0.788983	-0.285299	-0.806882
C188	C	1.288983	0.214701	-0.306882
C189	C	0.755569	-0.251857	-0.779575
C190	C	1.255569	0.248143	-0.279575
C191	C	0.688749	-0.184972	-0.779562
C192	C	1.188749	0.315028	-0.279562
C193	C	0.688747	-0.184981	-0.724961
C194	C	1.188747	0.315019	-0.224961
C195	C	0.722156	-0.218428	-0.697668
C196	C	1.222156	0.281572	-0.197668
C197	C	0.755567	-0.251866	-0.724974
C198	C	1.255567	0.248134	-0.224974
C199	C	0.822390	-0.318752	-0.779585
C200	C	1.322390	0.181248	-0.279585
C201	C	0.822381	-0.318761	-0.724978
C202	C	1.322381	0.181239	-0.224978
C203	C	0.788968	-0.285319	-0.697672
C204	C	1.288968	0.214681	-0.197672
C205	C	0.788974	-0.285322	-0.643080
C206	C	1.288974	0.214678	-0.143080
N207	N	0.755559	-0.251887	-0.615771
N208	N	1.255559	0.248113	-0.115771
C209	C	0.722150	-0.218440	-0.643064
C210	C	1.222150	0.281560	-0.143064
C211	C	0.788998	-0.285260	-0.976156
C212	C	1.288998	0.214740	-0.476156
C213	C	0.789006	-0.285246	-1.030758
C214	C	1.289006	0.214754	-0.530758
C215	C	0.722180	-0.218361	-1.030742
C216	C	1.222180	0.281639	-0.530742
C217	C	0.722174	-0.218373	-0.976139
C218	C	1.222174	0.281627	-0.476139
C219	C	0.755583	-0.251825	-0.948846
C220	C	1.255583	0.248175	-0.448846
C221	C	0.722149	-0.218461	-0.528399
C222	C	1.222149	0.281539	-0.028399
C223	C	0.722151	-0.218471	-0.473794
C224	C	1.222151	0.281529	0.026206
C225	C	0.788976	-0.285358	-0.473814
C226	C	1.288976	0.214642	0.026186
C227	C	0.788975	-0.285346	-0.528415
C228	C	1.288975	0.214654	-0.028415
C229	C	0.755558	-0.251896	-0.555706
C230	C	1.255558	0.248104	-0.055706
O231	O	0.817383	-0.313741	-0.614804
O232	O	1.317383	0.186259	-0.114804
O233	O	0.693728	-0.190011	-0.614814
O234	O	1.193728	0.309989	-0.114814
C235	C	0.755508	-0.251938	-0.116170
C236	C	1.255508	0.248062	0.383830
C237	C	0.755595	-0.251801	-0.058057
C238	C	1.255595	0.248199	0.441943
H239	H	0.206253	-0.157717	-0.158106
H240	H	0.706253	0.342283	0.341894
C241	C	0.685393	-1.060213	-0.322206
C242	C	1.185393	-0.560213	0.177794
N243	N	0.657677	-1.082836	-0.349887
N244	N	1.157677	-0.582836	0.150113
H245	H	0.694942	-0.191237	-0.451563
H246	H	1.194942	0.308763	0.048437
H247	H	0.694937	-0.191222	-0.550613
H248	H	1.194937	0.308778	-0.050613
C249	C	0.825766	-0.322049	-0.946139
C250	C	1.325766	0.177951	-0.446139
N251	N	0.853462	-0.349756	-0.923533
N252	N	1.353462	0.150244	-0.423533
C253	C	0.198472	-0.355769	-0.355501
C254	C	0.698472	0.144231	0.144499
N255	N	0.175866	-0.383528	-0.383154
N256	N	0.675866	0.116472	0.116846
C257	C	-0.052725	-0.322297	-0.322160
C258	C	0.447275	0.177703	0.177840
N259	N	-0.075350	-0.350035	-0.349818
N260	N	0.424650	0.149965	0.150182
C261	C	0.449639	-0.322267	-0.322092
C262	C	0.949639	0.177733	0.177908
N263	N	0.427032	-0.350020	-0.349750
N264	N	0.927032	0.149980	0.150250
C265	C	0.651865	-0.809041	-0.355601
C266	C	1.151865	-0.309041	0.144399
N267	N	0.624151	-0.831661	-0.383287
N268	N	1.124151	-0.331661	0.116713
H269	H	0.556488	-0.312690	-0.312530
H270	H	1.056488	0.187310	0.187470
H271	H	0.305316	-0.346188	-0.345950
H272	H	0.805316	0.153812	0.154050
H273	H	0.849599	-0.345983	-0.801809
H274	H	1.349599	0.154017	-0.301809
H275	H	0.661536	-0.157752	-0.702733
H276	H	1.161536	0.342248	-0.202733
C277	C	0.859289	-0.808963	-0.148487
C278	C	1.359289	-0.308963	0.351513
N279	N	0.887017	-0.831561	-0.120804
N280	N	1.387017	-0.331561	0.379196
H281	H	0.849690	-0.702120	-0.158024
H282	H	1.349690	-0.202120	0.341976
H283	H	0.694922	-0.953358	-0.312656
H284	H	1.194922	-0.453358	0.187344
H285	H	0.661393	-0.702188	-0.346042
H286	H	1.161393	-0.202188	0.153958
C287	C	0.685425	-0.181572	-1.060776
C288	C	1.185425	0.318428	-0.560776
N289	N	0.657742	-0.153865	-1.083399
N290	N	1.157742	0.346135	-0.583399
H291	H	0.054142	-0.312727	-0.312609
H292	H	0.554142	0.187273	0.187391
C293	C	0.825722	-0.322150	-0.443781
C294	C	1.325722	0.177850	0.056219
N295	N	0.853397	-0.349865	-0.421158
N296	N	1.353397	0.150135	0.078842
C297	C	0.825768	-0.322030	-1.060790
C298	C	1.325768	0.177970	-0.560790
N299	N	0.853456	-0.349740	-1.083408
N300	N	1.353456	0.150260	-0.583408
H301	H	0.694777	-0.550071	-0.312613
H302	H	1.194777	-0.050071	0.187387
C303	C	0.859137	-0.355559	-0.694960
C304	C	1.359137	0.144441	-0.194960
N305	N	0.886824	-0.383273	-0.672351
N306	N	1.386824	0.116727	-0.172351
H307	H	0.661540	-0.157736	-0.801778
H308	H	1.161540	0.342264	-0.301778
C309	C	0.313104	-0.148138	-0.148559
C310	C	0.813104	0.351862	0.351441
N311	N	0.335714	-0.120391	-0.120899
N312	N	0.835714	0.379609	0.379101
C313	C	0.685179	-0.443205	-0.322141
C314	C	1.185179	0.056795	0.177859
N315	N	0.657459	-0.420587	-0.349815
N316	N	1.157459	0.079413	0.150185
C317	C	0.449607	-0.181626	-0.181897
C318	C	0.949607	0.318374	0.318103
N319	N	0.426988	-0.153881	-0.154245
N320	N	0.926988	0.346119	0.345755
H321	H	0.694966	-0.191142	-0.953909
H322	H	1.194966	0.308858	-0.453909
H323	H	-0.044927	-0.191238	-0.191502
H324	H	0.455073	0.308762	0.308498
C325	C	0.825691	-0.443154	-0.181843
C326	C	1.325691	0.056846	0.318157
N327	N	0.853402	-0.420528	-0.154159
N328	N	1.353402	0.079472	0.345841
H329	H	0.816189	-0.312571	-0.550650
H330	H	1.316189	0.187429	-0.050650
H331	H	0.816324	-0.953305	-0.191448
H332	H	1.316324	-0.453305	0.308552
H333	H	0.054123	-0.191221	-0.191496
H334	H	0.554123	0.308779	0.308504
H335	H	0.556478	-0.191191	-0.191422
H336	H	1.056478	0.308809	0.308578
C337	C	0.825744	-0.557805	-0.181859
C338	C	1.325744	-0.057805	0.318141
N339	N	0.853473	-0.580404	-0.154179
N340	N	1.353473	-0.080404	0.345821
C341	C	0.825922	-1.060170	-0.181922
C342	C	1.325922	-0.560170	0.318078
N343	N	0.853651	-1.082787	-0.154257
N344	N	1.353651	-0.582787	0.345743
