data_functionalizedCrystal
_audit_creation_method	'MofGen! by Chris Wilmer'
_symmetry_space_group_name_H-M	'P1'
_symmetry_Int_Tables_number	1
_symmetry_cell_setting	triclinic
loop_
_symmetry_equiv_pos_as_xyz
  x,y,z
_cell_length_a	6.817900
_cell_length_b	12.200863
_cell_length_c	16.255661
_cell_angle_alpha	94.285294
_cell_angle_beta	103.488922
_cell_angle_gamma	107.143441
loop_
_atom_site_label
_atom_site_type_symbol
_atom_site_fract_x
_atom_site_fract_y
_atom_site_fract_z
V1	V	-4.045305	-0.159639	-0.263958
O2	O	-4.013408	0.006718	-0.258844
O3	O	-4.015024	-0.315621	-0.262237
O4	O	-3.996630	-0.157602	-0.379040
O5	O	-4.031930	-0.152395	-0.141233
V6	V	-4.526621	-0.139692	-0.249268
O7	O	-4.311405	-0.203396	-0.296179
O8	O	-4.710718	-0.095935	-0.217047
O9	O	-4.333695	0.016290	-0.250989
O10	O	-4.675915	-0.306049	-0.254382
O11	O	-4.657393	-0.146936	-0.371993
O12	O	-4.352090	-0.141729	-0.134186
C13	C	-3.864442	-0.353633	-0.258095
C14	C	-3.920969	-0.481153	-0.257456
C15	C	-3.840977	-0.152063	-0.407087
C16	C	-3.882583	-0.151429	-0.501168
C17	C	-4.024424	-0.714625	-0.256292
C18	C	-3.966846	-0.584704	-0.256940
C19	C	-3.792258	-0.143862	-0.723983
C20	C	-3.960050	-0.241532	-0.793512
C21	C	-3.958829	-0.150241	-0.673416
C22	C	-3.865197	-0.051453	-0.771524
C23	C	-4.032463	-0.149089	-0.839799
C24	C	-4.126113	-0.247999	-0.741715
C25	C	-4.031188	-0.057834	-0.719712
C26	C	-4.199120	-0.155532	-0.789221
C27	C	-3.916406	-0.150906	-0.577567
C28	C	-4.074904	-0.148433	-0.935647
C29	C	-4.147621	0.054296	-0.255128
C30	C	-4.070332	0.181814	-0.255773
C31	C	-4.171085	-0.147272	-0.106134
C32	C	-4.108717	-0.147900	-0.012053
H33	H	-3.619944	-0.139054	-0.695500
H34	H	-4.060737	0.019835	-0.687561
C35	C	-3.707494	-0.340117	-0.803785
C36	C	-3.920063	-0.346371	-0.836894
H37	H	-3.682800	-0.404835	-0.830570
H38	H	-3.679320	-0.340897	-0.743824
H39	H	-3.616203	-0.270385	-0.814522
H40	H	-4.011355	-0.416100	-0.826152
H41	H	-3.948259	-0.345603	-0.896869
C42	C	-3.752101	0.156893	-0.750948
C43	C	-3.716845	0.060688	-0.789794
H44	H	-3.660513	0.226119	-0.762232
H45	H	-3.723498	0.156940	-0.690891
H46	H	-3.896198	0.152873	-0.773390
H47	H	-3.572751	0.064704	-0.767348
H48	H	-3.745432	0.060643	-0.849863
H49	H	-4.236014	-0.331153	-0.728293
C50	C	-4.536187	-0.167894	-0.762457
C51	C	-4.431916	-0.162226	-0.827500
H52	H	-4.679908	-0.172039	-0.786094
H53	H	-4.466379	-0.100537	-0.720448
H54	H	-4.533018	-0.234965	-0.736729
H55	H	-4.435072	-0.095150	-0.853224
H56	H	-4.501744	-0.229590	-0.869524
