data_functionalizedCrystal
_audit_creation_method	'MofGen! by Chris Wilmer'
_symmetry_space_group_name_H-M	'P1'
_symmetry_Int_Tables_number	1
_symmetry_cell_setting	triclinic
loop_
_symmetry_equiv_pos_as_xyz
  x,y,z
_cell_length_a	15.944551
_cell_length_b	10.723023
_cell_length_c	9.798715
_cell_angle_alpha	90.001235
_cell_angle_beta	89.999195
_cell_angle_gamma	83.983143
loop_
_atom_site_label
_atom_site_type_symbol
_atom_site_fract_x
_atom_site_fract_y
_atom_site_fract_z
O1	O	1.115444	0.160932	0.113343
O2	O	0.871008	0.180773	0.113376
O3	O	0.998865	-0.010795	0.113356
O4	O	0.987588	0.352500	0.113363
O5	O	0.998855	-0.010795	-0.113626
O6	O	0.870999	0.180773	-0.113606
O7	O	1.115435	0.160931	-0.113639
Zn8	Zn	0.993215	0.170852	-0.149661
Zn9	Zn	0.993228	0.170853	0.149398
O10	O	0.987578	0.352500	-0.113620
C11	C	0.839705	0.179949	-0.000111
C12	C	0.746445	0.177480	-0.000098
C13	C	0.998040	-0.057284	-0.000133
C14	C	0.995585	-0.195808	-0.000125
N15	N	0.993213	0.170851	-0.353761
C16	C	0.530875	0.052834	-0.000127
C17	C	0.470190	0.110716	0.111789
C18	C	0.575693	0.173013	-0.000114
C19	C	0.470203	0.110744	-0.111998
C20	C	0.410756	0.168688	-0.000136
C21	C	0.516237	0.230927	0.111894
C22	C	0.516257	0.230938	-0.111994
C23	C	0.455591	0.288907	-0.000051
C24	C	0.670710	0.175500	-0.000100
C25	C	0.315740	0.166210	-0.000140
C26	C	1.146738	0.161755	-0.000150
C27	C	1.239998	0.164225	-0.000153
C28	C	0.988403	0.398989	-0.000128
C29	C	0.990858	0.537512	-0.000126
C30	C	0.991948	0.599270	-0.117709
C31	C	0.994485	0.742441	-0.117709
C32	C	1.046896	0.090065	-0.421546
C33	C	1.046910	0.090061	-0.578709
N34	N	0.993237	0.170844	0.353497
H35	H	0.563637	-0.046904	0.000010
Cl36	Cl	1.117653	-0.016998	-0.331519
H37	H	0.990998	0.546151	-0.218375
Cl38	Cl	0.995938	0.824431	-0.273140
Cl39	Cl	0.994145	0.722208	0.155310
H40	H	0.991797	0.590634	0.100540
H41	H	1.092874	0.020901	-0.637001
H42	H	0.449793	0.059886	0.206403
H43	H	0.947277	0.240016	-0.588219
H44	H	0.947259	0.240007	-0.412078
H45	H	0.536520	0.281719	0.206612
H46	H	0.449822	0.059891	-0.206610
Cl47	Cl	0.547785	0.309352	-0.258079
Cl48	Cl	0.405273	0.443050	0.000043
