data_functionalizedCrystal
_audit_creation_method	'MofGen! by Chris Wilmer'
_symmetry_space_group_name_H-M	'P1'
_symmetry_Int_Tables_number	1
_symmetry_cell_setting	triclinic
loop_
_symmetry_equiv_pos_as_xyz
  x,y,z
_cell_length_a	27.780882
_cell_length_b	27.780884
_cell_length_c	27.780936
_cell_angle_alpha	90.002261
_cell_angle_beta	59.997799
_cell_angle_gamma	119.999789
loop_
_atom_site_label
_atom_site_type_symbol
_atom_site_fract_x
_atom_site_fract_y
_atom_site_fract_z
O1	O	0.424592	-0.330213	-0.014321
O2	O	0.326022	-0.260214	0.014251
O3	O	0.424588	-0.260214	-0.084318
O4	O	0.326026	-0.330213	0.084247
O5	O	0.344528	-0.340274	-0.084318
O6	O	0.245962	-0.340274	0.014251
O7	O	0.344532	-0.410273	-0.014321
Cu8	Cu	0.287937	-0.382584	-0.000035
Cu9	Cu	0.382617	-0.287904	-0.000035
O10	O	0.245966	-0.410273	0.084248
C11	C	0.177734	-0.120430	0.029862
C12	C	0.211527	-0.056934	0.025772
C13	C	0.119397	-0.149664	0.030267
C14	C	0.177730	-0.207598	0.029867
C15	C	0.211519	-0.237303	0.025783
C16	C	0.119393	-0.236700	0.030273
C17	C	0.090568	-0.207596	0.029862
C18	C	0.031162	-0.237298	0.025772
C19	C	0.206427	-0.149666	0.030273
C20	C	-0.016831	-0.261295	0.022466
C21	C	0.238829	-0.005636	0.022467
C22	C	0.238818	-0.261301	0.022482
C23	C	-0.077040	-0.291400	0.018321
C24	C	0.273079	0.058719	0.018322
C25	C	0.273065	-0.291409	0.018343
O26	O	-0.234707	-0.410266	-0.014339
O27	O	-0.094711	-0.340265	0.014229
O28	O	-0.094704	-0.340270	-0.084338
O29	O	-0.234714	-0.410261	0.084228
O30	O	-0.094701	-0.260209	-0.084343
O31	O	-0.094708	-0.260204	0.014225
O32	O	-0.234704	-0.330205	-0.014344
Cu33	Cu	-0.164706	-0.287894	-0.000060
Cu34	Cu	-0.164709	-0.382576	-0.000055
O35	O	-0.234711	-0.330200	0.084223
C36	C	0.492828	-0.207603	-0.372394
C37	C	0.459037	-0.237307	-0.402098
C38	C	0.551166	-0.149673	-0.401496
C39	C	0.492828	-0.207604	-0.285228
C40	C	0.459036	-0.237307	-0.221733
C41	C	0.551166	-0.149673	-0.314463
C42	C	0.579994	-0.120438	-0.372393
C43	C	0.639400	-0.056943	-0.402096
C44	C	0.464132	-0.236706	-0.314464
C45	C	0.687394	-0.005646	-0.426092
C46	C	0.431736	-0.261304	-0.426095
C47	C	0.431736	-0.261304	-0.170435
C48	C	0.747605	0.058709	-0.456197
C49	C	0.397486	-0.291409	-0.456201
C50	C	0.397486	-0.291410	-0.106080
C51	C	0.580008	-0.462879	-0.029964
C52	C	0.639417	-0.433174	-0.025878
C53	C	0.551182	-0.520809	-0.030373
C54	C	0.492839	-0.462880	-0.029960
C55	C	0.459045	-0.433178	-0.025869
C56	C	0.464144	-0.520811	-0.030368
C57	C	0.492842	-0.550045	-0.029964
C58	C	0.459052	-0.613540	-0.025878
C59	C	0.551178	-0.433777	-0.030369
C60	C	0.431752	-0.664837	-0.022575
C61	C	0.687412	-0.409177	-0.022576
C62	C	0.431742	-0.409182	-0.022562
C63	C	0.397504	-0.729192	-0.018433
C64	C	0.747625	-0.379070	-0.018434
C65	C	0.397490	-0.379077	-0.018415
O66	O	0.344549	0.249047	-0.014343
O67	O	0.245980	0.080483	0.014226
O68	O	0.344550	0.179042	-0.084342
O69	O	0.245978	0.150488	0.084224
O70	O	0.424607	0.179040	-0.084336
O71	O	0.326036	0.080480	0.014231
O72	O	0.424605	0.249045	-0.014338
Cu73	Cu	0.382630	0.164762	-0.000053
Cu74	Cu	0.287954	0.164765	-0.000059
O75	O	0.326034	0.150486	0.084230
O76	O	0.905273	0.249033	-0.494995
O77	O	0.765273	0.080470	-0.425001
O78	O	0.765270	0.179032	-0.424994
O79	O	0.905276	0.150471	-0.495003
O80	O	0.765272	0.179034	-0.505055
O81	O	0.765275	0.080472	-0.505062
O82	O	0.905275	0.249035	-0.575056
Cu83	Cu	0.835275	0.164754	-0.547369
Cu84	Cu	0.835273	0.164751	-0.452688
O85	O	0.905278	0.150473	-0.575063
O86	O	0.326020	-0.330218	-0.575063
O87	O	0.424588	-0.260215	-0.505065
O88	O	0.326020	-0.260217	-0.505059
O89	O	0.424589	-0.330216	-0.575069
O90	O	0.245961	-0.340275	-0.425000
O91	O	0.344530	-0.340273	-0.425006
O92	O	0.245962	-0.410276	-0.495003
Cu93	Cu	0.287936	-0.382585	-0.452694
Cu94	Cu	0.382614	-0.287906	-0.547374
O95	O	0.344531	-0.410274	-0.495009
C96	C	0.090559	-0.550051	0.372323
C97	C	0.031152	-0.613546	0.402025
C98	C	0.119386	-0.520817	0.401426
C99	C	0.177725	-0.462885	0.285158
C100	C	0.211517	-0.433181	0.221663
C101	C	0.206420	-0.433783	0.314394
C102	C	0.177724	-0.462886	0.372324
C103	C	0.211515	-0.433183	0.402029
C104	C	0.119387	-0.520816	0.314392
C105	C	0.238815	-0.409187	0.426026
C106	C	-0.016842	-0.664843	0.426021
C107	C	0.238818	-0.409184	0.170365
C108	C	0.273064	-0.379082	0.456133
C109	C	-0.077053	-0.729198	0.456125
C110	C	0.273068	-0.379078	0.106010
C111	C	0.177761	-0.120445	-0.372420
C112	C	0.211554	-0.056951	-0.402125
C113	C	0.206457	-0.149682	-0.401521
C114	C	0.090590	-0.207608	-0.285252
C115	C	0.031179	-0.237308	-0.221756
C116	C	0.119418	-0.236712	-0.314485
C117	C	0.177759	-0.207612	-0.372416
C118	C	0.211551	-0.237318	-0.402117
C119	C	0.119420	-0.149677	-0.314489
C120	C	0.238852	-0.261316	-0.426113
C121	C	0.238857	-0.005654	-0.426124
C122	C	-0.016817	-0.261303	-0.170458
C123	C	0.273102	-0.291424	-0.456216
C124	C	0.273109	0.058701	-0.456232
C125	C	-0.077032	-0.291406	-0.106103
C126	C	-0.507174	-0.462860	0.372301
C127	C	-0.540966	-0.433155	0.402003
C128	C	-0.535872	-0.520790	0.401406
C129	C	-0.420004	-0.462864	0.285137
C130	C	-0.360594	-0.433163	0.221642
C131	C	-0.448834	-0.520794	0.314373
C132	C	-0.507175	-0.550027	0.372304
C133	C	-0.540968	-0.613521	0.402010
C134	C	-0.448833	-0.433760	0.314371
C135	C	-0.568270	-0.664818	0.426008
C136	C	-0.568268	-0.409157	0.425999
C137	C	-0.312597	-0.409168	0.170343
C138	C	-0.602522	-0.729173	0.456115
C139	C	-0.602518	-0.379050	0.456103
C140	C	-0.252383	-0.379064	0.105988
C141	C	0.580005	0.194619	-0.372405
C142	C	0.639409	0.190525	-0.402104
C143	C	0.551178	0.195023	-0.401510
C144	C	0.492843	0.194635	-0.285245
C145	C	0.459054	0.190558	-0.221751
C146	C	0.464149	0.195039	-0.314482
C147	C	0.492843	0.194621	-0.372410
C148	C	0.459052	0.190530	-0.402115
C149	C	0.551179	0.195036	-0.314476
C150	C	0.431752	0.187222	-0.426113
C151	C	0.687401	0.187216	-0.426097
C152	C	0.431754	0.187263	-0.170455
C153	C	0.397503	0.183075	-0.456220
C154	C	0.747609	0.183066	-0.456199
C155	C	0.397506	0.183130	-0.106101
O156	O	0.424649	0.249027	-0.575092
O157	O	0.326070	0.080461	-0.505095
O158	O	0.424629	0.179018	-0.505082
O159	O	0.326090	0.150471	-0.575105
O160	O	0.344563	0.179021	-0.425026
O161	O	0.246004	0.080464	-0.425039
O162	O	0.344583	0.249030	-0.495036
Cu163	Cu	0.287983	0.164747	-0.452728
Cu164	Cu	0.382670	0.164744	-0.547403
O165	O	0.246024	0.150474	-0.495049
C166	C	0.177742	0.134906	0.372298
C167	C	0.211532	0.138997	0.402003
C168	C	0.119406	0.134505	0.401398
C169	C	0.177741	0.134893	0.285133
C170	C	0.211531	0.138970	0.221639
C171	C	0.119406	0.134492	0.314364
C172	C	0.090580	0.134909	0.372293
C173	C	0.031176	0.139004	0.401992
C174	C	0.206435	0.134489	0.314370
C175	C	-0.016815	0.142313	0.425985
C176	C	0.238832	0.142304	0.426002
C177	C	0.238831	0.142265	0.170343
C178	C	-0.077023	0.146464	0.456086
C179	C	0.273081	0.146451	0.456109
C180	C	0.273079	0.146398	0.105989
H181	H	0.253368	-0.126194	0.030932
O182	O	0.408223	0.195934	-0.286501
C183	C	0.423438	0.246977	-0.270161
H184	H	0.480759	0.281997	-0.299584
H185	H	0.405403	0.235641	-0.222207
C186	C	0.316587	0.227726	-0.241206
C187	C	0.386989	0.270741	-0.277347
H188	H	0.294101	0.242384	-0.245636
H189	H	0.306334	0.193337	-0.252212
H190	H	0.301567	0.218284	-0.201247
H191	H	0.402009	0.280177	-0.317305
H192	H	0.397243	0.305133	-0.266348
O193	O	0.580068	-0.121599	-0.458295
C194	C	0.637845	-0.064093	-0.477820
H195	H	0.657724	-0.062296	-0.450077
H196	H	0.623403	-0.031647	-0.473113
C197	C	0.669196	-0.049741	-0.577054
C198	C	0.693615	-0.047535	-0.542983
H199	H	0.703597	-0.039525	-0.617250
H200	H	0.630269	-0.088483	-0.563900
H201	H	0.657161	-0.022703	-0.573125
H202	H	0.705641	-0.074577	-0.546907
H203	H	0.732546	-0.008796	-0.556140
O204	O	0.090495	-0.293510	0.031136
C205	C	0.023124	-0.329339	0.082195
H206	H	0.003535	-0.301088	0.098661
H207	H	0.021973	-0.351122	0.117892
C208	C	0.001609	-0.411915	0.047279
C209	C	-0.022453	-0.377217	0.067500
H210	H	-0.026505	-0.441450	0.038217
H211	H	0.046999	-0.387777	0.012881
H212	H	0.000649	-0.430062	0.077031
H213	H	-0.021484	-0.359065	0.037747
H214	H	-0.067844	-0.401353	0.101894
O215	O	0.580045	-0.548728	-0.031150
C216	C	0.637836	-0.510477	-0.031439
H217	H	0.633207	-0.475466	-0.012392
H218	H	0.685508	-0.488259	-0.078623
C219	C	0.648506	-0.589003	-0.017139
C220	C	0.642817	-0.546004	0.006259
H221	H	0.651581	-0.610917	0.006112
H222	H	0.609573	-0.614773	-0.016947
H223	H	0.688233	-0.570481	-0.056459
H224	H	0.603087	-0.564527	0.045575
H225	H	0.681744	-0.520238	0.006074
O226	O	0.262404	-0.376991	0.286319
C227	C	0.281684	-0.357464	0.228803
H228	H	0.235865	-0.385189	0.226995
H229	H	0.323854	-0.362192	0.196372
C230	C	0.363950	-0.258243	0.214447
C231	C	0.307673	-0.292293	0.212228
H232	H	0.379985	-0.218042	0.204221
H233	H	0.350963	-0.271399	0.253196
H234	H	0.399085	-0.262190	0.187422
H235	H	0.272537	-0.288352	0.239258
H236	H	0.320655	-0.279135	0.173483
H237	H	0.095283	0.133836	0.290888
O238	O	0.090669	-0.121594	0.031093
C239	C	0.128613	-0.064101	0.031410
H240	H	0.182690	-0.049656	0.012315
H241	H	0.103668	-0.063647	0.078608
C242	C	0.064288	-0.039168	0.017244
C243	C	0.130708	-0.021424	-0.006213
H244	H	0.065578	-0.012842	-0.005961
H245	H	0.038722	-0.077902	0.017033
H246	H	0.043508	-0.038789	0.056575
H247	H	0.151484	-0.021810	-0.045541
H248	H	0.156277	0.017311	-0.006009
O249	O	0.408196	-0.548853	-0.031230
C250	C	0.423431	-0.565163	-0.082291
H251	H	0.468157	-0.568275	-0.098760
H252	H	0.437336	-0.530621	-0.117985
C253	C	0.305939	-0.621613	-0.047373
C254	C	0.360869	-0.625440	-0.067599
H255	H	0.267348	-0.658793	-0.038312
H256	H	0.295675	-0.610623	-0.012973
H257	H	0.317535	-0.592826	-0.077122
H258	H	0.349275	-0.654221	-0.037848
H259	H	0.371130	-0.636436	-0.101993
H260	H	0.575310	0.195676	-0.449109
H261	H	0.253386	0.133843	0.290899
O262	O	0.579864	-0.121756	-0.286377
C263	C	0.541864	-0.159987	-0.228856
H264	H	0.512355	-0.207616	-0.227051
H265	H	0.504685	-0.150261	-0.196438
C266	C	0.626686	-0.092048	-0.214468
C267	C	0.590446	-0.150547	-0.212253
H268	H	0.656652	-0.086224	-0.204225
H269	H	0.652286	-0.066289	-0.253220
H270	H	0.595696	-0.083950	-0.187453
H271	H	0.621435	-0.158642	-0.239272
H272	H	0.564852	-0.176307	-0.173505
O273	O	0.580056	-0.376987	-0.031168
C274	C	0.637817	-0.357462	-0.031412
H275	H	0.657728	-0.385181	-0.049515
H276	H	0.623344	-0.362199	0.015487
C277	C	0.669115	-0.258245	-0.048342
C278	C	0.693572	-0.292286	-0.070581
H279	H	0.703506	-0.218041	-0.072501
H280	H	0.630198	-0.271400	-0.048175
H281	H	0.657054	-0.262199	-0.009260
H282	H	0.705624	-0.288337	-0.109659
H283	H	0.732492	-0.279129	-0.070756
O284	O	0.580063	0.195849	-0.286566
C285	C	0.637823	0.196088	-0.324799
H286	H	0.657725	0.214174	-0.372428
H287	H	0.623351	0.149192	-0.315053
C288	C	0.669137	0.213055	-0.256892
C289	C	0.693585	0.235273	-0.315391
H290	H	0.703534	0.237223	-0.251087
H291	H	0.630222	0.212892	-0.231132
H292	H	0.657078	0.173975	-0.248776
H293	H	0.705636	0.274349	-0.323503
H294	H	0.732504	0.235444	-0.341152
O295	O	0.408118	-0.293484	-0.286541
C296	C	0.388822	-0.313002	-0.324769
H297	H	0.434649	-0.285311	-0.372401
H298	H	0.346696	-0.308218	-0.315049
C299	C	0.306459	-0.412203	-0.256813
C300	C	0.362747	-0.378195	-0.315316
H301	H	0.290371	-0.452418	-0.250981
H302	H	0.319457	-0.399053	-0.231057
H303	H	0.271361	-0.408210	-0.248720
H304	H	0.397847	-0.382183	-0.323406
H305	H	0.349754	-0.391347	-0.341074
O306	O	0.090505	-0.548894	0.458217
C307	C	0.032705	-0.606391	0.477761
H308	H	0.037345	-0.620823	0.438124
H309	H	-0.014957	-0.606860	0.503184
C310	C	0.021981	-0.631342	0.566990
C311	C	0.027684	-0.649070	0.518308
H312	H	0.018881	-0.657668	0.592004
H313	H	0.060921	-0.592604	0.553825
H314	H	-0.017736	-0.631733	0.588170
H315	H	0.067405	-0.648671	0.497125
H316	H	-0.011250	-0.687808	0.531471
O317	O	0.090504	-0.548891	0.286483
C318	C	0.032741	-0.606407	0.324718
H319	H	0.012838	-0.608216	0.372347
H320	H	0.047210	-0.638835	0.314976
C321	C	0.001429	-0.620764	0.256809
C322	C	-0.023019	-0.622985	0.315307
H323	H	-0.032966	-0.630992	0.251002
H324	H	0.040346	-0.582016	0.231048
H325	H	0.013486	-0.647788	0.248698
H326	H	-0.035068	-0.595957	0.323415
H327	H	-0.061940	-0.661730	0.341070
O328	O	0.090532	-0.293504	-0.286407
C329	C	0.032766	-0.313028	-0.228891
H330	H	0.012866	-0.285301	-0.227085
H331	H	0.047231	-0.308299	-0.196461
C332	C	0.001451	-0.412250	-0.214530
C333	C	-0.022994	-0.378199	-0.212313
H334	H	-0.032944	-0.452451	-0.204302
H335	H	0.040370	-0.399097	-0.253279
H336	H	0.013504	-0.408303	-0.187505
H337	H	-0.035039	-0.382141	-0.239343
H338	H	-0.061917	-0.391355	-0.173568
H339	H	0.095280	0.133853	0.448996
O340	O	0.262485	-0.121588	-0.458294
C341	C	0.281748	-0.064082	-0.477831
H342	H	0.261123	-0.049677	-0.438188
H343	H	0.260056	-0.063576	-0.503315
C344	C	0.385286	-0.039097	-0.566992
C345	C	0.359958	-0.021403	-0.518301
H346	H	0.433529	-0.012771	-0.591957
H347	H	0.372307	-0.077842	-0.553830
H348	H	0.367202	-0.038676	-0.588221
H349	H	0.378035	-0.021832	-0.497068
H350	H	0.372942	0.017342	-0.531459
O351	O	0.090746	-0.121591	-0.286519
C352	C	0.138315	-0.070797	-0.283565
H353	H	0.192057	-0.056175	-0.319911
H354	H	0.128948	-0.081209	-0.238790
C355	C	0.064322	-0.038962	-0.247085
C356	C	0.130330	-0.020999	-0.291728
H357	H	0.059396	-0.008245	-0.252117
H358	H	0.032273	-0.073184	-0.249072
H359	H	0.056525	-0.047638	-0.209777
H360	H	0.138124	-0.012331	-0.329035
H361	H	0.162381	0.013225	-0.289747
O362	O	-0.419938	-0.548698	0.286305
C363	C	-0.362167	-0.510461	0.228791
H364	H	-0.342279	-0.462835	0.226980
H365	H	-0.376619	-0.520209	0.196353
C366	C	-0.330829	-0.578354	0.214454
C367	C	-0.306400	-0.519858	0.212231
H368	H	-0.296430	-0.584152	0.204237
H369	H	-0.369753	-0.604116	0.253201
H370	H	-0.342872	-0.586470	0.187422
H371	H	-0.294365	-0.511745	0.239268
H372	H	-0.267473	-0.494094	0.173488
O373	O	-0.591921	-0.548728	0.458169
C374	C	-0.611194	-0.510487	0.477697
H375	H	-0.590534	-0.475445	0.438046
H376	H	-0.589544	-0.488306	0.503214
C377	C	-0.714777	-0.589051	0.566820
C378	C	-0.689406	-0.546015	0.518121
H379	H	-0.763021	-0.610966	0.591758
H380	H	-0.701791	-0.614815	0.553665
H381	H	-0.696729	-0.570561	0.588078
H382	H	-0.707447	-0.564506	0.496860
H383	H	-0.702397	-0.520255	0.531273
H384	H	-0.424738	-0.386177	0.290884
