data_functionalizedCrystal
_audit_creation_method	'MofGen! by Chris Wilmer'
_symmetry_space_group_name_H-M	'P1'
_symmetry_Int_Tables_number	1
_symmetry_cell_setting	triclinic
loop_
_symmetry_equiv_pos_as_xyz
  x,y,z
_cell_length_a	6.394989
_cell_length_b	16.109301
_cell_length_c	15.186229
_cell_angle_alpha	89.999006
_cell_angle_beta	90.000778
_cell_angle_gamma	95.020353
loop_
_atom_site_label
_atom_site_type_symbol
_atom_site_fract_x
_atom_site_fract_y
_atom_site_fract_z
O1	O	-0.268482	1.105973	-0.073174
O2	O	-0.301894	0.864264	-0.073186
O3	O	0.018878	0.988549	-0.073181
O4	O	-0.589255	0.981688	-0.073180
O5	O	0.018883	0.988541	0.073277
O6	O	-0.301889	0.864256	0.073271
O7	O	-0.268478	1.105964	0.073283
Zn8	Zn	-0.285183	0.985109	0.096530
Zn9	Zn	-0.285189	0.985120	-0.096433
O10	O	-0.589250	0.981679	0.073278
C11	C	-0.300538	0.833271	0.000041
C12	C	-0.296480	0.740933	0.000036
C13	C	-0.473555	0.433809	0.000052
C14	C	-0.477387	0.520570	0.000047
C15	C	-0.096802	0.536414	0.000035
C16	C	-0.092972	0.449655	0.000033
C17	C	-0.281355	0.398354	0.000047
C18	C	-0.289017	0.571874	0.000043
C19	C	-0.293171	0.665944	0.000037
C20	C	-0.277202	0.304278	0.000050
C21	C	0.096701	0.987188	0.000045
C22	C	0.332933	0.983042	0.000044
C23	C	-0.269834	1.136958	0.000054
C24	C	-0.273892	1.229296	0.000053
N25	N	-0.285178	0.985107	0.228223
N26	N	-0.285178	0.985128	-0.228126
C27	C	-0.143187	1.040160	0.453948
C28	C	-0.143182	1.040163	0.546138
C29	C	-0.427175	0.930069	0.546142
C30	C	-0.427168	0.930063	0.453954
C31	C	-0.285177	0.985113	0.407860
C32	C	-0.285178	0.985122	0.592237
C33	C	-0.285174	0.985124	0.692193
C34	C	-0.285178	0.985110	0.307897
H35	H	-0.633896	0.549432	0.000051
O36	O	-0.564895	0.876483	0.590883
C37	C	-0.530909	0.793828	0.568350
H38	H	-0.363675	0.791670	0.543010
H39	H	-0.554903	0.752361	0.628982
H40	H	-0.646666	0.770615	0.514841
O41	O	-0.565200	0.876704	0.409082
C42	C	-0.694120	0.922576	0.355767
H43	H	-0.610968	0.986759	0.341954
H44	H	-0.727133	0.888219	0.290941
H45	H	-0.848502	0.929844	0.391290
O46	O	-0.656597	0.384010	-0.000101
C47	C	-0.773323	0.400409	-0.075940
H48	H	-0.663037	0.428895	-0.128956
H49	H	-0.857124	0.339760	-0.101402
H50	H	-0.894194	0.445830	-0.058790
O51	O	0.085990	0.586369	0.000069
C52	C	0.041401	0.670549	0.000052
H53	H	-0.122656	0.675589	0.027783
H54	H	0.161480	0.708579	0.042572
H55	H	0.049325	0.695549	-0.070210
O56	O	0.093926	0.415345	0.000068
C57	C	0.259376	0.479227	0.000042
H58	H	0.200878	0.538750	0.027774
H59	H	0.393577	0.459694	0.042556
H60	H	0.317463	0.490891	-0.070223
O61	O	-0.005049	1.093657	0.409308
C62	C	0.120241	1.142256	0.469760
H63	H	0.122614	1.108149	0.535478
H64	H	0.287047	1.153189	0.443128
H65	H	0.052380	1.204728	0.479558
O66	O	-0.005052	1.093521	0.590947
C67	C	0.123816	1.047654	0.644293
H68	H	0.127395	0.982051	0.616516
H69	H	0.289813	1.079838	0.645336
H70	H	0.058451	1.043984	0.714161
