data_functionalizedCrystal
_audit_creation_method	'MofGen! by Chris Wilmer'
_symmetry_space_group_name_H-M	'P1'
_symmetry_Int_Tables_number	1
_symmetry_cell_setting	triclinic
loop_
_symmetry_equiv_pos_as_xyz
  x,y,z
_cell_length_a	12.759401
_cell_length_b	18.050590
_cell_length_c	12.759393
_cell_angle_alpha	89.965321
_cell_angle_beta	89.980404
_cell_angle_gamma	90.018830
loop_
_atom_site_label
_atom_site_type_symbol
_atom_site_fract_x
_atom_site_fract_y
_atom_site_fract_z
Zn1	Zn	1.606238	-0.295618	-0.593952
Zn2	Zn	1.939572	0.037715	-0.260619
Zn3	Zn	2.272905	0.371049	0.072715
Zn4	Zn	1.606117	-0.419826	-0.418259
Zn5	Zn	1.939451	-0.086493	-0.084926
Zn6	Zn	2.272784	0.246841	0.248407
Zn7	Zn	1.430537	-0.295655	-0.418291
Zn8	Zn	1.763870	0.037679	-0.084958
Zn9	Zn	2.097204	0.371012	0.248375
Zn10	Zn	1.430517	-0.419771	-0.593901
Zn11	Zn	1.763850	-0.086438	-0.260567
Zn12	Zn	2.097184	0.246895	0.072766
O13	O	1.518352	-0.357718	-0.506101
O14	O	1.851686	-0.024384	-0.172767
O15	O	2.185019	0.308949	0.160566
O16	O	1.753243	-0.312102	-0.570654
O17	O	2.086577	0.021231	-0.237321
O18	O	2.419910	0.354565	0.096013
O19	O	1.582784	-0.403393	-0.271242
O20	O	1.916118	-0.070059	0.062091
O21	O	2.249451	0.263274	0.395424
O22	O	1.453903	-0.191725	-0.441628
O23	O	1.787236	0.141608	-0.108295
O24	O	2.120570	0.474941	0.225039
O25	O	1.753155	-0.403357	-0.441573
O26	O	2.086488	-0.070024	-0.108240
O27	O	2.419821	0.263310	0.225093
O28	O	1.582990	-0.191698	-0.570685
O29	O	1.916323	0.141635	-0.237352
O30	O	2.249657	0.474968	0.095982
O31	O	1.453786	-0.312165	-0.271266
O32	O	1.787119	0.021169	0.062067
O33	O	2.120453	0.354502	0.395401
O34	O	1.283513	-0.312112	-0.441578
O35	O	1.616847	0.021222	-0.108245
O36	O	1.950180	0.354555	0.225089
O37	O	1.453869	-0.403264	-0.740929
O38	O	1.787202	-0.069931	-0.407595
O39	O	2.120536	0.263403	-0.074262
O40	O	1.283499	-0.403300	-0.570597
O41	O	1.616832	-0.069966	-0.237264
O42	O	1.950165	0.263367	0.096069
O43	O	1.582971	-0.312049	-0.740966
O44	O	1.916304	0.021284	-0.407633
O45	O	2.249637	0.354618	-0.074300
O46	O	1.582765	-0.523743	-0.441524
O47	O	1.916098	-0.190410	-0.108190
O48	O	2.249432	0.142923	0.225143
O49	O	1.453752	-0.523703	-0.570566
O50	O	1.787085	-0.190370	-0.237233
O51	O	2.120419	0.142964	0.096100
C52	C	1.245385	-0.357704	-0.506086
C53	C	1.578718	-0.024371	-0.172753
C54	C	1.912052	0.308962	0.160580
C55	C	1.128608	-0.357716	-0.506105
C56	C	1.461942	-0.024383	-0.172772
C57	C	1.795275	0.308950	0.160562
C58	C	0.964035	-0.405281	-0.573187
C59	C	1.297369	-0.071948	-0.239854
C60	C	1.630702	0.261385	0.093480
C61	C	1.073759	-0.405273	-0.573176
C62	C	1.407093	-0.071940	-0.239843
C63	C	1.740426	0.261394	0.093491
C64	C	1.073728	-0.310170	-0.439033
C65	C	1.407061	0.023163	-0.105700
C66	C	1.740394	0.356496	0.227634
C67	C	0.964006	-0.310183	-0.439039
C68	C	1.297339	0.023151	-0.105706
C69	C	1.630672	0.356484	0.227627
C70	C	1.518272	-0.550670	-0.506059
C71	C	1.851605	-0.217336	-0.172726
C72	C	2.184938	0.115997	0.160608
C73	C	1.518333	-0.633215	-0.506076
C74	C	1.851667	-0.299882	-0.172743
C75	C	2.185000	0.033451	0.160591
C76	C	1.588636	-0.832661	-0.436000
C77	C	1.921970	-0.499328	-0.102667
C78	C	2.255303	-0.165994	0.230666
C79	C	1.614306	-0.881986	-0.531887
C80	C	1.947639	-0.548653	-0.198554
C81	C	2.280972	-0.215319	0.134780
C82	C	1.518393	-0.784346	-0.506118
C83	C	1.851726	-0.451012	-0.172785
C84	C	2.185060	-0.117679	0.160549
C85	C	1.492831	-0.882102	-0.410275
C86	C	1.826164	-0.548769	-0.076941
C87	C	2.159497	-0.215436	0.256392
C88	C	1.518452	-0.930331	-0.506150
C89	C	1.851786	-0.596998	-0.172817
C90	C	2.185119	-0.263664	0.160517
C91	C	1.544111	-0.832584	-0.602055
C92	C	1.877445	-0.499250	-0.268722
C93	C	2.210778	-0.165917	0.064612
C94	C	1.422592	-0.832696	-0.480378
C95	C	1.755925	-0.499362	-0.147044
C96	C	2.089258	-0.166029	0.186289
C97	C	1.448224	-0.881998	-0.576330
C98	C	1.781558	-0.548665	-0.242997
C99	C	2.114891	-0.215332	0.090336
C100	C	1.518361	-0.700247	-0.506098
C101	C	1.851695	-0.366914	-0.172765
C102	C	2.185028	-0.033581	0.160569
C103	C	1.518484	-1.014427	-0.506181
C104	C	1.851817	-0.681094	-0.172847
C105	C	2.185151	-0.347761	0.160486
C106	C	1.792386	-0.357731	-0.506116
C107	C	2.125719	-0.024398	-0.172783
C108	C	2.459052	0.308935	0.160551
C109	C	1.909162	-0.357737	-0.506122
C110	C	2.242496	-0.024404	-0.172789
C111	C	2.575829	0.308929	0.160544
C112	C	1.518431	-0.357646	-0.780134
C113	C	1.851764	-0.024313	-0.446801
C114	C	2.185098	0.309020	-0.113468
C115	C	1.518465	-0.357616	-0.896911
C116	C	1.851798	-0.024282	-0.563578
C117	C	2.185131	0.309051	-0.230244
C118	C	1.518462	-0.164012	-0.506166
C119	C	1.851795	0.169321	-0.172832
C120	C	2.185129	0.502655	0.160501
C121	C	1.518509	-0.081466	-0.506193
C122	C	1.851842	0.251867	-0.172860
C123	C	2.185176	0.585201	0.160473
C124	C	1.585693	-0.310113	-0.951794
C125	C	1.919026	0.023221	-0.618461
C126	C	2.252359	0.356554	-0.285128
C127	C	1.585711	-0.310081	-1.061518
C128	C	1.919044	0.023253	-0.728185
C129	C	2.252377	0.356586	-0.394852
C130	C	1.451269	-0.405061	-1.061466
C131	C	1.784602	-0.071728	-0.728133
C132	C	2.117936	0.261605	-0.394800
C133	C	1.451247	-0.405089	-0.951744
C134	C	1.784580	-0.071756	-0.618411
C135	C	2.117913	0.261578	-0.285077
C136	C	1.518335	-0.357735	-0.233133
C137	C	1.851668	-0.024402	0.100200
C138	C	2.185001	0.308932	0.433533
C139	C	1.518505	-0.357556	-0.116357
C140	C	1.851838	-0.024223	0.216976
C141	C	2.185171	0.309111	0.550309
H142	H	0.919385	-0.444004	-0.627810
H143	H	1.252718	-0.110670	-0.294476
H144	H	1.586052	0.222663	0.038857
H145	H	1.640423	-0.271455	-0.907152
H146	H	1.973756	0.061879	-0.573819
H147	H	2.307090	0.395212	-0.240486
Cl148	Cl	1.739432	-0.915400	-0.565551
Cl149	Cl	2.072765	-0.582067	-0.232218
Cl150	Cl	2.406099	-0.248734	0.101116
Cl151	Cl	1.142738	-0.465048	-0.657487
Cl152	Cl	1.476071	-0.131714	-0.324154
Cl153	Cl	1.809404	0.201619	0.009179
Cl154	Cl	1.142681	-0.250387	-0.354711
Cl155	Cl	1.476015	0.082947	-0.021378
Cl156	Cl	1.809348	0.416280	0.311956
Cl157	Cl	1.366777	-0.464743	-1.130407
Cl158	Cl	1.700110	-0.131409	-0.797073
Cl159	Cl	2.033444	0.201924	-0.463740
H160	H	1.640453	-0.271398	-1.106200
H161	H	1.973786	0.061936	-0.772866
H162	H	2.307119	0.395269	-0.439533
Cl163	Cl	1.577692	-0.799149	-0.727249
Cl164	Cl	1.911025	-0.465816	-0.393916
Cl165	Cl	2.244358	-0.132483	-0.060583
Cl166	Cl	1.366718	-0.464808	-0.882743
Cl167	Cl	1.700051	-0.131475	-0.549409
Cl168	Cl	2.033385	0.201858	-0.216076
Cl169	Cl	0.895017	-0.250411	-0.354719
Cl170	Cl	1.228351	0.082923	-0.021385
Cl171	Cl	1.561684	0.416256	0.311948
H172	H	1.648059	-0.810997	-0.376766
H173	H	1.981392	-0.477663	-0.043432
H174	H	2.314726	-0.144330	0.289901
Cl175	Cl	1.356551	-0.915239	-0.668001
Cl176	Cl	1.689884	-0.581906	-0.334668
Cl177	Cl	2.023217	-0.248572	-0.001335
H178	H	1.341572	-0.811026	-0.458557
H179	H	1.674906	-0.477693	-0.125224
H180	H	2.008239	-0.144360	0.208109
H181	H	1.471186	-0.903853	-0.329208
H182	H	1.804519	-0.570519	0.004125
H183	H	2.137852	-0.237186	0.337459
