data_functionalizedCrystal
_audit_creation_method	'MofGen! by Chris Wilmer'
_symmetry_space_group_name_H-M	'P1'
_symmetry_Int_Tables_number	1
_symmetry_cell_setting	triclinic
loop_
_symmetry_equiv_pos_as_xyz
  x,y,z
_cell_length_a	14.908520
_cell_length_b	14.908780
_cell_length_c	14.908694
_cell_angle_alpha	96.797826
_cell_angle_beta	96.744522
_cell_angle_gamma	83.210051
loop_
_atom_site_label
_atom_site_type_symbol
_atom_site_fract_x
_atom_site_fract_y
_atom_site_fract_z
Zn1	Zn	-0.313858	-1.396257	-0.608918
Zn2	Zn	-0.457411	-1.379587	-0.465375
Zn3	Zn	-0.313877	-1.236152	-0.448820
Zn4	Zn	-0.473894	-1.236113	-0.608841
O5	O	-0.389760	-1.312027	-0.532988
O6	O	-0.325994	-1.521094	-0.596837
O7	O	-0.431481	-1.353599	-0.336136
O8	O	-0.186829	-1.264383	-0.463161
O9	O	-0.431462	-1.508847	-0.491377
O10	O	-0.186815	-1.382011	-0.580784
O11	O	-0.326027	-1.248219	-0.323973
O12	O	-0.342010	-1.109098	-0.463086
O13	O	-0.459555	-1.264317	-0.735894
O14	O	-0.459574	-1.109070	-0.580653
O15	O	-0.341977	-1.381974	-0.735950
O16	O	-0.586643	-1.353562	-0.491302
O17	O	-0.598753	-1.248153	-0.596706
C18	C	-0.402583	-1.076142	-0.520066
C19	C	-0.408092	-0.975229	-0.514560
C20	C	-0.308789	-0.798355	-0.614216
C21	C	-0.313962	-0.703539	-0.609045
C22	C	-0.423606	-0.690778	-0.499044
C23	C	-0.418433	-0.785594	-0.504215
C24	C	-0.361024	-0.839380	-0.561803
C25	C	-0.355856	-0.934198	-0.566978
C26	C	-0.465495	-0.921435	-0.456973
C27	C	-0.470668	-0.826619	-0.451802
C28	C	-0.625639	-1.299070	-0.545814
C29	C	-0.726546	-1.293611	-0.551335
C30	C	-0.903489	-1.393241	-0.452054
C31	C	-0.998300	-1.388116	-0.457239
C32	C	-1.010981	-1.278239	-0.566895
C33	C	-0.916170	-1.283365	-0.561710
C34	C	-0.862427	-1.340867	-0.504286
C35	C	-0.767615	-1.345987	-0.499097
C36	C	-0.780297	-1.236116	-0.608757
C37	C	-0.875108	-1.230991	-0.613942
C38	C	-0.152960	-1.325061	-0.520134
C39	C	-0.052049	-1.330615	-0.514657
C40	C	-0.402602	-1.325001	-0.769784
C41	C	-0.408075	-1.330529	-0.870692
C42	C	-0.376879	-0.548834	-0.545955
C43	C	-0.371370	-0.649747	-0.551463
C44	C	-0.308553	-1.231163	-1.047644
C45	C	-0.313692	-1.236355	-1.142456
C46	C	-0.423497	-1.346098	-1.155129
C47	C	-0.418358	-1.340907	-1.060317
C48	C	-0.360883	-1.283438	-1.006578
C49	C	-0.355739	-1.278252	-0.911764
C50	C	-0.465548	-1.387990	-0.924439
C51	C	-0.470688	-1.393182	-1.019251
C52	C	-0.376899	-1.299160	-0.297113
C53	C	-0.371161	-1.293821	-0.196202
H54	H	-0.517406	-0.782814	-0.404913
H55	H	-0.508036	-0.954847	-0.414302
H56	H	-0.262048	-0.842148	-0.661111
H57	H	-0.517485	-1.439968	-1.063018
O58	O	-0.715312	-1.401900	-0.443442
C59	C	-0.600877	-1.529655	-0.432200
C60	C	-0.660036	-1.466383	-0.495328
H61	H	-0.556185	-1.581817	-0.474126
H62	H	-0.556170	-1.487865	-0.379998
H63	H	-0.646535	-1.566165	-0.395741
H64	H	-0.614447	-1.429859	-0.531849
H65	H	-0.704750	-1.508222	-0.547474
O66	O	-0.479270	-1.402033	-1.207250
C67	C	-0.516488	-1.555633	-1.247198
C68	C	-0.453272	-1.492390	-1.188099
H69	H	-0.495480	-1.628702	-1.231749
H70	H	-0.589561	-1.534715	-1.231647
H71	H	-0.511185	-1.550301	-1.322007
H72	H	-0.458496	-1.497690	-1.113272
H73	H	-0.380226	-1.513327	-1.203727
H74	H	-0.470336	-0.646970	-0.452148
H75	H	-0.508156	-1.430560	-0.890994
H76	H	-0.309111	-0.977989	-0.613871
H77	H	-1.031729	-1.430766	-0.414708
H78	H	-0.261746	-1.184379	-1.003889
O79	O	-1.063329	-1.222404	-0.622596
C80	C	-1.215015	-1.165866	-0.679222
C81	C	-1.155840	-1.229121	-0.616088
H82	H	-1.289822	-1.171289	-0.673996
H83	H	-1.199636	-1.092773	-0.658191
H84	H	-1.199386	-1.186756	-0.752275
H85	H	-1.171436	-1.208313	-0.543017
H86	H	-1.171229	-1.302199	-0.637197
H87	H	-0.918878	-1.184177	-0.660697
H88	H	-0.271425	-0.670140	-0.651723
O89	O	-0.851185	-1.449148	-0.396395
C90	C	-0.736746	-1.576898	-0.385137
C91	C	-0.795908	-1.513636	-0.448273
H92	H	-0.692053	-1.629064	-0.427058
H93	H	-0.692039	-1.535099	-0.332942
H94	H	-0.782401	-1.613402	-0.348670
H95	H	-0.750321	-1.477118	-0.484803
H96	H	-0.840622	-1.555483	-0.500413
H97	H	-0.746854	-1.193467	-0.651286
H98	H	-0.271080	-1.193787	-1.175888
H99	H	-0.308937	-1.231462	-0.868011
