data_functionalizedCrystal
_audit_creation_method	'MofGen! by Chris Wilmer'
_symmetry_space_group_name_H-M	'P1'
_symmetry_Int_Tables_number	1
_symmetry_cell_setting	triclinic
loop_
_symmetry_equiv_pos_as_xyz
  x,y,z
_cell_length_a	11.169417
_cell_length_b	11.169416
_cell_length_c	11.169409
_cell_angle_alpha	90.027704
_cell_angle_beta	90.021683
_cell_angle_gamma	90.011020
loop_
_atom_site_label
_atom_site_type_symbol
_atom_site_fract_x
_atom_site_fract_y
_atom_site_fract_z
Zn1	Zn	-1.834948	0.477744	-0.678641
Zn2	Zn	-1.584948	0.727744	-0.428641
Zn3	Zn	-1.334948	0.977744	-0.178641
Zn4	Zn	-1.084948	1.227744	0.071359
Zn5	Zn	-1.834831	0.678484	-0.477974
Zn6	Zn	-1.584831	0.928484	-0.227974
Zn7	Zn	-1.334831	1.178484	0.022026
Zn8	Zn	-1.084831	1.428484	0.272026
Zn9	Zn	-1.634234	0.477810	-0.477969
Zn10	Zn	-1.384234	0.727810	-0.227969
Zn11	Zn	-1.134234	0.977810	0.022031
Zn12	Zn	-0.884234	1.227810	0.272031
Zn13	Zn	-1.634235	0.678380	-0.678612
Zn14	Zn	-1.384235	0.928380	-0.428612
Zn15	Zn	-1.134235	1.178380	-0.178612
Zn16	Zn	-0.884235	1.428380	0.071388
O17	O	-1.734562	0.578105	-0.578299
O18	O	-1.484562	0.828105	-0.328299
O19	O	-1.234562	1.078105	-0.078299
O20	O	-0.984562	1.328105	0.171701
O21	O	-2.002882	0.504389	-0.652036
O22	O	-1.752882	0.754389	-0.402036
O23	O	-1.502882	1.004389	-0.152036
O24	O	-1.252882	1.254389	0.097964
O25	O	-1.808172	0.651936	-0.310023
O26	O	-1.558172	0.901936	-0.060023
O27	O	-1.308172	1.151936	0.189977
O28	O	-1.058172	1.401936	0.439977
O29	O	-1.660907	0.309852	-0.504598
O30	O	-1.410907	0.559852	-0.254598
O31	O	-1.160907	0.809852	-0.004598
O32	O	-0.910907	1.059852	0.245402
O33	O	-2.002796	0.651872	-0.504607
O34	O	-1.752796	0.901872	-0.254607
O35	O	-1.502796	1.151872	-0.004607
O36	O	-1.252796	1.401872	0.245393
O37	O	-1.808371	0.309803	-0.652031
O38	O	-1.558371	0.559803	-0.402031
O39	O	-1.308371	0.809803	-0.152031
O40	O	-1.058371	1.059803	0.097969
O41	O	-1.660794	0.504502	-0.310020
O42	O	-1.410794	0.754502	-0.060020
O43	O	-1.160794	1.004502	0.189980
O44	O	-0.910794	1.254502	0.439980
O45	O	-1.466284	0.504400	-0.504570
O46	O	-1.216284	0.754400	-0.254570
O47	O	-0.966284	1.004400	-0.004570
O48	O	-0.716284	1.254400	0.245430
O49	O	-1.660910	0.651694	-0.846566
O50	O	-1.410910	0.901694	-0.596566
O51	O	-1.160910	1.151694	-0.346566
O52	O	-0.910910	1.401694	-0.096566
O53	O	-1.466285	0.651758	-0.651982
O54	O	-1.216285	0.901758	-0.401982
O55	O	-0.966285	1.151758	-0.151982
O56	O	-0.716285	1.401758	0.098018
O57	O	-1.808372	0.504287	-0.846587
O58	O	-1.558372	0.754287	-0.596587
O59	O	-1.308372	1.004287	-0.346587
O60	O	-1.058372	1.254287	-0.096587
O61	O	-1.808173	0.846420	-0.504579
O62	O	-1.558173	1.096420	-0.254579
O63	O	-1.308173	1.346420	-0.004579
O64	O	-1.058173	1.596420	0.245421
O65	O	-1.660796	0.846344	-0.651988
O66	O	-1.410796	1.096344	-0.401988
O67	O	-1.160796	1.346344	-0.151988
O68	O	-0.910796	1.596344	0.098012
C69	C	-1.422737	0.578076	-0.578273
C70	C	-1.172737	0.828076	-0.328273
C71	C	-0.922737	1.078076	-0.078273
C72	C	-0.672737	1.328076	0.171727
C73	C	-1.289337	0.578092	-0.578291
C74	C	-1.039337	0.828092	-0.328291
C75	C	-0.789337	1.078092	-0.078291
C76	C	-0.539337	1.328092	0.171709
C77	C	-1.734505	0.889929	-0.578307
C78	C	-1.484505	1.139929	-0.328307
C79	C	-1.234505	1.389929	-0.078307
C80	C	-0.984505	1.639929	0.171693
C81	C	-1.734590	1.023329	-0.578351
C82	C	-1.484590	1.273329	-0.328351
C83	C	-1.234590	1.523329	-0.078351
C84	C	-0.984590	1.773329	0.171649
C85	C	-1.047604	0.578124	-0.578316
C86	C	-0.797604	0.828124	-0.328316
C87	C	-0.547604	1.078124	-0.078316
C88	C	-0.297604	1.328124	0.171684
C89	C	-1.181004	0.578107	-0.578299
C90	C	-0.931004	0.828107	-0.328299
C91	C	-0.681004	1.078107	-0.078299
C92	C	-0.431004	1.328107	0.171701
C93	C	-1.734654	0.577971	-0.891342
C94	C	-1.484654	0.827971	-0.641342
C95	C	-1.234654	1.077971	-0.391342
C96	C	-0.984654	1.327971	-0.141342
C97	C	-1.734693	0.577915	-1.024742
C98	C	-1.484693	0.827915	-0.774742
C99	C	-1.234693	1.077915	-0.524742
C100	C	-0.984693	1.327915	-0.274742
C101	C	-1.734643	1.265062	-0.578333
C102	C	-1.484643	1.515062	-0.328333
C103	C	-1.234643	1.765062	-0.078333
C104	C	-0.984643	2.015062	0.171667
C105	C	-1.734657	1.131662	-0.578389
C106	C	-1.484657	1.381662	-0.328389
C107	C	-1.234657	1.631662	-0.078389
C108	C	-0.984657	1.881662	0.171611
C109	C	-1.734539	0.578151	-0.266474
C110	C	-1.484539	0.828151	-0.016474
C111	C	-1.234539	1.078151	0.233526
C112	C	-0.984539	1.328151	0.483526
C113	C	-1.734732	0.577869	-0.133075
C114	C	-1.484732	0.827869	0.116925
C115	C	-1.234732	1.077869	0.366925
C116	C	-0.984732	1.327869	0.616925
