data_functionalizedCrystal
_audit_creation_method	'MofGen! by Chris Wilmer'
_symmetry_space_group_name_H-M	'P1'
_symmetry_Int_Tables_number	1
_symmetry_cell_setting	triclinic
loop_
_symmetry_equiv_pos_as_xyz
  x,y,z
_cell_length_a	8.597213
_cell_length_b	14.472310
_cell_length_c	15.995292
_cell_angle_alpha	89.997879
_cell_angle_beta	84.406420
_cell_angle_gamma	97.714737
loop_
_atom_site_label
_atom_site_type_symbol
_atom_site_fract_x
_atom_site_fract_y
_atom_site_fract_z
O1	O	2.082488	0.242623	0.124960
O2	O	1.625533	0.206245	0.134550
O3	O	1.866550	0.225434	0.007967
O4	O	1.841472	0.223435	0.251543
O5	O	1.866488	0.071747	0.007974
O6	O	1.625471	0.052559	0.134557
O7	O	2.082426	0.088936	0.124967
Cu8	Cu	1.853943	0.056714	0.129763
Cu9	Cu	1.854017	0.238467	0.129754
O10	O	1.841410	0.069748	0.251550
C11	C	1.567029	0.124747	0.133524
C12	C	1.392797	0.110877	0.130447
N13	N	1.853903	-0.071120	0.129768
C14	C	1.854014	-0.445202	0.129751
C15	C	1.724619	-0.416338	0.197249
C16	C	1.724917	-0.309226	0.197501
C17	C	1.853958	-0.259615	0.129759
C18	C	2.017713	-0.285417	0.150181
C19	C	2.016986	-0.392596	0.150663
C20	C	1.821116	-0.408349	0.041640
C21	C	1.817360	-0.301521	0.042195
C22	C	1.853936	-0.154729	0.129763
C23	C	1.854047	-0.550088	0.129750
C24	C	2.140931	0.170436	0.125993
C25	C	2.315163	0.184313	0.129070
C26	C	1.865498	0.148511	-0.023234
C27	C	1.862438	0.148275	-0.116212
N28	N	1.854069	0.366302	0.129743
C29	C	1.851189	0.147371	-0.454042
C30	C	2.025148	0.160876	-0.429307
C31	C	2.028454	0.161489	-0.332604
C32	C	1.856771	0.147819	-0.286441
C33	C	1.769835	0.228655	-0.316257
C34	C	1.767741	0.228559	-0.413065
C35	C	1.764118	0.053505	-0.412943
C36	C	1.770564	0.052862	-0.316398
C37	C	1.859916	0.148074	-0.191719
C38	C	1.848038	0.147121	-0.548764
C39	C	1.842462	0.146672	0.282751
C40	C	1.845522	0.146915	0.375729
H41	H	1.381988	0.257792	0.130253
Cl42	Cl	1.289619	-0.002579	0.128635
H43	H	1.603194	-0.292660	0.185136
H44	H	1.602502	-0.451847	0.185068
H45	H	1.830256	0.298775	-0.295706
Cl46	Cl	1.631379	-0.277139	0.018311
Cl47	Cl	1.756617	-0.455316	0.297591
Cl48	Cl	1.757285	-0.267066	0.298418
H49	H	1.905486	-0.267731	-0.010491
H50	H	2.092174	0.103278	-0.456753
H51	H	1.643500	0.221858	-0.285423
Cl52	Cl	2.061749	-0.427598	0.249937
Cl53	Cl	1.860789	0.337245	-0.453716
Cl54	Cl	2.169964	-0.420419	0.077673
Cl55	Cl	1.566426	0.036848	-0.436162
H56	H	1.915478	-0.426163	-0.008606
H57	H	2.116299	-0.252084	0.102383
H58	H	2.047403	-0.256216	0.213756
H59	H	2.096542	0.104003	-0.313019
Cl60	Cl	1.848102	-0.042505	-0.455940
H61	H	1.704301	-0.444716	0.022335
Cl62	Cl	2.128142	0.265696	-0.473267
H63	H	1.640194	0.222379	-0.428659
H64	H	2.096995	0.229963	-0.313642
Cl65	Cl	1.868282	-0.039597	-0.286922
H66	H	1.645250	0.037584	-0.284453
