data_functionalizedCrystal
_audit_creation_method	'MofGen! by Chris Wilmer'
_symmetry_space_group_name_H-M	'P1'
_symmetry_Int_Tables_number	1
_symmetry_cell_setting	triclinic
loop_
_symmetry_equiv_pos_as_xyz
  x,y,z
_cell_length_a	17.019282
_cell_length_b	17.038272
_cell_length_c	15.500227
_cell_angle_alpha	93.033254
_cell_angle_beta	91.034464
_cell_angle_gamma	87.241387
loop_
_atom_site_label
_atom_site_type_symbol
_atom_site_fract_x
_atom_site_fract_y
_atom_site_fract_z
O1	O	1.053050	0.099876	0.006537
O2	O	0.825047	0.111730	-0.010458
O3	O	0.937693	-0.008016	-0.002055
O4	O	0.940404	0.219622	-0.001866
O5	O	0.930855	-0.000778	0.141324
O6	O	0.818209	0.118968	0.132921
O7	O	1.046212	0.107114	0.149916
Cu8	Cu	0.931587	0.113702	0.154510
Cu9	Cu	0.939673	0.105142	-0.015052
O10	O	0.933566	0.226860	0.141512
C11	C	0.792311	0.114759	0.059047
C12	C	0.704954	0.112990	0.052535
C13	C	0.660191	0.116103	0.127634
C14	C	0.578110	0.114429	0.121519
C15	C	0.540794	0.109648	0.040304
C16	C	0.585563	0.106532	-0.034801
C17	C	0.667643	0.108201	-0.028684
C18	C	0.293154	0.104407	0.017927
C19	C	0.211069	0.102741	0.011816
C20	C	0.203622	0.110636	0.168136
C21	C	0.285702	0.112309	0.174245
C22	C	0.330465	0.109189	0.099141
C23	C	0.456895	0.107939	0.034051
C24	C	0.414363	0.110893	0.105395
C25	C	0.931809	-0.033532	0.069451
C26	C	0.924455	-0.120346	0.068903
C27	C	0.991975	-0.170268	0.073936
C28	C	0.985061	-0.251838	0.073413
C29	C	0.910625	-0.283485	0.067861
C30	C	0.843100	-0.233557	0.062825
C31	C	0.850016	-0.151989	0.063342
C32	C	0.886195	-0.529314	0.066029
C33	C	0.879284	-0.610889	0.065514
C34	C	1.021246	-0.629164	0.076100
C35	C	1.028155	-0.547592	0.076622
C36	C	0.960630	-0.497672	0.071581
C37	C	0.903556	-0.366863	0.067329
C38	C	0.967700	-0.414296	0.072108
C39	C	1.078949	0.104085	0.080409
C40	C	1.166306	0.105854	0.086915
C41	C	0.939450	0.252376	0.070005
C42	C	0.946805	0.339190	0.070548
N43	N	0.925905	0.119722	0.273771
N44	N	0.945360	0.099116	-0.134313
C45	C	0.973656	0.069000	0.322610
C46	C	0.969367	0.073560	0.412863
C47	C	0.917330	0.128846	0.454275
C48	C	0.869573	0.179570	0.405430
C49	C	0.873859	0.175006	0.315178
C50	C	0.901890	0.145276	0.726590
C51	C	0.897609	0.149838	0.816849
C52	C	0.997402	0.043826	0.824275
C53	C	1.001686	0.039270	0.734022
C54	C	0.953927	0.089991	0.685184
C55	C	0.912946	0.133510	0.546528
C56	C	0.958307	0.085323	0.592932
H57	H	0.444750	0.114782	0.171520
N58	N	1.072260	-0.136137	0.079926
H59	H	1.075758	-0.100025	0.133529
H60	H	1.113936	-0.180188	0.082998
N61	N	1.108445	-0.513474	0.082608
H62	H	1.140805	-0.534347	0.031680
H63	H	1.102522	-0.454228	0.082202
H64	H	1.040043	-0.292482	0.077513
N65	N	0.170817	0.097590	-0.075784
H66	H	0.211628	0.095867	-0.122435
H67	H	0.140055	0.048300	-0.081487
H68	H	0.831211	-0.488677	0.061924
N69	N	0.777182	-0.098151	0.057927
H70	H	0.774354	-0.061223	0.111059
H71	H	0.779456	-0.066629	0.004725
H72	H	1.076221	-0.669818	0.080203
N73	N	0.798997	-0.645025	0.059525
H74	H	0.757269	-0.601024	0.056408
H75	H	0.795578	-0.681153	0.005930
N76	N	1.048905	-0.010884	0.876947
H77	H	1.106036	-0.002495	0.865426
H78	H	1.038231	0.000421	0.940385
H79	H	0.690567	0.120003	0.193768
N80	N	0.762815	-0.267687	0.056832
H81	H	0.768678	-0.326935	0.057271
H82	H	0.730493	-0.246756	0.107763
H83	H	0.555174	0.102634	-0.100928
N84	N	0.715927	0.104838	-0.109683
H85	H	0.679835	0.101556	-0.162061
H86	H	0.747012	0.153786	-0.110790
N87	N	0.341428	0.101036	-0.063075
H88	H	0.305331	0.097755	-0.115450
H89	H	0.372515	0.149982	-0.064187
H90	H	1.028306	-0.388526	0.076608
H91	H	0.855232	0.194862	0.850562
N92	N	0.823271	-0.400994	0.061349
H93	H	0.819773	-0.437109	0.007748
H94	H	0.814758	-0.431711	0.114089
H95	H	0.426503	0.104045	-0.032075
H96	H	0.541668	0.116950	0.182672
H97	H	0.316080	0.116199	0.240379
N98	N	0.813449	0.239206	0.450088
H99	H	0.757809	0.229229	0.430196
H100	H	0.818047	0.234378	0.514663
H101	H	1.016033	0.023983	0.288898
N102	N	0.822353	0.229708	0.262497
H103	H	0.788737	0.265425	0.302425
H104	H	0.856527	0.262482	0.227449
H105	H	1.000673	0.040306	0.559211
H106	H	1.044059	-0.005748	0.700306
N107	N	1.020898	0.018880	0.465542
H108	H	1.054527	-0.016823	0.425613
H109	H	1.055854	0.050854	0.505694
N110	N	0.155343	0.113999	0.249137
H111	H	0.097623	0.113295	0.232943
H112	H	0.170447	0.067010	0.284000
N113	N	0.850383	0.199993	0.673935
H114	H	0.884507	0.232820	0.638885
H115	H	0.815364	0.168060	0.633813
N116	N	0.856833	0.193144	0.591207
H117	H	0.870343	0.247880	0.576444
H118	H	0.801211	0.183107	0.571304
