data_functionalizedCrystal
_audit_creation_method	'MofGen! by Chris Wilmer'
_symmetry_space_group_name_H-M	'P1'
_symmetry_Int_Tables_number	1
_symmetry_cell_setting	triclinic
loop_
_symmetry_equiv_pos_as_xyz
  x,y,z
_cell_length_a	19.188928
_cell_length_b	18.266242
_cell_length_c	19.188930
_cell_angle_alpha	90.011475
_cell_angle_beta	96.855705
_cell_angle_gamma	89.974262
loop_
_atom_site_label
_atom_site_type_symbol
_atom_site_fract_x
_atom_site_fract_y
_atom_site_fract_z
O1	O	-0.926150	0.061172	0.087161
O2	O	-0.426150	0.561172	0.587161
O3	O	-0.722839	0.061113	0.098897
O4	O	-0.222839	0.561113	0.598897
O5	O	-0.830362	0.061130	-0.008627
O6	O	-0.330362	0.561130	0.491373
O7	O	-0.818627	0.061155	0.194685
O8	O	-0.318627	0.561155	0.694685
O9	O	-0.830344	-0.060632	-0.008632
O10	O	-0.330344	0.439368	0.491368
O11	O	-0.722821	-0.060649	0.098891
O12	O	-0.222821	0.439351	0.598891
O13	O	-0.926132	-0.060590	0.087155
O14	O	-0.426132	0.439410	0.587155
Zn15	Zn	-0.824474	-0.079952	0.093022
Zn16	Zn	-0.324474	0.420048	0.593022
Zn17	Zn	-0.824497	0.080475	0.093030
Zn18	Zn	-0.324497	0.580475	0.593030
O19	O	-0.818609	-0.060607	0.194679
O20	O	-0.318609	0.439393	0.694679
C21	C	-0.696819	0.000224	0.098514
C22	C	-0.196819	0.500224	0.598514
C23	C	-0.619314	0.000201	0.097374
C24	C	-0.119314	0.500201	0.597374
C25	C	-0.574390	0.000218	0.160465
C26	C	-0.074390	0.500218	0.660465
C27	C	-0.501566	0.000222	0.159394
C28	C	-0.001566	0.500222	0.659394
C29	C	-0.473670	0.000224	0.095229
C30	C	0.026330	0.500224	0.595229
C31	C	-0.518603	0.000202	0.032129
C32	C	-0.018603	0.500202	0.532129
C33	C	-0.591426	0.000191	0.033202
C34	C	-0.091426	0.500191	0.533202
N35	N	-0.365696	0.041682	0.046184
N36	N	0.134304	0.541682	0.546184
N37	N	-0.296517	0.041695	0.045170
N38	N	0.203483	0.541695	0.545170
C39	C	-0.254261	0.000257	0.091992
C40	C	0.245739	0.500257	0.591992
N41	N	-0.283795	-0.041185	0.139879
N42	N	0.216205	0.458815	0.639879
N43	N	-0.352980	-0.041194	0.140896
N44	N	0.147020	0.458806	0.640896
C45	C	-0.394707	0.000236	0.094058
C46	C	0.105293	0.500236	0.594058
C47	C	-0.130372	0.000277	0.153927
C48	C	0.369628	0.500277	0.653927
C49	C	-0.057547	0.000277	0.152853
C50	C	0.442453	0.500277	0.652853
C51	C	-0.074586	0.000265	0.025586
C52	C	0.425414	0.500265	0.525586
C53	C	-0.147409	0.000258	0.026661
C54	C	0.352591	0.500258	0.526661
C55	C	-0.175298	0.000267	0.090834
C56	C	0.324702	0.500267	0.590834
N57	N	-0.824462	-0.189439	0.093017
N58	N	-0.324462	0.310561	0.593017
C59	C	-0.872089	-0.227740	0.045429
C60	C	-0.372089	0.272260	0.545429
C61	C	-0.872093	-0.304385	0.045426
C62	C	-0.372093	0.195615	0.545426
C63	C	-0.824478	-0.342726	0.093023
C64	C	-0.324478	0.157274	0.593023
C65	C	-0.776842	-0.304415	0.140614
C66	C	-0.276842	0.195585	0.640614
C67	C	-0.776834	-0.227772	0.140612
C68	C	-0.276834	0.272228	0.640612
N69	N	-0.815402	-0.463052	0.154830
N70	N	-0.315402	0.036948	0.654830
N71	N	-0.815414	-0.535860	0.154831
N72	N	-0.315414	-0.035860	0.654831
C73	C	-0.824497	-0.573648	0.093033
C74	C	-0.324497	-0.073648	0.593033
N75	N	-0.833583	-0.535877	0.031232
N76	N	-0.333583	-0.035877	0.531232
N77	N	-0.833575	-0.463063	0.031233
N78	N	-0.333575	0.036937	0.531233
C79	C	-0.824481	-0.425833	0.093031
C80	C	-0.324481	0.074167	0.593031
C81	C	-0.872132	-0.695056	0.045437
C82	C	-0.372132	-0.195056	0.545437
C83	C	-0.872131	-0.771703	0.045433
C84	C	-0.372131	-0.271703	0.545433
C85	C	-0.776883	-0.771732	0.140628
C86	C	-0.276883	-0.271732	0.640628
C87	C	-0.776880	-0.695087	0.140626
C88	C	-0.276880	-0.195087	0.640626
C89	C	-0.824508	-0.656754	0.093031
C90	C	-0.324508	-0.156754	0.593031
C91	C	0.047848	0.000288	0.087540
C92	C	0.547848	0.500288	0.587540
C93	C	-0.029656	0.000277	0.088686
C94	C	0.470344	0.500277	0.588686
C95	C	-0.829973	0.000247	-0.034641
C96	C	-0.329973	0.500247	0.465359
C97	C	-0.828832	0.000240	-0.112145
C98	C	-0.328832	0.500240	0.387855
N99	N	-0.824514	0.189962	0.093030
N100	N	-0.324514	0.689962	0.593030
C101	C	-0.891923	0.000255	-0.157070
C102	C	-0.391923	0.500255	0.342930
C103	C	-0.890851	0.000267	-0.229893
C104	C	-0.390851	0.500267	0.270107
C105	C	-0.826685	0.000248	-0.257789
C106	C	-0.326685	0.500248	0.242211
C107	C	-0.763586	0.000237	-0.212855
C108	C	-0.263586	0.500237	0.287145
C109	C	-0.764659	0.000233	-0.140033
C110	C	-0.264659	0.500233	0.359967
N111	N	-0.777631	-0.041204	-0.365796
N112	N	-0.277631	0.458796	0.134204
N113	N	-0.776616	-0.041202	-0.434974
N114	N	-0.276616	0.458798	0.065026
C115	C	-0.823447	0.000262	-0.477198
C116	C	-0.323447	0.500262	0.022802
N117	N	-0.871342	0.041714	-0.447631
N118	N	-0.371342	0.541714	0.052369
N119	N	-0.872360	0.041709	-0.378446
N120	N	-0.372360	0.541709	0.121554
C121	C	-0.825514	0.000253	-0.336752
C122	C	-0.325514	0.500253	0.163248
C123	C	-0.885380	0.000291	-0.601087
C124	C	-0.385380	0.500291	-0.101087
C125	C	-0.884306	0.000306	-0.673912
C126	C	-0.384306	0.500306	-0.173912
C127	C	-0.757039	0.000270	-0.656872
C128	C	-0.257039	0.500270	-0.156872
C129	C	-0.758115	0.000261	-0.584049
C130	C	-0.258115	0.500261	-0.084049
C131	C	-0.822287	0.000268	-0.556161
C132	C	-0.322287	0.500268	-0.056161
C133	C	-0.818998	0.000278	0.220693
C134	C	-0.318998	0.500278	0.720693
C135	C	-0.820139	0.000289	0.298197
C136	C	-0.320139	0.500289	0.798197
H137	H	-0.020970	0.000287	0.204232
H138	H	0.479030	0.500287	0.704232
H139	H	-0.051874	0.000311	-0.026659
H140	H	0.448126	0.500311	0.473341
Br141	Br	-0.712243	-0.643100	0.205215
Br142	Br	-0.212243	-0.143100	0.705215
Br143	Br	-0.712193	-0.175787	0.205200
Br144	Br	-0.212193	0.324213	0.705200
Br145	Br	-0.612236	0.000230	0.247556
Br146	Br	-0.112236	0.500230	0.747556
H147	H	-0.704793	0.000259	-0.679584
H148	H	-0.204793	0.500259	-0.179584
H149	H	-0.937633	0.000299	-0.578380
H150	H	-0.437633	0.500299	-0.078380
Br151	Br	-0.208382	0.000236	-0.058968
Br152	Br	0.291618	0.500236	0.441032
Br153	Br	-0.440586	0.000241	0.245024
Br154	Br	0.059414	0.500241	0.745024
Br155	Br	-0.480746	0.000197	-0.054954
Br156	Br	0.019254	0.500197	0.445046
H157	H	-0.713281	0.000221	-0.103455
H158	H	-0.213281	0.500221	0.396545
H159	H	-0.944177	0.000263	-0.134368
H160	H	-0.444177	0.500263	0.365632
Br161	Br	-0.652399	0.000166	-0.052429
Br162	Br	-0.152399	0.500166	0.447571
Br163	Br	-0.168225	0.000285	0.241015
Br164	Br	0.331775	0.500285	0.741015
H165	H	-0.910869	-0.196531	0.006673
H166	H	-0.410869	0.303469	0.506673
Br167	Br	-0.712254	-0.823759	0.205217
Br168	Br	-0.212254	-0.323759	0.705217
Br169	Br	-0.969937	0.000335	-0.734884
Br170	Br	-0.469937	0.500335	-0.234884
Br171	Br	-0.936766	-0.823687	-0.019162
Br172	Br	-0.436766	-0.323687	0.480838
H173	H	-0.942229	0.000282	-0.266478
H174	H	-0.442229	0.500282	0.233522
Br175	Br	-0.672486	0.000240	-0.523075
Br176	Br	-0.172486	0.500240	-0.023075
Br177	Br	-0.936734	-0.356375	-0.019165
Br178	Br	-0.436734	0.143625	0.480835
Br179	Br	-0.712215	-0.356446	0.205206
Br180	Br	-0.212215	0.143554	0.705206
Br181	Br	-0.936766	-0.643031	-0.019157
Br182	Br	-0.436766	-0.143031	0.480843
H183	H	-0.711341	0.000224	-0.235573
H184	H	-0.211341	0.500224	0.264427
