data_functionalizedCrystal
_audit_creation_method	'MofGen! by Chris Wilmer'
_symmetry_space_group_name_H-M	'P1'
_symmetry_Int_Tables_number	1
_symmetry_cell_setting	triclinic
loop_
_symmetry_equiv_pos_as_xyz
  x,y,z
_cell_length_a	10.540539
_cell_length_b	9.065218
_cell_length_c	7.540329
_cell_angle_alpha	89.998243
_cell_angle_beta	89.999095
_cell_angle_gamma	84.770688
loop_
_atom_site_label
_atom_site_type_symbol
_atom_site_fract_x
_atom_site_fract_y
_atom_site_fract_z
O1	O	1.686653	0.207930	-0.147391
O2	O	1.317313	0.227521	-0.147412
O3	O	1.509617	0.003045	-0.147398
O4	O	1.494349	0.432406	-0.147406
O5	O	1.509606	0.003042	0.147568
O6	O	1.317301	0.227519	0.147553
O7	O	1.686642	0.207927	0.147574
Cu8	Cu	1.501970	0.217723	0.174496
Cu9	Cu	1.501984	0.217726	-0.174334
O10	O	1.494337	0.432403	0.147559
C11	C	1.508144	-0.051936	0.000082
C12	C	1.503757	-0.215757	0.000073
C13	C	1.269999	0.226051	0.000068
C14	C	1.129034	0.221655	0.000059
C15	C	0.944985	0.053221	0.000751
C16	C	1.091619	0.057677	0.000068
C17	C	1.067660	0.300570	-0.168375
C18	C	0.921095	0.294974	-0.168498
C19	C	0.920606	0.298306	0.166933
C20	C	1.067593	0.299817	0.169141
C21	C	1.733956	0.209398	0.000090
C22	C	1.874920	0.213794	0.000087
C23	C	1.495811	0.487384	0.000076
C24	C	1.500198	0.651205	0.000073
N25	N	1.501970	0.217719	0.419845
N26	N	1.501995	0.217718	-0.419683
H27	H	0.916155	-0.011561	0.121545
C28	C	1.098461	0.463250	-0.176864
C29	C	1.171966	0.518478	-0.336550
C30	C	1.202770	0.681157	-0.345034
C31	C	1.160069	0.788609	-0.193832
C32	C	1.086560	0.733383	-0.034135
C33	C	1.055756	0.570704	-0.025651
H34	H	1.203579	0.438934	-0.448489
H35	H	1.257186	0.722038	-0.463253
H36	H	1.182872	0.909033	-0.200112
H37	H	1.054946	0.812927	0.077805
H38	H	1.001339	0.529823	0.092569
C39	C	0.882689	0.216176	-0.338576
C40	C	0.985337	0.158772	-0.473340
C41	C	0.946940	0.079970	-0.643420
C42	C	0.805894	0.058572	-0.678737
C43	C	0.703237	0.115977	-0.543970
C44	C	0.741635	0.194779	-0.373889
H45	H	1.089756	0.174611	-0.447199
H46	H	1.022934	0.037476	-0.743184
H47	H	0.777470	0.000238	-0.804641
H48	H	0.598819	0.100138	-0.570111
H49	H	0.665641	0.237274	-0.274126
H50	H	0.914544	-0.011285	-0.119368
H51	H	0.888858	0.245238	0.294605
C52	C	0.856871	0.454281	-0.178882
C53	C	0.938991	0.586180	-0.187042
C54	C	0.874774	0.745482	-0.197455
C55	C	0.728436	0.772885	-0.199707
C56	C	0.646307	0.640981	-0.191546
C57	C	0.710524	0.481679	-0.181134
H58	H	1.047326	0.565899	-0.185376
H59	H	0.935572	0.843126	-0.203496
H60	H	0.680899	0.890810	-0.207415
H61	H	0.537971	0.661263	-0.193213
H62	H	0.649726	0.384036	-0.175092
H63	H	1.133999	-0.004416	0.120809
H64	H	1.133138	-0.004852	-0.120880
H65	H	1.110051	0.245753	-0.293726
H66	H	1.108337	0.242166	0.293748
H67	H	1.092261	0.419367	0.179308
H68	H	0.873817	0.416747	0.168068
