data_functionalizedCrystal
_audit_creation_method	'MofGen! by Chris Wilmer'
_symmetry_space_group_name_H-M	'P1'
_symmetry_Int_Tables_number	1
_symmetry_cell_setting	triclinic
loop_
_symmetry_equiv_pos_as_xyz
  x,y,z
_cell_length_a	15.538191
_cell_length_b	10.654562
_cell_length_c	9.730223
_cell_angle_alpha	89.995370
_cell_angle_beta	89.999690
_cell_angle_gamma	65.881099
loop_
_atom_site_label
_atom_site_type_symbol
_atom_site_fract_x
_atom_site_fract_y
_atom_site_fract_z
O1	O	0.131970	1.606135	-0.114362
O2	O	0.144525	1.234789	-0.114343
O3	O	0.001593	1.492747	-0.114363
O4	O	0.274902	1.348176	-0.114343
O5	O	0.001589	1.492742	0.114217
O6	O	0.144522	1.234783	0.114236
O7	O	0.131966	1.606129	0.114218
Zn8	Zn	0.138243	1.420456	0.150519
Zn9	Zn	0.138248	1.420463	-0.150645
O10	O	0.274899	1.348171	0.114237
C11	C	0.143599	1.188421	-0.000051
C12	C	0.140833	1.050271	-0.000045
C13	C	0.139541	0.985340	0.124543
C14	C	0.136950	0.855529	0.124520
C15	C	0.136947	0.855589	-0.124691
C16	C	0.139532	0.985401	-0.124666
C17	C	0.140843	1.050210	0.249164
C18	C	0.139552	0.985278	0.373762
C19	C	0.136961	0.855467	0.373739
C20	C	0.135661	0.790588	0.249118
C21	C	-0.033405	1.507870	-0.000078
C22	C	-0.137683	1.552926	-0.000094
C23	C	-0.428413	1.105314	-0.000042
C24	C	-0.526401	1.147682	-0.000041
C25	C	-0.547279	1.385991	-0.000054
C26	C	-0.449291	1.343643	-0.000062
C27	C	-0.389865	1.203303	-0.000054
C28	C	-0.410743	1.441632	-0.000074
C29	C	-0.312764	1.399287	-0.000074
C30	C	-0.253332	1.258953	-0.000063
C31	C	-0.291886	1.160958	-0.000055
C32	C	-0.470170	1.581971	-0.000071
C33	C	-0.431622	1.679960	-0.000083
C34	C	-0.333642	1.637616	-0.000093
C35	C	-0.274210	1.497282	-0.000082
C36	C	-0.295088	1.735611	-0.000101
C37	C	-0.197108	1.693266	-0.000102
C38	C	-0.176231	1.454937	-0.000082
C39	C	0.309897	1.333048	-0.000050
C40	C	0.414174	1.287992	-0.000044
C41	C	0.132892	1.652498	-0.000077
C42	C	0.135658	1.790647	-0.000093
N43	N	0.138240	1.420460	0.356055
N44	N	0.138244	1.420471	-0.356181
C45	C	0.080742	1.370520	0.428003
C46	C	0.080747	1.370521	0.571886
C47	C	0.195748	1.470411	0.571861
C48	C	0.195748	1.470401	0.427981
C49	C	0.023234	1.320579	0.356078
C50	C	-0.034268	1.270637	0.428026
C51	C	-0.034264	1.270638	0.571909
C52	C	0.023243	1.320581	0.643844
H53	H	0.140604	1.038116	0.475224
H54	H	-0.380025	0.991035	-0.000046
H55	H	-0.595676	1.500256	-0.000054
C56	C	-0.154702	1.801049	-0.000117
H57	H	-0.204126	1.890694	-0.000134
H58	H	-0.116913	1.789479	0.079594
H59	H	-0.116915	1.789481	-0.079838
C60	C	0.135540	0.784047	0.510787
H61	H	0.136692	0.841272	0.585005
H62	H	0.079860	0.767893	0.515965
H63	H	0.189210	0.698916	0.515953
H64	H	-0.243498	1.046679	-0.000059
C65	C	0.140961	1.056825	-0.261709
H66	H	0.139830	0.999592	-0.335932
H67	H	0.087299	1.141955	-0.266883
H68	H	0.196649	1.072971	-0.266869
H69	H	-0.081078	1.229960	0.630485
C70	C	0.132809	0.647800	0.249094
H71	H	0.132229	0.618416	0.341143
H72	H	0.077554	0.652930	0.203064
H73	H	0.186904	0.583952	0.203076
H74	H	0.142956	1.155906	0.249197
H75	H	0.135891	0.802752	-0.226151
C76	C	0.023149	1.320726	0.197813
H77	H	0.065600	1.357674	0.165264
H78	H	0.042354	1.229248	0.165148
H79	H	-0.038590	1.375421	0.165388
C80	C	-0.496990	1.834325	-0.000096
H81	H	-0.459997	1.886618	-0.000098
H82	H	-0.535649	1.855796	-0.079806
H83	H	-0.535642	1.855800	0.079626
H84	H	-0.127843	1.340658	-0.000087
H85	H	-0.173552	1.224478	-0.000055
C86	C	-0.568804	1.039890	-0.000028
H87	H	-0.635669	1.085205	-0.000017
H88	H	-0.548460	0.983984	-0.079731
H89	H	-0.548456	0.983994	0.079700
H90	H	-0.549951	1.616444	-0.000083
H91	H	-0.343486	1.849876	-0.000094
C92	C	-0.097512	1.215688	0.348904
H93	H	-0.089285	1.222846	0.252909
H94	H	-0.080659	1.122088	0.372499
H95	H	-0.161615	1.268251	0.372481
H96	H	0.023248	1.320569	0.761003
H97	H	0.242567	1.511073	0.630442
C98	C	0.258983	1.525351	0.348833
H99	H	0.293221	1.555118	0.412273
H100	H	0.301847	1.454352	0.292708
H101	H	0.220886	1.600510	0.292701
