data_functionalizedCrystal
_audit_creation_method	'MofGen! by Chris Wilmer'
_symmetry_space_group_name_H-M	'P1'
_symmetry_Int_Tables_number	1
_symmetry_cell_setting	triclinic
loop_
_symmetry_equiv_pos_as_xyz
  x,y,z
_cell_length_a	16.959455
_cell_length_b	16.625546
_cell_length_c	16.959447
_cell_angle_alpha	89.969057
_cell_angle_beta	89.982031
_cell_angle_gamma	90.019415
loop_
_atom_site_label
_atom_site_type_symbol
_atom_site_fract_x
_atom_site_fract_y
_atom_site_fract_z
Zn1	Zn	1.208399	-0.321062	-0.446898
Zn2	Zn	1.208308	-0.455906	-0.314715
Zn3	Zn	1.076219	-0.321084	-0.314736
Zn4	Zn	1.076187	-0.455849	-0.446854
O5	O	1.142278	-0.388475	-0.380801
O6	O	1.318998	-0.338964	-0.429374
O7	O	1.190761	-0.438055	-0.204107
O8	O	1.093805	-0.208248	-0.332295
O9	O	1.318931	-0.438033	-0.332260
O10	O	1.190917	-0.208232	-0.429394
O11	O	1.093716	-0.339002	-0.204122
O12	O	0.965604	-0.338946	-0.332252
O13	O	1.093750	-0.437936	-0.557471
O14	O	0.965580	-0.437957	-0.429318
O15	O	1.190885	-0.338908	-0.557503
O16	O	1.190730	-0.568731	-0.332217
O17	O	1.093661	-0.568689	-0.429298
C18	C	0.936912	-0.388448	-0.380783
C19	C	0.849055	-0.388456	-0.380794
C20	C	0.477568	-0.336878	-0.330364
C21	C	0.477592	-0.440139	-0.431283
C22	C	0.560138	-0.440127	-0.431278
C23	C	0.601402	-0.388491	-0.380815
C24	C	0.560121	-0.336866	-0.330356
C25	C	0.601425	-0.491757	-0.481731
C26	C	0.683976	-0.491748	-0.481727
C27	C	0.725242	-0.440107	-0.431267
C28	C	0.683956	-0.388479	-0.380807
C29	C	0.725221	-0.336843	-0.330343
C30	C	0.683936	-0.285211	-0.279886
C31	C	0.601387	-0.285225	-0.279895
C32	C	0.807790	-0.440093	-0.431257
C33	C	0.807774	-0.336832	-0.330335
C34	C	1.142203	-0.597966	-0.380768
C35	C	1.142244	-0.687587	-0.380780
C36	C	1.142382	-1.015763	-0.380862
C37	C	1.142341	-0.924454	-0.380842
C38	C	1.142312	-0.851678	-0.380821
C39	C	1.142272	-0.760363	-0.380801
C40	C	1.348446	-0.388502	-0.380819
C41	C	1.436303	-0.388514	-0.380827
C42	C	1.142324	-0.388413	-0.586969
C43	C	1.142344	-0.388386	-0.674826
C44	C	1.142375	-0.178166	-0.380851
C45	C	1.142416	-0.088545	-0.380873
C46	C	1.192881	-0.439945	-0.716094
C47	C	1.091820	-0.336807	-0.716112
C48	C	1.091834	-0.336783	-0.798657
C49	C	1.142371	-0.388342	-0.839925
C50	C	1.192894	-0.439925	-0.798647
C51	C	1.041306	-0.285208	-0.839942
C52	C	1.041317	-0.285182	-0.922493
C53	C	1.091858	-0.336738	-0.963762
C54	C	1.142384	-0.388322	-0.922479
C55	C	1.192921	-0.439881	-0.963747
C56	C	1.243452	-0.491462	-0.922465
C57	C	1.243435	-0.491481	-0.839916
C58	C	1.091874	-0.336719	-1.046311
C59	C	1.192935	-0.439861	-1.046300
C60	C	1.142278	-0.388479	-0.175435
C61	C	1.142411	-0.388278	-0.087578
H62	H	0.567766	-0.243190	-0.238815
H63	H	0.717583	-0.533789	-0.522813
H64	H	1.000156	-0.243237	-0.806335
N65	N	0.435390	-0.284139	-0.278836
N66	N	0.361686	-0.284148	-0.278851
H67	H	0.331896	-0.246900	-0.242459
H68	H	0.841401	-0.482133	-0.472336
H69	H	1.000172	-0.243182	-0.956097
N70	N	1.244559	-0.492516	-1.088466
N71	N	1.294940	-0.464135	-1.134549
H72	H	1.331400	-0.501321	-1.164331
H73	H	1.284596	-0.533444	-0.956076
N74	N	0.435456	-0.492882	-0.482836
N75	N	0.472326	-0.538968	-0.527886
H76	H	0.442566	-0.576220	-0.564300
N77	N	1.040255	-0.284039	-1.088466
N78	N	0.995131	-0.238014	-1.051611
H79	H	0.958671	-0.200805	-1.081382
H80	H	0.841366	-0.294778	-0.289245
H81	H	1.050671	-0.294835	-0.682506
N82	N	1.295039	-0.544162	-0.797736
N83	N	1.295013	-0.544176	-0.724033
H84	H	1.331455	-0.581384	-0.694239
N85	N	1.244494	-0.492622	-0.673919
N86	N	1.244482	-0.492632	-0.600215
H87	H	1.280935	-0.529835	-0.570427
N88	N	0.559285	-0.544509	-0.533271
N89	N	0.568481	-0.618903	-0.527894
H90	H	0.538716	-0.656162	-0.564297
N91	N	0.726103	-0.232480	-0.228338
N92	N	0.799807	-0.232489	-0.228337
H93	H	0.829591	-0.195250	-0.191932
