data_functionalizedCrystal
_audit_creation_method	'MofGen! by Chris Wilmer'
_symmetry_space_group_name_H-M	'P1'
_symmetry_Int_Tables_number	1
_symmetry_cell_setting	triclinic
loop_
_symmetry_equiv_pos_as_xyz
  x,y,z
_cell_length_a	16.974800
_cell_length_b	10.908878
_cell_length_c	16.053811
_cell_angle_alpha	91.926720
_cell_angle_beta	91.073829
_cell_angle_gamma	71.762299
loop_
_atom_site_label
_atom_site_type_symbol
_atom_site_fract_x
_atom_site_fract_y
_atom_site_fract_z
O1	O	1.027632	0.163617	0.000034
O2	O	0.795596	0.183266	-0.015652
O3	O	0.942373	-0.013385	-0.005727
O4	O	0.880855	0.360268	-0.009892
O5	O	0.934299	-0.002605	0.132586
O6	O	0.787521	0.194046	0.122661
O7	O	1.019558	0.174398	0.138347
Zn8	Zn	0.902258	0.185934	0.152464
Zn9	Zn	0.912896	0.171730	-0.029769
O10	O	0.872781	0.371049	0.128421
C11	C	0.762319	0.187711	0.051528
C12	C	0.675198	0.184881	0.045639
C13	C	0.629872	0.189425	0.118268
C14	C	0.548016	0.186745	0.112737
C15	C	0.511486	0.179531	0.034576
C16	C	0.556819	0.174983	-0.038059
C17	C	0.638675	0.177653	-0.032527
C18	C	0.267146	0.170905	0.009946
C19	C	0.185283	0.168238	0.004419
C20	C	0.176486	0.179998	0.155216
C21	C	0.258343	0.182676	0.160741
C22	C	0.303670	0.178121	0.088107
N23	N	0.427815	0.176795	0.028920
N24	N	0.387341	0.180847	0.093763
C25	C	0.944085	-0.055817	0.063817
C26	C	0.961207	-0.198312	0.064972
C27	C	0.898734	-0.247533	0.060747
C28	C	0.916429	-0.394809	0.061941
C29	C	1.052835	0.169952	0.071165
C30	C	1.139957	0.172782	0.077049
C31	C	0.871069	0.413480	0.058875
C32	C	0.853947	0.555975	0.057715
N33	N	0.895003	0.195627	0.276834
C34	C	0.957472	0.111981	0.324752
C35	C	0.952403	0.118774	0.411816
C36	C	0.884868	0.209219	0.450960
C37	C	0.822394	0.292868	0.403036
C38	C	0.827460	0.286068	0.315973
C39	C	0.862743	0.238883	0.710874
C40	C	0.857682	0.245679	0.797943
C41	C	0.987691	0.071583	0.806717
C42	C	0.992754	0.064797	0.719653
C43	C	0.930278	0.148441	0.671735
N44	N	0.879687	0.216167	0.539954
N45	N	0.935457	0.141486	0.582743
N46	N	0.920151	0.162034	0.845861
H47	H	0.288081	0.188545	0.224389
O48	O	0.669261	0.197221	0.202575
H49	H	0.724834	0.111324	0.209958
O50	O	0.687572	0.172737	-0.110861
H51	H	0.706605	0.261065	-0.113200
H52	H	0.983018	-0.461696	0.066445
H53	H	0.802684	0.319335	0.829810
O54	O	0.316028	0.166006	-0.068392
H55	H	0.276868	0.160557	-0.123669
H56	H	0.767402	0.366506	0.434912
O57	O	0.517421	0.167184	-0.122362
H58	H	0.562698	0.164455	-0.171936
H59	H	0.787357	-0.377139	0.053222
O60	O	0.810532	-0.158937	0.054788
H61	H	0.774929	-0.172945	0.108981
H62	H	1.027792	-0.265203	0.069476
O63	O	1.030312	0.014425	0.282532
H64	H	1.072893	-0.042607	0.330483
O65	O	1.019790	0.028581	0.463503
H66	H	1.067612	-0.035433	0.421657
H67	H	0.511119	0.190423	0.171880
O68	O	1.065590	-0.032765	0.677431
H69	H	1.108174	-0.089799	0.725379
H70	H	1.038556	0.003482	0.845739
O71	O	0.795364	0.329104	0.659198
H72	H	0.791319	0.430510	0.675685
O73	O	0.127463	0.185561	0.233546
H74	H	0.064357	0.182724	0.216568
O75	O	0.145879	0.160449	-0.079887
H76	H	0.191151	0.157718	-0.129466
O77	O	0.760088	0.376290	0.264283
H78	H	0.712279	0.440334	0.306128
