data_functionalizedCrystal
_audit_creation_method	'MofGen! by Chris Wilmer'
_symmetry_space_group_name_H-M	'P1'
_symmetry_Int_Tables_number	1
_symmetry_cell_setting	triclinic
loop_
_symmetry_equiv_pos_as_xyz
  x,y,z
_cell_length_a	16.992694
_cell_length_b	13.339070
_cell_length_c	16.053802
_cell_angle_alpha	93.267614
_cell_angle_beta	87.249047
_cell_angle_gamma	103.148759
loop_
_atom_site_label
_atom_site_type_symbol
_atom_site_fract_x
_atom_site_fract_y
_atom_site_fract_z
O1	O	1.090314	0.214289	-0.069315
O2	O	1.590314	0.714289	0.430685
O3	O	0.861508	0.211892	-0.069340
O4	O	1.361508	0.711892	0.430660
O5	O	0.949651	0.063704	-0.069328
O6	O	1.449651	0.563704	0.430672
O7	O	1.002170	0.362477	-0.069327
O8	O	1.502170	0.862477	0.430673
O9	O	0.944792	0.071825	0.069530
O10	O	1.444792	0.571825	0.569530
O11	O	0.856649	0.220013	0.069518
O12	O	1.356649	0.720013	0.569518
O13	O	1.085454	0.222410	0.069543
O14	O	1.585454	0.722410	0.569543
Zn15	Zn	0.970280	0.222501	0.091577
Zn16	Zn	1.470280	0.722501	0.591577
Zn17	Zn	0.976682	0.211801	-0.091374
Zn18	Zn	1.476682	0.711801	0.408626
O19	O	0.997311	0.370598	0.069531
O20	O	1.497311	0.870598	0.569531
C21	C	0.829196	0.212871	0.000086
C22	C	1.329196	0.712871	0.500086
C23	C	0.740151	0.203676	0.000076
C24	C	1.240151	0.703676	0.500076
C25	C	0.709211	0.292389	0.000077
C26	C	1.209211	0.792389	0.500077
C27	C	0.625543	0.283745	0.000089
C28	C	1.125543	0.783745	0.500089
C29	C	0.572817	0.186385	0.000093
C30	C	1.072817	0.686385	0.500093
C31	C	0.603763	0.097665	0.000095
C32	C	1.103763	0.597665	0.500095
C33	C	0.687429	0.106311	0.000090
C34	C	1.187429	0.606311	0.500090
C35	C	0.321423	0.150552	0.000116
C36	C	0.821423	0.650552	0.500116
C37	C	0.237752	0.141912	0.000119
C38	C	0.737752	0.641912	0.500119
C39	C	0.259538	0.327993	0.000114
C40	C	0.759538	0.827993	0.500114
C41	C	0.343205	0.336630	0.000103
C42	C	0.843205	0.836630	0.500103
C43	C	0.374143	0.247910	0.000109
C44	C	0.874143	0.747910	0.500109
N45	N	0.487295	0.177547	0.000103
N46	N	0.987295	0.677547	0.500103
N47	N	0.459663	0.256750	0.000106
N48	N	0.959663	0.756750	0.500106
C49	C	0.938350	0.029358	0.000099
C50	C	1.438350	0.529358	0.500099
C51	C	0.911906	-0.085082	0.000093
C52	C	1.411906	0.414918	0.500093
C53	C	1.117519	-0.433251	0.000116
C54	C	1.617519	0.066749	0.500116
C55	C	1.142367	-0.325729	0.000126
C56	C	1.642367	0.174271	0.500126
C57	C	1.084754	-0.265562	0.000118
C58	C	1.584754	0.234438	0.500118
C59	C	1.002289	-0.312928	0.000099
C60	C	1.502289	0.187072	0.500099
C61	C	0.977439	-0.420460	0.000095
C62	C	1.477439	0.079540	0.500095
C63	C	0.944673	-0.252771	0.000097
C64	C	1.444673	0.247229	0.500097
C65	C	0.862209	-0.300136	0.000078
C66	C	1.362209	0.199864	0.500078
C67	C	0.837363	-0.407658	0.000074
C68	C	1.337363	0.092342	0.500074
C69	C	0.894976	-0.467825	0.000082
C70	C	1.394976	0.032175	0.500082
C71	C	0.969524	-0.145239	0.000101
C72	C	1.469524	0.354761	0.500101
C73	C	0.829443	-0.132447	0.000080
C74	C	1.329443	0.367553	0.500080
C75	C	0.804596	-0.239970	0.000070
C76	C	1.304596	0.260030	0.500070
C77	C	1.117767	0.221431	0.000115
C78	C	1.617767	0.721431	0.500115
C79	C	1.206811	0.230626	0.000120
C80	C	1.706811	0.730626	0.500120
C81	C	1.008612	0.404944	0.000102
C82	C	1.508612	0.904944	0.500102
C83	C	1.035056	0.519384	0.000103
C84	C	1.535056	1.019384	0.500103
N85	N	0.965916	0.229803	0.216437
N86	N	1.465916	0.729803	0.716437
N87	N	0.981051	0.204492	-0.216234
N88	N	1.481051	0.704492	0.283766
C89	C	1.003445	0.166774	0.260136
C90	C	1.503445	0.666774	0.760136
C91	C	1.000402	0.171892	0.347543
C92	C	1.500402	0.671892	0.847543
C93	C	0.959834	0.240045	0.391248
C94	C	1.459834	0.740045	0.891248
C95	C	0.922300	0.303076	0.347543
C96	C	1.422300	0.803076	0.847543
C97	C	0.925339	0.297952	0.260138
C98	C	1.425339	0.797952	0.760138
C99	C	0.946555	0.262399	0.652656
C100	C	1.446555	0.762399	1.152656
C101	C	0.943522	0.267520	0.740067
C102	C	1.443522	0.767520	1.240067
C103	C	1.021623	0.136334	0.740060
C104	C	1.521623	0.636334	1.240060
C105	C	1.024662	0.131221	0.652654
C106	C	1.524662	0.631221	1.152654
C107	C	0.987124	0.194248	0.608956
C108	C	1.487124	0.694248	1.108956
N109	N	0.956725	0.245281	0.480592
N110	N	1.456725	0.745281	0.980592
N111	N	0.990229	0.189006	0.519615
N112	N	1.490229	0.689006	1.019615
H113	H	0.386130	0.415909	0.000090
H114	H	0.886130	0.915909	0.500090
Cl115	Cl	0.220639	0.439519	0.000110
Cl116	Cl	0.720639	0.939519	0.500110
H117	H	1.030961	0.120569	0.383122
H118	H	1.530961	0.620569	0.883122
H119	H	1.104990	-0.178013	0.000126
H120	H	1.604990	0.321987	0.500126
Cl121	Cl	0.733692	-0.467201	0.000063
Cl122	Cl	1.233692	0.032799	0.500063
H123	H	0.874749	-0.555379	0.000071
H124	H	1.374749	-0.055379	0.500071
Cl125	Cl	1.054453	0.081096	0.205201
Cl126	Cl	1.554453	0.581096	0.705201
Cl127	Cl	0.878153	0.377189	0.205203
Cl128	Cl	1.378153	0.877189	0.705203
H129	H	0.194823	0.062627	0.000122
H130	H	0.694823	0.562627	0.500122
Cl131	Cl	0.899370	0.341635	0.597728
Cl132	Cl	1.399370	0.841635	1.097728
Cl133	Cl	0.537478	-0.024730	0.000106
Cl134	Cl	1.037478	0.475270	0.500106
H135	H	0.346602	0.078309	0.000121
H136	H	0.846602	0.578309	0.500121
H137	H	1.057695	0.075725	0.617071
H138	H	1.557695	0.575725	1.117071
H139	H	0.712618	0.034071	0.000088
H140	H	1.212618	0.534071	0.500088
H141	H	0.782530	-0.083459	0.000077
H142	H	1.282530	0.416541	0.500077
Cl143	Cl	1.073189	-0.085706	0.000124
Cl144	Cl	1.573189	0.414294	0.500124
H145	H	0.737452	-0.278550	0.000055
H146	H	1.237452	0.221450	0.500055
Cl147	Cl	0.586651	0.395276	0.000085
Cl148	Cl	1.086651	0.895276	0.500085
H149	H	1.052183	0.085019	0.775647
H150	H	1.552183	0.585019	1.275647
H151	H	0.910485	0.323023	0.775648
H152	H	1.410485	0.823023	1.275648
Cl153	Cl	0.871295	0.388751	0.402486
Cl154	Cl	1.371295	0.888751	0.902486
H155	H	1.209509	-0.287171	0.000142
H156	H	1.709509	0.212829	0.500142
H157	H	0.752136	0.371670	0.000073
H158	H	1.252136	0.871670	0.500073
H159	H	1.164418	-0.482247	0.000129
H160	H	1.664418	0.017753	0.500129
