data_functionalizedCrystal
_audit_creation_method	'MofGen! by Chris Wilmer'
_symmetry_space_group_name_H-M	'P1'
_symmetry_Int_Tables_number	1
_symmetry_cell_setting	triclinic
loop_
_symmetry_equiv_pos_as_xyz
  x,y,z
_cell_length_a	12.594516
_cell_length_b	13.897449
_cell_length_c	13.897441
_cell_angle_alpha	90.020733
_cell_angle_beta	89.973623
_cell_angle_gamma	89.982668
loop_
_atom_site_label
_atom_site_type_symbol
_atom_site_fract_x
_atom_site_fract_y
_atom_site_fract_z
Zn1	Zn	-0.423672	-1.474714	-0.545409
Zn2	Zn	-0.090338	-1.141380	-0.212076
Zn3	Zn	0.242995	-0.808047	0.121257
Zn4	Zn	-0.601683	-1.474612	-0.384123
Zn5	Zn	-0.268349	-1.141279	-0.050789
Zn6	Zn	0.064984	-0.807946	0.282544
Zn7	Zn	-0.423722	-1.313403	-0.384128
Zn8	Zn	-0.090389	-0.980069	-0.050795
Zn9	Zn	0.242944	-0.646736	0.282539
Zn10	Zn	-0.601613	-1.313389	-0.545375
Zn11	Zn	-0.268279	-0.980056	-0.212042
Zn12	Zn	0.065054	-0.646722	0.121291
O13	O	-0.512672	-1.394029	-0.464759
O14	O	-0.179339	-1.060696	-0.131426
O15	O	0.153994	-0.727363	0.201908
O16	O	-0.447293	-1.609682	-0.524027
O17	O	-0.113960	-1.276348	-0.190693
O18	O	0.219373	-0.943015	0.142640
O19	O	-0.578126	-1.453191	-0.249142
O20	O	-0.244793	-1.119857	0.084192
O21	O	0.088540	-0.786524	0.417525
O22	O	-0.274770	-1.334849	-0.405539
O23	O	0.058563	-1.001516	-0.072205
O24	O	0.391897	-0.668182	0.261128
O25	O	-0.578077	-1.609607	-0.405530
O26	O	-0.244744	-1.276274	-0.072197
O27	O	0.088590	-0.942941	0.261137
O28	O	-0.274733	-1.453364	-0.524032
O29	O	0.058601	-1.120030	-0.190698
O30	O	0.391934	-0.786697	0.142635
O31	O	-0.447380	-1.334751	-0.249145
O32	O	-0.114046	-1.001417	0.084188
O33	O	0.219287	-0.668084	0.417521
O34	O	-0.447312	-1.178419	-0.405506
O35	O	-0.113979	-0.845086	-0.072172
O36	O	0.219355	-0.511753	0.261161
O37	O	-0.577958	-1.334826	-0.680362
O38	O	-0.244625	-1.001492	-0.347028
O39	O	0.088709	-0.668159	-0.013695
O40	O	-0.578007	-1.178409	-0.523973
O41	O	-0.244674	-0.845076	-0.190640
O42	O	0.088660	-0.511743	0.142693
O43	O	-0.447226	-1.453350	-0.680387
O44	O	-0.113892	-1.120017	-0.347053
O45	O	0.219441	-0.786684	-0.013720
O46	O	-0.750619	-1.453177	-0.405497
O47	O	-0.417286	-1.119844	-0.072164
O48	O	-0.083952	-0.786511	0.261170
O49	O	-0.750568	-1.334728	-0.523968
O50	O	-0.417234	-1.001394	-0.190635
O51	O	-0.083901	-0.668061	0.142698
C52	C	-0.512658	-1.143415	-0.464737
C53	C	-0.179325	-0.810082	-0.131404
C54	C	0.154008	-0.476748	0.201930
C55	C	-0.512678	-1.036201	-0.464750
C56	C	-0.179344	-0.702868	-0.131417
C57	C	0.153989	-0.369534	0.201916
C58	C	-0.789213	-1.393966	-0.464749
C59	C	-0.455880	-1.060633	-0.131416
C60	C	-0.122547	-0.727300	0.201917
C61	C	-0.907519	-1.394027	-0.464778
C62	C	-0.574185	-1.060694	-0.131444
C63	C	-0.240852	-0.727361	0.201889
C64	C	-0.512578	-1.394098	-0.716352
C65	C	-0.179245	-1.060765	-0.383019
C66	C	0.154088	-0.727431	-0.049685
C67	C	-0.512538	-1.394127	-0.823566
C68	C	-0.179205	-1.060794	-0.490233
C69	C	0.154128	-0.727460	-0.156899
C70	C	-0.976783	-1.329596	-0.529169
C71	C	-0.643449	-0.996263	-0.195836
C72	C	-0.310116	-0.662930	0.137498
C73	C	-1.047649	-1.306093	-0.441152
C74	C	-0.714316	-0.972759	-0.107819
C75	C	-0.380982	-0.639426	0.225515
C76	C	-1.047452	-1.417619	-0.552810
C77	C	-0.714118	-1.084285	-0.219476
C78	C	-0.380785	-0.750952	0.113857
C79	C	-0.976827	-1.370477	-0.376714
C80	C	-0.643494	-1.037144	-0.043381
C81	C	-0.310160	-0.703811	0.289953
C82	C	-0.976623	-1.482044	-0.488431
C83	C	-0.643290	-1.148711	-0.155098
C84	C	-0.309957	-0.815378	0.178236
C85	C	-1.047457	-1.458574	-0.400353
C86	C	-0.714124	-1.125241	-0.067020
C87	C	-0.380791	-0.791908	0.266313
C88	C	-0.235052	-1.394119	-0.464789
C89	C	0.098282	-1.060786	-0.131456
C90	C	0.431615	-0.727452	0.201877
C91	C	-0.116746	-1.394157	-0.464802
C92	C	0.216587	-1.060824	-0.131469
C93	C	0.549921	-0.727491	0.201864
C94	C	-0.512687	-1.645622	-0.464781
C95	C	-0.179354	-1.312289	-0.131448
C96	C	0.153979	-0.978956	0.201885
C97	C	-0.512694	-1.752836	-0.464791
C98	C	-0.179360	-1.419503	-0.131458
C99	C	0.153973	-1.086170	0.201876
C100	C	-0.512682	-0.839906	-0.464776
C101	C	-0.179348	-0.506573	-0.131442
C102	C	0.153985	-0.173239	0.201891
C103	C	-0.512676	-0.949139	-0.464759
C104	C	-0.179343	-0.615805	-0.131426
C105	C	0.153990	-0.282472	0.201908
C106	C	-0.512466	-1.394153	-1.019861
C107	C	-0.179133	-1.060820	-0.686528
C108	C	0.154200	-0.727487	-0.353195
C109	C	-0.512509	-1.394136	-0.910629
C110	C	-0.179176	-1.060802	-0.577295
C111	C	0.154157	-0.727469	-0.243962
C112	C	-0.512689	-1.394017	-0.214145
C113	C	-0.179356	-1.060683	0.119189
C114	C	0.153977	-0.727350	0.452522
C115	C	-0.512430	-1.394174	-0.106931
C116	C	-0.179096	-1.060841	0.226402
C117	C	0.154237	-0.727508	0.559736
H118	H	-0.945749	-1.275011	-0.583543
H119	H	-0.612416	-0.941678	-0.250210
H120	H	-0.279083	-0.608345	0.083123
H121	H	-1.078475	-1.437520	-0.627247
H122	H	-0.745141	-1.104186	-0.293914
H123	H	-0.411808	-0.770853	0.039419
H124	H	-1.078870	-1.231719	-0.421166
H125	H	-0.745537	-0.898386	-0.087833
H126	H	-0.412203	-0.565052	0.245500
H127	H	-1.078294	-1.513117	-0.345847
H128	H	-0.744961	-1.179784	-0.012514
H129	H	-0.411628	-0.846451	0.320819
H130	H	-0.945932	-1.350490	-0.302256
H131	H	-0.612599	-1.017157	0.031077
H132	H	-0.279265	-0.683824	0.364411
C133	C	-0.970049	-1.606916	-0.607717
C134	C	-0.636716	-1.273582	-0.274384
C135	C	-0.303383	-0.940249	0.058950
C136	C	-0.934466	-1.582420	-0.515467
C137	C	-0.601132	-1.249087	-0.182134
C138	C	-0.267799	-0.915754	0.151200
H139	H	-0.944014	-1.668881	-0.624416
H140	H	-0.610681	-1.335548	-0.291083
H141	H	-0.277348	-1.002214	0.042251
H142	H	-1.045456	-1.607552	-0.608498
H143	H	-0.712123	-1.274219	-0.275165
H144	H	-0.378789	-0.940885	0.058169
H145	H	-0.944793	-1.560932	-0.652802
H146	H	-0.611460	-1.227598	-0.319469
H147	H	-0.278126	-0.894265	0.013865
H148	H	-0.959729	-1.628401	-0.470380
H149	H	-0.626395	-1.295067	-0.137047
H150	H	-0.293062	-0.961734	0.196286
H151	H	-0.859043	-1.581791	-0.514679
H152	H	-0.525710	-1.248458	-0.181345
H153	H	-0.192377	-0.915125	0.151988
