data_functionalizedCrystal
_audit_creation_method	'MofGen! by Chris Wilmer'
_symmetry_space_group_name_H-M	'P1'
_symmetry_Int_Tables_number	1
_symmetry_cell_setting	triclinic
loop_
_symmetry_equiv_pos_as_xyz
  x,y,z
_cell_length_a	14.519709
_cell_length_b	14.519709
_cell_length_c	16.776229
_cell_angle_alpha	90.010794
_cell_angle_beta	90.006806
_cell_angle_gamma	96.319854
loop_
_atom_site_label
_atom_site_type_symbol
_atom_site_fract_x
_atom_site_fract_y
_atom_site_fract_z
O1	O	1.223860	-0.120889	-0.066200
O2	O	1.723860	0.379111	0.433800
O3	O	0.955383	-0.135125	-0.066226
O4	O	1.455383	0.364875	0.433774
O5	O	1.096740	0.006231	-0.066190
O6	O	1.596740	0.506231	0.433810
O7	O	1.082503	-0.262246	-0.066236
O8	O	1.582503	0.237754	0.433764
O9	O	1.096742	0.006231	0.066387
O10	O	1.596742	0.506231	0.566387
O11	O	0.955386	-0.135126	0.066351
O12	O	1.455386	0.364874	0.566351
O13	O	1.223863	-0.120889	0.066377
O14	O	1.723863	0.379111	0.566377
Zn15	Zn	1.089625	-0.128008	0.087413
Zn16	Zn	1.589625	0.371992	0.587413
Zn17	Zn	1.089621	-0.128007	-0.087262
Zn18	Zn	1.589621	0.371993	0.412738
O19	O	1.082506	-0.262246	0.066341
O20	O	1.582506	0.237754	0.566341
C21	C	1.096078	0.040591	0.000102
C22	C	1.596078	0.540591	0.500102
C23	C	1.094090	0.142972	0.000114
C24	C	1.594090	0.642972	0.500114
C25	C	0.921025	-0.134462	0.000059
C26	C	1.421025	0.365538	0.500059
C27	C	0.818643	-0.132474	0.000050
C28	C	1.318643	0.367526	0.500050
C29	C	1.086770	0.517868	0.000135
C30	C	1.586770	1.017868	0.500135
C31	C	1.088803	0.413560	0.000129
C32	C	1.588803	0.913560	0.500129
C33	C	1.090430	0.330423	0.000125
C34	C	1.590430	0.830423	0.500125
C35	C	1.092463	0.226109	0.000118
C36	C	1.592463	0.726109	0.500118
C37	C	0.443748	-0.125154	0.000088
C38	C	0.943748	0.374846	0.500088
C39	C	0.548056	-0.127187	0.000077
C40	C	1.048056	0.372813	0.500077
C41	C	0.631192	-0.128814	0.000068
C42	C	1.131192	0.371186	0.500068
C43	C	0.735507	-0.130847	0.000059
C44	C	1.235507	0.369153	0.500059
C45	C	1.258221	-0.121553	0.000090
C46	C	1.758221	0.378447	0.500090
C47	C	1.360602	-0.123541	0.000093
C48	C	1.860602	0.376459	0.500093
C49	C	1.083168	0.703394	0.000075
C50	C	1.583168	1.203394	0.500075
C51	C	1.085156	0.601013	0.000143
C52	C	1.585156	1.101013	0.500143
N53	N	1.089620	-0.128000	-0.206473
N54	N	1.589620	0.372000	0.293527
C55	C	1.145532	-0.184186	-0.751655
C56	C	1.645532	0.315814	-0.251655
C57	C	1.145534	-0.184182	-0.668203
C58	C	1.645534	0.315818	-0.168203
C59	C	1.089632	-0.128004	-0.626473
C60	C	1.589632	0.371996	-0.126473
C61	C	1.033731	-0.071819	-0.668199
C62	C	1.533731	0.428181	-0.168199
C63	C	1.033735	-0.071819	-0.751650
C64	C	1.533735	0.428181	-0.251650
C65	C	1.033717	-0.071819	-0.331652
C66	C	1.533717	0.428181	0.168348
C67	C	1.033716	-0.071826	-0.248196
C68	C	1.533716	0.428174	0.251804
C69	C	1.145516	-0.184182	-0.248205
C70	C	1.645516	0.315818	0.251795
C71	C	1.145519	-0.184182	-0.331656
C72	C	1.645519	0.315818	0.168344
C73	C	1.089623	-0.127994	-0.373375
C74	C	1.589623	0.372006	0.126625
C75	C	1.089623	-0.127997	-0.463863
C76	C	1.589623	0.372003	0.036137
C77	C	1.089627	-0.128005	-0.535986
C78	C	1.589627	0.371995	-0.035986
N79	N	1.089633	-0.128007	0.206624
N80	N	1.589633	0.371993	0.706624
H81	H	1.191048	-0.229938	-0.785626
H82	H	1.691048	0.270062	-0.285626
H83	H	0.988220	-0.026074	-0.634216
H84	H	1.488220	0.473926	-0.134216
C85	C	1.207015	-0.245974	-0.377554
C86	C	1.707015	0.254026	0.122446
H87	H	1.240314	-0.279425	-0.340754
H88	H	1.740314	0.220575	0.159246
H89	H	1.169226	-0.288270	-0.410123
H90	H	1.669226	0.211730	0.089877
H91	H	1.249461	-0.208337	-0.410093
H92	H	1.749461	0.291663	0.089907
H93	H	1.191054	-0.229926	-0.634237
H94	H	1.691054	0.270074	-0.134237
C95	C	1.207011	-0.245980	-0.202312
C96	C	1.707011	0.254020	0.297688
H97	H	1.199013	-0.237930	-0.146635
H98	H	1.699013	0.262070	0.353365
H99	H	1.189860	-0.309023	-0.216000
H100	H	1.689860	0.190977	0.284000
H101	H	1.270103	-0.229097	-0.215980
H102	H	1.770103	0.270903	0.284020
C103	C	0.972243	-0.010026	-0.797543
C104	C	1.472243	0.489974	-0.297543
H105	H	0.938942	0.023425	-0.760740
H106	H	1.438942	0.523425	-0.260740
H107	H	1.010038	0.032270	-0.830086
H108	H	1.510038	0.532270	-0.330086
H109	H	0.929797	-0.047658	-0.830108
H110	H	1.429797	0.452342	-0.330108
H111	H	0.988203	-0.026067	-0.365610
H112	H	1.488203	0.473933	0.134390
H113	H	0.988191	-0.026076	-0.214222
H114	H	1.488191	0.473924	0.285778
