data_functionalizedCrystal
_audit_creation_method	'MofGen! by Chris Wilmer'
_symmetry_space_group_name_H-M	'P1'
_symmetry_Int_Tables_number	1
_symmetry_cell_setting	triclinic
loop_
_symmetry_equiv_pos_as_xyz
  x,y,z
_cell_length_a	8.597366
_cell_length_b	15.625429
_cell_length_c	7.088929
_cell_angle_alpha	65.834719
_cell_angle_beta	103.954530
_cell_angle_gamma	87.148812
loop_
_atom_site_label
_atom_site_type_symbol
_atom_site_fract_x
_atom_site_fract_y
_atom_site_fract_z
O1	O	2.092428	0.129025	0.096256
O2	O	1.626684	0.144365	0.008898
O3	O	1.881730	-0.000087	0.151057
O4	O	1.837382	0.273477	-0.045903
O5	O	1.915817	-0.019435	0.488061
O6	O	1.660772	0.125016	0.345902
O7	O	2.126515	0.109677	0.433260
Cu8	Cu	1.896756	0.115580	0.420352
Cu9	Cu	1.856444	0.138461	0.021806
O10	O	1.871469	0.254129	0.291101
C11	C	1.584304	0.134121	0.168005
C12	C	1.407242	0.132415	0.140020
C13	C	1.900147	-0.044764	0.344047
C14	C	1.904219	-0.149062	0.417012
C15	C	1.824669	-0.439355	-0.261452
C16	C	1.828494	-0.537362	-0.192829
C17	C	1.865654	-0.558440	0.174549
C18	C	1.861840	-0.460434	0.105959
C19	C	1.841345	-0.400899	-0.112045
C20	C	1.878516	-0.421977	0.255366
C21	C	1.874693	-0.323979	0.186778
C22	C	1.854194	-0.264438	-0.031217
C23	C	1.837522	-0.302901	-0.180633
C24	C	1.898999	-0.481513	0.473366
C25	C	1.915675	-0.443057	0.622773
C26	C	1.911864	-0.345058	0.554188
C27	C	1.891365	-0.285516	0.336193
C28	C	1.928537	-0.306595	0.703604
C29	C	1.924714	-0.208597	0.635016
C30	C	1.887543	-0.187518	0.267605
C31	C	2.168895	0.119920	0.274148
C32	C	2.345956	0.121628	0.302120
C33	C	1.853052	0.298806	0.098106
C34	C	1.848979	0.403104	0.025128
N35	N	1.925121	0.099486	0.700670
N36	N	1.828092	0.154548	-0.258505
H37	H	1.428955	0.113698	0.462333
F38	F	2.056583	0.024907	0.880754
F39	F	1.298774	0.142767	-0.069372
H40	H	1.882336	-0.606926	0.352047
H41	H	1.727532	0.211609	0.603725
H42	H	1.870868	-0.139042	0.090088
F43	F	1.850130	-0.160138	-0.104215
H44	H	1.820847	-0.254424	-0.358150
F45	F	1.802877	-0.375989	-0.493473
F46	F	1.810736	-0.578284	-0.351869
F47	F	1.937474	-0.506427	0.854778
F48	F	1.950321	-0.369966	0.935605
F49	F	1.903063	-0.585812	0.546358
H50	H	1.938259	-0.177283	0.756671
