data_functionalizedCrystal
_audit_creation_method	'MofGen! by Chris Wilmer'
_symmetry_space_group_name_H-M	'P1'
_symmetry_Int_Tables_number	1
_symmetry_cell_setting	triclinic
loop_
_symmetry_equiv_pos_as_xyz
  x,y,z
_cell_length_a	14.908571
_cell_length_b	18.050589
_cell_length_c	14.908294
_cell_angle_alpha	86.730603
_cell_angle_beta	89.824575
_cell_angle_gamma	86.724558
loop_
_atom_site_label
_atom_site_type_symbol
_atom_site_fract_x
_atom_site_fract_y
_atom_site_fract_z
Zn1	Zn	1.345227	-0.387559	0.587600
Zn2	Zn	1.353788	-0.505025	0.437246
Zn3	Zn	1.203545	-0.373294	0.428597
Zn4	Zn	1.194815	-0.504142	0.578897
O5	O	1.274344	-0.442505	0.508085
O6	O	1.472187	-0.409480	0.574917
O7	O	1.341095	-0.481950	0.310273
O8	O	1.222410	-0.271266	0.449712
O9	O	1.478477	-0.495781	0.464452
O10	O	1.326503	-0.281746	0.566531
O11	O	1.230712	-0.385168	0.303919
O12	O	1.076562	-0.384313	0.441273
O13	O	1.207531	-0.494278	0.705877
O14	O	1.070148	-0.480446	0.551698
O15	O	1.318038	-0.408624	0.712271
O16	O	1.332630	-0.608828	0.456013
O17	O	1.215833	-0.608180	0.560084
C18	C	1.040730	-0.430736	0.494603
C19	C	0.940788	-0.425721	0.488857
C20	C	0.746365	-0.516540	0.592890
C21	C	0.652460	-0.511829	0.587495
C22	C	0.659072	-0.411586	0.472675
C23	C	0.752977	-0.416297	0.478070
C24	C	0.796620	-0.468776	0.538179
C25	C	0.890527	-0.473489	0.543570
C26	C	0.897137	-0.373243	0.428755
C27	C	0.803232	-0.368533	0.423360
C28	C	1.274236	-0.635451	0.508064
C29	C	1.274271	-0.718000	0.508090
C30	C	1.210817	-0.917127	0.564666
C31	C	1.193636	-0.961796	0.481356
C32	C	1.274358	-0.869135	0.508106
C33	C	1.291583	-0.971551	0.591428
C34	C	1.274441	-1.015125	0.508130
C35	C	1.257137	-0.912712	0.424751
C36	C	1.355118	-0.922467	0.534880
C37	C	1.337972	-0.967113	0.451516
C38	C	1.274308	-0.785034	0.508094
C39	C	1.274491	-1.099224	0.508133
C40	C	1.508870	-0.454320	0.521620
C41	C	1.608810	-0.459355	0.527388
C42	C	1.260855	-0.452944	0.742611
C43	C	1.255108	-0.457392	0.842552
C44	C	1.274475	-0.248808	0.508127
C45	C	1.274531	-0.166265	0.508145
C46	C	1.287832	-0.432056	0.274474
C47	C	1.293754	-0.427407	0.174544
C48	C	1.189473	-0.508248	0.980087
C49	C	1.194872	-0.504074	0.886183
C50	C	1.309946	-0.414880	0.892831
C51	C	1.304547	-0.419055	0.986735
C52	C	1.244309	-0.465741	1.030359
C53	C	1.238915	-0.469919	1.124265
C54	C	1.353984	-0.380722	1.130911
C55	C	1.359383	-0.376547	1.037007
H56	H	0.623521	-0.368856	0.423743
C57	C	1.101419	-0.985361	0.450770
N58	N	1.031959	-1.003108	0.427739
C59	C	1.414310	-0.333963	1.186219
N60	N	1.459749	-0.298747	1.227877
H61	H	1.242522	-0.887111	0.354272
H62	H	1.391746	-0.988912	0.403637
C63	C	1.123217	-0.559607	1.028076
N64	N	1.073310	-0.598290	1.064220
H65	H	0.926059	-0.516222	0.592513
C66	C	1.172651	-0.521272	1.172250
N67	N	1.122736	-0.559951	1.208390
C68	C	0.794374	-0.574269	0.659007
N69	N	0.830534	-0.617751	0.708808
H70	H	1.150213	-0.538683	0.845254
H71	H	1.423358	-0.905010	0.557544
H72	H	0.611546	-0.550722	0.632048
H73	H	1.306119	-0.997237	0.661883
C74	C	1.425640	-0.325195	0.989010
N75	N	1.475548	-0.286517	0.952859
C76	C	0.755214	-0.310809	0.357243
N77	N	0.719047	-0.267332	0.307441
C78	C	1.138129	-0.887473	0.629176
N79	N	1.083380	-0.865136	0.677759
C80	C	0.952425	-0.320702	0.368566
N81	N	0.994069	-0.281131	0.323231
H82	H	1.358983	-0.376866	0.857296
