data_functionalizedCrystal
_audit_creation_method	'MofGen! by Chris Wilmer'
_symmetry_space_group_name_H-M	'P1'
_symmetry_Int_Tables_number	1
_symmetry_cell_setting	triclinic
loop_
_symmetry_equiv_pos_as_xyz
  x,y,z
_cell_length_a	19.288864
_cell_length_b	15.995350
_cell_length_c	18.366186
_cell_angle_alpha	89.995992
_cell_angle_beta	89.977106
_cell_angle_gamma	83.314311
loop_
_atom_site_label
_atom_site_type_symbol
_atom_site_fract_x
_atom_site_fract_y
_atom_site_fract_z
O1	O	0.921624	0.104451	-0.060780
O2	O	1.421624	0.604451	0.439220
O3	O	0.719400	0.118542	-0.060729
O4	O	1.219400	0.618542	0.439271
O5	O	0.826040	-0.010412	-0.060755
O6	O	1.326040	0.489588	0.439245
O7	O	0.814984	0.233405	-0.060754
O8	O	1.314984	0.733405	0.439246
O9	O	0.826022	-0.010418	0.060344
O10	O	1.326022	0.489582	0.560344
O11	O	0.719382	0.118535	0.060370
O12	O	1.219382	0.618535	0.560370
O13	O	0.921606	0.104445	0.060320
O14	O	1.421606	0.604445	0.560320
Zn15	Zn	0.820491	0.111489	0.079572
Zn16	Zn	1.320491	0.611489	0.579572
Zn17	Zn	0.820515	0.111498	-0.079982
Zn18	Zn	1.320515	0.611498	0.420018
O19	O	0.814966	0.233399	0.060346
O20	O	1.314966	0.733399	0.560346
C21	C	0.693513	0.118085	-0.000173
C22	C	1.193513	0.618085	0.499827
C23	C	0.616406	0.116724	-0.000154
C24	C	1.116406	0.616724	0.499846
C25	C	0.571906	0.192388	-0.000165
C26	C	1.071906	0.692388	0.499835
C27	C	0.499456	0.191110	-0.000173
C28	C	0.999456	0.691110	0.499827
C29	C	0.471508	0.114163	-0.000185
C30	C	0.971508	0.614163	0.499815
C31	C	0.516018	0.038489	-0.000170
C32	C	1.016018	0.538489	0.499830
C33	C	0.588467	0.039769	-0.000155
C34	C	1.088467	0.539769	0.499845
C35	C	0.363096	0.053676	-0.042636
C36	C	0.863096	0.553676	0.457364
C37	C	0.290648	0.052398	-0.042656
C38	C	0.790648	0.552398	0.457344
C39	C	0.248053	0.110209	-0.000229
C40	C	0.748053	0.610209	0.499771
C41	C	0.277912	0.169312	0.042208
C42	C	0.777912	0.669312	0.542208
C43	C	0.350361	0.170593	0.042224
C44	C	0.850361	0.670593	0.542224
C45	C	0.392951	0.112765	-0.000201
C46	C	0.892951	0.612765	0.499799
C47	C	0.124993	0.184492	-0.000248
C48	C	0.624993	0.684492	0.499752
C49	C	0.052542	0.183210	-0.000251
C50	C	0.552542	0.683210	0.499749
C51	C	0.069106	0.030587	-0.000255
C52	C	0.569106	0.530587	0.499745
C53	C	0.141556	0.031871	-0.000244
C54	C	0.641556	0.531871	0.499756
C55	C	0.169495	0.108826	-0.000244
C56	C	0.669495	0.608826	0.499756
C57	C	0.825574	-0.041608	-0.000207
C58	C	1.325574	0.458392	0.499793
C59	C	0.824203	-0.134553	-0.000211
C60	C	1.324203	0.365447	0.499789
C61	C	0.819282	-0.472282	-0.000207
C62	C	1.319282	0.027718	0.499793
C63	C	0.743335	-0.424562	-0.000460
C64	C	1.243335	0.075438	0.499540
C65	C	0.744706	-0.327877	-0.000187
C66	C	1.244706	0.172123	0.499813
C67	C	0.821723	-0.304731	-0.000209
C68	C	1.321723	0.195269	0.499791
C69	C	0.859173	-0.345953	0.068934
C70	C	1.359173	0.154047	0.568934
C71	C	0.857265	-0.442582	0.068992
C72	C	1.357265	0.057418	0.568992
C73	C	0.858854	-0.442939	-0.068721
C74	C	1.358854	0.057061	0.431279
C75	C	0.858836	-0.345993	-0.069635
C76	C	1.358836	0.154007	0.430365
C77	C	0.823107	-0.210039	-0.000208
C78	C	1.323107	0.289961	0.499792
C79	C	0.817901	-0.566975	-0.000203
C80	C	1.317901	-0.066975	0.499797
C81	C	0.947492	0.104902	-0.000238
C82	C	1.447492	0.604902	0.499762
C83	C	1.024600	0.106263	-0.000262
C84	C	1.524600	0.606263	0.499738
C85	C	0.815432	0.264595	-0.000204
C86	C	1.315432	0.764595	0.499796
C87	C	0.816802	0.357540	-0.000206
C88	C	1.316802	0.857540	0.499794
N89	N	0.820480	0.111483	0.188463
N90	N	1.320480	0.611483	0.688463
N91	N	0.820531	0.111497	-0.188873
N92	N	1.320531	0.611497	0.311127
C93	C	0.867715	0.054410	0.226552
C94	C	1.367715	0.554410	0.726552
C95	C	0.867720	0.054407	0.302780
C96	C	1.367720	0.554407	0.802780
C97	C	0.820495	0.111490	0.340916
C98	C	1.320495	0.611490	0.840916
C99	C	0.773250	0.168567	0.302818
C100	C	1.273250	0.668567	0.802818
C101	C	0.773243	0.168564	0.226591
C102	C	1.273243	0.668564	0.726591
C103	C	0.811395	0.187781	0.461678
C104	C	1.311395	0.687781	0.961678
C105	C	0.811407	0.187785	0.537903
C106	C	1.311407	0.687785	1.037903
C107	C	0.820515	0.111500	0.576023
C108	C	1.320515	0.611500	1.076023
C109	C	0.829624	0.035208	0.537909
C110	C	1.329624	0.535208	1.037909
C111	C	0.829617	0.035204	0.461683
C112	C	1.329617	0.535204	0.961683
C113	C	0.820498	0.111500	0.423571
C114	C	1.320498	0.611500	0.923571
C115	C	0.867758	0.054419	0.696767
C116	C	1.367758	0.554419	1.196767
C117	C	0.867757	0.054414	0.772996
C118	C	1.367757	0.554414	1.272996
C119	C	0.773292	0.168582	0.773033
C120	C	1.273292	0.668582	1.273033
C121	C	0.773289	0.168579	0.696805
C122	C	1.273289	0.668579	1.196805
C123	C	0.820525	0.111499	0.658677
C124	C	1.320525	0.611499	1.158677
H125	H	0.624700	-0.021848	-0.000146
H126	H	1.124700	0.478152	0.499854
H127	H	0.833147	-0.317476	0.120403
H128	H	1.333147	0.182524	0.620403
H129	H	0.915001	-0.330843	-0.073826
H130	H	1.415001	0.169157	0.426174
H131	H	0.463217	0.252727	-0.000180
H132	H	0.963217	0.752727	0.499820
H133	H	0.829941	-0.460783	0.120694
H134	H	1.329941	0.039217	0.620694
Cl135	Cl	0.416637	-0.019008	-0.095978
Cl136	Cl	0.916637	0.480992	0.404022
Cl137	Cl	0.816911	-0.303272	-0.148620
Cl138	Cl	1.316911	0.196728	0.351380
H139	H	0.837040	-0.026911	0.568945
H140	H	1.337040	0.473089	1.068945
H141	H	0.915755	-0.332041	0.071489
H142	H	1.415755	0.167959	0.571489
H143	H	0.715055	-0.299903	0.049476
H144	H	1.215055	0.200097	0.549476
Cl145	Cl	0.927108	-0.017348	0.350671
Cl146	Cl	1.427108	0.482652	0.850671
Cl147	Cl	0.945306	-0.492302	-0.069466
Cl148	Cl	1.445306	0.007698	0.430534
Cl149	Cl	0.927137	-0.017343	0.648833
Cl150	Cl	1.427137	0.482657	1.148833
H151	H	0.734777	0.215040	0.195579
H152	H	1.234777	0.715040	0.695579
Cl153	Cl	0.927140	-0.017345	0.820883
Cl154	Cl	1.427140	0.482655	1.320883
H155	H	0.594649	0.255051	-0.000166
H156	H	1.094649	0.755051	0.499834
H157	H	0.147742	0.247153	-0.000237
H158	H	0.647742	0.747153	0.499763
Cl159	Cl	0.927094	-0.017350	0.178620
Cl160	Cl	1.427094	0.482650	0.678620
Cl161	Cl	0.699254	-0.283816	-0.076709
Cl162	Cl	1.199254	0.216184	0.423291
H163	H	0.046352	-0.032065	-0.000310
H164	H	0.546352	0.467935	0.499690
Cl165	Cl	0.197502	-0.063255	-0.000235
Cl166	Cl	0.697502	0.436745	0.499765
H167	H	0.734828	0.215057	0.665791
H168	H	1.234828	0.715057	1.165791
Cl169	Cl	0.841060	-0.060702	0.413771
Cl170	Cl	1.341060	0.439298	0.913771
Cl171	Cl	0.713918	0.240338	0.820970
Cl172	Cl	1.213918	0.740338	1.320970
H173	H	0.374670	0.218714	0.076780
H174	H	0.874670	0.718714	0.576780
H175	H	0.803994	0.249907	0.568929
H176	H	1.303994	0.749907	1.068929
H177	H	0.243232	0.216387	0.076757
H178	H	0.743232	0.716387	0.576757
H179	H	0.712987	-0.442976	-0.050043
H180	H	1.212987	0.057024	0.449957
H181	H	0.803966	0.249905	0.430647
H182	H	1.303966	0.749905	0.930647
H183	H	0.734798	0.215044	0.333872
H184	H	1.234798	0.715044	0.833872
Cl185	Cl	0.696535	-0.454998	0.075464
Cl186	Cl	1.196535	0.045002	0.575464
H187	H	0.016310	0.244828	-0.000256
H188	H	0.516310	0.744828	0.499744
H189	H	0.834031	-0.463382	-0.121128
H190	H	1.334031	0.036618	0.378872
Cl191	Cl	0.253117	-0.021893	-0.096013
Cl192	Cl	0.753117	0.478107	0.403987
H193	H	0.493259	-0.024162	-0.000189
H194	H	0.993259	0.475838	0.499811
Cl195	Cl	0.943349	-0.492699	0.073822
Cl196	Cl	1.443349	0.007301	0.573822
