data_functionalizedCrystal
_audit_creation_method	'MofGen! by Chris Wilmer'
_symmetry_space_group_name_H-M	'P1'
_symmetry_Int_Tables_number	1
_symmetry_cell_setting	triclinic
loop_
_symmetry_equiv_pos_as_xyz
  x,y,z
_cell_length_a	10.654550
_cell_length_b	15.944493
_cell_length_c	9.130313
_cell_angle_alpha	90.001356
_cell_angle_beta	89.999724
_cell_angle_gamma	83.979987
loop_
_atom_site_label
_atom_site_type_symbol
_atom_site_fract_x
_atom_site_fract_y
_atom_site_fract_z
O1	O	1.666276	0.117980	-0.121669
O2	O	1.300649	0.129220	-0.121694
O3	O	1.493485	0.001380	-0.121693
O4	O	1.473440	0.245820	-0.121670
O5	O	1.493472	0.001376	0.121906
O6	O	1.300636	0.129216	0.121905
O7	O	1.666263	0.117976	0.121930
Cu8	Cu	1.483448	0.123596	0.144160
Cu9	Cu	1.483464	0.123600	-0.143924
O10	O	1.473427	0.245816	0.121929
C11	C	1.253855	0.128393	0.000102
C12	C	1.114445	0.125923	0.000091
C13	C	1.033962	0.201194	0.000103
C14	C	0.902972	0.198869	0.000128
C15	C	0.932960	0.045996	0.000125
C16	C	1.063948	0.048322	0.000110
C17	C	1.492659	-0.029922	0.000100
C18	C	1.490203	-0.123185	0.000081
C19	C	1.603711	-0.358288	0.000117
C20	C	1.542507	-0.409208	-0.119993
C21	C	1.485652	-0.293932	0.000099
C22	C	1.542466	-0.409188	0.120176
C23	C	1.481264	-0.458867	0.000122
C24	C	1.424480	-0.343624	-0.120111
C25	C	1.424456	-0.343601	0.120167
C26	C	1.363166	-0.394489	0.000027
C27	C	1.488183	-0.198918	0.000084
C28	C	1.478724	-0.553879	0.000127
C29	C	1.713057	0.118803	0.000131
C30	C	1.852467	0.121272	0.000132
C31	C	1.474253	0.277117	0.000133
C32	C	1.476709	0.370380	0.000142
N33	N	1.483446	0.123592	0.346783
N34	N	1.483475	0.123597	-0.346547
C35	C	1.568863	0.067008	0.423435
C36	C	1.568875	0.067008	0.576772
C37	C	1.398050	0.180183	0.576790
C38	C	1.398033	0.180178	0.423456
H39	H	1.129481	-0.012976	0.000105
H40	H	1.328510	0.226256	0.639234
H41	H	1.705403	-0.342071	0.000003
N42	N	1.088417	0.284892	0.000100
H43	H	1.142103	0.289265	0.090395
H44	H	1.142022	0.289219	-0.090269
N45	N	0.816164	0.280052	0.000222
H46	H	0.868034	0.329562	0.000234
H47	H	0.761119	0.282447	-0.090048
N48	N	1.608545	-0.447171	-0.254493
H49	H	1.699355	-0.434280	-0.254402
H50	H	1.605554	-0.510271	-0.253893
H51	H	1.638427	0.020932	0.639178
N52	N	0.878495	-0.037699	0.000152
H53	H	0.783302	-0.027753	0.000163
H54	H	0.907931	-0.070675	-0.090153
N55	N	1.358476	-0.305839	-0.254762
H56	H	1.360600	-0.242661	-0.253961
H57	H	1.402747	-0.330366	-0.345297
N58	N	1.228382	-0.415800	-0.000093
H59	H	1.183966	-0.391729	-0.090869
H60	H	1.227591	-0.479082	0.000813
H61	H	1.638410	0.020931	0.361011
H62	H	1.374636	-0.314930	0.221709
N63	N	1.305891	0.241204	0.340768
H64	H	1.251789	0.277055	0.412605
H65	H	1.353940	0.278637	0.277131
H66	H	1.592343	-0.437832	0.221713
