data_functionalizedCrystal
_audit_creation_method	'MofGen! by Chris Wilmer'
_symmetry_space_group_name_H-M	'P1'
_symmetry_Int_Tables_number	1
_symmetry_cell_setting	triclinic
loop_
_symmetry_equiv_pos_as_xyz
  x,y,z
_cell_length_a	15.298068
_cell_length_b	12.594516
_cell_length_c	15.298259
_cell_angle_alpha	80.293071
_cell_angle_beta	91.587309
_cell_angle_gamma	99.676660
loop_
_atom_site_label
_atom_site_type_symbol
_atom_site_fract_x
_atom_site_fract_y
_atom_site_fract_z
Zn1	Zn	1.253485	-0.019535	-0.727438
Zn2	Zn	1.753485	0.480465	-0.227438
Zn3	Zn	1.278742	-0.222304	-0.580970
Zn4	Zn	1.778742	0.277696	-0.080970
Zn5	Zn	1.132345	-0.079378	-0.555592
Zn6	Zn	1.632345	0.420622	-0.055592
Zn7	Zn	1.106990	-0.232540	-0.702006
Zn8	Zn	1.606990	0.267460	-0.202006
O9	O	1.192891	-0.138439	-0.641501
O10	O	1.692891	0.361561	-0.141501
O11	O	1.379412	-0.017104	-0.729272
O12	O	1.879412	0.482896	-0.229272
O13	O	1.280504	-0.224105	-0.455031
O14	O	1.780504	0.275895	0.044969
O15	O	1.148456	0.077520	-0.578410
O16	O	1.648456	0.577520	-0.078410
O17	O	1.397968	-0.166078	-0.621663
O18	O	1.897968	0.333922	-0.121663
O19	O	1.237457	0.121486	-0.704664
O20	O	1.737457	0.621486	-0.204664
O21	O	1.172946	-0.119098	-0.436386
O22	O	1.672946	0.380902	0.063614
O23	O	1.006405	-0.129023	-0.553750
O24	O	1.506405	0.370977	-0.053750
O25	O	1.105241	-0.183524	-0.827952
O26	O	1.605241	0.316476	-0.327952
O27	O	0.987777	-0.241551	-0.661320
O28	O	1.487777	0.258449	-0.161320
O29	O	1.212871	-0.027030	-0.846636
O30	O	1.712871	0.472970	-0.346636
O31	O	1.255918	-0.372621	-0.597003
O32	O	1.755918	0.127379	-0.097003
O33	O	1.129732	-0.380141	-0.685928
O34	O	1.629732	0.119859	-0.185928
C35	C	0.965308	-0.192892	-0.602022
C36	C	1.465308	0.307108	-0.102022
C37	C	0.867944	-0.216210	-0.585154
C38	C	1.367944	0.283790	-0.085154
C39	C	0.554786	0.027947	-0.762066
C40	C	1.054786	0.527947	-0.262066
C41	C	0.646264	0.049853	-0.777920
C42	C	1.146264	0.549853	-0.277920
C43	C	0.701688	-0.016660	-0.729729
C44	C	1.201688	0.483340	-0.229729
C45	C	0.665626	-0.105084	-0.665683
C46	C	1.165626	0.394916	-0.165683
C47	C	0.574138	-0.126997	-0.649832
C48	C	1.074138	0.373003	-0.149832
C49	C	0.721040	-0.171605	-0.617496
C50	C	1.221040	0.328395	-0.117496
C51	C	0.684978	-0.260028	-0.553449
C52	C	1.184978	0.239972	-0.053449
C53	C	0.593499	-0.281937	-0.537601
C54	C	1.093499	0.218063	-0.037601
C55	C	0.538075	-0.215423	-0.585791
C56	C	1.038075	0.284577	-0.085791
C57	C	0.812528	-0.149692	-0.633346
C58	C	1.312528	0.350308	-0.133346
C59	C	0.831880	-0.304636	-0.521113
C60	C	1.331880	0.195364	-0.021113
C61	C	0.740402	-0.326542	-0.505259
C62	C	1.240402	0.173458	-0.005259
C63	C	1.192835	-0.414995	-0.641483
C64	C	1.692835	0.085005	-0.141483
C65	C	1.192886	-0.533283	-0.641518
C66	C	1.692886	-0.033283	-0.141518
C67	C	1.124255	-0.606673	-0.689842
C68	C	1.624255	-0.106673	-0.189842
C69	C	1.116744	-0.696147	-0.606220
C70	C	1.616744	-0.196147	-0.106220
C71	C	1.200473	-0.654587	-0.725168
C72	C	1.700473	-0.154587	-0.225168
C73	C	1.185341	-0.621215	-0.557847
C74	C	1.685341	-0.121215	-0.057847
C75	C	1.269097	-0.579632	-0.676854
C76	C	1.769097	-0.079632	-0.176854
C77	C	1.261627	-0.669075	-0.593182
C78	C	1.761627	-0.169075	-0.093182
C79	C	1.421362	-0.083774	-0.681135
C80	C	1.921362	0.416226	-0.181135
C81	C	1.518722	-0.060479	-0.698025
C82	C	2.018722	0.439521	-0.198025
C83	C	1.153410	-0.099743	-0.869964
C84	C	1.653410	0.400257	-0.369964
C85	C	1.136586	-0.083253	-0.967321
C86	C	1.636586	0.416747	-0.467321
C87	C	1.192967	0.139206	-0.641543
C88	C	1.692967	0.639206	-0.141543
C89	C	1.193000	0.257522	-0.641561
C90	C	1.693000	0.757522	-0.141561
C91	C	1.313163	-0.255468	-1.280578
C92	C	1.813163	0.244532	-0.780578
C93	C	1.328966	-0.270969	-1.189105
C94	C	1.828966	0.229031	-0.689105
C95	C	1.280873	-0.224041	-1.133655
C96	C	1.780873	0.275959	-0.633655
C97	C	1.216974	-0.161610	-1.169686
C98	C	1.716974	0.338390	-0.669686
C99	C	1.201165	-0.146115	-1.261167
C100	C	1.701165	0.353885	-0.761167
C101	C	1.168874	-0.114688	-1.114244
C102	C	1.668874	0.385312	-0.614244
C103	C	1.104975	-0.052257	-1.150275
C104	C	1.604975	0.447743	-0.650275
C105	C	1.089169	-0.036764	-1.241747
C106	C	1.589169	0.463236	-0.741747
C107	C	1.137262	-0.083692	-1.297198
C108	C	1.637262	0.416308	-0.797198
C109	C	1.184683	-0.130183	-1.022763
C110	C	1.684683	0.369817	-0.522763
C111	C	1.072684	-0.020830	-1.003352
C112	C	1.572684	0.479170	-0.503352
C113	C	1.056882	-0.005329	-1.094825
C114	C	1.556882	0.494671	-0.594825
C115	C	1.232267	-0.176896	-0.413936
C116	C	1.732267	0.323104	0.086064
C117	C	1.249261	-0.193045	-0.316609
C118	C	1.749261	0.306955	0.183391
H119	H	0.841881	-0.077695	-0.685493
H120	H	1.341881	0.422305	-0.185493
F121	F	1.032570	-0.762059	-0.567173
F122	F	1.532570	-0.262059	-0.067173
F123	F	0.799047	0.006657	-0.746603
F124	F	1.299047	0.506657	-0.246603
H125	H	1.380984	-0.321812	-1.159774
H126	H	1.880984	0.178188	-0.659774
F127	F	1.252687	-0.196625	-0.984426
F128	F	1.752687	0.303375	-0.484426
F129	F	1.021133	0.029639	-1.280087
F130	F	1.521133	0.529639	-0.780087
H131	H	0.675618	0.121845	-0.830069
H132	H	1.175618	0.621845	-0.330069
F133	F	0.495794	0.098715	-0.813354
F134	F	0.995794	0.598715	-0.313354
H135	H	0.463584	-0.233260	-0.572892
H136	H	0.963584	0.266740	-0.072892
H137	H	0.564140	-0.353944	-0.485456
H138	H	1.064140	0.146056	0.014544
F139	F	0.988877	0.061112	-1.133183
F140	F	1.488877	0.561112	-0.633183
F141	F	1.021487	0.029104	-0.944340
F142	F	1.521487	0.529104	-0.444340
F143	F	0.702011	-0.420646	-0.437098
F144	F	1.202011	0.079354	0.062902
H145	H	0.877007	-0.358801	-0.481876
H146	H	1.377007	0.141199	0.018124
F147	F	1.364332	-0.305416	-1.339595
F148	F	1.864332	0.194584	-0.839595
H149	H	1.066140	-0.579163	-0.730621
H150	H	1.566140	-0.079163	-0.230621
H151	H	1.178892	-0.606084	-0.487090
H152	H	1.678892	-0.106084	0.012910
F153	F	1.337567	-0.704814	-0.539720
F154	F	1.837567	-0.204814	-0.039720
F155	F	1.353243	-0.513688	-0.715927
F156	F	1.853243	-0.013688	-0.215927
H157	H	1.206847	-0.669869	-0.795892
H158	H	1.706847	-0.169869	-0.295892
F159	F	1.120449	-0.067194	-1.394556
F160	F	1.620449	0.432806	-0.894556
F161	F	1.297695	-0.240537	-1.036302
F162	F	1.797695	0.259463	-0.536302
