data_functionalizedCrystal
_audit_creation_method	'MofGen! by Chris Wilmer'
_symmetry_space_group_name_H-M	'P1'
_symmetry_Int_Tables_number	1
_symmetry_cell_setting	triclinic
loop_
_symmetry_equiv_pos_as_xyz
  x,y,z
_cell_length_a	11.792254
_cell_length_b	15.538191
_cell_length_c	14.185569
_cell_angle_alpha	82.123687
_cell_angle_beta	103.246910
_cell_angle_gamma	65.735346
loop_
_atom_site_label
_atom_site_type_symbol
_atom_site_fract_x
_atom_site_fract_y
_atom_site_fract_z
O1	O	1.418372	0.150077	-0.083416
O2	O	1.082468	0.163343	-0.083418
O3	O	1.315808	0.019916	-0.083412
O4	O	1.185031	0.293505	-0.083423
O5	O	1.384737	-0.022449	0.083425
O6	O	1.151397	0.120978	0.083418
O7	O	1.487300	0.107712	0.083420
Cu8	Cu	1.325642	0.110477	0.098653
Cu9	Cu	1.244126	0.160578	-0.098651
O10	O	1.253960	0.251139	0.083414
C11	C	1.074992	0.141325	-0.000000
C12	C	0.950028	0.138824	-0.000001
C13	C	0.848542	0.136793	-0.000005
C14	C	0.721221	0.134252	-0.000006
C15	C	1.363955	-0.036292	0.000006
C16	C	1.404709	-0.140655	0.000003
C17	C	1.494775	0.129731	0.000000
C18	C	1.619737	0.132233	-0.000006
C19	C	1.205813	0.307348	-0.000006
C20	C	1.165056	0.411713	-0.000010
N21	N	1.382985	0.075237	0.237425
C22	C	1.569951	0.701583	0.000003
C23	C	1.531627	0.799652	0.000002
C24	C	1.316062	0.820986	0.000000
C25	C	1.354367	0.722918	-0.000004
C26	C	1.481313	0.663224	-0.000001
C27	C	1.265729	0.684559	-0.000008
C28	C	1.304033	0.586498	-0.000006
C29	C	1.430975	0.526797	-0.000001
C30	C	1.519617	0.565163	0.000000
C31	C	1.138786	0.744254	-0.000003
C32	C	1.050148	0.705894	-0.000007
C33	C	1.088448	0.607834	-0.000013
C34	C	1.215390	0.548132	-0.000007
C35	C	0.999806	0.569468	-0.000014
C36	C	1.038110	0.471407	-0.000013
C37	C	1.253694	0.450072	-0.000006
N38	N	1.186795	0.195810	-0.237423
C39	C	1.018339	0.299303	0.605065
C40	C	1.061781	0.272616	0.710088
C41	C	1.268415	0.145658	0.710055
C42	C	1.224988	0.172332	0.605030
C43	C	1.099950	0.249155	0.552543
C44	C	1.306599	0.122184	0.552508
C45	C	1.263178	0.148859	0.447492
C46	C	1.138146	0.225681	0.394998
C47	C	1.056529	0.275830	0.447528
C48	C	1.431641	0.045365	0.604996
C49	C	1.513252	-0.004782	0.552474
C50	C	1.469827	0.021888	0.447457
C51	C	1.344795	0.098710	0.394963
C52	C	1.551445	-0.028261	0.394928
C53	C	1.508024	-0.001586	0.289912
C54	C	1.301374	0.125385	0.289947
H55	H	1.357060	0.401468	-0.000019
H56	H	0.916515	0.361854	0.562329
H57	H	1.466992	0.023653	0.690507
H58	H	0.896450	0.618083	-0.000006
O59	O	0.982301	0.321400	0.760953
C60	C	0.862644	0.394938	0.692103
H61	H	0.846300	0.375408	0.617241
H62	H	0.778864	0.401051	0.722461
H63	H	0.866010	0.467817	0.680934
H64	H	1.199550	0.187936	0.247211
O65	O	0.935139	0.350573	0.396576
C66	C	0.925790	0.437214	0.422248
H67	H	1.028178	0.430861	0.451105
H68	H	0.864779	0.501854	0.353185
H69	H	0.876851	0.448987	0.483212
H70	H	1.615062	-0.067331	0.595221
O71	O	1.672803	-0.102987	0.445968
C72	C	1.661180	-0.176737	0.506752
H73	H	1.559462	-0.170796	0.475123
H74	H	1.738652	-0.251497	0.507943
H75	H	1.676025	-0.167557	0.586339
O76	O	1.096171	0.251593	0.292986
C77	C	1.181239	0.280247	0.257873
H78	H	1.280907	0.245987	0.318373
H79	H	1.193324	0.254621	0.187608
H80	H	1.138276	0.363300	0.239246
H81	H	0.965936	0.440172	-0.000004
O82	O	1.192692	0.879062	-0.000183
C83	C	1.128408	0.958380	-0.086576
H84	H	1.176174	0.938111	-0.146964
H85	H	1.020655	0.976296	-0.115588
H86	H	1.136410	1.024869	-0.067038
H87	H	1.574481	-0.042421	0.247148
H88	H	1.462158	0.446951	-0.000004
O89	O	0.926868	0.764031	-0.000056
C90	C	0.912075	0.858801	-0.000027
H91	H	0.986435	0.871047	-0.031606
H92	H	0.808668	0.915184	-0.048469
H93	H	0.929159	0.866806	0.080013
O94	O	1.101774	0.839463	0.000127
C95	C	1.183780	0.844437	0.086541
H96	H	1.280701	0.774388	0.115349
H97	H	1.203102	0.909738	0.067102
H98	H	1.133849	0.853210	0.147048
H99	H	1.622983	0.516559	-0.000013
O100	O	1.693245	0.643717	-0.000136
C101	C	1.713745	0.683114	-0.086558
H102	H	1.643391	0.764663	-0.115365
H103	H	1.819075	0.671767	-0.067131
H104	H	1.695347	0.644771	-0.147062
H105	H	1.603817	0.830878	0.000007
H106	H	1.370225	0.083110	0.752801
