data_functionalizedCrystal
_audit_creation_method	'MofGen! by Chris Wilmer'
_symmetry_space_group_name_H-M	'P1'
_symmetry_Int_Tables_number	1
_symmetry_cell_setting	triclinic
loop_
_symmetry_equiv_pos_as_xyz
  x,y,z
_cell_length_a	17.038272
_cell_length_b	17.019282
_cell_length_c	9.565339
_cell_angle_alpha	93.877676
_cell_angle_beta	89.999972
_cell_angle_gamma	87.241387
loop_
_atom_site_label
_atom_site_type_symbol
_atom_site_fract_x
_atom_site_fract_y
_atom_site_fract_z
O1	O	0.099546	1.053361	0.010601
O2	O	0.112258	0.824549	-0.016959
O3	O	-0.007912	0.937595	-0.003332
O4	O	0.219716	0.940315	-0.003026
O5	O	-0.007905	0.937586	0.229187
O6	O	0.112265	0.824540	0.215560
O7	O	0.099554	1.053352	0.243120
Zn8	Zn	0.105911	0.938945	0.266257
Zn9	Zn	0.105901	0.938957	-0.040097
O10	O	0.219724	0.940306	0.229493
C11	C	0.111781	0.795123	0.095757
C12	C	0.110341	0.707456	0.085197
C13	C	0.109667	0.666269	0.206986
C14	C	0.108301	0.583898	0.197069
C15	C	0.107615	0.542714	0.065361
C16	C	0.108287	0.583906	-0.056437
C17	C	0.109647	0.666277	-0.046518
C18	C	0.103503	0.294008	0.029072
C19	C	0.102145	0.211632	0.019162
C20	C	0.102157	0.211629	0.272669
C21	C	0.103522	0.294001	0.282576
C22	C	0.104190	0.335186	0.160778
C23	C	0.106221	0.458516	0.055221
C24	C	0.105578	0.419383	0.170920
C25	C	-0.037034	0.935117	0.112630
C26	C	-0.123821	0.927737	0.111740
C27	C	-0.173996	0.995497	0.119903
C28	C	-0.255540	0.988557	0.119054
C29	C	-0.286908	0.913857	0.110052
C30	C	-0.236726	0.846092	0.101884
C31	C	-0.155183	0.853032	0.102723
C32	C	-0.532643	0.889339	0.107080
C33	C	-0.614192	0.882404	0.106245
C34	C	-0.633002	1.024870	0.123413
C35	C	-0.551456	1.031804	0.124260
C36	C	-0.501282	0.964039	0.116084
C37	C	-0.370259	0.906762	0.109188
C38	C	-0.417932	0.971134	0.116938
C39	C	0.248846	0.942784	0.113528
C40	C	0.335632	0.950165	0.114408
C41	C	0.100030	1.082778	0.130401
C42	C	0.101470	1.170445	0.140951
N43	N	0.105917	0.938942	0.475336
N44	N	0.105888	0.938965	-0.249175
C45	C	0.161473	0.886644	0.560235
C46	C	0.176560	0.958940	0.662120
C47	C	0.090836	0.866677	0.651010
C48	C	0.121039	1.011276	0.575174
C49	C	0.035284	0.918965	0.564050
C50	C	0.050341	0.991310	0.665899
H51	H	0.110198	0.699809	-0.145691
H52	H	-0.024416	0.902032	0.521017
H53	H	-0.114330	0.797855	0.096076
C54	C	0.073616	0.784103	0.696396
N55	N	0.060651	0.721906	0.730574
H56	H	0.107738	0.550368	0.296242
C57	C	0.225001	0.826962	0.497830
N58	N	0.272851	0.782014	0.450822
H59	H	-0.392389	1.031955	0.124237
H60	H	-0.491800	0.834160	0.100423
H61	H	0.104077	0.327528	0.389826
C62	C	0.110420	0.711564	0.351876
N63	N	0.110984	0.745679	0.461011
H64	H	-0.673862	1.080041	0.130066
H65	H	-0.262271	0.785270	0.094545
C66	C	0.107531	0.538601	-0.201317
N67	N	0.106964	0.504477	-0.310443
H68	H	-0.395807	0.845941	0.101862
H69	H	0.101612	0.178087	0.371829
C70	C	-0.139501	1.077673	0.129807
N71	N	-0.113521	1.139571	0.137260
H72	H	0.236280	0.975852	0.705119
C73	C	0.106353	0.464686	0.315794
N74	N	0.106949	0.498815	0.424914
H75	H	0.101589	0.178102	-0.088095
H76	H	-0.296391	1.043735	0.125704
H77	H	0.133854	1.072417	0.541749
C78	C	0.105472	0.413205	-0.089655
N79	N	0.104905	0.379074	-0.198775
C80	C	-0.648693	0.800225	0.096331
N81	N	-0.674680	0.738331	0.088864
H82	H	0.003344	1.035599	0.711837
H83	H	0.104044	0.327532	-0.070105
H84	H	-0.525924	1.092632	0.131590
