data_functionalizedCrystal
_audit_creation_method	'MofGen! by Chris Wilmer'
_symmetry_space_group_name_H-M	'P1'
_symmetry_Int_Tables_number	1
_symmetry_cell_setting	triclinic
loop_
_symmetry_equiv_pos_as_xyz
  x,y,z
_cell_length_a	9.065218
_cell_length_b	16.992695
_cell_length_c	7.540329
_cell_angle_alpha	89.996072
_cell_angle_beta	89.996962
_cell_angle_gamma	87.842054
loop_
_atom_site_label
_atom_site_type_symbol
_atom_site_fract_x
_atom_site_fract_y
_atom_site_fract_z
O1	O	1.971074	0.115065	-0.147490
O2	O	2.471074	0.615065	0.352510
O3	O	1.542664	0.124504	-0.147492
O4	O	2.042664	0.624504	0.352508
O5	O	1.755152	0.005630	-0.147477
O6	O	2.255152	0.505630	0.352523
O7	O	1.758586	0.233939	-0.147505
O8	O	2.258586	0.733939	0.352495
O9	O	1.755138	0.005628	0.147488
O10	O	2.255138	0.505628	0.647488
O11	O	1.542651	0.124502	0.147473
O12	O	2.042651	0.624502	0.647473
O13	O	1.971060	0.115064	0.147476
O14	O	2.471060	0.615064	0.647476
Cu15	Cu	1.756854	0.119783	0.174407
Cu16	Cu	2.256854	0.619783	0.674407
Cu17	Cu	1.756870	0.119785	-0.174424
Cu18	Cu	2.256870	0.619785	0.325576
O19	O	1.758573	0.233938	0.147460
O20	O	2.258573	0.733938	0.647460
C21	C	1.487587	0.123596	-0.000010
C22	C	1.987587	0.623596	0.499990
C23	C	1.323492	0.120884	-0.000011
C24	C	1.823492	0.620884	0.499989
C25	C	1.750726	-0.023615	0.000005
C26	C	2.250726	0.476385	0.500005
C27	C	1.737542	-0.110753	0.000005
C28	C	2.237542	0.389247	0.500005
C29	C	1.864748	-0.160090	0.000008
C30	C	2.364748	0.339910	0.500008
C31	C	1.852352	-0.241964	-0.000009
C32	C	2.352352	0.258036	0.499991
C33	C	1.712748	-0.274500	-0.000016
C34	C	2.212748	0.225500	0.499984
C35	C	1.585533	-0.225157	-0.000024
C36	C	2.085533	0.274843	0.499976
C37	C	1.597931	-0.143284	-0.000020
C38	C	2.097931	0.356716	0.499980
C39	C	1.661364	-0.518463	-0.000041
C40	C	2.161364	-0.018463	0.499959
C41	C	1.648976	-0.600343	-0.000040
C42	C	2.148976	-0.100343	0.499960
C43	C	1.915797	-0.617144	-0.000028
C44	C	2.415797	-0.117144	0.499972
C45	C	1.928182	-0.535269	-0.000013
C46	C	2.428182	-0.035269	0.499987
C47	C	1.800967	-0.485933	-0.000031
C48	C	2.300967	0.014067	0.499969
N49	N	1.700074	-0.358189	-0.000028
N50	N	2.200074	0.141811	0.499972
N51	N	1.813642	-0.402245	-0.000032
N52	N	2.313642	0.097755	0.499968
C53	C	2.026138	0.115972	-0.000011
C54	C	2.526138	0.615972	0.499989
C55	C	2.190232	0.118684	-0.000022
C56	C	2.690232	0.618684	0.499978
C57	C	1.762998	0.263183	-0.000026
C58	C	2.262998	0.763183	0.499974
C59	C	1.776182	0.350320	-0.000037
C60	C	2.276182	0.850320	0.499963
N61	N	1.756853	0.119781	0.419755
N62	N	2.256853	0.619781	0.919755
N63	N	1.756882	0.119780	-0.419772
N64	N	2.256882	0.619780	0.080228
H65	H	1.955937	-0.282132	-0.000003
H66	H	2.455937	0.217868	0.499997
H67	H	2.041862	-0.508785	-0.000008
H68	H	2.541862	-0.008785	0.499992
C69	C	1.332948	-0.134895	-0.000018
C70	C	1.832948	0.365105	0.499982
C71	C	1.458102	-0.089049	-0.000018
C72	C	1.958102	0.410951	0.499982
H73	H	1.246623	-0.101411	-0.000013
H74	H	1.746623	0.398589	0.499987
H75	H	1.333669	-0.167173	-0.102872
H76	H	1.833669	0.332827	0.397128
H77	H	1.333663	-0.167182	0.102851
H78	H	1.833663	0.332818	0.602851
H79	H	1.457392	-0.056766	-0.102895
H80	H	1.957392	0.443234	0.397105
H81	H	1.457379	-0.056757	0.102846
H82	H	1.957379	0.443243	0.602846
C83	C	2.015272	-0.750110	-0.000048
C84	C	2.515272	-0.250110	0.499952
C85	C	2.055626	-0.671376	-0.000035
C86	C	2.555626	-0.171376	0.499965
H87	H	2.101603	-0.783589	-0.000068
H88	H	2.601603	-0.283589	0.499932
H89	H	1.958438	-0.760078	0.102809
H90	H	2.458438	-0.260078	0.602809
H91	H	1.958426	-0.760062	-0.102914
H92	H	2.458426	-0.260062	0.397086
H93	H	2.112462	-0.661423	0.102839
H94	H	2.612462	-0.161423	0.602839
H95	H	2.112484	-0.661405	-0.102902
H96	H	2.612484	-0.161405	0.397098
H97	H	1.978428	-0.133606	0.000024
H98	H	2.478428	0.366394	0.500024
H99	H	1.471864	-0.251654	-0.000041
H100	H	1.971864	0.248346	0.499959
C101	C	1.437751	-0.478949	-0.151657
C102	C	1.937751	0.021051	0.348343
C103	C	1.521524	-0.464244	-0.000035
C104	C	2.021524	0.035756	0.499965
H105	H	1.351410	-0.445477	-0.151641
H106	H	1.851410	0.054523	0.348359
H107	H	1.494593	-0.468970	-0.254502
H108	H	1.994593	0.031030	0.245498
H109	H	1.410415	-0.532370	-0.151639
H110	H	1.910415	-0.032370	0.348361
H111	H	1.548868	-0.410824	-0.000061
H112	H	2.048868	0.089176	0.499939
H113	H	1.464671	-0.474217	0.102836
H114	H	1.964671	0.025783	0.602836
C115	C	1.480274	-0.682678	-0.151677
C116	C	1.980274	-0.182678	0.348323
C117	C	1.495517	-0.636114	-0.000055
C118	C	1.995517	-0.136114	0.499945
H119	H	1.385544	-0.704767	-0.151673
H120	H	1.885544	-0.204767	0.348327
H121	H	1.490649	-0.651085	-0.254521
H122	H	1.990649	-0.151085	0.245479
H123	H	1.554279	-0.723772	-0.151647
H124	H	2.054279	-0.223772	0.348353
H125	H	1.421519	-0.595016	-0.000091
H126	H	1.921519	-0.095016	0.499909
H127	H	1.485127	-0.667708	0.102816
H128	H	1.985127	-0.167708	0.602816
