data_functionalizedCrystal
_audit_creation_method	'MofGen! by Chris Wilmer'
_symmetry_space_group_name_H-M	'P1'
_symmetry_Int_Tables_number	1
_symmetry_cell_setting	triclinic
loop_
_symmetry_equiv_pos_as_xyz
  x,y,z
_cell_length_a	17.639617
_cell_length_b	19.121063
_cell_length_c	17.639407
_cell_angle_alpha	76.920548
_cell_angle_beta	92.180663
_cell_angle_gamma	104.083010
loop_
_atom_site_label
_atom_site_type_symbol
_atom_site_fract_x
_atom_site_fract_y
_atom_site_fract_z
Zn1	Zn	1.062298	-0.209957	0.672068
Zn2	Zn	1.082840	-0.301493	0.548447
Zn3	Zn	0.961548	-0.200531	0.519061
Zn4	Zn	0.927633	-0.347802	0.651362
O5	O	1.008580	-0.264946	0.597734
O6	O	1.172141	-0.206664	0.676633
O7	O	1.089540	-0.264774	0.437444
O8	O	0.980509	-0.101839	0.535725
O9	O	1.187233	-0.273915	0.585809
O10	O	1.054530	-0.108765	0.648139
O11	O	1.000427	-0.190598	0.415854
O12	O	0.849930	-0.235502	0.515647
O13	O	0.922707	-0.352842	0.761213
O14	O	0.825014	-0.343702	0.612848
O15	O	1.021644	-0.251568	0.776426
O16	O	1.056655	-0.407578	0.565731
O17	O	0.942625	-0.441601	0.641343
C18	C	0.809697	-0.293605	0.558813
C19	C	0.724610	-0.305887	0.542181
C20	C	0.405356	-0.171669	0.724276
C21	C	0.325405	-0.183224	0.708633
C22	C	0.341181	-0.253070	0.613911
C23	C	0.421134	-0.241524	0.629549
C24	C	0.453215	-0.200822	0.684732
C25	C	0.468993	-0.270677	0.590005
C26	C	0.548939	-0.259129	0.605639
C27	C	0.581027	-0.218427	0.660817
C28	C	0.533161	-0.189274	0.700366
C29	C	0.436911	-0.311375	0.534819
C30	C	0.484770	-0.340528	0.495275
C31	C	0.564717	-0.328984	0.510912
C32	C	0.596804	-0.288282	0.566091
C33	C	0.612582	-0.358137	0.471364
C34	C	0.692529	-0.346589	0.486998
C35	C	0.676751	-0.276733	0.581725
C36	C	0.998206	-0.450504	0.604500
C37	C	0.993833	-0.529882	0.607433
C38	C	1.051177	-0.549440	0.569493
C39	C	1.047067	-0.624026	0.572257
C40	C	0.985610	-0.679052	0.612958
C41	C	0.928264	-0.659490	0.650903
C42	C	0.932377	-0.584906	0.648143
C43	C	0.970222	-0.905135	0.623263
C44	C	0.966112	-0.979723	0.626019
C45	C	1.084917	-0.944254	0.547373
C46	C	1.089023	-0.869669	0.544613
C47	C	1.031678	-0.850114	0.582562
C48	C	0.981407	-0.755291	0.615783
C49	C	1.035885	-0.773877	0.579741
C50	C	1.208239	-0.236175	0.636809
C51	C	1.293321	-0.223915	0.653460
C52	C	0.966101	-0.308422	0.797367
C53	C	0.947999	-0.326950	0.882439
C54	C	1.019011	-0.078664	0.590964
C55	C	1.023456	0.000719	0.588078
C56	C	1.146018	-0.124261	1.201830
C57	C	1.128999	-0.141688	1.281766
C58	C	1.025984	-0.247136	1.265917
C59	C	1.042997	-0.229720	1.185978
C60	C	1.103014	-0.168282	1.153941
C61	C	0.999993	-0.273741	1.138088
C62	C	1.017002	-0.256324	1.058156
C63	C	1.077015	-0.194887	1.026113
C64	C	1.120023	-0.150865	1.074008
C65	C	0.939973	-0.335176	1.170126
C66	C	0.896969	-0.379196	1.122237
C67	C	0.913981	-0.361783	1.042304
C68	C	0.973994	-0.300346	1.010260
C69	C	0.870973	-0.405805	0.994408
C70	C	0.887982	-0.388388	0.914475
C71	C	0.991003	-0.282929	0.930328
C72	C	1.050888	-0.221651	1.398878
C73	C	1.068993	-0.203111	1.313807
H74	H	0.702872	-0.243593	0.626663
H75	H	1.139066	-0.824867	0.511471
Br76	Br	1.162741	-0.970798	0.495879
H77	H	0.916073	-1.024527	0.659177
Br78	Br	0.892397	-0.878606	0.674766
H79	H	0.315050	-0.286207	0.568979
H80	H	0.458639	-0.373665	0.450342
Br81	Br	0.689529	-0.202742	0.682029
H82	H	0.586451	-0.391270	0.426429
Br83	Br	0.576705	-0.134044	0.775266
H84	H	1.168898	-0.100838	1.047923
Br85	Br	1.119292	-0.699199	0.524512
H86	H	0.431477	-0.138529	0.769214
Br87	Br	1.134581	-0.474767	0.514245
H88	H	1.039878	-0.232903	0.904243
Br89	Br	0.757484	-0.386160	0.433337
H90	H	0.286441	-0.159476	0.740835
Br91	Br	0.328413	-0.327040	0.513593
H92	H	1.090863	-0.180708	0.961026
Br93	Br	0.829617	-0.448127	0.849477
Br94	Br	0.854554	-0.558363	0.699642
H95	H	1.093762	-0.639944	0.541361
H96	H	0.878227	-0.704299	0.684047
Br97	Br	1.227481	-0.040888	1.158346
Br98	Br	1.187338	-0.081913	1.346751
H99	H	0.931367	-0.800101	0.648920
H100	H	0.977117	-0.297158	1.292012
Br101	Br	0.916877	-0.358803	1.278605
H102	H	0.848102	-0.429218	1.148332
Br103	Br	0.789516	-0.489174	1.037894
