data_functionalizedCrystal
_audit_creation_method	'MofGen! by Chris Wilmer'
_symmetry_space_group_name_H-M	'P1'
_symmetry_Int_Tables_number	1
_symmetry_cell_setting	triclinic
loop_
_symmetry_equiv_pos_as_xyz
  x,y,z
_cell_length_a	18.050591
_cell_length_b	25.639239
_cell_length_c	25.639234
_cell_angle_alpha	90.021106
_cell_angle_beta	90.017008
_cell_angle_gamma	90.034692
loop_
_atom_site_label
_atom_site_type_symbol
_atom_site_fract_x
_atom_site_fract_y
_atom_site_fract_z
Zn1	Zn	1.135210	-0.208258	0.295704
Zn2	Zn	1.635210	0.291742	0.795704
Zn3	Zn	1.135106	-0.295680	0.208268
Zn4	Zn	1.635106	0.204320	0.708268
Zn5	Zn	1.011037	-0.208255	0.208272
Zn6	Zn	1.511037	0.291745	0.708272
Zn7	Zn	1.010954	-0.295658	0.295662
Zn8	Zn	1.510954	0.204342	0.795662
O9	O	1.073077	-0.251963	0.251977
O10	O	1.573077	0.248037	0.751977
O11	O	1.239121	-0.219865	0.284121
O12	O	1.739121	0.280135	0.784121
O13	O	1.118640	-0.284091	0.135103
O14	O	1.618640	0.215909	0.635103
O15	O	1.027587	-0.135090	0.219889
O16	O	1.527587	0.364910	0.719889
O17	O	1.239045	-0.284094	0.219882
O18	O	1.739045	0.215906	0.719882
O19	O	1.118816	-0.135092	0.284125
O20	O	1.618816	0.364908	0.784125
O21	O	1.027487	-0.219860	0.135106
O22	O	1.527487	0.280140	0.635106
O23	O	0.907102	-0.219838	0.219849
O24	O	1.407102	0.280162	0.719849
O25	O	1.027446	-0.284056	0.368833
O26	O	1.527446	0.215944	0.868833
O27	O	0.907041	-0.284053	0.284054
O28	O	1.407041	0.215947	0.784054
O29	O	1.118736	-0.219844	0.368863
O30	O	1.618736	0.280156	0.868863
O31	O	1.118559	-0.368843	0.219842
O32	O	1.618559	0.131157	0.719842
O33	O	1.027345	-0.368826	0.284050
O34	O	1.527345	0.131174	0.784050
C35	C	0.880125	-0.251943	0.251948
C36	C	1.380125	0.248057	0.751948
C37	C	0.797579	-0.251948	0.251948
C38	C	1.297579	0.248052	0.751948
C39	C	1.072952	-0.387805	0.251953
C40	C	1.572952	0.112195	0.751953
C41	C	1.072967	-0.445919	0.251960
C42	C	1.572967	0.054081	0.751960
C43	C	0.598140	-0.216987	0.217113
C44	C	1.098140	0.283013	0.717113
C45	C	0.548709	-0.264674	0.204245
C46	C	1.048709	0.235326	0.704245
C47	C	0.646449	-0.251963	0.251971
C48	C	1.146449	0.248037	0.751971
C49	C	0.548798	-0.204293	0.264838
C50	C	1.048798	0.295707	0.764838
C51	C	0.500464	-0.251975	0.251993
C52	C	1.000464	0.248025	0.751993
C53	C	0.598105	-0.299675	0.239078
C54	C	1.098105	0.200325	0.739078
C55	C	0.598198	-0.239263	0.299694
C56	C	1.098198	0.260737	0.799694
C57	C	0.548789	-0.286982	0.286843
C58	C	1.048789	0.213018	0.786843
C59	C	0.730547	-0.251956	0.251957
C60	C	1.230547	0.248044	0.751957
C61	C	0.416367	-0.251987	0.252007
C62	C	0.916367	0.248013	0.752007
C63	C	1.120696	-0.806278	0.218600
C64	C	1.620696	-0.306278	0.718600
C65	C	1.120725	-0.860883	0.218607
C66	C	1.620725	-0.360883	0.718607
O67	O	1.161176	-0.889116	0.190218
O68	O	1.661176	-0.389116	0.690218
N69	N	1.073207	-0.888202	0.252011
N70	N	1.573207	-0.388202	0.752011
C71	C	1.025664	-0.860914	0.285414
C72	C	1.525664	-0.360914	0.785414
O73	O	0.985250	-0.889165	0.313828
O74	O	1.485250	-0.389165	0.813828
C75	C	1.025639	-0.806310	0.285409
C76	C	1.525639	-0.306310	0.785409
C77	C	1.073154	-0.778994	0.251999
C78	C	1.573154	-0.278994	0.751999
C79	C	1.168208	-0.778962	0.185194
C80	C	1.668208	-0.278962	0.685194
C81	C	1.168178	-0.724361	0.185186
C82	C	1.668178	-0.224361	0.685186
C83	C	1.120636	-0.697077	0.218585
C84	C	1.620636	-0.197077	0.718585
C85	C	1.073124	-0.724394	0.251992
C86	C	1.573124	-0.224394	0.751992
C87	C	0.978100	-0.779023	0.318814
C88	C	1.478100	-0.279023	0.818814
C89	C	0.978080	-0.724416	0.318807
C90	C	1.478080	-0.224416	0.818807
C91	C	1.025595	-0.697100	0.285397
C92	C	1.525595	-0.197100	0.785397
C93	C	1.025553	-0.642509	0.285383
C94	C	1.525553	-0.142509	0.785383
N95	N	1.073070	-0.615190	0.251980
N96	N	1.573070	-0.115190	0.751980
C97	C	1.120612	-0.642474	0.218581
C98	C	1.620612	-0.142474	0.718581
C99	C	1.025720	-0.975584	0.285422
C100	C	1.525720	-0.475584	0.785422
C101	C	1.025740	-1.030187	0.285425
C102	C	1.525740	-0.530187	0.785425
C103	C	1.120802	-1.030152	0.218619
C104	C	1.620802	-0.530152	0.718619
C105	C	1.120778	-0.975548	0.218614
C106	C	1.620778	-0.475548	0.718614
C107	C	1.073237	-0.948265	0.252018
C108	C	1.573237	-0.448265	0.752018
C109	C	1.120545	-0.527809	0.218567
C110	C	1.620545	-0.027809	0.718567
C111	C	1.120508	-0.473204	0.218561
C112	C	1.620508	0.026796	0.718561
C113	C	1.025449	-0.473243	0.285369
C114	C	1.525449	0.026757	0.785369
C115	C	1.025482	-0.527844	0.285373
C116	C	1.525482	-0.027844	0.785373
C117	C	1.073036	-0.555125	0.251970
C118	C	1.573036	-0.055125	0.751970
O119	O	0.985124	-0.614241	0.313760
O120	O	1.485124	-0.114241	0.813760
O121	O	1.161026	-0.614216	0.190177
O122	O	1.661026	-0.114216	0.690177
C123	C	1.266783	-0.251983	0.252006
C124	C	1.766783	0.248017	0.752006
C125	C	1.349328	-0.251991	0.252018
C126	C	1.849328	0.248009	0.752018
C127	C	1.073093	-0.251948	0.388350
C128	C	1.573093	0.248052	0.888350
C129	C	1.073100	-0.251942	0.446464
C130	C	1.573100	0.248058	0.946464
C131	C	1.073223	-0.115590	0.252012
C132	C	1.573223	0.384410	0.752012
C133	C	1.073285	-0.057476	0.252027
C134	C	1.573285	0.442524	0.752027
C135	C	1.073104	-0.251940	0.116134
C136	C	1.573104	0.248060	0.616134
C137	C	1.073241	-0.251799	0.058020
C138	C	1.573241	0.248201	0.558020
C139	C	1.025614	-0.285311	0.697636
C140	C	1.525614	0.214689	1.197636
C141	C	1.025601	-0.285323	0.643031
C142	C	1.525601	0.214677	1.143031
O143	O	0.985157	-0.313747	0.614776
O144	O	1.485157	0.186253	1.114776
N145	N	1.073128	-0.251899	0.615738
N146	N	1.573128	0.248101	1.115738
C147	C	1.120665	-0.218458	0.643051
C148	C	1.620665	0.281542	1.143051
O149	O	1.161088	-0.190029	0.614822
O150	O	1.661088	0.309971	1.114822
C151	C	1.120674	-0.218444	0.697654
C152	C	1.620674	0.281556	1.197654
C153	C	1.073150	-0.251874	0.724945
C154	C	1.573150	0.248126	1.224945
C155	C	0.978093	-0.318738	0.724926
C156	C	1.478093	0.181262	1.224926
C157	C	0.978108	-0.318727	0.779527
C158	C	1.478108	0.181273	1.279527
C159	C	1.025643	-0.285289	0.806837
C160	C	1.525643	0.214711	1.306837
C161	C	1.073164	-0.251862	0.779546
C162	C	1.573164	0.248138	1.279546
C163	C	1.168207	-0.185000	0.724967
C164	C	1.668207	0.315000	1.224967
C165	C	1.168211	-0.184989	0.779574
C166	C	1.668211	0.315011	1.279574
C167	C	1.120687	-0.218419	0.806865
C168	C	1.620687	0.281581	1.306865
C169	C	1.120713	-0.218413	0.861456
C170	C	1.620713	0.281587	1.361456
N171	N	1.073187	-0.251837	0.888750
N172	N	1.573187	0.248163	1.388750
C173	C	1.025652	-0.285275	0.861440
C174	C	1.525652	0.214725	1.361440
C175	C	1.120642	-0.218489	0.528380
C176	C	1.620642	0.281511	1.028380
C177	C	1.120638	-0.218506	0.473778
C178	C	1.620638	0.281494	0.973778
C179	C	1.025573	-0.285370	0.473762
C180	C	1.525573	0.214630	0.973762
C181	C	1.025582	-0.285356	0.528365
C182	C	1.525582	0.214644	1.028365
C183	C	1.073116	-0.251913	0.555674
C184	C	1.573116	0.248087	1.055674
C185	C	1.025685	-0.285249	0.976105
C186	C	1.525685	0.214751	1.476105
C187	C	1.025706	-0.285236	1.030711
C188	C	1.525706	0.214764	1.530711
C189	C	1.120768	-0.218370	1.030722
C190	C	1.620768	0.281630	1.530722
C191	C	1.120750	-0.218385	0.976121
C192	C	1.620750	0.281615	1.476121
C193	C	1.073203	-0.251826	0.948814
C194	C	1.573203	0.248174	1.448814
O195	O	1.161135	-0.190002	0.889746
O196	O	1.661135	0.309998	1.389746
O197	O	0.985228	-0.313694	0.889676
O198	O	1.485228	0.186306	1.389676
H199	H	0.619808	-0.187440	0.187603
H200	H	1.119808	0.312560	0.687603
H201	H	0.939404	-0.801255	0.346018
H202	H	1.439404	-0.301255	0.846018
Br203	Br	1.232739	-0.815980	0.139861
Br204	Br	1.732739	-0.315980	0.639861
Br205	Br	0.512479	-0.282594	0.136996
Br206	Br	1.012479	0.217406	0.636996
Br207	Br	0.913607	-0.364098	0.816556
Br208	Br	1.413607	0.135902	1.316556
Br209	Br	1.184996	-0.436135	0.173215
Br210	Br	1.684996	0.063865	0.673215
H211	H	0.619952	-0.228497	0.340030
H212	H	1.119952	0.271503	0.840030
H213	H	1.159454	-0.191167	0.953900
H214	H	1.659454	0.308833	1.453900
H215	H	1.206871	-0.702124	0.157983
H216	H	1.706871	-0.202124	0.657983
Br217	Br	0.913571	-0.364123	0.687874
Br218	Br	1.413571	0.135877	1.187874
H219	H	1.159469	-0.953311	0.191409
H220	H	1.659469	-0.453311	0.691409
Br221	Br	0.961189	-0.938563	0.330758
Br222	Br	1.461189	-0.438563	0.830758
Br223	Br	1.185169	-0.173104	0.565437
Br224	Br	1.685169	0.326896	1.065437
Br225	Br	0.913559	-0.687392	0.364146
Br226	Br	1.413559	-0.187392	0.864146
Br227	Br	0.961209	-0.330611	1.067745
Br228	Br	1.461209	0.169389	1.567745
Br229	Br	0.961062	-0.330752	0.436688
Br230	Br	1.461062	0.169248	0.936688
H231	H	0.986961	-0.312475	0.953878
H232	H	1.486961	0.187525	1.453878
H233	H	1.159516	-1.052376	0.191425
H234	H	1.659516	-0.552376	0.691425
Br235	Br	0.634049	-0.366896	0.220877
Br236	Br	1.134049	0.133104	0.720877
Br237	Br	0.961082	-0.330726	0.565397
Br238	Br	1.461082	0.169274	1.065397
H239	H	0.986739	-0.451020	0.312560
H240	H	1.486739	0.048980	0.812560
Br241	Br	1.185150	-0.173144	0.436747
Br242	Br	1.685150	0.326856	0.936747
H243	H	0.527257	-0.316599	0.316331
H244	H	1.027257	0.183401	0.816331
H245	H	0.527099	-0.163980	0.275694
H246	H	1.027099	0.336020	0.775694
H247	H	0.987041	-1.052423	0.312625
H248	H	1.487041	-0.552423	0.812625
H249	H	1.159269	-0.550015	0.191369
H250	H	1.659269	-0.050015	0.691369
H251	H	0.986794	-0.550086	0.312579
H252	H	1.486794	-0.050086	0.812579
H253	H	1.206907	-0.157779	0.702756
H254	H	1.706907	0.342221	1.202756
H255	H	1.206917	-0.157753	0.801806
H256	H	1.706917	0.342247	1.301806
Br257	Br	1.185279	-0.172994	1.067796
Br258	Br	1.685279	0.327006	1.567796
