data_functionalizedCrystal
_audit_creation_method	'MofGen! by Chris Wilmer'
_symmetry_space_group_name_H-M	'P1'
_symmetry_Int_Tables_number	1
_symmetry_cell_setting	triclinic
loop_
_symmetry_equiv_pos_as_xyz
  x,y,z
_cell_length_a	12.837943
_cell_length_b	12.837942
_cell_length_c	11.892095
_cell_angle_alpha	85.697431
_cell_angle_beta	94.310562
_cell_angle_gamma	94.828940
loop_
_atom_site_label
_atom_site_type_symbol
_atom_site_fract_x
_atom_site_fract_y
_atom_site_fract_z
O1	O	-1.408367	-0.266110	-0.093982
O2	O	-0.908367	0.233890	0.406018
O3	O	-1.105234	-0.252667	-0.093989
O4	O	-0.605234	0.247333	0.406011
O5	O	-1.250078	-0.107822	-0.093979
O6	O	-0.750078	0.392178	0.406021
O7	O	-1.263522	-0.410955	-0.093992
O8	O	-0.763522	0.089045	0.406008
O9	O	-1.237999	-0.119879	0.094028
O10	O	-0.737999	0.380121	0.594028
O11	O	-1.093155	-0.264723	0.094018
O12	O	-0.593155	0.235277	0.594018
O13	O	-1.396288	-0.278167	0.094025
O14	O	-0.896288	0.221833	0.594025
Zn15	Zn	-1.242803	-0.273359	0.123871
Zn16	Zn	-0.742803	0.226641	0.623871
Zn17	Zn	-1.258718	-0.257474	-0.123836
Zn18	Zn	-0.758718	0.242526	0.376164
O19	O	-1.251443	-0.423011	0.094014
O20	O	-0.751443	0.076989	0.594014
C21	C	-1.060125	-0.254153	0.000014
C22	C	-0.560125	0.245847	0.500014
C23	C	-0.943710	-0.240609	0.000011
C24	C	-0.443710	0.259391	0.500011
C25	C	-1.239497	-0.074781	0.000024
C26	C	-0.739497	0.425219	0.500024
C27	C	-1.225953	0.041634	0.000022
C28	C	-0.725953	0.541634	0.500022
C29	C	-1.441397	-0.276680	0.000020
C30	C	-0.941397	0.223320	0.500020
C31	C	-1.557812	-0.290224	0.000015
C32	C	-1.057812	0.209776	0.500015
C33	C	-1.262024	-0.456052	0.000009
C34	C	-0.762024	0.043948	0.500009
C35	C	-1.275569	-0.572467	0.000004
C36	C	-0.775569	-0.072467	0.500004
C37	C	-0.718835	-0.403439	0.000020
C38	C	-0.218835	0.096561	0.500020
C39	C	-0.609453	-0.390717	0.000019
C40	C	-0.109453	0.109283	0.500019
C41	C	-0.615561	-0.202446	0.000015
C42	C	-0.115561	0.297554	0.500015
C43	C	-0.724943	-0.215167	0.000017
C44	C	-0.224943	0.284833	0.500017
C45	C	-0.776577	-0.315667	0.000017
C46	C	-0.276577	0.184333	0.500017
C47	C	-0.885961	-0.328387	0.000011
C48	C	-0.385961	0.171613	0.500011
C49	C	-0.892066	-0.140117	0.000015
C50	C	-0.392066	0.359883	0.500015
C51	C	-0.782684	-0.127395	0.000014
C52	C	-0.282684	0.372605	0.500014
N53	N	-1.231950	-0.284200	0.292925
N54	N	-0.731950	0.215800	0.792925
C55	C	-1.388784	0.266509	0.000002
C56	C	-0.888784	0.766509	0.500002
C57	C	-1.376062	0.375892	-0.000000
C58	C	-0.876062	0.875892	0.500000
C59	C	-1.187791	0.369784	0.000007
C60	C	-0.687791	0.869784	0.500007
C61	C	-1.200512	0.260402	0.000009
C62	C	-0.700512	0.760402	0.500009
C63	C	-1.301011	0.208768	0.000008
C64	C	-0.801011	0.708768	0.500008
C65	C	-1.313731	0.099383	0.000019
C66	C	-0.813731	0.599383	0.500019
C67	C	-1.125461	0.093278	0.000018
C68	C	-0.625461	0.593278	0.500018
C69	C	-1.112740	0.202660	0.000016
C70	C	-0.612740	0.702660	0.500016
N71	N	-1.269579	-0.246626	-0.292889
N72	N	-0.769579	0.253374	0.207111
C73	C	-1.345098	-0.171130	0.529580
C74	C	-0.845098	0.328870	1.029580
C75	C	-1.337519	-0.178716	0.647922
C76	C	-0.837519	0.321284	1.147922
C77	C	-1.209210	-0.306952	0.647951
C78	C	-0.709210	0.193048	1.147951
C79	C	-1.216788	-0.299366	0.529610
C80	C	-0.716788	0.200634	1.029610
C81	C	-1.284736	-0.231454	0.470428
C82	C	-0.784736	0.268546	0.970428
C83	C	-1.292319	-0.223874	0.352085
C84	C	-0.792319	0.276126	0.852085
C85	C	-1.164005	-0.352104	0.352116
C86	C	-0.664005	0.147896	0.852116
C87	C	-1.156426	-0.359690	0.470458
C88	C	-0.656426	0.140310	0.970458
H89	H	-0.928000	-0.410219	0.000013
H90	H	-0.428000	0.089781	0.500013
H91	H	-0.760876	-0.485269	0.000019
H92	H	-0.260876	0.014731	0.500019
H93	H	-0.740628	-0.045572	0.000026
H94	H	-0.240628	0.454428	0.500026
Br95	Br	-1.450120	0.029308	0.000029
Br96	Br	-0.950120	0.529308	0.500029
H97	H	-1.053990	0.046252	0.000033
H98	H	-0.553990	0.546252	0.500033
Br99	Br	-1.384536	-0.131714	0.271769
Br100	Br	-0.884536	0.368286	0.771769
H101	H	-1.447536	0.422901	-0.000009
H102	H	-0.947536	0.922901	0.499991
Br103	Br	-1.064211	-0.451848	0.550781
Br104	Br	-0.564211	0.048152	1.050781
Br105	Br	-1.437324	-0.078981	0.449260
Br106	Br	-0.937324	0.421019	0.949260
H107	H	-0.562444	-0.462191	0.000024
H108	H	-0.062444	0.037809	0.500024
H109	H	-1.386671	-0.129593	0.696080
H110	H	-0.886671	0.370407	1.196080
H111	H	-1.114857	-0.401227	0.303941
H112	H	-0.614857	0.098773	0.803941
Br113	Br	-0.970436	-0.020989	-0.000012
Br114	Br	-0.470436	0.479011	0.499988
Br115	Br	-1.525168	0.196428	0.000035
Br116	Br	-1.025168	0.696428	0.500035
H117	H	-1.153882	-0.362237	0.696151
H118	H	-0.653882	0.137763	1.196151
H119	H	-1.105969	0.411844	-0.000004
H120	H	-0.605969	0.911844	0.499996
Br121	Br	-0.545467	-0.066066	0.000034
Br122	Br	-0.045467	0.433934	0.500034
Br123	Br	-0.976355	0.272745	0.000003
Br124	Br	-0.476355	0.772745	0.500003
