data_functionalizedCrystal
_audit_creation_method	'MofGen! by Chris Wilmer'
_symmetry_space_group_name_H-M	'P1'
_symmetry_Int_Tables_number	1
_symmetry_cell_setting	triclinic
loop_
_symmetry_equiv_pos_as_xyz
  x,y,z
_cell_length_a	19.188931
_cell_length_b	14.971486
_cell_length_c	13.448316
_cell_angle_alpha	90.006811
_cell_angle_beta	89.994767
_cell_angle_gamma	96.620545
loop_
_atom_site_label
_atom_site_type_symbol
_atom_site_fract_x
_atom_site_fract_y
_atom_site_fract_z
O1	O	0.926506	-0.111671	-0.082657
O2	O	1.259840	0.221663	0.250677
O3	O	1.593173	0.554996	0.584010
O4	O	0.723243	-0.126703	-0.082666
O5	O	1.056577	0.206630	0.250667
O6	O	1.389910	0.539964	0.584000
O7	O	0.830323	0.011042	-0.082654
O8	O	1.163656	0.344375	0.250679
O9	O	1.496989	0.677709	0.584013
O10	O	0.819427	-0.249416	-0.082669
O11	O	1.152760	0.083918	0.250664
O12	O	1.486094	0.417251	0.583998
O13	O	0.830309	0.011050	0.082730
O14	O	1.163643	0.344384	0.416063
O15	O	1.496976	0.677717	0.749396
O16	O	0.723230	-0.126695	0.082717
O17	O	1.056563	0.206639	0.416051
O18	O	1.389897	0.539972	0.749384
O19	O	0.926493	-0.111662	0.082727
O20	O	1.259826	0.221671	0.416061
O21	O	1.593159	0.555004	0.749394
Cu22	Cu	0.824860	-0.119178	0.097823
Cu23	Cu	1.158193	0.214156	0.431156
Cu24	Cu	1.491527	0.547489	0.764490
Cu25	Cu	0.824876	-0.119188	-0.097762
Cu26	Cu	1.158209	0.214146	0.235571
Cu27	Cu	1.491543	0.547479	0.568904
O28	O	0.819413	-0.249407	0.082715
O29	O	1.152747	0.083926	0.416048
O30	O	1.486080	0.417259	0.749382
C31	C	0.697224	-0.126212	0.000024
C32	C	1.030557	0.207121	0.333358
C33	C	1.363891	0.540455	0.666691
C34	C	0.619715	-0.124751	0.000021
C35	C	0.953048	0.208583	0.333354
C36	C	1.286382	0.541916	0.666687
C37	C	0.952512	-0.112153	0.000034
C38	C	1.285845	0.221180	0.333368
C39	C	1.619179	0.554513	0.666701
C40	C	1.030021	-0.113615	0.000031
C41	C	1.363355	0.219719	0.333365
C42	C	1.696688	0.553052	0.666698
C43	C	0.829829	0.044368	0.000037
C44	C	1.163162	0.377702	0.333371
C45	C	1.496495	0.711035	0.666704
C46	C	0.828369	0.143658	0.000036
C47	C	1.161702	0.476991	0.333370
C48	C	1.495035	0.810324	0.666703
C49	C	1.074685	-0.032790	0.000027
C50	C	1.408018	0.300543	0.333361
C51	C	1.741352	0.633876	0.666694
C52	C	1.147513	-0.034163	0.000033
C53	C	1.480847	0.299170	0.333367
C54	C	1.814180	0.632504	0.666700
C55	C	1.175675	-0.116365	0.000023
C56	C	1.509008	0.216968	0.333357
C57	C	1.842341	0.550302	0.666690
C58	C	1.131001	-0.197200	0.000033
C59	C	1.464334	0.136133	0.333366
C60	C	1.797668	0.469467	0.666700
C61	C	1.058174	-0.195825	0.000037
C62	C	1.391508	0.137509	0.333370
C63	C	1.724841	0.470842	0.666704
N64	N	1.283876	-0.179201	-0.056280
N65	N	1.617209	0.154132	0.277053
N66	N	1.950543	0.487466	0.610387
N67	N	1.353059	-0.180502	-0.056286
N68	N	1.686392	0.152831	0.277047
N69	N	2.019726	0.486165	0.610381
C70	C	1.395097	-0.120513	0.000013
C71	C	1.728430	0.212820	0.333347
C72	C	2.061763	0.546153	0.666680
N73	N	1.365339	-0.059161	0.056306
N74	N	1.698673	0.274172	0.389639
N75	N	2.032006	0.607506	0.722973
N76	N	1.296150	-0.057857	0.056308
N77	N	1.629484	0.275476	0.389641
N78	N	1.962817	0.608809	0.722974
C79	C	1.254642	-0.117865	0.000020
C80	C	1.587975	0.215468	0.333353
C81	C	1.921309	0.548801	0.666686
C82	C	1.518730	-0.041172	0.000017
C83	C	1.852063	0.292161	0.333350
C84	C	2.185396	0.625495	0.666684
C85	C	1.591559	-0.042548	0.000029
C86	C	1.924892	0.290785	0.333362
C87	C	2.258225	0.624118	0.666696
C88	C	1.575045	-0.205587	0.000019
C89	C	1.908378	0.127746	0.333352
C90	C	2.241711	0.461079	0.666685
C91	C	1.502217	-0.204209	0.000017
C92	C	1.835550	0.129125	0.333350
C93	C	2.168884	0.462458	0.666683
C94	C	1.474064	-0.121999	0.000011
C95	C	1.807397	0.211335	0.333344
C96	C	2.140731	0.544668	0.666678
C97	C	0.819907	-0.282734	0.000021
C98	C	1.153241	0.050600	0.333355
C99	C	1.486574	0.383933	0.666688
C100	C	0.821368	-0.382023	0.000016
C101	C	1.154701	-0.048690	0.333349
C102	C	1.488034	0.284644	0.666682
N103	N	0.824854	-0.119170	0.235387
N104	N	1.158187	0.214163	0.568721
N105	N	1.491521	0.547497	0.902054
C106	C	0.891275	0.201215	0.000040
C107	C	1.224608	0.534549	0.333374
C108	C	1.557941	0.867882	0.666707
C109	C	0.889899	0.294507	0.000030
C110	C	1.223232	0.627841	0.333364
C111	C	1.556565	0.961174	0.666697
C112	C	0.825615	0.330240	0.000023
C113	C	1.158949	0.663574	0.333357
C114	C	1.492282	0.996907	0.666690
C115	C	0.762704	0.272675	0.000017
C116	C	1.096038	0.606009	0.333350
C117	C	1.429371	0.939342	0.666683
C118	C	0.764081	0.179385	0.000020
C119	C	1.097415	0.512718	0.333353
C120	C	1.430748	0.846052	0.666686
C121	C	0.759839	0.467123	0.000013
C122	C	1.093172	0.800456	0.333346
C123	C	1.426505	1.133789	0.666680
C124	C	0.758461	0.560419	0.000012
C125	C	1.091795	0.893753	0.333345
C126	C	1.425128	1.227086	0.666679
C127	C	0.885656	0.582245	0.000023
C128	C	1.218989	0.915579	0.333357
C129	C	1.552323	1.248912	0.666690
C130	C	0.887033	0.488955	0.000026
C131	C	1.220366	0.822288	0.333360
C132	C	1.553700	1.155621	0.666693
C133	C	0.824122	0.431396	0.000022
C134	C	1.157455	0.764730	0.333355
C135	C	1.490788	1.098063	0.666688
N136	N	0.824888	-0.119188	-0.235327
N137	N	1.158221	0.214145	0.098007
N138	N	1.491554	0.547479	0.431340
C139	C	0.872284	-0.058202	0.287433
C140	C	1.205617	0.275132	0.620767
C141	C	1.538950	0.608465	0.954100
C142	C	0.872288	-0.058201	0.391537
C143	C	1.205621	0.275133	0.724870
C144	C	1.538955	0.608466	1.058203
C145	C	0.824866	-0.119174	0.443592
C146	C	1.158199	0.214160	0.776925
C147	C	1.491532	0.547493	1.110259
C148	C	0.777431	-0.180145	0.391539
C149	C	1.110764	0.153188	0.724872
C150	C	1.444098	0.486522	1.058206
C151	C	0.777424	-0.180141	0.287438
C152	C	1.110757	0.153192	0.620771
C153	C	1.444090	0.486526	0.954104
C154	C	0.777450	-0.180151	0.608519
C155	C	1.110784	0.153182	0.941852
C156	C	1.444117	0.486516	1.275186
C157	C	0.777458	-0.180157	0.712628
C158	C	1.110792	0.153177	1.045961
C159	C	1.444125	0.486510	1.379294
C160	C	0.872314	-0.058211	0.712618
C161	C	1.205648	0.275122	1.045951
C162	C	1.538981	0.608456	1.379285
C163	C	0.872307	-0.058207	0.608517
C164	C	1.205641	0.275127	0.941850
C165	C	1.538974	0.608460	1.275183
C166	C	0.824873	-0.119180	0.556471
C167	C	1.158207	0.214154	0.889804
C168	C	1.491540	0.547487	1.223137
H169	H	1.051768	0.034152	0.000026
H170	H	1.385101	0.367485	0.333360
H171	H	1.718435	0.700818	0.666693
H172	H	0.936881	0.629114	0.000024
H173	H	1.270214	0.962448	0.333358
H174	H	1.603547	1.295781	0.666691
Cl175	Cl	0.931907	0.018451	0.222003
Cl176	Cl	1.265241	0.351784	0.555336
Cl177	Cl	1.598574	0.685118	0.888670
Cl178	Cl	0.717810	-0.256794	0.456978
Cl179	Cl	1.051143	0.076539	0.790311
Cl180	Cl	1.384476	0.409873	1.123645
Cl181	Cl	1.203673	0.067452	0.000025
Cl182	Cl	1.537006	0.400786	0.333358
Cl183	Cl	1.870339	0.734119	0.666692
H184	H	1.495806	0.025768	0.000017
H185	H	1.829140	0.359102	0.333350
H186	H	2.162473	0.692435	0.666683
Cl187	Cl	0.681890	0.317597	-0.000004
Cl188	Cl	1.015224	0.650930	0.333329
Cl189	Cl	1.348557	0.984263	0.666663
Cl190	Cl	0.967847	0.444035	0.000030
Cl191	Cl	1.301181	0.777368	0.333363
Cl192	Cl	1.634514	1.110701	0.666697
Cl193	Cl	0.717793	-0.256788	0.222009
Cl194	Cl	1.051126	0.076546	0.555343
Cl195	Cl	1.384459	0.409879	0.888676
H196	H	1.153934	-0.264129	0.000027
H197	H	1.487268	0.069204	0.333361
H198	H	1.820601	0.402537	0.666694
H199	H	1.465851	-0.270025	0.000014
H200	H	1.799184	0.063309	0.333347
H201	H	2.132517	0.396642	0.666680
Cl202	Cl	1.647709	0.059069	0.000035
Cl203	Cl	1.981043	0.392403	0.333368
Cl204	Cl	2.314376	0.725736	0.666702
Cl205	Cl	0.968985	0.366862	0.000038
Cl206	Cl	1.302318	0.700196	0.333371
Cl207	Cl	1.635651	1.033529	0.666705
Cl208	Cl	1.002022	-0.297441	0.000039
Cl209	Cl	1.335356	0.035892	0.333372
Cl210	Cl	1.668689	0.369226	0.666706
Cl211	Cl	0.677647	0.605339	0.000004
Cl212	Cl	1.010980	0.938673	0.333338
Cl213	Cl	1.344314	1.272006	0.666671
H214	H	0.943622	0.172130	0.000052
H215	H	1.276955	0.505463	0.333385
H216	H	1.610288	0.838796	0.666719
Cl217	Cl	1.610440	-0.308928	0.000022
Cl218	Cl	1.943774	0.024405	0.333355
Cl219	Cl	2.277107	0.357739	0.666689
Cl220	Cl	0.680749	0.394764	0.000006
Cl221	Cl	1.014082	0.728098	0.333340
Cl222	Cl	1.347415	1.061431	0.666673
H223	H	0.712856	0.132522	0.000016
H224	H	1.046190	0.465855	0.333350
H225	H	1.379523	0.799188	0.666683
H226	H	0.910908	-0.008555	0.433912
H227	H	1.244241	0.324778	0.767245
H228	H	1.577575	0.658112	1.100578
Cl229	Cl	0.931928	0.018439	0.543073
Cl230	Cl	1.265261	0.351773	0.876407
Cl231	Cl	1.598595	0.685106	1.209740
Cl232	Cl	0.717816	-0.256803	0.543094
Cl233	Cl	1.051149	0.076530	0.876427
Cl234	Cl	1.384482	0.409864	1.209761
H235	H	0.910936	-0.008565	0.755000
H236	H	1.244270	0.324769	1.088333
H237	H	1.577603	0.658102	1.421666
H238	H	0.738841	-0.229806	0.755006
H239	H	1.072175	0.103527	1.088339
H240	H	1.405508	0.436860	1.421673
