data_functionalizedCrystal
_audit_creation_method	'MofGen! by Chris Wilmer'
_symmetry_space_group_name_H-M	'P1'
_symmetry_Int_Tables_number	1
_symmetry_cell_setting	triclinic
loop_
_symmetry_equiv_pos_as_xyz
  x,y,z
_cell_length_a	21.395362
_cell_length_b	16.959454
_cell_length_c	21.395356
_cell_angle_alpha	90.022667
_cell_angle_beta	90.035878
_cell_angle_gamma	90.035955
loop_
_atom_site_label
_atom_site_type_symbol
_atom_site_fract_x
_atom_site_fract_y
_atom_site_fract_z
Zn1	Zn	0.957856	-0.314363	0.354610
Zn2	Zn	1.457856	0.185637	0.854610
Zn3	Zn	0.957793	-0.446546	0.249842
Zn4	Zn	1.457793	0.053454	0.749842
Zn5	Zn	0.853086	-0.314422	0.249811
Zn6	Zn	1.353086	0.185578	0.749811
Zn7	Zn	0.853059	-0.446540	0.354547
Zn8	Zn	1.353059	0.053460	0.854547
O9	O	0.905448	-0.380467	0.302202
O10	O	1.405448	0.119533	0.802202
O11	O	1.045525	-0.331875	0.340751
O12	O	1.545525	0.168125	0.840751
O13	O	0.943887	-0.429046	0.162160
O14	O	1.443887	0.070954	0.662160
O15	O	0.867021	-0.203803	0.263726
O16	O	1.367021	0.296197	0.763726
O17	O	1.045479	-0.428989	0.263779
O18	O	1.545479	0.071011	0.763779
O19	O	0.943995	-0.203760	0.340721
O20	O	1.443995	0.296240	0.840721
O21	O	0.866960	-0.331975	0.162137
O22	O	1.366960	0.168025	0.662137
O23	O	0.765404	-0.331970	0.263665
O24	O	1.265404	0.168030	0.763665
O25	O	0.866977	-0.428979	0.442233
O26	O	1.366977	0.071021	0.942233
O27	O	0.765385	-0.429036	0.340614
O28	O	1.265385	0.070964	0.840614
O29	O	0.943970	-0.331869	0.442279
O30	O	1.443970	0.168131	0.942279
O31	O	0.943862	-0.557156	0.263718
O32	O	1.443862	-0.057156	0.763718
O33	O	0.866915	-0.557151	0.340645
O34	O	1.366915	-0.057151	0.840645
C35	C	0.742661	-0.380509	0.302130
C36	C	1.242661	0.119491	0.802130
C37	C	0.673019	-0.380546	0.302114
C38	C	1.173019	0.119454	0.802114
C39	C	0.640313	-0.431156	0.342121
C40	C	1.140313	0.068844	0.842121
C41	C	0.574877	-0.431136	0.342149
C42	C	1.074877	0.068864	0.842149
C43	C	0.542151	-0.380516	0.302158
C44	C	1.042151	0.119484	0.802158
C45	C	0.574866	-0.329896	0.262148
C46	C	1.074866	0.170104	0.762148
C47	C	0.640300	-0.329912	0.262126
C48	C	1.140300	0.170088	0.762126
C49	C	0.438433	-0.374160	0.245752
C50	C	0.938433	0.125840	0.745752
C51	C	0.373000	-0.374150	0.245774
C52	C	0.873000	0.125850	0.745774
C53	C	0.340330	-0.380464	0.302227
C54	C	0.840330	0.119536	0.802227
C55	C	0.373101	-0.386804	0.358661
C56	C	0.873101	0.113196	0.858661
C57	C	0.438536	-0.386819	0.358639
C58	C	0.938536	0.113181	0.858639
C59	C	0.471199	-0.380493	0.302178
C60	C	0.971199	0.119507	0.802178
C61	C	0.236671	-0.431055	0.342268
C62	C	0.736671	0.068945	0.842268
C63	C	0.171235	-0.431030	0.342297
C64	C	0.671235	0.068970	0.842297
C65	C	0.171224	-0.329795	0.262291
C66	C	0.671224	0.170205	0.762291
C67	C	0.236660	-0.329815	0.262267
C68	C	0.736660	0.170185	0.762267
C69	C	0.269379	-0.380450	0.302255
C70	C	0.769379	0.119550	0.802255
C71	C	0.905396	-0.585834	0.302192
C72	C	1.405396	-0.085834	0.802192
C73	C	0.905431	-0.673690	0.302208
C74	C	1.405431	-0.173690	0.802208
C75	C	0.865440	-1.045193	0.342254
C76	C	1.365440	-0.545193	0.842254
C77	C	0.945631	-1.045138	0.262215
C78	C	1.445631	-0.545138	0.762215
C79	C	0.945609	-0.962592	0.262209
C80	C	1.445609	-0.462592	0.762209
C81	C	0.905502	-0.921343	0.302226
C82	C	1.405502	-0.421343	0.802226
C83	C	0.865416	-0.962640	0.342248
C84	C	1.365416	-0.462640	0.842248
C85	C	0.985690	-0.921289	0.222184
C86	C	1.485690	-0.421289	0.722184
C87	C	0.985669	-0.838738	0.222176
C88	C	1.485669	-0.338738	0.722176
C89	C	0.945564	-0.797488	0.262196
C90	C	1.445564	-0.297488	0.762196
C91	C	0.905477	-0.838790	0.302220
C92	C	1.405477	-0.338790	0.802220
C93	C	0.865369	-0.797541	0.342236
C94	C	1.365369	-0.297541	0.842236
C95	C	0.825285	-0.838841	0.382264
C96	C	1.325285	-0.338841	0.882264
C97	C	0.825311	-0.921389	0.382268
C98	C	1.325311	-0.421389	0.882268
C99	C	0.945538	-0.714939	0.262192
C100	C	1.445538	-0.214939	0.762192
C101	C	0.865345	-0.714987	0.342230
C102	C	1.365345	-0.214987	0.842230
C103	C	1.068872	-0.380426	0.302276
C104	C	1.568872	0.119574	0.802276
C105	C	1.138513	-0.380408	0.302307
C106	C	1.638513	0.119592	0.802307
C107	C	0.905477	-0.380417	0.465626
C108	C	1.405477	0.119583	0.965626
C109	C	0.905490	-0.380395	0.535267
C110	C	1.405490	0.119605	1.035267
C111	C	0.905518	-0.174299	0.302227
C112	C	1.405518	0.325701	0.802227
C113	C	0.905548	-0.086443	0.302237
C114	C	1.405548	0.413557	0.802237
C115	C	0.905456	-0.380461	0.139415
C116	C	1.405456	0.119539	0.639415
C117	C	0.905565	-0.380260	0.069774
C118	C	1.405565	0.119740	0.569774
C119	C	0.945639	-0.329704	1.037088
C120	C	1.445639	0.170296	1.537088
C121	C	0.945634	-0.329723	0.971653
C122	C	1.445634	0.170277	1.471653
C123	C	0.905543	-0.380290	0.938906
C124	C	1.405543	0.119710	1.438906
C125	C	0.865466	-0.430856	0.971599
C126	C	1.365466	0.069144	1.471599
C127	C	0.865477	-0.430841	1.037033
C128	C	1.365477	0.069159	1.537033
C129	C	0.849075	-0.386569	0.835211
C130	C	1.349075	0.113431	1.335211
C131	C	0.849064	-0.386578	0.769778
C132	C	1.349064	0.113422	1.269778
C133	C	0.905511	-0.380340	0.737085
C134	C	1.405511	0.119660	1.237085
C135	C	0.961972	-0.374076	0.769833
C136	C	1.461972	0.125924	1.269833
C137	C	0.961983	-0.374061	0.835267
C138	C	1.461983	0.125939	1.335267
C139	C	0.905528	-0.380312	0.867953
C140	C	1.405528	0.119688	1.367953
C141	C	0.945584	-0.329802	0.633447
C142	C	1.445584	0.170198	1.133447
C143	C	0.945580	-0.329827	0.568010
C144	C	1.445580	0.170173	1.068010
C145	C	0.865406	-0.430955	0.567957
C146	C	1.365406	0.069045	1.067957
C147	C	0.865416	-0.430935	0.633393
C148	C	1.365416	0.069065	1.133393
C149	C	0.905504	-0.380354	0.666133
C150	C	1.405504	0.119646	1.166133
H151	H	0.465028	-0.369015	0.199778
H152	H	0.965028	0.130985	0.699778
H153	H	0.792626	-0.805246	0.414843
H154	H	1.292626	-0.305246	0.914843
H155	H	0.978171	-0.681316	0.229599
H156	H	1.478171	-0.181316	0.729599
H157	H	0.978281	-1.078728	0.229632
H158	H	1.478281	-0.578728	0.729632
H159	H	0.548242	-0.472348	0.374730
H160	H	1.048242	0.027652	0.874730
H161	H	0.792676	-0.955023	0.414855
H162	H	1.292676	-0.455023	0.914855
C163	C	0.821385	-0.486454	1.072988
C164	C	1.321385	0.013546	1.572988
N165	N	0.788173	-0.528340	1.100071
N166	N	1.288173	-0.028340	1.600071
C167	C	0.272638	-0.274147	0.218250
C168	C	0.772638	0.225853	0.718250
N169	N	0.299737	-0.232215	0.185094
N170	N	0.799737	0.267785	0.685094
C171	C	0.821230	-0.669620	0.386260
C172	C	1.321230	-0.169620	0.886260
N173	N	0.788004	-0.635449	0.419425
N174	N	1.288004	-0.135449	0.919425
C175	C	0.538866	-0.274214	0.218158
C176	C	1.038866	0.225786	0.718158
N177	N	0.511750	-0.232270	0.185025
N178	N	1.011750	0.267730	0.685025
H179	H	0.832780	-0.472100	0.660006
H180	H	1.332780	0.027900	1.160006
C181	C	1.029796	-0.966668	0.178160
C182	C	1.529796	-0.466668	0.678160
N183	N	1.063016	-1.000851	0.144998
N184	N	1.563016	-0.500851	0.644998
C185	C	0.676278	-0.274239	0.218109
C186	C	1.176278	0.225761	0.718109
N187	N	0.703378	-0.232307	0.184953
N188	N	1.203378	0.267693	0.684953
H189	H	0.803106	-0.391650	0.861824
H190	H	1.303106	0.108350	1.361824
H191	H	1.018308	-0.805117	0.189584
H192	H	1.518308	-0.305117	0.689584
C193	C	0.821364	-0.486477	0.935576
C194	C	1.321364	0.013523	1.435576
N195	N	0.788146	-0.528374	0.908443
N196	N	1.288146	-0.028374	1.408443
H197	H	0.978285	-0.288521	1.063742
H198	H	1.478285	0.211479	1.563742
H199	H	0.832766	-0.472131	0.541295
H200	H	1.332766	0.027869	1.041295
H201	H	0.666949	-0.472385	0.374683
H202	H	1.166949	0.027615	0.874683
H203	H	0.832806	-1.078824	0.374845
H204	H	1.332806	-0.578824	0.874845
H205	H	0.978268	-0.288551	0.945035
H206	H	1.478268	0.211449	1.445035
C207	C	1.024089	-0.367181	0.871287
C208	C	1.524089	0.132819	1.371287
N209	N	1.070869	-0.362003	0.898417
N210	N	1.570869	0.137997	1.398417
H211	H	1.007937	-0.368994	0.743215
H212	H	1.507937	0.131006	1.243215
H213	H	0.465215	-0.391979	0.404590
H214	H	0.965215	0.108021	0.904590
C215	C	0.786956	-0.393464	0.733762
C216	C	1.286956	0.106536	1.233762
N217	N	0.740174	-0.398649	0.706636
N218	N	1.240174	0.101351	1.206636
C219	C	0.337169	-0.393747	0.420766
C220	C	0.837169	0.106253	0.920766
N221	N	0.310103	-0.398976	0.467541
N222	N	0.810103	0.101024	0.967541
C223	C	0.989688	-0.274171	0.669464
C224	C	1.489688	0.225829	1.169464
N225	N	1.022908	-0.232271	0.696590
N226	N	1.522908	0.267729	1.196590
H227	H	0.144606	-0.472241	0.374880
H228	H	0.644606	0.027759	0.874880
H229	H	0.263313	-0.472281	0.374832
H230	H	0.763313	0.027719	0.874832
C231	C	0.135229	-0.274110	0.218301
C232	C	0.635229	0.225890	0.718301
N233	N	0.108115	-0.232167	0.185167
N234	N	0.608115	0.267833	0.685167
H235	H	0.346323	-0.368993	0.199822
H236	H	0.846323	0.131007	0.699822
C237	C	0.989667	-0.274206	0.532056
C238	C	1.489667	0.225794	1.032056
N239	N	1.022872	-0.232310	0.504975
N240	N	1.522872	0.267690	1.004975
