data_functionalizedCrystal
_audit_creation_method	'MofGen! by Chris Wilmer'
_symmetry_space_group_name_H-M	'P1'
_symmetry_Int_Tables_number	1
_symmetry_cell_setting	triclinic
loop_
_symmetry_equiv_pos_as_xyz
  x,y,z
_cell_length_a	6.817900
_cell_length_b	15.300912
_cell_length_c	16.255661
_cell_angle_alpha	95.152384
_cell_angle_beta	103.488922
_cell_angle_gamma	104.173621
loop_
_atom_site_label
_atom_site_type_symbol
_atom_site_fract_x
_atom_site_fract_y
_atom_site_fract_z
V1	V	-4.030151	-0.125487	-0.264129
O2	O	-4.014046	0.005281	-0.258837
O3	O	-3.985062	-0.248099	-0.262577
O4	O	-3.981669	-0.123886	-0.379209
O5	O	-4.017463	-0.119793	-0.141397
V6	V	-4.513360	-0.109807	-0.249419
O7	O	-4.292097	-0.159883	-0.296398
O8	O	-4.701611	-0.075411	-0.217150
O9	O	-4.335242	0.012805	-0.250971
O10	O	-4.646862	-0.240575	-0.254711
O11	O	-4.643445	-0.115502	-0.372151
O12	O	-4.338635	-0.111409	-0.134339
C13	C	-3.830871	-0.277979	-0.258476
C14	C	-3.875292	-0.378219	-0.257973
C15	C	-4.248952	-0.814589	-0.260044
C16	C	-4.207195	-0.720402	-0.260510
C17	C	-4.004080	-0.668711	-0.256516
C18	C	-3.842707	-0.711210	-0.252047
C19	C	-3.884462	-0.805394	-0.251574
C20	C	-3.755690	-0.514901	-0.253033
C21	C	-3.713932	-0.420711	-0.253507
C22	C	-4.078423	-0.429910	-0.261969
C23	C	-4.120178	-0.524094	-0.261497
C24	C	-3.958803	-0.566586	-0.257029
C25	C	-3.826541	-0.119532	-0.407251
C26	C	-3.868208	-0.119034	-0.501331
C27	C	-3.778601	-0.113085	-0.724137
C28	C	-3.937121	-0.189861	-0.793771
C29	C	-3.944566	-0.118100	-0.673578
C30	C	-3.860313	-0.040446	-0.771579
C31	C	-4.018310	-0.117194	-0.839959
C32	C	-4.102570	-0.194944	-0.741982
C33	C	-4.025698	-0.045461	-0.719774
C34	C	-4.184355	-0.122259	-0.789389
C35	C	-3.902080	-0.118623	-0.577729
C36	C	-4.060814	-0.116678	-0.935807
C37	C	-4.152775	0.042680	-0.255070
C38	C	-4.087592	0.142918	-0.255578
C39	C	-4.157105	-0.115766	-0.106293
C40	C	-4.094677	-0.116259	-0.012212
H41	H	-4.285573	-0.566180	-0.264756
H42	H	-3.758289	0.024831	-0.785054
Br43	Br	-3.438274	-0.350559	-0.248089
H44	H	-3.753067	-0.839991	-0.247944
Br45	Br	-3.536678	-0.572569	-0.246971
Br46	Br	-4.470993	-0.128750	-0.836650
Br47	Br	-3.492163	-0.106782	-0.676650
Br48	Br	-4.087238	0.056298	-0.666043
Br49	Br	-3.567038	-0.641055	-0.246609
Br50	Br	-4.272601	-0.303890	-0.719768
Br51	Br	-4.524624	-0.884734	-0.265475
Br52	Br	-4.426180	-0.662732	-0.266540
H53	H	-4.209819	-0.395308	-0.265605
Br54	Br	-3.875461	-0.291615	-0.847461
