data_functionalizedCrystal
_audit_creation_method	'MofGen! by Chris Wilmer'
_symmetry_space_group_name_H-M	'P1'
_symmetry_Int_Tables_number	1
_symmetry_cell_setting	triclinic
loop_
_symmetry_equiv_pos_as_xyz
  x,y,z
_cell_length_a	11.792241
_cell_length_b	12.996460
_cell_length_c	11.792241
_cell_angle_alpha	90.006284
_cell_angle_beta	84.193416
_cell_angle_gamma	90.001369
loop_
_atom_site_label
_atom_site_type_symbol
_atom_site_fract_x
_atom_site_fract_y
_atom_site_fract_z
O1	O	1.506910	0.085467	0.155570
O2	O	1.756910	0.335467	0.405570
O3	O	2.006910	0.585467	0.655570
O4	O	2.256910	0.835467	0.905570
O5	O	1.176569	0.085491	0.171603
O6	O	1.426569	0.335491	0.421603
O7	O	1.676569	0.585491	0.671603
O8	O	1.926569	0.835491	0.921603
O9	O	1.349756	0.085472	-0.001584
O10	O	1.599756	0.335472	0.248416
O11	O	1.849756	0.585472	0.498416
O12	O	2.099756	0.835472	0.748416
O13	O	1.333723	0.085487	0.328757
O14	O	1.583723	0.335487	0.578757
O15	O	1.833723	0.585487	0.828757
O16	O	2.083723	0.835487	1.078757
O17	O	1.349738	-0.085662	-0.001594
O18	O	1.599738	0.164338	0.248406
O19	O	1.849738	0.414338	0.498406
O20	O	2.099738	0.664338	0.748406
O21	O	1.176551	-0.085642	0.171593
O22	O	1.426551	0.164358	0.421593
O23	O	1.676551	0.414358	0.671593
O24	O	1.926551	0.664358	0.921593
O25	O	1.506892	-0.085666	0.155560
O26	O	1.756892	0.164334	0.405560
O27	O	2.006892	0.414334	0.655560
O28	O	2.256892	0.664334	0.905560
Cu29	Cu	1.341720	-0.101280	0.163576
Cu30	Cu	1.591720	0.148720	0.413576
Cu31	Cu	1.841720	0.398720	0.663576
Cu32	Cu	2.091720	0.648720	0.913576
Cu33	Cu	1.341741	0.101105	0.163587
Cu34	Cu	1.591741	0.351105	0.413587
Cu35	Cu	1.841741	0.601105	0.663587
Cu36	Cu	2.091741	0.851105	0.913587
O37	O	1.333705	-0.085647	0.328747
O38	O	1.583705	0.164353	0.578747
O39	O	1.833705	0.414353	0.828747
O40	O	2.083705	0.664353	1.078747
C41	C	1.134269	-0.000073	0.170591
C42	C	1.384269	0.249927	0.420591
C43	C	1.634269	0.499927	0.670591
C44	C	1.884269	0.749927	0.920591
C45	C	1.008255	-0.000064	0.167576
C46	C	1.258255	0.249936	0.417576
C47	C	1.508255	0.499936	0.667576
C48	C	1.758255	0.749936	0.917576
N49	N	1.341713	-0.243627	0.163567
N50	N	1.591713	0.006373	0.413567
N51	N	1.841713	0.256373	0.663567
N52	N	2.091713	0.506373	0.913567
C53	C	0.777543	-0.000093	0.162034
C54	C	1.027543	0.249907	0.412034
C55	C	1.277543	0.499907	0.662034
C56	C	1.527543	0.749907	0.912034
C57	C	0.905928	-0.000077	0.165113
C58	C	1.155928	0.249923	0.415113
C59	C	1.405928	0.499923	0.665113
C60	C	1.655928	0.749923	0.915113
C61	C	1.341740	-0.663442	0.163588
C62	C	1.591740	-0.413442	0.413588
C63	C	1.841740	-0.163442	0.663588
C64	C	2.091740	0.086558	0.913588
C65	C	1.341729	-0.546637	0.163586
C66	C	1.591729	-0.296637	0.413586
C67	C	1.841729	-0.046637	0.663586
C68	C	2.091729	0.203363	0.913586
C69	C	1.341727	-0.453538	0.163579
C70	C	1.591727	-0.203538	0.413579
C71	C	1.841727	0.046462	0.663579
C72	C	2.091727	0.296462	0.913579
C73	C	1.341715	-0.336726	0.163575
C74	C	1.591715	-0.086726	0.413575
C75	C	1.841715	0.163274	0.663575
C76	C	2.091715	0.413274	0.913575
C77	C	1.549192	-0.000100	0.156572
C78	C	1.799192	0.249900	0.406572
C79	C	2.049192	0.499900	0.656572
C80	C	2.299192	0.749900	0.906572
C81	C	1.675206	-0.000103	0.159587
C82	C	1.925206	0.249897	0.409587
C83	C	2.175206	0.499897	0.659587
C84	C	2.425206	0.749897	0.909587
C85	C	1.348740	-0.000095	-0.043880
C86	C	1.598740	0.249905	0.206120
C87	C	1.848740	0.499905	0.456120
C88	C	2.098740	0.749905	0.706120
C89	C	1.345726	-0.000094	-0.169894
C90	C	1.595726	0.249906	0.080106
C91	C	1.845726	0.499906	0.330106
C92	C	2.095726	0.749906	0.580106
N93	N	1.341757	0.243452	0.163587
N94	N	1.591757	0.493452	0.413587
N95	N	1.841757	0.743452	0.663587
N96	N	2.091757	0.993452	0.913587
C97	C	1.340183	-0.000076	-0.400606
C98	C	1.590183	0.249924	-0.150606
C99	C	1.840183	0.499924	0.099394
C100	C	2.090183	0.749924	0.349394
C101	C	1.343262	-0.000086	-0.272221
C102	C	1.593262	0.249914	-0.022221
C103	C	1.843262	0.499914	0.227779
C104	C	2.093262	0.749914	0.477779
C105	C	1.334721	-0.000078	0.371043
C106	C	1.584721	0.249922	0.621043
C107	C	1.834721	0.499922	0.871043
C108	C	2.084721	0.749922	1.121043
C109	C	1.337736	-0.000072	0.497057
C110	C	1.587736	0.249928	0.747057
C111	C	1.837736	0.499928	0.997057
C112	C	2.087736	0.749928	1.247057
