data_functionalizedCrystal
_audit_creation_method	'MofGen! by Chris Wilmer'
_symmetry_space_group_name_H-M	'P1'
_symmetry_Int_Tables_number	1
_symmetry_cell_setting	triclinic
loop_
_symmetry_equiv_pos_as_xyz
  x,y,z
_cell_length_a	10.967926
_cell_length_b	14.044220
_cell_length_c	9.482900
_cell_angle_alpha	100.188801
_cell_angle_beta	92.549900
_cell_angle_gamma	88.855190
loop_
_atom_site_label
_atom_site_type_symbol
_atom_site_fract_x
_atom_site_fract_y
_atom_site_fract_z
O1	O	1.628183	0.167990	0.287012
O2	O	2.128183	0.667990	0.787012
O3	O	1.279192	0.170077	0.199575
O4	O	1.779192	0.670077	0.699575
O5	O	1.448447	0.030855	0.241995
O6	O	1.948447	0.530855	0.741995
O7	O	1.458928	0.307212	0.244592
O8	O	1.958928	0.807212	0.744592
O9	O	1.414080	0.059254	0.475174
O10	O	1.914080	0.559254	0.975174
O11	O	1.244826	0.198475	0.432755
O12	O	1.744826	0.698475	0.932755
O13	O	1.593816	0.196388	0.520191
O14	O	2.093816	0.696388	1.020191
Cu15	Cu	1.416183	0.200025	0.497764
Cu16	Cu	1.916183	0.700025	0.997764
Cu17	Cu	1.456825	0.166441	0.222002
Cu18	Cu	1.956825	0.666441	0.722002
O19	O	1.424561	0.335610	0.477771
O20	O	1.924561	0.835610	0.977771
C21	C	1.217076	0.181978	0.304908
C22	C	1.717076	0.681978	0.804908
C23	C	1.083189	0.175121	0.271364
C24	C	1.583189	0.675121	0.771364
C25	C	1.005695	0.186775	0.377203
C26	C	1.505695	0.686775	0.877203
C27	C	0.867315	0.179687	0.342536
C28	C	1.367315	0.679687	0.842536
C29	C	1.426678	0.009569	0.357436
C30	C	1.926678	0.509569	0.857436
C31	C	1.412998	-0.096166	0.354011
C32	C	1.912998	0.403834	0.854011
C33	C	1.387993	-0.289761	0.347725
C34	C	1.887993	0.210239	0.847725
C35	C	1.485012	-0.343781	0.372028
C36	C	1.985012	0.156219	0.872028
C37	C	1.471099	-0.451504	0.368530
C38	C	1.971099	0.048496	0.868530
C39	C	1.401904	-0.182028	0.351222
C40	C	1.901904	0.317972	0.851222
C41	C	1.655933	0.184486	0.414856
C42	C	2.155933	0.684486	0.914856
C43	C	1.789821	0.191343	0.448390
C44	C	2.289821	0.691343	0.948390
C45	C	1.446331	0.356895	0.362327
C46	C	1.946331	0.856895	0.862327
C47	C	1.460012	0.462630	0.365743
C48	C	1.960012	0.962630	0.865743
N49	N	1.387606	0.223646	0.691722
N50	N	1.887606	0.723646	1.191722
N51	N	1.485411	0.142812	0.028047
N52	N	1.985411	0.642812	0.528047
C53	C	1.448388	0.173402	0.779155
C54	C	1.948388	0.673402	1.279155
C55	C	1.424621	0.193063	0.940615
C56	C	1.924621	0.693063	1.440615
H57	H	0.825915	0.206565	0.564676
H58	H	1.325915	0.706565	1.064676
O59	O	1.608885	-0.297892	0.403077
O60	O	2.108885	0.202108	0.903077
H61	H	1.605832	-0.241405	0.500876
H62	H	2.105832	0.258595	1.000876
H63	H	1.518016	0.115828	0.734477
H64	H	2.018016	0.615828	1.234477
H65	H	1.294490	-0.324414	0.324295
H66	H	1.794490	0.175586	0.824295
H67	H	1.041796	0.201993	0.493480
H68	H	1.541796	0.701993	0.993480
O69	O	0.819511	0.159497	0.188503
O70	O	1.319511	0.659497	0.688503
H71	H	0.897328	0.152024	0.116246
H72	H	1.397328	0.652024	0.616246
O73	O	1.332380	0.269333	0.999770
O74	O	1.832380	0.769333	1.499770
H75	H	1.328195	0.272813	1.117306
H76	H	1.828195	0.772813	1.617306
O77	O	1.577650	0.066540	0.968895
O78	O	2.077650	0.566540	1.468895
H79	H	1.581848	0.063066	0.851361
H80	H	2.081848	0.563066	1.351361
H81	H	1.317968	0.281213	0.736399
H82	H	1.817968	0.781213	1.236399
H83	H	1.047088	0.159894	0.155087
H84	H	1.547088	0.659894	0.655087
