data_functionalizedCrystal
_audit_creation_method	'MofGen! by Chris Wilmer'
_symmetry_space_group_name_H-M	'P1'
_symmetry_Int_Tables_number	1
_symmetry_cell_setting	triclinic
loop_
_symmetry_equiv_pos_as_xyz
  x,y,z
_cell_length_a	16.974800
_cell_length_b	15.944551
_cell_length_c	16.053802
_cell_angle_alpha	92.564789
_cell_angle_beta	91.074188
_cell_angle_gamma	83.444312
loop_
_atom_site_label
_atom_site_type_symbol
_atom_site_fract_x
_atom_site_fract_y
_atom_site_fract_z
O1	O	1.049083	0.107072	0.001480
O2	O	1.382416	0.440406	0.334813
O3	O	1.715750	0.773739	0.668147
O4	O	0.819622	0.119930	-0.014032
O5	O	1.152955	0.453264	0.319301
O6	O	1.486289	0.786597	0.652635
O7	O	0.940618	-0.008760	-0.005845
O8	O	1.273952	0.324574	0.327488
O9	O	1.607285	0.657907	0.660822
O10	O	0.928087	0.235762	-0.006707
O11	O	1.261420	0.569096	0.326626
O12	O	1.594754	0.902429	0.659960
O13	O	0.933958	-0.001705	0.132563
O14	O	1.267292	0.331628	0.465897
O15	O	1.600625	0.664961	0.799230
O16	O	0.812962	0.126985	0.124376
O17	O	1.146295	0.460318	0.457710
O18	O	1.479629	0.793651	0.791043
O19	O	1.042423	0.114126	0.139888
O20	O	1.375756	0.447460	0.473222
O21	O	1.709090	0.780793	0.806555
Zn22	Zn	0.926635	0.121676	0.154108
Zn23	Zn	1.259969	0.455009	0.487441
Zn24	Zn	1.593302	0.788342	0.820774
Zn25	Zn	0.935410	0.112381	-0.028251
Zn26	Zn	1.268743	0.445715	0.305082
Zn27	Zn	1.602077	0.779048	0.638415
O28	O	0.921427	0.242816	0.131701
O29	O	1.254760	0.576150	0.465034
O30	O	1.588094	0.909483	0.798368
C31	C	0.786929	0.122839	0.053187
C32	C	1.120262	0.456173	0.386521
C33	C	1.453596	0.789506	0.719854
C34	C	0.699436	0.120987	0.047273
C35	C	1.032770	0.454320	0.380606
C36	C	1.366103	0.787654	0.713939
C37	C	0.654706	0.123960	0.119942
C38	C	0.988040	0.457294	0.453276
C39	C	1.321373	0.790627	0.786609
C40	C	0.572499	0.122207	0.114388
C41	C	0.905833	0.455540	0.447721
C42	C	1.239166	0.788873	0.781054
C43	C	0.535023	0.117486	0.036162
C44	C	0.868356	0.450819	0.369496
C45	C	1.201689	0.784153	0.702829
C46	C	0.579759	0.114510	-0.036513
C47	C	0.913092	0.447843	0.296821
C48	C	1.246426	0.781177	0.630154
C49	C	0.661965	0.116258	-0.030957
C50	C	0.995299	0.449591	0.302376
C51	C	1.328632	0.782924	0.635710
C52	C	0.289552	0.111841	0.011457
C53	C	0.622885	0.445174	0.344790
C54	C	0.956219	0.778508	0.678123
C55	C	0.207339	0.110096	0.005906
C56	C	0.540672	0.443430	0.339240
C57	C	0.874006	0.776763	0.672573
C58	C	0.200085	0.117791	0.156807
C59	C	0.533419	0.451125	0.490141
C60	C	0.866752	0.784458	0.823474
C61	C	0.282293	0.119544	0.162356
C62	C	0.615626	0.452877	0.495689
C63	C	0.948960	0.786210	0.829023
C64	C	0.327023	0.116563	0.089681
C65	C	0.660356	0.449897	0.423014
C66	C	0.993689	0.783230	0.756348
N67	N	0.450993	0.115696	0.030483
N68	N	0.784327	0.449029	0.363816
N69	N	1.117660	0.782363	0.697149
N70	N	0.411051	0.118347	0.095362
N71	N	0.744384	0.451681	0.428695
N72	N	1.077718	0.785014	0.762028
C73	C	0.936768	-0.036527	0.063324
C74	C	1.270101	0.296806	0.396657
C75	C	1.603435	0.630139	0.729991
C76	C	0.935208	-0.129777	0.063219
C77	C	1.268542	0.203556	0.396552
C78	C	1.601875	0.536890	0.729886
C79	C	0.856481	-0.344805	0.057886
C80	C	1.189815	-0.011472	0.391219
C81	C	1.523148	0.321862	0.724552
C82	C	0.889756	-0.402265	0.128601
C83	C	1.223089	-0.068931	0.461934
C84	C	1.556423	0.264402	0.795267
C85	C	0.932387	-0.300509	0.063022
C86	C	1.265720	0.032824	0.396355
C87	C	1.599054	0.366157	0.729689
C88	C	0.896340	-0.409203	-0.007858
C89	C	1.229673	-0.075870	0.325476
C90	C	1.563007	0.257464	0.658809
C91	C	0.929656	-0.465428	0.062828
C92	C	1.262989	-0.132095	0.396161
C93	C	1.596323	0.201238	0.729494
C94	C	0.965680	-0.356738	0.133795
C95	C	1.299013	-0.023405	0.467128
C96	C	1.632346	0.309929	0.800462
C97	C	0.972256	-0.363673	-0.002726
C98	C	1.305589	-0.030340	0.330608
C99	C	1.638923	0.302994	0.663941
C100	C	1.005585	-0.421114	0.068010
C101	C	1.338918	-0.087781	0.401343
C102	C	1.672252	0.245553	0.734676
C103	C	0.933958	-0.205503	0.063135
C104	C	1.267291	0.127830	0.396468
C105	C	1.600624	0.461164	0.729801
C106	C	0.928091	-0.560433	0.062721
C107	C	1.261424	-0.227100	0.396055
C108	C	1.594758	0.106234	0.729388
C109	C	1.075116	0.111217	0.072667
C110	C	1.408450	0.444551	0.406000
C111	C	1.741783	0.777884	0.739334
C112	C	1.162609	0.113069	0.078576
C113	C	1.495943	0.446403	0.411909
C114	C	1.829276	0.779736	0.745243
C115	C	0.925277	0.270584	0.062530
C116	C	1.258611	0.603918	0.395864
C117	C	1.591944	0.937251	0.729197
C118	C	0.926837	0.363833	0.062630
C119	C	1.260171	0.697167	0.395963
C120	C	1.593504	1.030500	0.729296
N121	N	0.920652	0.128018	0.278563
N122	N	1.253986	0.461351	0.611896
N123	N	1.587319	0.794685	0.945230
N124	N	0.941399	0.106032	-0.152706
N125	N	1.274732	0.439365	0.180627
N126	N	1.608066	0.772699	0.513960
C127	C	0.972155	0.073280	0.325742
C128	C	1.305489	0.406613	0.659075
C129	C	1.638822	0.739947	0.992408
C130	C	0.967977	0.077725	0.412866
C131	C	1.301311	0.411058	0.746199
C132	C	1.634644	0.744391	1.079533
C133	C	0.912300	0.136912	0.452810
C134	C	1.245634	0.470245	0.786143
C135	C	1.578967	0.803579	1.119476
C136	C	0.860792	0.191653	0.405625
C137	C	1.194125	0.524986	0.738958
C138	C	1.527459	0.858319	1.072291
C139	C	0.864966	0.187203	0.318502
C140	C	1.198300	0.520537	0.651835
C141	C	1.531633	0.853870	0.985168
C142	C	0.894065	0.156323	0.712986
C143	C	1.227399	0.489657	1.046319
C144	C	1.560732	0.822990	1.379652
C145	C	0.889896	0.160770	0.800115
C146	C	1.223230	0.494104	1.133448
C147	C	1.556563	0.827437	1.466781
C148	C	0.997081	0.046841	0.807350
C149	C	1.330415	0.380174	1.140683
C150	C	1.663748	0.713507	1.474017
C151	C	1.001254	0.042400	0.720226
C152	C	1.334587	0.375733	1.053559
C153	C	1.667921	0.709067	1.386892
C154	C	0.949743	0.097138	0.673048
C155	C	1.283076	0.430471	1.006381
C156	C	1.616410	0.763804	1.339714
N157	N	0.908030	0.141458	0.541865
N158	N	1.241364	0.474792	0.875198
N159	N	1.574697	0.808125	1.208531
N160	N	0.954010	0.092587	0.583994
N161	N	1.287343	0.425920	0.917328
N162	N	1.620676	0.759253	1.250661
H163	H	0.312801	0.123384	0.226056
H164	H	0.646134	0.456717	0.559389
H165	H	0.979467	0.790050	0.892722
Cl166	Cl	0.800214	0.256018	0.259192
Cl167	Cl	1.133547	0.589351	0.592525
Cl168	Cl	1.466880	0.922684	0.925858
H169	H	1.007110	-0.346414	-0.058255
H170	H	1.340443	-0.013080	0.275079
H171	H	1.673777	0.320253	0.608412
Cl172	Cl	0.851038	-0.444869	-0.100279
Cl173	Cl	1.184371	-0.111536	0.233054
Cl174	Cl	1.517704	0.221798	0.566388
Cl175	Cl	0.516269	0.125960	0.205749
Cl176	Cl	0.849602	0.459293	0.539082
Cl177	Cl	1.182935	0.792626	0.872415
Cl178	Cl	0.143850	0.121534	0.248164
Cl179	Cl	0.477183	0.454867	0.581498
Cl180	Cl	0.810517	0.788200	0.914831
Cl181	Cl	0.345772	0.108096	-0.079907
Cl182	Cl	0.679106	0.441429	0.253426
Cl183	Cl	1.012439	0.774763	0.586759
Cl184	Cl	0.718198	0.112516	-0.122317
Cl185	Cl	1.051532	0.445849	0.211016
Cl186	Cl	1.384865	0.779183	0.544349
Cl187	Cl	1.042157	-0.001128	0.275536
Cl188	Cl	1.375491	0.332206	0.608870
Cl189	Cl	1.708824	0.665539	0.942203
Cl190	Cl	1.010917	-0.321228	0.226317
Cl191	Cl	1.344251	0.012106	0.559650
Cl192	Cl	1.677584	0.345439	0.892983
Cl193	Cl	0.701811	0.129900	0.218288
Cl194	Cl	1.035144	0.463234	0.551621
Cl195	Cl	1.368477	0.796567	0.884955
Cl196	Cl	1.102941	-0.472099	0.074647
Cl197	Cl	1.436274	-0.138765	0.407981
Cl198	Cl	1.769608	0.194568	0.741314
Cl199	Cl	0.160227	0.104164	-0.092442
Cl200	Cl	0.493560	0.437497	0.240892
Cl201	Cl	0.826893	0.770830	0.574225
Cl202	Cl	0.532649	0.108544	-0.134854
Cl203	Cl	0.865983	0.441878	0.198480
Cl204	Cl	1.199316	0.775211	0.531813
Cl205	Cl	1.061831	-0.021971	0.866663
Cl206	Cl	1.395165	0.311362	1.199996
Cl207	Cl	1.728498	0.644695	1.533329
H208	H	0.793473	-0.311631	0.053695
H209	H	1.126806	0.021703	0.387028
H210	H	1.460140	0.355036	0.720361
H211	H	0.854875	-0.419502	0.184125
H212	H	1.188208	-0.086169	0.517458
H213	H	1.521541	0.247164	0.850792
Cl214	Cl	1.032724	0.008909	0.472178
Cl215	Cl	1.366057	0.342242	0.805511
Cl216	Cl	1.699391	0.675576	1.138845
Cl217	Cl	1.071250	-0.032007	0.670010
Cl218	Cl	1.404583	0.301326	1.003344
Cl219	Cl	1.737917	0.634660	1.336677
Cl220	Cl	0.790793	0.266057	0.455837
Cl221	Cl	1.124126	0.599391	0.789171
Cl222	Cl	1.457459	0.932724	1.122504
H223	H	0.844555	0.208971	0.832633
H224	H	1.177888	0.542305	1.165966
H225	H	1.511221	0.875638	1.499299
H226	H	0.852124	0.200895	0.674580
H227	H	1.185458	0.534228	1.007914
H228	H	1.518791	0.867561	1.341247
