data_functionalizedCrystal
_audit_creation_method	'MofGen! by Chris Wilmer'
_symmetry_space_group_name_H-M	'P1'
_symmetry_Int_Tables_number	1
_symmetry_cell_setting	triclinic
loop_
_symmetry_equiv_pos_as_xyz
  x,y,z
_cell_length_a	13.262508
_cell_length_b	12.837943
_cell_length_c	11.892095
_cell_angle_alpha	94.310562
_cell_angle_beta	109.778227
_cell_angle_gamma	90.568008
loop_
_atom_site_label
_atom_site_type_symbol
_atom_site_fract_x
_atom_site_fract_y
_atom_site_fract_z
O1	O	0.272309	-1.377347	-0.010255
O2	O	0.258552	-1.075781	-0.014492
O3	O	0.110334	-1.237510	-0.060054
O4	O	0.420527	-1.215618	0.035307
O5	O	0.122671	-1.224025	0.131746
O6	O	0.270889	-1.062297	0.177308
O7	O	0.284646	-1.363863	0.181545
Zn8	Zn	0.279726	-1.210939	0.209879
Zn9	Zn	0.263471	-1.228705	-0.042826
O10	O	0.432864	-1.202134	0.227107
C11	C	0.260073	-1.030499	0.079979
C12	C	0.246213	-0.915663	0.075715
C13	C	0.076523	-1.230780	0.023553
C14	C	-0.042604	-1.230806	-0.013078
C15	C	0.283124	-1.409145	0.087072
C16	C	0.296984	-1.523981	0.091328
C17	C	-0.351515	-1.201472	0.301882
C18	C	-0.239589	-1.201439	0.336299
C19	C	-0.190337	-1.208781	0.248958
C20	C	-0.253022	-1.216155	0.127194
C21	C	-0.364959	-1.216180	0.092773
C22	C	-0.203781	-1.223489	0.039849
C23	C	-0.266466	-1.230863	-0.081915
C24	C	-0.378391	-1.230888	-0.116329
C25	C	-0.427643	-1.223546	-0.028988
C26	C	-0.091845	-1.223465	0.074270
C27	C	-0.105288	-1.238172	-0.134839
C28	C	-0.217214	-1.238205	-0.169256
C29	C	0.466674	-1.208864	0.143498
C30	C	0.585800	-1.208838	0.180120
N31	N	0.290819	-1.198821	0.382343
C32	C	0.412835	-0.671808	0.126955
C33	C	0.399818	-0.563908	0.122951
C34	C	0.207161	-0.591962	0.063711
C35	C	0.220179	-0.699861	0.067715
C36	C	0.323019	-0.739780	0.099336
C37	C	0.336036	-0.847682	0.103332
C38	C	0.143380	-0.875733	0.044100
C39	C	0.130363	-0.767834	0.040096
N40	N	0.252370	-1.240830	-0.215292
C41	C	0.175116	-1.325149	0.583423
C42	C	0.182879	-1.316687	0.704152
C43	C	0.314102	-1.173430	0.744528
C44	C	0.306339	-1.181892	0.623800
C45	C	0.236845	-1.257756	0.543251
C46	C	0.229088	-1.266222	0.422523
C47	C	0.360305	-1.122961	0.462899
C48	C	0.368068	-1.114498	0.583627
H49	H	-0.040817	-1.217451	0.173411
O50	O	0.116302	-1.389375	0.747486
H51	H	0.170105	-1.435019	0.817938
H52	H	-0.429426	-1.236883	-0.215477
H53	H	0.172506	-1.327996	0.356941
O54	O	-0.404633	-1.193571	0.396078
H55	H	-0.492995	-1.194838	0.351684
O56	O	-0.548368	-1.223582	-0.066117
H57	H	-0.572646	-1.149764	-0.029349
H58	H	0.123439	-0.559434	0.038062
O59	O	-0.069617	-1.208861	0.286147
H60	H	-0.045419	-1.282720	0.249373
O61	O	0.019445	-0.724778	0.005992
H62	H	0.025480	-0.638329	0.007842
H63	H	0.070245	-0.931090	0.021604
O64	O	-0.171979	-1.193507	0.467619
H65	H	-0.225029	-1.188421	0.522571
O66	O	0.100168	-1.406968	0.496536
H67	H	0.058544	-1.452409	0.544753
H68	H	-0.268268	-1.244208	-0.268398
O69	O	0.496695	-0.490598	0.152746
H70	H	0.470370	-0.408860	0.144662
O71	O	0.389045	-1.091613	0.831423
H72	H	0.342306	-1.038264	0.870982
O73	O	0.446955	-0.890734	0.137447
H74	H	0.452485	-0.944709	0.062516
H75	H	0.410572	-1.068087	0.430180
O76	O	-0.052184	-1.246096	-0.229058
H77	H	0.036178	-1.244852	-0.184668
H78	H	0.496572	-0.704310	0.152700
H79	H	0.424646	-1.052729	0.649222
