data_functionalizedCrystal
_audit_creation_method	'MofGen! by Chris Wilmer'
_symmetry_space_group_name_H-M	'P1'
_symmetry_Int_Tables_number	1
_symmetry_cell_setting	triclinic
loop_
_symmetry_equiv_pos_as_xyz
  x,y,z
_cell_length_a	11.026607
_cell_length_b	12.503572
_cell_length_c	11.026607
_cell_angle_alpha	85.701682
_cell_angle_beta	108.586017
_cell_angle_gamma	94.293464
loop_
_atom_site_label
_atom_site_type_symbol
_atom_site_fract_x
_atom_site_fract_y
_atom_site_fract_z
O1	O	1.732471	0.089318	0.527857
O2	O	1.365891	0.089320	0.467093
O3	O	1.518799	0.089315	0.314185
O4	O	1.579563	0.089323	0.680765
O5	O	1.507305	-0.089326	0.325709
O6	O	1.354397	-0.089322	0.478617
O7	O	1.720977	-0.089323	0.539381
Cu8	Cu	1.536638	-0.105634	0.510051
Cu9	Cu	1.550231	0.105630	0.496423
O10	O	1.568069	-0.089319	0.692289
C11	C	1.312485	-0.000001	0.461645
C12	C	1.170471	-0.000000	0.428228
N13	N	1.527086	-0.254226	0.519638
C14	C	1.116822	0.000003	0.520498
C15	C	0.970043	0.000003	0.485962
C16	C	1.513037	-0.473341	0.533751
C17	C	1.573836	-0.526670	0.472718
C18	C	1.566019	-0.648593	0.480571
C19	C	1.520853	-0.351407	0.525900
C20	C	1.774384	-0.000001	0.544829
C21	C	1.916398	0.000006	0.578245
C22	C	1.501842	-0.000004	0.272288
C23	C	1.468426	-0.000000	0.130273
N24	N	1.559790	0.254222	0.486828
C25	C	1.560695	0.000001	0.076624
C26	C	1.526160	0.000005	-0.070155
C27	C	1.585026	0.000003	0.734186
C28	C	1.618443	0.000006	0.876200
H29	H	0.907316	0.000029	0.381391
H30	H	1.723019	0.000086	-0.061078
O31	O	1.642745	-0.472067	0.403044
C32	C	1.670706	-0.437802	0.195354
C33	C	1.592563	-0.499619	0.274162
H34	H	1.630181	-0.460072	0.091143
H35	H	1.664850	-0.347759	0.201037
H36	H	1.775013	-0.459867	0.235570
H37	H	1.488226	-0.477644	0.234002
H38	H	1.598527	-0.589647	0.268479
O39	O	1.343735	0.000147	0.055302
C40	C	1.183479	0.092737	-0.113219
C41	C	1.324734	0.092691	-0.028424
H42	H	1.168065	0.167563	-0.180914
H43	H	1.158370	0.018030	-0.171475
H44	H	1.119401	0.092683	-0.049968
H45	H	1.388906	0.092783	-0.091579
H46	H	1.349738	0.167392	0.029842
H47	H	1.455120	-0.519246	0.591898
H48	H	1.179554	-0.000001	0.625061
O49	O	0.991162	-0.000177	0.703027
C50	C	1.043639	-0.092676	0.911411
C51	C	0.958902	-0.092619	0.770132
H52	H	1.017569	-0.167396	0.965713
H53	H	1.148699	-0.092745	0.917111
H54	H	1.027322	-0.017877	0.956023
H55	H	0.975107	-0.167406	0.725432
H56	H	0.853872	-0.092494	0.764521
O57	O	1.095458	0.000047	0.303544
C58	C	0.880766	-0.000019	0.155447
C59	C	0.965564	-0.000048	0.296704
H60	H	0.775729	-0.000118	0.149872
H61	H	0.906623	0.074760	0.101096
H62	H	0.897178	-0.074763	0.110796
H63	H	0.949198	0.074645	0.341468
H64	H	0.939689	-0.074876	0.350962
H65	H	1.665258	-0.000006	0.139358
H66	H	1.421591	0.000012	-0.132884
