data_functionalizedCrystal
_audit_creation_method	'MofGen! by Chris Wilmer'
_symmetry_space_group_name_H-M	'P1'
_symmetry_Int_Tables_number	1
_symmetry_cell_setting	triclinic
loop_
_symmetry_equiv_pos_as_xyz
  x,y,z
_cell_length_a	19.805407
_cell_length_b	12.759400
_cell_length_c	19.805399
_cell_angle_alpha	89.976763
_cell_angle_beta	89.980427
_cell_angle_gamma	90.014685
loop_
_atom_site_label
_atom_site_type_symbol
_atom_site_fract_x
_atom_site_fract_y
_atom_site_fract_z
Zn1	Zn	1.034791	-0.418291	-0.382740
Zn2	Zn	1.034729	-0.593984	-0.269560
Zn3	Zn	0.921605	-0.418320	-0.269565
Zn4	Zn	0.921592	-0.593928	-0.382707
O5	O	0.978179	-0.506131	-0.326143
O6	O	1.129499	-0.441608	-0.367739
O7	O	1.019702	-0.570717	-0.174844
O8	O	0.936651	-0.271295	-0.284593
O9	O	1.129454	-0.570689	-0.284586
O10	O	1.019808	-0.271273	-0.367743
O11	O	0.936591	-0.441657	-0.174848
O12	O	0.826887	-0.441603	-0.284561
O13	O	0.936629	-0.570594	-0.477428
O14	O	0.826877	-0.570622	-0.367687
O15	O	1.019795	-0.441554	-0.477452
O16	O	1.019689	-0.740998	-0.284554
O17	O	0.936568	-0.740957	-0.367682
C18	C	0.802323	-0.506110	-0.326121
C19	C	0.727091	-0.506127	-0.326128
C20	C	0.691760	-0.573408	-0.369341
C21	C	0.621071	-0.573410	-0.369351
C22	C	0.585716	-0.506135	-0.326143
C23	C	0.621052	-0.438847	-0.282928
C24	C	0.691739	-0.438840	-0.282922
C25	C	0.335979	-0.438870	-0.282950
C26	C	0.265287	-0.438884	-0.282958
C27	C	0.265311	-0.573440	-0.369379
C28	C	0.335998	-0.573433	-0.369373
C29	C	0.371328	-0.506141	-0.326161
C30	C	0.447977	-0.506139	-0.326152
C31	C	0.509069	-0.506142	-0.326148
C32	C	0.978139	-0.779098	-0.326129
C33	C	0.978184	-0.895875	-0.326146
C34	C	1.021513	-0.950723	-0.282908
C35	C	1.021555	-1.060447	-0.282929
C36	C	0.934932	-1.060464	-0.369426
C37	C	0.934894	-0.950742	-0.369408
C38	C	1.064802	-0.895855	-0.239646
C39	C	1.108135	-0.950704	-0.196404
C40	C	1.108176	-1.060428	-0.196425
C41	C	1.064886	-1.115303	-0.239687
C42	C	1.154722	-0.506152	-0.326165
C43	C	1.229954	-0.506160	-0.326175
C44	C	0.978217	-0.506064	-0.502686
C45	C	0.978233	-0.506036	-0.577918
C46	C	0.978238	-0.232097	-0.326172
C47	C	0.978263	-0.115321	-0.326184
C48	C	1.021539	-0.438842	-0.613276
C49	C	1.021546	-0.438811	-0.683964
C50	C	0.978250	-0.505981	-0.719294
C51	C	0.934940	-0.573179	-0.683931
C52	C	0.934930	-0.573203	-0.613244
C53	C	0.934978	-0.573081	-0.969004
C54	C	0.934992	-0.573054	-1.039696
C55	C	1.021594	-0.438689	-1.039725
C56	C	1.021584	-0.438713	-0.969038
C57	C	0.978272	-0.505906	-0.933681
C58	C	0.978264	-0.505937	-0.857033
C59	C	0.978261	-0.505957	-0.795941
C60	C	0.978180	-0.506121	-0.150287
C61	C	0.978295	-0.505853	-0.075055
H62	H	0.364781	-0.628219	-0.404555
H63	H	1.064772	-0.806512	-0.239622
C64	C	0.887820	-1.119906	-0.416351
C65	C	0.820852	-1.093292	-0.401558
C66	C	0.777432	-1.148016	-0.444776
H67	H	0.893955	-1.193124	-0.410211
H68	H	0.897652	-1.101844	-0.461846
H69	H	0.811022	-1.111361	-0.356074
H70	H	0.814695	-1.020084	-0.407702
H71	H	0.787264	-1.129955	-0.490271
H72	H	0.783573	-1.221232	-0.438633
H73	H	0.731990	-1.129960	-0.434749
H74	H	1.143384	-0.906019	-0.161186
H75	H	0.364736	-0.384085	-0.247759
C76	C	0.226829	-0.646379	-0.416277
C77	C	0.157356	-0.631969	-0.407053
C78	C	0.121888	-0.699133	-0.450247
H79	H	0.238318	-0.716991	-0.406333
H80	H	0.238399	-0.631087	-0.461785
H81	H	0.145792	-0.647269	-0.361556
H82	H	0.145847	-0.561372	-0.417002
H83	H	0.133458	-0.683840	-0.495755
H84	H	0.133383	-0.769740	-0.440299
H85	H	0.074748	-0.689358	-0.443999
H86	H	1.143464	-1.105083	-0.161221
C87	C	1.065009	-1.234434	-0.239590
C88	C	1.112213	-1.270727	-0.192457
C89	C	1.112337	-1.380461	-0.192341
H90	H	1.076721	-1.259322	-0.283245
H91	H	1.021359	-1.259364	-0.227816
H92	H	1.155853	-1.245807	-0.204235
H93	H	1.100511	-1.245868	-0.148796
H94	H	1.068687	-1.405391	-0.180566
H95	H	1.124048	-1.405339	-0.235997
H96	H	1.144359	-1.405100	-0.160357
H97	H	0.899613	-0.906084	-0.404617
C98	C	1.068573	-0.365797	-0.575043
C99	C	1.106486	-0.306924	-0.621142
C100	C	1.149814	-0.239610	-0.585950
H101	H	1.098113	-0.405880	-0.547467
H102	H	1.042702	-0.319970	-0.547483
H103	H	1.132356	-0.352745	-0.648690
H104	H	1.076964	-0.266819	-0.648720
H105	H	1.123943	-0.193783	-0.558389
H106	H	1.179349	-0.279702	-0.558374
H107	H	1.175539	-0.199650	-0.617222
H108	H	1.056812	-0.384097	-0.712749
H109	H	0.720541	-0.628195	-0.404524
H110	H	0.592260	-0.384066	-0.247750
H111	H	1.056843	-0.384020	-0.940276
C112	C	0.582680	-0.646293	-0.416351
C113	C	0.542139	-0.586908	-0.459822
C114	C	0.506773	-0.654015	-0.503137
H115	H	0.555032	-0.692039	-0.390489
H116	H	0.613843	-0.686342	-0.442117
H117	H	0.510980	-0.546878	-0.434059
H118	H	0.569770	-0.541165	-0.485699
H119	H	0.537936	-0.694064	-0.528903
H120	H	0.479129	-0.699758	-0.477270
H121	H	0.479267	-0.613732	-0.532641
H122	H	1.056859	-0.383973	-1.068521
H123	H	0.899733	-0.627754	-1.068460
H124	H	0.899720	-0.627809	-0.940225
C125	C	0.729980	-0.365758	-0.235926
C126	C	0.683890	-0.306865	-0.198072
C127	C	0.719091	-0.239538	-0.154766
H128	H	0.757575	-0.319937	-0.261789
H129	H	0.757522	-0.405866	-0.206352
H130	H	0.656359	-0.266760	-0.227642
H131	H	0.656293	-0.352658	-0.172196
H132	H	0.746633	-0.279645	-0.125192
H133	H	0.746685	-0.193724	-0.180634
H134	H	0.687824	-0.199577	-0.129073
H135	H	0.899659	-0.627909	-0.584456
C136	C	0.227021	-0.365717	-0.236022
C137	C	0.273090	-0.306761	-0.198190
C138	C	0.237865	-0.239345	-0.154955
H139	H	0.199427	-0.405730	-0.206427
H140	H	0.199476	-0.319947	-0.261956
H141	H	0.300624	-0.352526	-0.172258
H142	H	0.300686	-0.266727	-0.227768
H143	H	0.210319	-0.193575	-0.180890
H144	H	0.210272	-0.279367	-0.125365
H145	H	0.269117	-0.199329	-0.129286
C146	C	0.888004	-0.646066	-0.722408
C147	C	0.897294	-0.631686	-0.791881
C148	C	0.854075	-0.698824	-0.827346
H149	H	0.842501	-0.630754	-0.710899
H150	H	0.897899	-0.716685	-0.710855
H151	H	0.887394	-0.561083	-0.803429
H152	H	0.942788	-0.647006	-0.803411
H153	H	0.863969	-0.769443	-0.815793
H154	H	0.808575	-0.683506	-0.815831
H155	H	0.860376	-0.689083	-0.874487
