data_functionalizedCrystal
_audit_creation_method	'MofGen! by Chris Wilmer'
_symmetry_space_group_name_H-M	'P1'
_symmetry_Int_Tables_number	1
_symmetry_cell_setting	triclinic
loop_
_symmetry_equiv_pos_as_xyz
  x,y,z
_cell_length_a	14.044191
_cell_length_b	13.101039
_cell_length_c	17.699083
_cell_angle_alpha	86.645432
_cell_angle_beta	88.237396
_cell_angle_gamma	93.662449
loop_
_atom_site_label
_atom_site_type_symbol
_atom_site_fract_x
_atom_site_fract_y
_atom_site_fract_z
O1	O	1.262509	0.085168	0.178644
O2	O	1.595842	0.418502	0.511978
O3	O	1.929175	0.751835	0.845311
O4	O	0.986555	0.085181	0.172055
O5	O	1.319888	0.418515	0.505388
O6	O	1.653222	0.751848	0.838721
O7	O	1.132328	0.085165	0.065699
O8	O	1.465661	0.418499	0.399032
O9	O	1.798994	0.751832	0.732365
O10	O	1.116736	0.085184	0.285000
O11	O	1.450069	0.418518	0.618334
O12	O	1.783403	0.751851	0.951667
O13	O	1.121869	-0.085263	0.073343
O14	O	1.455202	0.248070	0.406677
O15	O	1.788535	0.581403	0.740010
O16	O	0.976096	-0.085247	0.179699
O17	O	1.309429	0.248086	0.513033
O18	O	1.642763	0.581419	0.846366
O19	O	1.252050	-0.085260	0.186289
O20	O	1.585383	0.248073	0.519622
O21	O	1.918716	0.581406	0.852956
Zn22	Zn	1.112412	-0.112313	0.184208
Zn23	Zn	1.445745	0.221020	0.517541
Zn24	Zn	1.779079	0.554354	0.850875
Zn25	Zn	1.126192	0.112234	0.174136
Zn26	Zn	1.459526	0.445567	0.507469
Zn27	Zn	1.792859	0.778901	0.840802
O28	O	1.106277	-0.085244	0.292645
O29	O	1.439610	0.248089	0.625978
O30	O	1.772944	0.581422	0.959312
C31	C	0.946018	-0.000032	0.172994
C32	C	1.279351	0.333302	0.506328
C33	C	1.612684	0.666635	0.839661
C34	C	0.840812	-0.000027	0.164396
C35	C	1.174145	0.333306	0.497730
C36	C	1.507479	0.666640	0.831063
N37	N	1.103014	-0.265561	0.191082
N38	N	1.436348	0.067773	0.524415
N39	N	1.769681	0.401106	0.857749
C40	C	0.590421	-0.000033	0.209657
C41	C	0.923754	0.333300	0.542990
C42	C	1.257087	0.666633	0.876324
C43	C	0.648190	-0.000037	0.148690
C44	C	0.981523	0.333297	0.482023
C45	C	1.314857	0.666630	0.815356
C46	C	0.755375	-0.000031	0.157431
C47	C	1.088708	0.333302	0.490764
C48	C	1.422041	0.666635	0.824098
C49	C	0.483226	-0.000039	0.200917
C50	C	0.816559	0.333295	0.534250
C51	C	1.149893	0.666628	0.867584
C52	C	1.090228	-0.474602	0.200441
C53	C	1.423562	-0.141268	0.533775
C54	C	1.756895	0.192065	0.867108
C55	C	1.148381	-0.525484	0.157899
C56	C	1.481714	-0.192150	0.491233
C57	C	1.815047	0.141183	0.824566
C58	C	1.141266	-0.641801	0.163107
C59	C	1.474600	-0.308468	0.496440
C60	C	1.807933	0.024865	0.829773
C61	C	1.097341	-0.358274	0.195235
C62	C	1.430675	-0.024940	0.528568
C63	C	1.764008	0.308393	0.861901
C64	C	1.292587	-0.000045	0.185349
C65	C	1.625920	0.333288	0.518682
C66	C	1.959254	0.666621	0.852016
C67	C	1.397793	-0.000043	0.193947
C68	C	1.731127	0.333290	0.527280
C69	C	2.064460	0.666624	0.860614
C70	C	1.126539	-0.000049	0.041286
C71	C	1.459873	0.333284	0.374619
C72	C	1.793206	0.666618	0.707952
C73	C	1.124863	-0.000049	-0.042848
C74	C	1.458197	0.333284	0.290485
C75	C	1.791530	0.666617	0.623818
N76	N	1.135598	0.265482	0.167256
N77	N	1.468931	0.598815	0.500590
N78	N	1.802264	0.932148	0.833923
C79	C	1.210429	-0.000055	-0.085565
C80	C	1.543762	0.333279	0.247769
C81	C	1.877096	0.666612	0.581102
C82	C	1.208849	-0.000046	-0.164617
C83	C	1.542182	0.333288	0.168716
C84	C	1.875515	0.666621	0.502049
C85	C	1.121702	-0.000038	-0.200952
C86	C	1.455035	0.333295	0.132381
C87	C	1.788368	0.666628	0.465715
C88	C	1.036130	-0.000030	-0.158230
C89	C	1.369463	0.333303	0.175103
C90	C	1.702796	0.666637	0.508437
C91	C	1.037711	-0.000032	-0.079179
C92	C	1.371044	0.333302	0.254154
C93	C	1.704378	0.666635	0.587488
C94	C	1.029750	-0.000021	-0.477034
C95	C	1.363083	0.333312	-0.143700
C96	C	1.696417	0.666645	0.189633
C97	C	1.028175	-0.000023	-0.556090
C98	C	1.361508	0.333311	-0.222757
C99	C	1.694841	0.666644	0.110576
C100	C	1.200888	-0.000035	-0.562472
C101	C	1.534221	0.333298	-0.229139
C102	C	1.867554	0.666631	0.104195
C103	C	1.202469	-0.000037	-0.483421
C104	C	1.535802	0.333296	-0.150088
C105	C	1.869136	0.666630	0.183245
C106	C	1.116898	-0.000023	-0.440706
C107	C	1.450231	0.333310	-0.107373
C108	C	1.783565	0.666644	0.225960
C109	C	1.118612	-0.000031	-0.354988
C110	C	1.451946	0.333302	-0.021655
C111	C	1.785279	0.666636	0.311678
C112	C	1.119986	-0.000038	-0.286668
C113	C	1.453319	0.333296	0.046665
C114	C	1.786652	0.666629	0.379999
C115	C	1.112065	-0.000028	0.317058
C116	C	1.445399	0.333306	0.650391
C117	C	1.778732	0.666639	0.983725
C118	C	1.113742	-0.000021	0.401192
C119	C	1.447075	0.333313	0.734525
C120	C	1.780409	0.666646	1.067858
H121	H	0.617154	0.000030	0.089926
H122	H	0.950487	0.333364	0.423259
H123	H	1.283821	0.666697	0.756593
Br124	Br	1.320744	-0.000046	-0.434114
Br125	Br	1.654078	0.333287	-0.100781
Br126	Br	1.987411	0.666621	0.232553
Br127	Br	0.909895	-0.000014	-0.605401
Br128	Br	1.243229	0.333319	-0.272068
Br129	Br	1.576562	0.666653	0.061266
H130	H	0.621460	-0.000025	0.268413
H131	H	0.954793	0.333308	0.601746
H132	H	1.288126	0.666641	0.935079
H133	H	1.281394	-0.000067	-0.055987
H134	H	1.614727	0.333266	0.277346
H135	H	1.948060	0.666600	0.610680
Br136	Br	0.998349	-0.547592	0.267663
Br137	Br	1.331682	-0.214258	0.600996
Br138	Br	1.665015	0.119075	0.934330
Br139	Br	1.324979	-0.000053	-0.222587
Br140	Br	1.658312	0.333281	0.110746
Br141	Br	1.991646	0.666614	0.444079
H142	H	1.203510	-0.481687	0.117567
H143	H	1.536843	-0.148354	0.450901
H144	H	1.870176	0.184979	0.784234
H145	H	1.270564	-0.000041	-0.597261
H146	H	1.603898	0.333292	-0.263927
H147	H	1.937231	0.666625	0.069406
H148	H	0.960072	-0.000010	-0.442264
H149	H	1.293406	0.333323	-0.108931
H150	H	1.626739	0.666656	0.224402
H151	H	0.965173	-0.000018	-0.187820
H152	H	1.298506	0.333316	0.145513
H153	H	1.631840	0.666649	0.478847
H154	H	0.968035	-0.000027	-0.044400
H155	H	1.301368	0.333306	0.288934
H156	H	1.634701	0.666640	0.622267
