data_functionalizedCrystal
_audit_creation_method	'MofGen! by Chris Wilmer'
_symmetry_space_group_name_H-M	'P1'
_symmetry_Int_Tables_number	1
_symmetry_cell_setting	triclinic
loop_
_symmetry_equiv_pos_as_xyz
  x,y,z
_cell_length_a	15.944551
_cell_length_b	14.519709
_cell_length_c	14.421503
_cell_angle_alpha	90.003352
_cell_angle_beta	89.996859
_cell_angle_gamma	83.589442
loop_
_atom_site_label
_atom_site_type_symbol
_atom_site_fract_x
_atom_site_fract_y
_atom_site_fract_z
O1	O	-1.114702	-0.118929	0.077017
O2	O	-0.870173	-0.133593	0.077040
O3	O	-0.998921	0.007989	0.077020
O4	O	-0.985954	-0.260511	0.077038
O5	O	-0.998900	0.007968	-0.077204
O6	O	-0.870152	-0.133614	-0.077183
O7	O	-1.114680	-0.118950	-0.077206
Cu8	Cu	-0.992414	-0.126284	-0.091277
Cu9	Cu	-0.992440	-0.126259	0.091110
O10	O	-0.985933	-0.260532	-0.077186
C11	C	-0.838868	-0.132995	-0.000069
C12	C	-0.745619	-0.131170	-0.000060
C13	C	-0.998306	0.042337	-0.000092
C14	C	-0.996495	0.144715	-0.000093
C15	C	-1.145986	-0.119548	-0.000096
C16	C	-1.239235	-0.121373	-0.000098
C17	C	-0.530629	-0.039048	-0.000084
C18	C	-0.469681	-0.081816	0.075959
C19	C	-0.574889	-0.127868	-0.000071
C20	C	-0.469683	-0.081858	-0.076093
C21	C	-0.409971	-0.124672	-0.000086
C22	C	-0.515169	-0.170660	0.076035
C23	C	-0.515177	-0.170689	-0.076086
C24	C	-0.454247	-0.213522	-0.000024
C25	C	-0.669894	-0.129706	-0.000062
C26	C	-0.314967	-0.122840	-0.000089
C27	C	-0.986548	-0.294880	-0.000072
C28	C	-0.988359	-0.397258	-0.000066
N29	N	-0.992403	-0.126301	-0.219558
C30	C	-0.989829	0.519599	-0.000068
C31	C	-0.991680	0.415295	-0.000075
C32	C	-0.993162	0.332160	-0.000081
C33	C	-0.995013	0.227849	-0.000086
C34	C	-0.932859	-0.191739	-0.469202
C35	C	-1.008785	-0.209643	-0.531011
C36	C	-0.992423	-0.126279	-0.408719
C37	C	-0.916517	-0.108396	-0.531005
C38	C	-0.992436	-0.126260	-0.591441
C39	C	-1.068388	-0.144225	-0.469167
C40	C	-0.976069	-0.042941	-0.469156
C41	C	-1.052050	-0.060810	-0.530936
C42	C	-0.992415	-0.126292	-0.303458
C43	C	-0.992453	-0.126246	-0.696700
N44	N	-0.992458	-0.126235	0.219392
H45	H	-0.563855	0.034665	0.000005
H46	H	-0.449526	-0.044240	0.140243
H47	H	-0.535220	-0.208190	0.140394
H48	H	-0.535354	-0.208234	-0.140373
N49	N	-0.412790	-0.306091	0.000040
N50	N	-0.424587	-0.359707	0.065392
H51	H	-0.395307	-0.425084	0.065442
N52	N	-0.444406	-0.034712	-0.156734
N53	N	-0.472058	0.048175	-0.170266
H54	H	-0.454210	0.081479	-0.227214
N55	N	-0.835979	-0.089445	-0.565085
N56	N	-0.771273	-0.142533	-0.545306
H57	H	-0.714392	-0.129158	-0.569375
H58	H	-0.882540	-0.247141	-0.442096
H59	H	-1.022630	-0.280112	-0.558180
N60	N	-1.148940	-0.163287	-0.435229
N61	N	-1.161926	-0.166401	-0.349867
H62	H	-1.218814	-0.179865	-0.325895
N63	N	-1.115320	0.008648	-0.564720
N64	N	-1.191137	0.004882	-0.544703
H65	H	-1.235825	0.053934	-0.568564
H66	H	-0.962201	0.027505	-0.441965
