data_functionalizedCrystal
_audit_creation_method	'MofGen! by Chris Wilmer'
_symmetry_space_group_name_H-M	'P1'
_symmetry_Int_Tables_number	1
_symmetry_cell_setting	triclinic
loop_
_symmetry_equiv_pos_as_xyz
  x,y,z
_cell_length_a	13.635800
_cell_length_b	7.190339
_cell_length_c	7.190334
_cell_angle_alpha	82.319600
_cell_angle_beta	60.611776
_cell_angle_gamma	60.611724
loop_
_atom_site_label
_atom_site_type_symbol
_atom_site_fract_x
_atom_site_fract_y
_atom_site_fract_z
V1	V	-2.154325	0.291701	0.663510
V2	V	-1.654325	0.791701	1.163510
O3	O	-2.100792	-0.017518	0.652431
O4	O	-1.600792	0.482482	1.152431
O5	O	-2.172020	0.581760	0.657480
O6	O	-1.672020	1.081760	1.157480
O7	O	-2.172022	0.285678	0.953571
O8	O	-1.672022	0.785678	1.453571
O9	O	-2.100790	0.280614	0.354291
O10	O	-1.600790	0.780614	0.854291
V11	V	-2.385281	0.254896	0.626707
V12	V	-1.885281	0.754896	1.126707
O13	O	-2.308656	0.372435	0.744243
O14	O	-1.808656	0.872435	1.244243
O15	O	-2.456048	0.174162	0.545974
O16	O	-1.956048	0.674162	1.045974
O17	O	-2.255982	-0.035163	0.632737
O18	O	-1.755982	0.464837	1.132737
O19	O	-2.497512	0.564115	0.637786
O20	O	-1.997512	1.064115	1.137786
O21	O	-2.497514	0.265983	0.935926
O22	O	-1.997514	0.765983	1.435926
O23	O	-2.255980	0.260919	0.336646
O24	O	-1.755980	0.760919	0.836646
V25	V	-1.885274	0.254896	0.626707
V26	V	-1.385274	0.754896	1.126707
O27	O	-1.938809	0.265983	0.935926
O28	O	-1.438809	0.765983	1.435926
O29	O	-1.867576	0.260919	0.336646
O30	O	-1.367576	0.760919	0.836646
O31	O	-1.867578	-0.035163	0.632737
O32	O	-1.367578	0.464837	1.132737
O33	O	-1.938807	0.564115	0.637786
O34	O	-1.438807	1.064115	1.137786
V35	V	-1.654317	0.291701	0.663510
V36	V	-1.154317	0.791701	1.163510
O37	O	-1.730942	0.174162	0.545974
O38	O	-1.230942	0.674162	1.045974
O39	O	-1.583550	0.372435	0.744243
O40	O	-1.083550	0.872435	1.244243
O41	O	-1.783618	0.285678	0.953571
O42	O	-1.283618	0.785678	1.453571
O43	O	-1.542084	0.280614	0.354291
O44	O	-1.042084	0.780614	0.854291
O45	O	-1.542086	-0.017518	0.652431
O46	O	-1.042086	0.482482	1.152431
O47	O	-1.783616	0.581760	0.657480
O48	O	-1.283616	1.081760	1.157480
C49	C	-2.103367	0.652521	0.646638
C50	C	-1.603367	1.152521	1.146638
C51	C	-2.159800	0.894096	0.643590
C52	C	-1.659800	1.394096	1.143590
C53	C	-2.103363	0.274825	1.024318
C54	C	-1.603363	0.774825	1.524318
C55	C	-2.159792	0.271761	1.265891
C56	C	-1.659792	0.771761	1.765891
C57	C	-1.936230	0.271764	0.265885
C58	C	-1.436230	0.771764	0.765885
C59	C	-1.879799	0.274818	0.024311
C60	C	-1.379799	0.774818	0.524311
C61	C	-1.936238	-0.105910	0.643592
C62	C	-1.436238	0.394090	1.143592
C63	C	-1.879812	-0.347481	0.646667
C64	C	-1.379812	0.152519	1.146667
