data_functionalizedCrystal
_audit_creation_method	'MofGen! by Chris Wilmer'
_symmetry_space_group_name_H-M	'P1'
_symmetry_Int_Tables_number	1
_symmetry_cell_setting	triclinic
loop_
_symmetry_equiv_pos_as_xyz
  x,y,z
_cell_length_a	17.699083
_cell_length_b	14.044220
_cell_length_c	16.776229
_cell_angle_alpha	89.992645
_cell_angle_beta	89.998886
_cell_angle_gamma	88.235946
loop_
_atom_site_label
_atom_site_type_symbol
_atom_site_fract_x
_atom_site_fract_y
_atom_site_fract_z
O1	O	1.012346	0.119850	-0.066178
O2	O	0.793043	0.135443	-0.066204
O3	O	0.899403	-0.010330	-0.066183
O4	O	0.905986	0.265624	-0.066198
O5	O	0.899387	-0.010339	0.066393
O6	O	0.793027	0.135434	0.066372
O7	O	1.012330	0.119841	0.066399
Zn8	Zn	0.902676	0.127636	0.087435
Zn9	Zn	0.902697	0.127648	-0.087240
O10	O	0.905970	0.265615	0.066378
C11	C	0.764800	0.134880	0.000081
C12	C	0.680666	0.133204	0.000071
C13	C	0.637948	0.218769	0.000067
C14	C	0.558895	0.217189	0.000077
C15	C	0.522563	0.130041	0.000086
C16	C	0.565287	0.044469	0.000093
C17	C	0.644338	0.046050	0.000088
C18	C	0.246484	0.038089	0.000113
C19	C	0.167427	0.036514	0.000115
C20	C	0.161041	0.209227	0.000102
C21	C	0.240092	0.210809	0.000097
C22	C	0.282809	0.125237	0.000108
C23	C	0.368527	0.126952	0.000098
C24	C	0.436847	0.128325	0.000090
C25	C	0.896513	-0.045643	0.000105
C26	C	0.887917	-0.150849	0.000105
C27	C	0.872202	-0.343474	0.000091
C28	C	0.933168	-0.401248	0.000096
C29	C	0.924424	-0.508431	0.000089
C30	C	0.880945	-0.236281	0.000099
C31	C	1.040574	0.120404	0.000112
C32	C	1.124707	0.122081	0.000117
C33	C	0.908860	0.300927	0.000088
C34	C	0.917456	0.406133	0.000083
N35	N	0.902667	0.127628	0.206646
N36	N	0.902712	0.127649	-0.206452
C37	C	0.949781	0.063106	0.248372
C38	C	0.949785	0.063105	0.331825
C39	C	0.902679	0.127631	0.373549
C40	C	0.855560	0.192156	0.331817
C41	C	0.855552	0.192152	0.248366
C42	C	0.855589	0.192175	0.668364
C43	C	0.855601	0.192176	0.751821
C44	C	0.949821	0.063128	0.751822
C45	C	0.949813	0.063123	0.668372
C46	C	0.902692	0.127645	0.626647
C47	C	0.902687	0.127644	0.536159
C48	C	0.902687	0.127638	0.464036
H49	H	0.524117	0.286865	0.000073
H50	H	0.991930	-0.370212	0.000050
C51	C	1.051272	0.042174	0.574342
C52	C	1.001455	-0.007892	0.622431
H53	H	1.083113	-0.001697	0.545962
H54	H	1.023210	0.080680	0.537615
H55	H	1.081287	0.081483	0.606841
H56	H	0.971435	-0.047195	0.589931
H57	H	1.029519	-0.046414	0.659163
H58	H	0.813445	-0.374508	0.000082
C59	C	0.037025	0.283508	0.000113
C60	C	0.114084	0.303293	0.000101
H61	H	0.008039	0.341580	0.000115
H62	H	0.025382	0.247775	-0.046112
H63	H	0.025393	0.247766	0.046353
H64	H	0.125717	0.339030	-0.046143
H65	H	0.125731	0.339041	0.046330
H66	H	0.988143	0.010565	0.214406
H67	H	0.988187	0.010588	0.785804
H68	H	0.988148	0.010565	0.365798
H69	H	0.679119	-0.023626	0.000091
H70	H	0.817239	0.244723	0.785791
C71	C	0.762463	0.319744	0.676757
C72	C	0.803800	0.263103	0.622507
H73	H	0.730493	0.363538	0.648442
H74	H	0.732586	0.280337	0.709313
H75	H	0.796277	0.353782	0.709297
H76	H	0.769986	0.229060	0.589971
H77	H	0.833679	0.302515	0.589937
C78	C	0.723148	0.320743	0.068200
C79	C	0.677884	0.314564	0.000053
H80	H	0.747804	0.379882	0.068188
H81	H	0.692444	0.316540	0.114426
H82	H	0.759901	0.270004	0.068192
H83	H	0.641127	0.365299	0.000064
H84	H	0.708590	0.318777	-0.046185
H85	H	0.817201	0.244692	0.365794
C86	C	0.762425	0.319724	0.256741
C87	C	0.803768	0.263081	0.202498
H88	H	0.730457	0.363515	0.228423
H89	H	0.732547	0.280318	0.289298
H90	H	0.796236	0.353765	0.289282
H91	H	0.769956	0.229034	0.169960
H92	H	0.833648	0.302492	0.169927
H93	H	0.269670	0.281773	0.000086
H94	H	0.281255	-0.031590	0.000123
C95	C	0.181676	-0.134063	0.000147
C96	C	0.127489	-0.059286	0.000134
H97	H	0.157018	-0.193201	0.000163
H98	H	0.212374	-0.129861	-0.046084
H99	H	0.212378	-0.129846	0.046382
H100	H	0.096791	-0.063499	-0.046104
H101	H	0.096778	-0.063490	0.046369
H102	H	0.535699	-0.026488	0.000112
