data_functionalizedCrystal
_audit_creation_method	'MofGen! by Chris Wilmer'
_symmetry_space_group_name_H-M	'P1'
_symmetry_Int_Tables_number	1
_symmetry_cell_setting	triclinic
loop_
_symmetry_equiv_pos_as_xyz
  x,y,z
_cell_length_a	12.784890
_cell_length_b	15.944493
_cell_length_c	11.892095
_cell_angle_alpha	93.894412
_cell_angle_beta	86.513306
_cell_angle_gamma	78.290801
loop_
_atom_site_label
_atom_site_type_symbol
_atom_site_fract_x
_atom_site_fract_y
_atom_site_fract_z
O1	O	1.417112	-0.000609	-0.093969
O2	O	1.107650	0.035366	-0.093973
O3	O	1.270864	-0.105521	-0.093980
O4	O	1.253897	0.140277	-0.093962
O5	O	1.257256	-0.093790	0.094028
O6	O	1.094041	0.047096	0.094035
O7	O	1.403504	0.011121	0.094040
Zn8	Zn	1.246612	0.030971	0.123887
Zn9	Zn	1.264542	0.015516	-0.123821
O10	O	1.240289	0.152007	0.094046
C11	C	1.061246	0.043571	0.000030
C12	C	0.943250	0.050532	0.000027
C13	C	1.263367	-0.130900	0.000019
C14	C	1.261289	-0.223997	0.000005
C15	C	0.764257	0.137784	0.000032
C16	C	0.875123	0.131248	0.000032
C17	C	0.900505	-0.023654	0.000020
C18	C	0.789639	-0.017118	0.000020
C19	C	0.721518	0.063604	0.000028
C20	C	0.610649	0.070140	0.000037
C21	C	0.636033	-0.084762	0.000017
C22	C	0.746900	-0.091298	0.000016
C23	C	1.357359	-0.466778	0.000027
C24	C	1.312261	-0.519343	-0.092671
C25	C	1.257436	-0.394436	0.000018
C26	C	1.298821	-0.507752	0.092691
C27	C	1.253722	-0.559073	0.000037
C28	C	1.212371	-0.445780	-0.092756
C29	C	1.198939	-0.434181	0.092688
C30	C	1.153769	-0.486710	-0.000032
C31	C	1.259579	-0.299593	0.000007
C32	C	1.251571	-0.653913	0.000040
C33	C	1.449908	0.002916	0.000034
C34	C	1.567904	-0.004046	0.000029
C35	C	1.247786	0.177386	0.000045
C36	C	1.249865	0.270483	0.000052
N37	N	1.234383	0.041518	0.292942
N38	N	1.276779	0.004962	-0.292876
C39	C	1.361873	-0.068475	0.529585
C40	C	1.353333	-0.061097	0.647927
C41	C	1.208758	0.063646	0.647971
C42	C	1.217298	0.056268	0.529629
C43	C	1.293859	-0.009793	0.470440
C44	C	1.302404	-0.017167	0.352095
C45	C	1.157825	0.107572	0.352141
C46	C	1.149284	0.114950	0.470484
H47	H	0.555186	0.135868	0.000049
C48	C	1.179849	-0.415705	0.295469
C49	C	1.134367	-0.384314	0.198486
H50	H	1.139992	-0.384914	0.360788
H51	H	1.178570	-0.474996	0.296606
H52	H	1.251825	-0.408479	0.294792
H53	H	1.062392	-0.391546	0.199159
H54	H	1.135633	-0.325009	0.197348
H55	H	1.424219	-0.122260	0.481392
C56	C	1.239506	-0.377116	-0.262538
C57	C	1.163124	-0.409340	-0.198684
H58	H	1.209108	-0.354626	-0.327938
H59	H	1.261430	-0.332798	-0.218329
H60	H	1.299774	-0.422078	-0.284667
H61	H	1.102858	-0.364376	-0.176548
H62	H	1.141184	-0.453662	-0.242902
H63	H	1.146417	0.117427	0.696178
C64	C	1.007230	0.237506	0.458640
C65	C	1.065126	0.187559	0.535549
H66	H	0.955270	0.282329	0.498809
H67	H	1.054799	0.261633	0.412484
H68	H	0.972343	0.202430	0.412479
H69	H	1.100020	0.222634	0.581705
H70	H	1.017551	0.163432	0.581725
C71	C	1.454703	-0.534977	0.198295
C72	C	1.348148	-0.544365	0.198488
H73	H	1.485156	-0.557576	0.263610
H74	H	1.494234	-0.565208	0.132478
H75	H	1.456978	-0.475778	0.198686
H76	H	1.345874	-0.603565	0.198088
H77	H	1.308606	-0.514136	0.264323
H78	H	0.708791	0.203512	0.000052
H79	H	1.067635	-0.495883	-0.000085
C80	C	1.144348	0.215279	0.219086
C81	C	1.083061	0.172085	0.287129
H82	H	1.098195	0.255105	0.178947
H83	H	1.185246	0.245151	0.265253
H84	H	1.191157	0.174874	0.166897
H85	H	1.036257	0.212490	0.339324
H86	H	1.042145	0.142212	0.240958
H87	H	0.909916	0.191654	0.000037
C88	C	1.483415	-0.559796	-0.198295
C89	C	1.376882	-0.569192	-0.198462
H90	H	1.523313	-0.590575	-0.263600
H91	H	1.485763	-0.500658	-0.198716
H92	H	1.513424	-0.581798	-0.132462
H93	H	1.346870	-0.547184	-0.264291
H94	H	1.374528	-0.628343	-0.198052
H95	H	1.364746	-0.070955	0.303905
H96	H	1.408715	-0.108882	0.696079
H97	H	0.955988	-0.089373	0.000004
H98	H	0.802378	-0.157019	0.000006
H99	H	1.443437	-0.457446	-0.000064
C100	C	0.477357	-0.143530	0.000003
C101	C	0.589054	-0.166309	0.000002
H102	H	0.448357	-0.193874	-0.000011
H103	H	0.449238	-0.106555	0.065566
H104	H	0.458727	-0.114724	-0.065559
H105	H	0.607684	-0.195109	0.065569
H106	H	0.617183	-0.203298	-0.065568
