data_functionalizedCrystal
_audit_creation_method	'MofGen! by Chris Wilmer'
_symmetry_space_group_name_H-M	'P1'
_symmetry_Int_Tables_number	1
_symmetry_cell_setting	triclinic
loop_
_symmetry_equiv_pos_as_xyz
  x,y,z
_cell_length_a	19.188930
_cell_length_b	16.109302
_cell_length_c	15.186229
_cell_angle_alpha	90.005299
_cell_angle_beta	90.008857
_cell_angle_gamma	83.303281
loop_
_atom_site_label
_atom_site_type_symbol
_atom_site_fract_x
_atom_site_fract_y
_atom_site_fract_z
O1	O	0.089746	1.102833	0.073278
O2	O	0.423080	1.436166	0.406612
O3	O	0.756413	1.769500	0.739945
O4	O	0.100914	0.860734	0.073273
O5	O	0.434248	1.194067	0.406606
O6	O	0.767581	1.527401	0.739939
O7	O	-0.006309	0.988770	0.073258
O8	O	0.327024	1.322103	0.406592
O9	O	0.660358	1.655437	0.739925
O10	O	0.196970	0.974797	0.073292
O11	O	0.530303	1.308130	0.406626
O12	O	0.863636	1.641464	0.739959
O13	O	-0.006310	0.988761	-0.073199
O14	O	0.327023	1.322095	0.260134
O15	O	0.660356	1.655428	0.593468
O16	O	0.100913	0.860725	-0.073185
O17	O	0.434246	1.194059	0.260149
O18	O	0.767579	1.527392	0.593482
O19	O	0.089745	1.102824	-0.073179
O20	O	0.423078	1.436158	0.260154
O21	O	0.756411	1.769491	0.593488
Zn22	Zn	0.095329	0.981774	-0.096435
Zn23	Zn	0.428662	1.315107	0.236898
Zn24	Zn	0.761995	1.648440	0.570232
Zn25	Zn	0.095331	0.981785	0.096529
Zn26	Zn	0.428664	1.315118	0.429862
Zn27	Zn	0.761997	1.648451	0.763195
O28	O	0.196968	0.974788	-0.073165
O29	O	0.530301	1.308122	0.260168
O30	O	0.863635	1.641455	0.593502
C31	C	0.100461	0.829756	0.000043
C32	C	0.433794	1.163090	0.333376
C33	C	0.767128	1.496423	0.666710
C34	C	0.099105	0.737466	0.000040
C35	C	0.432438	1.070799	0.333373
C36	C	0.765771	1.404132	0.666707
C37	C	0.095967	0.525130	-0.079786
C38	C	0.429300	0.858464	0.253548
C39	C	0.762634	1.191797	0.586881
C40	C	0.094685	0.438415	-0.079783
C41	C	0.428018	0.771748	0.253551
C42	C	0.761352	1.105081	0.586884
C43	C	0.094690	0.438434	0.079893
C44	C	0.428023	0.771768	0.413226
C45	C	0.761357	1.105101	0.746560
C46	C	0.095967	0.525149	0.079889
C47	C	0.429301	0.858483	0.413223
C48	C	0.762634	1.191816	0.746556
C49	C	0.096609	0.568495	0.000047
C50	C	0.429943	0.901828	0.333381
C51	C	0.763276	1.235161	0.666714
C52	C	0.094050	0.395064	0.000054
C53	C	0.427383	0.728397	0.333387
C54	C	0.760717	1.061730	0.666721
C55	C	0.092660	0.301043	0.000058
C56	C	0.425993	0.634376	0.333391
C57	C	0.759327	0.967709	0.666724
C58	C	0.097998	0.662522	0.000043
C59	C	0.431331	0.995855	0.333377
C60	C	0.764665	1.329189	0.666710
C61	C	-0.032322	0.988313	0.000027
C62	C	0.301012	1.321646	0.333360
C63	C	0.634345	1.654980	0.666694
C64	C	-0.109829	0.986955	0.000020
C65	C	0.223504	1.320288	0.333353
C66	C	0.556837	1.653621	0.666686
C67	C	-0.154578	1.062082	0.000017
C68	C	0.178756	1.395415	0.333350
C69	C	0.512089	1.728749	0.666684
C70	C	-0.227404	1.060806	0.000031
C71	C	0.105929	1.394139	0.333365
C72	C	0.439262	1.727473	0.666698
C73	C	-0.255480	0.984398	0.000030
C74	C	0.077854	1.317732	0.333363
C75	C	0.411187	1.651065	0.666697
C76	C	-0.210722	0.909261	0.000037
C77	C	0.122612	1.242594	0.333371
C78	C	0.455945	1.575928	0.666704
C79	C	-0.137897	0.910539	0.000032
C80	C	0.195437	1.243873	0.333366
C81	C	0.528770	1.577206	0.666699
N82	N	-0.363622	0.925991	-0.049814
N83	N	-0.030289	1.259324	0.283520
N84	N	0.303045	1.592657	0.616853
N85	N	-0.432803	0.924782	-0.049810
N86	N	-0.099470	1.258115	0.283523
N87	N	0.233863	1.591448	0.616856
C88	C	-0.474897	0.980542	0.000048
C89	C	-0.141564	1.313876	0.333381
C90	C	0.191769	1.647209	0.666714
N91	N	-0.445198	1.037571	0.049892
N92	N	-0.111865	1.370904	0.383225
N93	N	0.221469	1.704237	0.716558
N94	N	-0.376011	1.038782	0.049885
N95	N	-0.042677	1.372116	0.383218
N96	N	0.290656	1.705449	0.716551
C97	C	-0.334446	0.983004	0.000036
C98	C	-0.001112	1.316337	0.333370
C99	C	0.332221	1.649670	0.666703
C100	C	-0.598613	1.054291	0.000062
C101	C	-0.265280	1.387624	0.333395
C102	C	0.068053	1.720958	0.666728
C103	C	-0.671441	1.053012	0.000081
C104	C	-0.338108	1.386345	0.333415
C105	C	-0.004774	1.719679	0.666748
C106	C	-0.654757	0.901465	0.000079
C107	C	-0.321423	1.234798	0.333412
C108	C	0.011910	1.568132	0.666745
C109	C	-0.581931	0.902746	0.000068
C110	C	-0.248597	1.236080	0.333401
C111	C	0.084736	1.569413	0.666735
C112	C	-0.553864	0.979162	0.000055
C113	C	-0.220530	1.312495	0.333389
C114	C	0.112803	1.645828	0.666722
C115	C	0.222981	0.975245	0.000068
C116	C	0.556314	1.308579	0.333402
C117	C	0.889648	1.641912	0.666735
C118	C	0.300489	0.976604	0.000082
C119	C	0.633822	1.309937	0.333415
C120	C	0.967155	1.643270	0.666748
C121	C	0.090198	1.133802	0.000052
C122	C	0.423531	1.467135	0.333386
C123	C	0.756865	1.800469	0.666719
C124	C	0.091555	1.226093	0.000061
C125	C	0.424888	1.559426	0.333395
C126	C	0.758221	1.892759	0.666728
N127	N	0.095327	0.981772	-0.228128
N128	N	0.428660	1.315105	0.105206
N129	N	0.761993	1.648439	0.438539
C130	C	0.047864	1.038485	-0.453857
C131	C	0.381198	1.371819	-0.120524
C132	C	0.714531	1.705152	0.212810
C133	C	0.047863	1.038488	-0.546047
C134	C	0.381196	1.371821	-0.212713
C135	C	0.714529	1.705155	0.120620
C136	C	0.142792	0.925073	-0.546043
C137	C	0.476125	1.258407	-0.212710
C138	C	0.809458	1.591740	0.120624
C139	C	0.142789	0.925068	-0.453855
C140	C	0.476123	1.258401	-0.120522
C141	C	0.809456	1.591734	0.212812
C142	C	0.095327	0.981778	-0.407764
C143	C	0.428660	1.315112	-0.074431
C144	C	0.761993	1.648445	0.258902
C145	C	0.095327	0.981787	-0.592142
C146	C	0.428660	1.315120	-0.258809
C147	C	0.761994	1.648453	0.074525
C148	C	0.095326	0.981789	-0.692098
C149	C	0.428659	1.315123	-0.358765
C150	C	0.761992	1.648456	-0.025432
C151	C	0.095327	0.981775	-0.307802
C152	C	0.428660	1.315108	0.025531
C153	C	0.761994	1.648442	0.358865
N154	N	0.095327	0.981793	0.228221
N155	N	0.428660	1.315126	0.561555
N156	N	0.761993	1.648460	0.894888
H157	H	0.096488	0.560458	0.144903
H158	H	0.429822	0.893791	0.478236
H159	H	0.763155	1.227124	0.811569
C160	C	0.093987	0.390717	-0.167605
C161	C	0.427320	0.724050	0.165728
C162	C	0.760653	1.057383	0.499061
N163	N	0.093463	0.354791	-0.233757
N164	N	0.426796	0.688124	0.099576
N165	N	0.760130	1.021457	0.432909
C166	C	0.096665	0.572808	-0.167614
C167	C	0.429998	0.906142	0.165719
C168	C	0.763332	1.239475	0.499053
N169	N	0.097187	0.608718	-0.233769
N170	N	0.430521	0.942051	0.099564
N171	N	0.763854	1.275384	0.432898
H172	H	0.094168	0.403132	0.144897
H173	H	0.427502	0.736465	0.478231
H174	H	0.760835	1.069799	0.811564
C175	C	-0.004352	1.100862	-0.403160
C176	C	0.328982	1.434195	-0.069827
C177	C	0.662315	1.767529	0.263506
N178	N	-0.043685	1.147844	-0.364978
N179	N	0.289649	1.481177	-0.031645
N180	N	0.622982	1.814510	0.301688
H181	H	0.181439	0.878886	-0.416324
H182	H	0.514772	1.212219	-0.082991
H183	H	0.848106	1.545552	0.250343
H184	H	0.009214	1.084663	-0.583573
H185	H	0.342547	1.417997	-0.250239
H186	H	0.675881	1.751330	0.083094
H187	H	-0.677615	0.839252	0.000082
H188	H	-0.344281	1.172586	0.333416
H189	H	-0.010948	1.505919	0.666749
H190	H	-0.131731	1.124305	0.000010
H191	H	0.201603	1.457639	0.333343
H192	H	0.534936	1.790972	0.666676
C193	C	-0.276637	1.143455	0.000023
C194	C	0.056697	1.476788	0.333356
C195	C	0.390030	1.810122	0.666690
N196	N	-0.313716	1.205707	0.000014
N197	N	0.019617	1.539040	0.333347
N198	N	0.352951	1.872373	0.666681
H199	H	-0.545495	0.841569	0.000065
H200	H	-0.212162	1.174903	0.333398
H201	H	0.121171	1.508236	0.666732
C202	C	0.194997	0.862694	-0.596751
C203	C	0.528330	1.196027	-0.263418
C204	C	0.861663	1.529360	0.069915
N205	N	0.234318	0.815707	-0.634944
N206	N	0.567652	1.149041	-0.301611
N207	N	0.900985	1.482374	0.031723
C208	C	-0.720665	1.135663	0.000074
C209	C	-0.387332	1.468996	0.333407
C210	C	-0.053998	1.802329	0.666740
N211	N	-0.757741	1.197917	0.000064
N212	N	-0.424408	1.531250	0.333398
N213	N	-0.091075	1.864583	0.666731
H214	H	-0.233585	0.847049	0.000038
H215	H	0.099748	1.180383	0.333372
H216	H	0.433081	1.513716	0.666705
C217	C	-0.088671	0.827890	0.000032
C218	C	0.244662	1.161223	0.333366
C219	C	0.577995	1.494556	0.666699
N220	N	-0.051594	0.765637	0.000031
N221	N	0.281740	1.098970	0.333364
N222	N	0.615073	1.432303	0.666697
C223	C	-0.567737	1.138349	0.000061
C224	C	-0.234404	1.471682	0.333395
C225	C	0.098930	1.805015	0.666728
N226	N	-0.544483	1.201662	0.000064
N227	N	-0.211150	1.534995	0.333397
N228	N	0.122183	1.868328	0.666730
