data_functionalizedCrystal
_audit_creation_method	'MofGen! by Chris Wilmer'
_symmetry_space_group_name_H-M	'P1'
_symmetry_Int_Tables_number	1
_symmetry_cell_setting	triclinic
loop_
_symmetry_equiv_pos_as_xyz
  x,y,z
_cell_length_a	12.811457
_cell_length_b	15.944493
_cell_length_c	11.892095
_cell_angle_alpha	93.894412
_cell_angle_beta	91.498327
_cell_angle_gamma	83.760055
loop_
_atom_site_label
_atom_site_type_symbol
_atom_site_fract_x
_atom_site_fract_y
_atom_site_fract_z
O1	O	1.389179	0.115885	0.048426
O2	O	1.085817	0.126420	0.017326
O3	O	1.245814	-0.001049	0.033719
O4	O	1.229182	0.243354	0.032033
O5	O	1.232474	0.009563	0.220360
O6	O	1.072476	0.137032	0.203966
O7	O	1.375839	0.126496	0.235067
Zn8	Zn	1.222040	0.133449	0.249150
Zn9	Zn	1.239616	0.119468	0.003243
O10	O	1.215841	0.253965	0.218673
C11	C	1.040327	0.130811	0.106666
C12	C	0.924658	0.128072	0.094807
C13	C	0.692759	0.134481	0.276021
C14	C	0.584077	0.131909	0.264884
C15	C	0.598611	0.120348	0.061397
C16	C	0.707293	0.122921	0.072534
C17	C	0.754362	0.129989	0.179850
C18	C	0.863046	0.132568	0.190985
C19	C	0.877579	0.121001	-0.012500
C20	C	0.768897	0.118429	-0.023637
C21	C	1.238465	-0.027044	0.126965
C22	C	1.236428	-0.120313	0.126742
C23	C	1.330604	-0.355196	0.136418
C24	C	1.286395	-0.411468	0.039188
C25	C	1.232651	-0.291068	0.126368
C26	C	1.273220	-0.400982	0.223199
C27	C	1.229009	-0.456011	0.126013
C28	C	1.188473	-0.346116	0.029066
C29	C	1.175307	-0.335622	0.213160
C30	C	1.131027	-0.391864	0.115901
C31	C	1.234751	-0.196049	0.126572
C32	C	1.226901	-0.551027	0.125801
C33	C	1.421328	0.122106	0.145724
C34	C	1.536998	0.124844	0.157576
C35	C	1.223191	0.279961	0.125425
C36	C	1.225229	0.373229	0.125641
N37	N	1.210052	0.142990	0.416976
N38	N	1.251612	0.109920	-0.164582
C39	C	1.335029	0.043478	0.666429
C40	C	1.326657	0.050154	0.783913
C41	C	1.184932	0.163012	0.769430
C42	C	1.193304	0.156337	0.651946
C43	C	1.268356	0.096569	0.600450
C44	C	1.276732	0.089898	0.482964
C45	C	1.135003	0.202751	0.468482
C46	C	1.126631	0.209427	0.585966
H47	H	1.414985	-0.338788	0.144975
H48	H	1.337845	0.041234	0.441037
H49	H	1.396146	-0.005181	0.624501
H50	H	0.927748	0.117348	-0.090810
H51	H	1.333323	-0.444452	-0.034370
N52	N	1.394765	-0.004087	0.851292
N53	N	1.461763	-0.057447	0.805294
H54	H	1.509867	-0.095759	0.852879
H55	H	1.065522	0.258087	0.627908
H56	H	1.152696	-0.322109	-0.053054
H57	H	1.123820	0.211668	0.811373
N58	N	1.025104	-0.412260	0.105007
N59	N	0.959241	-0.383000	0.177092
H60	H	0.884433	-0.397406	0.169396
N61	N	1.116486	-0.294231	0.305456
N62	N	1.143080	-0.309896	0.404365
H63	H	1.101545	-0.280663	0.469559
N64	N	1.318133	-0.431234	0.326130
N65	N	1.264138	-0.467423	0.390014
H66	H	1.295863	-0.488787	0.462708
N67	N	0.740863	0.141696	0.385625
N68	N	0.837902	0.143989	0.395554
H69	H	0.871877	0.149084	0.472963
H70	H	1.080716	0.245984	0.414749
H71	H	0.533921	0.135571	0.343197
N72	N	0.911126	0.139769	0.300603
N73	N	0.979763	0.083409	0.330499
H74	H	1.013716	0.088492	0.407921
N75	N	0.550505	0.113117	-0.048205
N76	N	0.453468	0.110814	-0.058127
H77	H	0.419491	0.105706	-0.135535
H78	H	0.730558	0.112670	-0.111010
