data_functionalizedCrystal
_audit_creation_method	'MofGen! by Chris Wilmer'
_symmetry_space_group_name_H-M	'P1'
_symmetry_Int_Tables_number	1
_symmetry_cell_setting	triclinic
loop_
_symmetry_equiv_pos_as_xyz
  x,y,z
_cell_length_a	19.288840
_cell_length_b	14.853559
_cell_length_c	17.766277
_cell_angle_alpha	89.995835
_cell_angle_beta	89.983415
_cell_angle_gamma	83.378735
loop_
_atom_site_label
_atom_site_type_symbol
_atom_site_fract_x
_atom_site_fract_y
_atom_site_fract_z
O1	O	0.921741	0.112357	-0.062716
O2	O	1.421741	0.612357	0.437284
O3	O	0.719529	0.127552	-0.062690
O4	O	1.219529	0.627552	0.437310
O5	O	0.826039	-0.011307	-0.062703
O6	O	1.326039	0.488693	0.437297
O7	O	0.815230	0.251216	-0.062703
O8	O	1.315230	0.751216	0.437297
O9	O	0.826020	-0.011314	0.062485
O10	O	1.326020	0.488686	0.562485
O11	O	0.719510	0.127545	0.062499
O12	O	1.219510	0.627545	0.562499
O13	O	0.921722	0.112350	0.062472
O14	O	1.421722	0.612350	0.562472
Cu15	Cu	0.820614	0.119947	0.073916
Cu16	Cu	1.320614	0.619947	0.573916
Cu17	Cu	0.820636	0.119955	-0.074134
Cu18	Cu	1.320636	0.619955	0.425866
O19	O	0.815211	0.251209	0.062485
O20	O	1.315211	0.751209	0.562485
C21	C	0.693641	0.127063	-0.000092
C22	C	1.193641	0.627063	0.499908
C23	C	0.616531	0.125607	-0.000082
C24	C	1.116531	0.625607	0.499918
C25	C	0.580336	0.124911	-0.068324
C26	C	1.080336	0.624911	0.431676
C27	C	0.507884	0.123533	-0.068334
C28	C	1.007884	0.623533	0.431666
C29	C	0.471633	0.122832	-0.000097
C30	C	0.971633	0.622832	0.499903
C31	C	0.507837	0.123533	0.068154
C32	C	1.007837	0.623533	0.568154
C33	C	0.580286	0.124921	0.068162
C34	C	1.080286	0.624921	0.568162
C35	C	0.362113	0.067825	0.052172
C36	C	0.862113	0.567825	0.552172
C37	C	0.289666	0.066432	0.052162
C38	C	0.789666	0.566432	0.552162
C39	C	0.248175	0.118556	-0.000116
C40	C	0.748175	0.618556	0.499884
C41	C	0.279142	0.172062	-0.052397
C42	C	0.779142	0.672062	0.447603
C43	C	0.351591	0.173450	-0.052390
C44	C	0.851591	0.673450	0.447610
C45	C	0.393074	0.121328	-0.000097
C46	C	0.893074	0.621328	0.499903
C47	C	0.133419	0.116367	-0.068373
C48	C	0.633419	0.616367	0.431627
C49	C	0.060966	0.114994	-0.068380
C50	C	0.560966	0.614994	0.431620
C51	C	0.060920	0.114986	0.068110
C52	C	0.560920	0.614986	0.568110
C53	C	0.133372	0.116368	0.068115
C54	C	0.633372	0.616368	0.568115
C55	C	0.169617	0.117054	-0.000129
C56	C	0.669617	0.617054	0.499871
C57	C	0.825541	-0.044896	-0.000110
C58	C	1.325541	0.455104	0.499890
C59	C	0.824077	-0.144972	-0.000114
C60	C	1.324077	0.355028	0.499886
C61	C	0.817874	-0.568107	-0.068354
C62	C	1.317874	-0.068107	0.431646
C63	C	0.817854	-0.568110	0.068132
C64	C	1.317854	-0.068110	0.568132
C65	C	0.819235	-0.474084	0.068132
C66	C	1.319235	0.025916	0.568132
C67	C	0.819935	-0.427066	-0.000111
C68	C	1.319935	0.072934	0.499889
C69	C	0.819254	-0.474073	-0.068355
C70	C	1.319254	0.025927	0.431645
C71	C	0.819910	-0.427069	0.136375
C72	C	1.319910	0.072931	0.636375
C73	C	0.821291	-0.333038	0.136378
C74	C	1.321291	0.166962	0.636378
C75	C	0.821996	-0.286019	0.068134
C76	C	1.321996	0.213981	0.568134
C77	C	0.821315	-0.333032	-0.000113
C78	C	1.321315	0.166968	0.499887
C79	C	0.822015	-0.286013	-0.068356
C80	C	1.322015	0.213987	0.431644
C81	C	0.821339	-0.333025	-0.136604
C82	C	1.321339	0.166975	0.363396
C83	C	0.819959	-0.427054	-0.136600
C84	C	1.319959	0.072946	0.363400
C85	C	0.823376	-0.191990	0.068129
C86	C	1.323376	0.308010	0.568129
C87	C	0.823395	-0.191979	-0.068358
C88	C	1.323395	0.308021	0.431642
C89	C	0.947610	0.112839	-0.000127
C90	C	1.447610	0.612839	0.499873
C91	C	1.024719	0.114295	-0.000142
C92	C	1.524719	0.614295	0.499858
C93	C	0.815709	0.284799	-0.000109
C94	C	1.315709	0.784799	0.499891
C95	C	0.817174	0.384874	-0.000110
C96	C	1.317174	0.884874	0.499890
N97	N	0.820604	0.119941	0.178046
N98	N	1.320604	0.619941	0.678046
N99	N	0.820652	0.119955	-0.178264
N100	N	1.320652	0.619955	0.321736
C101	C	0.867782	0.058484	0.217427
C102	C	1.367782	0.558484	0.717427
C103	C	0.867786	0.058480	0.296229
C104	C	1.367786	0.558480	0.796229
C105	C	0.820618	0.119948	0.335647
C106	C	1.320618	0.619948	0.835647
C107	C	0.773431	0.181409	0.296256
C108	C	1.273431	0.681409	0.796256
C109	C	0.773424	0.181406	0.217456
C110	C	1.273424	0.681406	0.717456
C111	C	0.811595	0.202092	0.460486
C112	C	1.311595	0.702092	0.960486
C113	C	0.811607	0.202097	0.539284
C114	C	1.311607	0.702097	1.039284
C115	C	0.820637	0.119959	0.578693
C116	C	1.320637	0.619959	1.078693
C117	C	0.829669	0.037812	0.539294
C118	C	1.329669	0.537812	1.039294
C119	C	0.829662	0.037808	0.460493
C120	C	1.329662	0.537808	0.960493
C121	C	0.820621	0.119958	0.421093
C122	C	1.320621	0.619958	0.921093
C123	C	0.867822	0.058492	0.703520
C124	C	1.367822	0.558492	1.203520
C125	C	0.867821	0.058487	0.782324
C126	C	1.367821	0.558487	1.282324
C127	C	0.773470	0.181424	0.782349
C128	C	1.273470	0.681424	1.282349
C129	C	0.773467	0.181422	0.703547
C130	C	1.273467	0.681422	1.203547
C131	C	0.820647	0.119957	0.664138
C132	C	1.320647	0.619957	1.164138
H133	H	0.376801	0.217018	-0.094957
H134	H	0.876801	0.717018	0.405043
H135	H	0.819408	-0.465339	-0.192163
H136	H	1.319408	0.034661	0.307837
H137	H	0.817279	-0.606397	0.123692
H138	H	1.317279	-0.106397	0.623692
C139	C	0.233511	0.229406	-0.109904
C140	C	0.733511	0.729406	0.390096
H141	H	0.185927	0.220927	-0.102417
H142	H	0.685927	0.720927	0.397583
H143	H	0.247255	0.211072	-0.159445
H144	H	0.747255	0.711072	0.340555
H145	H	0.239191	0.291601	-0.103315
H146	H	0.739191	0.791601	0.396685
H147	H	0.162931	0.116936	-0.123942
H148	H	0.662931	0.616936	0.376058
H149	H	0.823968	-0.153704	-0.123931
H150	H	1.323968	0.346296	0.376069
H151	H	0.031496	0.114433	-0.123953
H152	H	0.531496	0.614433	0.376047
H153	H	0.031405	0.114421	0.123670
H154	H	0.531405	0.614421	0.623670
C155	C	0.173190	0.117121	0.143182
C156	C	0.673190	0.617121	0.643182
H157	H	0.141226	0.116500	0.183821
H158	H	0.641226	0.616500	0.683821
H159	H	0.196198	0.170223	0.146023
H160	H	0.696198	0.670223	0.646023
H161	H	0.206705	0.065093	0.146020
H162	H	0.706705	0.565093	0.646020
H163	H	0.906237	0.008441	0.671432
H164	H	1.406237	0.508441	1.171432
C165	C	0.468058	0.122762	-0.143401
C166	C	0.968058	0.622762	0.356599
H167	H	0.419718	0.121842	-0.133629
H168	H	0.919718	0.621842	0.366371
H169	H	0.485196	0.070427	-0.171436
H170	H	0.985196	0.570427	0.328564
H171	H	0.474682	0.175557	-0.171443
H172	H	0.974682	0.675557	0.328557
H173	H	0.906237	0.008437	0.814388
H174	H	1.406237	0.508437	1.314388
C175	C	0.839608	-0.052548	0.582629
C176	C	1.339608	0.447452	1.082629
H177	H	0.844992	-0.101468	0.547879
H178	H	1.344992	0.398532	1.047879
H179	H	0.799921	-0.057421	0.613386
H180	H	1.299921	0.442579	1.113386
H181	H	0.880056	-0.054504	0.613351
H182	H	1.380056	0.445496	1.113351
H183	H	0.906197	0.008433	0.185342
H184	H	1.406197	0.508433	0.685342
C185	C	0.824118	-0.140281	0.143191
C186	C	1.324118	0.359719	0.643191
H187	H	0.823505	-0.181751	0.183834
H188	H	1.323505	0.318249	0.683834
H189	H	0.784185	-0.096551	0.146030
H190	H	1.284185	0.403449	0.646030
H191	H	0.865135	-0.110651	0.146025
H192	H	1.365135	0.389349	0.646025
H193	H	0.817326	-0.606389	-0.123919
H194	H	1.317326	-0.106389	0.376081
C195	C	0.839586	-0.052543	0.417154
C196	C	1.339586	0.447457	0.917154
H197	H	0.845061	-0.101464	0.451903
H198	H	1.345061	0.398536	0.951903
H199	H	0.879966	-0.054453	0.386312
H200	H	1.379966	0.445547	0.886312
H201	H	0.799841	-0.057460	0.386517
H202	H	1.299841	0.442540	0.886517
C203	C	0.255607	0.007563	0.109652
C204	C	0.755607	0.507563	0.609652
H205	H	0.206519	0.014187	0.102152
H206	H	0.706519	0.514187	0.602152
H207	H	0.265600	0.026344	0.159199
H208	H	0.765600	0.526344	0.659199
H209	H	0.273686	-0.054175	0.103060
H210	H	0.773686	0.445825	0.603060
C211	C	0.407748	0.010469	0.109670
C212	C	0.907748	0.510469	0.609670
H213	H	0.378932	-0.021609	0.140794
H214	H	0.878932	0.478391	0.640794
H215	H	0.432202	0.049063	0.139914
H216	H	0.932202	0.549063	0.639914
H217	H	0.440257	-0.031449	0.083768
H218	H	0.940257	0.468551	0.583768
H219	H	0.819336	-0.465358	0.191935
H220	H	1.319336	0.034642	0.691935
H221	H	0.478316	0.122965	0.123713
H222	H	0.978316	0.622965	0.623713
H223	H	0.609756	0.125488	0.123734
H224	H	1.109756	0.625488	0.623734
C225	C	0.919685	-0.009120	0.339561
C226	C	1.419685	0.490880	0.839561
H227	H	0.912929	-0.000316	0.392136
H228	H	1.412929	0.499684	0.892136
H229	H	0.966046	0.000517	0.326627
H230	H	1.466046	0.500517	0.826627
H231	H	0.912088	-0.069271	0.326660
H232	H	1.412088	0.430729	0.826660
C233	C	0.822111	-0.281299	-0.211667
C234	C	1.322111	0.218701	0.288333
H235	H	0.823032	-0.218568	-0.201889
H236	H	1.323032	0.281432	0.298111
H237	H	0.781419	-0.289661	-0.239707
H238	H	1.281419	0.210339	0.260293
H239	H	0.862370	-0.303748	-0.239709
H240	H	1.362370	0.196252	0.260291
H241	H	0.735063	0.231469	0.814442
H242	H	1.235063	0.731469	1.314442
H243	H	0.821844	-0.294769	0.191949
H244	H	1.321844	0.205231	0.691949
H245	H	0.735053	0.231469	0.671481
H246	H	1.235053	0.731469	1.171481
H247	H	0.804257	0.268986	0.571358
H248	H	1.304257	0.768986	1.071358
C249	C	0.801666	0.292451	0.417143
C250	C	1.301666	0.792451	0.917143
H251	H	0.796300	0.341373	0.451892
H252	H	1.296300	0.841373	0.951892
H253	H	0.761224	0.294419	0.386418
H254	H	1.261224	0.794419	0.886418
H255	H	0.841362	0.297309	0.386390
H256	H	1.341362	0.797309	0.886390
C257	C	0.721550	0.249025	0.339612
C258	C	1.221550	0.749025	0.839612
H259	H	0.728316	0.240232	0.392184
H260	H	1.228316	0.740232	0.892184
H261	H	0.675186	0.239393	0.326722
H262	H	1.175186	0.739393	0.826722
H263	H	0.729151	0.309170	0.326686
H264	H	1.229151	0.809170	0.826686
C265	C	0.721534	0.249019	0.174132
C266	C	1.221534	0.749019	0.674132
H267	H	0.728286	0.240212	0.121556
H268	H	1.228286	0.740212	0.621556
H269	H	0.729134	0.309161	0.187041
H270	H	1.229134	0.809161	0.687041
H271	H	0.675168	0.239384	0.187061
H272	H	1.175168	0.739384	0.687061
C273	C	0.620201	0.125679	-0.143389
C274	C	1.120201	0.625679	0.356611
H275	H	0.588262	0.125075	-0.184034
H276	H	1.088262	0.625075	0.315966
H277	H	0.653722	0.073661	-0.146226
H278	H	1.153722	0.573661	0.353774
H279	H	0.643205	0.178791	-0.146223
H280	H	1.143205	0.678791	0.353777
