data_functionalizedCrystal
_audit_creation_method	'MofGen! by Chris Wilmer'
_symmetry_space_group_name_H-M	'P1'
_symmetry_Int_Tables_number	1
_symmetry_cell_setting	triclinic
loop_
_symmetry_equiv_pos_as_xyz
  x,y,z
_cell_length_a	42.784839
_cell_length_b	42.784841
_cell_length_c	42.778238
_cell_angle_alpha	60.010906
_cell_angle_beta	60.002309
_cell_angle_gamma	60.000137
loop_
_atom_site_label
_atom_site_type_symbol
_atom_site_fract_x
_atom_site_fract_y
_atom_site_fract_z
O1	O	-0.266394	-0.214414	-0.009300
O2	O	-0.220945	-0.168959	0.009253
O3	O	-0.220940	-0.168972	-0.054752
O4	O	-0.266399	-0.214402	0.054705
O5	O	-0.168956	-0.220956	-0.054752
O6	O	-0.168961	-0.220943	0.009253
O7	O	-0.214410	-0.266398	-0.009300
Zn8	Zn	-0.183432	-0.251924	-0.000023
Zn9	Zn	-0.251923	-0.183433	-0.000024
O10	O	-0.214415	-0.266386	0.054705
C11	C	-0.079134	-0.022773	0.028113
C12	C	-0.041518	-0.041755	0.028377
C13	C	-0.079135	-0.079373	0.028117
C14	C	-0.041519	-0.098269	0.028380
C15	C	-0.022536	-0.079371	0.028113
C16	C	-0.098032	-0.041757	0.028380
C17	C	-0.170812	0.113712	0.017864
C18	C	-0.188752	0.152363	0.014966
C19	C	-0.169411	0.171753	0.013509
C20	C	-0.188858	0.213663	0.010359
C21	C	-0.132131	0.152488	0.014954
C22	C	-0.114196	0.113839	0.017857
C23	C	-0.133538	0.094450	0.019313
C24	C	0.113953	-0.113933	0.017860
C25	C	0.152605	-0.131747	0.014961
C26	C	0.171996	-0.169021	0.013506
C27	C	0.213906	-0.188338	0.010358
C28	C	0.152730	-0.188482	0.014955
C29	C	0.114078	-0.170671	0.017860
C30	C	0.094692	-0.133392	0.019310
C31	C	-0.170816	-0.113940	0.017878
C32	C	-0.188756	-0.131754	0.014977
C33	C	-0.169416	-0.169030	0.013524
C34	C	-0.188864	-0.188347	0.010378
C35	C	-0.132137	-0.188488	0.014967
C36	C	-0.114200	-0.170672	0.017866
C37	C	-0.133544	-0.133398	0.019324
C38	C	-0.114086	0.052542	0.022457
C39	C	-0.098583	0.019136	0.024965
C40	C	-0.098585	-0.098688	0.024972
C41	C	-0.114090	-0.114084	0.022467
C42	C	0.019374	-0.098685	0.024965
C43	C	0.052780	-0.114080	0.022457
C44	C	-0.022768	-0.079212	-0.361622
C45	C	-0.041751	-0.041601	-0.380520
C46	C	-0.079369	-0.079201	-0.305021
C47	C	-0.098266	-0.041590	-0.324005
C48	C	-0.079367	-0.022614	-0.361622
C49	C	-0.041753	-0.098102	-0.324005
C50	C	0.113720	-0.170897	-0.396186
C51	C	0.152373	-0.188841	-0.414001
C52	C	0.171764	-0.169508	-0.451277
C53	C	0.213675	-0.188960	-0.470593
C54	C	0.152499	-0.132233	-0.470738
C55	C	0.113848	-0.114294	-0.452925
C56	C	0.094459	-0.133628	-0.415647
C57	C	-0.113925	0.113853	-0.453302
C58	C	-0.131739	0.152501	-0.471242
C59	C	-0.169014	0.171896	-0.451903
C60	C	-0.188330	0.213801	-0.471349
C61	C	-0.188476	0.152638	-0.414622
C62	C	-0.170665	0.113990	-0.396685
C63	C	-0.133386	0.094600	-0.416029
C64	C	-0.113936	-0.170852	-0.168529
C65	C	-0.131751	-0.188783	-0.129874
C66	C	-0.169027	-0.169439	-0.110483
C67	C	-0.188344	-0.188878	-0.068571
C68	C	-0.188485	-0.132165	-0.129748
C69	C	-0.170669	-0.114236	-0.168401
C70	C	-0.133394	-0.133585	-0.187790
C71	C	0.052548	-0.114172	-0.396332
C72	C	0.019142	-0.098665	-0.380937
C73	C	-0.098685	-0.098642	-0.263110
C74	C	-0.114081	-0.114139	-0.229703
C75	C	-0.098680	0.019291	-0.381071
C76	C	-0.114075	0.052693	-0.396575
C77	C	-0.412564	-0.356217	-0.028195
C78	C	-0.393581	-0.393833	-0.028460
C79	C	-0.355966	-0.356218	-0.028191
C80	C	-0.337069	-0.393834	-0.028457
C81	C	-0.355966	-0.412816	-0.028194
C82	C	-0.393581	-0.337321	-0.028457
C83	C	-0.549050	-0.264535	-0.017950
C84	C	-0.587702	-0.246594	-0.015054
C85	C	-0.607091	-0.265933	-0.013601
C86	C	-0.649001	-0.246485	-0.010454
C87	C	-0.587825	-0.303213	-0.015048
C88	C	-0.549175	-0.321149	-0.017949
C89	C	-0.529788	-0.301809	-0.019400
C90	C	-0.321404	-0.549299	-0.017952
C91	C	-0.303590	-0.587950	-0.015055
C92	C	-0.266317	-0.607341	-0.013598
C93	C	-0.247000	-0.649249	-0.010452
C94	C	-0.246856	-0.588076	-0.015042
C95	C	-0.264668	-0.549426	-0.017945
C96	C	-0.301946	-0.530039	-0.019398
C97	C	-0.321407	-0.264540	-0.017937
C98	C	-0.303595	-0.246602	-0.015033
C99	C	-0.266321	-0.265942	-0.013577
C100	C	-0.247006	-0.246495	-0.010426
C101	C	-0.246862	-0.303220	-0.015023
C102	C	-0.264675	-0.321157	-0.017925
C103	C	-0.301948	-0.301812	-0.019386
C104	C	-0.487879	-0.321262	-0.022543
C105	C	-0.454473	-0.336767	-0.025049
C106	C	-0.336654	-0.336770	-0.025042
C107	C	-0.321259	-0.321266	-0.022533
C108	C	-0.336652	-0.454724	-0.025048
C109	C	-0.321257	-0.488129	-0.022542
O110	O	0.337178	-0.266390	-0.009322
O111	O	0.227725	-0.220934	0.009229
O112	O	0.291725	-0.220949	-0.054775
O113	O	0.273178	-0.266374	0.054682
O114	O	0.291726	-0.168964	-0.054779
O115	O	0.227726	-0.168949	0.009226
O116	O	0.337179	-0.214405	-0.009325
Zn117	Zn	0.282453	-0.183423	-0.000050
Zn118	Zn	0.282451	-0.251916	-0.000046
O119	O	0.273180	-0.214389	0.054679
O120	O	-0.214405	0.336932	-0.009324
O121	O	-0.168953	0.227484	0.009227
O122	O	-0.168952	0.291467	-0.054777
O123	O	-0.214405	0.272949	0.054680
O124	O	-0.220937	0.291466	-0.054774
O125	O	-0.220938	0.227482	0.009230
O126	O	-0.266390	0.336930	-0.009320
Zn127	Zn	-0.251917	0.282206	-0.000045
Zn128	Zn	-0.183425	0.282208	-0.000049
O129	O	-0.266390	0.272947	0.054684
O130	O	-0.266379	0.337066	-0.496893
O131	O	-0.220925	0.227624	-0.451442
O132	O	-0.220928	0.291622	-0.451438
O133	O	-0.266376	0.273068	-0.496898
O134	O	-0.168942	0.291613	-0.503425
O135	O	-0.168940	0.227615	-0.503429
O136	O	-0.214393	0.337057	-0.548880
Zn137	Zn	-0.183413	0.282334	-0.534409
Zn138	Zn	-0.251906	0.282346	-0.465914
O139	O	-0.214391	0.273059	-0.548885
C140	C	0.310563	-0.079207	-0.361636
C141	C	0.310831	-0.098096	-0.324021
C142	C	0.310575	-0.022612	-0.361642
C143	C	0.310843	-0.041587	-0.324026
C144	C	0.310575	-0.079197	-0.305040
C145	C	0.310831	-0.041597	-0.380536
C146	C	0.300287	-0.113782	-0.453305
C147	C	0.297381	-0.131598	-0.471242
C148	C	0.295923	-0.168868	-0.451899
C149	C	0.292766	-0.188185	-0.471343
C150	C	0.297373	-0.188321	-0.414619
C151	C	0.300284	-0.170506	-0.396687
C152	C	0.301740	-0.133235	-0.416032
C153	C	0.300337	-0.170845	-0.168548
C154	C	0.297444	-0.188777	-0.129896
C155	C	0.295997	-0.169436	-0.110507
C156	C	0.292854	-0.188873	-0.068597
C157	C	0.297447	-0.132162	-0.129776
C158	C	0.300346	-0.114233	-0.168428
C159	C	0.301789	-0.133579	-0.187812
C160	C	0.300335	0.113852	-0.453329
C161	C	0.297436	0.152501	-0.471270
C162	C	0.295990	0.171893	-0.451933
C163	C	0.292846	0.213799	-0.471383
C164	C	0.297439	0.152637	-0.414654
C165	C	0.300336	0.113990	-0.396715
C166	C	0.301787	0.094599	-0.416057
C167	C	0.304893	-0.113919	-0.396583
C168	C	0.307407	-0.098523	-0.381082
C169	C	0.307432	0.019292	-0.381094
C170	C	0.304928	0.052694	-0.396600
C171	C	0.307433	-0.098637	-0.263130
C172	C	0.304929	-0.114134	-0.229724
C173	C	-0.356206	0.254135	0.304953
C174	C	-0.393822	0.253874	0.323939
C175	C	-0.356204	0.254150	0.361552
C176	C	-0.393820	0.253890	0.380452
C177	C	-0.412804	0.254148	0.361557
C178	C	-0.337308	0.253876	0.323934
C179	C	-0.264529	0.264347	0.168457
C180	C	-0.246590	0.267235	0.129803
C181	C	-0.265931	0.268683	0.110416
C182	C	-0.246484	0.271821	0.068503
C183	C	-0.303211	0.267241	0.129685
C184	C	-0.321146	0.264349	0.168337
C185	C	-0.301803	0.262902	0.187723
C186	C	-0.549294	0.264400	0.396129
C187	C	-0.587946	0.267301	0.413947
C188	C	-0.607336	0.268767	0.451222
C189	C	-0.649246	0.271917	0.470543
C190	C	-0.588070	0.267326	0.470681
C191	C	-0.549417	0.264419	0.452867
C192	C	-0.530032	0.262958	0.415587
C193	C	-0.264522	0.264410	0.396104
C194	C	-0.246582	0.267317	0.413915
C195	C	-0.265921	0.268781	0.451192
C196	C	-0.246473	0.271936	0.470505
C197	C	-0.303200	0.267341	0.470654
C198	C	-0.321138	0.264435	0.452842
C199	C	-0.301794	0.262966	0.415567
C200	C	-0.321255	0.259769	0.229634
C201	C	-0.336758	0.257271	0.263042
C202	C	-0.336754	0.257303	0.380863
C203	C	-0.321249	0.259815	0.396257
C204	C	-0.454714	0.257299	0.380874
C205	C	-0.488121	0.259809	0.396271
C206	C	-0.356230	-0.412501	0.361574
C207	C	-0.393847	-0.393515	0.380473
C208	C	-0.356229	-0.355914	0.304974
C209	C	-0.393845	-0.337013	0.323959
C210	C	-0.412829	-0.355903	0.361576
C211	C	-0.337332	-0.393525	0.323957
C212	C	-0.264551	-0.548979	0.396134
C213	C	-0.246611	-0.587627	0.413948
C214	C	-0.265953	-0.607010	0.451225
C215	C	-0.246505	-0.648916	0.470540
C216	C	-0.303234	-0.587741	0.470687
C217	C	-0.321168	-0.549094	0.452874
C218	C	-0.301826	-0.529714	0.415596
C219	C	-0.549320	-0.321325	0.453259
C220	C	-0.587972	-0.303507	0.471200
C221	C	-0.607363	-0.266238	0.451862
C222	C	-0.649273	-0.246918	0.471309
C223	C	-0.588096	-0.246785	0.414580
C224	C	-0.549444	-0.264599	0.396643
C225	C	-0.530058	-0.301873	0.415986
C226	C	-0.264545	-0.321378	0.168481
C227	C	-0.246605	-0.303573	0.129826
C228	C	-0.265945	-0.266302	0.110437
C229	C	-0.246496	-0.246995	0.068524
C230	C	-0.303224	-0.246840	0.129702
C231	C	-0.321162	-0.264647	0.168355
C232	C	-0.301818	-0.301916	0.187743
C233	C	-0.321278	-0.487809	0.396283
C234	C	-0.336782	-0.454406	0.380888
C235	C	-0.336778	-0.336608	0.263063
C236	C	-0.321273	-0.321220	0.229656
C237	C	-0.454739	-0.336586	0.381026
C238	C	-0.488146	-0.321189	0.396531
O239	O	0.336951	-0.214525	-0.548642
O240	O	0.227497	-0.169061	-0.503189
O241	O	0.291495	-0.169063	-0.503185
O242	O	0.272953	-0.214523	-0.548646
O243	O	0.291492	-0.221036	-0.451199
O244	O	0.227494	-0.221034	-0.451203
O245	O	0.336948	-0.266498	-0.496655
Zn246	Zn	0.282220	-0.252018	-0.465675
Zn247	Zn	0.282225	-0.183541	-0.534169
O248	O	0.272950	-0.266496	-0.496659
C249	C	0.254303	-0.356122	0.361551
C250	C	0.254038	-0.393733	0.380450
C251	C	0.254302	-0.356135	0.304951
C252	C	0.254037	-0.393747	0.323936
C253	C	0.254301	-0.412721	0.361553
C254	C	0.254038	-0.337234	0.323934
C255	C	0.264552	-0.264434	0.396110
C256	C	0.267450	-0.246489	0.413924
C257	C	0.268904	-0.265821	0.451201
C258	C	0.272053	-0.246368	0.470516
C259	C	0.267457	-0.303096	0.470663
C260	C	0.264555	-0.321036	0.452851
C261	C	0.263102	-0.301703	0.415572
C262	C	0.264546	-0.549186	0.453238
C263	C	0.267443	-0.587834	0.471180
C264	C	0.268899	-0.607230	0.451842
C265	C	0.272045	-0.649134	0.471289
C266	C	0.267452	-0.587973	0.414560
C267	C	0.264549	-0.549325	0.396622
C268	C	0.263099	-0.529934	0.415965
C269	C	0.264549	-0.264489	0.168457
C270	C	0.267451	-0.246560	0.129802
C271	C	0.268905	-0.265904	0.110412
C272	C	0.272053	-0.246467	0.068499
C273	C	0.267460	-0.303178	0.129678
C274	C	0.264560	-0.321106	0.168332
C275	C	0.263101	-0.301756	0.187719
C276	C	0.259958	-0.321160	0.396259
C277	C	0.257450	-0.336668	0.380864
C278	C	0.257449	-0.336696	0.263040
C279	C	0.259956	-0.321200	0.229632
C280	C	0.257447	-0.454625	0.381004
C281	C	0.259954	-0.488028	0.396509
O282	O	0.273168	0.337052	-0.548917
O283	O	0.291716	0.227610	-0.503463
O284	O	0.227716	0.291608	-0.503452
O285	O	0.337168	0.273054	-0.548928
O286	O	0.227727	0.291618	-0.451471
O287	O	0.291728	0.227620	-0.451482
O288	O	0.273180	0.337062	-0.496935
Zn289	Zn	0.282456	0.282342	-0.465955
Zn290	Zn	0.282440	0.282330	-0.534443
O291	O	0.337180	0.273064	-0.496946
C292	C	-0.079120	0.310230	-0.361636
C293	C	-0.041503	0.310489	-0.380535
C294	C	-0.079121	0.310252	-0.305039
C295	C	-0.041505	0.310510	-0.324024
C296	C	-0.022520	0.310232	-0.361640
C297	C	-0.098018	0.310509	-0.324021
C298	C	-0.170800	0.299968	-0.396190
C299	C	-0.188740	0.297063	-0.414002
C300	C	-0.169399	0.295595	-0.451277
C301	C	-0.188846	0.292439	-0.470590
C302	C	-0.132117	0.297035	-0.470740
C303	C	-0.114182	0.299944	-0.452929
C304	C	-0.133525	0.301411	-0.415652
C305	C	0.113971	0.299953	-0.453323
C306	C	0.152624	0.297049	-0.471265
C307	C	0.172015	0.295601	-0.451928
C308	C	0.213925	0.292448	-0.471375
C309	C	0.152748	0.297061	-0.414647
C310	C	0.114095	0.299971	-0.396709
C311	C	0.094709	0.301414	-0.416051
C312	C	-0.170806	0.300055	-0.168548
C313	C	-0.188746	0.297167	-0.129894
C314	C	-0.169407	0.295720	-0.110506
C315	C	-0.188856	0.292587	-0.068594
C316	C	-0.132127	0.297158	-0.129772
C317	C	-0.114189	0.300044	-0.168424
C318	C	-0.133533	0.301496	-0.187811
C319	C	-0.114073	0.304562	-0.396341
C320	C	-0.098569	0.307076	-0.380948
C321	C	-0.098572	0.307121	-0.263129
C322	C	-0.114077	0.304626	-0.229722
C323	C	0.019390	0.307078	-0.381090
C324	C	0.052797	0.304566	-0.396596
H325	H	0.098393	-0.186519	0.019041
H326	H	-0.603884	-0.216436	0.398836
C327	C	-0.362405	-0.527973	-0.019556
C328	C	-0.382001	-0.485459	-0.022744
C329	C	-0.423002	-0.464132	-0.024348
C330	C	-0.444405	-0.485317	-0.022763
C331	C	-0.424809	-0.527833	-0.019575
C332	C	-0.383808	-0.549161	-0.017971
H333	H	-0.366157	-0.469774	-0.023917
H334	H	-0.437508	-0.432658	-0.026708
H335	H	-0.474756	-0.469529	-0.023950
H336	H	-0.440653	-0.543518	-0.018402
H337	H	-0.369302	-0.580634	-0.015611
H338	H	-0.186570	-0.083589	0.019064
H339	H	-0.219105	0.168045	0.013789
C340	C	0.092628	-0.072930	0.019460
C341	C	0.074777	-0.040769	-0.011521
C342	C	0.053452	0.000233	-0.009922
C343	C	0.049978	0.009075	0.022659
C344	C	0.067830	-0.023087	0.053642
C345	C	0.089155	-0.064089	0.052043
H346	H	0.077348	-0.047314	-0.035641
H347	H	0.040237	0.024041	-0.032858
H348	H	0.034191	0.039427	0.023842
H349	H	0.065258	-0.016543	0.077763
H350	H	0.102370	-0.087897	0.074980
C351	C	-0.229744	0.295475	-0.392593
C352	C	-0.261982	0.326449	-0.409156
C353	C	-0.302986	0.324861	-0.387746
C354	C	-0.311753	0.292298	-0.349772
C355	C	-0.279515	0.261322	-0.333206
C356	C	-0.238510	0.262910	-0.354617
H357	H	-0.255493	0.350556	-0.437269
H358	H	-0.326851	0.347792	-0.400009
H359	H	-0.342107	0.291122	-0.333923
H360	H	-0.286004	0.237215	-0.305094
H361	H	-0.214645	0.239980	-0.342354
C362	C	0.269056	-0.324359	0.511666
C363	C	0.301634	-0.362298	0.520501
C364	C	0.303233	-0.383563	0.561504
C365	C	0.272254	-0.366890	0.593673
C366	C	0.239675	-0.328949	0.584839
C367	C	0.238076	-0.307683	0.543836
H368	H	0.324568	-0.374642	0.496686
H369	H	0.327351	-0.411650	0.568044
H370	H	0.273438	-0.382632	0.624027
H371	H	0.216741	-0.316604	0.608653
H372	H	0.213958	-0.279597	0.537296
H373	H	-0.218837	-0.116413	-0.113957
H374	H	-0.186561	0.301239	-0.184331
H375	H	-0.533491	-0.351501	-0.019129
C376	C	-0.324508	-0.609060	0.511688
C377	C	-0.338209	-0.595057	0.544764
C378	C	-0.359486	-0.616375	0.585767
C379	C	-0.367061	-0.651696	0.593694
C380	C	-0.353359	-0.665701	0.560618
C381	C	-0.332083	-0.644383	0.519615
H382	H	-0.332602	-0.568908	0.538896
H383	H	-0.369628	-0.606008	0.610252
H384	H	-0.382811	-0.667477	0.624047
H385	H	-0.358967	-0.691850	0.566485
H386	H	-0.321940	-0.654750	0.495130
H387	H	0.253611	-0.408964	0.411358
H388	H	-0.216252	-0.319423	0.114142
H389	H	-0.306164	-0.409074	-0.028879
C390	C	0.269057	-0.324459	0.108352
C391	C	0.235686	-0.338156	0.122355
C392	C	0.237282	-0.359436	0.101029
C393	C	0.272249	-0.367018	0.065701
C394	C	0.305623	-0.353321	0.051696
C395	C	0.304026	-0.332041	0.073021
H396	H	0.209798	-0.332544	0.148508
H397	H	0.212576	-0.369576	0.111397
H398	H	0.273431	-0.382771	0.049915
H399	H	0.331510	-0.358933	0.025542
H400	H	0.328732	-0.321901	0.062654
H401	H	-0.408825	-0.306416	-0.028879
H402	H	-0.083829	0.301118	-0.468778
H403	H	0.311257	-0.129000	-0.308780
H404	H	-0.248821	-0.533743	-0.019122
H405	H	-0.116379	0.295978	-0.113983
C406	C	0.311407	-0.021017	-0.422291
C407	C	0.311685	-0.041893	-0.443166
C408	C	0.312264	-0.021314	-0.484920
C409	C	0.312565	0.020141	-0.505798
C410	C	0.312286	0.041019	-0.484923
C411	C	0.311708	0.020440	-0.443169
H412	H	0.311463	-0.072582	-0.427710
H413	H	0.312471	-0.036770	-0.500373
H414	H	0.312994	0.035375	-0.536707
H415	H	0.312509	0.071708	-0.500379
H416	H	0.311501	0.035896	-0.427717
C417	C	0.295770	-0.229315	-0.393343
C418	C	0.329141	-0.262387	-0.379648
C419	C	0.327537	-0.303382	-0.358369
C420	C	0.292561	-0.311306	-0.350787
C421	C	0.259188	-0.278233	-0.364482
C422	C	0.260792	-0.237238	-0.385760
H423	H	0.355034	-0.256522	-0.385261
H424	H	0.352242	-0.327865	-0.348231
H425	H	0.291374	-0.341653	-0.335035
H426	H	0.233295	-0.284098	-0.358869
H427	H	0.236086	-0.212755	-0.395899
H428	H	-0.083848	-0.186520	0.019046
C429	C	-0.139786	-0.021172	0.028963
C430	C	-0.160662	-0.042055	0.029261
C431	C	-0.202416	-0.021474	0.029846
C432	C	-0.223294	0.019990	0.030133
C433	C	-0.202418	0.040875	0.029834
C434	C	-0.160664	0.020294	0.029249
H435	H	-0.145207	-0.072752	0.029049
H436	H	-0.217870	-0.036935	0.030068
H437	H	-0.254202	0.035226	0.030566
H438	H	-0.217873	0.071572	0.030046
H439	H	-0.145211	0.035755	0.029028
H440	H	-0.408823	-0.409071	-0.028887
H441	H	0.098189	0.301130	-0.469075
C442	C	-0.324996	-0.609140	-0.013462
C443	C	-0.338731	-0.595048	-0.046837
C444	C	-0.360138	-0.616239	-0.045242
C445	C	-0.367810	-0.651521	-0.010272
C446	C	-0.354075	-0.665614	0.023106
C447	C	-0.332668	-0.644424	0.021511
H448	H	-0.333051	-0.568929	-0.072726
H449	H	-0.370305	-0.605806	-0.069951
H450	H	-0.383657	-0.667208	-0.009092
H451	H	-0.359755	-0.691734	0.048995
H452	H	-0.322501	-0.654857	0.046220
C453	C	-0.205855	-0.609402	-0.013443
C454	C	-0.172782	-0.595412	-0.046814
C455	C	-0.131780	-0.616738	-0.045213
C456	C	-0.123853	-0.652054	-0.010241
C457	C	-0.156927	-0.666046	0.023132
C458	C	-0.197928	-0.644720	0.021531
H459	H	-0.178649	-0.569267	-0.072704
H460	H	-0.107297	-0.606380	-0.069918
H461	H	-0.093501	-0.667841	-0.009056
H462	H	-0.151060	-0.692191	0.049023
H463	H	-0.222412	-0.655078	0.046236
H464	H	-0.351489	0.263255	0.468694
C465	C	-0.362410	-0.243265	-0.019535
C466	C	-0.382005	-0.262994	-0.022728
C467	C	-0.423008	-0.241722	-0.024324
C468	C	-0.444417	-0.200721	-0.022726
C469	C	-0.424822	-0.180990	-0.019533
C470	C	-0.383819	-0.202262	-0.017937
H471	H	-0.366157	-0.293347	-0.023911
H472	H	-0.437513	-0.256328	-0.026687
H473	H	-0.474770	-0.184974	-0.023907
H474	H	-0.440671	-0.150637	-0.018350
H475	H	-0.369314	-0.187655	-0.015574
C476	C	-0.609138	0.268890	0.392542
C477	C	-0.595041	0.235513	0.378807
C478	C	-0.616234	0.237103	0.357401
C479	C	-0.651524	0.272069	0.349730
C480	C	-0.665623	0.305449	0.363466
C481	C	-0.644431	0.303859	0.384872
H482	H	-0.568915	0.209627	0.384484
H483	H	-0.605796	0.212393	0.347233
H484	H	-0.667212	0.273246	0.333884
H485	H	-0.691749	0.331335	0.357788
H486	H	-0.654868	0.328569	0.395040
C487	C	0.262964	-0.362035	0.474257
C488	C	0.264565	-0.383301	0.515258
C489	C	0.262976	-0.424302	0.536664
C490	C	0.259786	-0.444037	0.517069
C491	C	0.258185	-0.422771	0.476066
C492	C	0.259774	-0.381770	0.454660
H493	H	0.266926	-0.368693	0.529766
H494	H	0.264161	-0.440045	0.567018
H495	H	0.258610	-0.474388	0.532915
H496	H	0.255823	-0.437380	0.461558
H497	H	0.258589	-0.366028	0.424306
H498	H	-0.026280	-0.026514	0.028804
C499	C	-0.414416	0.253292	0.303357
C500	C	-0.429070	0.219947	0.319878
C501	C	-0.449665	0.219364	0.299299
C502	C	-0.455606	0.252127	0.262199
C503	C	-0.440952	0.285474	0.245677
C504	C	-0.420357	0.286057	0.266256
H505	H	-0.424672	0.195692	0.347343
H506	H	-0.460513	0.194678	0.311530
H507	H	-0.470852	0.251696	0.246965
H508	H	-0.445349	0.309729	0.218212
H509	H	-0.409509	0.310743	0.254025
H510	H	-0.248828	-0.351510	-0.019102
C511	C	-0.205858	-0.324498	-0.013423
C512	C	-0.197927	-0.332067	0.021548
C513	C	-0.156925	-0.353345	0.023147
C514	C	-0.123854	-0.367053	-0.010225
C515	C	-0.131784	-0.359485	-0.045198
C516	C	-0.172786	-0.338207	-0.046797
H517	H	-0.222409	-0.321919	0.046254
H518	H	-0.151055	-0.358948	0.049037
H519	H	-0.093502	-0.382804	-0.009041
H520	H	-0.107302	-0.369633	-0.069904
H521	H	-0.178656	-0.332604	-0.072687
C522	C	-0.243251	0.262751	0.189783
C523	C	-0.235680	0.227791	0.225111
C524	C	-0.214405	0.226195	0.246438
C525	C	-0.200700	0.259560	0.232437
C526	C	-0.208271	0.294522	0.197107
C527	C	-0.229546	0.296118	0.175780
H528	H	-0.245825	0.203091	0.235476
H529	H	-0.208801	0.200314	0.272591
H530	H	-0.184951	0.258378	0.248225
H531	H	-0.198126	0.319223	0.186742
H532	H	-0.235150	0.322000	0.149627
C533	C	-0.243270	-0.362376	0.189809
C534	C	-0.235697	-0.370298	0.225135
C535	C	-0.214425	-0.411296	0.246464
C536	C	-0.200727	-0.444371	0.232467
C537	C	-0.208300	-0.436450	0.197139
C538	C	-0.229572	-0.395452	0.175809
H539	H	-0.245837	-0.345813	0.235498
H540	H	-0.208819	-0.417159	0.272617
H541	H	-0.184980	-0.474720	0.248256
H542	H	-0.198160	-0.460935	0.186775
H543	H	-0.235178	-0.389589	0.149657
C544	C	-0.205576	0.268901	0.392507
C545	C	-0.172570	0.235518	0.378780
C546	C	-0.131563	0.237099	0.357372
C547	C	-0.123562	0.272064	0.349692
C548	C	-0.156569	0.305450	0.363420
C549	C	-0.197576	0.303869	0.384828
H550	H	-0.178492	0.209632	0.384464
H551	H	-0.107129	0.212384	0.347210
H552	H	-0.093206	0.273235	0.333845
H553	H	-0.150647	0.331336	0.357736
H554	H	-0.222010	0.328583	0.394990
C555	C	0.311404	-0.020990	-0.303431
C556	C	0.311675	0.020475	-0.324301
C557	C	0.312224	0.041074	-0.303702
C558	C	0.312504	0.020208	-0.262233
C559	C	0.312234	-0.021259	-0.241362
C560	C	0.311684	-0.041858	-0.261961
H561	H	0.311468	0.035924	-0.355000
H562	H	0.312424	0.071771	-0.319152
H563	H	0.312911	0.035457	-0.246985
H564	H	0.312441	-0.036708	-0.210662
H565	H	0.311484	-0.072555	-0.246510
H566	H	-0.248798	-0.533203	0.365781
C567	C	-0.325000	-0.205597	-0.013443
C568	C	-0.338725	-0.172597	-0.046826
C569	C	-0.360128	-0.131591	-0.045239
C570	C	-0.367807	-0.123583	-0.010270
C571	C	-0.354082	-0.156584	0.023115
C572	C	-0.332678	-0.197590	0.021528
H573	H	-0.333040	-0.178524	-0.072714
H574	H	-0.370289	-0.107162	-0.069953
H575	H	-0.383652	-0.093228	-0.009095
H576	H	-0.359766	-0.150657	0.049003
H577	H	-0.322518	-0.222019	0.046242
H578	H	-0.026508	-0.026368	-0.411428
C579	C	-0.608893	-0.205592	-0.013457
C580	C	-0.594793	-0.172588	-0.046830
C581	C	-0.615985	-0.131585	-0.045232
C582	C	-0.651277	-0.123586	-0.010262
C583	C	-0.665378	-0.156591	0.023114
C584	C	-0.644187	-0.197594	0.021516
H585	H	-0.568667	-0.178509	-0.072720
H586	H	-0.605546	-0.107153	-0.069939
H587	H	-0.666964	-0.093234	-0.009079
H588	H	-0.691505	-0.150671	0.049004
H589	H	-0.654626	-0.222026	0.046223
C590	C	0.295842	0.173963	-0.393374
C591	C	0.260872	0.209288	-0.385794
C592	C	0.259271	0.230612	-0.364510
C593	C	0.292639	0.216612	-0.350807
C594	C	0.327612	0.181286	-0.358386
C595	C	0.329213	0.159962	-0.379670
H596	H	0.236168	0.219653	-0.395938
H597	H	0.233382	0.256763	-0.358900
H598	H	0.291454	0.232398	-0.335051
H599	H	0.352315	0.170921	-0.348242
H600	H	0.355102	0.133811	-0.385280
C601	C	-0.609152	-0.324484	-0.013451
C602	C	-0.627005	-0.307823	-0.044432
C603	C	-0.648332	-0.329095	-0.042835
C604	C	-0.651806	-0.367029	-0.010257
C605	C	-0.633953	-0.383692	0.020727
C606	C	-0.612626	-0.362419	0.019130
H607	H	-0.624434	-0.279740	-0.068551
H608	H	-0.661549	-0.316760	-0.065771
H609	H	-0.667594	-0.382776	-0.009074
H610	H	-0.636524	-0.411774	0.044846
H611	H	-0.599410	-0.374754	0.042066
H612	H	-0.026264	0.310907	-0.411443
C613	C	-0.140018	-0.020994	-0.303416
C614	C	-0.160890	0.020465	-0.324296
C615	C	-0.202640	0.041061	-0.303708
C616	C	-0.223517	0.020198	-0.262240
C617	C	-0.202645	-0.021263	-0.241358
C618	C	-0.160895	-0.041859	-0.261946
H619	H	-0.145435	0.035910	-0.354995
H620	H	-0.218091	0.071753	-0.319167
H621	H	-0.254423	0.035445	-0.247000
H622	H	-0.218100	-0.036708	-0.210659
H623	H	-0.145444	-0.072551	-0.246487
C624	C	0.295844	0.173682	-0.512276
C625	C	0.329219	0.159572	-0.545285
C626	C	0.327629	0.180753	-0.586292
C627	C	0.292664	0.216043	-0.594289
C628	C	0.259286	0.230155	-0.561279
C629	C	0.260876	0.208974	-0.520272
H630	H	0.355105	0.133447	-0.539366
H631	H	0.352338	0.170306	-0.610729
H632	H	0.291487	0.231722	-0.624645
H633	H	0.233400	0.256281	-0.567198
H634	H	0.236167	0.219421	-0.495835
H635	H	-0.026280	-0.129176	0.028806
H636	H	-0.219108	-0.115908	0.013801
H637	H	-0.409084	-0.306110	0.308716
H638	H	-0.115890	0.168178	-0.501596
H639	H	0.301514	0.098067	-0.469080
C640	C	-0.139768	0.311080	-0.303424
C641	C	-0.160642	0.311346	-0.324291
C642	C	-0.202388	0.311911	-0.303693
C643	C	-0.223261	0.312210	-0.262228
C644	C	-0.202387	0.311944	-0.241358
C645	C	-0.160641	0.311379	-0.261957
H646	H	-0.145191	0.311125	-0.354989
H647	H	-0.217841	0.312109	-0.319142
H648	H	-0.254164	0.312629	-0.246980
H649	H	-0.217838	0.312165	-0.210661
H650	H	-0.145189	0.311181	-0.246507
C651	C	0.295857	-0.110885	-0.108452
C652	C	0.260891	-0.103301	-0.073124
C653	C	0.259299	-0.082024	-0.051799
C654	C	0.292673	-0.068331	-0.065802
C655	C	0.327642	-0.075916	-0.101132
C656	C	0.329234	-0.097193	-0.122457
H657	H	0.236183	-0.113437	-0.062757
H658	H	0.233413	-0.076410	-0.025645
H659	H	0.291495	-0.052581	-0.050016
H660	H	0.352350	-0.065779	-0.111499
H661	H	0.355121	-0.102807	-0.148611
C662	C	-0.205608	-0.608823	0.392540
C663	C	-0.173369	-0.626642	0.409102
C664	C	-0.132366	-0.647837	0.387692
C665	C	-0.123602	-0.651215	0.349721
C666	C	-0.155841	-0.633395	0.333157
C667	C	-0.196845	-0.612199	0.354566
H668	H	-0.179856	-0.624142	0.437212
H669	H	-0.108500	-0.661028	0.399954
H670	H	-0.093249	-0.666905	0.333872
H671	H	-0.149354	-0.635895	0.305046
H672	H	-0.220710	-0.599009	0.342304
C673	C	0.262950	-0.243165	0.355107
C674	C	0.296318	-0.229469	0.322032
C675	C	0.294716	-0.208202	0.281029
C676	C	0.259747	-0.200631	0.273101
C677	C	0.226377	-0.214328	0.306176
C678	C	0.227978	-0.235595	0.347179
H679	H	0.322206	-0.235073	0.327900
H680	H	0.319420	-0.198063	0.256544
H681	H	0.258562	-0.184888	0.242748
H682	H	0.200488	-0.208724	0.300308
H683	H	0.203275	-0.245734	0.371664
C684	C	0.295781	-0.110200	-0.512245
C685	C	0.329154	-0.096473	-0.545262
C686	C	0.327552	-0.075074	-0.586265
C687	C	0.292578	-0.067401	-0.594250
C688	C	0.259202	-0.081128	-0.561231
C689	C	0.260804	-0.102527	-0.520229
H690	H	0.355047	-0.102153	-0.539352
H691	H	0.352259	-0.064912	-0.610707
H692	H	0.291392	-0.051560	-0.624603
H693	H	0.233310	-0.075448	-0.567142
H694	H	0.236097	-0.112689	-0.495786
H695	H	0.097936	-0.186644	-0.365833
C696	C	0.253459	-0.414343	0.303352
C697	C	0.286225	-0.451450	0.297427
C698	C	0.285645	-0.472048	0.276847
C699	C	0.252300	-0.455537	0.262190
C700	C	0.219531	-0.418428	0.268115
C701	C	0.220111	-0.397831	0.288696
H702	H	0.310911	-0.463674	0.308277
H703	H	0.309903	-0.499518	0.272461
H704	H	0.251871	-0.470785	0.246955
H705	H	0.194845	-0.406205	0.257265
H706	H	0.195853	-0.370360	0.293081
C707	C	0.301879	-0.191902	-0.355682
C708	C	0.300274	-0.232895	-0.334403
C709	C	0.301867	-0.254291	-0.293397
C710	C	0.305065	-0.234694	-0.273671
C711	C	0.306671	-0.193698	-0.294950
C712	C	0.305077	-0.172302	-0.335956
H713	H	0.297906	-0.247405	-0.349005
H714	H	0.300679	-0.284639	-0.277645
H715	H	0.306245	-0.250532	-0.243316
H716	H	0.309038	-0.179189	-0.280348
H717	H	0.306265	-0.141955	-0.351708
C718	C	0.295845	-0.229774	-0.108701
C719	C	0.329212	-0.262789	-0.122802
C720	C	0.327612	-0.303785	-0.101607
C721	C	0.292643	-0.311767	-0.066311
C722	C	0.259273	-0.278750	-0.052208
C723	C	0.260874	-0.237754	-0.073403
H724	H	0.355100	-0.256882	-0.148932
H725	H	0.352314	-0.328226	-0.112047
H726	H	0.291458	-0.342115	-0.050621
H727	H	0.233385	-0.284658	-0.026078
H728	H	0.236171	-0.213313	-0.062963
C729	C	-0.414410	0.253325	0.422206
C730	C	-0.393537	0.253049	0.443081
C731	C	-0.414127	0.252484	0.484833
C732	C	-0.455590	0.252197	0.505711
C733	C	-0.476465	0.252474	0.484836
C734	C	-0.455875	0.253038	0.443084
H735	H	-0.362842	0.253261	0.427626
H736	H	-0.398674	0.252280	0.500286
H737	H	-0.470832	0.251779	0.536619
H738	H	-0.507160	0.252261	0.500291
H739	H	-0.471329	0.253243	0.427631
C740	C	-0.609395	0.268932	0.511686
C741	C	-0.644720	0.303902	0.519618
C742	C	-0.666047	0.305509	0.560623
C743	C	-0.652049	0.272146	0.593696
C744	C	-0.616722	0.237173	0.585764
C745	C	-0.595395	0.235567	0.544759
H746	H	-0.655084	0.328602	0.495135
H747	H	-0.692198	0.331398	0.566494
H748	H	-0.667836	0.273335	0.624050
H749	H	-0.606358	0.212474	0.610247
H750	H	-0.569244	0.209677	0.538888
H751	H	-0.216236	0.268407	0.114118
C752	C	0.174074	0.295471	-0.393375
C753	C	0.191932	0.326444	-0.410047
C754	C	0.213259	0.324852	-0.388773
C755	C	0.216728	0.292286	-0.350828
C756	C	0.198869	0.261311	-0.334155
C757	C	0.177542	0.262903	-0.355428
H758	H	0.189365	0.350554	-0.438138
H759	H	0.226479	0.347782	-0.401117
H760	H	0.232516	0.291108	-0.335081
H761	H	0.201437	0.237202	-0.306064
H762	H	0.164322	0.239973	-0.343085
C763	C	-0.229479	0.173968	-0.393347
C764	C	-0.261645	0.191820	-0.410014
C765	C	-0.302647	0.213151	-0.388738
C766	C	-0.311484	0.216630	-0.350795
C767	C	-0.279317	0.198777	-0.334125
C768	C	-0.238314	0.177446	-0.355401
H769	H	-0.255104	0.189245	-0.438104
H770	H	-0.326459	0.226367	-0.401079
H771	H	-0.341836	0.232421	-0.335045
H772	H	-0.285857	0.201352	-0.306035
H773	H	-0.214502	0.164230	-0.343060
C774	C	-0.324485	0.268835	0.108359
C775	C	-0.307820	0.237852	0.090504
C776	C	-0.329096	0.239447	0.069178
C777	C	-0.367037	0.272024	0.065707
C778	C	-0.383704	0.303008	0.083563
C779	C	-0.362428	0.301414	0.104888
H780	H	-0.279732	0.213735	0.093072
H781	H	-0.316758	0.216509	0.055960
H782	H	-0.382787	0.273204	0.049921
H783	H	-0.411792	0.327126	0.080994
H784	H	-0.374766	0.324351	0.118106
H785	H	0.263362	-0.533399	0.468991
C786	C	-0.414440	-0.414094	0.422226
C787	C	-0.393569	-0.455556	0.443102
C788	C	-0.414162	-0.476134	0.484853
C789	C	-0.455626	-0.455250	0.505727
C790	C	-0.476499	-0.413787	0.484851
C791	C	-0.455906	-0.393208	0.443100
H792	H	-0.362873	-0.471017	0.427649
H793	H	-0.398711	-0.506828	0.500306
H794	H	-0.470871	-0.470484	0.536633
H795	H	-0.507195	-0.398325	0.500304
H796	H	-0.471358	-0.362514	0.427646
C797	C	-0.021165	-0.139848	-0.303412
C798	C	0.020303	-0.160727	-0.324284
C799	C	0.040890	-0.202471	-0.303690
C800	C	0.020009	-0.223335	-0.262225
C801	C	-0.021461	-0.202455	-0.241351
C802	C	-0.042048	-0.160712	-0.261945
H803	H	0.035762	-0.145282	-0.354981
H804	H	0.071589	-0.217927	-0.319142
H805	H	0.035249	-0.254236	-0.246980
H806	H	-0.036920	-0.217900	-0.210654
H807	H	-0.072747	-0.145256	-0.246493
C808	C	-0.609165	-0.324906	0.512204
C809	C	-0.612534	-0.362872	0.520966
C810	C	-0.633727	-0.384272	0.561970
C811	C	-0.651551	-0.367706	0.594212
C812	C	-0.648182	-0.329738	0.585452
C813	C	-0.626989	-0.308338	0.544448
H814	H	-0.599340	-0.375137	0.497097
H815	H	-0.636221	-0.412379	0.568454
H816	H	-0.667239	-0.383548	0.624566
H817	H	-0.661376	-0.317473	0.609321
H818	H	-0.624495	-0.280231	0.537963
C819	C	-0.528252	-0.243203	0.355636
C820	C	-0.549576	-0.202208	0.334360
C821	C	-0.528385	-0.180812	0.293353
C822	C	-0.485870	-0.200411	0.273622
C823	C	-0.464543	-0.241408	0.294898
C824	C	-0.485734	-0.262804	0.335905
H825	H	-0.581051	-0.187698	0.348967
H826	H	-0.544173	-0.150463	0.277603
H827	H	-0.470183	-0.184572	0.243266
H828	H	-0.433068	-0.255918	0.280292
H829	H	-0.469947	-0.293153	0.351655
C830	C	-0.324502	-0.205841	0.108377
C831	C	-0.362441	-0.197008	0.104904
C832	C	-0.383719	-0.156011	0.083581
C833	C	-0.367057	-0.123846	0.065731
C834	C	-0.329115	-0.132677	0.069204
C835	C	-0.307838	-0.173674	0.090526
H836	H	-0.374777	-0.220820	0.118118
H837	H	-0.411806	-0.149473	0.081011
H838	H	-0.382808	-0.093497	0.049947
H839	H	-0.316779	-0.108865	0.055989
H840	H	-0.279751	-0.180212	0.093097
H841	H	0.263363	-0.248732	0.184240
H842	H	-0.083573	0.098068	-0.469056
C843	C	0.269040	-0.205559	0.108610
C844	C	0.301609	-0.196785	0.105238
C845	C	0.303195	-0.155784	0.084046
C846	C	0.272213	-0.123556	0.066226
C847	C	0.239642	-0.132328	0.069598
C848	C	0.238056	-0.173330	0.090789
H849	H	0.324546	-0.220643	0.118430
H850	H	0.327307	-0.149289	0.081551
H851	H	0.273388	-0.093204	0.050539
H852	H	0.216705	-0.108470	0.056406
H853	H	0.213944	-0.179824	0.093285
C854	C	0.269046	-0.205492	0.392515
C855	C	0.301623	-0.196738	0.354544
C856	C	0.303221	-0.155741	0.333134
C857	C	0.272243	-0.123497	0.349695
C858	C	0.239664	-0.132250	0.387669
C859	C	0.238066	-0.173247	0.409079
H860	H	0.324557	-0.220608	0.342283
H861	H	0.327338	-0.149261	0.305024
H862	H	0.273426	-0.093148	0.333847
H863	H	0.216730	-0.108381	0.399930
H864	H	0.213949	-0.179727	0.437189
C865	C	0.269050	-0.609304	0.393286
C866	C	0.301628	-0.612785	0.355343
C867	C	0.303227	-0.634117	0.334069
C868	C	0.272248	-0.651969	0.350737
C869	C	0.239668	-0.648489	0.388682
C870	C	0.238069	-0.627156	0.409957
H871	H	0.324562	-0.599569	0.343002
H872	H	0.327345	-0.636693	0.305979
H873	H	0.273432	-0.667760	0.334988
H874	H	0.216734	-0.661704	0.401023
H875	H	0.213950	-0.624580	0.438046
H876	H	0.301474	-0.083435	-0.469061
H877	H	-0.186566	0.097929	0.019050
H878	H	-0.083584	-0.186608	-0.184313
H879	H	0.168308	0.295860	-0.501617
H880	H	-0.351498	0.263173	0.184023
H881	H	-0.306401	0.253449	0.308689
C882	C	-0.020915	0.311095	-0.303439
C883	C	-0.041788	0.311394	-0.261974
C884	C	-0.021198	0.311979	-0.241392
C885	C	0.020265	0.312265	-0.262275
C886	C	0.041141	0.311966	-0.303742
C887	C	0.020551	0.311381	-0.324325
H888	H	-0.072484	0.311183	-0.246513
H889	H	-0.036652	0.312201	-0.210695
H890	H	0.035507	0.312698	-0.247038
H891	H	0.071837	0.312177	-0.319203
H892	H	0.036005	0.311159	-0.355022
H893	H	0.098411	0.301160	-0.366357
H894	H	-0.219100	0.295993	-0.114209
C895	C	-0.110844	0.295420	-0.511740
C896	C	-0.103270	0.260445	-0.519664
C897	C	-0.081994	0.258830	-0.560665
C898	C	-0.068292	0.292189	-0.593744
C899	C	-0.075865	0.327167	-0.585821
C900	C	-0.097141	0.328782	-0.544820
H901	H	-0.113413	0.235748	-0.495176
H902	H	-0.076387	0.232937	-0.566530
H903	H	-0.052542	0.290994	-0.624096
H904	H	-0.065722	0.351864	-0.610309
H905	H	-0.102747	0.354675	-0.538955
H906	H	0.301515	-0.186600	-0.184329
H907	H	-0.248769	0.263216	0.365752
H908	H	0.301532	-0.083887	-0.184116
H909	H	-0.116388	0.168278	0.013770
H910	H	-0.533512	0.263208	0.365777
H911	H	-0.083844	0.098156	0.019036
H912	H	0.168289	-0.115899	0.013781
H913	H	0.301517	0.098313	-0.366362
H914	H	0.168517	-0.218835	0.013776
H915	H	-0.116390	-0.218841	0.013784
C916	C	-0.110347	-0.229783	-0.108684
C917	C	-0.072375	-0.238555	-0.105313
C918	C	-0.050972	-0.279557	-0.084123
C919	C	-0.067540	-0.311786	-0.066304
C920	C	-0.105513	-0.303015	-0.069674
C921	C	-0.126917	-0.262014	-0.090864
H922	H	-0.060109	-0.214696	-0.118505
H923	H	-0.022861	-0.286049	-0.081629
H924	H	-0.051696	-0.342138	-0.050618
H925	H	-0.117780	-0.326874	-0.056482
H926	H	-0.155028	-0.255521	-0.093358
H927	H	-0.351521	-0.533408	0.468723
H928	H	0.168055	-0.219190	-0.398153
H929	H	-0.186554	0.301163	-0.365838
H930	H	0.168289	-0.116496	-0.501089
H931	H	0.098165	-0.083945	-0.468772
H932	H	-0.186514	0.098313	-0.366332
H933	H	-0.533268	-0.248783	-0.019132
H934	H	-0.186515	-0.083886	-0.184084
H935	H	-0.533733	0.263244	0.468713
H936	H	-0.083834	0.301213	-0.184108
H937	H	-0.351516	-0.248797	0.184039
H938	H	-0.318946	0.268531	0.501009
H939	H	-0.306424	-0.408770	0.308718
H940	H	-0.533538	-0.351673	0.469012
H941	H	0.253643	-0.306340	0.308683
H942	H	0.268622	-0.603510	0.501533
H943	H	0.263370	-0.533649	0.366268
H944	H	0.263382	-0.351455	0.184016
