data_functionalizedCrystal
_audit_creation_method	'MofGen! by Chris Wilmer'
_symmetry_space_group_name_H-M	'P1'
_symmetry_Int_Tables_number	1
_symmetry_cell_setting	triclinic
loop_
_symmetry_equiv_pos_as_xyz
  x,y,z
_cell_length_a	12.827893
_cell_length_b	14.908520
_cell_length_c	12.827885
_cell_angle_alpha	93.263516
_cell_angle_beta	89.980728
_cell_angle_gamma	93.320575
loop_
_atom_site_label
_atom_site_type_symbol
_atom_site_fract_x
_atom_site_fract_y
_atom_site_fract_z
Zn1	Zn	1.573615	-0.359115	-0.614817
Zn2	Zn	1.563402	-0.509998	-0.450147
Zn3	Zn	1.398853	-0.359159	-0.440093
Zn4	Zn	1.388739	-0.509931	-0.624843
O5	O	1.481152	-0.434551	-0.532475
O6	O	1.718495	-0.379139	-0.592984
O7	O	1.541533	-0.490036	-0.302580
O8	O	1.430542	-0.232908	-0.454867
O9	O	1.710992	-0.489993	-0.472002
O10	O	1.558939	-0.232876	-0.583236
O11	O	1.420640	-0.379214	-0.295194
O12	O	1.251276	-0.379149	-0.464589
O13	O	1.413304	-0.489879	-0.769746
O14	O	1.243845	-0.489921	-0.600323
O15	O	1.549132	-0.379074	-0.762380
O16	O	1.531726	-0.636234	-0.481724
O17	O	1.403401	-0.636184	-0.610072
C18	C	1.209643	-0.434533	-0.532454
C19	C	1.093489	-0.434548	-0.532471
C20	C	1.038049	-0.489447	-0.599545
C21	C	0.917998	-0.489463	-0.599564
C22	C	1.465386	-0.668943	-0.548100
C23	C	1.458737	-0.769217	-0.554820
C24	C	1.580004	-0.957632	-0.433905
C25	C	1.573760	-1.051849	-0.440215
C26	C	1.440011	-1.051867	-0.573755
C27	C	1.446255	-0.957651	-0.567444
C28	C	1.516253	-0.910537	-0.497516
C29	C	1.522491	-0.816319	-0.491201
C30	C	1.388748	-0.816339	-0.624745
C31	C	1.382504	-0.910555	-0.631056
C32	C	1.753721	-0.434569	-0.532497
C33	C	1.869874	-0.434576	-0.532506
C34	C	1.481229	-0.434464	-0.805039
C35	C	1.481262	-0.434427	-0.921190
C36	C	1.497008	-0.199243	-0.516811
C37	C	1.503765	-0.098969	-0.510137
C38	C	1.414107	-0.489195	-1.096660
C39	C	1.414072	-0.489234	-0.976612
C40	C	1.481140	-0.434572	-0.260966
C41	C	1.481327	-0.434355	-0.144799
H42	H	1.052076	-0.387555	-0.475065
C43	C	1.336322	-0.552666	-0.920677
C44	C	1.218010	-0.545304	-0.935085
C45	C	1.140257	-0.608738	-0.879147
C46	C	1.180815	-0.679535	-0.808802
C47	C	1.299133	-0.686900	-0.794391
C48	C	1.376886	-0.623466	-0.850328
H49	H	1.187981	-0.492893	-0.987161
H50	H	1.052670	-0.603285	-0.889815
H51	H	1.123258	-0.726493	-0.767393
H52	H	1.329162	-0.739311	-0.742314
H53	H	1.464473	-0.628919	-0.839660
C54	C	1.559015	-0.370993	-0.977119
C55	C	1.557409	-0.268428	-0.955384
C56	C	1.635162	-0.204993	-1.011322
C57	C	1.714521	-0.244124	-1.088994
C58	C	1.716131	-0.346694	-1.110733
C59	C	1.638378	-0.410129	-1.054795
H60	H	1.498659	-0.239456	-0.897883
H61	H	1.633970	-0.129064	-0.995229
H62	H	1.772079	-0.197166	-1.130402
H63	H	1.774881	-0.375666	-1.168234
H64	H	1.639570	-0.486058	-1.070888
H65	H	1.079463	-0.536433	-0.656958
C66	C	1.336392	-0.552587	-1.161036
C67	C	1.336539	-0.552457	-1.281073
C68	C	1.258821	-0.615851	-1.345446
C69	C	1.180957	-0.679376	-1.289782
C70	C	1.180807	-0.679508	-1.169738
C71	C	1.258525	-0.616114	-1.105365
H72	H	1.394181	-0.505430	-1.322285
H73	H	1.258932	-0.615753	-1.434310
H74	H	1.123425	-0.726304	-1.337435
H75	H	1.123165	-0.726535	-1.128527
H76	H	1.258414	-0.616213	-1.016501
H77	H	1.538845	-0.387429	-1.097138
H78	H	0.917530	-0.387576	-0.475075
C79	C	0.853618	-0.552963	-0.677146
C80	C	0.733577	-0.552888	-0.677054
C81	C	0.669195	-0.616391	-0.754639
C82	C	0.724853	-0.679967	-0.832315
C83	C	0.844900	-0.680044	-0.832409
C84	C	0.909282	-0.616542	-0.754825
H85	H	0.692370	-0.505823	-0.619551
H86	H	0.580328	-0.616333	-0.754569
H87	H	0.677193	-0.726976	-0.889748
H88	H	0.886107	-0.727110	-0.889912
H89	H	0.998149	-0.616599	-0.754895
C90	C	1.599488	-0.764490	-0.414286
C91	C	1.590178	-0.777527	-0.296353
C92	C	1.667180	-0.725700	-0.219439
C93	C	1.753491	-0.660837	-0.260458
C94	C	1.762804	-0.647797	-0.378398
C95	C	1.685802	-0.699623	-0.455312
H96	H	1.526282	-0.825545	-0.265982
H97	H	1.660285	-0.735353	-0.132132
H98	H	1.810492	-0.622471	-0.203522
H99	H	1.826700	-0.599778	-0.408768
H100	H	1.692697	-0.689970	-0.542619
H101	H	1.636991	-0.919271	-0.376960
H102	H	1.625675	-1.090190	-0.388418
H103	H	1.383030	-1.090244	-0.630693
H104	H	1.336834	-0.777983	-0.676539
C105	C	1.305511	-0.962388	-0.707973
C106	C	1.219200	-1.027252	-0.666956
C107	C	1.142205	-1.079083	-0.743873
C108	C	1.151521	-1.066049	-0.861807
C109	C	1.237836	-1.001181	-0.902829
C110	C	1.314831	-0.949350	-0.825912
H111	H	1.212301	-1.036904	-0.579649
H112	H	1.078309	-1.127103	-0.713505
H113	H	1.094524	-1.104417	-0.918745
H114	H	1.244735	-0.991530	-0.990136
H115	H	1.378727	-0.901331	-0.856281
