data_functionalizedCrystal
_audit_creation_method	'MofGen! by Chris Wilmer'
_symmetry_space_group_name_H-M	'P1'
_symmetry_Int_Tables_number	1
_symmetry_cell_setting	triclinic
loop_
_symmetry_equiv_pos_as_xyz
  x,y,z
_cell_length_a	11.026607
_cell_length_b	9.482900
_cell_length_c	11.026660
_cell_angle_alpha	78.598836
_cell_angle_beta	108.585426
_cell_angle_gamma	101.363848
loop_
_atom_site_label
_atom_site_type_symbol
_atom_site_fract_x
_atom_site_fract_y
_atom_site_fract_z
O1	O	-1.742229	-0.120880	-0.518007
O2	O	-1.375650	-0.120884	-0.457244
O3	O	-1.528559	-0.120881	-0.304337
O4	O	-1.589319	-0.120883	-0.670914
O5	O	-1.497535	0.120911	-0.335555
O6	O	-1.344625	0.120908	-0.488462
O7	O	-1.711204	0.120912	-0.549225
Cu8	Cu	-1.525082	0.142987	-0.521694
Cu9	Cu	-1.561772	-0.142960	-0.484775
O10	O	-1.558295	0.120909	-0.702132
C11	C	-1.312478	0.000011	-0.461643
C12	C	-1.170465	0.000010	-0.428226
N13	N	-1.499285	0.344107	-0.547662
C14	C	-1.501838	0.000012	-0.272287
C15	C	-1.468424	0.000003	-0.130273
C16	C	-1.774376	0.000013	-0.544826
C17	C	-1.916391	0.000005	-0.578241
C18	C	-1.116815	0.000008	-0.520495
C19	C	-0.970037	0.000007	-0.485959
N20	N	-1.587577	-0.344079	-0.458799
C21	C	-1.554153	0.416307	-0.492426
C22	C	-1.532701	0.583724	-0.514044
C23	C	-1.585016	0.000013	-0.734182
C24	C	-1.618432	0.000012	-0.876195
C25	C	-1.526165	0.000009	0.070153
C26	C	-1.560704	0.000006	-0.076625
H27	H	-1.179546	0.000016	-0.625058
C28	C	-1.327152	0.000001	-0.045540
N29	N	-1.220748	0.000002	0.018281
C30	C	-1.639044	0.332379	-0.406890
N31	N	-1.702978	0.269166	-0.342454
C32	C	-1.447774	0.667647	-0.599552
N33	N	-1.383809	0.730860	-0.663956
C34	C	-1.414363	0.428035	-0.633167
N35	N	-1.350397	0.491248	-0.697571
C36	C	-1.001127	0.000003	-0.719511
N37	N	-1.064951	-0.000001	-0.825913
H38	H	-1.665281	-0.000047	-0.139343
C39	C	-1.672505	0.572001	-0.373291
N40	N	-1.736477	0.508792	-0.308892
C41	C	-1.759695	0.000015	0.039066
N42	N	-1.866098	0.000021	-0.024759
H43	H	-0.907313	-0.000030	-0.381386
H44	H	-1.421603	0.000001	0.132883
H45	H	-1.107737	-0.000027	-0.323659
