data_functionalizedCrystal
_audit_creation_method	'MofGen! by Chris Wilmer'
_symmetry_space_group_name_H-M	'P1'
_symmetry_Int_Tables_number	1
_symmetry_cell_setting	triclinic
loop_
_symmetry_equiv_pos_as_xyz
  x,y,z
_cell_length_a	27.440280
_cell_length_b	14.560438
_cell_length_c	14.560438
_cell_angle_alpha	60.005799
_cell_angle_beta	89.994691
_cell_angle_gamma	59.993522
loop_
_atom_site_label
_atom_site_type_symbol
_atom_site_fract_x
_atom_site_fract_y
_atom_site_fract_z
Zr1	Zr	0.469518	1.005107	-0.120411
O2	O	0.391704	1.196709	-0.267026
O3	O	0.493369	0.813517	-0.075485
O4	O	0.493373	1.005105	-0.267061
O5	O	0.391700	1.005118	0.075691
O6	O	0.573575	1.005091	-0.267067
O7	O	0.391700	1.005121	-0.075450
O8	O	0.573568	0.662375	0.075628
O9	O	0.391707	1.347834	-0.267004
O10	O	0.563399	0.892306	-0.056305
O11	O	0.503545	0.892315	0.056494
O12	O	0.503550	1.117885	-0.169063
O13	O	0.443696	1.117894	-0.056264
Zr14	Zr	0.597431	1.005080	0.120633
Zr15	Zr	0.597431	1.005084	-0.120420
Zr16	Zr	0.469518	1.005103	0.120641
Zr17	Zr	0.469523	1.246135	-0.120376
Zr18	Zr	0.597426	0.764052	0.120597
O19	O	0.573580	1.196670	0.075707
O20	O	0.573579	1.196675	-0.267039
O21	O	0.391704	1.196703	0.075719
O22	O	0.675245	0.813478	0.267248
O23	O	0.675245	0.813484	-0.075497
O24	O	0.493370	0.813511	0.267260
O25	O	0.675249	1.005069	-0.075469
O26	O	0.573576	1.005082	0.267283
O27	O	0.493374	1.005096	0.267288
O28	O	0.675249	1.005066	0.075672
O29	O	0.493381	1.347816	-0.267011
O30	O	0.573568	0.662371	0.267233
O31	O	0.675242	0.662353	0.267226
O32	O	0.675242	0.662356	0.075621
O33	O	0.391707	1.347831	-0.075400
O34	O	0.493381	1.347812	-0.075407
O35	O	0.563399	0.892302	0.169284
O36	O	0.623253	0.892293	0.056485
O37	O	0.563404	1.117872	-0.056272
O38	O	0.503550	1.117881	0.056527
C39	C	0.533468	0.703605	0.000067
C40	C	0.533466	0.601282	0.000052
C41	C	0.489286	0.636418	-0.083167
C42	C	0.489295	0.540229	-0.083111
C43	C	0.577668	0.373769	0.083393
C44	C	0.577660	0.469957	0.083331
C45	C	0.445091	0.767743	-0.166447
C46	C	0.400907	0.802886	-0.249671
C47	C	0.400916	0.706697	-0.249615
C48	C	0.445110	0.575365	-0.166334
C49	C	0.373475	1.005123	0.000122
C50	C	0.319173	1.005133	0.000126
C51	C	-0.017525	1.005066	-0.083156
C52	C	-0.068543	1.005057	-0.083156
O53	O	-0.094918	1.005009	-0.153946
N54	N	-0.094061	1.005058	0.000107
C55	C	-0.068555	1.005055	0.083383
O56	O	-0.094944	1.005053	0.154206
C57	C	-0.017535	1.005055	0.083388
C58	C	0.007977	1.005067	0.000112
C59	C	0.007987	1.005077	-0.166424
C60	C	0.059001	1.005088	-0.166424
C61	C	0.084502	1.005089	-0.083156
C62	C	0.058990	1.005079	0.000112
C63	C	0.007973	1.005042	0.166667
C64	C	0.058996	1.005041	0.166665
C65	C	0.084508	1.005054	0.083389
C66	C	0.135506	1.005091	0.083379
N67	N	0.161024	1.005090	0.000116
C68	C	0.135522	1.005089	-0.083152
C69	C	-0.175698	1.005053	0.083369
C70	C	-0.226719	1.005062	0.083361
C71	C	-0.226704	1.005061	-0.083178
C72	C	-0.175684	1.005061	-0.083173
C73	C	-0.150180	1.005052	0.000106
C74	C	0.242654	1.005115	-0.083147
C75	C	0.293671	1.005132	-0.083142
C76	C	0.293653	1.005125	0.083399
C77	C	0.242638	1.005115	0.083392
C78	C	0.217142	1.005106	0.000114
O79	O	0.161914	1.005133	0.154136
O80	O	0.161922	1.005073	-0.153954
C81	C	0.693474	1.005064	0.000100
C82	C	0.747777	1.005054	0.000096
C83	C	0.533474	1.005099	-0.301409
C84	C	0.533474	1.005100	-0.403742
C85	C	0.533481	1.306582	0.000155
C86	C	0.533483	1.408905	0.000170
C87	C	0.502231	1.122848	-0.510676
C88	C	0.502233	1.122842	-0.606825
C89	C	0.564722	0.887330	-0.489091
C90	C	0.564723	0.887337	-0.392945
C91	C	0.470983	1.240611	-0.521473
C92	C	0.439736	1.358369	-0.628413
C93	C	0.439738	1.358363	-0.724561
C94	C	0.470986	1.240599	-0.713771
C95	C	0.533475	1.005088	0.301630
C96	C	0.533475	1.005087	0.403963
C97	C	0.693468	0.703575	0.000056
C98	C	0.747768	0.601243	0.000037
C99	C	0.533468	0.703600	0.301586
C100	C	0.533466	0.601275	0.403904
C101	C	0.693468	0.703570	0.301575
C102	C	0.747768	0.601236	0.403889
C103	C	0.373481	1.306617	-0.301354
C104	C	0.319181	1.408951	-0.403668
C105	C	0.373481	1.306612	0.000166
C106	C	0.319181	1.408944	0.000185
C107	C	0.533481	1.306587	-0.301364
C108	C	0.533483	1.408912	-0.403682
C109	C	0.742025	0.553193	-0.058857
C110	C	0.793041	0.457054	-0.058898
C111	C	0.849799	0.408960	-0.000036
C112	C	0.855541	0.457019	0.058860
C113	C	0.804526	0.553163	0.058893
C114	C	0.804517	0.553174	0.393057
C115	C	0.855542	0.457033	0.489183
C116	C	0.849818	0.408950	0.596140
C117	C	0.793064	0.457021	0.606970
C118	C	0.742040	0.553167	0.510845
C119	C	0.262433	1.457025	-0.392836
C120	C	0.211407	1.553195	-0.488962
C121	C	0.217131	1.601284	-0.595918
C122	C	0.273885	1.553206	-0.606748
C123	C	0.324910	1.457044	-0.510623
C124	C	0.324924	1.457004	0.059069
C125	C	0.273908	1.553169	0.059083
C126	C	0.217150	1.601267	0.000218
C127	C	0.211408	1.553203	-0.058674
C128	C	0.262423	1.457046	-0.058693
C129	C	0.564709	0.553192	0.510849
C130	C	0.564703	0.457052	0.606984
C131	C	0.502209	0.457085	0.489215
C132	C	0.502213	0.553229	0.393083
C133	C	0.595963	0.601238	0.521670
C134	C	0.627209	0.553153	0.628620
C135	C	0.627202	0.457013	0.724755
C136	C	0.595949	0.408959	0.713940
H137	H	0.613635	0.441343	0.151097
O138	O	0.280050	1.605082	-0.722116
H139	H	0.328083	1.555512	-0.713513
O140	O	0.595945	0.305259	0.817629
H141	H	0.576400	0.342158	0.868413
O142	O	0.150187	1.605091	-0.122164
H143	H	0.125452	1.586639	-0.062711
O144	O	0.598424	0.760311	-0.477437
H145	H	0.566883	0.754663	-0.518403
H146	H	0.371135	1.417850	0.107011
O147	O	0.470909	1.240614	-0.417768
H148	H	0.443908	1.342280	-0.443237
H149	H	0.175579	1.679584	-0.674180
H150	H	0.257761	1.417876	-0.305755
O151	O	0.660917	0.604978	0.640282
H152	H	0.642862	0.648792	0.686970
H153	H	0.278595	1.592287	0.107044
O154	O	0.406041	1.485362	-0.839904
H155	H	0.384310	1.567245	-0.831252
H156	H	0.445124	0.497048	-0.166312
H157	H	0.901761	0.417847	0.106783
O158	O	0.353269	0.744591	-0.339383
H159	H	0.327802	0.704765	-0.299313
H160	H	0.175615	1.679564	0.000243
H161	H	0.371115	1.417903	-0.519456
H162	H	0.476773	0.592378	0.306002
H163	H	0.470991	1.240604	-0.792066
O164	O	0.810723	0.604967	0.122437
H165	H	0.858763	0.555352	0.163369
H166	H	0.476765	0.417950	0.480420
H167	H	0.652640	0.417874	0.811833
O168	O	0.406035	1.485376	-0.640047
H169	H	0.424092	1.541835	-0.686723
H170	H	0.788354	0.417936	-0.106858
O171	O	0.810697	0.605040	0.277702
H172	H	0.858734	0.555470	0.286338
H173	H	0.257739	1.417918	-0.106641
H174	H	0.901750	0.417903	0.480345
O175	O	0.598446	0.760364	-0.277584
H176	H	0.566925	0.754711	-0.230906
O177	O	0.445091	0.871486	-0.166520
H178	H	0.406944	0.968707	-0.238417
O179	O	0.321190	1.005140	-0.172961
H180	H	0.294886	1.005124	-0.230853
O181	O	0.680810	0.605069	-0.122360
H182	H	0.685397	0.555506	-0.163328
H183	H	0.891334	0.330673	-0.000071
O184	O	0.215152	1.005122	-0.172974
H185	H	0.241466	1.005147	-0.230875
O186	O	0.353243	0.944526	-0.339496
H187	H	0.360654	1.005511	-0.325552
O188	O	0.150201	1.605014	-0.477253
H189	H	0.125459	1.711068	-0.518190
H190	H	0.595973	0.679517	0.443399
H191	H	0.613648	0.266835	0.151199
H192	H	0.079771	1.005093	-0.234231
H193	H	0.891371	0.330662	0.674402
H194	H	0.314423	1.005132	0.151192
O195	O	0.786893	0.405138	0.722333
H196	H	0.831911	0.330194	0.787344
H197	H	-0.154915	1.005070	-0.150983
O198	O	-0.019519	1.005092	-0.256249
H199	H	0.006797	1.005112	-0.314146
O200	O	-0.254210	1.005051	-0.172989
H201	H	-0.293969	1.005036	-0.158987
O202	O	0.680836	0.604973	0.522551
H203	H	0.656085	0.711032	0.481597
O204	O	-0.254228	1.005044	0.173185
H205	H	-0.267796	1.093080	0.169116
O206	O	-0.148195	1.005059	0.173188
H207	H	-0.174517	1.005070	0.231073
H208	H	0.079760	1.005029	0.234484
O209	O	-0.019526	1.004989	0.256506
H210	H	0.006794	1.004961	0.314413
H211	H	0.221861	1.005124	0.151193
