data_functionalizedCrystal
_audit_creation_method	'MofGen! by Chris Wilmer'
_symmetry_space_group_name_H-M	'P1'
_symmetry_Int_Tables_number	1
_symmetry_cell_setting	triclinic
loop_
_symmetry_equiv_pos_as_xyz
  x,y,z
_cell_length_a	15.995350
_cell_length_b	16.053811
_cell_length_c	16.992695
_cell_angle_alpha	87.258675
_cell_angle_beta	92.919701
_cell_angle_gamma	87.422018
loop_
_atom_site_label
_atom_site_type_symbol
_atom_site_fract_x
_atom_site_fract_y
_atom_site_fract_z
O1	O	1.121057	-0.069359	-0.097770
O2	O	1.621057	0.430641	0.402230
O3	O	0.878118	-0.069376	-0.110250
O4	O	1.378118	0.430624	0.389750
O5	O	0.998613	-0.069361	0.010132
O6	O	1.498613	0.430639	0.510132
O7	O	1.000561	-0.069374	-0.218153
O8	O	1.500561	0.430626	0.281847
O9	O	0.991978	0.069497	0.003532
O10	O	1.491978	0.569497	0.503532
O11	O	0.871482	0.069482	-0.116850
O12	O	1.371482	0.569482	0.383150
O13	O	1.114422	0.069499	-0.104370
O14	O	1.614422	0.569499	0.395630
Zn15	Zn	0.991899	0.091537	-0.111658
Zn16	Zn	1.491899	0.591537	0.388342
Zn17	Zn	1.000641	-0.091414	-0.102963
Zn18	Zn	1.500641	0.408586	0.397037
O19	O	0.993926	0.069484	-0.224752
O20	O	1.493926	0.569484	0.275248
C21	C	0.843571	0.000051	-0.113034
C22	C	1.343571	0.500051	0.386966
C23	C	0.750517	0.000044	-0.111487
C24	C	1.250517	0.500044	0.388513
N25	N	0.985939	0.216397	-0.117591
N26	N	1.485939	0.716397	0.382409
C27	C	0.992790	0.000068	0.036045
C28	C	1.492790	0.500068	0.536045
C29	C	0.985314	0.000067	0.123089
C30	C	1.485314	0.500067	0.623089
C31	C	0.412397	0.000062	-0.105932
C32	C	0.912397	0.500062	0.394068
C33	C	0.454079	0.000377	-0.020213
C34	C	0.954079	0.500377	0.479787
C35	C	0.550888	0.000058	-0.021745
C36	C	1.050888	0.500058	0.478255
C37	C	0.580143	0.000054	-0.108688
C38	C	1.080143	0.500054	0.391312
C39	C	0.545674	-0.079240	-0.147206
C40	C	1.045674	0.420760	0.352794
C41	C	0.448897	-0.079301	-0.145049
C42	C	0.948897	0.420699	0.354951
C43	C	0.441131	0.078607	-0.154326
C44	C	0.941131	0.578607	0.345674
C45	C	0.538025	0.079649	-0.154355
C46	C	1.038025	0.579649	0.345645
C47	C	0.674945	0.000046	-0.110249
C48	C	1.174945	0.500046	0.389751
C49	C	0.317595	0.000064	-0.104373
C50	C	0.817595	0.500064	0.395627
C51	C	1.148969	0.000071	-0.101586
C52	C	1.648969	0.500071	0.398414
C53	C	1.242022	0.000072	-0.103133
C54	C	1.742022	0.500072	0.396867
C55	C	1.037230	0.260097	-0.066387
C56	C	1.537230	0.760097	0.433613
C57	C	1.033069	0.347504	-0.070545
C58	C	1.533069	0.847504	0.429455
C59	C	0.977620	0.391208	-0.125912
C60	C	1.477620	0.891208	0.374088
C61	C	0.926323	0.347501	-0.177119
C62	C	1.426323	0.847501	0.322881
C63	C	0.930480	0.260097	-0.172956
C64	C	1.430480	0.760097	0.327044
C65	C	0.959460	0.652615	-0.144071
C66	C	1.459460	1.152615	0.355929
C67	C	0.955309	0.740026	-0.148232
C68	C	1.455309	1.240026	0.351768
C69	C	1.062055	0.740022	-0.041656
C70	C	1.562055	1.240022	0.458344
C71	C	1.066211	0.652616	-0.037502
C72	C	1.566211	1.152616	0.462498
C73	C	1.014910	0.608917	-0.088706
C74	C	1.514910	1.108917	0.411294
N75	N	0.973368	0.480551	-0.130165
N76	N	1.473368	0.980551	0.369835
N77	N	1.019159	0.519575	-0.084448
N78	N	1.519159	1.019575	0.415552
N79	N	1.006601	0.783726	-0.097027
N80	N	1.506601	1.283726	0.402973
C81	C	0.999750	0.000054	-0.250665
C82	C	1.499750	0.500054	0.249335
C83	C	1.007226	0.000049	-0.337709
C84	C	1.507226	0.500049	0.162291
C85	C	1.057449	0.000073	0.173329
C86	C	1.557449	0.500073	0.673329
C87	C	1.050419	0.000065	0.255116
C88	C	1.550419	0.500065	0.755116
C89	C	0.971254	0.000056	0.286661
C90	C	1.471254	0.500056	0.786661
C91	C	0.899114	0.000048	0.236415
C92	C	1.399114	0.500048	0.736415
C93	C	0.906144	0.000050	0.154630
C94	C	1.406144	0.500050	0.654630
C95	C	0.942116	0.000043	0.530260
C96	C	1.442116	0.500043	1.030260
C97	C	0.935091	0.000043	0.612051
C98	C	1.435091	0.500043	1.112051
C99	C	1.086398	0.000058	0.630747
C100	C	1.586398	0.500058	1.130747
C101	C	1.093421	0.000066	0.548959
C102	C	1.593421	0.500066	1.048959
C103	C	1.021281	0.000053	0.498720
C104	C	1.521281	0.500053	0.998720
N105	N	0.964067	0.000050	0.370260
N106	N	1.464067	0.500050	0.870260
N107	N	1.028469	0.000053	0.415123
N108	N	1.528469	0.500053	0.915123
H109	H	0.574377	0.056899	0.008794
H110	H	1.074377	0.556899	0.508794
C111	C	1.144531	0.000082	0.138637
C112	C	1.644531	0.500082	0.638637
H113	H	1.186485	0.000077	0.180275
H114	H	1.686485	0.500077	0.680275
H115	H	1.148107	0.048506	0.104823
H116	H	1.648107	0.548506	0.604823
H117	H	1.152732	-0.048346	0.109421
H118	H	1.652732	0.451654	0.609421
C119	C	1.180503	0.000064	0.514266
C120	C	1.680503	0.500064	1.014266
H121	H	1.222459	0.000058	0.555902
H122	H	1.722459	0.500058	1.055902
H123	H	1.184081	0.048486	0.480450
H124	H	1.684081	0.548486	0.980450
H125	H	1.188699	-0.048366	0.485051
H126	H	1.688699	0.451634	0.985051
C127	C	1.129768	0.000080	0.310377
C128	C	1.629768	0.500080	0.810377
H129	H	1.177921	0.000097	0.279876
H130	H	1.677921	0.500097	0.779876
H131	H	1.132493	-0.048343	0.344969
H132	H	1.632493	0.451657	0.844969
H133	H	1.127849	0.048509	0.340369
H134	H	1.627849	0.548509	0.840369
C135	C	0.422285	0.077193	0.022435
C136	C	0.922285	0.577193	0.522435
H137	H	0.383300	0.109760	-0.011650
H138	H	0.883300	0.609760	0.488350
H139	H	0.468253	0.109842	0.036648
H140	H	0.968253	0.609842	0.536648
H141	H	0.395666	0.059366	0.068615
H142	H	0.895666	0.559366	0.568615
H143	H	0.834656	0.000036	0.262105
H144	H	1.334656	0.500036	0.762105
C145	C	0.425193	-0.159365	-0.099584
C146	C	0.925193	0.340635	0.400416
H147	H	0.365956	-0.160110	-0.097871
H148	H	0.865956	0.339890	0.402129
H149	H	0.449560	-0.160599	-0.047355
H150	H	0.949560	0.339401	0.452645
H151	H	0.445432	-0.206785	-0.125488
H152	H	0.945432	0.293215	0.374512
H153	H	1.111362	0.617034	0.007582
H154	H	1.611362	1.117034	0.507582
C155	C	0.406987	0.159804	-0.120322
C156	C	0.906987	0.659804	0.379678
H157	H	0.425047	0.206438	-0.150370
H158	H	0.925047	0.706438	0.349630
H159	H	0.427360	0.162241	-0.067027
H160	H	0.927360	0.662241	0.432973
H161	H	0.347481	0.160827	-0.122601
H162	H	0.847481	0.660827	0.377399
H163	H	0.917691	0.617042	-0.185765
H164	H	1.417691	1.117042	0.314235
C165	C	0.403906	0.079336	-0.239752
C166	C	0.903906	0.579336	0.260248
H167	H	0.421495	0.126935	-0.268703
H168	H	0.921495	0.626935	0.231297
H169	H	0.344473	0.081376	-0.239552
H170	H	0.844473	0.581376	0.260448
H171	H	0.422798	0.030143	-0.263706
H172	H	0.922798	0.530143	0.236294
H173	H	1.074835	0.383084	-0.028850
H174	H	1.574835	0.883084	0.471150
H175	H	0.847404	0.000045	0.113724
H176	H	1.347404	0.500045	0.613724
H177	H	0.421032	-0.082902	-0.207823
H178	H	0.921032	0.417098	0.292177
H179	H	1.145130	0.000067	0.671660
H180	H	1.645130	0.500067	1.171660
H181	H	0.910153	0.775606	-0.193321
H182	H	1.410153	1.275606	0.306679
C183	C	0.568342	0.158898	-0.116420
C184	C	1.068342	0.658898	0.383580
H185	H	0.606511	0.143550	-0.072934
H186	H	1.106511	0.643550	0.427066
H187	H	0.521672	0.190040	-0.098640
H188	H	1.021672	0.690040	0.401360
H189	H	0.595569	0.191988	-0.154284
H190	H	1.095569	0.691988	0.345716
H191	H	0.579228	-0.056879	0.014426
H192	H	1.079228	0.443121	0.514426
H193	H	0.888712	0.224517	-0.214651
H194	H	1.388712	0.724517	0.285349
H195	H	0.870621	0.000049	0.637730
H196	H	1.370621	0.500049	1.137730
H197	H	0.883374	0.000032	0.489364
H198	H	1.383374	0.500032	0.989364
C199	C	1.118473	0.788088	0.014671
C200	C	1.618473	1.288088	0.514671
H201	H	1.152094	0.749541	0.048239
H202	H	1.652094	1.249541	0.548239
H203	H	1.084548	0.822195	0.045703
H204	H	1.584548	1.322195	0.545703
H205	H	1.153598	0.822174	-0.015179
H206	H	1.653598	1.322174	0.484821
H207	H	0.564214	-0.082191	-0.210941
H208	H	1.064214	0.417809	0.289059
C209	C	0.585149	-0.158958	-0.103739
C210	C	1.085149	0.341042	0.396261
H211	H	0.622633	-0.144088	-0.062115
H212	H	1.122633	0.355912	0.437885
H213	H	0.614922	-0.191042	-0.139663
H214	H	1.114922	0.308958	0.360337
H215	H	0.542238	-0.190918	-0.082605
H216	H	1.042238	0.309082	0.417395
H217	H	0.557404	0.084436	-0.217984
H218	H	1.057404	0.584436	0.282016
C219	C	0.428175	-0.076007	0.029506
C220	C	0.928175	0.423993	0.529506
H221	H	0.392071	-0.108091	-0.001749
H222	H	0.892071	0.391909	0.498251
H223	H	0.399741	-0.057770	0.073774
H224	H	0.899741	0.442230	0.573774
H225	H	0.476738	-0.109296	0.047155
H226	H	0.976738	0.390704	0.547155
C227	C	1.098230	0.212026	-0.005490
C228	C	1.598230	0.712026	0.494510
H229	H	1.093369	0.153712	-0.010349
H230	H	1.593369	0.653712	0.489651
H231	H	1.084963	0.226359	0.046166
H232	H	1.584963	0.726359	0.546166
H233	H	1.154000	0.226345	-0.014729
H234	H	1.654000	0.726345	0.485271
C235	C	0.865332	0.395574	-0.238022
C236	C	1.365332	0.895574	0.261978
H237	H	0.870207	0.453888	-0.233174
H238	H	1.370207	0.953888	0.266826
H239	H	0.809562	0.381262	-0.228797
H240	H	1.309562	0.881262	0.271203
H241	H	0.878612	0.381235	-0.289678
H242	H	1.378612	0.881235	0.210322
