data_functionalizedCrystal
_audit_creation_method	'MofGen! by Chris Wilmer'
_symmetry_space_group_name_H-M	'P1'
_symmetry_Int_Tables_number	1
_symmetry_cell_setting	triclinic
loop_
_symmetry_equiv_pos_as_xyz
  x,y,z
_cell_length_a	14.971486
_cell_length_b	23.532407
_cell_length_c	14.048226
_cell_angle_alpha	89.988910
_cell_angle_beta	89.998499
_cell_angle_gamma	83.231404
loop_
_atom_site_label
_atom_site_type_symbol
_atom_site_fract_x
_atom_site_fract_y
_atom_site_fract_z
O1	O	1.186163	0.074216	-0.079061
O2	O	0.925669	0.083104	-0.079088
O3	O	1.063771	-0.004238	-0.079057
O4	O	1.048061	0.161558	-0.079093
O5	O	1.063755	-0.004243	0.079265
O6	O	0.925652	0.083099	0.079233
O7	O	1.186146	0.074211	0.079260
Zn8	Zn	1.055897	0.078654	0.104383
Zn9	Zn	1.055919	0.078661	-0.104212
O10	O	1.048044	0.161553	0.079228
C11	C	0.892340	0.082704	0.000069
C12	C	0.793056	0.081513	0.000059
C13	C	1.063363	-0.025458	0.000107
C14	C	1.062160	-0.088680	0.000114
C15	C	0.735288	0.132824	0.000050
C16	C	0.642001	0.131701	0.000064
C17	C	0.606482	0.079267	0.000082
C18	C	0.664257	0.027952	0.000094
C19	C	0.757543	0.029075	0.000087
C20	C	0.469819	0.025615	0.000108
C21	C	0.376527	0.024491	0.000114
C22	C	0.354277	0.128241	0.000085
C23	C	0.447563	0.129364	0.000078
C24	C	0.505331	0.078049	0.000089
C25	C	1.136342	-0.487466	0.000069
C26	C	1.135224	-0.546871	0.000062
O27	O	1.203992	-0.583321	0.000034
N28	N	1.053123	-0.569849	0.000054
C29	C	0.972133	-0.533418	0.000044
O30	O	0.902196	-0.558417	0.000036
C31	C	0.973251	-0.474014	0.000044
C32	C	1.055358	-0.451040	0.000062
C33	C	1.218442	-0.464491	0.000086
C34	C	1.219559	-0.405090	0.000095
C35	C	1.138576	-0.368664	0.000087
C36	C	1.056475	-0.391639	0.000071
C37	C	0.892263	-0.437584	0.000027
C38	C	0.893388	-0.378177	0.000027
C39	C	0.975495	-0.355203	0.000045
C40	C	0.976609	-0.295812	0.000073
N41	N	1.058711	-0.272834	0.000081
C42	C	1.139694	-0.309260	0.000088
C43	C	0.969791	-0.658170	0.000041
C44	C	0.968671	-0.717573	0.000047
C45	C	1.131763	-0.731022	0.000064
C46	C	1.132882	-0.671618	0.000064
C47	C	1.051892	-0.635193	0.000049
C48	C	1.142034	-0.184513	0.000108
C49	C	1.143143	-0.125106	0.000121
C50	C	0.980052	-0.111663	0.000100
C51	C	0.978942	-0.171064	0.000092
C52	C	1.059940	-0.207489	0.000093
O53	O	0.907878	-0.259327	0.000097
O54	O	1.209619	-0.284253	0.000084
C55	C	1.219475	0.074611	0.000101
C56	C	1.318760	0.075802	0.000104
C57	C	1.048453	0.182773	0.000063
C58	C	1.049655	0.245996	0.000050
N59	N	1.055889	0.078649	0.246744
N60	N	1.055934	0.078661	-0.246572
C61	C	1.117059	0.039990	0.296576
C62	C	1.117065	0.039990	0.396234
C63	C	1.055904	0.078652	0.446058
C64	C	0.994727	0.117313	0.396218
C65	C	0.994717	0.117310	0.296563
C66	C	0.994753	0.117317	0.603933
C67	C	0.994763	0.117320	0.703595
C68	C	1.117101	0.039997	0.703604
C69	C	1.117091	0.039994	0.603948
C70	C	1.055915	0.078656	0.554116
H71	H	0.594969	0.173484	0.000055
H72	H	0.516853	-0.016172	0.000118
C73	C	0.572262	-0.033497	-0.081274
C74	C	0.625218	-0.029685	0.000111
H75	H	0.548168	-0.069082	-0.081267
H76	H	0.524510	-0.003102	-0.081272
H77	H	0.608201	-0.030900	-0.136479
H78	H	0.589278	-0.032278	0.055317
H79	H	0.672977	-0.060088	0.000118
H80	H	0.307237	0.170023	0.000080
C81	C	1.137230	-0.037499	0.815685
C82	C	1.184346	-0.002505	0.758370
H83	H	1.178747	-0.063738	0.849491
H84	H	1.100815	-0.014477	0.859619
H85	H	1.100184	-0.058023	0.776809
H86	H	1.221387	0.018021	0.797247
H87	H	1.220776	-0.025531	0.714431
C88	C	0.872871	0.129536	0.184510
C89	C	0.927477	0.159806	0.241784
H90	H	0.831354	0.155773	0.150699
H91	H	0.909294	0.106516	0.140580
H92	H	0.840920	0.105799	0.223413
H93	H	0.959433	0.183540	0.202880
H94	H	0.891050	0.182836	0.285719
C95	C	0.872911	0.129544	0.508313
C96	C	0.927498	0.159809	0.450987
H97	H	0.831412	0.155782	0.542128
H98	H	0.840948	0.105808	0.469452
H99	H	0.909356	0.106521	0.552249
H100	H	0.891054	0.182829	0.407046
H101	H	0.959464	0.183555	0.489852
C102	C	1.136902	-0.037616	0.492185
C103	C	1.184208	-0.002642	0.549309
H104	H	1.178305	-0.063977	0.458489
H105	H	1.099745	-0.057996	0.531168
H106	H	1.100584	-0.014593	0.448145
H107	H	1.220520	-0.025665	0.593354
H108	H	1.221380	0.017740	0.510323
H109	H	0.764199	0.175522	0.000034
H110	H	1.166874	0.008511	0.436807
H111	H	1.284392	-0.494144	0.000088
C112	C	1.293974	-0.690892	0.000074
C113	C	1.223135	-0.646368	0.000069
H114	H	1.349694	-0.675305	0.000068
H115	H	1.290139	-0.713784	0.055283
H116	H	1.290137	-0.713778	-0.055138
H117	H	1.226968	-0.623484	0.055284
H118	H	1.226972	-0.623467	-0.055147
H119	H	0.804577	-0.012707	0.000094
C120	C	1.304244	-0.144376	0.000129
C121	C	1.233402	-0.099855	0.000132
H122	H	1.359963	-0.128787	0.000128
H123	H	1.300411	-0.167273	0.055333
H124	H	1.300410	-0.167258	-0.055088
H125	H	1.237232	-0.076975	0.055353
H126	H	1.237237	-0.076949	-0.055077
H127	H	0.827435	-0.348522	0.000013
C128	C	1.235430	-0.259099	-0.081278
C129	C	1.231068	-0.224545	0.000113
H130	H	1.290399	-0.283809	-0.081271
H131	H	1.186388	-0.281289	-0.081282
H132	H	1.232478	-0.235631	-0.136479
H133	H	1.234013	-0.248012	0.055315
H134	H	1.280124	-0.202353	0.000126
C135	C	1.315446	-0.346107	0.081488
C136	C	1.309814	-0.379841	0.000101
H137	H	1.371171	-0.330526	0.081489
H138	H	1.267387	-0.315909	0.081480
H139	H	1.311613	-0.369013	0.136692
H140	H	1.313639	-0.356934	-0.055104
H141	H	1.357886	-0.410043	0.000100
H142	H	0.944934	0.148797	0.563363
H143	H	1.197704	-0.760691	0.000066
C144	C	0.807578	-0.698298	0.000029
C145	C	0.878417	-0.742822	0.000036
H146	H	0.751858	-0.713885	0.000012
H147	H	0.811403	-0.675419	0.055240
H148	H	0.811424	-0.675399	-0.055180
H149	H	0.874574	-0.765719	0.055249
H150	H	0.874590	-0.765710	-0.055181
C151	C	0.839627	0.150574	0.734311
C152	C	0.927525	0.159807	0.758373
H153	H	0.798117	0.176800	0.768136
H154	H	0.830864	0.156114	0.667838
H155	H	0.830287	0.112549	0.750656
H156	H	0.936867	0.197831	0.742021
H157	H	0.936292	0.154272	0.824860
C158	C	0.876413	-0.583574	0.081425
C159	C	0.880761	-0.618132	0.000039
H160	H	0.821452	-0.558856	0.081417
H161	H	0.879363	-0.607035	0.136624
H162	H	0.925469	-0.561387	0.081419
H163	H	0.831708	-0.640322	0.000048
H164	H	0.877801	-0.594668	-0.055174
C165	C	0.416204	0.231804	0.000057
C166	C	0.486607	0.187000	0.000060
H167	H	0.440311	0.267385	0.000054
H168	H	0.380282	0.229212	-0.055147
H169	H	0.380283	0.229203	0.055274
H170	H	0.522525	0.189598	-0.055161
H171	H	0.522544	0.189592	0.055270
C172	C	0.796395	-0.496558	-0.081397
C173	C	0.802006	-0.462827	-0.000003
H174	H	0.740672	-0.512143	-0.081413
H175	H	0.800242	-0.473655	-0.136591
H176	H	0.844460	-0.526760	-0.081376
H177	H	0.753945	-0.432622	-0.000028
H178	H	0.798151	-0.485731	0.055205
C179	C	0.366762	-0.064287	-0.081233
C180	C	0.337480	-0.033143	0.000140
H181	H	0.342658	-0.099870	-0.081212
H182	H	0.346902	-0.043159	-0.136441
H183	H	0.430588	-0.070963	-0.081222
H184	H	0.273654	-0.026464	0.000125
H185	H	0.357336	-0.054277	0.055362
H186	H	0.912084	-0.189771	0.000104
H187	H	0.914118	-0.081994	0.000097
C188	C	1.237977	-0.036444	0.306605
C189	C	1.184289	-0.002510	0.241815
H190	H	1.279477	-0.062686	0.272797
H191	H	1.269940	-0.012703	0.345457
H192	H	1.200923	-0.056965	0.345491
H193	H	1.221343	0.018014	0.202933
H194	H	1.152324	-0.026254	0.202947
