data_functionalizedCrystal
_audit_creation_method	'MofGen! by Chris Wilmer'
_symmetry_space_group_name_H-M	'P1'
_symmetry_Int_Tables_number	1
_symmetry_cell_setting	triclinic
loop_
_symmetry_equiv_pos_as_xyz
  x,y,z
_cell_length_a	12.759401
_cell_length_b	25.639239
_cell_length_c	12.759386
_cell_angle_alpha	89.929477
_cell_angle_beta	89.960085
_cell_angle_gamma	90.038847
loop_
_atom_site_label
_atom_site_type_symbol
_atom_site_fract_x
_atom_site_fract_y
_atom_site_fract_z
Zn1	Zn	1.606303	-0.207945	-0.593942
Zn2	Zn	1.606058	-0.295443	-0.418245
Zn3	Zn	1.430539	-0.208023	-0.418281
Zn4	Zn	1.430520	-0.295351	-0.593887
O5	O	1.518355	-0.251691	-0.506089
O6	O	1.753291	-0.219557	-0.570643
O7	O	1.582680	-0.283918	-0.271229
O8	O	1.453965	-0.134848	-0.441621
O9	O	1.753111	-0.283841	-0.441560
O10	O	1.583098	-0.134790	-0.570678
O11	O	1.453727	-0.219691	-0.271255
O12	O	1.283515	-0.219602	-0.441568
O13	O	1.453932	-0.283686	-0.740915
O14	O	1.283501	-0.283762	-0.570584
O15	O	1.583079	-0.219469	-0.740956
O16	O	1.582662	-0.368596	-0.441506
O17	O	1.453695	-0.368529	-0.570549
C18	C	1.245387	-0.251681	-0.506075
C19	C	1.128611	-0.251690	-0.506093
C20	C	1.518178	-0.387533	-0.506041
C21	C	1.518198	-0.445647	-0.506055
C22	C	1.073769	-0.285151	-0.573161
C23	C	0.964045	-0.285158	-0.573173
C24	C	0.964014	-0.218240	-0.439039
C25	C	1.073736	-0.218231	-0.439034
C26	C	1.073785	-0.323787	-0.650599
C27	C	0.964061	-0.323794	-0.650610
C28	C	1.585683	-0.806033	-0.439010
C29	C	1.585724	-0.860637	-0.439025
O30	O	1.642918	-0.888893	-0.381968
N31	N	1.518539	-0.887930	-0.506158
C32	C	1.451317	-0.860615	-0.573290
O33	O	1.394176	-0.888844	-0.630395
C34	C	1.451283	-0.806012	-0.573281
C35	C	1.518464	-0.778722	-0.506135
C36	C	1.652860	-0.778743	-0.371871
C37	C	1.652817	-0.724142	-0.371856
C38	C	1.585598	-0.696832	-0.438980
C39	C	1.518422	-0.724122	-0.506120
C40	C	1.384067	-0.778699	-0.640417
C41	C	1.384038	-0.724092	-0.640402
C42	C	1.451220	-0.696802	-0.573256
C43	C	1.451160	-0.642210	-0.573229
N44	N	1.518345	-0.614918	-0.506095
C45	C	1.585564	-0.642228	-0.438971
C46	C	1.451396	-0.975286	-0.573306
C47	C	1.451425	-1.029888	-0.573311
C48	C	1.585833	-1.029906	-0.439047
C49	C	1.585799	-0.975303	-0.439037
C50	C	1.518581	-0.947993	-0.506172
C51	C	1.585469	-0.527563	-0.438943
C52	C	1.585418	-0.472958	-0.438931
C53	C	1.451014	-0.472945	-0.573199
C54	C	1.451061	-0.527545	-0.573208
C55	C	1.518297	-0.554853	-0.506076
O56	O	1.393998	-0.613920	-0.630259
O57	O	1.642705	-0.613993	-0.381885
C58	C	1.792388	-0.251701	-0.506104
C59	C	1.909165	-0.251705	-0.506110
C60	C	1.518531	-0.251558	-0.780123
C61	C	1.518606	-0.251502	-0.896899
C62	C	1.518561	-0.115318	-0.506160
C63	C	1.518648	-0.057204	-0.506190
C64	C	1.518240	-0.251785	-0.233121
C65	C	1.518368	-0.251694	-0.116345
C66	C	1.451794	-0.285225	0.048564
C67	C	1.451678	-0.285322	-0.061160
C68	C	1.585187	-0.217970	-0.061801
C69	C	1.585308	-0.217875	0.047921
C70	C	1.374711	-0.324109	0.048933
C71	C	1.374594	-0.324206	-0.060790
H72	H	0.919322	-0.190999	-0.384443
H73	H	1.396360	-0.549766	-0.627886
C74	C	1.414579	-0.376070	-0.106533
H75	H	1.432461	-0.399100	-0.050978
H76	H	1.474708	-0.369682	-0.148584
H77	H	1.361220	-0.391427	-0.148247
H78	H	1.103633	-0.312965	-0.732008
C79	C	1.119685	-0.375733	-0.611038
H80	H	1.064199	-0.398873	-0.593429
H81	H	1.161553	-0.369499	-0.550803
H82	H	1.161610	-0.390879	-0.664488
H83	H	1.293052	-0.313675	-0.090486
H84	H	1.639723	-0.190420	0.092320
H85	H	1.329303	-0.701859	-0.695075
H86	H	1.297267	-0.309851	0.083020
H87	H	1.118384	-0.190980	-0.384428
C88	C	1.659325	-0.442942	-0.365073
H89	H	1.699370	-0.467031	-0.325108
H90	H	1.619133	-0.421692	-0.319252
H91	H	1.705084	-0.421591	-0.405304
C92	C	0.918175	-0.304241	-0.755103
H93	H	0.843811	-0.304909	-0.751543
H94	H	0.941182	-0.326186	-0.810450
H95	H	0.941210	-0.269558	-0.767768
C96	C	1.377083	-0.442896	-0.647035
H97	H	1.386695	-0.406469	-0.637412
H98	H	1.306497	-0.451887	-0.631613
H99	H	1.392469	-0.451788	-0.717643
H100	H	1.639494	-0.190592	-0.106741
C101	C	1.404985	-0.378657	0.089437
H102	H	1.417356	-0.401156	0.031637
H103	H	1.349555	-0.392296	0.130997
H104	H	1.466760	-0.376168	0.130653
H105	H	0.934223	-0.364284	-0.628670
H106	H	1.396651	-0.953053	-0.627973
H107	H	1.640221	-0.549791	-0.384281
H108	H	1.707525	-0.701926	-0.317183
C109	C	1.726792	-0.808778	-0.298016
H110	H	1.717204	-0.845208	-0.307625
H111	H	1.711406	-0.799875	-0.227419
H112	H	1.797380	-0.799784	-0.313447
C113	C	1.659705	-0.945289	-0.365186
H114	H	1.699744	-0.969379	-0.325219
H115	H	1.619518	-0.924036	-0.319369
H116	H	1.705471	-0.923942	-0.405418
H117	H	1.640570	-1.052152	-0.384394
H118	H	1.396709	-1.052103	-0.627978
C119	C	1.310173	-0.808706	-0.714286
H120	H	1.270152	-0.784613	-0.754265
H121	H	1.264407	-0.830059	-0.674079
H122	H	1.350380	-0.829952	-0.760109
