data_functionalizedCrystal
_audit_creation_method	'MofGen! by Chris Wilmer'
_symmetry_space_group_name_H-M	'P1'
_symmetry_Int_Tables_number	1
_symmetry_cell_setting	triclinic
loop_
_symmetry_equiv_pos_as_xyz
  x,y,z
_cell_length_a	16.109301
_cell_length_b	14.586319
_cell_length_c	10.654550
_cell_angle_alpha	89.998997
_cell_angle_beta	83.973192
_cell_angle_gamma	90.003133
loop_
_atom_site_label
_atom_site_type_symbol
_atom_site_fract_x
_atom_site_fract_y
_atom_site_fract_z
O1	O	1.104094	0.076180	0.161412
O2	O	0.862151	0.076194	0.181500
O3	O	0.988685	0.076183	-0.011359
O4	O	0.977560	0.076191	0.354271
O5	O	0.988670	-0.076297	-0.011347
O6	O	0.862136	-0.076287	0.181512
O7	O	1.104078	-0.076301	0.161423
Cu8	Cu	0.983106	-0.090216	0.171468
Cu9	Cu	0.983124	0.090110	0.171455
O10	O	0.977544	-0.076290	0.354282
C11	C	0.831164	-0.000044	0.180692
C12	C	0.738854	-0.000039	0.178253
N13	N	0.983099	-0.217048	0.171477
C14	C	0.517228	-0.000047	0.287019
C15	C	0.430494	-0.000053	0.284717
C16	C	0.449008	-0.000054	0.055896
C17	C	0.535740	-0.000055	0.058199
C18	C	0.569848	-0.000047	0.173764
C19	C	0.396382	-0.000052	0.169159
C20	C	0.302341	-0.000058	0.166662
C21	C	0.663895	-0.000042	0.176262
C22	C	1.033974	-0.452056	0.247648
C23	C	1.033983	-0.548037	0.247640
C24	C	0.932260	-0.548044	0.095256
C25	C	0.932256	-0.452064	0.095259
C26	C	0.983112	-0.404073	0.171463
C27	C	0.983124	-0.596034	0.171451
C28	C	0.983133	-0.700101	0.171441
C29	C	0.983104	-0.299999	0.171471
C30	C	1.135066	-0.000060	0.162231
C31	C	1.227376	-0.000060	0.164671
C32	C	0.987861	-0.000056	-0.058140
C33	C	0.985417	-0.000053	-0.197550
N34	N	0.983137	0.216942	0.171436
C35	C	1.059918	-0.000060	-0.278046
C36	C	1.057616	-0.000053	-0.409036
C37	C	0.906306	-0.000036	-0.379020
C38	C	0.908608	-0.000036	-0.248033
C39	C	1.147276	-0.000073	-0.295377
C40	C	1.144974	-0.000067	-0.426367
C41	C	0.978369	-0.000049	0.401063
C42	C	0.980813	-0.000046	0.540473
H43	H	0.387654	-0.000056	0.376940
O44	O	1.188159	0.075953	-0.260859
C45	C	1.258520	0.049477	-0.201282
H46	H	1.278035	-0.022859	-0.232300
H47	H	1.242315	0.050897	-0.094538
C48	C	1.306940	0.205200	-0.200400
C49	C	1.330913	0.116357	-0.238505
H50	H	1.351595	0.246456	-0.223355
H51	H	1.259535	0.223038	-0.240534
H52	H	1.293435	0.206370	-0.111448
H53	H	1.344407	0.115186	-0.327456
H54	H	1.378322	0.098520	-0.198386
H55	H	0.890837	-0.412995	0.033213
H56	H	0.890853	-0.587130	0.033216
H57	H	0.421227	-0.000066	-0.038193
H58	H	1.175087	-0.065913	-0.260123
H59	H	0.847942	-0.000018	-0.182496
H60	H	0.843771	-0.000022	-0.420139
H61	H	1.171382	0.065769	-0.472373
O62	O	1.083255	-0.405396	0.321806
C63	C	1.033057	-0.349868	0.407462
H64	H	0.966981	-0.378799	0.420920
H65	H	1.031428	-0.277125	0.368660
C66	C	1.150839	-0.312864	0.518733
C67	C	1.069684	-0.348401	0.535271
H68	H	1.173433	-0.311955	0.597571
H69	H	1.184659	-0.350271	0.461023
H70	H	1.149470	-0.252248	0.486394
H71	H	1.071056	-0.409020	0.567594
H72	H	1.035865	-0.311004	0.592990
H73	H	0.544995	-0.000048	0.381119
O74	O	1.184336	-0.076105	-0.476814
C75	C	1.252129	-0.049650	-0.563799
H76	H	1.272626	0.022677	-0.540710
H77	H	1.232293	-0.051056	-0.663392
C78	C	1.300116	-0.205390	-0.583830
C79	C	1.325295	-0.116559	-0.555465
H80	H	1.345248	-0.246664	-0.578696
H81	H	1.254441	-0.223214	-0.525231
H82	H	1.283586	-0.206548	-0.666823
H83	H	1.341815	-0.115400	-0.472469
H84	H	1.370975	-0.098736	-0.614051
O85	O	0.586742	-0.000012	-0.051939
C86	C	0.538042	-0.000034	-0.154433
H87	H	0.473503	0.028836	-0.122543
H88	H	0.531660	-0.073187	-0.189854
C89	C	0.659913	0.024302	-0.300794
C90	C	0.580648	0.059768	-0.261627
H91	H	0.686196	0.061188	-0.366919
H92	H	0.692725	0.024314	-0.231742
H93	H	0.654584	-0.036658	-0.330302
H94	H	0.585979	0.120723	-0.232106
H95	H	0.547839	0.059769	-0.330677
H96	H	1.075402	-0.587101	0.309676
