data_functionalizedCrystal
_audit_creation_method	'MofGen! by Chris Wilmer'
_symmetry_space_group_name_H-M	'P1'
_symmetry_Int_Tables_number	1
_symmetry_cell_setting	triclinic
loop_
_symmetry_equiv_pos_as_xyz
  x,y,z
_cell_length_a	19.288864
_cell_length_b	16.098538
_cell_length_c	19.288865
_cell_angle_alpha	92.708117
_cell_angle_beta	96.863755
_cell_angle_gamma	92.743008
loop_
_atom_site_label
_atom_site_type_symbol
_atom_site_fract_x
_atom_site_fract_y
_atom_site_fract_z
O1	O	0.924481	0.069533	-0.083521
O2	O	1.257814	0.402867	0.249812
O3	O	1.591147	0.736200	0.583145
O4	O	0.722217	0.069478	-0.095213
O5	O	1.055551	0.402811	0.238121
O6	O	1.388884	0.736144	0.571454
O7	O	0.829193	0.069491	0.011763
O8	O	1.162526	0.402824	0.345096
O9	O	1.495859	0.736157	0.678429
O10	O	0.817505	0.069520	-0.190497
O11	O	1.150839	0.402854	0.142837
O12	O	1.484172	0.736187	0.476170
O13	O	0.822944	-0.069023	0.005538
O14	O	1.156277	0.264310	0.338871
O15	O	1.489610	0.597644	0.672205
O16	O	0.715969	-0.069036	-0.101437
O17	O	1.049302	0.264297	0.231896
O18	O	1.382635	0.597631	0.565230
O19	O	0.918232	-0.068980	-0.089746
O20	O	1.251565	0.264353	0.243587
O21	O	1.584898	0.597686	0.576921
Zn22	Zn	0.816108	-0.091000	-0.096580
Zn23	Zn	1.149441	0.242333	0.236754
Zn24	Zn	1.482775	0.575666	0.570087
Zn25	Zn	0.824341	0.091498	-0.088379
Zn26	Zn	1.157675	0.424831	0.244955
Zn27	Zn	1.491008	0.758164	0.578288
O28	O	0.811256	-0.068993	-0.196721
O29	O	1.144590	0.264340	0.136612
O30	O	1.477923	0.597673	0.469946
C31	C	0.693216	0.000213	-0.097949
C32	C	1.026550	0.333547	0.235384
C33	C	1.359883	0.666880	0.568718
C34	C	0.616112	0.000192	-0.096821
C35	C	0.949445	0.333525	0.236512
C36	C	1.282778	0.666858	0.569846
N37	N	0.810494	-0.215550	-0.102176
N38	N	1.143827	0.117783	0.231157
N39	N	1.477161	0.451117	0.564490
C40	C	0.571416	0.000214	-0.159588
C41	C	0.904750	0.333547	0.173745
C42	C	1.238083	0.666881	0.507079
C43	C	0.498970	0.000223	-0.158527
C44	C	0.832303	0.333556	0.174806
C45	C	1.165636	0.666890	0.508140
C46	C	0.471222	0.000226	-0.094695
C47	C	0.804556	0.333560	0.238639
C48	C	1.137889	0.666893	0.571972
C49	C	0.515927	0.000199	-0.031920
C50	C	0.849261	0.333533	0.301414
C51	C	1.182594	0.666866	0.634747
C52	C	0.588372	0.000182	-0.032983
C53	C	0.921705	0.333515	0.300350
C54	C	1.255039	0.666849	0.633684
C55	C	0.365151	0.048774	-0.042334
C56	C	0.698484	0.382108	0.291000
C57	C	1.031817	0.715441	0.624333
C58	C	0.292707	0.048797	-0.041273
C59	C	0.626040	0.382130	0.292060
C60	C	0.959374	0.715464	0.625394
C61	C	0.247779	0.000276	-0.091413
C62	C	0.581112	0.333610	0.241921
C63	C	0.914446	0.666943	0.575254
C64	C	0.275302	-0.048256	-0.142625
C65	C	0.608636	0.285077	0.190709
C66	C	0.941969	0.618410	0.524042
C67	C	0.347747	-0.048274	-0.143688
C68	C	0.681080	0.285060	0.189645
C69	C	1.014414	0.618393	0.522979
C70	C	0.392669	0.000245	-0.093535
C71	C	0.726002	0.333578	0.239799
C72	C	1.059336	0.666911	0.573132
C73	C	0.124528	0.000307	-0.153033
C74	C	0.457861	0.333641	0.180300
C75	C	0.791195	0.666974	0.513633
C76	C	0.052080	0.000311	-0.151970
C77	C	0.385414	0.333644	0.181363
C78	C	0.718747	0.666978	0.514697
C79	C	0.069040	0.000296	-0.025360
C80	C	0.402373	0.333629	0.307973
C81	C	0.735706	0.666963	0.641306
C82	C	0.141486	0.000284	-0.026426
C83	C	0.474819	0.333617	0.306907
C84	C	0.808152	0.666950	0.640240
C85	C	0.169225	0.000293	-0.090264
C86	C	0.502559	0.333627	0.243069
C87	C	0.835892	0.666960	0.576402
C88	C	0.855915	-0.259130	-0.056788
C89	C	1.189249	0.074204	0.276546
C90	C	1.522582	0.407537	0.609879
C91	C	0.851994	-0.346319	-0.060709
C92	C	1.185328	-0.012986	0.272624
C93	C	1.518661	0.320348	0.605957
C94	C	0.802655	-0.389927	-0.110023
C95	C	1.135989	-0.056594	0.223310
C96	C	1.469322	0.276739	0.556643
C97	C	0.757230	-0.346342	-0.155414
C98	C	1.090563	-0.013008	0.177919
C99	C	1.423896	0.320325	0.511253
C100	C	0.761147	-0.259154	-0.151489
C101	C	1.094481	0.074179	0.181845
C102	C	1.427814	0.407513	0.515178
C103	C	0.788453	-0.653179	-0.124242
C104	C	1.121786	-0.319846	0.209092
C105	C	1.455119	0.013488	0.542425
C106	C	0.784539	-0.740373	-0.128165
C107	C	1.117873	-0.407040	0.205168
C108	C	1.451206	-0.073706	0.538502
C109	C	0.879304	-0.740344	-0.033459
C110	C	1.212637	-0.407011	0.299874
C111	C	1.545971	-0.073678	0.633208
C112	C	0.883220	-0.653155	-0.029541
C113	C	1.216554	-0.319822	0.303792
C114	C	1.549887	0.013512	0.637126
C115	C	0.837792	-0.609577	-0.074929
C116	C	1.171125	-0.276243	0.258404
C117	C	1.504459	0.057090	0.591738
C118	C	0.798648	-0.479049	-0.114035
C119	C	1.131981	-0.145716	0.219299
C120	C	1.465315	0.187618	0.552632
C121	C	0.841796	-0.520457	-0.070914
C122	C	1.175130	-0.187123	0.262419
C123	C	1.508463	0.146210	0.595753
C124	C	0.947233	0.000286	-0.087009
C125	C	1.280566	0.333619	0.246324
C126	C	1.613900	0.666952	0.579657
C127	C	1.024338	0.000313	-0.088137
C128	C	1.357671	0.333646	0.245196
C129	C	1.691005	0.666980	0.578530
C130	C	0.825692	0.000231	0.034527
C131	C	1.159025	0.333565	0.367860
C132	C	1.492359	0.666898	0.701193
C133	C	0.824563	0.000224	0.111630
C134	C	1.157896	0.333557	0.444963
C135	C	1.491229	0.666890	0.778297
N136	N	0.829961	0.216047	-0.082777
N137	N	1.163294	0.549381	0.250557
N138	N	1.496627	0.882714	0.583890
C139	C	0.814757	0.000268	-0.219485
C140	C	1.148091	0.333601	0.113848
C141	C	1.481424	0.666935	0.447182
C142	C	0.815887	0.000281	-0.296588
C143	C	1.149220	0.333614	0.036745
C144	C	1.482553	0.666948	0.370079
C145	C	0.887331	0.000237	0.156327
C146	C	1.220665	0.333570	0.489660
C147	C	1.553998	0.666903	0.822994
C148	C	0.886271	0.000250	0.228775
C149	C	1.219604	0.333583	0.562108
C150	C	1.552938	0.666916	0.895441
C151	C	0.822438	0.000233	0.256521
C152	C	1.155771	0.333566	0.589855
C153	C	1.489105	0.666899	0.923188
C154	C	0.759662	0.000224	0.211815
C155	C	1.092995	0.333557	0.545148
C156	C	1.426328	0.666891	0.878481
C157	C	0.760724	0.000220	0.139369
C158	C	1.094057	0.333553	0.472702
C159	C	1.427391	0.666886	0.806036
C160	C	0.770069	-0.048300	0.362628
C161	C	1.103402	0.285034	0.695961
C162	C	1.436736	0.618367	1.029294
C163	C	0.769009	-0.048300	0.435072
C164	C	1.102343	0.285033	0.768406
C165	C	1.435676	0.618366	1.101739
C166	C	0.819159	0.000250	0.479968
C167	C	1.152493	0.333584	0.813301
C168	C	1.485826	0.666917	1.146634
C169	C	0.870381	0.048791	0.452411
C170	C	1.203714	0.382124	0.785744
C171	C	1.537047	0.715457	1.119078
C172	C	0.871443	0.048786	0.379965
C173	C	1.204776	0.382119	0.713299
C174	C	1.538110	0.715453	1.046632
C175	C	0.821279	0.000238	0.335076
C176	C	1.154613	0.333571	0.668409
C177	C	1.487946	0.666905	1.001742
C178	C	0.880783	0.000279	0.603221
C179	C	1.214116	0.333612	0.936555
C180	C	1.547449	0.666945	1.269888
C181	C	0.879720	0.000297	0.675670
C182	C	1.213054	0.333630	1.009003
C183	C	1.546387	0.666963	1.342337
C184	C	0.753109	0.000263	0.658708
C185	C	1.086442	0.333596	0.992042
C186	C	1.419775	0.666929	1.325375
C187	C	0.754173	0.000253	0.586262
C188	C	1.087507	0.333586	0.919595
C189	C	1.420840	0.666920	1.252928
C190	C	0.818012	0.000257	0.558522
C191	C	1.151345	0.333590	0.891856
C192	C	1.484679	0.666924	1.225189
H193	H	0.593997	0.000223	-0.211570
H194	H	0.927330	0.333557	0.121763
H195	H	1.260664	0.666890	0.455097
Cl196	Cl	0.159404	0.000311	-0.233286
Cl197	Cl	0.492737	0.333644	0.100048
Cl198	Cl	0.826071	0.666978	0.433381
Cl199	Cl	0.933430	0.109831	0.508843
Cl200	Cl	1.266764	0.443165	0.842177
Cl201	Cl	1.600097	0.776498	1.175510
Cl202	Cl	0.961035	0.000279	0.568345
Cl203	Cl	1.294368	0.333612	0.901679
Cl204	Cl	1.627702	0.666946	1.235012
Cl205	Cl	0.704041	-0.204369	-0.208549
Cl206	Cl	1.037374	0.128964	0.124784
Cl207	Cl	1.370708	0.462298	0.458118
H208	H	0.930836	0.000312	0.712063
H209	H	1.264170	0.333645	1.045396
H210	H	1.597503	0.666979	1.378729
Cl211	Cl	0.967587	0.000265	0.121460
Cl212	Cl	1.300920	0.333599	0.454793
Cl213	Cl	1.634253	0.666932	0.788126
Cl214	Cl	0.909096	-0.401106	-0.003648
Cl215	Cl	1.242429	-0.067773	0.329685
Cl216	Cl	1.575762	0.265560	0.663019
H217	H	0.493331	0.000213	0.020054
H218	H	0.826665	0.333547	0.353387
H219	H	1.159998	0.666880	0.686720
H220	H	0.881966	-0.484948	-0.030760
H221	H	1.215299	-0.151615	0.302573
H222	H	1.548633	0.181718	0.635907
Cl223	Cl	0.695199	-0.401162	-0.217407
Cl224	Cl	1.028532	-0.067828	0.115927
Cl225	Cl	1.361866	0.265505	0.449260
H226	H	0.177878	0.000270	0.024686
H227	H	0.511211	0.333603	0.358019
H228	H	0.844545	0.666937	0.691352
Cl229	Cl	0.675259	0.000233	0.530068
Cl230	Cl	1.008593	0.333566	0.863401
Cl231	Cl	1.341926	0.666899	1.196734
Cl232	Cl	0.382346	-0.109287	-0.208062
Cl233	Cl	0.715679	0.224047	0.125271
Cl234	Cl	1.049013	0.557380	0.458604
Cl235	Cl	0.258113	0.109817	0.023101
Cl236	Cl	0.591447	0.443150	0.356434
Cl237	Cl	0.924780	0.776484	0.689768
H238	H	0.624764	0.000164	0.018131
H239	H	0.958097	0.333497	0.351465
H240	H	1.291430	0.666831	0.684798
H241	H	0.015689	0.000324	-0.203085
H242	H	0.349022	0.333658	0.130249
H243	H	0.682356	0.666991	0.463582
Cl244	Cl	0.736624	-0.533875	-0.176030
Cl245	Cl	1.069958	-0.200541	0.157303
Cl246	Cl	1.403291	0.132792	0.490636
H247	H	0.046451	0.000350	0.026615
H248	H	0.379784	0.333684	0.359949
H249	H	0.713118	0.667017	0.693282
H250	H	0.896095	-0.223629	-0.016634
H251	H	1.229428	0.109704	0.316699
H252	H	1.562762	0.443037	0.650033
H253	H	0.401726	0.088291	-0.001502
H254	H	0.735060	0.421624	0.331831
H255	H	1.068393	0.754957	0.665164
H256	H	0.923396	-0.617651	0.010615
H257	H	1.256729	-0.284317	0.343948
H258	H	1.590063	0.049016	0.677281
H259	H	0.701135	0.000253	0.681299
H260	H	1.034468	0.333586	1.014632
H261	H	1.367801	0.666920	1.347966
Cl262	Cl	0.965186	0.000267	0.284975
Cl263	Cl	1.298519	0.333600	0.618309
Cl264	Cl	1.631853	0.666934	0.951642
Cl265	Cl	0.936408	-0.795132	0.023599
Cl266	Cl	1.269741	-0.461799	0.356933
Cl267	Cl	1.603075	-0.128465	0.690266
H268	H	0.744360	-0.775875	-0.168325
H269	H	1.077693	-0.442542	0.165008
H270	H	1.411026	-0.109208	0.498341
H271	H	0.751464	-0.617705	-0.161200
H272	H	1.084798	-0.284371	0.172133
H273	H	1.418131	0.048962	0.505467
H274	H	0.913148	0.088311	0.357532
H275	H	1.246481	0.421644	0.690865
H276	H	1.579814	0.754978	1.024198
H277	H	0.727299	-0.087820	0.457503
H278	H	1.060632	0.245514	0.790836
H279	H	1.393966	0.578847	1.124169
Cl280	Cl	0.681808	0.000202	0.083175
Cl281	Cl	1.015141	0.333536	0.416509
Cl282	Cl	1.348475	0.666869	0.749842
H283	H	0.729229	-0.087840	0.326078
H284	H	1.062562	0.245494	0.659412
H285	H	1.395896	0.578827	0.992745
H286	H	0.238723	-0.087767	-0.183453
H287	H	0.572056	0.245566	0.149880
H288	H	0.905389	0.578900	0.483214
Cl289	Cl	0.442771	0.000249	-0.237440
Cl290	Cl	0.776104	0.333582	0.095893
Cl291	Cl	1.109437	0.666916	0.429227
Cl292	Cl	0.679415	0.000209	0.246696
Cl293	Cl	1.012748	0.333543	0.580029
Cl294	Cl	1.346081	0.666876	0.913362
