data_functionalizedCrystal
_audit_creation_method	'MofGen! by Chris Wilmer'
_symmetry_space_group_name_H-M	'P1'
_symmetry_Int_Tables_number	1
_symmetry_cell_setting	triclinic
loop_
_symmetry_equiv_pos_as_xyz
  x,y,z
_cell_length_a	25.639242
_cell_length_b	25.639240
_cell_length_c	25.639233
_cell_angle_alpha	89.974071
_cell_angle_beta	89.977834
_cell_angle_gamma	90.028283
loop_
_atom_site_label
_atom_site_type_symbol
_atom_site_fract_x
_atom_site_fract_y
_atom_site_fract_z
Zn1	Zn	0.799247	-0.208277	-0.295716
Zn2	Zn	1.299247	0.291723	0.204284
Zn3	Zn	0.799179	-0.295696	-0.208270
Zn4	Zn	1.299179	0.204304	0.291730
Zn5	Zn	0.711823	-0.208269	-0.208280
Zn6	Zn	1.211823	0.291731	0.291720
Zn7	Zn	0.711777	-0.295676	-0.295659
Zn8	Zn	1.211777	0.204324	0.204341
O9	O	0.755506	-0.251979	-0.251981
O10	O	1.255506	0.248021	0.248019
O11	O	0.872403	-0.219884	-0.284135
O12	O	1.372403	0.280116	0.215865
O13	O	0.787582	-0.284103	-0.135106
O14	O	1.287582	0.215897	0.364894
O15	O	0.723467	-0.135105	-0.219907
O16	O	1.223467	0.364895	0.280093
O17	O	0.872353	-0.284111	-0.219889
O18	O	1.372353	0.215889	0.280111
O19	O	0.787697	-0.135111	-0.284146
O20	O	1.287697	0.364889	0.215854
O21	O	0.723402	-0.219871	-0.135114
O22	O	1.223402	0.280129	0.364886
O23	O	0.638652	-0.219853	-0.219852
O24	O	1.138652	0.280147	0.280148
O25	O	0.723389	-0.284078	-0.368832
O26	O	1.223389	0.215922	0.131168
O27	O	0.638618	-0.284070	-0.284049
O28	O	1.138618	0.215930	0.215951
O29	O	0.787653	-0.219866	-0.368874
O30	O	1.287653	0.280134	0.131126
O31	O	0.787538	-0.368858	-0.219834
O32	O	1.287538	0.131142	0.280166
O33	O	0.723324	-0.368844	-0.284039
O34	O	1.223324	0.131156	0.215961
C35	C	0.619664	-0.251959	-0.251946
C36	C	1.119664	0.248041	0.248054
C37	C	0.561550	-0.251963	-0.251943
C38	C	1.061550	0.248037	0.248057
C39	C	0.201178	-0.285473	-0.285377
C40	C	0.701178	0.214527	0.214623
C41	C	0.146574	-0.285477	-0.285385
C42	C	0.646574	0.214523	0.214615
O43	O	0.118330	-0.313943	-0.313782
O44	O	0.618330	0.186057	0.186218
N45	N	0.119267	-0.251994	-0.252015
N46	N	0.619267	0.248006	0.247985
C47	C	0.146568	-0.218502	-0.218639
C48	C	0.646568	0.281498	0.281361
O49	O	0.118328	-0.190022	-0.190256
O50	O	0.618328	0.309978	0.309744
C51	C	0.201171	-0.218496	-0.218634
C52	C	0.701171	0.281504	0.281366
C53	C	0.228475	-0.251985	-0.252002
C54	C	0.728475	0.248015	0.247998
C55	C	0.228482	-0.318959	-0.318743
C56	C	0.728482	0.181041	0.181257
C57	C	0.283082	-0.318956	-0.318734
C58	C	0.783082	0.181044	0.181266
C59	C	0.310379	-0.285468	-0.285359
C60	C	0.810379	0.214532	0.214641
C61	C	0.283076	-0.251983	-0.251993
C62	C	0.783076	0.248017	0.248007
C63	C	0.228471	-0.185002	-0.185260
C64	C	0.728471	0.314998	0.314740
C65	C	0.283078	-0.184999	-0.185258
C66	C	0.783078	0.315001	0.314742
C67	C	0.310382	-0.218488	-0.218626
C68	C	0.810382	0.281512	0.281374
C69	C	0.364973	-0.218492	-0.218609
C70	C	0.864973	0.281508	0.281391
N71	N	0.392279	-0.251974	-0.251979
N72	N	0.892279	0.248026	0.248021
C73	C	0.364983	-0.285463	-0.285354
C74	C	0.864983	0.214537	0.214646
C75	C	0.031897	-0.218515	-0.218653
C76	C	0.531897	0.281485	0.281347
C77	C	-0.022705	-0.218523	-0.218655
C78	C	0.477295	0.281477	0.281345
C79	C	-0.022695	-0.285497	-0.285402
C80	C	0.477305	0.214503	0.214598
C81	C	0.031908	-0.285492	-0.285397
C82	C	0.531908	0.214508	0.214603
C83	C	0.059204	-0.251998	-0.252023
C84	C	0.559204	0.248002	0.247977
C85	C	0.479648	-0.285455	-0.285332
C86	C	0.979648	0.214545	0.214668
C87	C	0.534253	-0.285451	-0.285318
C88	C	1.034253	0.214549	0.214682
C89	C	0.534239	-0.218475	-0.218573
C90	C	1.034239	0.281525	0.281427
C91	C	0.479638	-0.218481	-0.218585
C92	C	0.979638	0.281519	0.281415
C93	C	0.452344	-0.251972	-0.251968
C94	C	0.952344	0.248028	0.248032
O95	O	0.393252	-0.190038	-0.190228
O96	O	0.893252	0.309962	0.309772
O97	O	0.393229	-0.313933	-0.313736
O98	O	0.893229	0.186067	0.186264
C99	C	0.755433	-0.387822	-0.251940
C100	C	1.255433	0.112178	0.248060
C101	C	0.755449	-0.445936	-0.251940
C102	C	1.255449	0.054064	0.248060
C103	C	0.788967	-0.806264	-0.285491
C104	C	1.288967	-0.306264	0.214509
C105	C	0.788983	-0.860868	-0.285501
C106	C	1.288983	-0.360868	0.214499
O107	O	0.817394	-0.889074	-0.313985
O108	O	1.317394	-0.389074	0.186015
N109	N	0.755579	-0.888218	-0.252032
N110	N	1.255579	-0.388218	0.247968
C111	C	0.722154	-0.860962	-0.218553
C112	C	1.222154	-0.360962	0.281447
O113	O	0.693742	-0.889240	-0.190086
O114	O	1.193742	-0.389240	0.309914
C115	C	0.722136	-0.806359	-0.218546
C116	C	1.222136	-0.306359	0.281454
C117	C	0.755546	-0.779011	-0.252014
C118	C	1.255546	-0.279011	0.247986
C119	C	0.822374	-0.778916	-0.318956
C120	C	1.322374	-0.278916	0.181044
C121	C	0.822359	-0.724315	-0.318945
C122	C	1.322359	-0.224315	0.181055
C123	C	0.788938	-0.697062	-0.285468
C124	C	1.288938	-0.197062	0.214532
C125	C	0.755531	-0.724410	-0.252002
C126	C	1.255531	-0.224410	0.247998
C127	C	0.688708	-0.779103	-0.185070
C128	C	1.188708	-0.279103	0.314930
C129	C	0.688693	-0.724496	-0.185066
C130	C	1.188693	-0.224496	0.314934
C131	C	0.722103	-0.697148	-0.218534
C132	C	1.222103	-0.197148	0.281466
C133	C	0.722095	-0.642557	-0.218514
C134	C	1.222095	-0.142557	0.281486
N135	N	0.755498	-0.615206	-0.251983
N136	N	1.255498	-0.115206	0.248017
C137	C	0.788920	-0.642459	-0.285460
C138	C	1.288920	-0.142459	0.214540
C139	C	0.722193	-0.975633	-0.218572
C140	C	1.222193	-0.475633	0.281428
C141	C	0.722213	-1.030235	-0.218577
C142	C	1.222213	-0.530235	0.281423
C143	C	0.789041	-1.030137	-0.285526
C144	C	1.289041	-0.530137	0.214474
C145	C	0.789024	-0.975534	-0.285518
C146	C	1.289024	-0.475534	0.214482
C147	C	0.755597	-0.948282	-0.252042
C148	C	1.255597	-0.448282	0.247958
C149	C	0.788887	-0.527794	-0.285433
C150	C	1.288887	-0.027794	0.214567
C151	C	0.788870	-0.473189	-0.285417
C152	C	1.288870	0.026811	0.214583
C153	C	0.722040	-0.473291	-0.218471
C154	C	1.222040	0.026709	0.281529
C155	C	0.722058	-0.527892	-0.218484
C156	C	1.222058	-0.027892	0.281516
C157	C	0.755483	-0.555142	-0.251970
C158	C	1.255483	-0.055142	0.248030
O159	O	0.693697	-0.614316	-0.190046
O160	O	1.193697	-0.114316	0.309954
O161	O	0.817322	-0.614175	-0.313927
O162	O	1.317322	-0.114175	0.186073
C163	C	0.891879	-0.252000	-0.252017
C164	C	1.391879	0.248000	0.247983
C165	C	0.949993	-0.252009	-0.252032
C166	C	1.449993	0.247991	0.247968
C167	C	0.755523	-0.251970	-0.388354
C168	C	1.255523	0.248030	0.111646
C169	C	0.755530	-0.251966	-0.446468
C170	C	1.255530	0.248034	0.053532
C171	C	0.755595	-0.115606	-0.252034
C172	C	1.255595	0.384394	0.247966
C173	C	0.755632	-0.057492	-0.252056
C174	C	1.255632	0.442508	0.247944
C175	C	0.789035	-0.218432	-0.806859
C176	C	1.289035	0.281568	-0.306859
C177	C	0.789041	-0.218417	-0.861463
C178	C	1.289041	0.281583	-0.361463
O179	O	0.817486	-0.189967	-0.889723
O180	O	1.317486	0.310033	-0.389723
N181	N	0.755588	-0.251844	-0.888751
N182	N	1.255588	0.248156	-0.388751
C183	C	0.722122	-0.285283	-0.861432
C184	C	1.222122	0.214717	-0.361432
O185	O	0.693668	-0.313713	-0.889656
O186	O	1.193668	0.186287	-0.389656
C187	C	0.722114	-0.285294	-0.806828
C188	C	1.222114	0.214706	-0.306828
C189	C	0.755573	-0.251870	-0.779543
C190	C	1.255573	0.248130	-0.279543
C191	C	0.822491	-0.185009	-0.779574
C192	C	1.322491	0.314991	-0.279574
C193	C	0.822485	-0.185025	-0.724973
C194	C	1.322485	0.314975	-0.224973
C195	C	0.789023	-0.218462	-0.697658
C196	C	1.289023	0.281538	-0.197658
C197	C	0.755567	-0.251885	-0.724943
C198	C	1.255567	0.248115	-0.224943
C199	C	0.688646	-0.318731	-0.779510
C200	C	1.188646	0.181269	-0.279510
C201	C	0.688640	-0.318739	-0.724903
C202	C	1.188640	0.181261	-0.224903
C203	C	0.722099	-0.285314	-0.697618
C204	C	1.222099	0.214686	-0.197618
C205	C	0.722099	-0.285338	-0.643027
C206	C	1.222099	0.214662	-0.143027
N207	N	0.755552	-0.251912	-0.615739
N208	N	1.255552	0.248088	-0.115739
C209	C	0.789014	-0.218474	-0.643055
C210	C	1.289014	0.281526	-0.143055
C211	C	0.722143	-0.285256	-0.976102
C212	C	1.222143	0.214744	-0.476102
C213	C	0.722154	-0.285247	-1.030705
C214	C	1.222154	0.214753	-0.530705
C215	C	0.789072	-0.218381	-1.030733
C216	C	1.289072	0.281619	-0.530733
C217	C	0.789063	-0.218392	-0.976129
C218	C	1.289063	0.281608	-0.476129
C219	C	0.755596	-0.251829	-0.948815
C220	C	1.255596	0.248171	-0.448815
C221	C	0.789000	-0.218509	-0.528389
C222	C	1.289000	0.281491	-0.028389
C223	C	0.788992	-0.218529	-0.473784
C224	C	1.288992	0.281471	0.026216
C225	C	0.722072	-0.285393	-0.473761
C226	C	1.222072	0.214607	0.026239
C227	C	0.722081	-0.285375	-0.528362
C228	C	1.222081	0.214625	-0.028362
C229	C	0.755547	-0.251929	-0.555674
C230	C	1.255547	0.248071	-0.055674
O231	O	0.693668	-0.313773	-0.614732
O232	O	1.193668	0.186227	-0.114732
O233	O	0.817459	-0.190044	-0.614823
O234	O	1.317459	0.309956	-0.114823
C235	C	0.755520	-0.251951	-0.116139
C236	C	1.255520	0.248049	0.383861
C237	C	0.755614	-0.251807	-0.058025
C238	C	1.255614	0.248193	0.441975
H239	H	0.457406	-0.191213	-0.191412
H240	H	0.957406	0.308787	0.308588
F241	F	0.060962	-0.321134	-0.320913
F242	F	0.560962	0.178866	0.179087
F243	F	0.824432	-0.444086	-0.321039
F244	F	1.324432	0.055914	0.178961
F245	F	0.857916	-0.695216	-0.354570
F246	F	1.357916	-0.195216	0.145430
F247	F	0.686473	-0.444278	-0.182843
F248	F	1.186473	0.055722	0.317157
H249	H	0.849590	-0.801099	-0.346221
H250	H	1.349590	-0.301099	0.153779
H251	H	0.694830	-0.312619	-0.451511
H252	H	1.194830	0.187381	0.048489
H253	H	0.816228	-0.953270	-0.312771
H254	H	1.316228	-0.453270	0.187229
H255	H	0.206262	-0.346229	-0.345924
H256	H	0.706262	0.153771	0.154076
F257	F	0.858113	-0.149421	-0.808637
F258	F	1.358113	0.350579	-0.308637
F259	F	0.563300	-0.182836	-0.183055
F260	F	1.063300	0.317164	0.316945
H261	H	-0.044930	-0.312763	-0.312580
H262	H	0.455070	0.187237	0.187420
H263	H	0.816101	-0.549975	-0.312704
H264	H	1.316101	-0.049975	0.187296
F265	F	-0.051758	-0.182886	-0.183134
F266	F	0.448242	0.317114	0.316866
F267	F	0.824674	-0.182817	-0.947095
F268	F	1.324674	0.317183	-0.447095
H269	H	0.556481	-0.312723	-0.312491
H270	H	1.056481	0.187277	0.187509
F271	F	0.824611	-1.059151	-0.321156
F272	F	1.324611	-0.559151	0.178844
F273	F	0.060943	-0.182868	-0.183126
F274	F	0.560943	0.317132	0.316874
F275	F	0.312134	-0.354598	-0.354252
F276	F	0.812134	0.145402	0.145748
H277	H	0.661380	-0.345963	-0.702666
H278	H	1.161380	0.154037	-0.202666
F279	F	0.199424	-0.149356	-0.149747
F280	F	0.699424	0.350644	0.350253
F281	F	0.686660	-1.059335	-0.182949
F282	F	1.186660	-0.559335	0.317051
F283	F	0.312125	-0.149349	-0.149736
F284	F	0.812125	0.350651	0.350264
H285	H	0.694974	-0.953447	-0.191308
H286	H	1.194974	-0.453447	0.308692
H287	H	0.457431	-0.312726	-0.312517
H288	H	0.957431	0.187274	0.187483
H289	H	0.694889	-0.312487	-0.953866
H290	H	1.194889	0.187513	-0.453866
H291	H	0.661503	-0.801360	-0.157817
H292	H	1.161503	-0.301360	0.342183
H293	H	0.661471	-0.702310	-0.157806
H294	H	1.161471	-0.202310	0.342194
H295	H	0.694857	-0.550160	-0.191228
H296	H	1.194857	-0.050160	0.308772
H297	H	0.816241	-0.191310	-0.451571
H298	H	1.316241	0.308690	0.048429
H299	H	0.816249	-0.191272	-0.550621
H300	H	1.316249	0.308728	-0.050621
F301	F	0.686474	-0.320953	-0.557401
F302	F	1.186474	0.179047	-0.057401
F303	F	0.858095	-0.149446	-0.695941
F304	F	1.358095	0.350554	-0.195941
H305	H	0.816317	-0.191153	-1.052983
H306	H	1.316317	0.308847	-0.552983
F307	F	0.686549	-0.320830	-1.059738
F308	F	1.186549	0.179170	-0.559738
H309	H	0.661400	-0.345949	-0.801716
H310	H	1.161400	0.154051	-0.301716
