data_functionalizedCrystal
_audit_creation_method	'MofGen! by Chris Wilmer'
_symmetry_space_group_name_H-M	'P1'
_symmetry_Int_Tables_number	1
_symmetry_cell_setting	triclinic
loop_
_symmetry_equiv_pos_as_xyz
  x,y,z
_cell_length_a	19.077105
_cell_length_b	19.077068
_cell_length_c	19.077174
_cell_angle_alpha	94.657148
_cell_angle_beta	85.483752
_cell_angle_gamma	90.115316
loop_
_atom_site_label
_atom_site_type_symbol
_atom_site_fract_x
_atom_site_fract_y
_atom_site_fract_z
Zn1	Zn	1.080478	-0.341972	-0.455027
Zn2	Zn	1.330478	-0.091972	-0.205027
Zn3	Zn	1.580478	0.158028	0.044973
Zn4	Zn	1.830478	0.408028	0.294973
Zn5	Zn	1.071301	-0.454742	-0.341487
Zn6	Zn	1.321301	-0.204742	-0.091487
Zn7	Zn	1.571301	0.045258	0.158513
Zn8	Zn	1.821301	0.295258	0.408513
Zn9	Zn	0.958244	-0.332134	-0.332045
Zn10	Zn	1.208244	-0.082134	-0.082045
Zn11	Zn	1.458244	0.167866	0.167955
Zn12	Zn	1.708244	0.417866	0.417955
Zn13	Zn	0.958197	-0.454696	-0.454603
Zn14	Zn	1.208197	-0.204696	-0.204603
Zn15	Zn	1.458197	0.045304	0.045397
Zn16	Zn	1.708197	0.295304	0.295397
O17	O	1.017055	-0.395886	-0.395791
O18	O	1.267055	-0.145886	-0.145791
O19	O	1.517055	0.104114	0.104209
O20	O	1.767055	0.354114	0.354209
O21	O	1.177751	-0.361068	-0.444095
O22	O	1.427751	-0.111068	-0.194095
O23	O	1.677751	0.138932	0.055905
O24	O	1.927751	0.388932	0.305905
O25	O	1.052483	-0.434380	-0.241427
O26	O	1.302483	-0.184380	0.008573
O27	O	1.552483	0.065620	0.258573
O28	O	1.802483	0.315620	0.508573
O29	O	0.978319	-0.234951	-0.344585
O30	O	1.228319	0.015049	-0.094585
O31	O	1.478319	0.265049	0.155415
O32	O	1.728319	0.515049	0.405415
O33	O	1.171009	-0.443920	-0.360677
O34	O	1.421009	-0.193920	-0.110677
O35	O	1.671009	0.056080	0.139323
O36	O	1.921009	0.306080	0.389323
O37	O	1.068124	-0.242180	-0.434939
O38	O	1.318124	0.007820	-0.184939
O39	O	1.568124	0.257820	0.065061
O40	O	1.818124	0.507820	0.315061
O41	O	0.969420	-0.344300	-0.234490
O42	O	1.219420	-0.094300	0.015510
O43	O	1.469420	0.155700	0.265510
O44	O	1.719420	0.405700	0.515510
O45	O	0.859748	-0.344255	-0.344174
O46	O	1.109748	-0.094255	-0.094174
O47	O	1.359748	0.155745	0.155826
O48	O	1.609748	0.405745	0.405826
O49	O	0.978239	-0.443841	-0.553467
O50	O	1.228239	-0.193841	-0.303467
O51	O	1.478239	0.056159	-0.053467
O52	O	1.728239	0.306159	0.196533
O53	O	0.859713	-0.434301	-0.434217
O54	O	1.109713	-0.184301	-0.184217
O55	O	1.359713	0.065699	0.065783
O56	O	1.609713	0.315699	0.315783
O57	O	1.068079	-0.361024	-0.553779
O58	O	1.318079	-0.111024	-0.303779
O59	O	1.568079	0.138976	-0.053779
O60	O	1.818079	0.388976	0.196221
O61	O	1.052438	-0.553224	-0.360266
O62	O	1.302438	-0.303224	-0.110266
O63	O	1.552438	-0.053224	0.139734
O64	O	1.802438	0.196776	0.389734
O65	O	0.969340	-0.553190	-0.443372
O66	O	1.219340	-0.303190	-0.193372
O67	O	1.469340	-0.053190	0.056628
O68	O	1.719340	0.196810	0.306628
C69	C	0.834193	-0.388206	-0.388125
C70	C	1.084193	-0.138206	-0.138125
C71	C	1.334193	0.111794	0.111875
C72	C	1.584193	0.361794	0.361875
C73	C	0.755964	-0.384938	-0.384863
C74	C	1.005964	-0.134938	-0.134863
C75	C	1.255964	0.115062	0.115137
C76	C	1.505964	0.365062	0.365137
C77	C	0.719207	-0.430350	-0.430143
C78	C	0.969207	-0.180350	-0.180143
C79	C	1.219207	0.069650	0.069857
C80	C	1.469207	0.319650	0.319857
C81	C	0.645702	-0.427270	-0.427081
C82	C	0.895702	-0.177270	-0.177081
C83	C	1.145702	0.072730	0.072919
C84	C	1.395702	0.322730	0.322919
C85	C	0.608956	-0.378782	-0.378736
C86	C	0.858956	-0.128782	-0.128736
C87	C	1.108956	0.121218	0.121264
C88	C	1.358956	0.371218	0.371264
C89	C	0.645719	-0.333365	-0.333454
C90	C	0.895719	-0.083365	-0.083454
C91	C	1.145719	0.166635	0.166546
C92	C	1.395719	0.416635	0.416546
C93	C	0.719222	-0.336442	-0.336520
C94	C	0.969222	-0.086442	-0.086520
C95	C	1.219222	0.163558	0.163480
C96	C	1.469222	0.413558	0.413480
C97	C	0.389126	-0.364542	-0.364550
C98	C	0.639126	-0.114542	-0.114550
C99	C	0.889126	0.135458	0.135450
C100	C	1.139126	0.385458	0.385450
C101	C	0.315618	-0.361471	-0.361486
C102	C	0.565618	-0.111471	-0.111486
C103	C	0.815618	0.138529	0.138514
C104	C	1.065618	0.388529	0.388514
C105	C	0.315607	-0.455375	-0.455114
C106	C	0.565607	-0.205375	-0.205114
C107	C	0.815607	0.044625	0.044886
C108	C	1.065607	0.294625	0.294886
C109	C	0.389111	-0.458451	-0.458173
C110	C	0.639111	-0.208451	-0.208173
C111	C	0.889111	0.041549	0.041827
C112	C	1.139111	0.291549	0.291827
C113	C	0.425867	-0.413032	-0.412894
C114	C	0.675867	-0.163032	-0.162894
C115	C	0.925867	0.086968	0.087106
C116	C	1.175867	0.336968	0.337106
N117	N	0.533823	-0.375634	-0.375603
N118	N	0.783823	-0.125634	-0.125603
N119	N	1.033823	0.124366	0.124397
N120	N	1.283823	0.374366	0.374397
N121	N	0.500999	-0.416176	-0.416030
N122	N	0.750999	-0.166176	-0.166030
N123	N	1.000999	0.083824	0.083970
N124	N	1.250999	0.333824	0.333970
C125	C	1.009908	-0.578745	-0.402813
C126	C	1.259908	-0.328745	-0.152813
C127	C	1.509908	-0.078745	0.097187
C128	C	1.759908	0.171255	0.347187
C129	C	1.006916	-0.656976	-0.405844
C130	C	1.256916	-0.406976	-0.155844
C131	C	1.506916	-0.156976	0.094156
C132	C	1.756916	0.093024	0.344156
C133	C	1.048810	-0.693727	-0.364038
C134	C	1.298810	-0.443727	-0.114038
C135	C	1.548810	-0.193727	0.135962
C136	C	1.798810	0.056273	0.385962
C137	C	1.046000	-0.767234	-0.366893
C138	C	1.296000	-0.517234	-0.116893
C139	C	1.546000	-0.267234	0.133107
C140	C	1.796000	-0.017234	0.383107
C141	C	1.001291	-0.803989	-0.411551
C142	C	1.251291	-0.553989	-0.161551
C143	C	1.501291	-0.303989	0.088449
C144	C	1.751291	-0.053989	0.338449
C145	C	0.959395	-0.767233	-0.453361
C146	C	1.209395	-0.517233	-0.203361
C147	C	1.459395	-0.267233	0.046639
C148	C	1.709395	-0.017233	0.296639
C149	C	0.962209	-0.693728	-0.450510
C150	C	1.212209	-0.443728	-0.200510
C151	C	1.462209	-0.193728	0.049490
C152	C	1.712209	0.056272	0.299490
C153	C	0.988234	-1.023827	-0.424718
C154	C	1.238234	-0.773827	-0.174718
C155	C	1.488234	-0.523827	0.075282
C156	C	1.738234	-0.273827	0.325282
C157	C	0.985422	-1.097337	-0.427565
C158	C	1.235422	-0.847337	-0.177565
C159	C	1.485422	-0.597337	0.072435
C160	C	1.735422	-0.347337	0.322435
C161	C	1.072029	-1.097333	-0.341097
C162	C	1.322029	-0.847333	-0.091097
C163	C	1.572029	-0.597333	0.158903
C164	C	1.822029	-0.347333	0.408903
C165	C	1.074836	-1.023826	-0.338247
C166	C	1.324836	-0.773826	-0.088247
C167	C	1.574836	-0.523826	0.161753
C168	C	1.824836	-0.273826	0.411753
C169	C	1.032942	-0.987077	-0.380060
C170	C	1.282942	-0.737077	-0.130060
C171	C	1.532942	-0.487077	0.119940
C172	C	1.782942	-0.237077	0.369940
N173	N	0.998416	-0.879124	-0.414468
N174	N	1.248416	-0.629124	-0.164468
N175	N	1.498416	-0.379124	0.085532
N176	N	1.748416	-0.129124	0.335532
N177	N	1.035821	-0.911943	-0.377146
N178	N	1.285821	-0.661943	-0.127146
N179	N	1.535821	-0.411943	0.122854
N180	N	1.785821	-0.161943	0.372854
C181	C	1.200631	-0.403597	-0.403486
C182	C	1.450631	-0.153597	-0.153486
C183	C	1.700631	0.096403	0.096514
C184	C	1.950631	0.346403	0.346514
C185	C	1.278861	-0.406882	-0.406766
C186	C	1.528861	-0.156882	-0.156766
C187	C	1.778861	0.093118	0.093234
C188	C	2.028861	0.343118	0.343234
C189	C	1.024177	-0.403525	-0.579959
C190	C	1.274177	-0.153525	-0.329959
C191	C	1.524177	0.096475	-0.079959
C192	C	1.774177	0.346475	0.170041
C193	C	1.027212	-0.406780	-0.658440
C194	C	1.277212	-0.156780	-0.408440
C195	C	1.527212	0.093220	-0.158440
C196	C	1.777212	0.343220	0.091560
C197	C	1.024250	-0.212315	-0.388757
C198	C	1.274250	0.037685	-0.138757
C199	C	1.524250	0.287685	0.111243
C200	C	1.774250	0.537685	0.361243
C201	C	1.027316	-0.134088	-0.385759
C202	C	1.277316	0.115912	-0.135759
C203	C	1.527316	0.365912	0.114241
C204	C	1.777316	0.615912	0.364241
C205	C	0.985394	-0.361410	-0.691699
C206	C	1.235394	-0.111410	-0.441699
C207	C	1.485394	0.138590	-0.191699
C208	C	1.735394	0.388590	0.058301
C209	C	0.988242	-0.364475	-0.765441
C210	C	1.238242	-0.114475	-0.515441
C211	C	1.488242	0.135525	-0.265441
C212	C	1.738242	0.385525	-0.015441
C213	C	1.032914	-0.412906	-0.805923
C214	C	1.282914	-0.162906	-0.555923
C215	C	1.532914	0.087094	-0.305923
C216	C	1.782914	0.337094	-0.055923
C217	C	1.074734	-0.458280	-0.772659
C218	C	1.324734	-0.208280	-0.522659
C219	C	1.574734	0.041720	-0.272659
C220	C	1.824734	0.291720	-0.022659
C221	C	1.071881	-0.455219	-0.698918
C222	C	1.321881	-0.205219	-0.448918
C223	C	1.571881	0.044781	-0.198918
C224	C	1.821881	0.294781	0.051082
C225	C	1.046080	-0.427094	-1.026851
C226	C	1.296080	-0.177094	-0.776851
C227	C	1.546080	0.072906	-0.526851
C228	C	1.796080	0.322906	-0.276851
C229	C	1.048931	-0.430150	-1.100597
C230	C	1.298931	-0.180150	-0.850597
C231	C	1.548931	0.069850	-0.600597
C232	C	1.798931	0.319850	-0.350597
C233	C	0.962438	-0.336345	-1.093373
C234	C	1.212438	-0.086345	-0.843373
C235	C	1.462438	0.163655	-0.593373
C236	C	1.712438	0.413655	-0.343373
C237	C	0.959592	-0.333285	-1.019632
C238	C	1.209592	-0.083285	-0.769632
C239	C	1.459592	0.166715	-0.519632
C240	C	1.709592	0.416715	-0.269632
C241	C	1.001410	-0.378662	-0.986374
C242	C	1.251410	-0.128662	-0.736374
C243	C	1.501410	0.121338	-0.486374
C244	C	1.751410	0.371338	-0.236374
N245	N	1.035828	-0.416037	-0.881299
N246	N	1.285828	-0.166037	-0.631299
N247	N	1.535828	0.083963	-0.381299
N248	N	1.785828	0.333963	-0.131299
N249	N	0.998491	-0.375533	-0.911000
N250	N	1.248491	-0.125533	-0.661000
N251	N	1.498491	0.124467	-0.411000
N252	N	1.748491	0.374467	-0.161000
C253	C	1.010004	-0.388228	-0.212338
C254	C	1.260004	-0.138228	0.037662
C255	C	1.510004	0.111772	0.287662
C256	C	1.760004	0.361772	0.537662
C257	C	1.007113	-0.384781	-0.133855
C258	C	1.257113	-0.134781	0.116145
C259	C	1.507113	0.115219	0.366145
C260	C	1.757113	0.365219	0.616145
H261	H	0.285672	-0.492352	-0.491979
H262	H	0.535672	-0.242352	-0.241979
H263	H	0.785672	0.007648	0.008021
H264	H	1.035672	0.257648	0.258021
Cl265	Cl	0.269423	-0.300514	-0.300700
Cl266	Cl	0.519423	-0.050514	-0.050700
Cl267	Cl	0.769423	0.199486	0.199300
Cl268	Cl	1.019423	0.449486	0.449300
H269	H	0.928095	-0.663806	-0.484553
H270	H	1.178095	-0.413806	-0.234553
H271	H	1.428095	-0.163806	0.015447
H272	H	1.678095	0.086194	0.265447
H273	H	1.111103	-0.497717	-0.805625
H274	H	1.361103	-0.247717	-0.555625
H275	H	1.611103	0.002283	-0.305625
H276	H	1.861103	0.252283	-0.055625
Cl277	Cl	0.935566	-0.977638	-0.477283
Cl278	Cl	1.185566	-0.727638	-0.227283
Cl279	Cl	1.435566	-0.477638	0.022717
Cl280	Cl	1.685566	-0.227638	0.272717
Cl281	Cl	0.909868	-0.279307	-1.135187
Cl282	Cl	1.159868	-0.029307	-0.885187
Cl283	Cl	1.409868	0.220693	-0.635187
Cl284	Cl	1.659868	0.470693	-0.385187
H285	H	0.954186	-0.327532	-0.792517
H286	H	1.204186	-0.077532	-0.542517
H287	H	1.454186	0.172468	-0.292517
H288	H	1.704186	0.422468	-0.042517
H289	H	1.085214	-0.663806	-0.327670
H290	H	1.335214	-0.413806	-0.077670
H291	H	1.585214	-0.163806	0.172330
H292	H	1.835214	0.086194	0.422330
Cl293	Cl	0.765431	-0.279349	-0.279596
Cl294	Cl	1.015431	-0.029349	-0.029596
Cl295	Cl	1.265431	0.220651	0.220404
Cl296	Cl	1.515431	0.470651	0.470404
H297	H	0.419024	-0.497937	-0.497539
H298	H	0.669024	-0.247937	-0.247539
H299	H	0.919024	0.002063	0.002461
H300	H	1.169024	0.252063	0.252461
Cl301	Cl	0.929202	-1.143542	-0.483701
Cl302	Cl	1.179202	-0.893542	-0.233701
Cl303	Cl	1.429202	-0.643542	0.016299
Cl304	Cl	1.679202	-0.393542	0.266299
Cl305	Cl	1.098673	-0.813432	-0.314336
Cl306	Cl	1.348673	-0.563432	-0.064336
Cl307	Cl	1.598673	-0.313432	0.185664
Cl308	Cl	1.848673	-0.063432	0.435664
Cl309	Cl	1.124452	-0.512260	-0.657107
Cl310	Cl	1.374452	-0.262260	-0.407107
Cl311	Cl	1.624452	-0.012260	-0.157107
Cl312	Cl	1.874452	0.237740	0.092893
Cl313	Cl	0.765394	-0.491314	-0.490920
Cl314	Cl	1.015394	-0.241314	-0.240920
Cl315	Cl	1.265394	0.008686	0.009080
Cl316	Cl	1.515394	0.258686	0.259080
H317	H	0.419044	-0.327564	-0.327676
H318	H	0.669044	-0.077564	-0.077676
H319	H	0.919044	0.172436	0.172324
H320	H	1.169044	0.422436	0.422324
Cl321	Cl	1.105100	-0.491033	-1.151487
Cl322	Cl	1.355100	-0.241033	-0.901487
Cl323	Cl	1.605100	0.008967	-0.651487
Cl324	Cl	1.855100	0.258967	-0.401487
Cl325	Cl	0.599496	-0.484363	-0.484007
Cl326	Cl	0.849496	-0.234363	-0.234007
Cl327	Cl	1.099496	0.015637	0.015993
Cl328	Cl	1.349496	0.265637	0.265993
Cl329	Cl	1.131054	-0.977626	-0.282114
Cl330	Cl	1.381054	-0.727626	-0.032114
Cl331	Cl	1.631054	-0.477626	0.217886
Cl332	Cl	1.881054	-0.227626	0.467886
Cl333	Cl	1.124696	-1.143536	-0.288540
Cl334	Cl	1.374696	-0.893536	-0.038540
Cl335	Cl	1.624696	-0.643536	0.211460
Cl336	Cl	1.874696	-0.393536	0.461460
H337	H	0.922995	-0.797165	-0.489726
H338	H	1.172995	-0.547165	-0.239726
H339	H	1.422995	-0.297165	0.010274
H340	H	1.672995	-0.047165	0.260274
H341	H	0.949021	-0.321969	-0.658744
H342	H	1.199021	-0.071969	-0.408744
H343	H	1.449021	0.178031	-0.158744
H344	H	1.699021	0.428031	0.091256
H345	H	0.615795	-0.293882	-0.294093
H346	H	0.865795	-0.043882	-0.044093
H347	H	1.115795	0.206118	0.205907
H348	H	1.365795	0.456118	0.455907
Cl349	Cl	1.098657	-0.484134	-0.985052
Cl350	Cl	1.348657	-0.234134	-0.735052
Cl351	Cl	1.598657	0.015866	-0.485052
Cl352	Cl	1.848657	0.265866	-0.235052
H353	H	0.923214	-0.293850	-0.986676
H354	H	1.173214	-0.043850	-0.736676
H355	H	1.423214	0.206150	-0.486676
H356	H	1.673214	0.456150	-0.236676
