data_functionalizedCrystal
_audit_creation_method	'MofGen! by Chris Wilmer'
_symmetry_space_group_name_H-M	'P1'
_symmetry_Int_Tables_number	1
_symmetry_cell_setting	triclinic
loop_
_symmetry_equiv_pos_as_xyz
  x,y,z
_cell_length_a	13.897449
_cell_length_b	13.897448
_cell_length_c	12.827885
_cell_angle_alpha	90.029689
_cell_angle_beta	89.977240
_cell_angle_gamma	89.979604
loop_
_atom_site_label
_atom_site_type_symbol
_atom_site_fract_x
_atom_site_fract_y
_atom_site_fract_z
Zn1	Zn	1.474684	0.383947	-0.590947
Zn2	Zn	1.724684	0.633947	-0.340947
Zn3	Zn	1.974684	0.883947	-0.090947
Zn4	Zn	2.224684	1.133947	0.159053
Zn5	Zn	1.474575	0.545273	-0.416207
Zn6	Zn	1.724575	0.795273	-0.166207
Zn7	Zn	1.974575	1.045273	0.083793
Zn8	Zn	2.224575	1.295273	0.333793
Zn9	Zn	1.313375	0.383996	-0.416210
Zn10	Zn	1.563375	0.633996	-0.166210
Zn11	Zn	1.813375	0.883996	0.083790
Zn12	Zn	2.063375	1.133996	0.333790
Zn13	Zn	1.313350	0.545204	-0.590897
Zn14	Zn	1.563350	0.795204	-0.340897
Zn15	Zn	1.813350	1.045204	-0.090897
Zn16	Zn	2.063350	1.295204	0.159103
O17	O	1.393996	0.464605	-0.503565
O18	O	1.643996	0.714605	-0.253565
O19	O	1.893996	0.964605	-0.003565
O20	O	2.143996	1.214605	0.246435
O21	O	1.609651	0.405356	-0.567787
O22	O	1.859651	0.655356	-0.317787
O23	O	2.109651	0.905356	-0.067787
O24	O	2.359651	1.155356	0.182213
O25	O	1.453156	0.523929	-0.269971
O26	O	1.703156	0.773929	-0.019971
O27	O	1.953156	1.023929	0.230029
O28	O	2.203156	1.273929	0.480029
O29	O	1.334829	0.249008	-0.439411
O30	O	1.584829	0.499008	-0.189411
O31	O	1.834829	0.749008	0.060589
O32	O	2.084829	0.999008	0.310589
O33	O	1.609571	0.523881	-0.439407
O34	O	1.859571	0.773881	-0.189407
O35	O	2.109571	1.023881	0.060593
O36	O	2.359571	1.273881	0.310593
O37	O	1.453342	0.248972	-0.567789
O38	O	1.703342	0.498972	-0.317789
O39	O	1.953342	0.748972	-0.067789
O40	O	2.203342	0.998972	0.182211
O41	O	1.334723	0.405440	-0.269973
O42	O	1.584723	0.655440	-0.019973
O43	O	1.834723	0.905440	0.230027
O44	O	2.084723	1.155440	0.480027
O45	O	1.178390	0.405372	-0.439362
O46	O	1.428390	0.655372	-0.189362
O47	O	1.678390	0.905372	0.060638
O48	O	1.928390	1.155372	0.310638
O49	O	1.334786	0.523763	-0.737139
O50	O	1.584786	0.773763	-0.487139
O51	O	1.834786	1.023763	-0.237139
O52	O	2.084786	1.273763	0.012861
O53	O	1.178371	0.523811	-0.567704
O54	O	1.428371	0.773811	-0.317704
O55	O	1.678371	1.023811	-0.067704
O56	O	1.928371	1.273811	0.182296
O57	O	1.453318	0.405288	-0.737176
O58	O	1.703318	0.655288	-0.487176
O59	O	1.953318	0.905288	-0.237176
O60	O	2.203318	1.155288	0.012824
O61	O	1.453131	0.680246	-0.439358
O62	O	1.703131	0.930246	-0.189358
O63	O	1.953131	1.180246	0.060642
O64	O	2.203131	1.430246	0.310642
O65	O	1.334680	0.680195	-0.567702
O66	O	1.584680	0.930195	-0.317702
O67	O	1.834680	1.180195	-0.067702
O68	O	2.084680	1.430195	0.182298
C69	C	1.393917	0.715219	-0.503547
C70	C	1.643917	0.965219	-0.253547
C71	C	1.893917	1.215219	-0.003547
C72	C	2.143917	1.465219	0.246453
C73	C	1.393972	0.822433	-0.503574
C74	C	1.643972	1.072433	-0.253574
C75	C	1.893972	1.322433	-0.003574
C76	C	2.143972	1.572433	0.246426
C77	C	1.143381	0.464590	-0.503529
C78	C	1.393381	0.714590	-0.253529
C79	C	1.643381	0.964590	-0.003529
C80	C	1.893381	1.214590	0.246471
C81	C	1.036168	0.464607	-0.503538
C82	C	1.286168	0.714607	-0.253538
C83	C	1.536168	0.964607	-0.003538
C84	C	1.786168	1.214607	0.246462
C85	C	0.949098	0.464610	-0.503555
C86	C	1.199098	0.714610	-0.253555
C87	C	1.449098	0.964610	-0.003555
C88	C	1.699098	1.214610	0.246445
C89	C	0.839865	0.464617	-0.503587
C90	C	1.089865	0.714617	-0.253587
C91	C	1.339865	0.964617	-0.003587
C92	C	1.589865	1.214617	0.246413
C93	C	1.394067	1.018728	-0.503649
C94	C	1.644067	1.268728	-0.253649
C95	C	1.894067	1.518728	-0.003649
C96	C	2.144067	1.768728	0.246351
C97	C	1.394011	0.909496	-0.503611
C98	C	1.644011	1.159496	-0.253611
C99	C	1.894011	1.409496	-0.003611
C100	C	2.144011	1.659496	0.246389
C101	C	1.645589	0.464621	-0.503602
C102	C	1.895589	0.714621	-0.253602
C103	C	2.145589	0.964621	-0.003602
C104	C	2.395589	1.214621	0.246398
C105	C	1.752803	0.464627	-0.503618
C106	C	2.002803	0.714627	-0.253618
C107	C	2.252803	0.964627	-0.003618
C108	C	2.502803	1.214627	0.246382
C109	C	1.394093	1.213012	-0.503618
C110	C	1.644093	1.463012	-0.253618
C111	C	1.894093	1.713012	-0.003618
C112	C	2.144093	1.963012	0.246382
C113	C	1.394113	1.105798	-0.503672
C114	C	1.644113	1.355798	-0.253672
C115	C	1.894113	1.605798	-0.003672
C116	C	2.144113	1.855798	0.246328
C117	C	1.394061	0.464512	-0.776135
C118	C	1.644061	0.714512	-0.526135
C119	C	1.894061	0.964512	-0.276135
C120	C	2.144061	1.214512	-0.026135
C121	C	1.394089	0.464473	-0.892289
C122	C	1.644089	0.714473	-0.642289
C123	C	1.894089	0.964473	-0.392289
C124	C	2.144089	1.214473	-0.142289
C125	C	1.452749	0.405836	-0.944092
C126	C	1.702749	0.655836	-0.694092
C127	C	1.952749	0.905836	-0.444092
C128	C	2.202749	1.155836	-0.194092
C129	C	1.452779	0.405794	-1.064142
C130	C	1.702779	0.655794	-0.814142
C131	C	1.952779	0.905794	-0.564142
C132	C	2.202779	1.155794	-0.314142
C133	C	1.393986	0.464628	-0.232055
C134	C	1.643986	0.714628	0.017945
C135	C	1.893986	0.964628	0.267945
C136	C	2.143986	1.214628	0.517945
C137	C	1.394145	0.464395	-0.115903
C138	C	1.644145	0.714395	0.134097
C139	C	1.894145	0.964395	0.384097
C140	C	2.144145	1.214395	0.634097
H141	H	1.503003	0.355596	-1.108691
H142	H	1.753003	0.605596	-0.858691
H143	H	2.003003	0.855596	-0.608691
H144	H	2.253003	1.105596	-0.358691
N145	N	1.519269	0.339398	-0.885125
N146	N	1.769269	0.589398	-0.635125
N147	N	2.019269	0.839398	-0.385125
N148	N	2.269269	1.089398	-0.135125
H149	H	1.509829	0.348857	-0.807723
H150	H	1.759829	0.598857	-0.557723
H151	H	2.009829	0.848857	-0.307723
H152	H	2.259829	1.098857	-0.057723
H153	H	1.588163	0.354421	-0.904171
H154	H	1.838163	0.604421	-0.654171
H155	H	2.088163	0.854421	-0.404171
H156	H	2.338163	1.104421	-0.154171
H157	H	1.343925	0.514603	-1.071360
H158	H	1.593925	0.764603	-0.821360
H159	H	1.843925	1.014603	-0.571360
H160	H	2.093925	1.264603	-0.321360
N161	N	1.327586	0.530918	-0.951268
N162	N	1.577586	0.780918	-0.701268
N163	N	1.827586	1.030918	-0.451268
N164	N	2.077586	1.280918	-0.201268
H165	H	1.366812	0.575566	-0.996557
H166	H	1.616812	0.825566	-0.746557
H167	H	1.866812	1.075566	-0.496557
H168	H	2.116812	1.325566	-0.246557
H169	H	1.288442	0.569992	-0.900145
H170	H	1.538442	0.819992	-0.650145
H171	H	1.788442	1.069992	-0.400145
H172	H	2.038442	1.319992	-0.150145
