data_functionalizedCrystal
_audit_creation_method	'MofGen! by Chris Wilmer'
_symmetry_space_group_name_H-M	'P1'
_symmetry_Int_Tables_number	1
_symmetry_cell_setting	triclinic
loop_
_symmetry_equiv_pos_as_xyz
  x,y,z
_cell_length_a	12.996460
_cell_length_b	14.519709
_cell_length_c	14.519731
_cell_angle_alpha	96.315501
_cell_angle_beta	89.992872
_cell_angle_gamma	89.999966
loop_
_atom_site_label
_atom_site_type_symbol
_atom_site_fract_x
_atom_site_fract_y
_atom_site_fract_z
O1	O	-0.085435	-1.223878	0.120892
O2	O	0.414565	-0.723878	0.620892
O3	O	-0.085467	-0.955402	0.135128
O4	O	0.414533	-0.455402	0.635128
O5	O	-0.085441	-1.096748	-0.006227
O6	O	0.414559	-0.596748	0.493773
O7	O	-0.085461	-1.082532	0.262247
O8	O	0.414539	-0.582532	0.762247
O9	O	0.085693	-1.096733	-0.006235
O10	O	0.585693	-0.596733	0.493765
O11	O	0.085667	-0.955387	0.135120
O12	O	0.585667	-0.455387	0.635120
O13	O	0.085699	-1.223863	0.120884
O14	O	0.585699	-0.723863	0.620884
Cu15	Cu	0.101309	-1.089624	0.128001
Cu16	Cu	0.601309	-0.589624	0.628001
Cu17	Cu	-0.101077	-1.089641	0.128011
Cu18	Cu	0.398923	-0.589641	0.628011
O19	O	0.085673	-1.082517	0.262239
O20	O	0.585673	-0.582517	0.762239
C21	C	0.000096	-0.921035	0.134461
C22	C	0.500096	-0.421035	0.634461
C23	C	0.000084	-0.818654	0.132473
C24	C	0.500084	-0.318654	0.632473
C25	C	0.000126	-1.096075	-0.040591
C26	C	0.500126	-0.596075	0.459409
C27	C	0.000127	-1.094079	-0.142971
C28	C	0.500127	-0.594079	0.357029
N29	N	0.243656	-1.089618	0.127994
N30	N	0.743656	-0.589618	0.627994
N31	N	-0.243424	-1.089654	0.128010
N32	N	0.256576	-0.589654	0.628010
C33	C	0.663470	-1.089640	0.128012
C34	C	1.163470	-0.589640	0.628012
C35	C	0.546665	-1.089631	0.128010
C36	C	1.046665	-0.589631	0.628010
C37	C	0.453567	-1.089630	0.128004
C38	C	0.953567	-0.589630	0.628004
C39	C	0.336754	-1.089620	0.128001
C40	C	0.836754	-0.589620	0.628001
C41	C	0.000133	-1.258230	0.121551
C42	C	0.500133	-0.758230	0.621551
C43	C	0.000138	-1.360612	0.123539
C44	C	0.500138	-0.860612	0.623539
C45	C	0.000132	-0.443757	0.125153
C46	C	0.500132	0.056243	0.625153
C47	C	0.000118	-0.548065	0.127186
C48	C	0.500118	-0.048065	0.627186
C49	C	0.000107	-0.631202	0.128813
C50	C	0.500107	-0.131202	0.628813
C51	C	0.000095	-0.735517	0.130846
C52	C	0.500095	-0.235517	0.630846
C53	C	0.000124	-1.092457	-0.226115
C54	C	0.500124	-0.592457	0.273885
C55	C	0.000116	-1.090430	-0.330424
C56	C	0.500116	-0.590430	0.169576
C57	C	0.000109	-1.088822	-0.413563
C58	C	0.500109	-0.588822	0.086437
C59	C	0.000103	-1.086795	-0.517878
C60	C	0.500103	-0.586795	-0.017878
C61	C	0.000103	-1.083191	0.296603
C62	C	0.500103	-0.583191	0.796603
C63	C	0.000096	-1.085187	0.398983
C64	C	0.500096	-0.585187	0.898983
