data_functionalizedCrystal
_audit_creation_method	'MofGen! by Chris Wilmer'
_symmetry_space_group_name_H-M	'P1'
_symmetry_Int_Tables_number	1
_symmetry_cell_setting	triclinic
loop_
_symmetry_equiv_pos_as_xyz
  x,y,z
_cell_length_a	13.897449
_cell_length_b	13.897447
_cell_length_c	12.759393
_cell_angle_alpha	90.031000
_cell_angle_beta	90.024249
_cell_angle_gamma	90.020357
loop_
_atom_site_label
_atom_site_type_symbol
_atom_site_fract_x
_atom_site_fract_y
_atom_site_fract_z
Zn1	Zn	1.474698	-0.383947	0.594109
Zn2	Zn	1.474585	-0.545273	0.418428
Zn3	Zn	1.313385	-0.383996	0.418434
Zn4	Zn	1.313364	-0.545204	0.594055
O5	O	1.394008	-0.464605	0.506257
O6	O	1.609665	-0.405356	0.570825
O7	O	1.453163	-0.523929	0.271408
O8	O	1.334840	-0.249008	0.441763
O9	O	1.609582	-0.523881	0.441752
O10	O	1.453356	-0.248972	0.570831
O11	O	1.334730	-0.405440	0.271412
O12	O	1.178401	-0.405372	0.441711
O13	O	1.334804	-0.523763	0.741083
O14	O	1.178385	-0.523811	0.570738
O15	O	1.453336	-0.405288	0.741123
O16	O	1.453142	-0.680246	0.441700
O17	O	1.334694	-0.680195	0.570732
C18	C	1.143394	-0.464590	0.506220
C19	C	1.036180	-0.464607	0.506229
C20	C	1.393930	-0.715219	0.506232
C21	C	1.393984	-0.822433	0.506257
C22	C	0.949110	-0.464610	0.506247
C23	C	0.839878	-0.464617	0.506279
C24	C	1.394031	-0.909503	0.506281
C25	C	1.394099	-1.018736	0.506308
C26	C	1.645601	-0.464621	0.506294
C27	C	1.752815	-0.464627	0.506310
C28	C	1.394080	-0.464513	0.780290
C29	C	1.394111	-0.464473	0.897067
C30	C	1.394113	-0.213012	0.506304
C31	C	1.394158	-0.105798	0.506324
C32	C	1.393992	-0.464628	0.233289
C33	C	1.394148	-0.464395	0.116513
C34	C	1.455835	-0.402773	0.951951
C35	C	1.455851	-0.402732	1.061675
C36	C	1.332417	-0.526098	1.061621
C37	C	1.332397	-0.526134	0.951899
H38	H	1.506084	-0.352562	0.907310
O39	O	1.272525	-0.586132	1.114773
C40	C	1.293575	-0.682280	1.087965
H41	H	1.330637	-0.684308	1.008306
H42	H	1.223941	-0.725529	1.084188
H43	H	1.343167	-0.714753	1.149721
O44	O	1.272570	-0.586122	0.898461
C45	C	1.327450	-0.648461	0.835012
H46	H	1.400562	-0.614453	0.818604
H47	H	1.288142	-0.661404	0.757840
H48	H	1.338022	-0.719933	0.877282
O49	O	1.515903	-0.342768	1.114827
C50	C	1.570347	-0.288338	1.042898
H51	H	1.573654	-0.327877	0.964679
H52	H	1.646357	-0.278046	1.074621
H53	H	1.535057	-0.215080	1.031231
