data_functionalizedCrystal
_audit_creation_method	'MofGen! by Chris Wilmer'
_symmetry_space_group_name_H-M	'P1'
_symmetry_Int_Tables_number	1
_symmetry_cell_setting	triclinic
loop_
_symmetry_equiv_pos_as_xyz
  x,y,z
_cell_length_a	16.704494
_cell_length_b	23.196402
_cell_length_c	23.196401
_cell_angle_alpha	60.008822
_cell_angle_beta	90.013666
_cell_angle_gamma	56.632774
loop_
_atom_site_label
_atom_site_type_symbol
_atom_site_fract_x
_atom_site_fract_y
_atom_site_fract_z
Zr1	Zr	0.815205	0.570728	-0.045488
O2	O	0.680059	0.700986	-0.142531
O3	O	0.856632	0.447399	-0.015743
O4	O	0.856594	0.567669	-0.136010
O5	O	0.680130	0.580713	0.072608
O6	O	0.995852	0.557373	-0.130861
O7	O	0.680096	0.580717	-0.022265
O8	O	0.995919	0.342233	0.084274
O9	O	0.680063	0.795853	-0.142527
O10	O	0.978230	0.487876	0.000789
O11	O	0.874329	0.495557	0.067750
O12	O	0.874285	0.637159	-0.073849
O13	O	0.770383	0.644840	-0.006889
Zr14	Zr	1.037359	0.554301	0.114034
Zr15	Zr	1.037306	0.554307	-0.037277
Zr16	Zr	0.815259	0.570722	0.105822
Zr17	Zr	0.815212	0.722030	-0.045482
Zr18	Zr	1.037353	0.402999	0.114027
O19	O	0.995933	0.677629	0.084289
O20	O	0.995857	0.677638	-0.130856
O21	O	0.680135	0.700977	0.072613
O22	O	1.172506	0.424042	0.211077
O23	O	1.172430	0.424051	-0.004068
O24	O	0.856707	0.447390	0.199401
O25	O	1.172435	0.544316	-0.004063
O26	O	0.995970	0.557360	0.204555
O27	O	0.856712	0.567655	0.199407
O28	O	1.172468	0.544312	0.090810
O29	O	0.856603	0.782801	-0.136000
O30	O	0.995962	0.342228	0.204546
O31	O	1.172502	0.329175	0.211073
O32	O	1.172460	0.329180	0.090801
O33	O	0.680105	0.795848	-0.022255
O34	O	0.856645	0.782796	-0.015728
O35	O	0.978280	0.487870	0.142394
O36	O	1.082182	0.480189	0.075434
O37	O	0.978236	0.629472	0.000796
O38	O	0.874334	0.637153	0.067756
C39	C	0.926275	0.373259	0.034264
C40	C	0.926272	0.309027	0.034261
C41	C	0.980501	0.274848	-0.000694
C42	C	0.980511	0.214486	-0.000688
C43	C	0.926272	0.188319	0.034263
C44	C	0.872041	0.222502	0.069227
C45	C	0.872041	0.282856	0.069226
C46	C	0.835402	0.133008	0.025629
C47	C	0.835399	0.072659	0.025625
C48	C	0.926273	0.002164	0.034270
C49	C	1.017149	-0.007967	0.042906
C50	C	1.017150	0.052387	0.042905
C51	C	0.926266	0.122875	0.034269
C52	C	0.980517	-0.097467	-0.000680
C53	C	0.980530	-0.157834	-0.000669
C54	C	0.872051	-0.149810	0.069241
C55	C	0.872048	-0.089451	0.069235
C56	C	0.926279	-0.063281	0.034270
C57	C	0.648468	0.583054	0.024002
C58	C	0.554181	0.590025	0.020516
C59	C	0.485532	0.447259	0.091905
C60	C	0.396944	0.453805	0.088632
C61	C	0.288414	0.609662	0.010700
C62	C	0.377003	0.603116	0.013973
C63	C	0.475561	0.521912	0.054576
C64	C	0.564151	0.515367	0.057845
C65	C	0.455620	0.671223	-0.020082
C66	C	0.367031	0.677769	-0.023355
C67	C	1.204096	0.541975	0.044544
C68	C	1.298384	0.535004	0.048030
C69	C	0.926216	0.562522	-0.154994
C70	C	0.926193	0.562525	-0.219230
C71	C	0.926290	0.751770	0.034281
C72	C	0.926293	0.816002	0.034284
C73	C	0.871940	0.640446	-0.288363
C74	C	0.871966	0.640446	-0.348717
C75	C	0.926232	0.562520	-0.339934
C76	C	0.980497	0.484588	-0.270789
C77	C	0.980478	0.484590	-0.210436
C78	C	0.918524	0.506462	-0.407539
C79	C	0.918535	0.506463	-0.467892
C80	C	0.926297	0.562509	-0.526080
C81	C	0.934027	0.618569	-0.523914
C82	C	0.934007	0.618571	-0.463562
C83	C	0.926259	0.562509	-0.405372
C84	C	0.872070	0.640435	-0.660659
C85	C	0.872103	0.640430	-0.721012
C86	C	0.980628	0.484571	-0.643082
C87	C	0.980601	0.484577	-0.582730
C88	C	0.926316	0.562512	-0.591524
C89	C	0.926349	0.562507	0.223540
C90	C	0.926371	0.562504	0.287775
C91	C	1.204088	0.352719	0.044535
C92	C	1.298373	0.281516	0.048018
C93	C	0.926341	0.373251	0.223531
C94	C	0.926361	0.309017	0.287764
C95	C	1.204155	0.352711	0.233802
C96	C	1.298462	0.281506	0.301521
C97	C	0.648410	0.772318	-0.165257
C98	C	0.554102	0.843523	-0.232975
C99	C	0.648476	0.772310	0.024010
C100	C	0.554191	0.843513	0.020527
C101	C	0.926223	0.751778	-0.154986
C102	C	0.926203	0.816012	-0.219218
C103	C	1.288389	0.252091	0.010684
C104	C	1.376971	0.185198	0.013942
C105	C	1.475537	0.147726	0.054539
C106	C	1.485519	0.177158	0.091875
C107	C	1.396938	0.244054	0.088612
C108	C	0.980632	0.274839	0.356898
C109	C	0.980647	0.214493	0.417257
C110	C	0.926396	0.188321	0.408480
C111	C	0.872118	0.222505	0.339339
C112	C	0.872098	0.282854	0.278981
C113	C	1.396995	0.244057	0.298370
C114	C	1.485615	0.177160	0.361993
C115	C	1.475701	0.147709	0.428766
C116	C	1.377158	0.185164	0.431915
C117	C	1.288540	0.252064	0.368293
C118	C	0.455569	0.880979	-0.229824
C119	C	0.366949	0.947895	-0.293448
C120	C	0.376864	0.977350	-0.360221
C121	C	0.475407	0.939890	-0.363370
C122	C	0.564025	0.872980	-0.299748
C123	C	0.564176	0.872944	0.057855
C124	C	0.475594	0.939854	0.054580
C125	C	0.377028	0.977328	0.013981
C126	C	0.367045	0.947893	-0.023352
C127	C	0.455627	0.880989	-0.020081
C128	C	0.980465	0.842165	-0.210419
C129	C	0.980466	0.902510	-0.270765
C130	C	0.926200	0.936707	-0.339912
C131	C	0.871937	0.910549	-0.348710
C132	C	0.871942	0.850200	-0.288364
H133	H	1.024672	0.186652	-0.029153
Br134	Br	1.054273	0.310340	0.368830
H135	H	0.405071	0.393015	0.119029
H136	H	0.761401	0.080916	0.018590
Br137	Br	1.054121	-0.061951	-0.048125
H138	H	0.827949	0.201186	0.332203
Br139	Br	1.140486	-0.103630	0.054633
H140	H	0.565781	0.381139	0.124970
Br141	Br	0.697907	0.405163	0.112944
H142	H	1.369100	0.161175	0.486291
H143	H	0.286781	0.978414	-0.056407
H144	H	0.447477	0.857002	-0.175460
Br145	Br	1.054317	0.168112	0.511083
Br146	Br	0.798284	0.956974	-0.442557
Br147	Br	1.410480	0.284016	0.207758
H148	H	0.926421	0.139180	0.457633
Br149	Br	0.798441	0.329228	0.185158
H150	H	1.565846	0.146670	0.359416
Br151	Br	0.697745	0.822150	-0.304037
H152	H	0.912236	0.460819	-0.469651
H153	H	0.926204	0.985846	-0.389043
Br154	Br	0.489166	0.979784	0.105252
H155	H	1.208313	0.282547	0.370868
H156	H	1.547868	0.093233	0.480566
Br157	Br	0.233226	0.998717	-0.289157
Br158	Br	0.488845	0.979873	-0.453997
H159	H	0.208156	0.675774	-0.022347
H160	H	0.447483	0.857028	-0.050476
H161	H	0.286775	0.743883	-0.056410
H162	H	0.827751	0.828914	-0.295539
H163	H	1.024814	0.421122	-0.635929
Br164	Br	1.054121	0.795768	-0.116585
H165	H	0.304697	1.031833	-0.412021
H166	H	0.644425	0.842438	0.090920
H167	H	0.304908	1.031805	0.011323
Br168	Br	1.154632	0.302933	-0.044420
Br169	Br	1.054109	0.938001	-0.258808
H170	H	1.024662	0.296152	-0.029162
H171	H	1.091145	0.044134	0.049938
H172	H	1.565783	0.146639	0.124928
Br173	Br	0.798441	-0.185318	0.116677
Br174	Br	1.054130	-0.204220	-0.048114
H175	H	0.827885	-0.061619	0.097696
H176	H	0.827869	0.703894	-0.667819
H177	H	0.761391	0.190416	0.018574
Br178	Br	1.410507	0.283975	0.139290
H179	H	0.827880	0.201192	0.097685
H180	H	0.447506	0.732011	-0.050480
Br181	Br	0.798442	0.329244	0.116671
H182	H	0.827928	0.703886	-0.777305
H183	H	0.940303	0.664216	-0.461802
Br184	Br	0.798241	0.746216	-0.300300
H185	H	0.827784	0.703901	-0.405016
Br186	Br	0.944558	0.694639	-0.602879
H187	H	1.024776	0.421125	-0.526437
Br188	Br	0.908087	0.430336	-0.328544
H189	H	1.024682	0.421140	-0.263641
Br190	Br	1.363399	0.145268	-0.036730
Br191	Br	1.054109	0.378831	-0.116605
H192	H	1.547657	0.093255	0.057191
