data_functionalizedCrystal
_audit_creation_method	'MofGen! by Chris Wilmer'
_symmetry_space_group_name_H-M	'P1'
_symmetry_Int_Tables_number	1
_symmetry_cell_setting	triclinic
loop_
_symmetry_equiv_pos_as_xyz
  x,y,z
_cell_length_a	10.540510
_cell_length_b	10.540539
_cell_length_c	14.185569
_cell_angle_alpha	76.712172
_cell_angle_beta	103.287565
_cell_angle_gamma	84.519401
loop_
_atom_site_label
_atom_site_type_symbol
_atom_site_fract_x
_atom_site_fract_y
_atom_site_fract_z
O1	O	1.657373	0.207245	-0.083419
O2	O	1.287955	0.224140	-0.083419
O3	O	1.481093	0.030984	-0.083417
O4	O	1.464236	0.400400	-0.083420
O5	O	1.538147	-0.026069	0.083418
O6	O	1.345010	0.167086	0.083416
O7	O	1.714428	0.150191	0.083416
Cu8	Cu	1.534928	0.153429	0.098650
Cu9	Cu	1.467455	0.220902	-0.098652
O10	O	1.521290	0.343346	0.083415
C11	C	1.269179	0.194354	-0.000001
C12	C	1.128229	0.190587	-0.000001
C13	C	0.910642	0.324903	-0.000386
C14	C	1.057368	0.328790	-0.000004
C15	C	1.116049	0.087261	0.095268
C16	C	0.969314	0.084197	0.095341
C17	C	0.904626	0.146199	-0.094381
C18	C	1.050538	0.153183	-0.095634
C19	C	1.508355	-0.044845	-0.000002
C20	C	1.504571	-0.185790	-0.000007
C21	C	1.359524	-0.369074	-0.000382
C22	C	1.363487	-0.222584	-0.000006
C23	C	1.605049	-0.280036	0.095264
C24	C	1.600261	-0.426607	0.095344
C25	C	1.538249	-0.362245	-0.094378
C26	C	1.539118	-0.214833	-0.095638
C27	C	1.733203	0.179977	-0.000003
C28	C	1.874151	0.183746	-0.000010
C29	C	1.494027	0.419176	-0.000003
C30	C	1.497808	0.560124	-0.000004
N31	N	1.582395	0.105972	0.237421
N32	N	1.419998	0.268349	-0.237423
C33	C	1.280541	0.407723	0.605069
C34	C	1.316505	0.371783	0.710091
C35	C	1.487564	0.200809	0.710053
C36	C	1.451610	0.236730	0.605029
C37	C	1.348098	0.340189	0.552545
C38	C	1.519167	0.169196	0.552505
C39	C	1.483220	0.205119	0.447491
C40	C	1.379715	0.308576	0.394999
C41	C	1.312151	0.376112	0.447530
C42	C	1.622684	0.065743	0.604991
C43	C	1.690242	-0.001791	0.552467
C44	C	1.654289	0.034126	0.447451
C45	C	1.550784	0.137583	0.394959
C46	C	1.721853	-0.033410	0.394920
C47	C	1.685906	0.002513	0.289905
C48	C	1.514837	0.173506	0.289945
H49	H	1.171150	0.112147	0.166166
Br50	Br	0.801776	0.453597	-0.114264
H51	H	1.350453	0.337827	0.309490
H52	H	0.882252	0.042658	-0.095025
Br53	Br	1.420972	-0.373649	-0.214734
Br54	Br	1.771840	-0.509051	0.102561
Br55	Br	1.628045	0.060409	0.781287
H56	H	1.740920	-0.052480	0.247140
H57	H	1.280428	-0.374304	-0.068702
Br58	Br	0.792564	0.260009	-0.214737
Br59	Br	0.942867	0.124193	0.214034
Br60	Br	1.416844	-0.105721	-0.213128
H61	H	1.109166	0.361079	0.068403
H62	H	1.640012	-0.188655	-0.101391
Br63	Br	1.707730	-0.440609	-0.095449
Br64	Br	1.058123	0.279105	-0.213111
H65	H	1.327253	-0.422508	0.067556
H66	H	1.430539	0.257744	0.247210
Br67	Br	1.197034	-0.084344	0.101173
Br68	Br	1.830723	-0.142190	0.623701
Br69	Br	1.129031	-0.011716	-0.105223
Br70	Br	1.235516	-0.112633	-0.113835
Br71	Br	1.312800	-0.191956	0.114008
H72	H	1.651952	0.036503	0.690501
H73	H	1.806142	-0.117639	0.437665
Br74	Br	1.171651	0.516507	0.376297
Br75	Br	1.557215	-0.514198	0.214041
H76	H	1.196242	0.491961	0.562335
Br77	Br	1.224810	0.463460	0.781366
Br78	Br	1.779761	-0.244825	0.101174
H79	H	0.947799	-0.020650	0.099670
H80	H	1.063359	0.407492	-0.068299
H81	H	1.582130	-0.261677	0.166161
H82	H	0.890367	0.355203	0.067549
