data_functionalizedCrystal
_audit_creation_method	'MofGen! by Chris Wilmer'
_symmetry_space_group_name_H-M	'P1'
_symmetry_Int_Tables_number	1
_symmetry_cell_setting	triclinic
loop_
_symmetry_equiv_pos_as_xyz
  x,y,z
_cell_length_a	10.654562
_cell_length_b	10.654562
_cell_length_c	9.130313
_cell_angle_alpha	90.002721
_cell_angle_beta	90.005872
_cell_angle_gamma	95.509917
loop_
_atom_site_label
_atom_site_type_symbol
_atom_site_fract_x
_atom_site_fract_y
_atom_site_fract_z
O1	O	1.667838	-0.176465	0.121887
O2	O	1.302362	-0.193254	0.121868
O3	O	1.493495	-0.002122	0.121877
O4	O	1.476706	-0.367598	0.121877
O5	O	1.493482	-0.002133	-0.121721
O6	O	1.302349	-0.193266	-0.121731
O7	O	1.667825	-0.176476	-0.121712
Cu8	Cu	1.485086	-0.184872	-0.143964
Cu9	Cu	1.485101	-0.184859	0.144120
O10	O	1.476692	-0.367609	-0.121722
C11	C	1.255558	-0.192024	0.000066
C12	C	1.116115	-0.188326	0.000059
C13	C	1.050578	-0.186607	-0.132715
C14	C	0.919555	-0.183142	-0.132691
C15	C	0.919620	-0.183120	0.132894
C16	C	1.050641	-0.186576	0.132868
C17	C	1.050539	-0.186625	-0.286049
C18	C	0.919516	-0.183160	-0.286024
C19	C	1.492252	0.044670	0.000081
C20	C	1.488554	0.184113	0.000090
C21	C	1.714629	-0.177707	0.000093
C22	C	1.854072	-0.181405	0.000109
N23	N	1.485084	-0.184881	-0.346587
C24	C	1.372542	0.235658	0.000088
C25	C	1.369075	0.366680	0.000076
C26	C	1.597642	0.394602	0.000076
C27	C	1.601108	0.263582	0.000077
C28	C	1.240580	0.219539	0.000094
C29	C	1.237113	0.350561	0.000083
C30	C	1.477932	0.585599	0.000078
C31	C	1.481621	0.446155	0.000078
C32	C	1.561917	-0.261759	-0.423249
C33	C	1.561935	-0.261735	-0.576586
C34	C	1.408278	-0.107953	-0.576585
C35	C	1.408267	-0.107971	-0.423251
C36	C	1.650625	-0.350548	-0.423250
C37	C	1.650644	-0.350525	-0.576587
N38	N	1.485113	-0.184840	0.346742
H39	H	0.866294	-0.181696	0.241022
H40	H	1.695576	0.221620	0.000060
H41	H	1.195056	0.386184	-0.105090
C42	C	1.597233	-0.478293	-0.359026
H43	H	1.573470	-0.535171	-0.436531
H44	H	1.525547	-0.466758	-0.300475
H45	H	1.659759	-0.511772	-0.300465
H46	H	1.749675	-0.319695	-0.381613
H47	H	1.345716	-0.045356	-0.360839
C48	C	1.608814	-0.484288	-0.632854
H49	H	1.591590	-0.539314	-0.551941
H50	H	1.674140	-0.513605	-0.690657
H51	H	1.534869	-0.482462	-0.690660
C52	C	1.113032	-0.069377	-0.365576
H53	H	1.049823	-0.018805	-0.398253
H54	H	1.159429	-0.095048	-0.447329
H55	H	1.168386	-0.021930	-0.300184
C56	C	1.323777	-0.023368	-0.660920
H57	H	1.334782	-0.034372	-0.763221
H58	H	1.346360	0.062343	-0.635766
H59	H	1.238046	-0.045913	-0.635815
C60	C	1.090505	-0.310351	-0.350340
H61	H	1.017638	-0.363055	-0.378958
H62	H	1.135605	-0.352296	-0.278474
H63	H	1.142916	-0.292028	-0.433275
H64	H	1.200719	0.173904	0.105274
H65	H	0.889921	-0.091569	-0.333604
C66	C	1.721441	0.482020	0.000077
H67	H	1.702764	0.567434	0.000084
H68	H	1.768964	0.466279	-0.084867
H69	H	1.768966	0.466289	0.085041
H70	H	1.103999	-0.187956	0.240985
C71	C	1.778425	-0.297226	-0.640806
H72	H	1.835319	-0.273513	-0.563299
H73	H	1.766948	-0.225521	-0.699356
H74	H	1.811848	-0.359781	-0.699368
C75	C	1.173404	0.163129	-0.137618
H76	H	1.143435	0.228841	-0.194264
H77	H	1.104362	0.105147	-0.109306
H78	H	1.230989	0.120613	-0.194259
H79	H	1.185507	0.379936	0.102020
H80	H	0.873231	-0.269959	-0.344890
