data_functionalizedCrystal
_audit_creation_method	'MofGen! by Chris Wilmer'
_symmetry_space_group_name_H-M	'P1'
_symmetry_Int_Tables_number	1
_symmetry_cell_setting	triclinic
loop_
_symmetry_equiv_pos_as_xyz
  x,y,z
_cell_length_a	14.519731
_cell_length_b	17.699092
_cell_length_c	16.776229
_cell_angle_alpha	89.995030
_cell_angle_beta	89.992771
_cell_angle_gamma	83.487610
loop_
_atom_site_label
_atom_site_type_symbol
_atom_site_fract_x
_atom_site_fract_y
_atom_site_fract_z
O1	O	1.223440	0.099292	-0.066287
O2	O	1.723440	0.599292	0.433713
O3	O	0.954917	0.110959	-0.066288
O4	O	1.454917	0.610959	0.433712
O5	O	1.096761	-0.005041	-0.066285
O6	O	1.596761	0.494959	0.433715
O7	O	1.081596	0.215292	-0.066289
O8	O	1.581596	0.715292	0.433711
O9	O	1.096742	-0.005049	0.066291
O10	O	1.596742	0.494951	0.566291
O11	O	0.954898	0.110951	0.066289
O12	O	1.454898	0.610951	0.566289
O13	O	1.223421	0.099285	0.066290
O14	O	1.723421	0.599285	0.566290
Zn15	Zn	1.089157	0.105117	0.087339
Zn16	Zn	1.589157	0.605117	0.587339
Zn17	Zn	1.089182	0.105126	-0.087337
Zn18	Zn	1.589182	0.605126	0.412663
O19	O	1.081577	0.215285	0.066287
O20	O	1.581577	0.715285	0.566287
C21	C	1.096207	-0.033243	0.000002
C22	C	1.596207	0.466757	0.500002
C23	C	1.094573	-0.117266	-0.000002
C24	C	1.594573	0.382734	0.499998
C25	C	0.920550	0.110408	0.000000
C26	C	1.420550	0.610408	0.500000
C27	C	0.818177	0.108770	0.000000
C28	C	1.318177	0.608770	0.500000
C29	C	1.093818	-0.156732	-0.072270
C30	C	1.593818	0.343268	0.427730
C31	C	1.092276	-0.235679	-0.072271
C32	C	1.592276	0.264321	0.427729
C33	C	1.091497	-0.275160	-0.000003
C34	C	1.591497	0.224840	0.499997
C35	C	1.092250	-0.235689	0.072271
C36	C	1.592250	0.264311	0.572271
C37	C	1.093784	-0.156742	0.072271
C38	C	1.593784	0.343258	0.572271
C39	C	1.086059	-0.554072	0.072272
C40	C	1.586059	-0.054072	0.572272
C41	C	1.084527	-0.633024	0.072266
C42	C	1.584527	-0.133024	0.572266
C43	C	1.084551	-0.633009	-0.072270
C44	C	1.584551	-0.133009	0.427730
C45	C	1.086086	-0.554062	-0.072270
C46	C	1.586086	-0.054062	0.427730
C47	C	1.086834	-0.514597	0.000003
C48	C	1.586834	-0.014597	0.500003
C49	C	1.088503	-0.428993	0.000003
C50	C	1.588503	0.071007	0.500003
C51	C	1.089834	-0.360763	-0.000002
C52	C	1.589834	0.139237	0.499998
C53	C	0.735038	0.107439	-0.000003
C54	C	1.235038	0.607439	0.499997
C55	C	0.630737	0.105776	-0.000003
C56	C	1.130737	0.605776	0.499997
C57	C	0.547603	0.104456	-0.000003
C58	C	1.047603	0.604456	0.499997
C59	C	0.443295	0.102793	-0.000005
C60	C	0.943295	0.602793	0.499995
C61	C	1.257788	0.099835	-0.000000
C62	C	1.757788	0.599835	0.500000
C63	C	1.360161	0.101473	-0.000005
C64	C	1.860161	0.601473	0.499995
C65	C	1.082131	0.243487	-0.000001
C66	C	1.582131	0.743487	0.499999
C67	C	1.083765	0.327509	-0.000003
C68	C	1.583765	0.827509	0.499997
N69	N	1.089147	0.105110	0.206550
N70	N	1.589147	0.605110	0.706550
N71	N	1.089199	0.105127	-0.206548
N72	N	1.589199	0.605127	0.293452
C73	C	1.151974	0.053766	0.248268
C74	C	1.651974	0.553766	0.748268
C75	C	1.151979	0.053766	0.331720
C76	C	1.651979	0.553766	0.831720
C77	C	1.089161	0.105113	0.373453
C78	C	1.589161	0.605113	0.873453
C79	C	1.026326	0.156459	0.331729
C80	C	1.526326	0.656459	0.831729
C81	C	1.026317	0.156455	0.248278
C82	C	1.526317	0.656455	0.748278
C83	C	1.026359	0.156474	0.668276
C84	C	1.526359	0.656474	1.168276
C85	C	1.026375	0.156475	0.751733
C86	C	1.526375	0.656475	1.251733
C87	C	1.152022	0.053784	0.751718
C88	C	1.652022	0.553784	1.251718
C89	C	1.152013	0.053781	0.668267
C90	C	1.652013	0.553781	1.168267
C91	C	1.089176	0.105124	0.626551
C92	C	1.589176	0.605124	1.126551
C93	C	1.089170	0.105123	0.536062
C94	C	1.589170	0.605123	1.036062
C95	C	1.089170	0.105118	0.463940
C96	C	1.589170	0.605118	0.963940
H97	H	1.091665	-0.267809	-0.131120
H98	H	1.591665	0.232191	0.368880
O99	O	1.086685	-0.515821	0.142530
O100	O	1.586685	-0.015821	0.642530
C101	C	1.006465	-0.526646	0.186500
C102	C	1.506465	-0.026646	0.686500
H103	H	0.978721	-0.581137	0.165942
H104	H	1.478721	-0.081137	0.665942
H105	H	1.024378	-0.531273	0.252609
H106	H	1.524378	-0.031273	0.752609
H107	H	0.951427	-0.476284	0.176505
H108	H	1.451427	0.023716	0.676505
O109	O	0.965265	0.206233	0.372355
O110	O	1.465265	0.706233	0.872355
C111	C	0.908460	0.165592	0.420631
C112	C	1.408460	0.665592	0.920631
H113	H	0.945325	0.106437	0.433132
H114	H	1.445325	0.606437	0.933132
H115	H	0.893809	0.197157	0.479312
H116	H	1.393809	0.697157	0.979312
H117	H	0.840312	0.160319	0.388486
H118	H	1.340312	0.660319	0.888486
H119	H	1.203138	0.011957	0.365687
H120	H	1.703138	0.511957	0.865687
H121	H	1.203169	0.011972	0.634291
H122	H	1.703169	0.511972	1.134291
O123	O	1.083964	-0.671322	-0.142504
O124	O	1.583964	-0.171322	0.357496
C125	C	1.164167	-0.660471	-0.186486
C126	C	1.664167	-0.160471	0.313514
H127	H	1.220399	-0.644701	-0.144204
H128	H	1.720399	-0.144701	0.355796
H129	H	1.189944	-0.715222	-0.219283
H130	H	1.689944	-0.215222	0.280717
H131	H	1.147014	-0.612720	-0.231536
H132	H	1.647014	-0.112720	0.268464
O133	O	1.091535	-0.274160	0.142402
O134	O	1.591535	0.225840	0.642402
C135	C	1.090001	-0.352302	0.126907
C136	C	1.590001	0.147698	0.626907
H137	H	1.118982	-0.366170	0.064796
H138	H	1.618982	0.133830	0.564796
H139	H	1.134172	-0.387048	0.173060
H140	H	1.634172	0.112952	0.673060
H141	H	1.015610	-0.366875	0.130336
H142	H	1.515610	0.133125	0.630336
O143	O	1.094547	-0.118522	0.142544
O144	O	1.594547	0.381478	0.642544
C145	C	1.093501	-0.170293	0.206331
C146	C	1.593501	0.329707	0.706331
H147	H	1.121609	-0.229658	0.185150
H148	H	1.621609	0.270342	0.685150
H149	H	1.138676	-0.152221	0.256884
H150	H	1.638676	0.347779	0.756884
H151	H	1.019374	-0.170864	0.228538
H152	H	1.519374	0.329136	0.728538
O153	O	0.965415	0.206364	0.207663
O154	O	1.465415	0.706364	0.707663
C155	C	1.014688	0.253162	0.159388
C156	C	1.514688	0.753162	0.659388
H157	H	1.086915	0.223156	0.146877
H158	H	1.586915	0.723156	0.646877
H159	H	0.976163	0.265058	0.100711
H160	H	1.476163	0.765058	0.600711
H161	H	1.020827	0.309115	0.191539
H162	H	1.520827	0.809115	0.691539
O163	O	1.212968	0.003930	0.792366
O164	O	1.712968	0.503930	1.292366
C165	C	1.199524	0.014950	0.874971
C166	C	1.699524	0.514950	1.374971
H167	H	1.126144	0.043096	0.886382
H168	H	1.626144	0.543096	1.386382
H169	H	1.209921	-0.042349	0.906690
H170	H	1.709921	0.457651	1.406690
H171	H	1.251634	0.053012	0.898639
H172	H	1.751634	0.553012	1.398639
H173	H	1.083890	-0.665167	0.131119
H174	H	1.583890	-0.165167	0.631119
O175	O	0.965245	0.206250	0.627719
O176	O	1.465245	0.706250	1.127719
C177	C	0.908450	0.165616	0.579446
C178	C	1.408450	0.665616	1.079446
H179	H	0.907018	0.105925	0.604602
H180	H	1.407018	0.605925	1.104602
H181	H	0.835088	0.196366	0.578506
H182	H	1.335088	0.696366	1.078506
H183	H	0.937317	0.161699	0.516197
H184	H	1.437317	0.661699	1.016197
H185	H	1.094457	-0.124593	-0.131120
H186	H	1.594457	0.375407	0.368880
H187	H	1.203132	0.011957	0.214295
H188	H	1.703132	0.511957	0.714295
O189	O	1.086659	-0.515748	-0.142505
O190	O	1.586659	-0.015748	0.357495
C191	C	1.006451	-0.526624	-0.186450
C192	C	1.506451	-0.026624	0.313550
H193	H	0.950240	-0.542408	-0.144139
H194	H	1.450240	-0.042408	0.355861
H195	H	0.980644	-0.471881	-0.219252
H196	H	1.480644	0.028119	0.280748
H197	H	1.023611	-0.574376	-0.231493
H198	H	1.523611	-0.074376	0.268507
H199	H	0.975217	0.198290	0.785710
H200	H	1.475217	0.698290	1.285710
